
 OpenBabel03272508293D

 40 44  0  0  1  0  0  0  0  0999 V2000
   36.0870   26.8540   31.2480 C   0  0  2  0  0  0  0  0  0  0  0  0
   36.6930   27.6600   32.3860 C   0  0  2  0  0  0  0  0  0  0  0  0
   36.9600   26.7680   33.3770 O   0  0  0  0  0  0  0  0  0  0  0  0
   37.1030   25.5080   32.8640 C   0  0  0  0  0  0  0  0  0  0  0  0
   36.9510   25.5940   31.3590 C   0  0  1  0  0  0  0  0  0  0  0  0
   35.0400   26.6000   31.4300 H   0  0  0  0  0  0  0  0  0  0  0  0
   37.6350   28.1030   32.0080 H   0  0  0  0  0  0  0  0  0  0  0  0
   38.0870   25.0420   33.1310 H   0  0  0  0  0  0  0  0  0  0  0  0
   36.3190   24.8330   33.2480 H   0  0  0  0  0  0  0  0  0  0  0  0
   37.9470   25.8820   30.9380 H   0  0  0  0  0  0  0  0  0  0  0  0
   35.8790   29.6010   33.8890 C   0  0  1  0  0  0  0  0  0  0  0  0
   35.6730   28.6700   32.8040 C   0  0  1  0  0  0  0  0  0  0  0  0
   35.8070   30.1130   32.4410 C   0  0  0  0  0  0  0  0  0  0  0  0
   36.8540   29.9120   34.3380 H   0  0  0  0  0  0  0  0  0  0  0  0
   34.6330   28.2270   32.7650 H   0  0  0  0  0  0  0  0  0  0  0  0
   36.7330   30.4290   31.9380 H   0  0  0  0  0  0  0  0  0  0  0  0
   34.8680   30.6190   32.1080 H   0  0  0  0  0  0  0  0  0  0  0  0
   34.7150   30.1100   34.7240 C   0  0  0  0  0  0  0  0  0  0  0  0
   34.9450   31.2160   35.5410 C   0  0  0  0  0  0  0  0  0  0  0  0
   33.8530   31.6170   36.3000 C   0  0  0  0  0  0  0  0  0  0  0  0
   32.6580   30.9590   36.2320 N   0  0  0  0  0  0  0  0  0  0  0  0
   32.4810   29.8830   35.4180 C   0  0  0  0  0  0  0  0  0  0  0  0
   33.5270   29.4530   34.6540 N   0  0  0  0  0  0  0  0  0  0  0  0
   35.8800   31.7190   35.5870 H   0  0  0  0  0  0  0  0  0  0  0  0
   33.9020   32.4520   36.9660 H   0  0  0  0  0  0  0  0  0  0  0  0
   31.5190   29.3930   35.3970 H   0  0  0  0  0  0  0  0  0  0  0  0
   36.2220   27.4550   30.0120 O   0  0  0  0  0  0  0  0  0  0  0  0
   35.4760   27.2730   29.4050 H   0  0  0  0  0  0  0  0  0  0  0  0
   36.3550   24.5100   30.7770 O   0  0  0  0  0  0  0  0  0  0  0  0
   37.8440   22.5140   30.8920 C   0  0  0  0  0  3  0  0  0  0  0  0
   36.6410   23.1750   31.0280 C   0  0  0  0  0  0  0  0  0  0  0  0
   35.5170   22.4780   31.4710 C   0  0  0  0  0  0  0  0  0  0  0  0
   34.5210   22.9170   31.6090 H   0  0  0  0  0  0  0  0  0  0  0  0
   35.5840   21.1400   31.7750 C   0  0  0  0  0  0  0  0  0  0  0  0
   36.8030   20.4970   31.6320 C   0  0  0  0  0  0  0  0  0  0  0  0
   37.9380   21.1730   31.1920 C   0  0  0  0  0  3  0  0  0  0  0  0
   36.6170   19.1670   31.9970 O   0  0  0  0  0  0  0  0  0  0  0  0
   35.3730   19.0270   32.6650 C   0  0  0  0  0  3  0  0  0  0  0  0
   34.8110   18.1110   32.3200 H   0  0  0  0  0  0  0  0  0  0  0  0
   34.6730   20.1950   32.2260 O   0  0  0  0  0  0  0  0  0  0  0  0
  1  5  1  0  0  0  0
  1  6  1  1  0  0  0
  1  2  1  0  0  0  0
  2  7  1  6  0  0  0
  2 12  1  0  0  0  0
  2  3  1  0  0  0  0
  4  8  1  0  0  0  0
  4  9  1  0  0  0  0
  4  3  1  0  0  0  0
  5 10  1  6  0  0  0
  5  4  1  0  0  0  0
 11 14  1  1  0  0  0
 11 18  1  0  0  0  0
 12 15  1  6  0  0  0
 12 11  1  0  0  0  0
 13 12  1  0  0  0  0
 13 11  1  0  0  0  0
 16 13  1  0  0  0  0
 17 13  1  0  0  0  0
 18 19  1  0  0  0  0
 19 24  1  0  0  0  0
 19 20  2  0  0  0  0
 20 25  1  0  0  0  0
 21 20  1  0  0  0  0
 22 21  2  0  0  0  0
 23 18  2  0  0  0  0
 23 22  1  0  0  0  0
 26 22  1  0  0  0  0
 27  1  1  0  0  0  0
 28 27  1  0  0  0  0
 29 31  1  0  0  0  0
 29  5  1  0  0  0  0
 30 31  2  0  0  0  0
 30 36  1  0  0  0  0
 31 32  1  0  0  0  0
 32 33  1  0  0  0  0
 32 34  2  0  0  0  0
 34 40  1  0  0  0  0
 35 34  1  0  0  0  0
 35 37  1  0  0  0  0
 36 35  2  0  0  0  0
 37 38  1  0  0  0  0
 39 38  1  0  0  0  0
 40 38  1  0  0  0  0
M  END
>  <minimizedAffinity>
-5.87087202

$$$$

 OpenBabel03272508293D

 40 44  0  0  1  0  0  0  0  0999 V2000
   38.4830   25.4680   32.1190 C   0  0  2  0  0  0  0  0  0  0  0  0
   37.3540   25.8230   31.1650 C   0  0  2  0  0  0  0  0  0  0  0  0
   36.5900   26.7410   31.8140 O   0  0  0  0  0  0  0  0  0  0  0  0
   37.3210   27.3850   32.7730 C   0  0  0  0  0  0  0  0  0  0  0  0
   38.7400   26.8560   32.7170 C   0  0  1  0  0  0  0  0  0  0  0  0
   38.1610   24.7810   32.9060 H   0  0  0  0  0  0  0  0  0  0  0  0
   37.8160   26.2790   30.2670 H   0  0  0  0  0  0  0  0  0  0  0  0
   37.3160   28.4990   32.6460 H   0  0  0  0  0  0  0  0  0  0  0  0
   36.9200   27.1810   33.7810 H   0  0  0  0  0  0  0  0  0  0  0  0
   39.2770   27.4250   31.9180 H   0  0  0  0  0  0  0  0  0  0  0  0
   36.1790   23.6470   31.9200 C   0  0  1  0  0  0  0  0  0  0  0  0
   36.5990   24.5640   30.8850 C   0  0  1  0  0  0  0  0  0  0  0  0
   35.1310   24.4590   31.1420 C   0  0  0  0  0  0  0  0  0  0  0  0
   36.0710   23.8610   33.0110 H   0  0  0  0  0  0  0  0  0  0  0  0
   36.9940   24.0610   29.9520 H   0  0  0  0  0  0  0  0  0  0  0  0
   34.6370   25.3090   31.6350 H   0  0  0  0  0  0  0  0  0  0  0  0
   34.5370   23.9340   30.3540 H   0  0  0  0  0  0  0  0  0  0  0  0
   36.0510   22.1560   31.6480 C   0  0  0  0  0  0  0  0  0  0  0  0
   35.0250   21.4710   32.2980 C   0  0  0  0  0  0  0  0  0  0  0  0
   34.9750   20.1080   32.0320 C   0  0  0  0  0  0  0  0  0  0  0  0
   35.8760   19.5130   31.1950 N   0  0  0  0  0  0  0  0  0  0  0  0
   36.8610   20.2250   30.5830 C   0  0  0  0  0  0  0  0  0  0  0  0
   36.9480   21.5660   30.8150 N   0  0  0  0  0  0  0  0  0  0  0  0
   34.3310   21.9450   32.9480 H   0  0  0  0  0  0  0  0  0  0  0  0
   34.2360   19.4730   32.4690 H   0  0  0  0  0  0  0  0  0  0  0  0
   37.5510   19.7120   29.9300 H   0  0  0  0  0  0  0  0  0  0  0  0
   39.6060   24.9720   31.4870 O   0  0  0  0  0  0  0  0  0  0  0  0
   40.0920   24.3070   32.0160 H   0  0  0  0  0  0  0  0  0  0  0  0
   39.3770   26.7840   33.9240 O   0  0  0  0  0  0  0  0  0  0  0  0
   38.1390   25.6060   35.7400 C   0  0  0  0  0  3  0  0  0  0  0  0
   39.2090   25.8020   34.8910 C   0  0  0  0  0  0  0  0  0  0  0  0
   40.3050   24.9400   34.9510 C   0  0  0  0  0  0  0  0  0  0  0  0
   41.1980   25.0170   34.3190 H   0  0  0  0  0  0  0  0  0  0  0  0
   40.3400   23.8970   35.8440 C   0  0  0  0  0  0  0  0  0  0  0  0
   39.2550   23.7190   36.6860 C   0  0  0  0  0  0  0  0  0  0  0  0
   38.1500   24.5670   36.6430 C   0  0  0  0  0  3  0  0  0  0  0  0
   39.5250   22.6120   37.4850 O   0  0  0  0  0  0  0  0  0  0  0  0
   40.6290   21.8990   36.9510 C   0  0  0  0  0  3  0  0  0  0  0  0
   41.3500   21.5750   37.7560 H   0  0  0  0  0  0  0  0  0  0  0  0
   41.2550   22.8970   36.1400 O   0  0  0  0  0  0  0  0  0  0  0  0
  1  5  1  0  0  0  0
  1  6  1  1  0  0  0
  2  7  1  6  0  0  0
  2  3  1  0  0  0  0
  2  1  1  0  0  0  0
  3  4  1  0  0  0  0
  4  9  1  0  0  0  0
  5 10  1  6  0  0  0
  5  4  1  0  0  0  0
  5 29  1  0  0  0  0
  8  4  1  0  0  0  0
 11 14  1  1  0  0  0
 12 15  1  6  0  0  0
 12 13  1  0  0  0  0
 12  2  1  0  0  0  0
 12 11  1  0  0  0  0
 13 16  1  0  0  0  0
 13 11  1  0  0  0  0
 17 13  1  0  0  0  0
 18 11  1  0  0  0  0
 18 19  1  0  0  0  0
 19 24  1  0  0  0  0
 20 19  2  0  0  0  0
 20 25  1  0  0  0  0
 21 20  1  0  0  0  0
 22 23  1  0  0  0  0
 22 21  2  0  0  0  0
 23 18  2  0  0  0  0
 26 22  1  0  0  0  0
 27 28  1  0  0  0  0
 27  1  1  0  0  0  0
 29 31  1  0  0  0  0
 30 36  1  0  0  0  0
 31 32  1  0  0  0  0
 31 30  2  0  0  0  0
 32 34  2  0  0  0  0
 33 32  1  0  0  0  0
 34 40  1  0  0  0  0
 34 35  1  0  0  0  0
 35 37  1  0  0  0  0
 36 35  2  0  0  0  0
 38 37  1  0  0  0  0
 38 39  1  0  0  0  0
 40 38  1  0  0  0  0
M  END
>  <minimizedAffinity>
-5.74084616

$$$$

 OpenBabel03272508293D

 40 44  0  0  1  0  0  0  0  0999 V2000
   39.2410   24.4770   35.2660 C   0  0  2  0  0  0  0  0  0  0  0  0
   38.8430   25.7680   35.9640 C   0  0  2  0  0  0  0  0  0  0  0  0
   37.7460   25.4680   36.7090 O   0  0  0  0  0  0  0  0  0  0  0  0
   37.7080   24.1310   36.9940 C   0  0  0  0  0  0  0  0  0  0  0  0
   38.9460   23.4890   36.4010 C   0  0  1  0  0  0  0  0  0  0  0  0
   38.6030   24.2540   34.4080 H   0  0  0  0  0  0  0  0  0  0  0  0
   39.6840   26.0570   36.6230 H   0  0  0  0  0  0  0  0  0  0  0  0
   37.6530   23.9250   38.0950 H   0  0  0  0  0  0  0  0  0  0  0  0
   36.8240   23.6530   36.5390 H   0  0  0  0  0  0  0  0  0  0  0  0
   39.7790   23.6270   37.1340 H   0  0  0  0  0  0  0  0  0  0  0  0
   37.4420   26.6240   33.9660 C   0  0  1  0  0  0  0  0  0  0  0  0
   38.5360   26.7700   34.8970 C   0  0  1  0  0  0  0  0  0  0  0  0
   37.4020   27.7320   35.0310 C   0  0  0  0  0  0  0  0  0  0  0  0
   36.5380   25.9760   34.0790 H   0  0  0  0  0  0  0  0  0  0  0  0
   39.4900   27.1630   34.4330 H   0  0  0  0  0  0  0  0  0  0  0  0
   36.7350   27.6180   35.8980 H   0  0  0  0  0  0  0  0  0  0  0  0
   37.6140   28.7810   34.7080 H   0  0  0  0  0  0  0  0  0  0  0  0
   37.5210   27.1980   32.5600 C   0  0  0  0  0  0  0  0  0  0  0  0
   38.7820   27.2820   31.9710 C   0  0  0  0  0  0  0  0  0  0  0  0
   38.7940   27.8390   30.6980 C   0  0  0  0  0  0  0  0  0  0  0  0
   37.6440   28.2640   30.0960 N   0  0  0  0  0  0  0  0  0  0  0  0
   36.4350   28.1620   30.7120 C   0  0  0  0  0  0  0  0  0  0  0  0
   36.3750   27.6200   31.9630 N   0  0  0  0  0  0  0  0  0  0  0  0
   39.6700   26.9480   32.4490 H   0  0  0  0  0  0  0  0  0  0  0  0
   39.6980   27.9570   30.1410 H   0  0  0  0  0  0  0  0  0  0  0  0
   35.5520   28.5120   30.1980 H   0  0  0  0  0  0  0  0  0  0  0  0
   40.5700   24.4380   34.8930 O   0  0  0  0  0  0  0  0  0  0  0  0
   40.7310   23.9340   34.0700 H   0  0  0  0  0  0  0  0  0  0  0  0
   38.7700   22.2150   35.9380 O   0  0  0  0  0  0  0  0  0  0  0  0
   36.5330   21.1530   35.6500 C   0  0  0  0  0  3  0  0  0  0  0  0
   37.6920   21.7460   35.1970 C   0  0  0  0  0  0  0  0  0  0  0  0
   37.8830   21.9360   33.8280 C   0  0  0  0  0  0  0  0  0  0  0  0
   38.7700   22.3970   33.3760 H   0  0  0  0  0  0  0  0  0  0  0  0
   36.9340   21.5400   32.9180 C   0  0  0  0  0  0  0  0  0  0  0  0
   35.7760   20.9460   33.3940 C   0  0  0  0  0  0  0  0  0  0  0  0
   35.5650   20.7480   34.7570 C   0  0  0  0  0  3  0  0  0  0  0  0
   34.9820   20.6400   32.2940 O   0  0  0  0  0  0  0  0  0  0  0  0
   35.4810   21.3100   31.1470 C   0  0  0  0  0  3  0  0  0  0  0  0
   35.4910   20.6390   30.2390 H   0  0  0  0  0  0  0  0  0  0  0  0
   36.8290   21.5880   31.5340 O   0  0  0  0  0  0  0  0  0  0  0  0
  1  6  1  6  0  0  0
  1  2  1  0  0  0  0
  1  5  1  0  0  0  0
  2  7  1  1  0  0  0
  2  3  1  0  0  0  0
  3  4  1  0  0  0  0
  4  8  1  0  0  0  0
  5  4  1  0  0  0  0
  5 10  1  1  0  0  0
  9  4  1  0  0  0  0
 11 14  1  1  0  0  0
 11 12  1  0  0  0  0
 11 13  1  0  0  0  0
 12 15  1  6  0  0  0
 12 13  1  0  0  0  0
 12  2  1  0  0  0  0
 13 16  1  0  0  0  0
 17 13  1  0  0  0  0
 18 11  1  0  0  0  0
 19 24  1  0  0  0  0
 19 18  1  0  0  0  0
 20 19  2  0  0  0  0
 21 20  1  0  0  0  0
 21 22  2  0  0  0  0
 22 23  1  0  0  0  0
 23 18  2  0  0  0  0
 25 20  1  0  0  0  0
 26 22  1  0  0  0  0
 27  1  1  0  0  0  0
 28 27  1  0  0  0  0
 29  5  1  0  0  0  0
 31 30  1  0  0  0  0
 31 29  1  0  0  0  0
 32 31  2  0  0  0  0
 33 32  1  0  0  0  0
 34 35  2  0  0  0  0
 34 32  1  0  0  0  0
 35 36  1  0  0  0  0
 36 30  2  0  0  0  0
 37 35  1  0  0  0  0
 38 40  1  0  0  0  0
 38 37  1  0  0  0  0
 39 38  1  0  0  0  0
 40 34  1  0  0  0  0
M  END
>  <minimizedAffinity>
-5.63430357

$$$$

 OpenBabel03272508293D

 40 44  0  0  1  0  0  0  0  0999 V2000
   37.0110   26.4720   33.8560 C   0  0  2  0  0  0  0  0  0  0  0  0
   37.2130   27.9580   34.1070 C   0  0  2  0  0  0  0  0  0  0  0  0
   37.6110   28.0680   35.4030 O   0  0  0  0  0  0  0  0  0  0  0  0
   38.1780   26.9000   35.8330 C   0  0  0  0  0  0  0  0  0  0  0  0
   38.1880   25.9270   34.6720 C   0  0  1  0  0  0  0  0  0  0  0  0
   36.0710   26.1040   34.2740 H   0  0  0  0  0  0  0  0  0  0  0  0
   38.0220   28.2970   33.4300 H   0  0  0  0  0  0  0  0  0  0  0  0
   39.2160   27.0440   36.2300 H   0  0  0  0  0  0  0  0  0  0  0  0
   37.5870   26.4500   36.6500 H   0  0  0  0  0  0  0  0  0  0  0  0
   39.0980   26.1470   34.0590 H   0  0  0  0  0  0  0  0  0  0  0  0
   35.5660   29.9290   34.4010 C   0  0  1  0  0  0  0  0  0  0  0  0
   35.9000   28.6290   33.8670 C   0  0  1  0  0  0  0  0  0  0  0  0
   35.7610   29.7480   32.8870 C   0  0  0  0  0  0  0  0  0  0  0  0
   36.2740   30.7120   34.7700 H   0  0  0  0  0  0  0  0  0  0  0  0
   35.0540   27.8790   33.9120 H   0  0  0  0  0  0  0  0  0  0  0  0
   36.6780   30.1300   32.4150 H   0  0  0  0  0  0  0  0  0  0  0  0
   34.8500   29.7160   32.2400 H   0  0  0  0  0  0  0  0  0  0  0  0
   34.1310   30.2970   34.7440 C   0  0  0  0  0  0  0  0  0  0  0  0
   33.8600   31.6360   35.0220 C   0  0  0  0  0  0  0  0  0  0  0  0
   32.5380   31.9060   35.3540 C   0  0  0  0  0  0  0  0  0  0  0  0
   31.5990   30.9160   35.3990 N   0  0  0  0  0  0  0  0  0  0  0  0
   31.9110   29.6210   35.1190 C   0  0  0  0  0  0  0  0  0  0  0  0
   33.1980   29.3100   34.7870 N   0  0  0  0  0  0  0  0  0  0  0  0
   34.6000   32.3980   34.9850 H   0  0  0  0  0  0  0  0  0  0  0  0
   32.2040   32.8940   35.5880 H   0  0  0  0  0  0  0  0  0  0  0  0
   31.1360   28.8710   35.1680 H   0  0  0  0  0  0  0  0  0  0  0  0
   37.1090   26.1180   32.5250 O   0  0  0  0  0  0  0  0  0  0  0  0
   36.5280   25.3720   32.2740 H   0  0  0  0  0  0  0  0  0  0  0  0
   38.0100   24.6160   35.0160 O   0  0  0  0  0  0  0  0  0  0  0  0
   38.5460   23.7190   37.2800 C   0  0  0  0  0  3  0  0  0  0  0  0
   38.7650   23.8910   35.9290 C   0  0  0  0  0  0  0  0  0  0  0  0
   39.8700   23.2900   35.3260 C   0  0  0  0  0  0  0  0  0  0  0  0
   40.1250   23.3700   34.2620 H   0  0  0  0  0  0  0  0  0  0  0  0
   40.7490   22.5260   36.0550 C   0  0  0  0  0  0  0  0  0  0  0  0
   40.5090   22.3660   37.4100 C   0  0  0  0  0  0  0  0  0  0  0  0
   39.4120   22.9570   38.0320 C   0  0  0  0  0  3  0  0  0  0  0  0
   41.5240   21.5620   37.9200 O   0  0  0  0  0  0  0  0  0  0  0  0
   42.2320   20.9550   36.8510 C   0  0  0  0  0  3  0  0  0  0  0  0
   43.3480   20.9800   37.0170 H   0  0  0  0  0  0  0  0  0  0  0  0
   41.9050   21.8170   35.7580 O   0  0  0  0  0  0  0  0  0  0  0  0
  1  2  1  0  0  0  0
  1  6  1  1  0  0  0
  1  5  1  0  0  0  0
  2  7  1  6  0  0  0
  2  3  1  0  0  0  0
  3  4  1  0  0  0  0
  4  8  1  0  0  0  0
  4  9  1  0  0  0  0
  5 10  1  6  0  0  0
  5 29  1  0  0  0  0
  5  4  1  0  0  0  0
 11 18  1  0  0  0  0
 11 14  1  1  0  0  0
 12 15  1  6  0  0  0
 12  2  1  0  0  0  0
 12 11  1  0  0  0  0
 13 12  1  0  0  0  0
 13 11  1  0  0  0  0
 16 13  1  0  0  0  0
 17 13  1  0  0  0  0
 18 23  2  0  0  0  0
 18 19  1  0  0  0  0
 19 20  2  0  0  0  0
 20 21  1  0  0  0  0
 20 25  1  0  0  0  0
 22 26  1  0  0  0  0
 22 21  2  0  0  0  0
 23 22  1  0  0  0  0
 24 19  1  0  0  0  0
 27  1  1  0  0  0  0
 28 27  1  0  0  0  0
 29 31  1  0  0  0  0
 30 36  1  0  0  0  0
 31 30  2  0  0  0  0
 32 31  1  0  0  0  0
 32 34  2  0  0  0  0
 33 32  1  0  0  0  0
 34 35  1  0  0  0  0
 35 37  1  0  0  0  0
 35 36  2  0  0  0  0
 38 39  1  0  0  0  0
 38 37  1  0  0  0  0
 40 34  1  0  0  0  0
 40 38  1  0  0  0  0
M  END
>  <minimizedAffinity>
-5.55261135

$$$$

 OpenBabel03272508293D

 40 44  0  0  1  0  0  0  0  0999 V2000
   36.1610   27.1760   31.1450 C   0  0  2  0  0  0  0  0  0  0  0  0
   36.8520   28.0400   32.1890 C   0  0  2  0  0  0  0  0  0  0  0  0
   37.0170   27.2470   33.2810 O   0  0  0  0  0  0  0  0  0  0  0  0
   37.0200   25.9270   32.9230 C   0  0  0  0  0  0  0  0  0  0  0  0
   36.8810   25.8500   31.4150 C   0  0  1  0  0  0  0  0  0  0  0  0
   35.0930   27.0620   31.3410 H   0  0  0  0  0  0  0  0  0  0  0  0
   37.8380   28.3280   31.7750 H   0  0  0  0  0  0  0  0  0  0  0  0
   37.9450   25.3900   33.2560 H   0  0  0  0  0  0  0  0  0  0  0  0
   36.1660   25.3920   33.3720 H   0  0  0  0  0  0  0  0  0  0  0  0
   37.9030   25.9750   30.9780 H   0  0  0  0  0  0  0  0  0  0  0  0
   34.5430   29.0520   32.7640 C   0  0  1  0  0  0  0  0  0  0  0  0
   35.9500   29.1980   32.4710 C   0  0  1  0  0  0  0  0  0  0  0  0
   35.5100   29.5260   33.8610 C   0  0  0  0  0  0  0  0  0  0  0  0
   34.0160   28.1310   33.1150 H   0  0  0  0  0  0  0  0  0  0  0  0
   36.1940   30.0680   31.7920 H   0  0  0  0  0  0  0  0  0  0  0  0
   35.7930   28.8300   34.6630 H   0  0  0  0  0  0  0  0  0  0  0  0
   35.5120   30.6120   34.1260 H   0  0  0  0  0  0  0  0  0  0  0  0
   33.5430   30.1340   32.3890 C   0  0  0  0  0  0  0  0  0  0  0  0
   33.8960   31.0060   31.3600 C   0  0  0  0  0  0  0  0  0  0  0  0
   32.9550   31.9900   31.0800 C   0  0  0  0  0  0  0  0  0  0  0  0
   31.7840   32.0720   31.7780 N   0  0  0  0  0  0  0  0  0  0  0  0
   31.4830   31.1970   32.7750 C   0  0  0  0  0  0  0  0  0  0  0  0
   32.3780   30.2140   33.0840 N   0  0  0  0  0  0  0  0  0  0  0  0
   34.8110   30.9320   30.8240 H   0  0  0  0  0  0  0  0  0  0  0  0
   33.1080   32.7180   30.3130 H   0  0  0  0  0  0  0  0  0  0  0  0
   30.5450   31.3010   33.3000 H   0  0  0  0  0  0  0  0  0  0  0  0
   36.3630   27.6080   29.8490 O   0  0  0  0  0  0  0  0  0  0  0  0
   35.6030   27.4390   29.2570 H   0  0  0  0  0  0  0  0  0  0  0  0
   36.1680   24.7780   30.9560 O   0  0  0  0  0  0  0  0  0  0  0  0
   37.7020   22.8130   30.8770 C   0  0  0  0  0  3  0  0  0  0  0  0
   36.4960   23.4370   31.1170 C   0  0  0  0  0  0  0  0  0  0  0  0
   35.4130   22.6920   31.5850 C   0  0  0  0  0  0  0  0  0  0  0  0
   34.4190   23.1000   31.8040 H   0  0  0  0  0  0  0  0  0  0  0  0
   35.5250   21.3420   31.8110 C   0  0  0  0  0  0  0  0  0  0  0  0
   36.7460   20.7350   31.5640 C   0  0  0  0  0  0  0  0  0  0  0  0
   37.8400   21.4610   31.0970 C   0  0  0  0  0  3  0  0  0  0  0  0
   36.6080   19.3840   31.8650 O   0  0  0  0  0  0  0  0  0  0  0  0
   35.4090   19.1800   32.5950 C   0  0  0  0  0  3  0  0  0  0  0  0
   34.8460   18.2710   32.2340 H   0  0  0  0  0  0  0  0  0  0  0  0
   34.6620   20.3530   32.2610 O   0  0  0  0  0  0  0  0  0  0  0  0
  1  6  1  1  0  0  0
  1  5  1  0  0  0  0
  1  2  1  0  0  0  0
  2  7  1  6  0  0  0
  2 12  1  0  0  0  0
  2  3  1  0  0  0  0
  4  8  1  0  0  0  0
  4  3  1  0  0  0  0
  4  9  1  0  0  0  0
  5 10  1  6  0  0  0
  5  4  1  0  0  0  0
 11 14  1  1  0  0  0
 11 13  1  0  0  0  0
 12 15  1  6  0  0  0
 12 11  1  0  0  0  0
 12 13  1  0  0  0  0
 13 17  1  0  0  0  0
 13 16  1  0  0  0  0
 18 11  1  0  0  0  0
 18 23  1  0  0  0  0
 19 18  2  0  0  0  0
 20 19  1  0  0  0  0
 20 21  2  0  0  0  0
 21 22  1  0  0  0  0
 22 23  2  0  0  0  0
 22 26  1  0  0  0  0
 24 19  1  0  0  0  0
 25 20  1  0  0  0  0
 27  1  1  0  0  0  0
 28 27  1  0  0  0  0
 29 31  1  0  0  0  0
 29  5  1  0  0  0  0
 30 36  2  0  0  0  0
 30 31  1  0  0  0  0
 31 32  2  0  0  0  0
 32 33  1  0  0  0  0
 32 34  1  0  0  0  0
 34 40  1  0  0  0  0
 35 34  2  0  0  0  0
 35 37  1  0  0  0  0
 36 35  1  0  0  0  0
 37 38  1  0  0  0  0
 39 38  1  0  0  0  0
 40 38  1  0  0  0  0
M  END
>  <minimizedAffinity>
-5.48599291

$$$$

 OpenBabel03272508293D

 40 44  0  0  1  0  0  0  0  0999 V2000
   36.0640   26.8990   31.2290 C   0  0  2  0  0  0  0  0  0  0  0  0
   36.6450   27.6940   32.3880 C   0  0  2  0  0  0  0  0  0  0  0  0
   36.8790   26.7940   33.3800 O   0  0  0  0  0  0  0  0  0  0  0  0
   37.0270   25.5360   32.8640 C   0  0  0  0  0  0  0  0  0  0  0  0
   36.9170   25.6320   31.3550 C   0  0  1  0  0  0  0  0  0  0  0  0
   35.0110   26.6520   31.3810 H   0  0  0  0  0  0  0  0  0  0  0  0
   37.6000   28.1320   32.0380 H   0  0  0  0  0  0  0  0  0  0  0  0
   38.0000   25.0610   33.1540 H   0  0  0  0  0  0  0  0  0  0  0  0
   36.2280   24.8640   33.2220 H   0  0  0  0  0  0  0  0  0  0  0  0
   37.9260   25.9160   30.9640 H   0  0  0  0  0  0  0  0  0  0  0  0
   35.7760   29.5880   33.9200 C   0  0  1  0  0  0  0  0  0  0  0  0
   35.6210   28.7080   32.7840 C   0  0  1  0  0  0  0  0  0  0  0  0
   35.8080   30.1620   32.4950 C   0  0  0  0  0  0  0  0  0  0  0  0
   36.7260   29.8560   34.4440 H   0  0  0  0  0  0  0  0  0  0  0  0
   34.5770   28.2910   32.6610 H   0  0  0  0  0  0  0  0  0  0  0  0
   36.7700   30.4770   32.0650 H   0  0  0  0  0  0  0  0  0  0  0  0
   34.9020   30.7030   32.1250 H   0  0  0  0  0  0  0  0  0  0  0  0
   34.5710   30.0870   34.7010 C   0  0  0  0  0  0  0  0  0  0  0  0
   33.3570   29.4340   34.4950 C   0  0  0  0  0  0  0  0  0  0  0  0
   32.2870   29.9520   35.2150 C   0  0  0  0  0  0  0  0  0  0  0  0
   32.4430   31.0190   36.0520 N   0  0  0  0  0  0  0  0  0  0  0  0
   33.6500   31.6250   36.2210 C   0  0  0  0  0  0  0  0  0  0  0  0
   34.7290   31.1490   35.5340 N   0  0  0  0  0  0  0  0  0  0  0  0
   33.2470   28.6040   33.8400 H   0  0  0  0  0  0  0  0  0  0  0  0
   31.3040   29.5380   35.1440 H   0  0  0  0  0  0  0  0  0  0  0  0
   33.7260   32.4670   36.8930 H   0  0  0  0  0  0  0  0  0  0  0  0
   36.2370   27.5060   30.0010 O   0  0  0  0  0  0  0  0  0  0  0  0
   35.5070   27.3330   29.3730 H   0  0  0  0  0  0  0  0  0  0  0  0
   36.3290   24.5560   30.7510 O   0  0  0  0  0  0  0  0  0  0  0  0
   35.4540   22.4580   31.7760 C   0  0  0  0  0  3  0  0  0  0  0  0
   36.4150   23.2310   31.1560 C   0  0  0  0  0  0  0  0  0  0  0  0
   37.6620   22.6780   30.8660 C   0  0  0  0  0  0  0  0  0  0  0  0
   38.4860   23.2130   30.3760 H   0  0  0  0  0  0  0  0  0  0  0  0
   37.9550   21.3760   31.1860 C   0  0  0  0  0  0  0  0  0  0  0  0
   36.9760   20.6180   31.8080 C   0  0  0  0  0  0  0  0  0  0  0  0
   35.7230   21.1490   32.1070 C   0  0  0  0  0  3  0  0  0  0  0  0
   37.5050   19.3510   32.0260 O   0  0  0  0  0  0  0  0  0  0  0  0
   38.6990   19.1980   31.2740 C   0  0  0  0  0  3  0  0  0  0  0  0
   39.5140   18.6980   31.8740 H   0  0  0  0  0  0  0  0  0  0  0  0
   39.0670   20.5590   31.0330 O   0  0  0  0  0  0  0  0  0  0  0  0
  1  5  1  0  0  0  0
  1  6  1  1  0  0  0
  1  2  1  0  0  0  0
  2  7  1  6  0  0  0
  2 12  1  0  0  0  0
  2  3  1  0  0  0  0
  4  8  1  0  0  0  0
  4  9  1  0  0  0  0
  4  3  1  0  0  0  0
  5 10  1  6  0  0  0
  5  4  1  0  0  0  0
 11 14  1  1  0  0  0
 11 18  1  0  0  0  0
 12 15  1  6  0  0  0
 12 11  1  0  0  0  0
 13 12  1  0  0  0  0
 13 11  1  0  0  0  0
 16 13  1  0  0  0  0
 17 13  1  0  0  0  0
 18 23  1  0  0  0  0
 19 18  2  0  0  0  0
 19 20  1  0  0  0  0
 20 21  2  0  0  0  0
 21 22  1  0  0  0  0
 22 26  1  0  0  0  0
 23 22  2  0  0  0  0
 24 19  1  0  0  0  0
 25 20  1  0  0  0  0
 27  1  1  0  0  0  0
 28 27  1  0  0  0  0
 29 31  1  0  0  0  0
 29  5  1  0  0  0  0
 30 36  1  0  0  0  0
 31 30  2  0  0  0  0
 32 31  1  0  0  0  0
 32 34  2  0  0  0  0
 33 32  1  0  0  0  0
 34 35  1  0  0  0  0
 35 37  1  0  0  0  0
 35 36  2  0  0  0  0
 38 39  1  0  0  0  0
 38 37  1  0  0  0  0
 40 34  1  0  0  0  0
 40 38  1  0  0  0  0
M  END
>  <minimizedAffinity>
-5.47826147

$$$$

 OpenBabel03272508293D

 40 44  0  0  1  0  0  0  0  0999 V2000
   36.7320   27.1780   33.0810 C   0  0  2  0  0  0  0  0  0  0  0  0
   37.6840   26.8460   31.9430 C   0  0  2  0  0  0  0  0  0  0  0  0
   37.1220   27.3690   30.8210 O   0  0  0  0  0  0  0  0  0  0  0  0
   36.2710   28.3910   31.1390 C   0  0  0  0  0  0  0  0  0  0  0  0
   36.3120   28.5850   32.6420 C   0  0  1  0  0  0  0  0  0  0  0  0
   35.8590   26.5210   33.0990 H   0  0  0  0  0  0  0  0  0  0  0  0
   38.6440   27.3530   32.1610 H   0  0  0  0  0  0  0  0  0  0  0  0
   36.5290   29.3480   30.6160 H   0  0  0  0  0  0  0  0  0  0  0  0
   35.2330   28.1460   30.8550 H   0  0  0  0  0  0  0  0  0  0  0  0
   37.1900   29.2380   32.8710 H   0  0  0  0  0  0  0  0  0  0  0  0
   36.7180   24.5100   31.3940 C   0  0  1  0  0  0  0  0  0  0  0  0
   37.7870   25.3560   31.8740 C   0  0  1  0  0  0  0  0  0  0  0  0
   38.0140   24.6470   30.5780 C   0  0  0  0  0  0  0  0  0  0  0  0
   35.8510   24.8110   30.7570 H   0  0  0  0  0  0  0  0  0  0  0  0
   38.3270   24.9510   32.7810 H   0  0  0  0  0  0  0  0  0  0  0  0
   38.0060   25.2500   29.6590 H   0  0  0  0  0  0  0  0  0  0  0  0
   38.7460   23.8040   30.6090 H   0  0  0  0  0  0  0  0  0  0  0  0
   36.5330   23.0970   31.9240 C   0  0  0  0  0  0  0  0  0  0  0  0
   35.6360   22.2710   31.2490 C   0  0  0  0  0  0  0  0  0  0  0  0
   35.4880   21.0010   31.7940 C   0  0  0  0  0  0  0  0  0  0  0  0
   36.1820   20.6200   32.9070 N   0  0  0  0  0  0  0  0  0  0  0  0
   37.0490   21.4630   33.5320 C   0  0  0  0  0  0  0  0  0  0  0  0
   37.2250   22.7200   33.0310 N   0  0  0  0  0  0  0  0  0  0  0  0
   35.1000   22.5790   30.3840 H   0  0  0  0  0  0  0  0  0  0  0  0
   34.8300   20.2750   31.3690 H   0  0  0  0  0  0  0  0  0  0  0  0
   37.5760   21.1190   34.4100 H   0  0  0  0  0  0  0  0  0  0  0  0
   37.3390   27.1940   34.3220 O   0  0  0  0  0  0  0  0  0  0  0  0
   36.7520   26.9030   35.0490 H   0  0  0  0  0  0  0  0  0  0  0  0
   35.1270   28.9650   33.2070 O   0  0  0  0  0  0  0  0  0  0  0  0
   35.9270   30.5610   34.9480 C   0  0  0  0  0  3  0  0  0  0  0  0
   34.9620   29.8550   34.2610 C   0  0  0  0  0  0  0  0  0  0  0  0
   33.6190   29.9990   34.6120 C   0  0  0  0  0  0  0  0  0  0  0  0
   32.7850   29.4800   34.1250 H   0  0  0  0  0  0  0  0  0  0  0  0
   33.2380   30.8330   35.6340 C   0  0  0  0  0  0  0  0  0  0  0  0
   34.2240   31.5340   36.3100 C   0  0  0  0  0  0  0  0  0  0  0  0
   35.5700   31.4060   35.9760 C   0  0  0  0  0  3  0  0  0  0  0  0
   33.5950   32.3000   37.2860 O   0  0  0  0  0  0  0  0  0  0  0  0
   32.1980   32.3340   37.0370 C   0  0  0  0  0  3  0  0  0  0  0  0
   31.5990   32.1980   37.9840 H   0  0  0  0  0  0  0  0  0  0  0  0
   32.0230   31.1830   36.2060 O   0  0  0  0  0  0  0  0  0  0  0  0
  1  6  1  6  0  0  0
  1 27  1  0  0  0  0
  2  7  1  1  0  0  0
  2  1  1  0  0  0  0
  3  4  1  0  0  0  0
  3  2  1  0  0  0  0
  4  5  1  0  0  0  0
  5 10  1  1  0  0  0
  5  1  1  0  0  0  0
  5 29  1  0  0  0  0
  8  4  1  0  0  0  0
  9  4  1  0  0  0  0
 11 14  1  6  0  0  0
 11 12  1  0  0  0  0
 11 18  1  0  0  0  0
 12  2  1  0  0  0  0
 12 15  1  1  0  0  0
 13 17  1  0  0  0  0
 13 11  1  0  0  0  0
 13 12  1  0  0  0  0
 16 13  1  0  0  0  0
 18 23  1  0  0  0  0
 19 20  1  0  0  0  0
 19 18  2  0  0  0  0
 20 21  2  0  0  0  0
 21 22  1  0  0  0  0
 22 26  1  0  0  0  0
 23 22  2  0  0  0  0
 24 19  1  0  0  0  0
 25 20  1  0  0  0  0
 27 28  1  0  0  0  0
 29 31  1  0  0  0  0
 30 36  1  0  0  0  0
 31 32  1  0  0  0  0
 31 30  2  0  0  0  0
 32 34  2  0  0  0  0
 33 32  1  0  0  0  0
 34 40  1  0  0  0  0
 34 35  1  0  0  0  0
 35 37  1  0  0  0  0
 36 35  2  0  0  0  0
 38 37  1  0  0  0  0
 38 39  1  0  0  0  0
 40 38  1  0  0  0  0
M  END
>  <minimizedAffinity>
-5.3978014

$$$$

 OpenBabel03272508293D

 40 44  0  0  1  0  0  0  0  0999 V2000
   35.8140   25.6690   31.5240 C   0  0  2  0  0  0  0  0  0  0  0  0
   36.6280   26.8500   31.0200 C   0  0  2  0  0  0  0  0  0  0  0  0
   37.8680   26.7080   31.5610 O   0  0  0  0  0  0  0  0  0  0  0  0
   38.1060   25.4000   31.8830 C   0  0  0  0  0  0  0  0  0  0  0  0
   36.8980   24.5860   31.4670 C   0  0  1  0  0  0  0  0  0  0  0  0
   35.4810   25.8030   32.5560 H   0  0  0  0  0  0  0  0  0  0  0  0
   36.6820   26.7630   29.9170 H   0  0  0  0  0  0  0  0  0  0  0  0
   39.0330   24.9980   31.3980 H   0  0  0  0  0  0  0  0  0  0  0  0
   38.2410   25.2780   32.9720 H   0  0  0  0  0  0  0  0  0  0  0  0
   37.0150   24.3450   30.3810 H   0  0  0  0  0  0  0  0  0  0  0  0
   36.2040   28.6860   32.7900 C   0  0  1  0  0  0  0  0  0  0  0  0
   35.9480   28.0910   31.4990 C   0  0  1  0  0  0  0  0  0  0  0  0
   36.6480   29.4120   31.5100 C   0  0  0  0  0  0  0  0  0  0  0  0
   37.0940   28.5240   33.4460 H   0  0  0  0  0  0  0  0  0  0  0  0
   34.8580   28.0920   31.1970 H   0  0  0  0  0  0  0  0  0  0  0  0
   37.7150   29.4260   31.2440 H   0  0  0  0  0  0  0  0  0  0  0  0
   36.0420   30.2850   31.1630 H   0  0  0  0  0  0  0  0  0  0  0  0
   35.1240   29.4600   33.5300 C   0  0  0  0  0  0  0  0  0  0  0  0
   35.5270   30.2670   34.5940 C   0  0  0  0  0  0  0  0  0  0  0  0
   34.4940   30.9270   35.2480 C   0  0  0  0  0  0  0  0  0  0  0  0
   33.1940   30.7770   34.8580 N   0  0  0  0  0  0  0  0  0  0  0  0
   32.8490   29.9780   33.8120 C   0  0  0  0  0  0  0  0  0  0  0  0
   33.8310   29.3100   33.1400 N   0  0  0  0  0  0  0  0  0  0  0  0
   36.5420   30.3750   34.8890 H   0  0  0  0  0  0  0  0  0  0  0  0
   34.6730   31.5750   36.0780 H   0  0  0  0  0  0  0  0  0  0  0  0
   31.8080   29.8890   33.5390 H   0  0  0  0  0  0  0  0  0  0  0  0
   34.7390   25.3530   30.7160 O   0  0  0  0  0  0  0  0  0  0  0  0
   33.9690   25.0030   31.2070 H   0  0  0  0  0  0  0  0  0  0  0  0
   36.6080   23.5270   32.2800 O   0  0  0  0  0  0  0  0  0  0  0  0
   35.3040   21.4020   32.2430 C   0  0  0  0  0  3  0  0  0  0  0  0
   36.3510   22.2220   31.8780 C   0  0  0  0  0  0  0  0  0  0  0  0
   37.3210   21.7520   30.9930 C   0  0  0  0  0  0  0  0  0  0  0  0
   38.1870   22.3300   30.6470 H   0  0  0  0  0  0  0  0  0  0  0  0
   37.2540   20.4810   30.4760 C   0  0  0  0  0  0  0  0  0  0  0  0
   36.1940   19.6750   30.8550 C   0  0  0  0  0  0  0  0  0  0  0  0
   35.2140   20.1240   31.7370 C   0  0  0  0  0  3  0  0  0  0  0  0
   36.3460   18.4540   30.2060 O   0  0  0  0  0  0  0  0  0  0  0  0
   37.3190   18.5790   29.1800 C   0  0  0  0  0  3  0  0  0  0  0  0
   38.0240   17.6980   29.1590 H   0  0  0  0  0  0  0  0  0  0  0  0
   38.0380   19.7420   29.6010 O   0  0  0  0  0  0  0  0  0  0  0  0
  1  6  1  1  0  0  0
  2  7  1  6  0  0  0
  2 12  1  0  0  0  0
  2  1  1  0  0  0  0
  2  3  1  0  0  0  0
  3  4  1  0  0  0  0
  4  9  1  0  0  0  0
  5 10  1  6  0  0  0
  5  1  1  0  0  0  0
  5  4  1  0  0  0  0
  5 29  1  0  0  0  0
  8  4  1  0  0  0  0
 11 14  1  1  0  0  0
 11 18  1  0  0  0  0
 12 15  1  6  0  0  0
 12 13  1  0  0  0  0
 12 11  1  0  0  0  0
 13 11  1  0  0  0  0
 16 13  1  0  0  0  0
 17 13  1  0  0  0  0
 18 19  1  0  0  0  0
 19 24  1  0  0  0  0
 19 20  2  0  0  0  0
 20 25  1  0  0  0  0
 21 20  1  0  0  0  0
 22 21  2  0  0  0  0
 23 18  2  0  0  0  0
 23 22  1  0  0  0  0
 26 22  1  0  0  0  0
 27 28  1  0  0  0  0
 27  1  1  0  0  0  0
 31 30  1  0  0  0  0
 31 29  1  0  0  0  0
 32 31  2  0  0  0  0
 33 32  1  0  0  0  0
 34 35  2  0  0  0  0
 34 32  1  0  0  0  0
 35 36  1  0  0  0  0
 36 30  2  0  0  0  0
 37 35  1  0  0  0  0
 38 40  1  0  0  0  0
 38 37  1  0  0  0  0
 39 38  1  0  0  0  0
 40 34  1  0  0  0  0
M  END
>  <minimizedAffinity>
-5.3843298

$$$$

 OpenBabel03272508293D

 40 44  0  0  1  0  0  0  0  0999 V2000
   36.6950   27.1010   31.7260 C   0  0  2  0  0  0  0  0  0  0  0  0
   36.4920   28.3400   30.8680 C   0  0  2  0  0  0  0  0  0  0  0  0
   37.7270   28.8810   30.6950 O   0  0  0  0  0  0  0  0  0  0  0  0
   38.6970   27.9300   30.8550 C   0  0  0  0  0  0  0  0  0  0  0  0
   38.0140   26.6040   31.1240 C   0  0  1  0  0  0  0  0  0  0  0  0
   36.8390   27.3450   32.7810 H   0  0  0  0  0  0  0  0  0  0  0  0
   36.0840   28.0020   29.8960 H   0  0  0  0  0  0  0  0  0  0  0  0
   39.3720   27.8470   29.9640 H   0  0  0  0  0  0  0  0  0  0  0  0
   39.3430   28.1630   31.7190 H   0  0  0  0  0  0  0  0  0  0  0  0
   37.7380   26.1630   30.1340 H   0  0  0  0  0  0  0  0  0  0  0  0
   35.8630   29.7240   32.9590 C   0  0  1  0  0  0  0  0  0  0  0  0
   35.5820   29.2550   31.6220 C   0  0  1  0  0  0  0  0  0  0  0  0
   35.8890   30.7090   31.7790 C   0  0  0  0  0  0  0  0  0  0  0  0
   36.8530   29.7450   33.4760 H   0  0  0  0  0  0  0  0  0  0  0  0
   34.5000   28.9760   31.4460 H   0  0  0  0  0  0  0  0  0  0  0  0
   36.8580   31.0690   31.4040 H   0  0  0  0  0  0  0  0  0  0  0  0
   35.0230   31.4040   31.6540 H   0  0  0  0  0  0  0  0  0  0  0  0
   34.7400   30.0450   33.9340 C   0  0  0  0  0  0  0  0  0  0  0  0
   35.0270   30.9250   34.9760 C   0  0  0  0  0  0  0  0  0  0  0  0
   33.9710   31.1590   35.8500 C   0  0  0  0  0  0  0  0  0  0  0  0
   32.7580   30.5560   35.6760 N   0  0  0  0  0  0  0  0  0  0  0  0
   32.5250   29.7030   34.6420 C   0  0  0  0  0  0  0  0  0  0  0  0
   33.5340   29.4450   33.7590 N   0  0  0  0  0  0  0  0  0  0  0  0
   35.9760   31.3880   35.1020 H   0  0  0  0  0  0  0  0  0  0  0  0
   34.0650   31.8140   36.6880 H   0  0  0  0  0  0  0  0  0  0  0  0
   31.5510   29.2490   34.5440 H   0  0  0  0  0  0  0  0  0  0  0  0
   35.6900   26.1630   31.5880 O   0  0  0  0  0  0  0  0  0  0  0  0
   35.5090   25.6600   32.4080 H   0  0  0  0  0  0  0  0  0  0  0  0
   38.6850   25.7730   31.9760 O   0  0  0  0  0  0  0  0  0  0  0  0
   38.9060   26.8510   34.2140 C   0  0  0  0  0  3  0  0  0  0  0  0
   38.6380   25.7980   33.3640 C   0  0  0  0  0  0  0  0  0  0  0  0
   38.2640   24.5630   33.8930 C   0  0  0  0  0  0  0  0  0  0  0  0
   38.0310   23.6710   33.2990 H   0  0  0  0  0  0  0  0  0  0  0  0
   38.1570   24.3740   35.2490 C   0  0  0  0  0  0  0  0  0  0  0  0
   38.4310   25.4450   36.0840 C   0  0  0  0  0  0  0  0  0  0  0  0
   38.8060   26.6870   35.5770 C   0  0  0  0  0  3  0  0  0  0  0  0
   38.2550   25.0090   37.3930 O   0  0  0  0  0  0  0  0  0  0  0  0
   37.5740   23.7640   37.3920 C   0  0  0  0  0  3  0  0  0  0  0  0
   38.0280   23.0350   38.1240 H   0  0  0  0  0  0  0  0  0  0  0  0
   37.8170   23.3000   36.0610 O   0  0  0  0  0  0  0  0  0  0  0  0
  1  6  1  1  0  0  0
  2  7  1  6  0  0  0
  2 12  1  0  0  0  0
  2  1  1  0  0  0  0
  3  4  1  0  0  0  0
  3  2  1  0  0  0  0
  4  5  1  0  0  0  0
  4  9  1  0  0  0  0
  5 10  1  6  0  0  0
  5  1  1  0  0  0  0
  5 29  1  0  0  0  0
  8  4  1  0  0  0  0
 11 14  1  1  0  0  0
 11 18  1  0  0  0  0
 12 15  1  6  0  0  0
 12 13  1  0  0  0  0
 12 11  1  0  0  0  0
 13 11  1  0  0  0  0
 16 13  1  0  0  0  0
 17 13  1  0  0  0  0
 18 19  1  0  0  0  0
 19 24  1  0  0  0  0
 19 20  2  0  0  0  0
 20 25  1  0  0  0  0
 21 20  1  0  0  0  0
 22 21  2  0  0  0  0
 23 18  2  0  0  0  0
 23 22  1  0  0  0  0
 26 22  1  0  0  0  0
 27  1  1  0  0  0  0
 27 28  1  0  0  0  0
 29 31  1  0  0  0  0
 30 36  1  0  0  0  0
 31 32  1  0  0  0  0
 31 30  2  0  0  0  0
 32 34  2  0  0  0  0
 33 32  1  0  0  0  0
 34 40  1  0  0  0  0
 34 35  1  0  0  0  0
 35 37  1  0  0  0  0
 36 35  2  0  0  0  0
 38 37  1  0  0  0  0
 38 39  1  0  0  0  0
 40 38  1  0  0  0  0
M  END
>  <minimizedAffinity>
-5.38128757

$$$$
