
 OpenBabel03262520103D

 38 41  0  0  0  0  0  0  0  0999 V2000
   38.6360   31.0420   49.0180 Br  0  0  0  0  0  0  0  0  0  0  0  0
   37.0090   30.0460   49.1200 C   0  0  0  0  0  0  0  0  0  0  0  0
   36.1960   29.9280   48.0220 C   0  0  0  0  0  0  0  0  0  0  0  0
   35.0350   29.2050   48.1420 C   0  0  0  0  0  0  0  0  0  0  0  0
   34.6640   28.5960   49.3310 C   0  0  0  0  0  0  0  0  0  0  0  0
   35.5070   28.7380   50.4150 C   0  0  0  0  0  0  0  0  0  0  0  0
   36.6720   29.4620   50.3010 C   0  0  0  0  0  0  0  0  0  0  0  0
   34.4240   29.1360   47.2520 H   0  0  0  0  0  0  0  0  0  0  0  0
   33.7410   28.0550   49.3250 H   0  0  0  0  0  0  0  0  0  0  0  0
   35.1120   28.2250   51.2780 H   0  0  0  0  0  0  0  0  0  0  0  0
   37.8600   32.0950   45.5920 C   0  0  0  0  0  0  0  0  0  0  0  0
   37.2570   31.7700   44.3660 C   0  0  0  0  0  0  0  0  0  0  0  0
   36.2720   30.7970   44.3880 C   0  0  0  0  0  0  0  0  0  0  0  0
   35.9350   30.2070   45.5770 N   0  0  0  0  0  0  0  0  0  0  0  0
   36.5520   30.5580   46.7390 C   0  0  0  0  0  0  0  0  0  0  0  0
   37.5150   31.5060   46.7340 N   0  0  0  0  0  0  0  0  0  0  0  0
   38.6310   32.8310   45.6840 H   0  0  0  0  0  0  0  0  0  0  0  0
   37.5620   32.2650   43.4760 H   0  0  0  0  0  0  0  0  0  0  0  0
   35.7950   30.5300   43.4740 H   0  0  0  0  0  0  0  0  0  0  0  0
   37.5120   29.5420   51.5440 C   0  0  0  0  0  0  0  0  0  0  0  0
   37.1000   30.2700   52.2520 H   0  0  0  0  0  0  0  0  0  0  0  0
   38.4950   29.9100   51.1910 H   0  0  0  0  0  0  0  0  0  0  0  0
   37.7110   28.2060   52.1950 C   0  0  0  0  0  0  0  0  0  0  0  0
   38.2360   28.4590   53.1790 H   0  0  0  0  0  0  0  0  0  0  0  0
   36.8230   27.6670   52.4960 H   0  0  0  0  0  0  0  0  0  0  0  0
   38.6840   27.4420   51.4670 N   0  0  0  0  0  0  0  0  0  0  0  0
   38.7300   27.7440   50.4720 H   0  0  0  0  0  0  0  0  0  0  0  0
   39.5620   25.8690   53.1700 C   0  0  0  0  0  3  0  0  0  0  0  0
   39.5320   26.4010   51.9010 C   0  0  0  0  0  0  0  0  0  0  0  0
   40.4300   25.8460   51.0230 C   0  0  0  0  0  0  0  0  0  0  0  0
   40.4670   26.2110   50.0040 H   0  0  0  0  0  0  0  0  0  0  0  0
   41.2890   24.8360   51.3920 C   0  0  0  0  0  0  0  0  0  0  0  0
   41.2880   24.3310   52.6710 C   0  0  0  0  0  0  0  0  0  0  0  0
   40.4020   24.8620   53.5820 C   0  0  0  0  0  3  0  0  0  0  0  0
   42.2530   23.3330   52.7380 O   0  0  0  0  0  0  0  0  0  0  0  0
   43.1300   23.4920   51.6240 C   0  0  0  0  0  3  0  0  0  0  0  0
   43.4720   22.5170   51.2190 H   0  0  0  0  0  0  0  0  0  0  0  0
   42.2630   24.1360   50.6850 O   0  0  0  0  0  0  0  0  0  0  0  0
  1  2  1  0  0  0  0
  2  7  1  0  0  0  0
  3  4  1  0  0  0  0
  3  2  2  0  0  0  0
  4  5  2  0  0  0  0
  5  6  1  0  0  0  0
  6 10  1  0  0  0  0
  7  6  2  0  0  0  0
  7 20  1  0  0  0  0
  8  4  1  0  0  0  0
  9  5  1  0  0  0  0
 11 17  1  0  0  0  0
 11 16  1  0  0  0  0
 12 13  1  0  0  0  0
 12 11  2  0  0  0  0
 13 14  2  0  0  0  0
 14 15  1  0  0  0  0
 15  3  1  0  0  0  0
 16 15  2  0  0  0  0
 18 12  1  0  0  0  0
 19 13  1  0  0  0  0
 20 23  1  0  0  0  0
 20 21  1  0  0  0  0
 22 20  1  0  0  0  0
 23 25  1  0  0  0  0
 23 24  1  0  0  0  0
 26 29  1  0  0  0  0
 26 23  1  0  0  0  0
 27 26  1  0  0  0  0
 28 34  1  0  0  0  0
 29 28  2  0  0  0  0
 30 32  2  0  0  0  0
 30 29  1  0  0  0  0
 31 30  1  0  0  0  0
 32 33  1  0  0  0  0
 33 35  1  0  0  0  0
 33 34  2  0  0  0  0
 36 35  1  0  0  0  0
 37 36  1  0  0  0  0
 38 32  1  0  0  0  0
 38 36  1  0  0  0  0
M  END
>  <minimizedAffinity>
-4.17486429

>  <minimizedRMSD>
3.61288261

$$$$
