
 OpenBabel03262520103D

 38 41  0  0  0  0  0  0  0  0999 V2000
   38.6210   31.2680   49.2660 Br  0  0  0  0  0  0  0  0  0  0  0  0
   37.0370   30.2060   49.3650 C   0  0  0  0  0  0  0  0  0  0  0  0
   36.2640   30.0040   48.2510 C   0  0  0  0  0  0  0  0  0  0  0  0
   35.1330   29.2350   48.3700 C   0  0  0  0  0  0  0  0  0  0  0  0
   34.7520   28.6630   49.5730 C   0  0  0  0  0  0  0  0  0  0  0  0
   35.5540   28.8890   50.6740 C   0  0  0  0  0  0  0  0  0  0  0  0
   36.6900   29.6590   50.5610 C   0  0  0  0  0  0  0  0  0  0  0  0
   34.5530   29.1010   47.4660 H   0  0  0  0  0  0  0  0  0  0  0  0
   33.8540   28.0800   49.5650 H   0  0  0  0  0  0  0  0  0  0  0  0
   35.1560   28.3970   51.5470 H   0  0  0  0  0  0  0  0  0  0  0  0
   36.3040   30.6680   44.6550 C   0  0  0  0  0  0  0  0  0  0  0  0
   37.2830   31.6640   44.4970 C   0  0  0  0  0  0  0  0  0  0  0  0
   37.9260   32.1010   45.6420 C   0  0  0  0  0  0  0  0  0  0  0  0
   37.5890   31.5570   46.8530 N   0  0  0  0  0  0  0  0  0  0  0  0
   36.6320   30.5940   46.9520 C   0  0  0  0  0  0  0  0  0  0  0  0
   35.9950   30.1560   45.8440 N   0  0  0  0  0  0  0  0  0  0  0  0
   35.7490   30.2630   43.8350 H   0  0  0  0  0  0  0  0  0  0  0  0
   37.4990   32.0460   43.5290 H   0  0  0  0  0  0  0  0  0  0  0  0
   38.6740   32.8540   45.5540 H   0  0  0  0  0  0  0  0  0  0  0  0
   37.4870   29.8300   51.8230 C   0  0  0  0  0  0  0  0  0  0  0  0
   36.9910   30.5240   52.5110 H   0  0  0  0  0  0  0  0  0  0  0  0
   38.4390   30.2840   51.4900 H   0  0  0  0  0  0  0  0  0  0  0  0
   37.7920   28.5260   52.4960 C   0  0  0  0  0  0  0  0  0  0  0  0
   38.4880   28.8200   53.3550 H   0  0  0  0  0  0  0  0  0  0  0  0
   36.9700   28.0160   52.9790 H   0  0  0  0  0  0  0  0  0  0  0  0
   38.6140   27.7120   51.6450 N   0  0  0  0  0  0  0  0  0  0  0  0
   38.6020   28.0630   50.6660 H   0  0  0  0  0  0  0  0  0  0  0  0
   39.5390   26.0170   53.2000 C   0  0  0  0  0  3  0  0  0  0  0  0
   39.3850   26.5700   51.9500 C   0  0  0  0  0  0  0  0  0  0  0  0
   40.0670   25.9270   50.9480 C   0  0  0  0  0  0  0  0  0  0  0  0
   39.9960   26.3010   49.9340 H   0  0  0  0  0  0  0  0  0  0  0  0
   40.8440   24.8140   51.1850 C   0  0  0  0  0  0  0  0  0  0  0  0
   40.9730   24.2930   52.4500 C   0  0  0  0  0  0  0  0  0  0  0  0
   40.3030   24.9110   53.4840 C   0  0  0  0  0  3  0  0  0  0  0  0
   41.8110   23.1860   52.3750 O   0  0  0  0  0  0  0  0  0  0  0  0
   42.5240   23.2570   51.1410 C   0  0  0  0  0  3  0  0  0  0  0  0
   42.6810   22.2550   50.6910 H   0  0  0  0  0  0  0  0  0  0  0  0
   41.6090   24.0150   50.3420 O   0  0  0  0  0  0  0  0  0  0  0  0
  1  2  1  0  0  0  0
  2  7  1  0  0  0  0
  3  4  1  0  0  0  0
  3  2  2  0  0  0  0
  4  5  2  0  0  0  0
  5  6  1  0  0  0  0
  6 10  1  0  0  0  0
  7  6  2  0  0  0  0
  7 20  1  0  0  0  0
  8  4  1  0  0  0  0
  9  5  1  0  0  0  0
 11 16  1  0  0  0  0
 12 11  2  0  0  0  0
 12 13  1  0  0  0  0
 13 14  2  0  0  0  0
 14 15  1  0  0  0  0
 15  3  1  0  0  0  0
 16 15  2  0  0  0  0
 17 11  1  0  0  0  0
 18 12  1  0  0  0  0
 19 13  1  0  0  0  0
 20 23  1  0  0  0  0
 20 21  1  0  0  0  0
 22 20  1  0  0  0  0
 23 25  1  0  0  0  0
 23 24  1  0  0  0  0
 26 29  1  0  0  0  0
 26 23  1  0  0  0  0
 27 26  1  0  0  0  0
 28 34  1  0  0  0  0
 29 28  2  0  0  0  0
 30 32  2  0  0  0  0
 30 29  1  0  0  0  0
 31 30  1  0  0  0  0
 32 33  1  0  0  0  0
 33 34  2  0  0  0  0
 35 33  1  0  0  0  0
 36 35  1  0  0  0  0
 37 36  1  0  0  0  0
 38 36  1  0  0  0  0
 38 32  1  0  0  0  0
M  END
>  <minimizedAffinity>
-4.17935085

>  <minimizedRMSD>
3.48751736

$$$$
