
 OpenBabel03272507123D

 43 48  0  0  1  0  0  0  0  0999 V2000
   37.0960   30.0220   50.2890 C   0  0  0  0  0  0  0  0  0  0  0  0
   37.6070   29.7270   51.4020 O   0  0  0  0  0  0  0  0  0  0  0  0
   37.7350   30.8650   49.3130 C   0  0  0  0  0  0  0  0  0  0  0  0
   37.9930   32.1780   49.6730 C   0  0  0  0  0  0  0  0  0  0  0  0
   38.6110   33.0290   48.7620 C   0  0  0  0  0  0  0  0  0  0  0  0
   38.9280   32.4970   47.5440 N   0  0  0  0  0  0  0  0  0  0  0  0
   38.6740   31.2310   47.2080 C   0  0  0  0  0  0  0  0  0  0  0  0
   38.0780   30.4270   48.1030 N   0  0  0  0  0  0  0  0  0  0  0  0
   37.7250   32.5630   50.6530 H   0  0  0  0  0  0  0  0  0  0  0  0
   38.8430   34.0640   48.9700 H   0  0  0  0  0  0  0  0  0  0  0  0
   39.0300   30.6850   45.8830 C   0  0  0  0  0  2  0  0  0  0  0  0
   37.9270   31.0430   44.9120 C   0  0  2  0  0  0  0  0  0  0  0  0
   36.6180   30.6450   45.5160 C   0  0  0  0  0  2  0  0  0  0  0  0
   35.7400   30.2540   44.4330 N   0  0  0  0  0  0  0  0  0  0  0  0
   34.6090   30.1610   43.5400 C   0  0  0  0  0  0  0  0  0  0  0  0
   33.3730   30.4450   43.6460 O   0  0  0  0  0  0  0  0  0  0  0  0
   35.4750   29.6000   42.4450 C   0  0  0  0  0  3  0  0  0  0  0  0
   35.9120   30.3550   41.7610 H   0  0  0  0  0  0  0  0  0  0  0  0
   36.3540   29.2280   43.6100 C   0  0  1  0  0  3  0  0  0  0  0  0
   38.0440   29.8920   43.5120 S   0  0  0  0  0  0  0  0  0  0  0  0
   38.0030   32.4690   44.4840 C   0  0  0  0  0  2  0  0  0  0  0  0
   37.1680   32.7370   43.8370 H   0  0  0  0  0  0  0  0  0  0  0  0
   35.7830   29.4860   49.9560 C   0  0  0  0  0  0  0  0  0  0  0  0
   34.6530   29.9110   50.5620 C   0  0  0  0  0  0  0  0  0  0  0  0
   33.5960   29.1910   50.0040 C   0  0  0  0  0  0  0  0  0  0  0  0
   34.1770   28.3400   49.0560 C   0  0  0  0  0  0  0  0  0  0  0  0
   35.4560   28.5660   49.0820 O   0  0  0  0  0  0  0  0  0  0  0  0
   34.5490   30.6650   51.3370 H   0  0  0  0  0  0  0  0  0  0  0  0
   32.5750   29.3370   50.3110 H   0  0  0  0  0  0  0  0  0  0  0  0
   33.9540   26.3910   47.5290 C   0  0  0  0  0  0  0  0  0  0  0  0
   33.3740   27.4230   48.2580 C   0  0  0  0  0  0  0  0  0  0  0  0
   32.0080   27.6140   48.2540 C   0  0  0  0  0  0  0  0  0  0  0  0
   31.2400   26.7530   47.5050 C   0  0  0  0  0  0  0  0  0  0  0  0
   29.9040   26.7150   47.3280 N   0  0  0  0  0  0  0  0  0  0  0  0
   29.6320   25.6960   46.5140 N   0  0  0  0  0  0  0  0  0  0  0  0
   30.8000   25.0970   46.1820 C   0  0  0  0  0  0  0  0  0  0  0  0
   31.8480   25.7390   46.7930 C   0  0  0  0  0  0  0  0  0  0  0  0
   33.2100   25.5340   46.7860 C   0  0  0  0  0  0  0  0  0  0  0  0
   35.0430   26.2670   47.5550 H   0  0  0  0  0  0  0  0  0  0  0  0
   31.4920   28.4080   48.8070 H   0  0  0  0  0  0  0  0  0  0  0  0
   29.1490   27.3280   47.7160 H   0  0  0  0  0  0  0  0  0  0  0  0
   30.8600   24.2370   45.5280 H   0  0  0  0  0  0  0  0  0  0  0  0
   33.6330   24.7310   46.2150 H   0  0  0  0  0  0  0  0  0  0  0  0
  1  2  2  0  0  0  0
  3  4  1  0  0  0  0
  3  1  1  0  0  0  0
  4  9  1  0  0  0  0
  5 10  1  0  0  0  0
  5  4  2  0  0  0  0
  6  5  1  0  0  0  0
  7  6  2  0  0  0  0
  7  8  1  0  0  0  0
  8  3  2  0  0  0  0
 11  7  1  0  0  0  0
 12 21  1  6  0  0  0
 12 13  1  0  0  0  0
 12 11  1  0  0  0  0
 14 13  1  0  0  0  0
 15 16  2  0  0  0  0
 15 14  1  0  0  0  0
 17 15  1  0  0  0  0
 18 17  1  0  0  0  0
 19 17  1  6  0  0  0
 19 14  1  0  0  0  0
 20 19  1  0  0  0  0
 20 12  1  0  0  0  0
 22 21  1  0  0  0  0
 23  1  1  0  0  0  0
 23 24  2  0  0  0  0
 24 28  1  0  0  0  0
 25 29  1  0  0  0  0
 25 24  1  0  0  0  0
 26 27  1  0  0  0  0
 26 25  2  0  0  0  0
 27 23  1  0  0  0  0
 30 39  1  0  0  0  0
 30 31  1  0  0  0  0
 31 26  1  0  0  0  0
 32 31  2  0  0  0  0
 32 40  1  0  0  0  0
 33 32  1  0  0  0  0
 34 33  1  0  0  0  0
 34 41  1  0  0  0  0
 35 34  1  0  0  0  0
 36 35  2  0  0  0  0
 36 37  1  0  0  0  0
 37 33  2  0  0  0  0
 38 37  1  0  0  0  0
 38 30  2  0  0  0  0
 42 36  1  0  0  0  0
 43 38  1  0  0  0  0
M  END
>  <minimizedAffinity>
-6.73509026

>  <minimizedRMSD>
2.95955038

$$$$
