
 OpenBabel03272507333D

 39 43  0  0  1  0  0  0  0  0999 V2000
   33.0400   27.4650   48.1330 C   0  0  0  0  0  0  0  0  0  0  0  0
   31.8010   27.4210   48.4360 O   0  0  0  0  0  0  0  0  0  0  0  0
   35.7680   29.0980   49.7700 C   0  0  0  0  0  0  0  0  0  0  0  0
   34.7370   29.5990   50.5310 C   0  0  0  0  0  0  0  0  0  0  0  0
   33.5450   29.0600   50.0280 C   0  0  0  0  0  0  0  0  0  0  0  0
   33.9330   28.2540   48.9790 C   0  0  0  0  0  0  0  0  0  0  0  0
   35.2420   28.3070   48.8670 O   0  0  0  0  0  0  0  0  0  0  0  0
   34.7460   30.2850   51.3760 H   0  0  0  0  0  0  0  0  0  0  0  0
   32.5260   29.1930   50.3290 H   0  0  0  0  0  0  0  0  0  0  0  0
   37.1580   29.4490   50.0160 C   0  0  0  0  0  0  0  0  0  0  0  0
   37.7910   28.8440   50.8930 O   0  0  0  0  0  0  0  0  0  0  0  0
   37.7190   30.4960   49.2080 C   0  0  0  0  0  0  0  0  0  0  0  0
   38.0600   31.6730   49.8510 C   0  0  0  0  0  0  0  0  0  0  0  0
   38.6060   32.7140   49.0950 C   0  0  0  0  0  0  0  0  0  0  0  0
   38.7760   32.5110   47.7430 N   0  0  0  0  0  0  0  0  0  0  0  0
   38.4330   31.3590   47.1570 C   0  0  0  0  0  0  0  0  0  0  0  0
   37.9090   30.3560   47.8770 N   0  0  0  0  0  0  0  0  0  0  0  0
   37.9050   31.7800   50.9200 H   0  0  0  0  0  0  0  0  0  0  0  0
   38.8620   33.6170   49.6230 H   0  0  0  0  0  0  0  0  0  0  0  0
   38.6090   31.3100   46.0950 H   0  0  0  0  0  0  0  0  0  0  0  0
   33.5730   26.7220   46.9460 C   0  0  1  0  0  0  0  0  0  0  0  0
   33.8140   25.2080   47.3220 C   0  0  0  0  0  0  0  0  0  0  0  0
   32.8160   25.6470   46.3160 C   0  0  1  0  0  0  0  0  0  0  0  0
   34.5440   27.1160   46.5830 H   0  0  0  0  0  0  0  0  0  0  0  0
   34.7370   24.7440   46.9890 H   0  0  0  0  0  0  0  0  0  0  0  0
   33.4300   24.8620   48.2790 H   0  0  0  0  0  0  0  0  0  0  0  0
   33.1050   25.4340   45.2450 H   0  0  0  0  0  0  0  0  0  0  0  0
   31.3810   25.3860   46.5990 C   0  0  0  0  0  2  0  0  0  0  0  0
   30.6770   24.7900   45.3940 C   0  0  2  0  0  0  0  0  0  0  0  0
   29.2640   24.4840   45.8040 C   0  0  0  0  0  2  0  0  0  0  0  0
   28.8940   23.1920   45.3120 N   0  0  0  0  0  0  0  0  0  0  0  0
   28.2450   22.1000   44.6650 C   0  0  0  0  0  0  0  0  0  0  0  0
   27.1480   21.9000   44.0800 O   0  0  0  0  0  0  0  0  0  0  0  0
   29.3640   21.1540   44.9060 C   0  0  0  0  0  3  0  0  0  0  0  0
   30.0310   20.9510   44.0590 H   0  0  0  0  0  0  0  0  0  0  0  0
   29.8760   22.2170   45.8120 C   0  0  1  0  0  3  0  0  0  0  0  0
   31.3760   23.1000   45.2200 S   0  0  0  0  0  0  0  0  0  0  0  0
   30.8190   25.5870   44.1500 C   0  0  0  0  0  2  0  0  0  0  0  0
   31.7640   25.3730   43.6230 H   0  0  0  0  0  0  0  0  0  0  0  0
  1  2  2  0  0  0  0
  1  6  1  0  0  0  0
  3 10  1  0  0  0  0
  3  4  2  0  0  0  0
  4  8  1  0  0  0  0
  5  9  1  0  0  0  0
  5  4  1  0  0  0  0
  6  5  2  0  0  0  0
  7  6  1  0  0  0  0
  7  3  1  0  0  0  0
 10 11  2  0  0  0  0
 12 13  1  0  0  0  0
 12 10  1  0  0  0  0
 13 18  1  0  0  0  0
 14 19  1  0  0  0  0
 14 13  2  0  0  0  0
 15 14  1  0  0  0  0
 16 15  2  0  0  0  0
 16 17  1  0  0  0  0
 17 12  2  0  0  0  0
 20 16  1  0  0  0  0
 21 24  1  6  0  0  0
 21 22  1  0  0  0  0
 21  1  1  0  0  0  0
 22 26  1  0  0  0  0
 23 27  1  6  0  0  0
 23 28  1  0  0  0  0
 23 21  1  0  0  0  0
 23 22  1  0  0  0  0
 25 22  1  0  0  0  0
 29 38  1  6  0  0  0
 29 30  1  0  0  0  0
 29 28  1  0  0  0  0
 31 30  1  0  0  0  0
 31 36  1  0  0  0  0
 32 34  1  0  0  0  0
 32 31  1  0  0  0  0
 33 32  2  0  0  0  0
 35 34  1  0  0  0  0
 36 34  1  6  0  0  0
 37 29  1  0  0  0  0
 37 36  1  0  0  0  0
 39 38  1  0  0  0  0
M  END
>  <minimizedAffinity>
-5.44905043

>  <minimizedRMSD>
0.152116671

$$$$
