
 OpenBabel03272508373D

 47 51  0  0  1  0  0  0  0  0999 V2000
   39.4620   31.8530   41.2290 N   0  0  0  0  0  0  0  0  0  0  0  0
   38.3660   32.6500   40.8460 C   0  0  0  0  0  0  0  0  0  0  0  0
   37.1390   31.9410   40.4010 C   0  0  0  0  0  0  0  0  0  0  0  0
   37.4200   30.8280   39.6000 O   0  0  0  0  0  0  0  0  0  0  0  0
   38.2660   29.9880   40.2370 C   0  0  0  0  0  0  0  0  0  0  0  0
   39.5910   30.6520   40.5400 C   0  0  1  0  0  0  0  0  0  0  0  0
   38.8210   33.0670   39.8810 H   0  0  0  0  0  0  0  0  0  0  0  0
   38.1480   33.5730   41.3420 H   0  0  0  0  0  0  0  0  0  0  0  0
   36.7150   32.6300   39.5700 H   0  0  0  0  0  0  0  0  0  0  0  0
   36.2650   31.9150   41.0130 H   0  0  0  0  0  0  0  0  0  0  0  0
   37.8730   29.3320   41.0080 H   0  0  0  0  0  0  0  0  0  0  0  0
   38.5530   29.2500   39.4480 H   0  0  0  0  0  0  0  0  0  0  0  0
   40.0600   29.9350   41.2590 H   0  0  0  0  0  0  0  0  0  0  0  0
   39.8690   31.9430   42.5710 C   0  0  0  0  0  0  0  0  0  0  0  0
   40.9680   32.0880   42.6230 H   0  0  0  0  0  0  0  0  0  0  0  0
   39.7380   30.9000   43.0000 H   0  0  0  0  0  0  0  0  0  0  0  0
   39.1810   32.8780   43.4540 C   0  0  0  0  0  0  0  0  0  0  0  0
   38.4910   33.6300   43.0990 H   0  0  0  0  0  0  0  0  0  0  0  0
   39.9710   33.4950   43.9890 H   0  0  0  0  0  0  0  0  0  0  0  0
   37.7670   31.5060   46.4520 C   0  0  0  0  0  0  0  0  0  0  0  0
   37.0670   30.8060   45.4880 C   0  0  0  0  0  0  0  0  0  0  0  0
   37.5280   31.2440   44.2380 C   0  0  0  0  0  0  0  0  0  0  0  0
   38.4600   32.1620   44.4910 N   0  0  0  0  0  0  0  0  0  0  0  0
   38.5980   32.3150   45.8130 N   0  0  0  0  0  0  0  0  0  0  0  0
   36.2870   30.0430   45.6830 H   0  0  0  0  0  0  0  0  0  0  0  0
   37.0900   30.8000   43.4230 H   0  0  0  0  0  0  0  0  0  0  0  0
   38.1750   31.2820   50.1820 C   0  0  0  0  0  0  0  0  0  0  0  0
   38.5140   31.4970   48.8430 C   0  0  0  0  0  0  0  0  0  0  0  0
   37.5560   31.3150   47.8620 C   0  0  0  0  0  0  0  0  0  0  0  0
   36.3260   30.9270   48.3090 N   0  0  0  0  0  0  0  0  0  0  0  0
   36.0190   30.7260   49.6050 C   0  0  0  0  0  0  0  0  0  0  0  0
   36.9560   30.9080   50.5280 N   0  0  0  0  0  0  0  0  0  0  0  0
   39.0010   31.4530   50.8730 H   0  0  0  0  0  0  0  0  0  0  0  0
   39.4840   31.8030   48.4750 H   0  0  0  0  0  0  0  0  0  0  0  0
   34.9950   30.4210   49.7910 H   0  0  0  0  0  0  0  0  0  0  0  0
   40.4390   30.7070   39.2930 C   0  0  0  0  0  2  0  0  0  0  0  0
   41.6450   29.8710   39.3470 C   0  0  1  0  0  0  0  0  0  0  0  0
   41.6840   28.9760   38.0880 C   0  0  0  0  0  2  0  0  0  0  0  0
   43.0420   28.4670   38.0330 N   0  0  0  0  0  0  0  0  0  0  0  0
   44.2690   27.7140   38.0450 C   0  0  0  0  0  0  0  0  0  0  0  0
   44.5010   26.4770   38.0610 O   0  0  0  0  0  0  0  0  0  0  0  0
   45.0840   28.9760   38.0310 C   0  0  0  0  0  3  0  0  0  0  0  0
   45.5590   29.1950   38.9860 H   0  0  0  0  0  0  0  0  0  0  0  0
   43.8080   29.6700   37.6850 C   0  0  2  0  0  3  0  0  0  0  0  0
   43.1630   30.8250   38.9380 S   0  0  0  0  0  0  0  0  0  0  0  0
   41.8590   29.0100   40.5370 C   0  0  0  0  0  2  0  0  0  0  0  0
   41.1050   29.1180   41.3220 H   0  0  0  0  0  0  0  0  0  0  0  0
  1 14  1  0  0  0  0
  2  1  1  0  0  0  0
  2  8  1  0  0  0  0
  3  2  1  0  0  0  0
  3 10  1  0  0  0  0
  4  5  1  0  0  0  0
  4  3  1  0  0  0  0
  5  6  1  0  0  0  0
  5 11  1  0  0  0  0
  6  1  1  0  0  0  0
  6 13  1  1  0  0  0
  7  2  1  0  0  0  0
  9  3  1  0  0  0  0
 12  5  1  0  0  0  0
 14 15  1  0  0  0  0
 14 16  1  0  0  0  0
 14 17  1  0  0  0  0
 17 19  1  0  0  0  0
 17 23  1  0  0  0  0
 18 17  1  0  0  0  0
 20 29  1  0  0  0  0
 21 25  1  0  0  0  0
 21 20  1  0  0  0  0
 22 23  1  0  0  0  0
 22 21  2  0  0  0  0
 23 24  1  0  0  0  0
 24 20  2  0  0  0  0
 26 22  1  0  0  0  0
 27 32  1  0  0  0  0
 27 33  1  0  0  0  0
 28 27  2  0  0  0  0
 29 30  2  0  0  0  0
 29 28  1  0  0  0  0
 30 31  1  0  0  0  0
 31 35  1  0  0  0  0
 31 32  2  0  0  0  0
 34 28  1  0  0  0  0
 36  6  1  0  0  0  0
 37 36  1  1  0  0  0
 37 46  1  0  0  0  0
 38 37  1  0  0  0  0
 39 40  1  0  0  0  0
 39 38  1  0  0  0  0
 40 41  2  0  0  0  0
 42 40  1  0  0  0  0
 42 43  1  0  0  0  0
 44 42  1  1  0  0  0
 44 39  1  0  0  0  0
 44 45  1  0  0  0  0
 45 37  1  0  0  0  0
 46 47  1  0  0  0  0
M  END
>  <minimizedAffinity>
-4.90077305

>  <minimizedRMSD>
3.18337846

$$$$
