
 OpenBabel03272500223D

 40 44  0  0  1  0  0  0  0  0999 V2000
   35.4360   29.2940   50.4300 C   0  0  0  0  0  0  0  0  0  0  0  0
   36.3640   30.1520   49.7730 C   0  0  0  0  0  0  0  0  0  0  0  0
   36.3340   30.2450   48.3790 C   0  0  0  0  0  0  0  0  0  0  0  0
   35.3920   29.4860   47.7400 N   0  0  0  0  0  0  0  0  0  0  0  0
   34.5430   28.7010   48.3450 C   0  0  0  0  0  0  0  0  0  0  0  0
   34.5470   28.5890   49.6860 N   0  0  0  0  0  0  0  0  0  0  0  0
   35.4450   29.2100   51.5090 H   0  0  0  0  0  0  0  0  0  0  0  0
   32.8230   30.3190   46.4450 Cl  0  0  0  0  0  0  0  0  0  0  0  0
   32.7340   28.5680   46.6340 C   0  0  0  0  0  0  0  0  0  0  0  0
   33.5750   27.9320   47.5380 C   0  0  0  0  0  0  0  0  0  0  0  0
   33.5490   26.5430   47.7300 C   0  0  0  0  0  0  0  0  0  0  0  0
   32.6250   25.8450   46.9550 C   0  0  0  0  0  0  0  0  0  0  0  0
   31.7860   26.4510   46.0580 C   0  0  0  0  0  0  0  0  0  0  0  0
   30.6760   25.4490   45.1530 Cl  0  0  0  0  0  0  0  0  0  0  0  0
   31.8460   27.8290   45.8990 C   0  0  0  0  0  0  0  0  0  0  0  0
   34.2080   26.0520   48.4360 H   0  0  0  0  0  0  0  0  0  0  0  0
   32.5940   24.7720   47.0920 H   0  0  0  0  0  0  0  0  0  0  0  0
   30.9470   28.5050   44.9350 C   0  0  0  0  0  0  0  0  0  0  0  0
   30.0340   27.5800   44.4040 F   0  0  0  0  0  0  0  0  0  0  0  0
   31.6310   29.1100   43.9310 F   0  0  0  0  0  0  0  0  0  0  0  0
   30.2000   29.4570   45.5870 F   0  0  0  0  0  0  0  0  0  0  0  0
   37.3350   30.9180   50.6180 C   0  0  0  0  0  0  0  0  0  0  0  0
   38.6280   30.8100   50.1200 F   0  0  0  0  0  0  0  0  0  0  0  0
   36.9830   32.2540   50.5510 F   0  0  0  0  0  0  0  0  0  0  0  0
   37.3080   30.5460   51.9380 F   0  0  0  0  0  0  0  0  0  0  0  0
   37.2750   31.1250   47.6950 C   0  0  0  0  0  0  0  0  0  0  0  0
   36.7650   32.1030   47.5260 H   0  0  0  0  0  0  0  0  0  0  0  0
   38.2450   31.2550   48.2220 H   0  0  0  0  0  0  0  0  0  0  0  0
   37.2410   30.9220   42.6080 C   0  0  0  0  0  0  0  0  0  0  0  0
   38.5110   30.5480   43.2510 C   0  0  0  0  0  2  0  0  0  0  0  0
   38.5300   30.8390   44.6250 N   0  0  2  0  0  0  0  0  0  0  0  0
   39.0110   30.9860   45.9510 C   0  0  2  0  0  0  0  0  0  0  0  0
   40.1450   31.3740   46.3900 O   0  0  0  0  0  1  0  0  0  0  0  0
   37.6380   30.5030   46.3660 C   0  0  2  0  0  3  0  0  0  0  0  0
   37.2780   31.3200   45.1900 C   0  0  2  0  0  0  0  0  0  0  0  0
   36.0760   30.6550   44.0120 S   0  0  0  0  0  0  0  0  0  0  0  0
   36.8610   30.0430   41.4440 C   0  0  0  0  0  2  0  0  0  0  0  0
   37.0650   29.0020   41.7480 H   0  0  0  0  0  0  0  0  0  0  0  0
   37.2660   32.3960   42.2700 C   0  0  0  0  0  2  0  0  0  0  0  0
   37.1500   32.9380   43.2510 H   0  0  0  0  0  0  0  0  0  0  0  0
  1  7  1  0  0  0  0
  2  1  1  0  0  0  0
  2 22  1  0  0  0  0
  3  2  2  0  0  0  0
  4  5  2  0  0  0  0
  4  3  1  0  0  0  0
  5  6  1  0  0  0  0
  6  1  2  0  0  0  0
  8  9  1  0  0  0  0
  9 10  1  0  0  0  0
 10 11  2  0  0  0  0
 10  5  1  0  0  0  0
 11 16  1  0  0  0  0
 12 17  1  0  0  0  0
 12 11  1  0  0  0  0
 13 12  2  0  0  0  0
 14 13  1  0  0  0  0
 15 13  1  0  0  0  0
 15  9  2  0  0  0  0
 18 21  1  0  0  0  0
 18 15  1  0  0  0  0
 19 18  1  0  0  0  0
 20 18  1  0  0  0  0
 22 25  1  0  0  0  0
 23 22  1  0  0  0  0
 24 22  1  0  0  0  0
 26 28  1  0  0  0  0
 26  3  1  0  0  0  0
 27 26  1  0  0  0  0
 29 30  1  0  0  0  0
 29 36  1  0  0  0  0
 31 30  1  1  0  0  0
 31 35  1  0  0  0  0
 31 32  1  0  0  0  0
 32 34  1  0  0  0  0
 32 33  1  1  0  0  0
 34 26  1  1  0  0  0
 35 36  1  6  0  0  0
 35 32  1  0  0  0  0
 35 34  1  0  0  0  0
 37 38  1  0  0  0  0
 37 29  1  0  0  0  0
 39 29  1  0  0  0  0
 39 40  1  0  0  0  0
M  END
>  <minimizedAffinity>
-6.65607929

>  <minimizedRMSD>
1.11153173

$$$$
