
 OpenBabel03272508373D

 47 51  0  0  1  0  0  0  0  0999 V2000
   40.0080   32.0420   42.9750 N   0  0  0  0  0  0  0  0  0  0  0  0
   39.2760   33.2310   42.7870 C   0  0  0  0  0  0  0  0  0  0  0  0
   37.8710   33.0920   42.3260 C   0  0  0  0  0  0  0  0  0  0  0  0
   37.7180   32.0970   41.3540 O   0  0  0  0  0  0  0  0  0  0  0  0
   38.2040   30.9180   41.8020 C   0  0  0  0  0  0  0  0  0  0  0  0
   39.6820   31.0030   42.1100 C   0  0  1  0  0  0  0  0  0  0  0  0
   39.8440   33.6060   41.8650 H   0  0  0  0  0  0  0  0  0  0  0  0
   39.4160   34.0780   43.4260 H   0  0  0  0  0  0  0  0  0  0  0  0
   37.7200   34.0110   41.6350 H   0  0  0  0  0  0  0  0  0  0  0  0
   37.0540   33.2840   42.9850 H   0  0  0  0  0  0  0  0  0  0  0  0
   37.6050   30.3320   42.4930 H   0  0  0  0  0  0  0  0  0  0  0  0
   38.1940   30.2640   40.8970 H   0  0  0  0  0  0  0  0  0  0  0  0
   39.8630   30.0600   42.6830 H   0  0  0  0  0  0  0  0  0  0  0  0
   40.4320   31.7620   44.2850 C   0  0  0  0  0  0  0  0  0  0  0  0
   41.5400   31.7080   44.3190 H   0  0  0  0  0  0  0  0  0  0  0  0
   40.1270   30.6870   44.4810 H   0  0  0  0  0  0  0  0  0  0  0  0
   39.9190   32.5780   45.3800 C   0  0  0  0  0  0  0  0  0  0  0  0
   39.5130   33.5700   45.2410 H   0  0  0  0  0  0  0  0  0  0  0  0
   40.7720   32.7560   46.1080 H   0  0  0  0  0  0  0  0  0  0  0  0
   37.8010   30.9340   47.7630 C   0  0  0  0  0  0  0  0  0  0  0  0
   37.0820   30.7420   46.5990 C   0  0  0  0  0  0  0  0  0  0  0  0
   37.8080   31.3410   45.5580 C   0  0  0  0  0  0  0  0  0  0  0  0
   38.9020   31.8540   46.1210 N   0  0  0  0  0  0  0  0  0  0  0  0
   38.8930   31.6080   47.4360 N   0  0  0  0  0  0  0  0  0  0  0  0
   36.1130   30.2120   46.5190 H   0  0  0  0  0  0  0  0  0  0  0  0
   37.3850   31.2720   44.6260 H   0  0  0  0  0  0  0  0  0  0  0  0
   37.4270   30.1920   51.4290 C   0  0  0  0  0  0  0  0  0  0  0  0
   37.9650   30.7240   50.2540 C   0  0  0  0  0  0  0  0  0  0  0  0
   37.3570   30.4490   49.0430 C   0  0  0  0  0  0  0  0  0  0  0  0
   36.2490   29.6550   49.1100 N   0  0  0  0  0  0  0  0  0  0  0  0
   35.7440   29.1520   50.2540 C   0  0  0  0  0  0  0  0  0  0  0  0
   36.3460   29.4310   51.4040 N   0  0  0  0  0  0  0  0  0  0  0  0
   37.9810   30.4690   52.3270 H   0  0  0  0  0  0  0  0  0  0  0  0
   38.8420   31.3520   50.1860 H   0  0  0  0  0  0  0  0  0  0  0  0
   34.8570   28.5410   50.1340 H   0  0  0  0  0  0  0  0  0  0  0  0
   40.4810   30.9490   40.8310 C   0  0  0  0  0  2  0  0  0  0  0  0
   41.0630   29.6330   40.5390 C   0  0  1  0  0  0  0  0  0  0  0  0
   40.0460   28.8130   39.7140 C   0  0  0  0  0  2  0  0  0  0  0  0
   40.8110   27.7080   39.1690 N   0  0  0  0  0  0  0  0  0  0  0  0
   41.4200   26.4530   38.8090 C   0  0  0  0  0  0  0  0  0  0  0  0
   41.1050   25.2600   39.0560 O   0  0  0  0  0  0  0  0  0  0  0  0
   42.5170   27.1590   38.0640 C   0  0  0  0  0  3  0  0  0  0  0  0
   43.4750   27.1350   38.5780 H   0  0  0  0  0  0  0  0  0  0  0  0
   41.6660   28.3810   38.1820 C   0  0  2  0  0  3  0  0  0  0  0  0
   42.3390   29.7230   39.2160 S   0  0  0  0  0  0  0  0  0  0  0  0
   41.5270   28.7950   41.6730 C   0  0  0  0  0  2  0  0  0  0  0  0
   41.4440   29.2680   42.6550 H   0  0  0  0  0  0  0  0  0  0  0  0
  1 14  1  0  0  0  0
  2  1  1  0  0  0  0
  2  8  1  0  0  0  0
  3  2  1  0  0  0  0
  3 10  1  0  0  0  0
  4  5  1  0  0  0  0
  4  3  1  0  0  0  0
  5  6  1  0  0  0  0
  5 11  1  0  0  0  0
  6 13  1  1  0  0  0
  6  1  1  0  0  0  0
  7  2  1  0  0  0  0
  9  3  1  0  0  0  0
 12  5  1  0  0  0  0
 14 15  1  0  0  0  0
 14 16  1  0  0  0  0
 14 17  1  0  0  0  0
 17 19  1  0  0  0  0
 17 23  1  0  0  0  0
 18 17  1  0  0  0  0
 20 29  1  0  0  0  0
 21 20  1  0  0  0  0
 22 23  1  0  0  0  0
 22 21  2  0  0  0  0
 23 24  1  0  0  0  0
 24 20  2  0  0  0  0
 25 21  1  0  0  0  0
 26 22  1  0  0  0  0
 27 33  1  0  0  0  0
 28 27  2  0  0  0  0
 29 30  2  0  0  0  0
 29 28  1  0  0  0  0
 30 31  1  0  0  0  0
 31 32  2  0  0  0  0
 32 27  1  0  0  0  0
 34 28  1  0  0  0  0
 35 31  1  0  0  0  0
 36  6  1  0  0  0  0
 37 36  1  1  0  0  0
 37 46  1  0  0  0  0
 38 37  1  0  0  0  0
 39 38  1  0  0  0  0
 40 41  2  0  0  0  0
 40 39  1  0  0  0  0
 42 43  1  0  0  0  0
 42 40  1  0  0  0  0
 44 42  1  1  0  0  0
 44 39  1  0  0  0  0
 44 45  1  0  0  0  0
 45 37  1  0  0  0  0
 46 47  1  0  0  0  0
M  END
>  <minimizedAffinity>
-5.86343002

>  <minimizedRMSD>
2.2473228

$$$$
