
 OpenBabel03272503253D

 35 38  0  0  1  0  0  0  0  0999 V2000
   38.5350   25.7160   35.2880 N   0  0  0  0  0  0  0  0  0  0  0  0
   37.7910   25.5810   34.0850 C   0  0  1  0  0  0  0  0  0  0  0  0
   37.0900   26.8960   33.8960 C   0  0  0  0  0  0  0  0  0  0  0  0
   37.5310   27.7340   35.1240 C   0  0  0  0  0  0  0  0  0  0  0  0
   38.8650   27.1120   35.4050 C   0  0  0  0  0  0  0  0  0  0  0  0
   36.9100   24.8340   34.3070 H   0  0  0  0  0  0  0  0  0  0  0  0
   35.9870   26.8320   33.8740 H   0  0  0  0  0  0  0  0  0  0  0  0
   37.4960   27.4470   33.0170 H   0  0  0  0  0  0  0  0  0  0  0  0
   36.8510   27.5620   35.9660 H   0  0  0  0  0  0  0  0  0  0  0  0
   37.6100   28.8100   34.8310 H   0  0  0  0  0  0  0  0  0  0  0  0
   39.1140   27.3650   36.4670 H   0  0  0  0  0  0  0  0  0  0  0  0
   39.6480   27.4650   34.7090 H   0  0  0  0  0  0  0  0  0  0  0  0
   38.8650   24.6730   36.1910 C   0  0  0  0  0  0  0  0  0  0  0  0
   38.0650   24.4980   37.3310 C   0  0  0  0  0  0  0  0  0  0  0  0
   38.3770   23.4730   38.2340 C   0  0  0  0  0  0  0  0  0  0  0  0
   39.4660   22.6970   37.9310 N   0  0  0  0  0  0  0  0  0  0  0  0
   40.2160   22.8910   36.8240 C   0  0  0  0  0  0  0  0  0  0  0  0
   39.9240   23.8900   35.9300 N   0  0  0  0  0  0  0  0  0  0  0  0
   37.2080   25.1140   37.5650 H   0  0  0  0  0  0  0  0  0  0  0  0
   37.7760   23.3190   39.1170 H   0  0  0  0  0  0  0  0  0  0  0  0
   41.0610   22.2710   36.6080 H   0  0  0  0  0  0  0  0  0  0  0  0
   38.4800   25.0570   32.9180 C   0  0  0  0  0  0  0  0  0  0  0  0
   39.1910   25.7440   32.2390 O   0  0  0  0  0  0  0  0  0  0  0  0
   36.0210   20.7230   31.6270 C   0  0  0  0  0  0  0  0  0  0  0  0
   35.6280   22.1080   31.0950 C   0  0  0  0  0  2  0  0  0  0  0  0
   36.8740   22.9030   31.1190 N   0  0  0  0  0  0  0  0  0  0  0  0
   38.0910   23.6740   30.9430 C   0  0  0  0  0  0  0  0  0  0  0  0
   38.3420   24.0100   29.7320 O   0  0  0  0  0  0  0  0  0  0  0  0
   38.4170   23.6590   32.3740 C   0  0  2  0  0  3  0  0  0  0  0  0
   37.0760   23.0610   32.5470 C   0  0  2  0  0  3  0  0  0  0  0  0
   37.0800   21.2860   33.0250 S   0  0  0  0  0  0  0  0  0  0  0  0
   34.8010   20.0070   32.1150 C   0  0  0  0  0  2  0  0  0  0  0  0
   33.9520   20.2890   31.4750 H   0  0  0  0  0  0  0  0  0  0  0  0
   36.8240   19.9440   30.6340 C   0  0  0  0  0  2  0  0  0  0  0  0
   37.3870   19.1670   31.2130 H   0  0  0  0  0  0  0  0  0  0  0  0
  1  5  1  0  0  0  0
  1 13  1  0  0  0  0
  2  6  1  1  0  0  0
  2  1  1  0  0  0  0
  3  2  1  0  0  0  0
  3  4  1  0  0  0  0
  4  5  1  0  0  0  0
  4  9  1  0  0  0  0
  5 11  1  0  0  0  0
  7  3  1  0  0  0  0
  8  3  1  0  0  0  0
 10  4  1  0  0  0  0
 12  5  1  0  0  0  0
 13 14  1  0  0  0  0
 14 19  1  0  0  0  0
 14 15  2  0  0  0  0
 15 20  1  0  0  0  0
 16 15  1  0  0  0  0
 17 16  2  0  0  0  0
 18 13  2  0  0  0  0
 18 17  1  0  0  0  0
 21 17  1  0  0  0  0
 22  2  1  0  0  0  0
 23 22  2  0  0  0  0
 24 32  1  0  0  0  0
 24 31  1  0  0  0  0
 25 26  1  0  0  0  0
 25 24  1  0  0  0  0
 26 30  1  0  0  0  0
 27 26  1  0  0  0  0
 27 29  1  0  0  0  0
 28 27  2  0  0  0  0
 29 30  1  0  0  0  0
 29 22  1  1  0  0  0
 30 31  1  1  0  0  0
 33 32  1  0  0  0  0
 34 35  1  0  0  0  0
 34 24  1  0  0  0  0
M  END
>  <minimizedAffinity>
-5.72504616

$$$$

 OpenBabel03272503253D

 35 38  0  0  1  0  0  0  0  0999 V2000
   37.8100   27.1980   33.6810 N   0  0  0  0  0  0  0  0  0  0  0  0
   38.9730   26.3830   33.6230 C   0  0  1  0  0  0  0  0  0  0  0  0
   39.5710   26.4360   35.0000 C   0  0  0  0  0  0  0  0  0  0  0  0
   38.6140   27.3690   35.7870 C   0  0  0  0  0  0  0  0  0  0  0  0
   37.3370   27.1310   35.0390 C   0  0  0  0  0  0  0  0  0  0  0  0
   39.7610   26.9540   32.9630 H   0  0  0  0  0  0  0  0  0  0  0  0
   40.5960   26.8460   35.0410 H   0  0  0  0  0  0  0  0  0  0  0  0
   39.4910   25.4510   35.5130 H   0  0  0  0  0  0  0  0  0  0  0  0
   38.9250   28.4130   35.6770 H   0  0  0  0  0  0  0  0  0  0  0  0
   38.5590   27.0320   36.8510 H   0  0  0  0  0  0  0  0  0  0  0  0
   36.6730   28.0050   35.2630 H   0  0  0  0  0  0  0  0  0  0  0  0
   36.8590   26.1750   35.3170 H   0  0  0  0  0  0  0  0  0  0  0  0
   37.2500   27.9370   32.6080 C   0  0  0  0  0  0  0  0  0  0  0  0
   36.0230   28.5890   32.8130 C   0  0  0  0  0  0  0  0  0  0  0  0
   35.4560   29.3220   31.7640 C   0  0  0  0  0  0  0  0  0  0  0  0
   36.1550   29.3510   30.5840 N   0  0  0  0  0  0  0  0  0  0  0  0
   37.3340   28.7130   30.4180 C   0  0  0  0  0  0  0  0  0  0  0  0
   37.9030   27.9900   31.4370 N   0  0  0  0  0  0  0  0  0  0  0  0
   35.4770   28.5620   33.7450 H   0  0  0  0  0  0  0  0  0  0  0  0
   34.5140   29.8330   31.8990 H   0  0  0  0  0  0  0  0  0  0  0  0
   37.8610   28.7510   29.4890 H   0  0  0  0  0  0  0  0  0  0  0  0
   38.8430   25.0580   33.0400 C   0  0  0  0  0  0  0  0  0  0  0  0
   39.6290   24.6380   32.2390 O   0  0  0  0  0  0  0  0  0  0  0  0
   36.3400   20.6500   32.1440 C   0  0  0  0  0  0  0  0  0  0  0  0
   37.8460   20.7230   32.4350 C   0  0  0  0  0  2  0  0  0  0  0  0
   38.0250   21.9380   33.2590 N   0  0  0  0  0  0  0  0  0  0  0  0
   38.2430   23.0040   34.2180 C   0  0  0  0  0  0  0  0  0  0  0  0
   38.7160   22.6230   35.3460 O   0  0  0  0  0  0  0  0  0  0  0  0
   37.7630   24.0490   33.3040 C   0  0  2  0  0  3  0  0  0  0  0  0
   37.7500   22.9780   32.2850 C   0  0  2  0  0  3  0  0  0  0  0  0
   36.0740   22.4320   31.7620 S   0  0  0  0  0  0  0  0  0  0  0  0
   36.1000   19.7880   30.9460 C   0  0  0  0  0  2  0  0  0  0  0  0
   36.8470   18.9820   30.9410 H   0  0  0  0  0  0  0  0  0  0  0  0
   35.5520   20.2440   33.3500 C   0  0  0  0  0  2  0  0  0  0  0  0
   34.5020   20.5940   33.1820 H   0  0  0  0  0  0  0  0  0  0  0  0
  1  5  1  0  0  0  0
  2  6  1  6  0  0  0
  2  1  1  0  0  0  0
  2  3  1  0  0  0  0
  3  7  1  0  0  0  0
  3  8  1  0  0  0  0
  3  4  1  0  0  0  0
  4 10  1  0  0  0  0
  5 11  1  0  0  0  0
  5 12  1  0  0  0  0
  5  4  1  0  0  0  0
  9  4  1  0  0  0  0
 13 14  1  0  0  0  0
 13  1  1  0  0  0  0
 14 19  1  0  0  0  0
 15 20  1  0  0  0  0
 15 14  2  0  0  0  0
 16 15  1  0  0  0  0
 17 16  2  0  0  0  0
 17 18  1  0  0  0  0
 18 13  2  0  0  0  0
 21 17  1  0  0  0  0
 22  2  1  0  0  0  0
 23 22  2  0  0  0  0
 24 25  1  0  0  0  0
 24 34  1  0  0  0  0
 25 26  1  0  0  0  0
 26 27  1  0  0  0  0
 27 28  2  0  0  0  0
 29 22  1  6  0  0  0
 29 27  1  0  0  0  0
 30 31  1  1  0  0  0
 30 26  1  0  0  0  0
 30 29  1  0  0  0  0
 31 24  1  0  0  0  0
 32 24  1  0  0  0  0
 33 32  1  0  0  0  0
 35 34  1  0  0  0  0
M  END
>  <minimizedAffinity>
-5.37236691

$$$$

 OpenBabel03272503253D

 35 38  0  0  1  0  0  0  0  0999 V2000
   37.6170   26.3080   33.4190 N   0  0  0  0  0  0  0  0  0  0  0  0
   36.8770   27.3970   33.9540 C   0  0  1  0  0  0  0  0  0  0  0  0
   37.6640   27.8730   35.1420 C   0  0  0  0  0  0  0  0  0  0  0  0
   38.8870   26.9200   35.1860 C   0  0  0  0  0  0  0  0  0  0  0  0
   38.9980   26.5640   33.7350 C   0  0  0  0  0  0  0  0  0  0  0  0
   35.9040   26.9470   34.4370 H   0  0  0  0  0  0  0  0  0  0  0  0
   37.1240   27.8190   36.1040 H   0  0  0  0  0  0  0  0  0  0  0  0
   38.0980   28.8830   34.9600 H   0  0  0  0  0  0  0  0  0  0  0  0
   38.6530   26.0280   35.7760 H   0  0  0  0  0  0  0  0  0  0  0  0
   39.7790   27.4790   35.5610 H   0  0  0  0  0  0  0  0  0  0  0  0
   39.5900   25.6150   33.6870 H   0  0  0  0  0  0  0  0  0  0  0  0
   39.4690   27.3670   33.1390 H   0  0  0  0  0  0  0  0  0  0  0  0
   37.0830   25.1910   32.7280 C   0  0  0  0  0  0  0  0  0  0  0  0
   36.0840   25.4150   31.7660 C   0  0  0  0  0  0  0  0  0  0  0  0
   35.5440   24.3240   31.0740 C   0  0  0  0  0  0  0  0  0  0  0  0
   36.0420   23.0860   31.3920 N   0  0  0  0  0  0  0  0  0  0  0  0
   37.0050   22.9030   32.3230 C   0  0  0  0  0  0  0  0  0  0  0  0
   37.5440   23.9620   33.0100 N   0  0  0  0  0  0  0  0  0  0  0  0
   35.6950   26.3930   31.5200 H   0  0  0  0  0  0  0  0  0  0  0  0
   34.7760   24.4720   30.3310 H   0  0  0  0  0  0  0  0  0  0  0  0
   37.3780   21.9280   32.5530 H   0  0  0  0  0  0  0  0  0  0  0  0
   36.4310   28.4300   33.0350 C   0  0  0  0  0  0  0  0  0  0  0  0
   37.0460   28.7050   32.0440 O   0  0  0  0  0  0  0  0  0  0  0  0
   32.9610   31.1460   35.6960 C   0  0  0  0  0  0  0  0  0  0  0  0
   34.4740   31.3930   35.7810 C   0  0  0  0  0  2  0  0  0  0  0  0
   35.0150   30.9530   34.4770 N   0  0  0  0  0  0  0  0  0  0  0  0
   35.5800   30.7150   33.1620 C   0  0  0  0  0  0  0  0  0  0  0  0
   36.1110   31.7440   32.6130 O   0  0  0  0  0  0  0  0  0  0  0  0
   35.2100   29.2940   33.1590 C   0  0  2  0  0  3  0  0  0  0  0  0
   34.8340   29.5170   34.5710 C   0  0  2  0  0  3  0  0  0  0  0  0
   33.0260   29.4850   34.9010 S   0  0  0  0  0  0  0  0  0  0  0  0
   32.3850   31.0740   37.0750 C   0  0  0  0  0  2  0  0  0  0  0  0
   32.9390   31.7710   37.7200 H   0  0  0  0  0  0  0  0  0  0  0  0
   32.2780   32.1330   34.8040 C   0  0  0  0  0  2  0  0  0  0  0  0
   31.3110   31.6650   34.4860 H   0  0  0  0  0  0  0  0  0  0  0  0
  1  5  1  0  0  0  0
  1  2  1  0  0  0  0
  2  6  1  1  0  0  0
  2  3  1  0  0  0  0
  3  4  1  0  0  0  0
  3  7  1  0  0  0  0
  4 10  1  0  0  0  0
  4  9  1  0  0  0  0
  5  4  1  0  0  0  0
  8  3  1  0  0  0  0
 11  5  1  0  0  0  0
 12  5  1  0  0  0  0
 13 18  1  0  0  0  0
 13  1  1  0  0  0  0
 14 13  2  0  0  0  0
 15 16  2  0  0  0  0
 15 14  1  0  0  0  0
 16 17  1  0  0  0  0
 17 21  1  0  0  0  0
 17 18  2  0  0  0  0
 19 14  1  0  0  0  0
 20 15  1  0  0  0  0
 22  2  1  0  0  0  0
 23 22  2  0  0  0  0
 24 25  1  0  0  0  0
 24 32  1  0  0  0  0
 26 30  1  0  0  0  0
 26 25  1  0  0  0  0
 27 26  1  0  0  0  0
 28 27  2  0  0  0  0
 29 22  1  1  0  0  0
 29 27  1  0  0  0  0
 29 30  1  0  0  0  0
 30 31  1  6  0  0  0
 31 24  1  0  0  0  0
 32 33  1  0  0  0  0
 34 24  1  0  0  0  0
 35 34  1  0  0  0  0
M  END
>  <minimizedAffinity>
-5.24112368

$$$$

 OpenBabel03272503253D

 35 38  0  0  1  0  0  0  0  0999 V2000
   38.7070   22.4230   35.9330 N   0  0  0  0  0  0  0  0  0  0  0  0
   38.6050   23.5750   36.7580 C   0  0  1  0  0  0  0  0  0  0  0  0
   39.6800   23.4240   37.7960 C   0  0  0  0  0  0  0  0  0  0  0  0
   40.3540   22.0720   37.4420 C   0  0  0  0  0  0  0  0  0  0  0  0
   40.0900   22.0230   35.9680 C   0  0  0  0  0  0  0  0  0  0  0  0
   37.6120   23.4660   37.3800 H   0  0  0  0  0  0  0  0  0  0  0  0
   39.3140   23.3870   38.8380 H   0  0  0  0  0  0  0  0  0  0  0  0
   40.4830   24.1840   37.6590 H   0  0  0  0  0  0  0  0  0  0  0  0
   39.8380   21.2470   37.9440 H   0  0  0  0  0  0  0  0  0  0  0  0
   41.4430   22.1260   37.6820 H   0  0  0  0  0  0  0  0  0  0  0  0
   40.1910   20.9500   35.6640 H   0  0  0  0  0  0  0  0  0  0  0  0
   40.7760   22.6740   35.3960 H   0  0  0  0  0  0  0  0  0  0  0  0
   37.6450   21.7960   35.2330 C   0  0  0  0  0  0  0  0  0  0  0  0
   37.7400   21.6800   33.8370 C   0  0  0  0  0  0  0  0  0  0  0  0
   36.7000   21.0650   33.1300 C   0  0  0  0  0  0  0  0  0  0  0  0
   35.6390   20.6080   33.8690 N   0  0  0  0  0  0  0  0  0  0  0  0
   35.5780   20.7340   35.2140 C   0  0  0  0  0  0  0  0  0  0  0  0
   36.5890   21.3350   35.9210 N   0  0  0  0  0  0  0  0  0  0  0  0
   38.5790   22.0430   33.2590 H   0  0  0  0  0  0  0  0  0  0  0  0
   36.7510   20.9640   32.0560 H   0  0  0  0  0  0  0  0  0  0  0  0
   34.7400   20.3680   35.7690 H   0  0  0  0  0  0  0  0  0  0  0  0
   38.5320   24.8720   36.1060 C   0  0  0  0  0  0  0  0  0  0  0  0
   38.2280   25.8650   36.7020 O   0  0  0  0  0  0  0  0  0  0  0  0
   37.3570   26.9930   31.5650 C   0  0  0  0  0  0  0  0  0  0  0  0
   37.4470   27.7920   32.8740 C   0  0  0  0  0  2  0  0  0  0  0  0
   38.4060   27.0490   33.7190 N   0  0  0  0  0  0  0  0  0  0  0  0
   39.4710   26.4740   34.5190 C   0  0  0  0  0  0  0  0  0  0  0  0
   40.4560   27.2610   34.7450 O   0  0  0  0  0  0  0  0  0  0  0  0
   38.7920   25.1800   34.6590 C   0  0  2  0  0  3  0  0  0  0  0  0
   37.6400   25.8550   34.0260 C   0  0  2  0  0  3  0  0  0  0  0  0
   37.2770   25.3090   32.3080 S   0  0  0  0  0  0  0  0  0  0  0  0
   36.0900   27.3400   30.8510 C   0  0  0  0  0  2  0  0  0  0  0  0
   35.8660   28.4010   31.0320 H   0  0  0  0  0  0  0  0  0  0  0  0
   38.5870   27.1440   30.7270 C   0  0  0  0  0  2  0  0  0  0  0  0
   38.6160   26.2630   30.0360 H   0  0  0  0  0  0  0  0  0  0  0  0
  1  5  1  0  0  0  0
  1  2  1  0  0  0  0
  2  6  1  1  0  0  0
  2  3  1  0  0  0  0
  3  7  1  0  0  0  0
  4 10  1  0  0  0  0
  4  3  1  0  0  0  0
  4  9  1  0  0  0  0
  5  4  1  0  0  0  0
  8  3  1  0  0  0  0
 11  5  1  0  0  0  0
 12  5  1  0  0  0  0
 13 18  1  0  0  0  0
 13  1  1  0  0  0  0
 14 13  2  0  0  0  0
 15 14  1  0  0  0  0
 15 16  2  0  0  0  0
 16 17  1  0  0  0  0
 17 21  1  0  0  0  0
 17 18  2  0  0  0  0
 19 14  1  0  0  0  0
 20 15  1  0  0  0  0
 22 23  2  0  0  0  0
 22  2  1  0  0  0  0
 24 31  1  0  0  0  0
 24 25  1  0  0  0  0
 25 26  1  0  0  0  0
 26 30  1  0  0  0  0
 26 27  1  0  0  0  0
 27 29  1  0  0  0  0
 27 28  2  0  0  0  0
 29 22  1  1  0  0  0
 30 31  1  6  0  0  0
 30 29  1  0  0  0  0
 32 33  1  0  0  0  0
 32 24  1  0  0  0  0
 34 24  1  0  0  0  0
 35 34  1  0  0  0  0
M  END
>  <minimizedAffinity>
-5.19895601

$$$$

 OpenBabel03272503253D

 35 38  0  0  1  0  0  0  0  0999 V2000
   37.1070   27.3590   33.3950 N   0  0  0  0  0  0  0  0  0  0  0  0
   37.8610   26.2500   32.9240 C   0  0  1  0  0  0  0  0  0  0  0  0
   38.8760   25.9690   33.9960 C   0  0  0  0  0  0  0  0  0  0  0  0
   38.5880   27.0460   35.0740 C   0  0  0  0  0  0  0  0  0  0  0  0
   37.1280   27.2800   34.8320 C   0  0  0  0  0  0  0  0  0  0  0  0
   38.5160   26.6350   32.0270 H   0  0  0  0  0  0  0  0  0  0  0  0
   39.9270   26.0520   33.6680 H   0  0  0  0  0  0  0  0  0  0  0  0
   38.6680   24.9990   34.5030 H   0  0  0  0  0  0  0  0  0  0  0  0
   39.1560   27.9580   34.8620 H   0  0  0  0  0  0  0  0  0  0  0  0
   38.7940   26.6220   36.0870 H   0  0  0  0  0  0  0  0  0  0  0  0
   36.8900   28.2790   35.2790 H   0  0  0  0  0  0  0  0  0  0  0  0
   36.4970   26.4820   35.2630 H   0  0  0  0  0  0  0  0  0  0  0  0
   36.4790   28.3460   32.5940 C   0  0  0  0  0  0  0  0  0  0  0  0
   37.0840   28.7040   31.3780 C   0  0  0  0  0  0  0  0  0  0  0  0
   36.4780   29.6780   30.5740 C   0  0  0  0  0  0  0  0  0  0  0  0
   35.3100   30.2230   31.0420 N   0  0  0  0  0  0  0  0  0  0  0  0
   34.7520   29.8560   32.2170 C   0  0  0  0  0  0  0  0  0  0  0  0
   35.3340   28.9040   33.0170 N   0  0  0  0  0  0  0  0  0  0  0  0
   38.0050   28.2710   31.0150 H   0  0  0  0  0  0  0  0  0  0  0  0
   36.9250   29.9690   29.6350 H   0  0  0  0  0  0  0  0  0  0  0  0
   33.8400   30.2950   32.5610 H   0  0  0  0  0  0  0  0  0  0  0  0
   37.1310   25.0970   32.4260 C   0  0  0  0  0  0  0  0  0  0  0  0
   36.0310   25.1950   31.9610 O   0  0  0  0  0  0  0  0  0  0  0  0
   36.3520   20.0220   32.0620 C   0  0  0  0  0  0  0  0  0  0  0  0
   35.9160   21.0230   30.9820 C   0  0  0  0  0  2  0  0  0  0  0  0
   36.8550   22.1590   31.1040 N   0  0  0  0  0  0  0  0  0  0  0  0
   37.8500   23.2130   31.0470 C   0  0  0  0  0  0  0  0  0  0  0  0
   38.4790   23.2980   29.9340 O   0  0  0  0  0  0  0  0  0  0  0  0
   37.5840   23.6650   32.4190 C   0  0  2  0  0  3  0  0  0  0  0  0
   36.4420   22.7280   32.3730 C   0  0  2  0  0  3  0  0  0  0  0  0
   36.6330   21.2300   33.4230 S   0  0  0  0  0  0  0  0  0  0  0  0
   35.2200   19.0950   32.3730 C   0  0  0  0  0  2  0  0  0  0  0  0
   34.6520   18.9150   31.4490 H   0  0  0  0  0  0  0  0  0  0  0  0
   37.6260   19.3240   31.7020 C   0  0  0  0  0  2  0  0  0  0  0  0
   38.0660   18.9440   32.6590 H   0  0  0  0  0  0  0  0  0  0  0  0
  1  5  1  0  0  0  0
  2  6  1  6  0  0  0
  2  1  1  0  0  0  0
  2  3  1  0  0  0  0
  3  8  1  0  0  0  0
  3  4  1  0  0  0  0
  4 10  1  0  0  0  0
  5  4  1  0  0  0  0
  5 12  1  0  0  0  0
  5 11  1  0  0  0  0
  7  3  1  0  0  0  0
  9  4  1  0  0  0  0
 13 18  1  0  0  0  0
 13  1  1  0  0  0  0
 14 13  2  0  0  0  0
 15 16  2  0  0  0  0
 15 14  1  0  0  0  0
 16 17  1  0  0  0  0
 17 21  1  0  0  0  0
 17 18  2  0  0  0  0
 19 14  1  0  0  0  0
 20 15  1  0  0  0  0
 22  2  1  0  0  0  0
 23 22  2  0  0  0  0
 24 32  1  0  0  0  0
 24 31  1  0  0  0  0
 25 26  1  0  0  0  0
 25 24  1  0  0  0  0
 26 30  1  0  0  0  0
 27 26  1  0  0  0  0
 27 29  1  0  0  0  0
 28 27  2  0  0  0  0
 29 22  1  6  0  0  0
 30 29  1  0  0  0  0
 30 31  1  1  0  0  0
 33 32  1  0  0  0  0
 34 24  1  0  0  0  0
 34 35  1  0  0  0  0
M  END
>  <minimizedAffinity>
-5.15892506

$$$$

 OpenBabel03272503253D

 35 38  0  0  1  0  0  0  0  0999 V2000
   39.2180   25.1740   34.7540 N   0  0  0  0  0  0  0  0  0  0  0  0
   38.2450   25.1940   33.7180 C   0  0  1  0  0  0  0  0  0  0  0  0
   38.3770   26.5420   33.0690 C   0  0  0  0  0  0  0  0  0  0  0  0
   39.5090   27.2350   33.8720 C   0  0  0  0  0  0  0  0  0  0  0  0
   40.2870   26.0350   34.3210 C   0  0  0  0  0  0  0  0  0  0  0  0
   37.1910   25.2460   34.2370 H   0  0  0  0  0  0  0  0  0  0  0  0
   37.4650   27.1650   33.1110 H   0  0  0  0  0  0  0  0  0  0  0  0
   38.7780   26.4540   32.0330 H   0  0  0  0  0  0  0  0  0  0  0  0
   39.0940   27.7600   34.7380 H   0  0  0  0  0  0  0  0  0  0  0  0
   40.0960   27.8980   33.1900 H   0  0  0  0  0  0  0  0  0  0  0  0
   40.8990   26.3670   35.1990 H   0  0  0  0  0  0  0  0  0  0  0  0
   40.9210   25.6200   33.5170 H   0  0  0  0  0  0  0  0  0  0  0  0
   39.1300   24.4540   35.9730 C   0  0  0  0  0  0  0  0  0  0  0  0
   38.1090   24.7920   36.8760 C   0  0  0  0  0  0  0  0  0  0  0  0
   38.0070   24.0920   38.0850 C   0  0  0  0  0  0  0  0  0  0  0  0
   38.9330   23.1030   38.3030 N   0  0  0  0  0  0  0  0  0  0  0  0
   39.9030   22.8010   37.4120 C   0  0  0  0  0  0  0  0  0  0  0  0
   40.0170   23.4780   36.2240 N   0  0  0  0  0  0  0  0  0  0  0  0
   37.3830   25.5730   36.6990 H   0  0  0  0  0  0  0  0  0  0  0  0
   37.2310   24.3340   38.7950 H   0  0  0  0  0  0  0  0  0  0  0  0
   40.6130   22.0250   37.6050 H   0  0  0  0  0  0  0  0  0  0  0  0
   38.1950   24.0580   32.8140 C   0  0  0  0  0  0  0  0  0  0  0  0
   39.0420   23.8670   31.9870 O   0  0  0  0  0  0  0  0  0  0  0  0
   36.3310   19.5060   31.2970 C   0  0  0  0  0  0  0  0  0  0  0  0
   37.6510   19.6650   32.0650 C   0  0  0  0  0  2  0  0  0  0  0  0
   37.4930   20.9020   32.8590 N   0  0  0  0  0  0  0  0  0  0  0  0
   37.3320   21.9960   33.7990 C   0  0  0  0  0  0  0  0  0  0  0  0
   37.4220   21.6610   35.0320 O   0  0  0  0  0  0  0  0  0  0  0  0
   37.1350   22.9970   32.7420 C   0  0  2  0  0  3  0  0  0  0  0  0
   37.5090   21.9090   31.8140 C   0  0  2  0  0  3  0  0  0  0  0  0
   36.1260   21.2640   30.7870 S   0  0  0  0  0  0  0  0  0  0  0  0
   36.5410   18.6110   30.1170 C   0  0  0  0  0  2  0  0  0  0  0  0
   37.2820   17.8460   30.3870 H   0  0  0  0  0  0  0  0  0  0  0  0
   35.2080   19.0790   32.1900 C   0  0  0  0  0  2  0  0  0  0  0  0
   34.2570   19.3700   31.6720 H   0  0  0  0  0  0  0  0  0  0  0  0
  1 13  1  0  0  0  0
  2  6  1  1  0  0  0
  2  1  1  0  0  0  0
  3  7  1  0  0  0  0
  3  2  1  0  0  0  0
  3  4  1  0  0  0  0
  4  5  1  0  0  0  0
  4  9  1  0  0  0  0
  5  1  1  0  0  0  0
  5 11  1  0  0  0  0
  8  3  1  0  0  0  0
 10  4  1  0  0  0  0
 12  5  1  0  0  0  0
 13 18  2  0  0  0  0
 13 14  1  0  0  0  0
 14 15  2  0  0  0  0
 15 16  1  0  0  0  0
 15 20  1  0  0  0  0
 17 21  1  0  0  0  0
 17 16  2  0  0  0  0
 18 17  1  0  0  0  0
 19 14  1  0  0  0  0
 22  2  1  0  0  0  0
 23 22  2  0  0  0  0
 24 25  1  0  0  0  0
 24 34  1  0  0  0  0
 25 26  1  0  0  0  0
 26 27  1  0  0  0  0
 27 28  2  0  0  0  0
 29 22  1  1  0  0  0
 29 27  1  0  0  0  0
 30 31  1  6  0  0  0
 30 29  1  0  0  0  0
 30 26  1  0  0  0  0
 31 24  1  0  0  0  0
 32 33  1  0  0  0  0
 32 24  1  0  0  0  0
 35 34  1  0  0  0  0
M  END
>  <minimizedAffinity>
-5.14856339

$$$$

 OpenBabel03272503253D

 35 38  0  0  1  0  0  0  0  0999 V2000
   36.8870   27.7460   32.3730 N   0  0  0  0  0  0  0  0  0  0  0  0
   36.3130   29.0440   32.3030 C   0  0  1  0  0  0  0  0  0  0  0  0
   36.2640   29.3830   30.8400 C   0  0  0  0  0  0  0  0  0  0  0  0
   36.8780   28.1390   30.1480 C   0  0  0  0  0  0  0  0  0  0  0  0
   36.5310   27.0800   31.1480 C   0  0  0  0  0  0  0  0  0  0  0  0
   37.1100   29.7970   32.7280 H   0  0  0  0  0  0  0  0  0  0  0  0
   36.8400   30.2820   30.5560 H   0  0  0  0  0  0  0  0  0  0  0  0
   35.2140   29.4230   30.4700 H   0  0  0  0  0  0  0  0  0  0  0  0
   37.9660   28.2440   30.0730 H   0  0  0  0  0  0  0  0  0  0  0  0
   36.3800   27.9790   29.1610 H   0  0  0  0  0  0  0  0  0  0  0  0
   37.2270   26.2230   30.9560 H   0  0  0  0  0  0  0  0  0  0  0  0
   35.4730   26.7670   31.0800 H   0  0  0  0  0  0  0  0  0  0  0  0
   37.6670   27.2320   33.4410 C   0  0  0  0  0  0  0  0  0  0  0  0
   39.0640   27.2190   33.3020 C   0  0  0  0  0  0  0  0  0  0  0  0
   39.8500   26.7150   34.3460 C   0  0  0  0  0  0  0  0  0  0  0  0
   39.1820   26.2590   35.4540 N   0  0  0  0  0  0  0  0  0  0  0  0
   37.8350   26.2850   35.5570 C   0  0  0  0  0  0  0  0  0  0  0  0
   37.0510   26.7760   34.5430 N   0  0  0  0  0  0  0  0  0  0  0  0
   39.5850   27.5800   32.4260 H   0  0  0  0  0  0  0  0  0  0  0  0
   40.9260   26.6960   34.2620 H   0  0  0  0  0  0  0  0  0  0  0  0
   37.3370   25.9250   36.4320 H   0  0  0  0  0  0  0  0  0  0  0  0
   35.0900   29.2850   33.0500 C   0  0  0  0  0  0  0  0  0  0  0  0
   34.0160   28.9580   32.6310 O   0  0  0  0  0  0  0  0  0  0  0  0
   34.8780   33.4040   36.1310 C   0  0  0  0  0  0  0  0  0  0  0  0
   33.9510   33.2020   34.9240 C   0  0  0  0  0  2  0  0  0  0  0  0
   33.8480   31.7380   34.7520 N   0  0  0  0  0  0  0  0  0  0  0  0
   33.5570   30.3200   34.6450 C   0  0  0  0  0  0  0  0  0  0  0  0
   32.3240   30.0120   34.8060 O   0  0  0  0  0  0  0  0  0  0  0  0
   34.9560   29.9590   34.3850 C   0  0  2  0  0  3  0  0  0  0  0  0
   35.1860   31.4160   34.2920 C   0  0  2  0  0  3  0  0  0  0  0  0
   36.1400   32.1370   35.6880 S   0  0  0  0  0  0  0  0  0  0  0  0
   35.4510   34.7850   36.0990 C   0  0  0  0  0  2  0  0  0  0  0  0
   34.6950   35.4670   35.6850 H   0  0  0  0  0  0  0  0  0  0  0  0
   34.2070   33.0550   37.4220 C   0  0  0  0  0  2  0  0  0  0  0  0
   35.0220   32.8430   38.1610 H   0  0  0  0  0  0  0  0  0  0  0  0
  1 13  1  0  0  0  0
  2  1  1  0  0  0  0
  2  6  1  1  0  0  0
  2 22  1  0  0  0  0
  3  2  1  0  0  0  0
  4  3  1  0  0  0  0
  4  5  1  0  0  0  0
  5  1  1  0  0  0  0
  7  3  1  0  0  0  0
  8  3  1  0  0  0  0
  9  4  1  0  0  0  0
 10  4  1  0  0  0  0
 11  5  1  0  0  0  0
 12  5  1  0  0  0  0
 13 18  1  0  0  0  0
 14 13  2  0  0  0  0
 14 15  1  0  0  0  0
 15 16  2  0  0  0  0
 16 17  1  0  0  0  0
 17 21  1  0  0  0  0
 18 17  2  0  0  0  0
 19 14  1  0  0  0  0
 20 15  1  0  0  0  0
 23 22  2  0  0  0  0
 24 34  1  0  0  0  0
 25 24  1  0  0  0  0
 26 25  1  0  0  0  0
 27 26  1  0  0  0  0
 27 28  2  0  0  0  0
 29 22  1  6  0  0  0
 29 27  1  0  0  0  0
 30 29  1  0  0  0  0
 30 26  1  0  0  0  0
 30 31  1  1  0  0  0
 31 24  1  0  0  0  0
 32 24  1  0  0  0  0
 33 32  1  0  0  0  0
 34 35  1  0  0  0  0
M  END
>  <minimizedAffinity>
-5.08366632

$$$$

 OpenBabel03272503253D

 35 38  0  0  1  0  0  0  0  0999 V2000
   36.8680   24.4580   31.0930 N   0  0  0  0  0  0  0  0  0  0  0  0
   37.0350   25.8400   31.3800 C   0  0  1  0  0  0  0  0  0  0  0  0
   35.6740   26.4530   31.2100 C   0  0  0  0  0  0  0  0  0  0  0  0
   34.7750   25.2590   30.7950 C   0  0  0  0  0  0  0  0  0  0  0  0
   35.5120   24.1320   31.4520 C   0  0  0  0  0  0  0  0  0  0  0  0
   37.6530   26.3030   30.4940 H   0  0  0  0  0  0  0  0  0  0  0  0
   35.6170   27.2400   30.4360 H   0  0  0  0  0  0  0  0  0  0  0  0
   35.2590   26.7940   32.1860 H   0  0  0  0  0  0  0  0  0  0  0  0
   34.7880   25.1340   29.7070 H   0  0  0  0  0  0  0  0  0  0  0  0
   33.7490   25.4040   31.2130 H   0  0  0  0  0  0  0  0  0  0  0  0
   35.1870   23.1960   30.9300 H   0  0  0  0  0  0  0  0  0  0  0  0
   35.3190   24.0800   32.5390 H   0  0  0  0  0  0  0  0  0  0  0  0
   37.8490   23.5910   30.5480 C   0  0  0  0  0  0  0  0  0  0  0  0
   38.8340   24.1390   29.7110 C   0  0  0  0  0  0  0  0  0  0  0  0
   39.8100   23.2980   29.1640 C   0  0  0  0  0  0  0  0  0  0  0  0
   39.7320   21.9680   29.4920 N   0  0  0  0  0  0  0  0  0  0  0  0
   38.7710   21.4720   30.3020 C   0  0  0  0  0  0  0  0  0  0  0  0
   37.8070   22.2830   30.8460 N   0  0  0  0  0  0  0  0  0  0  0  0
   38.8900   25.1880   29.4560 H   0  0  0  0  0  0  0  0  0  0  0  0
   40.5780   23.6960   28.5180 H   0  0  0  0  0  0  0  0  0  0  0  0
   38.7310   20.4310   30.5450 H   0  0  0  0  0  0  0  0  0  0  0  0
   37.7430   26.1990   32.5970 C   0  0  0  0  0  0  0  0  0  0  0  0
   38.5290   27.1020   32.6310 O   0  0  0  0  0  0  0  0  0  0  0  0
   39.4330   23.1130   36.3560 C   0  0  0  0  0  0  0  0  0  0  0  0
   40.2540   24.2790   35.7860 C   0  0  0  0  0  2  0  0  0  0  0  0
   39.2560   25.2540   35.2940 N   0  0  0  0  0  0  0  0  0  0  0  0
   38.3370   26.3260   34.9630 C   0  0  0  0  0  0  0  0  0  0  0  0
   38.5060   27.4040   35.6350 O   0  0  0  0  0  0  0  0  0  0  0  0
   37.6380   25.5360   33.9410 C   0  0  2  0  0  3  0  0  0  0  0  0
   38.7140   24.5440   34.1500 C   0  0  2  0  0  3  0  0  0  0  0  0
   38.1850   23.0040   35.0050 S   0  0  0  0  0  0  0  0  0  0  0  0
   40.2830   21.8840   36.4210 C   0  0  0  0  0  2  0  0  0  0  0  0
   41.3140   22.1860   36.6540 H   0  0  0  0  0  0  0  0  0  0  0  0
   38.7770   23.4670   37.6540 C   0  0  0  0  0  2  0  0  0  0  0  0
   37.9200   22.7570   37.7850 H   0  0  0  0  0  0  0  0  0  0  0  0
  1  2  1  0  0  0  0
  1  5  1  0  0  0  0
  2  6  1  6  0  0  0
  2 22  1  0  0  0  0
  3  2  1  0  0  0  0
  3  8  1  0  0  0  0
  4  3  1  0  0  0  0
  4 10  1  0  0  0  0
  4  5  1  0  0  0  0
  5 12  1  0  0  0  0
  7  3  1  0  0  0  0
  9  4  1  0  0  0  0
 11  5  1  0  0  0  0
 13 18  1  0  0  0  0
 13  1  1  0  0  0  0
 14 13  2  0  0  0  0
 15 16  2  0  0  0  0
 15 14  1  0  0  0  0
 16 17  1  0  0  0  0
 17 21  1  0  0  0  0
 17 18  2  0  0  0  0
 19 14  1  0  0  0  0
 20 15  1  0  0  0  0
 22 23  2  0  0  0  0
 24 32  1  0  0  0  0
 24 34  1  0  0  0  0
 25 24  1  0  0  0  0
 26 25  1  0  0  0  0
 27 26  1  0  0  0  0
 27 28  2  0  0  0  0
 29 22  1  6  0  0  0
 29 30  1  0  0  0  0
 29 27  1  0  0  0  0
 30 31  1  1  0  0  0
 30 26  1  0  0  0  0
 31 24  1  0  0  0  0
 32 33  1  0  0  0  0
 34 35  1  0  0  0  0
M  END
>  <minimizedAffinity>
-5.06809616

$$$$

 OpenBabel03272503253D

 35 38  0  0  1  0  0  0  0  0999 V2000
   38.1240   26.6180   33.4010 N   0  0  0  0  0  0  0  0  0  0  0  0
   37.1730   27.2390   34.2550 C   0  0  1  0  0  0  0  0  0  0  0  0
   37.9090   27.5310   35.5320 C   0  0  0  0  0  0  0  0  0  0  0  0
   39.3400   26.9930   35.2690 C   0  0  0  0  0  0  0  0  0  0  0  0
   39.4100   27.1420   33.7800 C   0  0  0  0  0  0  0  0  0  0  0  0
   36.4010   26.4100   34.5720 H   0  0  0  0  0  0  0  0  0  0  0  0
   37.4910   27.0380   36.4280 H   0  0  0  0  0  0  0  0  0  0  0  0
   38.0420   28.6270   35.6790 H   0  0  0  0  0  0  0  0  0  0  0  0
   39.4050   25.9350   35.5450 H   0  0  0  0  0  0  0  0  0  0  0  0
   40.0820   27.6370   35.8020 H   0  0  0  0  0  0  0  0  0  0  0  0
   40.2260   26.4580   33.4320 H   0  0  0  0  0  0  0  0  0  0  0  0
   39.5960   28.1860   33.4700 H   0  0  0  0  0  0  0  0  0  0  0  0
   37.8450   25.6620   32.3910 C   0  0  0  0  0  0  0  0  0  0  0  0
   38.8350   25.3950   31.4310 C   0  0  0  0  0  0  0  0  0  0  0  0
   38.5760   24.4550   30.4260 C   0  0  0  0  0  0  0  0  0  0  0  0
   37.3460   23.8480   30.4530 N   0  0  0  0  0  0  0  0  0  0  0  0
   36.4150   24.1270   31.3920 C   0  0  0  0  0  0  0  0  0  0  0  0
   36.6530   25.0460   32.3830 N   0  0  0  0  0  0  0  0  0  0  0  0
   39.8020   25.8770   31.4150 H   0  0  0  0  0  0  0  0  0  0  0  0
   39.3210   24.2330   29.6780 H   0  0  0  0  0  0  0  0  0  0  0  0
   35.4630   23.6390   31.3920 H   0  0  0  0  0  0  0  0  0  0  0  0
   36.3880   28.3350   33.7120 C   0  0  0  0  0  0  0  0  0  0  0  0
   36.4980   28.6900   32.5720 O   0  0  0  0  0  0  0  0  0  0  0  0
   34.2980   32.8210   35.1290 C   0  0  0  0  0  0  0  0  0  0  0  0
   34.5200   32.4170   33.6640 C   0  0  0  0  0  2  0  0  0  0  0  0
   34.4730   30.9390   33.6560 N   0  0  0  0  0  0  0  0  0  0  0  0
   34.2520   29.5090   33.5510 C   0  0  0  0  0  0  0  0  0  0  0  0
   33.2680   29.1720   32.8040 O   0  0  0  0  0  0  0  0  0  0  0  0
   35.3770   29.1770   34.4350 C   0  0  2  0  0  3  0  0  0  0  0  0
   35.7030   30.6170   34.3550 C   0  0  2  0  0  3  0  0  0  0  0  0
   35.3980   31.5620   35.9020 S   0  0  0  0  0  0  0  0  0  0  0  0
   34.8090   34.2090   35.3490 C   0  0  0  0  0  2  0  0  0  0  0  0
   34.6360   34.7940   34.4350 H   0  0  0  0  0  0  0  0  0  0  0  0
   32.8790   32.6210   35.5600 C   0  0  0  0  0  2  0  0  0  0  0  0
   32.8900   32.5490   36.6780 H   0  0  0  0  0  0  0  0  0  0  0  0
  1  5  1  0  0  0  0
  1  2  1  0  0  0  0
  2  6  1  1  0  0  0
  2  3  1  0  0  0  0
  3  8  1  0  0  0  0
  3  7  1  0  0  0  0
  4  3  1  0  0  0  0
  4  9  1  0  0  0  0
  4 10  1  0  0  0  0
  5  4  1  0  0  0  0
 11  5  1  0  0  0  0
 12  5  1  0  0  0  0
 13  1  1  0  0  0  0
 14 13  2  0  0  0  0
 15 16  2  0  0  0  0
 15 14  1  0  0  0  0
 16 17  1  0  0  0  0
 17 21  1  0  0  0  0
 17 18  2  0  0  0  0
 18 13  1  0  0  0  0
 19 14  1  0  0  0  0
 20 15  1  0  0  0  0
 22  2  1  0  0  0  0
 23 22  2  0  0  0  0
 24 32  1  0  0  0  0
 24 34  1  0  0  0  0
 24 31  1  0  0  0  0
 25 24  1  0  0  0  0
 26 25  1  0  0  0  0
 26 30  1  0  0  0  0
 27 26  1  0  0  0  0
 27 29  1  0  0  0  0
 28 27  2  0  0  0  0
 29 22  1  6  0  0  0
 30 29  1  0  0  0  0
 30 31  1  1  0  0  0
 33 32  1  0  0  0  0
 34 35  1  0  0  0  0
M  END
>  <minimizedAffinity>
-5.05691767

$$$$
