
 OpenBabel03272500223D

 40 44  0  0  1  0  0  0  0  0999 V2000
   35.4350   29.2950   50.4310 C   0  0  0  0  0  0  0  0  0  0  0  0
   36.3640   30.1530   49.7740 C   0  0  0  0  0  0  0  0  0  0  0  0
   36.3340   30.2460   48.3800 C   0  0  0  0  0  0  0  0  0  0  0  0
   35.3910   29.4880   47.7410 N   0  0  0  0  0  0  0  0  0  0  0  0
   34.5410   28.7030   48.3460 C   0  0  0  0  0  0  0  0  0  0  0  0
   34.5460   28.5910   49.6870 N   0  0  0  0  0  0  0  0  0  0  0  0
   35.4450   29.2110   51.5100 H   0  0  0  0  0  0  0  0  0  0  0  0
   32.8230   30.3230   46.4460 Cl  0  0  0  0  0  0  0  0  0  0  0  0
   32.7320   28.5720   46.6350 C   0  0  0  0  0  0  0  0  0  0  0  0
   33.5730   27.9350   47.5390 C   0  0  0  0  0  0  0  0  0  0  0  0
   33.5450   26.5460   47.7320 C   0  0  0  0  0  0  0  0  0  0  0  0
   32.6200   25.8490   46.9570 C   0  0  0  0  0  0  0  0  0  0  0  0
   31.7810   26.4560   46.0600 C   0  0  0  0  0  0  0  0  0  0  0  0
   30.6710   25.4550   45.1560 Cl  0  0  0  0  0  0  0  0  0  0  0  0
   31.8430   27.8340   45.9010 C   0  0  0  0  0  0  0  0  0  0  0  0
   34.2030   26.0540   48.4380 H   0  0  0  0  0  0  0  0  0  0  0  0
   32.5880   24.7770   47.0950 H   0  0  0  0  0  0  0  0  0  0  0  0
   30.9450   28.5110   44.9370 C   0  0  0  0  0  0  0  0  0  0  0  0
   30.0250   27.5890   44.4130 F   0  0  0  0  0  0  0  0  0  0  0  0
   31.6300   29.1060   43.9270 F   0  0  0  0  0  0  0  0  0  0  0  0
   30.2070   29.4710   45.5860 F   0  0  0  0  0  0  0  0  0  0  0  0
   37.3360   30.9180   50.6190 C   0  0  0  0  0  0  0  0  0  0  0  0
   38.6280   30.8090   50.1200 F   0  0  0  0  0  0  0  0  0  0  0  0
   36.9840   32.2540   50.5520 F   0  0  0  0  0  0  0  0  0  0  0  0
   37.3090   30.5460   51.9390 F   0  0  0  0  0  0  0  0  0  0  0  0
   37.2750   31.1260   47.6960 C   0  0  0  0  0  0  0  0  0  0  0  0
   36.7650   32.1040   47.5270 H   0  0  0  0  0  0  0  0  0  0  0  0
   38.2450   31.2560   48.2230 H   0  0  0  0  0  0  0  0  0  0  0  0
   37.2390   30.9210   42.6090 C   0  0  0  0  0  0  0  0  0  0  0  0
   38.5100   30.5470   43.2510 C   0  0  0  0  0  2  0  0  0  0  0  0
   38.5300   30.8390   44.6250 N   0  0  2  0  0  0  0  0  0  0  0  0
   39.0110   30.9860   45.9520 C   0  0  2  0  0  0  0  0  0  0  0  0
   40.1440   31.3730   46.3900 O   0  0  0  0  0  1  0  0  0  0  0  0
   37.6380   30.5030   46.3670 C   0  0  2  0  0  3  0  0  0  0  0  0
   37.2770   31.3200   45.1910 C   0  0  2  0  0  0  0  0  0  0  0  0
   36.0760   30.6550   44.0130 S   0  0  0  0  0  0  0  0  0  0  0  0
   36.8600   30.0420   41.4450 C   0  0  0  0  0  2  0  0  0  0  0  0
   37.0640   28.9990   41.7510 H   0  0  0  0  0  0  0  0  0  0  0  0
   37.2650   32.3950   42.2700 C   0  0  0  0  0  2  0  0  0  0  0  0
   37.1500   32.9370   43.2510 H   0  0  0  0  0  0  0  0  0  0  0  0
  1  7  1  0  0  0  0
  2  1  1  0  0  0  0
  2 22  1  0  0  0  0
  3  2  2  0  0  0  0
  4  5  2  0  0  0  0
  4  3  1  0  0  0  0
  5  6  1  0  0  0  0
  6  1  2  0  0  0  0
  8  9  1  0  0  0  0
  9 10  1  0  0  0  0
 10 11  2  0  0  0  0
 10  5  1  0  0  0  0
 11 16  1  0  0  0  0
 12 17  1  0  0  0  0
 12 11  1  0  0  0  0
 13 12  2  0  0  0  0
 14 13  1  0  0  0  0
 15 13  1  0  0  0  0
 15  9  2  0  0  0  0
 18 21  1  0  0  0  0
 18 15  1  0  0  0  0
 19 18  1  0  0  0  0
 20 18  1  0  0  0  0
 22 25  1  0  0  0  0
 23 22  1  0  0  0  0
 24 22  1  0  0  0  0
 26 28  1  0  0  0  0
 26  3  1  0  0  0  0
 27 26  1  0  0  0  0
 29 30  1  0  0  0  0
 29 36  1  0  0  0  0
 31 30  1  1  0  0  0
 31 35  1  0  0  0  0
 31 32  1  0  0  0  0
 32 34  1  0  0  0  0
 32 33  1  1  0  0  0
 34 26  1  1  0  0  0
 35 36  1  6  0  0  0
 35 32  1  0  0  0  0
 35 34  1  0  0  0  0
 37 38  1  0  0  0  0
 37 29  1  0  0  0  0
 39 29  1  0  0  0  0
 39 40  1  0  0  0  0
M  END
>  <minimizedAffinity>
-6.6553688

>  <minimizedRMSD>
1.21986699

$$$$
