
 OpenBabel03272500573D

 38 41  0  0  1  0  0  0  0  0999 V2000
   38.0980   31.9480   47.4580 C   0  0  0  0  0  0  0  0  0  0  0  0
   38.5180   32.9180   48.3200 C   0  0  0  0  0  0  0  0  0  0  0  0
   38.0200   33.0340   49.6220 C   0  0  0  0  0  0  0  0  0  0  0  0
   37.0220   32.0720   50.0410 C   0  0  0  0  0  0  0  0  0  0  0  0
   36.6480   31.1320   49.1370 C   0  0  0  0  0  0  0  0  0  0  0  0
   37.1320   31.0300   47.8860 C   0  0  0  0  0  0  0  0  0  0  0  0
   39.2770   33.6640   48.0300 H   0  0  0  0  0  0  0  0  0  0  0  0
   38.4030   33.8380   50.2570 H   0  0  0  0  0  0  0  0  0  0  0  0
   36.7390   32.2820   51.0450 H   0  0  0  0  0  0  0  0  0  0  0  0
   35.9330   30.5200   49.6650 H   0  0  0  0  0  0  0  0  0  0  0  0
   39.9880   31.3010   46.0400 C   0  0  0  0  0  0  0  0  0  0  0  0
   38.7230   31.9420   46.1560 C   0  0  0  0  0  0  0  0  0  0  0  0
   38.2490   32.4770   44.9850 C   0  0  0  0  0  0  0  0  0  0  0  0
   38.9540   32.3810   43.8470 N   0  0  0  0  0  0  0  0  0  0  0  0
   40.1210   31.7850   43.7580 C   0  0  0  0  0  0  0  0  0  0  0  0
   40.6300   31.2480   44.8550 N   0  0  0  0  0  0  0  0  0  0  0  0
   40.4510   30.8430   46.9180 H   0  0  0  0  0  0  0  0  0  0  0  0
   37.2940   32.9630   45.0730 H   0  0  0  0  0  0  0  0  0  0  0  0
   40.6390   31.7390   42.8100 H   0  0  0  0  0  0  0  0  0  0  0  0
   35.2430   29.9120   47.0430 C   0  0  0  0  0  0  0  0  0  0  0  0
   34.5610   30.6360   47.8700 O   0  0  0  0  0  0  0  0  0  0  0  0
   36.6830   30.0660   47.0190 N   0  0  0  0  0  0  0  0  0  0  0  0
   37.2910   29.5050   46.4150 H   0  0  0  0  0  0  0  0  0  0  0  0
   34.5810   29.0320   46.2290 O   0  0  0  0  0  0  0  0  0  0  0  0
   33.9060   29.3770   45.0650 C   0  0  0  0  0  0  0  0  0  0  0  0
   34.0350   30.5660   44.5160 O   0  0  0  0  0  0  0  0  0  0  0  0
   30.7990   27.7940   47.3570 C   0  0  0  0  0  0  0  0  0  0  0  0
   30.9380   26.6760   46.3470 C   0  0  0  0  0  2  0  0  0  0  0  0
   31.9970   27.0380   45.4310 N   0  0  0  0  0  0  0  0  0  0  0  0
   33.1790   27.0950   44.6420 C   0  0  0  0  0  0  0  0  0  0  0  0
   34.0890   26.3000   44.3320 O   0  0  0  0  0  0  0  0  0  0  0  0
   32.9940   28.5190   44.2610 C   0  0  1  0  0  3  0  0  0  0  0  0
   31.6320   28.3120   44.7990 C   0  0  2  0  0  3  0  0  0  0  0  0
   31.1760   29.2420   46.2910 S   0  0  0  0  0  0  0  0  0  0  0  0
   31.7370   27.7020   48.5090 C   0  0  0  0  0  2  0  0  0  0  0  0
   32.3190   28.6670   48.5490 H   0  0  0  0  0  0  0  0  0  0  0  0
   29.3390   27.8550   47.7490 C   0  0  0  0  0  2  0  0  0  0  0  0
   29.1030   26.9700   48.3600 H   0  0  0  0  0  0  0  0  0  0  0  0
  1  6  2  0  0  0  0
  1  2  1  0  0  0  0
  2  3  2  0  0  0  0
  3  4  1  0  0  0  0
  3  8  1  0  0  0  0
  4  9  1  0  0  0  0
  5 10  1  0  0  0  0
  5  4  2  0  0  0  0
  6  5  1  0  0  0  0
  7  2  1  0  0  0  0
 11 12  1  0  0  0  0
 11 17  1  0  0  0  0
 12  1  1  0  0  0  0
 13 18  1  0  0  0  0
 13 12  2  0  0  0  0
 14 13  1  0  0  0  0
 15 14  2  0  0  0  0
 15 16  1  0  0  0  0
 16 11  2  0  0  0  0
 19 15  1  0  0  0  0
 20 21  2  0  0  0  0
 22 20  1  0  0  0  0
 22  6  1  0  0  0  0
 23 22  1  0  0  0  0
 24 20  1  0  0  0  0
 25 24  1  0  0  0  0
 26 25  2  0  0  0  0
 27 37  1  0  0  0  0
 27 35  1  0  0  0  0
 28 27  1  0  0  0  0
 29 28  1  0  0  0  0
 30 29  1  0  0  0  0
 31 30  2  0  0  0  0
 32 30  1  0  0  0  0
 32 33  1  0  0  0  0
 32 25  1  1  0  0  0
 33 29  1  0  0  0  0
 33 34  1  1  0  0  0
 34 27  1  0  0  0  0
 35 36  1  0  0  0  0
 37 38  1  0  0  0  0
M  END
>  <minimizedAffinity>
-5.79467869

>  <minimizedRMSD>
1.20012736

$$$$
