
 OpenBabel03272507333D

 39 43  0  0  1  0  0  0  0  0999 V2000
   33.0530   27.6690   47.7820 C   0  0  0  0  0  0  0  0  0  0  0  0
   31.7960   27.8750   47.8610 O   0  0  0  0  0  0  0  0  0  0  0  0
   35.7440   29.1130   49.6430 C   0  0  0  0  0  0  0  0  0  0  0  0
   34.7030   29.4730   50.4670 C   0  0  0  0  0  0  0  0  0  0  0  0
   33.5240   28.9840   49.8890 C   0  0  0  0  0  0  0  0  0  0  0  0
   33.9280   28.3480   48.7350 C   0  0  0  0  0  0  0  0  0  0  0  0
   35.2360   28.4500   48.6330 O   0  0  0  0  0  0  0  0  0  0  0  0
   34.6970   30.0290   51.4030 H   0  0  0  0  0  0  0  0  0  0  0  0
   32.5020   29.0460   50.2050 H   0  0  0  0  0  0  0  0  0  0  0  0
   37.1260   29.4590   49.9390 C   0  0  0  0  0  0  0  0  0  0  0  0
   37.7290   28.8390   50.8260 O   0  0  0  0  0  0  0  0  0  0  0  0
   37.7120   30.5190   49.1660 C   0  0  0  0  0  0  0  0  0  0  0  0
   38.0270   31.6870   49.8370 C   0  0  0  0  0  0  0  0  0  0  0  0
   38.5970   32.7390   49.1150 C   0  0  0  0  0  0  0  0  0  0  0  0
   38.8160   32.5560   47.7680 N   0  0  0  0  0  0  0  0  0  0  0  0
   38.4980   31.4110   47.1540 C   0  0  0  0  0  0  0  0  0  0  0  0
   37.9510   30.3970   47.8400 N   0  0  0  0  0  0  0  0  0  0  0  0
   37.8340   31.7790   50.9010 H   0  0  0  0  0  0  0  0  0  0  0  0
   38.8320   33.6360   49.6650 H   0  0  0  0  0  0  0  0  0  0  0  0
   38.7120   31.3770   46.0980 H   0  0  0  0  0  0  0  0  0  0  0  0
   33.6230   26.7490   46.7450 C   0  0  1  0  0  0  0  0  0  0  0  0
   33.8260   25.3090   47.3570 C   0  0  0  0  0  0  0  0  0  0  0  0
   32.8750   25.5970   46.2550 C   0  0  1  0  0  0  0  0  0  0  0  0
   34.6120   27.0750   46.3670 H   0  0  0  0  0  0  0  0  0  0  0  0
   34.7550   24.7920   47.1380 H   0  0  0  0  0  0  0  0  0  0  0  0
   33.3990   25.1160   48.3380 H   0  0  0  0  0  0  0  0  0  0  0  0
   33.2040   25.2210   45.2420 H   0  0  0  0  0  0  0  0  0  0  0  0
   31.4270   25.3930   46.5150 C   0  0  0  0  0  2  0  0  0  0  0  0
   30.7320   24.7650   45.3210 C   0  0  2  0  0  0  0  0  0  0  0  0
   29.3090   24.4940   45.7200 C   0  0  0  0  0  2  0  0  0  0  0  0
   28.9260   23.1930   45.2680 N   0  0  0  0  0  0  0  0  0  0  0  0
   28.2710   22.0880   44.6500 C   0  0  0  0  0  0  0  0  0  0  0  0
   27.1790   21.8830   44.0550 O   0  0  0  0  0  0  0  0  0  0  0  0
   29.3710   21.1340   44.9400 C   0  0  0  0  0  3  0  0  0  0  0  0
   30.0490   20.8920   44.1110 H   0  0  0  0  0  0  0  0  0  0  0  0
   29.8860   22.2210   45.8150 C   0  0  1  0  0  3  0  0  0  0  0  0
   31.4070   23.0610   45.2160 S   0  0  0  0  0  0  0  0  0  0  0  0
   30.9030   25.5160   44.0520 C   0  0  0  0  0  2  0  0  0  0  0  0
   31.8540   25.2700   43.5480 H   0  0  0  0  0  0  0  0  0  0  0  0
  1  2  2  0  0  0  0
  1  6  1  0  0  0  0
  3 10  1  0  0  0  0
  3  4  2  0  0  0  0
  4  8  1  0  0  0  0
  5  9  1  0  0  0  0
  5  4  1  0  0  0  0
  6  5  2  0  0  0  0
  7  6  1  0  0  0  0
  7  3  1  0  0  0  0
 10 11  2  0  0  0  0
 12 13  1  0  0  0  0
 12 10  1  0  0  0  0
 13 18  1  0  0  0  0
 14 19  1  0  0  0  0
 14 13  2  0  0  0  0
 15 14  1  0  0  0  0
 16 15  2  0  0  0  0
 16 17  1  0  0  0  0
 17 12  2  0  0  0  0
 20 16  1  0  0  0  0
 21 24  1  6  0  0  0
 21 22  1  0  0  0  0
 21  1  1  0  0  0  0
 22 26  1  0  0  0  0
 23 27  1  6  0  0  0
 23 28  1  0  0  0  0
 23 21  1  0  0  0  0
 23 22  1  0  0  0  0
 25 22  1  0  0  0  0
 29 38  1  6  0  0  0
 29 30  1  0  0  0  0
 29 28  1  0  0  0  0
 31 30  1  0  0  0  0
 31 36  1  0  0  0  0
 32 34  1  0  0  0  0
 32 31  1  0  0  0  0
 33 32  2  0  0  0  0
 35 34  1  0  0  0  0
 36 34  1  6  0  0  0
 37 29  1  0  0  0  0
 37 36  1  0  0  0  0
 39 38  1  0  0  0  0
M  END
>  <minimizedAffinity>
-5.37851238

>  <minimizedRMSD>
1.31789351

$$$$
