
 OpenBabel03272500583D

 38 41  0  0  1  0  0  0  0  0999 V2000
   38.1130   31.7730   47.3540 C   0  0  0  0  0  0  0  0  0  0  0  0
   38.7750   32.4000   48.3670 C   0  0  0  0  0  0  0  0  0  0  0  0
   38.3240   32.3740   49.6920 C   0  0  0  0  0  0  0  0  0  0  0  0
   37.1040   31.6420   49.9640 C   0  0  0  0  0  0  0  0  0  0  0  0
   36.4930   31.0400   48.9120 C   0  0  0  0  0  0  0  0  0  0  0  0
   36.9360   31.0730   47.6420 C   0  0  0  0  0  0  0  0  0  0  0  0
   39.7070   32.9640   48.1920 H   0  0  0  0  0  0  0  0  0  0  0  0
   38.9070   32.9000   50.4520 H   0  0  0  0  0  0  0  0  0  0  0  0
   36.8850   31.7080   51.0030 H   0  0  0  0  0  0  0  0  0  0  0  0
   35.6400   30.5420   49.3450 H   0  0  0  0  0  0  0  0  0  0  0  0
   39.9560   31.2000   45.8450 C   0  0  0  0  0  0  0  0  0  0  0  0
   38.7170   31.8700   46.0460 C   0  0  0  0  0  0  0  0  0  0  0  0
   38.2440   32.5310   44.9400 C   0  0  0  0  0  0  0  0  0  0  0  0
   38.9260   32.5200   43.7850 N   0  0  0  0  0  0  0  0  0  0  0  0
   40.0690   31.8950   43.6170 C   0  0  0  0  0  0  0  0  0  0  0  0
   40.5770   31.2390   44.6480 N   0  0  0  0  0  0  0  0  0  0  0  0
   40.4160   30.6450   46.6660 H   0  0  0  0  0  0  0  0  0  0  0  0
   37.3080   33.0380   45.0920 H   0  0  0  0  0  0  0  0  0  0  0  0
   40.5700   31.9230   42.6590 H   0  0  0  0  0  0  0  0  0  0  0  0
   34.8710   30.1660   46.9730 C   0  0  0  0  0  0  0  0  0  0  0  0
   34.4630   30.4610   48.1650 O   0  0  0  0  0  0  0  0  0  0  0  0
   36.2470   30.4600   46.6260 N   0  0  0  0  0  0  0  0  0  0  0  0
   36.6510   30.2260   45.7140 H   0  0  0  0  0  0  0  0  0  0  0  0
   33.9940   29.5900   46.0940 O   0  0  0  0  0  0  0  0  0  0  0  0
   32.8510   30.2000   45.5940 C   0  0  0  0  0  0  0  0  0  0  0  0
   32.3870   31.3230   46.1010 O   0  0  0  0  0  0  0  0  0  0  0  0
   32.7160   33.0150   42.5170 C   0  0  0  0  0  0  0  0  0  0  0  0
   31.3480   32.3980   42.3300 C   0  0  0  0  0  2  0  0  0  0  0  0
   31.1880   31.3670   43.3300 N   0  0  0  0  0  0  0  0  0  0  0  0
   30.7570   30.5450   44.4080 C   0  0  0  0  0  0  0  0  0  0  0  0
   29.7300   30.4560   45.1110 O   0  0  0  0  0  0  0  0  0  0  0  0
   32.0100   29.7470   44.4540 C   0  0  1  0  0  3  0  0  0  0  0  0
   32.2670   30.3880   43.1450 C   0  0  2  0  0  3  0  0  0  0  0  0
   33.6710   31.5330   43.0390 S   0  0  0  0  0  0  0  0  0  0  0  0
   32.7720   34.0930   43.5400 C   0  0  0  0  0  2  0  0  0  0  0  0
   33.5580   33.8030   44.2950 H   0  0  0  0  0  0  0  0  0  0  0  0
   33.2010   33.4350   41.1460 C   0  0  0  0  0  2  0  0  0  0  0  0
   32.6080   34.3030   40.8160 H   0  0  0  0  0  0  0  0  0  0  0  0
  1  6  2  0  0  0  0
  1  2  1  0  0  0  0
  2  3  2  0  0  0  0
  3  4  1  0  0  0  0
  3  8  1  0  0  0  0
  4  9  1  0  0  0  0
  5 10  1  0  0  0  0
  5  4  2  0  0  0  0
  6  5  1  0  0  0  0
  7  2  1  0  0  0  0
 11 12  1  0  0  0  0
 11 17  1  0  0  0  0
 12  1  1  0  0  0  0
 13 18  1  0  0  0  0
 13 12  2  0  0  0  0
 14 13  1  0  0  0  0
 15 14  2  0  0  0  0
 15 16  1  0  0  0  0
 16 11  2  0  0  0  0
 19 15  1  0  0  0  0
 20 21  2  0  0  0  0
 22 20  1  0  0  0  0
 22  6  1  0  0  0  0
 23 22  1  0  0  0  0
 24 20  1  0  0  0  0
 25 24  1  0  0  0  0
 25 26  2  0  0  0  0
 27 34  1  0  0  0  0
 27 35  1  0  0  0  0
 28 27  1  0  0  0  0
 28 29  1  0  0  0  0
 29 30  1  0  0  0  0
 30 32  1  0  0  0  0
 30 31  2  0  0  0  0
 32 25  1  1  0  0  0
 33 34  1  1  0  0  0
 33 29  1  0  0  0  0
 33 32  1  0  0  0  0
 35 36  1  0  0  0  0
 37 27  1  0  0  0  0
 38 37  1  0  0  0  0
M  END
>  <minimizedAffinity>
-6.10085964

>  <minimizedRMSD>
1.34272444

$$$$
