
 OpenBabel03262521173D

 32 34  0  0  1  0  0  0  0  0999 V2000
   39.0350   32.4320   46.4320 C   0  0  0  0  0  0  0  0  0  0  0  0
   40.2490   32.8910   45.9070 C   0  0  0  0  0  0  0  0  0  0  0  0
   40.3270   33.1670   44.5450 C   0  0  0  0  0  0  0  0  0  0  0  0
   39.2030   32.9720   43.7890 N   0  0  0  0  0  0  0  0  0  0  0  0
   38.0350   32.5220   44.3370 C   0  0  0  0  0  0  0  0  0  0  0  0
   37.9780   32.2650   45.6300 N   0  0  0  0  0  0  0  0  0  0  0  0
   41.1640   33.0630   46.4550 H   0  0  0  0  0  0  0  0  0  0  0  0
   41.2440   33.5250   44.0910 H   0  0  0  0  0  0  0  0  0  0  0  0
   39.1100   32.2010   47.7970 O   0  0  0  0  0  0  0  0  0  0  0  0
   37.9200   32.1910   48.4940 C   0  0  0  0  0  0  0  0  0  0  0  0
   37.9700   33.0340   49.2420 H   0  0  0  0  0  0  0  0  0  0  0  0
   37.0190   32.4240   47.8880 H   0  0  0  0  0  0  0  0  0  0  0  0
   37.9830   30.9530   49.0120 C   0  0  0  0  0  0  0  0  0  0  0  0
   37.0750   30.3490   48.7080 H   0  0  0  0  0  0  0  0  0  0  0  0
   38.7930   30.3010   48.5840 H   0  0  0  0  0  0  0  0  0  0  0  0
   38.1070   30.8200   50.4930 C   0  0  0  0  0  0  0  0  0  0  0  0
   37.8680   31.8090   50.9440 H   0  0  0  0  0  0  0  0  0  0  0  0
   39.1330   30.5850   50.8410 H   0  0  0  0  0  0  0  0  0  0  0  0
   36.9400   29.6400   51.1790 S   0  0  0  0  0  0  0  0  0  0  0  0
   36.6110   29.8970   52.5260 H   0  0  0  0  0  0  0  0  0  0  0  0
   36.8260   32.3160   43.4960 C   0  0  0  0  0  2  0  0  0  0  0  0
   36.6580   30.8340   43.3170 C   0  0  2  0  0  0  0  0  0  0  0  0
   35.6670   30.4560   42.2470 C   0  0  0  0  0  2  0  0  0  0  0  0
   34.3460   30.5770   42.7740 N   0  0  0  0  0  0  0  0  0  0  0  0
   32.9820   30.9700   42.9190 C   0  0  0  0  0  0  0  0  0  0  0  0
   32.0250   31.3310   42.1790 O   0  0  0  0  0  0  0  0  0  0  0  0
   33.1410   30.7740   44.3840 C   0  0  0  0  0  3  0  0  0  0  0  0
   33.5480   31.6970   44.8430 H   0  0  0  0  0  0  0  0  0  0  0  0
   34.2120   29.8180   43.9800 C   0  0  2  0  0  3  0  0  0  0  0  0
   35.8330   30.1360   44.7780 S   0  0  0  0  0  0  0  0  0  0  0  0
   38.0060   30.2120   43.0880 C   0  0  0  0  0  2  0  0  0  0  0  0
   38.0650   29.6110   42.1410 H   0  0  0  0  0  0  0  0  0  0  0  0
  1  9  1  0  0  0  0
  2  1  1  0  0  0  0
  2  7  1  0  0  0  0
  3  2  2  0  0  0  0
  4  5  2  0  0  0  0
  4  3  1  0  0  0  0
  5  6  1  0  0  0  0
  6  1  2  0  0  0  0
  8  3  1  0  0  0  0
  9 10  1  0  0  0  0
 10 13  1  0  0  0  0
 10 11  1  0  0  0  0
 12 10  1  0  0  0  0
 13 16  1  0  0  0  0
 14 13  1  0  0  0  0
 15 13  1  0  0  0  0
 16 18  1  0  0  0  0
 16 17  1  0  0  0  0
 16 19  1  0  0  0  0
 19 20  1  0  0  0  0
 21  5  1  0  0  0  0
 22 31  1  6  0  0  0
 22 21  1  0  0  0  0
 22 30  1  0  0  0  0
 23 24  1  0  0  0  0
 23 22  1  0  0  0  0
 24 25  1  0  0  0  0
 24 29  1  0  0  0  0
 25 27  1  0  0  0  0
 26 25  2  0  0  0  0
 27 28  1  0  0  0  0
 29 27  1  1  0  0  0
 29 30  1  0  0  0  0
 32 31  1  0  0  0  0
M  END
>  <minimizedAffinity>
-4.34894943

>  <minimizedRMSD>
0.835150599

$$$$
