
 OpenBabel03262521013D

 40 43  0  0  1  0  0  0  0  0999 V2000
   36.6650   29.9030   50.8730 C   0  0  0  0  0  0  0  0  0  0  0  0
   37.4510   30.8380   50.2360 C   0  0  0  0  0  0  0  0  0  0  0  0
   37.2930   31.0110   48.8780 C   0  0  0  0  0  0  0  0  0  0  0  0
   36.3490   30.2370   48.2180 N   0  0  0  0  0  0  0  0  0  0  0  0
   35.6260   29.3560   48.9010 C   0  0  0  0  0  0  0  0  0  0  0  0
   35.7590   29.1670   50.2110 N   0  0  0  0  0  0  0  0  0  0  0  0
   36.8040   29.7780   51.9560 H   0  0  0  0  0  0  0  0  0  0  0  0
   38.1970   31.4530   50.7380 H   0  0  0  0  0  0  0  0  0  0  0  0
   34.6350   28.5560   48.1780 C   0  0  0  0  0  0  0  0  0  0  0  0
   34.4380   27.3400   48.3710 O   0  0  0  0  0  0  0  0  0  0  0  0
   30.8740   26.6660   47.0550 C   0  0  0  0  0  0  0  0  0  0  0  0
   31.1120   27.5220   45.8330 C   0  0  0  0  0  0  0  0  0  0  0  0
   32.4230   28.1300   45.9700 N   0  0  0  0  0  0  0  0  0  0  0  0
   33.7850   28.5520   45.8220 C   0  0  0  0  0  0  0  0  0  0  0  0
   34.6600   28.4160   44.9020 O   0  0  0  0  0  0  0  0  0  0  0  0
   33.7990   29.2080   47.1480 C   0  0  1  0  0  0  0  0  0  0  0  0
   32.3370   28.9680   47.1780 C   0  0  2  0  0  0  0  0  0  0  0  0
   31.7600   27.6570   48.3230 S   0  0  0  0  0  0  0  0  0  0  0  0
   31.3990   25.2740   46.9470 C   0  0  0  0  0  0  0  0  0  0  0  0
   32.3040   25.0670   47.5650 H   0  0  0  0  0  0  0  0  0  0  0  0
   29.3880   26.6690   47.3230 C   0  0  0  0  0  0  0  0  0  0  0  0
   28.9100   26.2720   46.3860 H   0  0  0  0  0  0  0  0  0  0  0  0
   38.2220   32.1730   47.8940 S   0  0  0  0  0  0  0  0  0  0  0  0
   38.3450   32.8730   45.2650 N   0  0  0  0  0  0  0  0  0  0  0  0
   38.0540   31.7450   46.1160 C   0  0  1  0  0  0  0  0  0  0  0  0
   39.0210   30.6260   45.8560 C   0  0  0  0  0  0  0  0  0  0  0  0
   40.3530   31.1390   46.1280 N   0  0  0  0  0  0  0  0  0  0  0  0
   40.6120   32.1080   45.0440 C   0  0  0  0  0  0  0  0  0  0  0  0
   39.7090   33.2880   45.3230 C   0  0  2  0  0  0  0  0  0  0  0  0
   38.1320   32.5750   44.3060 H   0  0  0  0  0  0  0  0  0  0  0  0
   37.0310   31.4220   45.8860 H   0  0  0  0  0  0  0  0  0  0  0  0
   38.7520   29.7940   46.5670 H   0  0  0  0  0  0  0  0  0  0  0  0
   38.9770   30.3020   44.8080 H   0  0  0  0  0  0  0  0  0  0  0  0
   40.3230   31.7400   46.9980 H   0  0  0  0  0  0  0  0  0  0  0  0
   40.3310   31.6210   44.0970 H   0  0  0  0  0  0  0  0  0  0  0  0
   41.6740   32.3680   45.0740 H   0  0  0  0  0  0  0  0  0  0  0  0
   39.8630   34.0220   44.4900 H   0  0  0  0  0  0  0  0  0  0  0  0
   40.0730   33.8740   46.5930 N   0  0  0  0  0  0  0  0  0  0  0  0
   39.4370   34.7050   46.7250 H   0  0  0  0  0  0  0  0  0  0  0  0
   41.0260   34.2820   46.5070 H   0  0  0  0  0  0  0  0  0  0  0  0
  1  7  1  0  0  0  0
  2  8  1  0  0  0  0
  2  1  1  0  0  0  0
  3  2  2  0  0  0  0
  4  3  1  0  0  0  0
  4  5  2  0  0  0  0
  5  6  1  0  0  0  0
  6  1  2  0  0  0  0
  9 10  2  0  0  0  0
  9  5  1  0  0  0  0
 11 21  1  0  0  0  0
 11 18  1  0  0  0  0
 12 13  1  0  0  0  0
 12 11  1  0  0  0  0
 13 17  1  0  0  0  0
 14 13  1  0  0  0  0
 14 16  1  0  0  0  0
 15 14  2  0  0  0  0
 16 17  1  0  0  0  0
 16  9  1  1  0  0  0
 17 18  1  1  0  0  0
 19 11  1  0  0  0  0
 19 20  1  0  0  0  0
 22 21  1  0  0  0  0
 23  3  1  0  0  0  0
 24 29  1  0  0  0  0
 24 25  1  0  0  0  0
 25 31  1  6  0  0  0
 25 23  1  0  0  0  0
 26 25  1  0  0  0  0
 26 27  1  0  0  0  0
 26 32  1  0  0  0  0
 27 34  1  0  0  0  0
 28 36  1  0  0  0  0
 28 29  1  0  0  0  0
 28 27  1  0  0  0  0
 29 37  1  6  0  0  0
 29 38  1  0  0  0  0
 30 24  1  0  0  0  0
 33 26  1  0  0  0  0
 35 28  1  0  0  0  0
 38 39  1  0  0  0  0
 40 38  1  0  0  0  0
M  END
>  <minimizedAffinity>
-6.45717239

>  <minimizedRMSD>
3.26156425

$$$$
