
 OpenBabel03272501303D

 23 25  0  0  1  0  0  0  0  0999 V2000
   40.1190   32.7390   44.4640 C   0  0  0  0  0  0  0  0  0  0  0  0
   39.6290   31.9130   43.3250 C   0  0  0  0  0  2  0  0  0  0  0  0
   38.4750   31.1760   43.7420 N   0  0  0  0  0  0  0  0  0  0  0  0
   37.5880   30.0890   43.9550 C   0  0  0  0  0  0  0  0  0  0  0  0
   37.3580   28.9110   43.5140 O   0  0  0  0  0  0  0  0  0  0  0  0
   36.8830   30.8450   45.0240 C   0  0  2  0  0  3  0  0  0  0  0  0
   37.5280   32.0240   44.3840 C   0  0  1  0  0  3  0  0  0  0  0  0
   38.6240   32.9820   45.5010 S   0  0  0  0  0  0  0  0  0  0  0  0
   37.4550   30.4010   46.3360 C   0  0  0  0  0  0  0  0  0  0  0  0
   38.6390   30.0150   46.4130 O   0  0  0  0  0  0  0  0  0  0  0  0
   36.1230   30.8400   49.8090 C   0  0  0  0  0  0  0  0  0  0  0  0
   37.0290   30.8060   48.7420 C   0  0  0  0  0  0  0  0  0  0  0  0
   36.5540   30.4500   47.4770 C   0  0  0  0  0  0  0  0  0  0  0  0
   35.2180   30.1590   47.3690 N   0  0  0  0  0  0  0  0  0  0  0  0
   34.3880   30.2040   48.4140 C   0  0  0  0  0  0  0  0  0  0  0  0
   34.8240   30.5390   49.6280 N   0  0  0  0  0  0  0  0  0  0  0  0
   36.4420   31.1060   50.7980 H   0  0  0  0  0  0  0  0  0  0  0  0
   38.0750   31.0460   48.8830 H   0  0  0  0  0  0  0  0  0  0  0  0
   33.3400   29.9690   48.3050 H   0  0  0  0  0  0  0  0  0  0  0  0
   41.2790   32.2030   45.2190 C   0  0  0  0  0  2  0  0  0  0  0  0
   41.9190   33.0720   45.5440 H   0  0  0  0  0  0  0  0  0  0  0  0
   40.3890   34.1350   43.8820 C   0  0  0  0  0  2  0  0  0  0  0  0
   39.5910   34.3250   43.1130 H   0  0  0  0  0  0  0  0  0  0  0  0
  1 20  1  0  0  0  0
  1  8  1  0  0  0  0
  2  3  1  0  0  0  0
  2  1  1  0  0  0  0
  3  4  1  0  0  0  0
  3  7  1  0  0  0  0
  4  6  1  0  0  0  0
  5  4  2  0  0  0  0
  6  9  1  1  0  0  0
  7  6  1  0  0  0  0
  7  8  1  1  0  0  0
  9 10  2  0  0  0  0
  9 13  1  0  0  0  0
 11 17  1  0  0  0  0
 12 18  1  0  0  0  0
 12 11  2  0  0  0  0
 13 12  1  0  0  0  0
 14 13  2  0  0  0  0
 14 15  1  0  0  0  0
 15 16  2  0  0  0  0
 16 11  1  0  0  0  0
 19 15  1  0  0  0  0
 20 21  1  0  0  0  0
 22  1  1  0  0  0  0
 23 22  1  0  0  0  0
M  END
>  <minimizedAffinity>
-3.37515903

>  <minimizedRMSD>
2.17599249

$$$$
