
 OpenBabel03272500583D

 38 41  0  0  1  0  0  0  0  0999 V2000
   38.0850   31.8630   47.4200 C   0  0  0  0  0  0  0  0  0  0  0  0
   38.5720   32.6870   48.3910 C   0  0  0  0  0  0  0  0  0  0  0  0
   38.0690   32.6900   49.6970 C   0  0  0  0  0  0  0  0  0  0  0  0
   36.9890   31.7710   49.9950 C   0  0  0  0  0  0  0  0  0  0  0  0
   36.5510   30.9780   48.9850 C   0  0  0  0  0  0  0  0  0  0  0  0
   37.0420   30.9850   47.7320 C   0  0  0  0  0  0  0  0  0  0  0  0
   39.3940   33.3960   48.1940 H   0  0  0  0  0  0  0  0  0  0  0  0
   38.5080   33.3790   50.4240 H   0  0  0  0  0  0  0  0  0  0  0  0
   36.7120   31.8840   51.0170 H   0  0  0  0  0  0  0  0  0  0  0  0
   35.7820   30.3700   49.4340 H   0  0  0  0  0  0  0  0  0  0  0  0
   39.9660   31.2830   45.9600 C   0  0  0  0  0  0  0  0  0  0  0  0
   38.7250   31.9580   46.1280 C   0  0  0  0  0  0  0  0  0  0  0  0
   38.2860   32.6230   45.0110 C   0  0  0  0  0  0  0  0  0  0  0  0
   39.0000   32.6090   43.8740 N   0  0  0  0  0  0  0  0  0  0  0  0
   40.1440   31.9790   43.7370 C   0  0  0  0  0  0  0  0  0  0  0  0
   40.6200   31.3190   44.7810 N   0  0  0  0  0  0  0  0  0  0  0  0
   40.4000   30.7240   46.7930 H   0  0  0  0  0  0  0  0  0  0  0  0
   37.3490   33.1340   45.1380 H   0  0  0  0  0  0  0  0  0  0  0  0
   40.6710   32.0050   42.7930 H   0  0  0  0  0  0  0  0  0  0  0  0
   35.0830   30.0650   46.8120 C   0  0  0  0  0  0  0  0  0  0  0  0
   34.4580   30.6870   47.7590 O   0  0  0  0  0  0  0  0  0  0  0  0
   36.5270   30.1700   46.7560 N   0  0  0  0  0  0  0  0  0  0  0  0
   37.0920   29.6800   46.0560 H   0  0  0  0  0  0  0  0  0  0  0  0
   34.3600   29.3330   45.9080 O   0  0  0  0  0  0  0  0  0  0  0  0
   33.2820   29.8130   45.1760 C   0  0  0  0  0  0  0  0  0  0  0  0
   33.2530   31.0450   44.7130 O   0  0  0  0  0  0  0  0  0  0  0  0
   30.4470   32.2930   43.3790 C   0  0  0  0  0  0  0  0  0  0  0  0
   29.5100   31.2890   44.0150 C   0  0  0  0  0  2  0  0  0  0  0  0
   30.3170   30.3110   44.7110 N   0  0  0  0  0  0  0  0  0  0  0  0
   30.9280   29.4570   45.6710 C   0  0  0  0  0  0  0  0  0  0  0  0
   30.6810   29.1050   46.8420 O   0  0  0  0  0  0  0  0  0  0  0  0
   32.0550   29.0710   44.7820 C   0  0  1  0  0  3  0  0  0  0  0  0
   31.2160   29.6880   43.7300 C   0  0  2  0  0  3  0  0  0  0  0  0
   31.8500   31.1920   42.9350 S   0  0  0  0  0  0  0  0  0  0  0  0
   30.8780   33.3920   44.2850 C   0  0  0  0  0  2  0  0  0  0  0  0
   32.0060   33.3890   44.3080 H   0  0  0  0  0  0  0  0  0  0  0  0
   29.7870   32.7640   42.1030 C   0  0  0  0  0  2  0  0  0  0  0  0
   28.9250   33.3980   42.3670 H   0  0  0  0  0  0  0  0  0  0  0  0
  1  6  2  0  0  0  0
  1  2  1  0  0  0  0
  2  3  2  0  0  0  0
  3  4  1  0  0  0  0
  3  8  1  0  0  0  0
  4  9  1  0  0  0  0
  5 10  1  0  0  0  0
  5  4  2  0  0  0  0
  6  5  1  0  0  0  0
  7  2  1  0  0  0  0
 11 12  1  0  0  0  0
 11 17  1  0  0  0  0
 12  1  1  0  0  0  0
 13 18  1  0  0  0  0
 13 12  2  0  0  0  0
 14 13  1  0  0  0  0
 15 14  2  0  0  0  0
 15 16  1  0  0  0  0
 16 11  2  0  0  0  0
 19 15  1  0  0  0  0
 20 21  2  0  0  0  0
 22 20  1  0  0  0  0
 22  6  1  0  0  0  0
 23 22  1  0  0  0  0
 24 20  1  0  0  0  0
 25 24  1  0  0  0  0
 26 25  2  0  0  0  0
 27 28  1  0  0  0  0
 27 35  1  0  0  0  0
 28 29  1  0  0  0  0
 29 30  1  0  0  0  0
 30 31  2  0  0  0  0
 32 25  1  1  0  0  0
 32 30  1  0  0  0  0
 33 34  1  1  0  0  0
 33 29  1  0  0  0  0
 33 32  1  0  0  0  0
 34 27  1  0  0  0  0
 35 36  1  0  0  0  0
 37 38  1  0  0  0  0
 37 27  1  0  0  0  0
M  END
>  <minimizedAffinity>
-5.75222635

>  <minimizedRMSD>
0.360709667

$$$$
