
 OpenBabel03272507123D

 43 48  0  0  1  0  0  0  0  0999 V2000
   37.0940   29.7510   50.2610 C   0  0  0  0  0  0  0  0  0  0  0  0
   37.6820   29.2110   51.2360 O   0  0  0  0  0  0  0  0  0  0  0  0
   37.6680   30.8010   49.4630 C   0  0  0  0  0  0  0  0  0  0  0  0
   37.4940   32.1050   49.8990 C   0  0  0  0  0  0  0  0  0  0  0  0
   38.0320   33.1530   49.1590 C   0  0  0  0  0  0  0  0  0  0  0  0
   38.7130   32.8140   48.0230 N   0  0  0  0  0  0  0  0  0  0  0  0
   38.8740   31.5550   47.6120 C   0  0  0  0  0  0  0  0  0  0  0  0
   38.3470   30.5600   48.3420 N   0  0  0  0  0  0  0  0  0  0  0  0
   36.9460   32.3320   50.8090 H   0  0  0  0  0  0  0  0  0  0  0  0
   37.9380   34.1930   49.4350 H   0  0  0  0  0  0  0  0  0  0  0  0
   39.6160   31.2220   46.3800 C   0  0  0  0  0  2  0  0  0  0  0  0
   38.7140   31.4960   45.1960 C   0  0  2  0  0  0  0  0  0  0  0  0
   37.3100   31.1510   45.5800 C   0  0  0  0  0  2  0  0  0  0  0  0
   36.6390   30.6690   44.3910 N   0  0  0  0  0  0  0  0  0  0  0  0
   35.6910   30.5000   43.3160 C   0  0  0  0  0  0  0  0  0  0  0  0
   34.4600   30.7920   43.1700 O   0  0  0  0  0  0  0  0  0  0  0  0
   36.7330   29.8490   42.4500 C   0  0  0  0  0  3  0  0  0  0  0  0
   37.3000   30.5440   41.7970 H   0  0  0  0  0  0  0  0  0  0  0  0
   37.3790   29.5770   43.7830 C   0  0  1  0  0  3  0  0  0  0  0  0
   39.0680   30.2310   43.9410 S   0  0  0  0  0  0  0  0  0  0  0  0
   38.8880   32.8800   44.6720 C   0  0  0  0  0  2  0  0  0  0  0  0
   38.1900   33.0930   43.8630 H   0  0  0  0  0  0  0  0  0  0  0  0
   35.7560   29.2950   49.9110 C   0  0  0  0  0  0  0  0  0  0  0  0
   34.6460   29.7850   50.5040 C   0  0  0  0  0  0  0  0  0  0  0  0
   33.5550   29.1310   49.9300 C   0  0  0  0  0  0  0  0  0  0  0  0
   34.0960   28.2500   48.9860 C   0  0  0  0  0  0  0  0  0  0  0  0
   35.3860   28.3990   49.0290 O   0  0  0  0  0  0  0  0  0  0  0  0
   34.5770   30.5420   51.2800 H   0  0  0  0  0  0  0  0  0  0  0  0
   32.5400   29.3360   50.2250 H   0  0  0  0  0  0  0  0  0  0  0  0
   33.7890   26.4130   47.3410 C   0  0  0  0  0  0  0  0  0  0  0  0
   33.2500   27.3840   48.1760 C   0  0  0  0  0  0  0  0  0  0  0  0
   31.8860   27.5630   48.2680 C   0  0  0  0  0  0  0  0  0  0  0  0
   31.0770   26.7500   47.5080 C   0  0  0  0  0  0  0  0  0  0  0  0
   29.7330   26.7130   47.4110 N   0  0  0  0  0  0  0  0  0  0  0  0
   29.4160   25.7520   46.5440 N   0  0  0  0  0  0  0  0  0  0  0  0
   30.5640   25.1880   46.0990 C   0  0  0  0  0  0  0  0  0  0  0  0
   31.6440   25.7960   46.6890 C   0  0  0  0  0  0  0  0  0  0  0  0
   33.0050   25.6040   46.5850 C   0  0  0  0  0  0  0  0  0  0  0  0
   34.8780   26.2970   47.2910 H   0  0  0  0  0  0  0  0  0  0  0  0
   31.4000   28.3110   48.9070 H   0  0  0  0  0  0  0  0  0  0  0  0
   28.9990   27.2890   47.8870 H   0  0  0  0  0  0  0  0  0  0  0  0
   30.5880   24.3780   45.3830 H   0  0  0  0  0  0  0  0  0  0  0  0
   33.3950   24.8470   45.9330 H   0  0  0  0  0  0  0  0  0  0  0  0
  1  2  2  0  0  0  0
  3  4  1  0  0  0  0
  3  1  1  0  0  0  0
  4  9  1  0  0  0  0
  5 10  1  0  0  0  0
  5  4  2  0  0  0  0
  6  5  1  0  0  0  0
  7  6  2  0  0  0  0
  7  8  1  0  0  0  0
  8  3  2  0  0  0  0
 11  7  1  0  0  0  0
 12 21  1  6  0  0  0
 12 13  1  0  0  0  0
 12 11  1  0  0  0  0
 14 13  1  0  0  0  0
 15 14  1  0  0  0  0
 16 15  2  0  0  0  0
 17 15  1  0  0  0  0
 18 17  1  0  0  0  0
 19 17  1  6  0  0  0
 19 20  1  0  0  0  0
 19 14  1  0  0  0  0
 20 12  1  0  0  0  0
 22 21  1  0  0  0  0
 23  1  1  0  0  0  0
 23 24  2  0  0  0  0
 24 28  1  0  0  0  0
 25 29  1  0  0  0  0
 25 24  1  0  0  0  0
 26 27  1  0  0  0  0
 26 25  2  0  0  0  0
 27 23  1  0  0  0  0
 30 31  1  0  0  0  0
 31 32  2  0  0  0  0
 31 26  1  0  0  0  0
 32 40  1  0  0  0  0
 33 32  1  0  0  0  0
 34 33  1  0  0  0  0
 34 41  1  0  0  0  0
 35 34  1  0  0  0  0
 36 35  2  0  0  0  0
 36 37  1  0  0  0  0
 37 33  2  0  0  0  0
 38 37  1  0  0  0  0
 38 30  2  0  0  0  0
 39 30  1  0  0  0  0
 42 36  1  0  0  0  0
 43 38  1  0  0  0  0
M  END
>  <minimizedAffinity>
-6.78998423

>  <minimizedRMSD>
1.20159125

$$$$
