
 OpenBabel03272505163D

 45 50  0  0  1  0  0  0  0  0999 V2000
   38.3650   31.6060   44.4080 N   0  0  0  0  0  0  0  0  0  0  0  0
   38.8930   32.9260   44.7020 C   0  0  0  0  0  0  0  0  0  0  0  0
   39.9300   33.2100   43.6280 C   0  0  0  0  0  0  0  0  0  0  0  0
   39.2880   33.0160   42.3750 N   0  0  0  0  0  0  0  0  0  0  0  0
   38.9700   31.6510   42.1170 C   0  0  0  0  0  0  0  0  0  0  0  0
   39.0370   30.8210   43.3820 C   0  0  2  0  0  0  0  0  0  0  0  0
   39.3600   32.9720   45.6880 H   0  0  0  0  0  0  0  0  0  0  0  0
   38.0890   33.6830   44.6090 H   0  0  0  0  0  0  0  0  0  0  0  0
   40.1400   34.3030   43.7200 H   0  0  0  0  0  0  0  0  0  0  0  0
   40.8750   32.6990   43.7840 H   0  0  0  0  0  0  0  0  0  0  0  0
   39.8320   33.5030   41.6390 H   0  0  0  0  0  0  0  0  0  0  0  0
   37.9100   31.6220   41.7860 H   0  0  0  0  0  0  0  0  0  0  0  0
   39.6930   31.3060   41.3530 H   0  0  0  0  0  0  0  0  0  0  0  0
   40.1030   30.7420   43.6740 H   0  0  0  0  0  0  0  0  0  0  0  0
   38.6370   31.2260   47.3250 Cl  0  0  0  0  0  0  0  0  0  0  0  0
   37.2260   30.7620   46.4170 C   0  0  0  0  0  0  0  0  0  0  0  0
   36.1800   30.1940   47.0570 C   0  0  0  0  0  0  0  0  0  0  0  0
   35.0840   29.8820   46.2550 C   0  0  0  0  0  0  0  0  0  0  0  0
   35.0000   30.1030   44.9150 C   0  0  0  0  0  0  0  0  0  0  0  0
   36.0950   30.6840   44.3070 C   0  0  0  0  0  0  0  0  0  0  0  0
   37.2210   31.0190   45.0600 C   0  0  0  0  0  0  0  0  0  0  0  0
   34.2160   29.4210   46.7330 H   0  0  0  0  0  0  0  0  0  0  0  0
   34.1290   29.8460   44.3300 H   0  0  0  0  0  0  0  0  0  0  0  0
   36.1440   30.9080   43.2500 H   0  0  0  0  0  0  0  0  0  0  0  0
   37.4580   29.7930   50.5670 C   0  0  0  0  0  0  0  0  0  0  0  0
   37.4410   30.0260   49.1840 C   0  0  0  0  0  0  0  0  0  0  0  0
   36.2330   29.9460   48.4760 C   0  0  0  0  0  0  0  0  0  0  0  0
   35.1070   29.6330   49.1910 N   0  0  0  0  0  0  0  0  0  0  0  0
   35.1420   29.4110   50.5160 C   0  0  0  0  0  0  0  0  0  0  0  0
   36.3090   29.4880   51.2130 N   0  0  0  0  0  0  0  0  0  0  0  0
   38.3360   29.8330   51.1940 H   0  0  0  0  0  0  0  0  0  0  0  0
   38.4330   30.2190   48.8350 H   0  0  0  0  0  0  0  0  0  0  0  0
   34.1550   29.1800   50.8920 H   0  0  0  0  0  0  0  0  0  0  0  0
   38.4590   29.4720   43.2730 C   0  0  0  0  0  2  0  0  0  0  0  0
   39.2150   28.4380   42.5300 C   0  0  2  0  0  0  0  0  0  0  0  0
   40.6770   28.6280   42.4000 C   0  0  0  0  0  2  0  0  0  0  0  0
   40.9970   29.0140   41.0510 N   0  0  1  0  0  0  0  0  0  0  0  0
   41.4980   29.6640   39.8890 C   0  0  2  0  0  0  0  0  0  0  0  0
   42.4100   30.5260   39.6630 O   0  0  0  0  0  1  0  0  0  0  0  0
   40.5510   28.9680   38.9590 C   0  0  0  0  0  3  0  0  0  0  0  0
   39.6850   29.5580   38.6480 H   0  0  0  0  0  0  0  0  0  0  0  0
   40.3640   28.0770   40.1410 C   0  0  1  0  0  0  0  0  0  0  0  0
   38.6640   28.1270   40.8430 S   0  0  0  0  0  0  0  0  0  0  0  0
   38.9820   27.1340   43.2790 C   0  0  0  0  0  2  0  0  0  0  0  0
   39.3310   26.2800   42.6930 H   0  0  0  0  0  0  0  0  0  0  0  0
  1  2  1  0  0  0  0
  1 21  1  0  0  0  0
  2  7  1  0  0  0  0
  3  9  1  0  0  0  0
  3 10  1  0  0  0  0
  3  2  1  0  0  0  0
  4  3  1  0  0  0  0
  5  4  1  0  0  0  0
  5  6  1  0  0  0  0
  6 14  1  1  0  0  0
  6  1  1  0  0  0  0
  8  2  1  0  0  0  0
 11  4  1  0  0  0  0
 12  5  1  0  0  0  0
 13  5  1  0  0  0  0
 16 17  1  0  0  0  0
 16 15  1  0  0  0  0
 17 27  1  0  0  0  0
 18 22  1  0  0  0  0
 18 17  2  0  0  0  0
 19 18  1  0  0  0  0
 20 19  2  0  0  0  0
 20 21  1  0  0  0  0
 21 16  2  0  0  0  0
 23 19  1  0  0  0  0
 24 20  1  0  0  0  0
 25 31  1  0  0  0  0
 25 30  1  0  0  0  0
 26 25  2  0  0  0  0
 27 26  1  0  0  0  0
 27 28  2  0  0  0  0
 28 29  1  0  0  0  0
 29 33  1  0  0  0  0
 29 30  2  0  0  0  0
 32 26  1  0  0  0  0
 34  6  1  0  0  0  0
 35 34  1  1  0  0  0
 35 44  1  0  0  0  0
 36 35  1  0  0  0  0
 37 36  1  1  0  0  0
 38 39  1  6  0  0  0
 38 42  1  0  0  0  0
 38 37  1  0  0  0  0
 40 38  1  0  0  0  0
 41 40  1  0  0  0  0
 42 40  1  6  0  0  0
 42 43  1  0  0  0  0
 42 37  1  0  0  0  0
 43 35  1  0  0  0  0
 45 44  1  0  0  0  0
M  END
>  <minimizedAffinity>
-6.02773857

>  <minimizedRMSD>
1.02657819

$$$$
