
 OpenBabel03272508373D

 47 51  0  0  1  0  0  0  0  0999 V2000
   40.0090   32.0400   42.9750 N   0  0  0  0  0  0  0  0  0  0  0  0
   39.2770   33.2290   42.7880 C   0  0  0  0  0  0  0  0  0  0  0  0
   37.8720   33.0920   42.3280 C   0  0  0  0  0  0  0  0  0  0  0  0
   37.7190   32.0980   41.3540 O   0  0  0  0  0  0  0  0  0  0  0  0
   38.2040   30.9190   41.8010 C   0  0  0  0  0  0  0  0  0  0  0  0
   39.6820   31.0020   42.1090 C   0  0  1  0  0  0  0  0  0  0  0  0
   39.8450   33.6050   41.8660 H   0  0  0  0  0  0  0  0  0  0  0  0
   39.4170   34.0750   43.4280 H   0  0  0  0  0  0  0  0  0  0  0  0
   37.7220   34.0120   41.6380 H   0  0  0  0  0  0  0  0  0  0  0  0
   37.0550   33.2840   42.9870 H   0  0  0  0  0  0  0  0  0  0  0  0
   37.6050   30.3320   42.4920 H   0  0  0  0  0  0  0  0  0  0  0  0
   38.1930   30.2650   40.8950 H   0  0  0  0  0  0  0  0  0  0  0  0
   39.8630   30.0580   42.6810 H   0  0  0  0  0  0  0  0  0  0  0  0
   40.4330   31.7580   44.2850 C   0  0  0  0  0  0  0  0  0  0  0  0
   41.5400   31.7020   44.3180 H   0  0  0  0  0  0  0  0  0  0  0  0
   40.1260   30.6840   44.4800 H   0  0  0  0  0  0  0  0  0  0  0  0
   39.9220   32.5750   45.3800 C   0  0  0  0  0  0  0  0  0  0  0  0
   39.5180   33.5670   45.2410 H   0  0  0  0  0  0  0  0  0  0  0  0
   40.7760   32.7510   46.1080 H   0  0  0  0  0  0  0  0  0  0  0  0
   37.8030   30.9330   47.7640 C   0  0  0  0  0  0  0  0  0  0  0  0
   37.0830   30.7430   46.6000 C   0  0  0  0  0  0  0  0  0  0  0  0
   37.8090   31.3420   45.5590 C   0  0  0  0  0  0  0  0  0  0  0  0
   38.9040   31.8520   46.1210 N   0  0  0  0  0  0  0  0  0  0  0  0
   38.8950   31.6060   47.4370 N   0  0  0  0  0  0  0  0  0  0  0  0
   36.1120   30.2150   46.5200 H   0  0  0  0  0  0  0  0  0  0  0  0
   37.3860   31.2730   44.6270 H   0  0  0  0  0  0  0  0  0  0  0  0
   37.4270   30.1940   51.4310 C   0  0  0  0  0  0  0  0  0  0  0  0
   37.9650   30.7260   50.2560 C   0  0  0  0  0  0  0  0  0  0  0  0
   37.3580   30.4480   49.0440 C   0  0  0  0  0  0  0  0  0  0  0  0
   36.2510   29.6530   49.1110 N   0  0  0  0  0  0  0  0  0  0  0  0
   35.7470   29.1500   50.2550 C   0  0  0  0  0  0  0  0  0  0  0  0
   36.3480   29.4310   51.4050 N   0  0  0  0  0  0  0  0  0  0  0  0
   37.9790   30.4730   52.3280 H   0  0  0  0  0  0  0  0  0  0  0  0
   38.8410   31.3560   50.1870 H   0  0  0  0  0  0  0  0  0  0  0  0
   34.8620   28.5360   50.1350 H   0  0  0  0  0  0  0  0  0  0  0  0
   40.4810   30.9490   40.8290 C   0  0  0  0  0  2  0  0  0  0  0  0
   41.0640   29.6320   40.5380 C   0  0  1  0  0  0  0  0  0  0  0  0
   40.0470   28.8120   39.7130 C   0  0  0  0  0  2  0  0  0  0  0  0
   40.8130   27.7080   39.1660 N   0  0  0  0  0  0  0  0  0  0  0  0
   41.4220   26.4530   38.8070 C   0  0  0  0  0  0  0  0  0  0  0  0
   41.1080   25.2600   39.0530 O   0  0  0  0  0  0  0  0  0  0  0  0
   42.5190   27.1590   38.0630 C   0  0  0  0  0  3  0  0  0  0  0  0
   43.4780   27.1350   38.5770 H   0  0  0  0  0  0  0  0  0  0  0  0
   41.6680   28.3800   38.1820 C   0  0  2  0  0  3  0  0  0  0  0  0
   42.3390   29.7230   39.2150 S   0  0  0  0  0  0  0  0  0  0  0  0
   41.5270   28.7940   41.6720 C   0  0  0  0  0  2  0  0  0  0  0  0
   41.4440   29.2670   42.6540 H   0  0  0  0  0  0  0  0  0  0  0  0
  1 14  1  0  0  0  0
  2  1  1  0  0  0  0
  2  8  1  0  0  0  0
  3  2  1  0  0  0  0
  3 10  1  0  0  0  0
  4  5  1  0  0  0  0
  4  3  1  0  0  0  0
  5  6  1  0  0  0  0
  5 11  1  0  0  0  0
  6 13  1  1  0  0  0
  6  1  1  0  0  0  0
  7  2  1  0  0  0  0
  9  3  1  0  0  0  0
 12  5  1  0  0  0  0
 14 15  1  0  0  0  0
 14 16  1  0  0  0  0
 14 17  1  0  0  0  0
 17 19  1  0  0  0  0
 17 23  1  0  0  0  0
 18 17  1  0  0  0  0
 20 29  1  0  0  0  0
 21 20  1  0  0  0  0
 22 23  1  0  0  0  0
 22 21  2  0  0  0  0
 23 24  1  0  0  0  0
 24 20  2  0  0  0  0
 25 21  1  0  0  0  0
 26 22  1  0  0  0  0
 27 33  1  0  0  0  0
 28 27  2  0  0  0  0
 29 30  2  0  0  0  0
 29 28  1  0  0  0  0
 30 31  1  0  0  0  0
 31 32  2  0  0  0  0
 32 27  1  0  0  0  0
 34 28  1  0  0  0  0
 35 31  1  0  0  0  0
 36  6  1  0  0  0  0
 37 36  1  1  0  0  0
 37 46  1  0  0  0  0
 38 37  1  0  0  0  0
 39 38  1  0  0  0  0
 40 41  2  0  0  0  0
 40 39  1  0  0  0  0
 42 43  1  0  0  0  0
 42 40  1  0  0  0  0
 44 42  1  1  0  0  0
 44 39  1  0  0  0  0
 44 45  1  0  0  0  0
 45 37  1  0  0  0  0
 46 47  1  0  0  0  0
M  END
>  <minimizedAffinity>
-5.86052847

>  <minimizedRMSD>
1.14859569

$$$$
