
 OpenBabel03272503243D

 35 38  0  0  1  0  0  0  0  0999 V2000
   36.4380   29.9510   49.1880 N   0  0  0  0  0  0  0  0  0  0  0  0
   36.9810   31.2570   49.0590 C   0  0  1  0  0  0  0  0  0  0  0  0
   37.6290   31.5560   50.3810 C   0  0  0  0  0  0  0  0  0  0  0  0
   37.3650   30.2800   51.2230 C   0  0  0  0  0  0  0  0  0  0  0  0
   37.2740   29.2570   50.1320 C   0  0  0  0  0  0  0  0  0  0  0  0
   36.0750   32.0060   49.0270 H   0  0  0  0  0  0  0  0  0  0  0  0
   37.2170   32.4340   50.9090 H   0  0  0  0  0  0  0  0  0  0  0  0
   38.7380   31.6060   50.2840 H   0  0  0  0  0  0  0  0  0  0  0  0
   36.4050   30.3610   51.7440 H   0  0  0  0  0  0  0  0  0  0  0  0
   38.2290   30.1020   51.9090 H   0  0  0  0  0  0  0  0  0  0  0  0
   36.7260   28.3810   50.5660 H   0  0  0  0  0  0  0  0  0  0  0  0
   38.2670   28.9640   49.7460 H   0  0  0  0  0  0  0  0  0  0  0  0
   35.2890   29.4510   48.5220 C   0  0  0  0  0  0  0  0  0  0  0  0
   34.5900   30.3120   47.6600 C   0  0  0  0  0  0  0  0  0  0  0  0
   33.4530   29.8360   46.9940 C   0  0  0  0  0  0  0  0  0  0  0  0
   33.0980   28.5340   47.2380 N   0  0  0  0  0  0  0  0  0  0  0  0
   33.7930   27.7310   48.0730 C   0  0  0  0  0  0  0  0  0  0  0  0
   34.9080   28.1820   48.7330 N   0  0  0  0  0  0  0  0  0  0  0  0
   34.8750   31.3370   47.4730 H   0  0  0  0  0  0  0  0  0  0  0  0
   32.9000   30.4790   46.3270 H   0  0  0  0  0  0  0  0  0  0  0  0
   33.4960   26.7180   48.2460 H   0  0  0  0  0  0  0  0  0  0  0  0
   37.7830   31.5450   47.8820 C   0  0  0  0  0  0  0  0  0  0  0  0
   38.3890   32.5720   47.7620 O   0  0  0  0  0  0  0  0  0  0  0  0
   37.5260   30.5420   42.8390 C   0  0  0  0  0  0  0  0  0  0  0  0
   38.2640   31.7560   43.4230 C   0  0  0  0  0  0  0  0  0  0  0  0
   38.6780   31.3430   44.7810 N   0  0  0  0  0  0  0  0  0  0  0  0
   39.2710   30.9390   46.0420 C   0  0  0  0  0  0  0  0  0  0  0  0
   40.5510   30.9810   46.0700 O   0  0  0  0  0  0  0  0  0  0  0  0
   37.9720   30.6730   46.6740 C   0  0  2  0  0  0  0  0  0  0  0  0
   37.3960   31.2850   45.4580 C   0  0  2  0  0  0  0  0  0  0  0  0
   36.5420   30.1070   44.3340 S   0  0  0  0  0  0  0  0  0  0  0  0
   36.6480   30.9830   41.7110 C   0  0  0  0  0  0  0  0  0  0  0  0
   37.1450   31.8110   41.1860 H   0  0  0  0  0  0  0  0  0  0  0  0
   38.4630   29.4320   42.4800 C   0  0  0  0  0  0  0  0  0  0  0  0
   37.8530   28.4920   42.4530 H   0  0  0  0  0  0  0  0  0  0  0  0
  1  5  1  0  0  0  0
  2  6  1  6  0  0  0
  2  1  1  0  0  0  0
  2  3  1  0  0  0  0
  3  7  1  0  0  0  0
  3  4  1  0  0  0  0
  4  9  1  0  0  0  0
  4 10  1  0  0  0  0
  5 11  1  0  0  0  0
  5  4  1  0  0  0  0
  8  3  1  0  0  0  0
 12  5  1  0  0  0  0
 13 18  1  0  0  0  0
 13  1  1  0  0  0  0
 14 13  2  0  0  0  0
 15 16  2  0  0  0  0
 15 14  1  0  0  0  0
 16 17  1  0  0  0  0
 17 21  1  0  0  0  0
 17 18  2  0  0  0  0
 19 14  1  0  0  0  0
 20 15  1  0  0  0  0
 22  2  1  0  0  0  0
 23 22  2  0  0  0  0
 24 25  1  0  0  0  0
 24 31  1  0  0  0  0
 25 26  1  0  0  0  0
 26 30  1  0  0  0  0
 26 27  1  0  0  0  0
 27 28  2  0  0  0  0
 27 29  1  0  0  0  0
 29 22  1  1  0  0  0
 30 31  1  6  0  0  0
 30 29  1  0  0  0  0
 32 24  1  0  0  0  0
 33 32  1  0  0  0  0
 34 24  1  0  0  0  0
 35 34  1  0  0  0  0
M  END
>  <minimizedAffinity>
-5.83118629

>  <minimizedRMSD>
1.91584301

$$$$
