
 OpenBabel03272507333D

 39 43  0  0  1  0  0  0  0  0999 V2000
   32.9690   27.6800   48.1880 C   0  0  0  0  0  0  0  0  0  0  0  0
   31.7290   27.7430   48.4820 O   0  0  0  0  0  0  0  0  0  0  0  0
   35.8110   29.1500   49.7860 C   0  0  0  0  0  0  0  0  0  0  0  0
   34.8310   29.6130   50.6340 C   0  0  0  0  0  0  0  0  0  0  0  0
   33.6040   29.1300   50.1590 C   0  0  0  0  0  0  0  0  0  0  0  0
   33.9210   28.3930   49.0380 C   0  0  0  0  0  0  0  0  0  0  0  0
   35.2230   28.4330   48.8590 O   0  0  0  0  0  0  0  0  0  0  0  0
   34.8970   30.2380   51.5230 H   0  0  0  0  0  0  0  0  0  0  0  0
   32.6050   29.2570   50.5220 H   0  0  0  0  0  0  0  0  0  0  0  0
   37.2190   29.4610   49.9810 C   0  0  0  0  0  0  0  0  0  0  0  0
   37.8730   28.8130   50.8100 O   0  0  0  0  0  0  0  0  0  0  0  0
   37.7690   30.5200   49.1820 C   0  0  0  0  0  0  0  0  0  0  0  0
   38.1070   31.6920   49.8360 C   0  0  0  0  0  0  0  0  0  0  0  0
   38.6430   32.7430   49.0890 C   0  0  0  0  0  0  0  0  0  0  0  0
   38.8070   32.5570   47.7330 N   0  0  0  0  0  0  0  0  0  0  0  0
   38.4670   31.4100   47.1370 C   0  0  0  0  0  0  0  0  0  0  0  0
   37.9520   30.3960   47.8480 N   0  0  0  0  0  0  0  0  0  0  0  0
   37.9570   31.7860   50.9070 H   0  0  0  0  0  0  0  0  0  0  0  0
   38.8970   33.6430   49.6260 H   0  0  0  0  0  0  0  0  0  0  0  0
   38.6370   31.3740   46.0730 H   0  0  0  0  0  0  0  0  0  0  0  0
   33.4450   26.8880   47.0080 C   0  0  1  0  0  0  0  0  0  0  0  0
   33.6920   25.3880   47.4310 C   0  0  0  0  0  0  0  0  0  0  0  0
   32.6540   25.7960   46.4530 C   0  0  1  0  0  0  0  0  0  0  0  0
   34.4010   27.2600   46.5890 H   0  0  0  0  0  0  0  0  0  0  0  0
   34.5970   24.9030   47.0760 H   0  0  0  0  0  0  0  0  0  0  0  0
   33.3480   25.0810   48.4160 H   0  0  0  0  0  0  0  0  0  0  0  0
   32.8950   25.5410   45.3800 H   0  0  0  0  0  0  0  0  0  0  0  0
   31.2310   25.5580   46.8080 C   0  0  0  0  0  2  0  0  0  0  0  0
   30.3170   25.7830   45.6180 C   0  0  2  0  0  0  0  0  0  0  0  0
   28.9970   25.1380   45.9350 C   0  0  0  0  0  2  0  0  0  0  0  0
   28.5320   24.4140   44.7920 N   0  0  0  0  0  0  0  0  0  0  0  0
   27.7680   23.9120   43.6990 C   0  0  0  0  0  0  0  0  0  0  0  0
   26.5810   24.0090   43.2860 O   0  0  0  0  0  0  0  0  0  0  0  0
   28.9030   23.1530   43.1150 C   0  0  0  0  0  3  0  0  0  0  0  0
   29.4060   23.6020   42.2490 H   0  0  0  0  0  0  0  0  0  0  0  0
   29.5790   23.4550   44.4040 C   0  0  1  0  0  3  0  0  0  0  0  0
   30.9570   24.6680   44.3060 S   0  0  0  0  0  0  0  0  0  0  0  0
   30.2400   27.1940   45.1660 C   0  0  0  0  0  2  0  0  0  0  0  0
   31.0740   27.4630   44.4960 H   0  0  0  0  0  0  0  0  0  0  0  0
  1  2  2  0  0  0  0
  1  6  1  0  0  0  0
  3 10  1  0  0  0  0
  3  4  2  0  0  0  0
  4  8  1  0  0  0  0
  5  9  1  0  0  0  0
  5  4  1  0  0  0  0
  6  5  2  0  0  0  0
  7  6  1  0  0  0  0
  7  3  1  0  0  0  0
 10 11  2  0  0  0  0
 12 13  1  0  0  0  0
 12 10  1  0  0  0  0
 13 18  1  0  0  0  0
 14 19  1  0  0  0  0
 14 13  2  0  0  0  0
 15 14  1  0  0  0  0
 16 15  2  0  0  0  0
 16 17  1  0  0  0  0
 17 12  2  0  0  0  0
 20 16  1  0  0  0  0
 21 24  1  6  0  0  0
 21 22  1  0  0  0  0
 21  1  1  0  0  0  0
 22 26  1  0  0  0  0
 23 27  1  6  0  0  0
 23 28  1  0  0  0  0
 23 21  1  0  0  0  0
 23 22  1  0  0  0  0
 25 22  1  0  0  0  0
 29 38  1  6  0  0  0
 29 30  1  0  0  0  0
 29 28  1  0  0  0  0
 31 30  1  0  0  0  0
 32 31  1  0  0  0  0
 33 32  2  0  0  0  0
 34 32  1  0  0  0  0
 35 34  1  0  0  0  0
 36 34  1  6  0  0  0
 36 31  1  0  0  0  0
 37 36  1  0  0  0  0
 37 29  1  0  0  0  0
 39 38  1  0  0  0  0
M  END
>  <minimizedAffinity>
-5.340271

>  <minimizedRMSD>
0.878453195

$$$$
