
 OpenBabel03262522033D

 42 46  0  0  1  0  0  0  0  0999 V2000
   34.4580   29.1080   48.7320 C   0  0  2  0  0  0  0  0  0  0  0  0
   35.1230   28.3710   49.8390 C   0  0  0  0  0  0  0  0  0  0  0  0
   36.2810   29.1280   50.2900 N   0  0  0  0  0  0  0  0  0  0  0  0
   37.2510   29.8410   51.0620 C   0  0  0  0  0  0  0  0  0  0  0  0
   37.5040   30.0260   52.2730 O   0  0  0  0  0  0  0  0  0  0  0  0
   37.9560   30.3610   49.8900 C   0  0  1  0  0  0  0  0  0  0  0  0
   37.1090   29.3730   49.1360 C   0  0  2  0  0  0  0  0  0  0  0  0
   35.8400   30.1070   48.0520 S   0  0  0  0  0  0  0  0  0  0  0  0
   34.4460   28.2040   50.7040 H   0  0  0  0  0  0  0  0  0  0  0  0
   35.5210   27.3680   49.5250 H   0  0  0  0  0  0  0  0  0  0  0  0
   39.0220   30.0610   49.7180 H   0  0  0  0  0  0  0  0  0  0  0  0
   37.6100   28.4910   48.7090 H   0  0  0  0  0  0  0  0  0  0  0  0
   33.2700   29.9310   49.1000 C   0  0  0  0  0  0  0  0  0  0  0  0
   32.6220   29.3420   49.7450 H   0  0  0  0  0  0  0  0  0  0  0  0
   33.6680   30.8490   49.6030 H   0  0  0  0  0  0  0  0  0  0  0  0
   32.7470   30.2290   48.1860 H   0  0  0  0  0  0  0  0  0  0  0  0
   34.1230   28.1120   47.6030 C   0  0  0  0  0  0  0  0  0  0  0  0
   34.2120   28.6310   46.6170 H   0  0  0  0  0  0  0  0  0  0  0  0
   34.7770   27.2420   47.6410 H   0  0  0  0  0  0  0  0  0  0  0  0
   29.1210   27.3190   46.2940 C   0  0  0  0  0  0  0  0  0  0  0  0
   30.2270   26.5260   45.6270 C   0  0  0  0  0  0  0  0  0  0  0  0
   31.3660   26.5590   46.5360 N   0  0  0  0  0  0  0  0  0  0  0  0
   32.4270   26.2710   47.4390 C   0  0  0  0  0  0  0  0  0  0  0  0
   32.8950   25.1380   47.7730 O   0  0  0  0  0  0  0  0  0  0  0  0
   32.6840   27.7220   47.7540 C   0  0  2  0  0  0  0  0  0  0  0  0
   31.7660   27.9620   46.6060 C   0  0  2  0  0  0  0  0  0  0  0  0
   30.1250   28.6620   47.0450 S   0  0  0  0  0  0  0  0  0  0  0  0
   28.2460   27.9360   45.2470 C   0  0  0  0  0  0  0  0  0  0  0  0
   27.9460   28.9830   45.5050 H   0  0  0  0  0  0  0  0  0  0  0  0
   28.3800   26.5460   47.3480 C   0  0  0  0  0  0  0  0  0  0  0  0
   28.4280   27.1030   48.3130 H   0  0  0  0  0  0  0  0  0  0  0  0
   37.7270   31.7960   49.5940 C   0  0  0  0  0  0  0  0  0  0  0  0
   36.7330   32.2960   50.1920 O   0  0  0  0  0  0  0  0  0  0  0  0
   38.5740   32.5470   48.7020 C   0  0  0  0  0  0  0  0  0  0  0  0
   39.1000   33.7390   49.1730 C   0  0  0  0  0  0  0  0  0  0  0  0
   39.9320   34.4850   48.3070 C   0  0  0  0  0  0  0  0  0  0  0  0
   40.1620   33.9840   47.0660 N   0  0  0  0  0  0  0  0  0  0  0  0
   39.6390   32.8320   46.6440 C   0  0  0  0  0  0  0  0  0  0  0  0
   38.8440   32.1120   47.4600 N   0  0  0  0  0  0  0  0  0  0  0  0
   38.8750   34.0800   50.1740 H   0  0  0  0  0  0  0  0  0  0  0  0
   40.3450   35.4240   48.6800 H   0  0  0  0  0  0  0  0  0  0  0  0
   39.8890   32.5280   45.6360 H   0  0  0  0  0  0  0  0  0  0  0  0
  1 17  1  6  0  0  0
  1 13  1  0  0  0  0
  1  2  1  0  0  0  0
  2  3  1  0  0  0  0
  2  9  1  0  0  0  0
  3  4  1  0  0  0  0
  4  5  2  0  0  0  0
  6 11  1  6  0  0  0
  6  4  1  0  0  0  0
  7 12  1  6  0  0  0
  7  6  1  0  0  0  0
  7  3  1  0  0  0  0
  8  1  1  0  0  0  0
  8  7  1  0  0  0  0
 10  2  1  0  0  0  0
 13 15  1  0  0  0  0
 13 14  1  0  0  0  0
 16 13  1  0  0  0  0
 17 19  1  0  0  0  0
 18 17  1  0  0  0  0
 20 27  1  0  0  0  0
 20 30  1  0  0  0  0
 21 20  1  0  0  0  0
 21 22  1  0  0  0  0
 22 26  1  0  0  0  0
 22 23  1  0  0  0  0
 23 25  1  0  0  0  0
 23 24  2  0  0  0  0
 25 17  1  6  0  0  0
 26 27  1  1  0  0  0
 26 25  1  0  0  0  0
 28 29  1  0  0  0  0
 28 20  1  0  0  0  0
 30 31  1  0  0  0  0
 32  6  1  0  0  0  0
 32 33  2  0  0  0  0
 34 35  1  0  0  0  0
 34 32  1  0  0  0  0
 35 40  1  0  0  0  0
 36 41  1  0  0  0  0
 36 35  2  0  0  0  0
 37 36  1  0  0  0  0
 38 37  2  0  0  0  0
 38 39  1  0  0  0  0
 39 34  2  0  0  0  0
 42 38  1  0  0  0  0
M  END
>  <minimizedAffinity>
-5.55129814

>  <minimizedRMSD>
2.132967

$$$$
