
 OpenBabel03272500223D

 40 44  0  0  1  0  0  0  0  0999 V2000
   35.3230   29.5380   50.1020 C   0  0  0  0  0  0  0  0  0  0  0  0
   36.3730   30.3090   49.5260 C   0  0  0  0  0  0  0  0  0  0  0  0
   36.4790   30.3810   48.1340 C   0  0  0  0  0  0  0  0  0  0  0  0
   35.5420   29.6870   47.4180 N   0  0  0  0  0  0  0  0  0  0  0  0
   34.5810   28.9810   47.9490 C   0  0  0  0  0  0  0  0  0  0  0  0
   34.4530   28.8930   49.2860 N   0  0  0  0  0  0  0  0  0  0  0  0
   35.2270   29.4720   51.1780 H   0  0  0  0  0  0  0  0  0  0  0  0
   32.7250   30.7460   46.3270 Cl  0  0  0  0  0  0  0  0  0  0  0  0
   32.7340   28.9830   46.2740 C   0  0  0  0  0  0  0  0  0  0  0  0
   33.6330   28.2780   47.0630 C   0  0  0  0  0  0  0  0  0  0  0  0
   33.6860   26.8760   47.0610 C   0  0  0  0  0  0  0  0  0  0  0  0
   32.7780   26.2400   46.2160 C   0  0  0  0  0  0  0  0  0  0  0  0
   31.8830   26.9150   45.4290 C   0  0  0  0  0  0  0  0  0  0  0  0
   30.8030   25.9860   44.4170 Cl  0  0  0  0  0  0  0  0  0  0  0  0
   31.8660   28.3040   45.4620 C   0  0  0  0  0  0  0  0  0  0  0  0
   34.3890   26.3300   47.6790 H   0  0  0  0  0  0  0  0  0  0  0  0
   32.8080   25.1590   46.2040 H   0  0  0  0  0  0  0  0  0  0  0  0
   30.9060   29.0540   44.6200 C   0  0  0  0  0  0  0  0  0  0  0  0
   30.0400   28.1600   43.9700 F   0  0  0  0  0  0  0  0  0  0  0  0
   31.5300   29.8410   43.7060 F   0  0  0  0  0  0  0  0  0  0  0  0
   30.1180   29.8520   45.4130 F   0  0  0  0  0  0  0  0  0  0  0  0
   37.3210   31.0110   50.4500 C   0  0  0  0  0  0  0  0  0  0  0  0
   38.6370   30.8500   50.0350 F   0  0  0  0  0  0  0  0  0  0  0  0
   37.0370   32.3630   50.3900 F   0  0  0  0  0  0  0  0  0  0  0  0
   37.1890   30.6150   51.7570 F   0  0  0  0  0  0  0  0  0  0  0  0
   37.5460   31.1720   47.5320 C   0  0  0  0  0  0  0  0  0  0  0  0
   37.1800   32.2210   47.4370 H   0  0  0  0  0  0  0  0  0  0  0  0
   38.5140   31.1240   48.0770 H   0  0  0  0  0  0  0  0  0  0  0  0
   37.5090   31.3350   42.4440 C   0  0  0  0  0  0  0  0  0  0  0  0
   38.7300   30.7860   43.0540 C   0  0  0  0  0  2  0  0  0  0  0  0
   38.7760   30.9750   44.4440 N   0  0  2  0  0  0  0  0  0  0  0  0
   39.2650   30.9750   45.7760 C   0  0  2  0  0  0  0  0  0  0  0  0
   40.4310   31.2090   46.2370 O   0  0  0  0  0  1  0  0  0  0  0  0
   37.8470   30.6110   46.1610 C   0  0  2  0  0  3  0  0  0  0  0  0
   37.5780   31.5440   45.0480 C   0  0  2  0  0  0  0  0  0  0  0  0
   36.3180   31.0940   43.8300 S   0  0  0  0  0  0  0  0  0  0  0  0
   37.0440   30.5870   41.2220 C   0  0  0  0  0  2  0  0  0  0  0  0
   37.1360   29.5100   41.4500 H   0  0  0  0  0  0  0  0  0  0  0  0
   37.6910   32.8190   42.2110 C   0  0  0  0  0  2  0  0  0  0  0  0
   37.6290   33.2990   43.2290 H   0  0  0  0  0  0  0  0  0  0  0  0
  1  7  1  0  0  0  0
  2  1  1  0  0  0  0
  2 22  1  0  0  0  0
  3  2  2  0  0  0  0
  4  5  2  0  0  0  0
  4  3  1  0  0  0  0
  5  6  1  0  0  0  0
  6  1  2  0  0  0  0
  9  8  1  0  0  0  0
  9 10  1  0  0  0  0
 10  5  1  0  0  0  0
 11 10  2  0  0  0  0
 11 16  1  0  0  0  0
 12 11  1  0  0  0  0
 13 15  1  0  0  0  0
 13 12  2  0  0  0  0
 14 13  1  0  0  0  0
 15  9  2  0  0  0  0
 17 12  1  0  0  0  0
 18 21  1  0  0  0  0
 18 15  1  0  0  0  0
 19 18  1  0  0  0  0
 20 18  1  0  0  0  0
 22 25  1  0  0  0  0
 23 22  1  0  0  0  0
 24 22  1  0  0  0  0
 26 28  1  0  0  0  0
 26  3  1  0  0  0  0
 27 26  1  0  0  0  0
 29 30  1  0  0  0  0
 29 36  1  0  0  0  0
 31 30  1  1  0  0  0
 31 35  1  0  0  0  0
 31 32  1  0  0  0  0
 32 34  1  0  0  0  0
 32 33  1  1  0  0  0
 34 26  1  1  0  0  0
 35 36  1  6  0  0  0
 35 32  1  0  0  0  0
 35 34  1  0  0  0  0
 37 38  1  0  0  0  0
 37 29  1  0  0  0  0
 39 29  1  0  0  0  0
 39 40  1  0  0  0  0
M  END
>  <minimizedAffinity>
-6.53251505

>  <minimizedRMSD>
2.02400899

$$$$
