
 OpenBabel03272508373D

 47 51  0  0  1  0  0  0  0  0999 V2000
   40.0070   32.0410   42.9740 N   0  0  0  0  0  0  0  0  0  0  0  0
   39.2740   33.2290   42.7870 C   0  0  0  0  0  0  0  0  0  0  0  0
   37.8690   33.0900   42.3260 C   0  0  0  0  0  0  0  0  0  0  0  0
   37.7170   32.0950   41.3540 O   0  0  0  0  0  0  0  0  0  0  0  0
   38.2030   30.9170   41.8020 C   0  0  0  0  0  0  0  0  0  0  0  0
   39.6820   31.0020   42.1090 C   0  0  1  0  0  0  0  0  0  0  0  0
   39.8410   33.6050   41.8650 H   0  0  0  0  0  0  0  0  0  0  0  0
   39.4130   34.0760   43.4260 H   0  0  0  0  0  0  0  0  0  0  0  0
   37.7180   34.0090   41.6360 H   0  0  0  0  0  0  0  0  0  0  0  0
   37.0520   33.2820   42.9850 H   0  0  0  0  0  0  0  0  0  0  0  0
   37.6050   30.3300   42.4930 H   0  0  0  0  0  0  0  0  0  0  0  0
   38.1940   30.2620   40.8960 H   0  0  0  0  0  0  0  0  0  0  0  0
   39.8630   30.0590   42.6820 H   0  0  0  0  0  0  0  0  0  0  0  0
   40.4320   31.7610   44.2850 C   0  0  0  0  0  0  0  0  0  0  0  0
   41.5390   31.7070   44.3180 H   0  0  0  0  0  0  0  0  0  0  0  0
   40.1270   30.6860   44.4800 H   0  0  0  0  0  0  0  0  0  0  0  0
   39.9180   32.5770   45.3790 C   0  0  0  0  0  0  0  0  0  0  0  0
   39.5130   33.5690   45.2400 H   0  0  0  0  0  0  0  0  0  0  0  0
   40.7720   32.7550   46.1080 H   0  0  0  0  0  0  0  0  0  0  0  0
   37.8010   30.9330   47.7630 C   0  0  0  0  0  0  0  0  0  0  0  0
   37.0820   30.7410   46.5990 C   0  0  0  0  0  0  0  0  0  0  0  0
   37.8080   31.3400   45.5580 C   0  0  0  0  0  0  0  0  0  0  0  0
   38.9020   31.8530   46.1200 N   0  0  0  0  0  0  0  0  0  0  0  0
   38.8920   31.6070   47.4360 N   0  0  0  0  0  0  0  0  0  0  0  0
   36.1130   30.2100   46.5190 H   0  0  0  0  0  0  0  0  0  0  0  0
   37.3860   31.2700   44.6250 H   0  0  0  0  0  0  0  0  0  0  0  0
   37.4270   30.1920   51.4290 C   0  0  0  0  0  0  0  0  0  0  0  0
   37.9660   30.7230   50.2540 C   0  0  0  0  0  0  0  0  0  0  0  0
   37.3570   30.4480   49.0430 C   0  0  0  0  0  0  0  0  0  0  0  0
   36.2480   29.6560   49.1110 N   0  0  0  0  0  0  0  0  0  0  0  0
   35.7430   29.1530   50.2550 C   0  0  0  0  0  0  0  0  0  0  0  0
   36.3460   29.4320   51.4050 N   0  0  0  0  0  0  0  0  0  0  0  0
   37.9810   30.4680   52.3270 H   0  0  0  0  0  0  0  0  0  0  0  0
   38.8430   31.3510   50.1860 H   0  0  0  0  0  0  0  0  0  0  0  0
   34.8560   28.5420   50.1350 H   0  0  0  0  0  0  0  0  0  0  0  0
   40.4800   30.9480   40.8300 C   0  0  0  0  0  2  0  0  0  0  0  0
   41.0630   29.6330   40.5380 C   0  0  1  0  0  0  0  0  0  0  0  0
   40.0470   28.8120   39.7130 C   0  0  0  0  0  2  0  0  0  0  0  0
   40.8130   27.7080   39.1670 N   0  0  0  0  0  0  0  0  0  0  0  0
   41.4210   26.4530   38.8080 C   0  0  0  0  0  0  0  0  0  0  0  0
   41.1080   25.2600   39.0530 O   0  0  0  0  0  0  0  0  0  0  0  0
   42.5190   27.1600   38.0620 C   0  0  0  0  0  3  0  0  0  0  0  0
   43.4770   27.1350   38.5780 H   0  0  0  0  0  0  0  0  0  0  0  0
   41.6670   28.3810   38.1820 C   0  0  2  0  0  3  0  0  0  0  0  0
   42.3390   29.7240   39.2170 S   0  0  0  0  0  0  0  0  0  0  0  0
   41.5270   28.7950   41.6720 C   0  0  0  0  0  2  0  0  0  0  0  0
   41.4440   29.2670   42.6540 H   0  0  0  0  0  0  0  0  0  0  0  0
  1 14  1  0  0  0  0
  2  1  1  0  0  0  0
  2  8  1  0  0  0  0
  3  2  1  0  0  0  0
  3 10  1  0  0  0  0
  4  5  1  0  0  0  0
  4  3  1  0  0  0  0
  5  6  1  0  0  0  0
  5 11  1  0  0  0  0
  6 13  1  1  0  0  0
  6  1  1  0  0  0  0
  7  2  1  0  0  0  0
  9  3  1  0  0  0  0
 12  5  1  0  0  0  0
 14 15  1  0  0  0  0
 14 16  1  0  0  0  0
 14 17  1  0  0  0  0
 17 19  1  0  0  0  0
 17 23  1  0  0  0  0
 18 17  1  0  0  0  0
 20 29  1  0  0  0  0
 21 20  1  0  0  0  0
 22 23  1  0  0  0  0
 22 21  2  0  0  0  0
 23 24  1  0  0  0  0
 24 20  2  0  0  0  0
 25 21  1  0  0  0  0
 26 22  1  0  0  0  0
 27 33  1  0  0  0  0
 28 27  2  0  0  0  0
 29 30  2  0  0  0  0
 29 28  1  0  0  0  0
 30 31  1  0  0  0  0
 31 32  2  0  0  0  0
 32 27  1  0  0  0  0
 34 28  1  0  0  0  0
 35 31  1  0  0  0  0
 36  6  1  0  0  0  0
 37 36  1  1  0  0  0
 37 46  1  0  0  0  0
 38 37  1  0  0  0  0
 39 38  1  0  0  0  0
 40 41  2  0  0  0  0
 40 39  1  0  0  0  0
 42 43  1  0  0  0  0
 42 40  1  0  0  0  0
 44 42  1  1  0  0  0
 44 39  1  0  0  0  0
 44 45  1  0  0  0  0
 45 37  1  0  0  0  0
 46 47  1  0  0  0  0
M  END
>  <minimizedAffinity>
-5.85909605

>  <minimizedRMSD>
1.90800667

$$$$
