
 OpenBabel03262521183D

 32 34  0  0  1  0  0  0  0  0999 V2000
   38.5940   32.3640   46.5620 C   0  0  0  0  0  0  0  0  0  0  0  0
   39.8850   32.8930   46.4360 C   0  0  0  0  0  0  0  0  0  0  0  0
   40.3400   33.2500   45.1700 C   0  0  0  0  0  0  0  0  0  0  0  0
   39.4950   33.0620   44.1110 N   0  0  0  0  0  0  0  0  0  0  0  0
   38.2410   32.5430   44.2730 C   0  0  0  0  0  0  0  0  0  0  0  0
   37.8240   32.2100   45.4800 N   0  0  0  0  0  0  0  0  0  0  0  0
   40.5920   33.0630   47.2340 H   0  0  0  0  0  0  0  0  0  0  0  0
   41.3310   33.6630   45.0210 H   0  0  0  0  0  0  0  0  0  0  0  0
   38.2820   32.0580   47.8780 O   0  0  0  0  0  0  0  0  0  0  0  0
   37.1970   31.2320   48.0850 C   0  0  0  0  0  0  0  0  0  0  0  0
   36.3690   31.8750   48.4980 H   0  0  0  0  0  0  0  0  0  0  0  0
   36.7600   30.7910   47.1640 H   0  0  0  0  0  0  0  0  0  0  0  0
   37.7470   30.3660   48.9530 C   0  0  0  0  0  0  0  0  0  0  0  0
   37.0820   29.4590   49.0840 H   0  0  0  0  0  0  0  0  0  0  0  0
   38.6830   29.8600   48.5890 H   0  0  0  0  0  0  0  0  0  0  0  0
   38.0700   30.8600   50.3240 C   0  0  0  0  0  0  0  0  0  0  0  0
   37.6920   31.9040   50.4060 H   0  0  0  0  0  0  0  0  0  0  0  0
   39.1550   30.9290   50.5350 H   0  0  0  0  0  0  0  0  0  0  0  0
   37.2520   29.9090   51.6100 S   0  0  0  0  0  0  0  0  0  0  0  0
   37.0390   30.6390   52.7960 H   0  0  0  0  0  0  0  0  0  0  0  0
   37.3380   32.3470   43.1080 C   0  0  0  0  0  2  0  0  0  0  0  0
   37.3890   30.8890   42.7490 C   0  0  2  0  0  0  0  0  0  0  0  0
   36.7800   30.5670   41.4090 C   0  0  0  0  0  2  0  0  0  0  0  0
   35.3600   30.5210   41.5430 N   0  0  0  0  0  0  0  0  0  0  0  0
   33.9750   30.7870   41.3280 C   0  0  0  0  0  0  0  0  0  0  0  0
   33.2260   31.1590   40.3810 O   0  0  0  0  0  0  0  0  0  0  0  0
   33.7420   30.4290   42.7510 C   0  0  0  0  0  3  0  0  0  0  0  0
   33.9020   31.3180   43.3920 H   0  0  0  0  0  0  0  0  0  0  0  0
   34.9790   29.6130   42.5820 C   0  0  2  0  0  3  0  0  0  0  0  0
   36.2720   29.9570   43.8400 S   0  0  0  0  0  0  0  0  0  0  0  0
   38.8070   30.4040   42.8600 C   0  0  0  0  0  2  0  0  0  0  0  0
   39.1900   29.9290   41.9180 H   0  0  0  0  0  0  0  0  0  0  0  0
  1  9  1  0  0  0  0
  2  1  1  0  0  0  0
  2  7  1  0  0  0  0
  3  2  2  0  0  0  0
  4  5  2  0  0  0  0
  4  3  1  0  0  0  0
  5  6  1  0  0  0  0
  6  1  2  0  0  0  0
  8  3  1  0  0  0  0
  9 10  1  0  0  0  0
 10 11  1  0  0  0  0
 10 13  1  0  0  0  0
 12 10  1  0  0  0  0
 13 14  1  0  0  0  0
 13 16  1  0  0  0  0
 15 13  1  0  0  0  0
 16 17  1  0  0  0  0
 16 18  1  0  0  0  0
 16 19  1  0  0  0  0
 19 20  1  0  0  0  0
 21  5  1  0  0  0  0
 22 31  1  1  0  0  0
 22 21  1  0  0  0  0
 22 30  1  0  0  0  0
 23 24  1  0  0  0  0
 23 22  1  0  0  0  0
 24 29  1  0  0  0  0
 25 24  1  0  0  0  0
 25 27  1  0  0  0  0
 26 25  2  0  0  0  0
 27 28  1  0  0  0  0
 29 27  1  1  0  0  0
 29 30  1  0  0  0  0
 32 31  1  0  0  0  0
M  END
>  <minimizedAffinity>
-4.13432121

>  <minimizedRMSD>
1.13206732

$$$$
