
 OpenBabel03262522003D

 23 25  0  0  1  0  0  0  0  0999 V2000
   34.5250   29.6210   48.0740 C   0  0  0  0  0  0  0  0  0  0  0  0
   33.6340   30.5020   47.2630 C   0  0  0  0  0  2  0  0  0  0  0  0
   32.5540   29.6980   46.7230 N   0  0  0  0  0  0  0  0  0  0  0  0
   31.2650   29.2010   46.3770 C   0  0  0  0  0  0  0  0  0  0  0  0
   30.0700   29.5970   46.3980 O   0  0  0  0  0  0  0  0  0  0  0  0
   31.8000   27.8920   45.9150 C   0  0  1  0  0  3  0  0  0  0  0  0
   33.1200   28.5680   46.0060 C   0  0  2  0  0  3  0  0  0  0  0  0
   34.1950   27.9630   47.3670 S   0  0  0  0  0  0  0  0  0  0  0  0
   31.5360   26.7660   46.8450 C   0  0  0  0  0  0  0  0  0  0  0  0
   30.9270   27.0800   47.8950 O   0  0  0  0  0  0  0  0  0  0  0  0
   31.9650   25.4130   46.5340 C   0  0  0  0  0  0  0  0  0  0  0  0
   31.8150   24.4670   47.5490 C   0  0  0  0  0  0  0  0  0  0  0  0
   32.2220   23.1410   47.2800 C   0  0  0  0  0  0  0  0  0  0  0  0
   32.7330   22.8770   46.0420 N   0  0  0  0  0  0  0  0  0  0  0  0
   32.8570   23.8140   45.0990 C   0  0  0  0  0  0  0  0  0  0  0  0
   32.4720   25.0850   45.3460 N   0  0  0  0  0  0  0  0  0  0  0  0
   31.4150   24.6380   48.5410 H   0  0  0  0  0  0  0  0  0  0  0  0
   32.1400   22.3400   48.0180 H   0  0  0  0  0  0  0  0  0  0  0  0
   33.2730   23.5060   44.1490 H   0  0  0  0  0  0  0  0  0  0  0  0
   34.3130   29.6790   49.5500 C   0  0  0  0  0  2  0  0  0  0  0  0
   35.3180   29.4730   50.0210 H   0  0  0  0  0  0  0  0  0  0  0  0
   35.9910   29.9050   47.7180 C   0  0  0  0  0  2  0  0  0  0  0  0
   36.0270   30.0020   46.6180 H   0  0  0  0  0  0  0  0  0  0  0  0
  1 20  1  0  0  0  0
  2  1  1  0  0  0  0
  3  2  1  0  0  0  0
  4  5  2  0  0  0  0
  4  3  1  0  0  0  0
  6  7  1  0  0  0  0
  6  4  1  0  0  0  0
  6  9  1  1  0  0  0
  7  3  1  0  0  0  0
  7  8  1  1  0  0  0
  8  1  1  0  0  0  0
  9 10  2  0  0  0  0
 11  9  1  0  0  0  0
 11 12  1  0  0  0  0
 12 17  1  0  0  0  0
 13 12  2  0  0  0  0
 13 18  1  0  0  0  0
 14 13  1  0  0  0  0
 15 16  1  0  0  0  0
 15 14  2  0  0  0  0
 16 11  2  0  0  0  0
 19 15  1  0  0  0  0
 20 21  1  0  0  0  0
 22  1  1  0  0  0  0
 23 22  1  0  0  0  0
M  END
>  <minimizedAffinity>
-2.52515864

>  <minimizedRMSD>
7.21021461

$$$$
