
 OpenBabel03272500223D

 40 44  0  0  1  0  0  0  0  0999 V2000
   35.4360   29.2930   50.4300 C   0  0  0  0  0  0  0  0  0  0  0  0
   36.3640   30.1520   49.7730 C   0  0  0  0  0  0  0  0  0  0  0  0
   36.3340   30.2450   48.3790 C   0  0  0  0  0  0  0  0  0  0  0  0
   35.3920   29.4860   47.7400 N   0  0  0  0  0  0  0  0  0  0  0  0
   34.5430   28.6990   48.3450 C   0  0  0  0  0  0  0  0  0  0  0  0
   34.5470   28.5880   49.6860 N   0  0  0  0  0  0  0  0  0  0  0  0
   35.4450   29.2090   51.5090 H   0  0  0  0  0  0  0  0  0  0  0  0
   32.8230   30.3170   46.4440 Cl  0  0  0  0  0  0  0  0  0  0  0  0
   32.7350   28.5660   46.6340 C   0  0  0  0  0  0  0  0  0  0  0  0
   33.5760   27.9300   47.5380 C   0  0  0  0  0  0  0  0  0  0  0  0
   33.5490   26.5410   47.7300 C   0  0  0  0  0  0  0  0  0  0  0  0
   32.6250   25.8430   46.9550 C   0  0  0  0  0  0  0  0  0  0  0  0
   31.7860   26.4490   46.0580 C   0  0  0  0  0  0  0  0  0  0  0  0
   30.6770   25.4460   45.1540 Cl  0  0  0  0  0  0  0  0  0  0  0  0
   31.8460   27.8270   45.8990 C   0  0  0  0  0  0  0  0  0  0  0  0
   34.2080   26.0500   48.4370 H   0  0  0  0  0  0  0  0  0  0  0  0
   32.5940   24.7710   47.0930 H   0  0  0  0  0  0  0  0  0  0  0  0
   30.9480   28.5020   44.9350 C   0  0  0  0  0  0  0  0  0  0  0  0
   30.0370   27.5770   44.4020 F   0  0  0  0  0  0  0  0  0  0  0  0
   31.6330   29.1090   43.9310 F   0  0  0  0  0  0  0  0  0  0  0  0
   30.2000   29.4530   45.5860 F   0  0  0  0  0  0  0  0  0  0  0  0
   37.3340   30.9180   50.6190 C   0  0  0  0  0  0  0  0  0  0  0  0
   38.6270   30.8100   50.1200 F   0  0  0  0  0  0  0  0  0  0  0  0
   36.9810   32.2540   50.5510 F   0  0  0  0  0  0  0  0  0  0  0  0
   37.3070   30.5460   51.9390 F   0  0  0  0  0  0  0  0  0  0  0  0
   37.2740   31.1250   47.6950 C   0  0  0  0  0  0  0  0  0  0  0  0
   36.7640   32.1020   47.5260 H   0  0  0  0  0  0  0  0  0  0  0  0
   38.2440   31.2560   48.2220 H   0  0  0  0  0  0  0  0  0  0  0  0
   37.2400   30.9210   42.6090 C   0  0  0  0  0  0  0  0  0  0  0  0
   38.5110   30.5470   43.2510 C   0  0  0  0  0  2  0  0  0  0  0  0
   38.5290   30.8400   44.6250 N   0  0  2  0  0  0  0  0  0  0  0  0
   39.0100   30.9860   45.9520 C   0  0  2  0  0  0  0  0  0  0  0  0
   40.1440   31.3740   46.3910 O   0  0  0  0  0  1  0  0  0  0  0  0
   37.6380   30.5030   46.3660 C   0  0  2  0  0  3  0  0  0  0  0  0
   37.2770   31.3200   45.1910 C   0  0  2  0  0  0  0  0  0  0  0  0
   36.0760   30.6550   44.0130 S   0  0  0  0  0  0  0  0  0  0  0  0
   36.8610   30.0420   41.4450 C   0  0  0  0  0  2  0  0  0  0  0  0
   37.0650   29.0000   41.7490 H   0  0  0  0  0  0  0  0  0  0  0  0
   37.2650   32.3950   42.2700 C   0  0  0  0  0  2  0  0  0  0  0  0
   37.1490   32.9370   43.2500 H   0  0  0  0  0  0  0  0  0  0  0  0
  1  7  1  0  0  0  0
  2  1  1  0  0  0  0
  2 22  1  0  0  0  0
  3  2  2  0  0  0  0
  4  5  2  0  0  0  0
  4  3  1  0  0  0  0
  5  6  1  0  0  0  0
  6  1  2  0  0  0  0
  8  9  1  0  0  0  0
  9 10  1  0  0  0  0
 10 11  2  0  0  0  0
 10  5  1  0  0  0  0
 11 16  1  0  0  0  0
 12 17  1  0  0  0  0
 12 11  1  0  0  0  0
 13 12  2  0  0  0  0
 14 13  1  0  0  0  0
 15 13  1  0  0  0  0
 15  9  2  0  0  0  0
 18 21  1  0  0  0  0
 18 15  1  0  0  0  0
 19 18  1  0  0  0  0
 20 18  1  0  0  0  0
 22 25  1  0  0  0  0
 23 22  1  0  0  0  0
 24 22  1  0  0  0  0
 26 28  1  0  0  0  0
 26  3  1  0  0  0  0
 27 26  1  0  0  0  0
 29 30  1  0  0  0  0
 29 36  1  0  0  0  0
 31 30  1  1  0  0  0
 31 35  1  0  0  0  0
 31 32  1  0  0  0  0
 32 34  1  0  0  0  0
 32 33  1  1  0  0  0
 34 26  1  1  0  0  0
 35 36  1  6  0  0  0
 35 32  1  0  0  0  0
 35 34  1  0  0  0  0
 37 38  1  0  0  0  0
 37 29  1  0  0  0  0
 39 29  1  0  0  0  0
 39 40  1  0  0  0  0
M  END
>  <minimizedAffinity>
-6.65594292

>  <minimizedRMSD>
1.67485142

$$$$
