
 OpenBabel03262521173D

 32 34  0  0  1  0  0  0  0  0999 V2000
   39.2260   31.8650   46.5500 C   0  0  0  0  0  0  0  0  0  0  0  0
   39.9650   33.0320   46.3200 C   0  0  0  0  0  0  0  0  0  0  0  0
   40.4360   33.2830   45.0350 C   0  0  0  0  0  0  0  0  0  0  0  0
   40.1480   32.3680   44.0590 N   0  0  0  0  0  0  0  0  0  0  0  0
   39.4230   31.2390   44.3220 C   0  0  0  0  0  0  0  0  0  0  0  0
   38.9840   31.0160   45.5460 N   0  0  0  0  0  0  0  0  0  0  0  0
   40.2210   33.7870   47.0490 H   0  0  0  0  0  0  0  0  0  0  0  0
   41.0120   34.1720   44.8060 H   0  0  0  0  0  0  0  0  0  0  0  0
   38.8260   31.7530   47.8730 O   0  0  0  0  0  0  0  0  0  0  0  0
   37.5170   31.3830   48.0990 C   0  0  0  0  0  0  0  0  0  0  0  0
   36.9790   32.2960   48.4840 H   0  0  0  0  0  0  0  0  0  0  0  0
   36.9450   31.0990   47.1890 H   0  0  0  0  0  0  0  0  0  0  0  0
   37.7190   30.4060   48.9990 C   0  0  0  0  0  0  0  0  0  0  0  0
   36.7980   29.7570   49.0960 H   0  0  0  0  0  0  0  0  0  0  0  0
   38.4670   29.6250   48.6900 H   0  0  0  0  0  0  0  0  0  0  0  0
   38.1090   30.8030   50.3840 C   0  0  0  0  0  0  0  0  0  0  0  0
   37.8280   31.8700   50.5230 H   0  0  0  0  0  0  0  0  0  0  0  0
   39.2000   30.7650   50.5740 H   0  0  0  0  0  0  0  0  0  0  0  0
   37.2330   29.8660   51.6410 S   0  0  0  0  0  0  0  0  0  0  0  0
   37.1070   30.5530   52.8650 H   0  0  0  0  0  0  0  0  0  0  0  0
   39.1220   30.2570   43.2460 C   0  0  0  0  0  2  0  0  0  0  0  0
   37.7180   30.5260   42.7830 C   0  0  2  0  0  0  0  0  0  0  0  0
   37.5700   30.5830   41.2840 C   0  0  0  0  0  2  0  0  0  0  0  0
   38.0040   31.8610   40.8220 N   0  0  0  0  0  0  0  0  0  0  0  0
   38.7080   32.8640   40.0920 C   0  0  0  0  0  0  0  0  0  0  0  0
   39.2730   32.9860   38.9700 O   0  0  0  0  0  0  0  0  0  0  0  0
   38.4990   33.7740   41.2490 C   0  0  0  0  0  3  0  0  0  0  0  0
   39.3060   33.6240   41.9930 H   0  0  0  0  0  0  0  0  0  0  0  0
   37.3130   32.9090   41.5110 C   0  0  2  0  0  3  0  0  0  0  0  0
   37.2510   32.2290   43.2150 S   0  0  0  0  0  0  0  0  0  0  0  0
   36.7930   29.5190   43.4070 C   0  0  0  0  0  2  0  0  0  0  0  0
   36.1840   28.9480   42.6570 H   0  0  0  0  0  0  0  0  0  0  0  0
  1  9  1  0  0  0  0
  2  1  1  0  0  0  0
  2  7  1  0  0  0  0
  3  2  2  0  0  0  0
  4  5  2  0  0  0  0
  4  3  1  0  0  0  0
  5  6  1  0  0  0  0
  6  1  2  0  0  0  0
  8  3  1  0  0  0  0
  9 10  1  0  0  0  0
 10 11  1  0  0  0  0
 10 13  1  0  0  0  0
 12 10  1  0  0  0  0
 13 14  1  0  0  0  0
 13 16  1  0  0  0  0
 15 13  1  0  0  0  0
 16 17  1  0  0  0  0
 16 18  1  0  0  0  0
 16 19  1  0  0  0  0
 19 20  1  0  0  0  0
 21  5  1  0  0  0  0
 22 30  1  0  0  0  0
 22 21  1  1  0  0  0
 22 31  1  0  0  0  0
 23 22  1  0  0  0  0
 24 23  1  0  0  0  0
 24 29  1  0  0  0  0
 25 24  1  0  0  0  0
 25 27  1  0  0  0  0
 26 25  2  0  0  0  0
 27 28  1  0  0  0  0
 29 27  1  1  0  0  0
 29 30  1  0  0  0  0
 32 31  1  0  0  0  0
M  END
>  <minimizedAffinity>
-4.38672352

>  <minimizedRMSD>
2.59579325

$$$$
