
 OpenBabel03272508373D

 47 51  0  0  1  0  0  0  0  0999 V2000
   40.0080   32.0410   42.9740 N   0  0  0  0  0  0  0  0  0  0  0  0
   39.2760   33.2300   42.7870 C   0  0  0  0  0  0  0  0  0  0  0  0
   37.8710   33.0920   42.3270 C   0  0  0  0  0  0  0  0  0  0  0  0
   37.7180   32.0970   41.3540 O   0  0  0  0  0  0  0  0  0  0  0  0
   38.2040   30.9180   41.8010 C   0  0  0  0  0  0  0  0  0  0  0  0
   39.6820   31.0020   42.1090 C   0  0  1  0  0  0  0  0  0  0  0  0
   39.8440   33.6050   41.8650 H   0  0  0  0  0  0  0  0  0  0  0  0
   39.4160   34.0760   43.4270 H   0  0  0  0  0  0  0  0  0  0  0  0
   37.7210   34.0110   41.6360 H   0  0  0  0  0  0  0  0  0  0  0  0
   37.0540   33.2830   42.9850 H   0  0  0  0  0  0  0  0  0  0  0  0
   37.6050   30.3310   42.4920 H   0  0  0  0  0  0  0  0  0  0  0  0
   38.1940   30.2640   40.8960 H   0  0  0  0  0  0  0  0  0  0  0  0
   39.8630   30.0590   42.6820 H   0  0  0  0  0  0  0  0  0  0  0  0
   40.4320   31.7600   44.2850 C   0  0  0  0  0  0  0  0  0  0  0  0
   41.5400   31.7050   44.3180 H   0  0  0  0  0  0  0  0  0  0  0  0
   40.1260   30.6850   44.4800 H   0  0  0  0  0  0  0  0  0  0  0  0
   39.9200   32.5760   45.3790 C   0  0  0  0  0  0  0  0  0  0  0  0
   39.5150   33.5690   45.2400 H   0  0  0  0  0  0  0  0  0  0  0  0
   40.7740   32.7540   46.1080 H   0  0  0  0  0  0  0  0  0  0  0  0
   37.8020   30.9330   47.7640 C   0  0  0  0  0  0  0  0  0  0  0  0
   37.0820   30.7430   46.6000 C   0  0  0  0  0  0  0  0  0  0  0  0
   37.8080   31.3420   45.5590 C   0  0  0  0  0  0  0  0  0  0  0  0
   38.9030   31.8530   46.1210 N   0  0  0  0  0  0  0  0  0  0  0  0
   38.8940   31.6070   47.4360 N   0  0  0  0  0  0  0  0  0  0  0  0
   36.1120   30.2130   46.5190 H   0  0  0  0  0  0  0  0  0  0  0  0
   37.3850   31.2730   44.6260 H   0  0  0  0  0  0  0  0  0  0  0  0
   37.4270   30.1940   51.4300 C   0  0  0  0  0  0  0  0  0  0  0  0
   37.9650   30.7250   50.2550 C   0  0  0  0  0  0  0  0  0  0  0  0
   37.3580   30.4490   49.0430 C   0  0  0  0  0  0  0  0  0  0  0  0
   36.2500   29.6540   49.1110 N   0  0  0  0  0  0  0  0  0  0  0  0
   35.7460   29.1510   50.2550 C   0  0  0  0  0  0  0  0  0  0  0  0
   36.3480   29.4310   51.4050 N   0  0  0  0  0  0  0  0  0  0  0  0
   37.9800   30.4710   52.3280 H   0  0  0  0  0  0  0  0  0  0  0  0
   38.8420   31.3550   50.1870 H   0  0  0  0  0  0  0  0  0  0  0  0
   34.8600   28.5380   50.1340 H   0  0  0  0  0  0  0  0  0  0  0  0
   40.4810   30.9490   40.8300 C   0  0  0  0  0  2  0  0  0  0  0  0
   41.0640   29.6320   40.5380 C   0  0  1  0  0  0  0  0  0  0  0  0
   40.0470   28.8130   39.7130 C   0  0  0  0  0  2  0  0  0  0  0  0
   40.8130   27.7080   39.1660 N   0  0  0  0  0  0  0  0  0  0  0  0
   41.4220   26.4520   38.8080 C   0  0  0  0  0  0  0  0  0  0  0  0
   41.1070   25.2600   39.0540 O   0  0  0  0  0  0  0  0  0  0  0  0
   42.5180   27.1590   38.0630 C   0  0  0  0  0  3  0  0  0  0  0  0
   43.4770   27.1350   38.5790 H   0  0  0  0  0  0  0  0  0  0  0  0
   41.6680   28.3800   38.1830 C   0  0  2  0  0  3  0  0  0  0  0  0
   42.3390   29.7230   39.2160 S   0  0  0  0  0  0  0  0  0  0  0  0
   41.5270   28.7940   41.6720 C   0  0  0  0  0  2  0  0  0  0  0  0
   41.4430   29.2670   42.6550 H   0  0  0  0  0  0  0  0  0  0  0  0
  1 14  1  0  0  0  0
  2  1  1  0  0  0  0
  2  8  1  0  0  0  0
  3  2  1  0  0  0  0
  3 10  1  0  0  0  0
  4  5  1  0  0  0  0
  4  3  1  0  0  0  0
  5  6  1  0  0  0  0
  5 11  1  0  0  0  0
  6 13  1  1  0  0  0
  6  1  1  0  0  0  0
  7  2  1  0  0  0  0
  9  3  1  0  0  0  0
 12  5  1  0  0  0  0
 14 15  1  0  0  0  0
 14 16  1  0  0  0  0
 14 17  1  0  0  0  0
 17 19  1  0  0  0  0
 17 23  1  0  0  0  0
 18 17  1  0  0  0  0
 20 29  1  0  0  0  0
 21 20  1  0  0  0  0
 22 23  1  0  0  0  0
 22 21  2  0  0  0  0
 23 24  1  0  0  0  0
 24 20  2  0  0  0  0
 25 21  1  0  0  0  0
 26 22  1  0  0  0  0
 27 33  1  0  0  0  0
 28 27  2  0  0  0  0
 29 30  2  0  0  0  0
 29 28  1  0  0  0  0
 30 31  1  0  0  0  0
 31 32  2  0  0  0  0
 32 27  1  0  0  0  0
 34 28  1  0  0  0  0
 35 31  1  0  0  0  0
 36  6  1  0  0  0  0
 37 36  1  1  0  0  0
 37 46  1  0  0  0  0
 38 37  1  0  0  0  0
 39 38  1  0  0  0  0
 40 41  2  0  0  0  0
 40 39  1  0  0  0  0
 42 43  1  0  0  0  0
 42 40  1  0  0  0  0
 44 42  1  1  0  0  0
 44 39  1  0  0  0  0
 44 45  1  0  0  0  0
 45 37  1  0  0  0  0
 46 47  1  0  0  0  0
M  END
>  <minimizedAffinity>
-5.86075449

>  <minimizedRMSD>
1.04656661

$$$$
