
 OpenBabel03272500223D

 40 44  0  0  1  0  0  0  0  0999 V2000
   34.8980   28.4340   49.7690 C   0  0  0  0  0  0  0  0  0  0  0  0
   35.4610   29.3940   48.8790 C   0  0  0  0  0  0  0  0  0  0  0  0
   35.1560   29.3200   47.5170 C   0  0  0  0  0  0  0  0  0  0  0  0
   34.3200   28.3060   47.1380 N   0  0  0  0  0  0  0  0  0  0  0  0
   33.8060   27.4280   47.9550 C   0  0  0  0  0  0  0  0  0  0  0  0
   34.0810   27.4730   49.2720 N   0  0  0  0  0  0  0  0  0  0  0  0
   35.1240   28.4780   50.8260 H   0  0  0  0  0  0  0  0  0  0  0  0
   30.9160   28.2360   47.5270 Cl  0  0  0  0  0  0  0  0  0  0  0  0
   31.5720   26.6360   47.1810 C   0  0  0  0  0  0  0  0  0  0  0  0
   32.9160   26.3800   47.4170 C   0  0  0  0  0  0  0  0  0  0  0  0
   33.4930   25.1270   47.1610 C   0  0  0  0  0  0  0  0  0  0  0  0
   32.6280   24.1580   46.6550 C   0  0  0  0  0  0  0  0  0  0  0  0
   31.2990   24.3880   46.4150 C   0  0  0  0  0  0  0  0  0  0  0  0
   30.3330   23.0780   45.7780 Cl  0  0  0  0  0  0  0  0  0  0  0  0
   30.7700   25.6440   46.6820 C   0  0  0  0  0  0  0  0  0  0  0  0
   34.5420   24.9330   47.3470 H   0  0  0  0  0  0  0  0  0  0  0  0
   33.0590   23.1870   46.4520 H   0  0  0  0  0  0  0  0  0  0  0  0
   29.3360   25.9140   46.4300 C   0  0  0  0  0  0  0  0  0  0  0  0
   28.6760   24.7200   46.1000 F   0  0  0  0  0  0  0  0  0  0  0  0
   29.1500   26.8330   45.4480 F   0  0  0  0  0  0  0  0  0  0  0  0
   28.7430   26.3810   47.5790 F   0  0  0  0  0  0  0  0  0  0  0  0
   36.3610   30.4450   49.4540 C   0  0  0  0  0  0  0  0  0  0  0  0
   37.5830   30.4740   48.7940 F   0  0  0  0  0  0  0  0  0  0  0  0
   35.7560   31.6710   49.2460 F   0  0  0  0  0  0  0  0  0  0  0  0
   36.5600   30.3020   50.8040 F   0  0  0  0  0  0  0  0  0  0  0  0
   35.7210   30.3000   46.5970 C   0  0  0  0  0  0  0  0  0  0  0  0
   35.5710   31.3110   47.0440 H   0  0  0  0  0  0  0  0  0  0  0  0
   36.7870   30.1220   46.3380 H   0  0  0  0  0  0  0  0  0  0  0  0
   33.3810   27.7470   42.8670 C   0  0  0  0  0  0  0  0  0  0  0  0
   32.7620   29.0290   43.2450 C   0  0  0  0  0  2  0  0  0  0  0  0
   33.3120   29.5700   44.4190 N   0  0  2  0  0  0  0  0  0  0  0  0
   33.5070   30.4370   45.5250 C   0  0  2  0  0  0  0  0  0  0  0  0
   32.6640   31.0430   46.2680 O   0  0  0  0  0  1  0  0  0  0  0  0
   34.9830   30.2080   45.2820 C   0  0  2  0  0  3  0  0  0  0  0  0
   34.4600   28.8620   44.9680 C   0  0  2  0  0  0  0  0  0  0  0  0
   35.0910   28.0120   43.5020 S   0  0  0  0  0  0  0  0  0  0  0  0
   33.4100   27.4980   41.3810 C   0  0  0  0  0  2  0  0  0  0  0  0
   33.7150   28.4440   40.9020 H   0  0  0  0  0  0  0  0  0  0  0  0
   32.7360   26.6300   43.6560 C   0  0  0  0  0  2  0  0  0  0  0  0
   33.1300   26.7290   44.7070 H   0  0  0  0  0  0  0  0  0  0  0  0
  1  7  1  0  0  0  0
  2 22  1  0  0  0  0
  2  1  2  0  0  0  0
  3  2  1  0  0  0  0
  4  3  2  0  0  0  0
  4  5  1  0  0  0  0
  5  6  2  0  0  0  0
  6  1  1  0  0  0  0
  9 10  1  0  0  0  0
  9  8  1  0  0  0  0
 10  5  1  0  0  0  0
 11 16  1  0  0  0  0
 11 10  2  0  0  0  0
 12 11  1  0  0  0  0
 13 12  2  0  0  0  0
 13 15  1  0  0  0  0
 14 13  1  0  0  0  0
 15  9  2  0  0  0  0
 17 12  1  0  0  0  0
 18 15  1  0  0  0  0
 18 21  1  0  0  0  0
 19 18  1  0  0  0  0
 20 18  1  0  0  0  0
 22 25  1  0  0  0  0
 23 22  1  0  0  0  0
 24 22  1  0  0  0  0
 26 27  1  0  0  0  0
 26  3  1  0  0  0  0
 28 26  1  0  0  0  0
 29 30  1  0  0  0  0
 29 36  1  0  0  0  0
 29 39  1  0  0  0  0
 31 30  1  6  0  0  0
 31 35  1  0  0  0  0
 31 32  1  0  0  0  0
 32 33  1  1  0  0  0
 34 32  1  0  0  0  0
 34 26  1  1  0  0  0
 35 36  1  1  0  0  0
 35 34  1  0  0  0  0
 35 32  1  0  0  0  0
 37 29  1  0  0  0  0
 38 37  1  0  0  0  0
 39 40  1  0  0  0  0
M  END
>  <minimizedAffinity>
-4.72128868

>  <minimizedRMSD>
2.44577575

$$$$
