
 OpenBabel03262521183D

 32 34  0  0  1  0  0  0  0  0999 V2000
   38.2710   32.1820   46.7100 C   0  0  0  0  0  0  0  0  0  0  0  0
   39.5500   32.6940   46.9550 C   0  0  0  0  0  0  0  0  0  0  0  0
   40.2970   33.1720   45.8820 C   0  0  0  0  0  0  0  0  0  0  0  0
   39.7340   33.1130   44.6370 N   0  0  0  0  0  0  0  0  0  0  0  0
   38.4810   32.6050   44.4350 C   0  0  0  0  0  0  0  0  0  0  0  0
   37.7860   32.1570   45.4630 N   0  0  0  0  0  0  0  0  0  0  0  0
   40.0430   32.7650   47.9140 H   0  0  0  0  0  0  0  0  0  0  0  0
   41.2930   33.5780   46.0210 H   0  0  0  0  0  0  0  0  0  0  0  0
   37.6510   31.7460   47.8710 O   0  0  0  0  0  0  0  0  0  0  0  0
   36.6730   30.7830   47.7320 C   0  0  0  0  0  0  0  0  0  0  0  0
   35.6830   31.2940   47.8990 H   0  0  0  0  0  0  0  0  0  0  0  0
   36.5830   30.3490   46.7130 H   0  0  0  0  0  0  0  0  0  0  0  0
   37.0620   29.9390   48.7030 C   0  0  0  0  0  0  0  0  0  0  0  0
   36.1660   29.4190   49.1590 H   0  0  0  0  0  0  0  0  0  0  0  0
   37.6370   29.0410   48.3460 H   0  0  0  0  0  0  0  0  0  0  0  0
   37.8560   30.4950   49.8370 C   0  0  0  0  0  0  0  0  0  0  0  0
   37.7550   31.6030   49.8100 H   0  0  0  0  0  0  0  0  0  0  0  0
   38.9450   30.3030   49.7630 H   0  0  0  0  0  0  0  0  0  0  0  0
   37.2440   29.9550   51.4370 S   0  0  0  0  0  0  0  0  0  0  0  0
   37.5380   30.8550   52.4810 H   0  0  0  0  0  0  0  0  0  0  0  0
   37.8890   32.5510   43.0720 C   0  0  0  0  0  2  0  0  0  0  0  0
   38.4090   31.3040   42.4130 C   0  0  2  0  0  0  0  0  0  0  0  0
   37.4620   30.7060   41.4050 C   0  0  0  0  0  2  0  0  0  0  0  0
   36.4580   29.9640   42.0960 N   0  0  0  0  0  0  0  0  0  0  0  0
   35.1790   29.5040   42.5300 C   0  0  0  0  0  0  0  0  0  0  0  0
   34.0010   29.4440   42.0820 O   0  0  0  0  0  0  0  0  0  0  0  0
   35.8220   29.0970   43.8080 C   0  0  0  0  0  3  0  0  0  0  0  0
   35.8490   29.9570   44.5050 H   0  0  0  0  0  0  0  0  0  0  0  0
   37.0540   29.0000   42.9720 C   0  0  2  0  0  3  0  0  0  0  0  0
   38.4760   29.9570   43.6310 S   0  0  0  0  0  0  0  0  0  0  0  0
   39.7610   31.5890   41.8230 C   0  0  0  0  0  2  0  0  0  0  0  0
   39.8290   31.3530   40.7280 H   0  0  0  0  0  0  0  0  0  0  0  0
  1  2  1  0  0  0  0
  1  9  1  0  0  0  0
  2  7  1  0  0  0  0
  3  8  1  0  0  0  0
  3  2  2  0  0  0  0
  4  3  1  0  0  0  0
  5  4  2  0  0  0  0
  5  6  1  0  0  0  0
  6  1  2  0  0  0  0
 10  9  1  0  0  0  0
 10 11  1  0  0  0  0
 10 13  1  0  0  0  0
 12 10  1  0  0  0  0
 13 14  1  0  0  0  0
 13 16  1  0  0  0  0
 15 13  1  0  0  0  0
 16 19  1  0  0  0  0
 17 16  1  0  0  0  0
 18 16  1  0  0  0  0
 19 20  1  0  0  0  0
 21  5  1  0  0  0  0
 22 31  1  6  0  0  0
 22 21  1  0  0  0  0
 22 30  1  0  0  0  0
 23 24  1  0  0  0  0
 23 22  1  0  0  0  0
 24 25  1  0  0  0  0
 24 29  1  0  0  0  0
 25 27  1  0  0  0  0
 26 25  2  0  0  0  0
 27 28  1  0  0  0  0
 29 30  1  1  0  0  0
 29 27  1  0  0  0  0
 32 31  1  0  0  0  0
M  END
>  <minimizedAffinity>
-4.38437557

>  <minimizedRMSD>
0.81758213

$$$$
