
 OpenBabel03262522043D

 42 46  0  0  1  0  0  0  0  0999 V2000
   37.2770   25.0800   31.5190 C   0  0  2  0  0  0  0  0  0  0  0  0
   37.9650   24.0450   30.7020 C   0  0  0  0  0  0  0  0  0  0  0  0
   38.3070   22.9150   31.5510 N   0  0  0  0  0  0  0  0  0  0  0  0
   38.4540   21.6150   32.1300 C   0  0  0  0  0  0  0  0  0  0  0  0
   38.2560   20.4280   31.7850 O   0  0  0  0  0  0  0  0  0  0  0  0
   38.9680   22.1240   33.4020 C   0  0  1  0  0  0  0  0  0  0  0  0
   39.0740   23.4270   32.6600 C   0  0  2  0  0  0  0  0  0  0  0  0
   37.9160   24.7260   33.2040 S   0  0  0  0  0  0  0  0  0  0  0  0
   37.3370   23.6820   29.8600 H   0  0  0  0  0  0  0  0  0  0  0  0
   38.9380   24.4000   30.2670 H   0  0  0  0  0  0  0  0  0  0  0  0
   40.0090   21.8520   33.7160 H   0  0  0  0  0  0  0  0  0  0  0  0
   40.0820   23.7960   32.4160 H   0  0  0  0  0  0  0  0  0  0  0  0
   35.7870   25.0980   31.4530 C   0  0  0  0  0  0  0  0  0  0  0  0
   35.4830   25.0230   30.4110 H   0  0  0  0  0  0  0  0  0  0  0  0
   35.4350   24.2340   32.0730 H   0  0  0  0  0  0  0  0  0  0  0  0
   35.4230   26.0270   31.9030 H   0  0  0  0  0  0  0  0  0  0  0  0
   37.8720   26.4600   31.1740 C   0  0  0  0  0  0  0  0  0  0  0  0
   38.5510   26.7850   32.0010 H   0  0  0  0  0  0  0  0  0  0  0  0
   38.4070   26.4320   30.2260 H   0  0  0  0  0  0  0  0  0  0  0  0
   35.0720   30.7230   32.3420 C   0  0  0  0  0  0  0  0  0  0  0  0
   36.4300   30.8490   31.6800 C   0  0  0  0  0  2  0  0  0  0  0  0
   36.6870   29.5790   31.0150 N   0  0  0  0  0  0  0  0  0  0  0  0
   36.9280   28.5190   30.0960 C   0  0  0  0  0  0  0  0  0  0  0  0
   37.1950   28.5940   28.8560 O   0  0  0  0  0  0  0  0  0  0  0  0
   36.7420   27.4450   31.1360 C   0  0  2  0  0  3  0  0  0  0  0  0
   36.7740   28.5900   32.0860 C   0  0  2  0  0  3  0  0  0  0  0  0
   35.1750   28.9770   32.9050 S   0  0  0  0  0  0  0  0  0  0  0  0
   35.0260   31.5920   33.5600 C   0  0  0  0  0  2  0  0  0  0  0  0
   34.5090   31.0950   34.4190 H   0  0  0  0  0  0  0  0  0  0  0  0
   33.9220   30.9160   31.3950 C   0  0  0  0  0  2  0  0  0  0  0  0
   33.2630   30.0170   31.4290 H   0  0  0  0  0  0  0  0  0  0  0  0
   38.0150   22.0800   34.5370 C   0  0  0  0  0  0  0  0  0  0  0  0
   36.8650   21.6560   34.2320 O   0  0  0  0  0  0  0  0  0  0  0  0
   38.3800   22.4850   35.8710 C   0  0  0  0  0  0  0  0  0  0  0  0
   39.6890   22.2690   36.2690 C   0  0  0  0  0  0  0  0  0  0  0  0
   40.0580   22.6610   37.5760 C   0  0  0  0  0  0  0  0  0  0  0  0
   39.1030   23.2260   38.3600 N   0  0  0  0  0  0  0  0  0  0  0  0
   37.8500   23.4200   37.9450 C   0  0  0  0  0  0  0  0  0  0  0  0
   37.4860   23.0490   36.7010 N   0  0  0  0  0  0  0  0  0  0  0  0
   40.4000   21.8130   35.5940 H   0  0  0  0  0  0  0  0  0  0  0  0
   41.0900   22.4900   37.8880 H   0  0  0  0  0  0  0  0  0  0  0  0
   37.1720   23.8780   38.6520 H   0  0  0  0  0  0  0  0  0  0  0  0
  1 17  1  6  0  0  0
  1  8  1  0  0  0  0
  2  1  1  0  0  0  0
  2  3  1  0  0  0  0
  3  4  1  0  0  0  0
  3  7  1  0  0  0  0
  4  6  1  0  0  0  0
  5  4  2  0  0  0  0
  6 11  1  1  0  0  0
  6 32  1  0  0  0  0
  7 12  1  6  0  0  0
  7  8  1  0  0  0  0
  7  6  1  0  0  0  0
  9  2  1  0  0  0  0
 10  2  1  0  0  0  0
 13  1  1  0  0  0  0
 13 16  1  0  0  0  0
 13 15  1  0  0  0  0
 14 13  1  0  0  0  0
 17 18  1  0  0  0  0
 19 17  1  0  0  0  0
 20 27  1  0  0  0  0
 20 28  1  0  0  0  0
 21 20  1  0  0  0  0
 22 21  1  0  0  0  0
 22 26  1  0  0  0  0
 23 22  1  0  0  0  0
 23 25  1  0  0  0  0
 24 23  2  0  0  0  0
 25 17  1  1  0  0  0
 25 26  1  0  0  0  0
 26 27  1  1  0  0  0
 28 29  1  0  0  0  0
 30 31  1  0  0  0  0
 30 20  1  0  0  0  0
 32 34  1  0  0  0  0
 33 32  2  0  0  0  0
 34 35  2  0  0  0  0
 34 39  1  0  0  0  0
 35 36  1  0  0  0  0
 36 41  1  0  0  0  0
 36 37  2  0  0  0  0
 38 37  1  0  0  0  0
 38 42  1  0  0  0  0
 39 38  2  0  0  0  0
 40 35  1  0  0  0  0
M  END
>  <minimizedAffinity>
-5.84864092

$$$$

 OpenBabel03262522043D

 42 46  0  0  1  0  0  0  0  0999 V2000
   36.6310   27.8520   32.5820 C   0  0  2  0  0  0  0  0  0  0  0  0
   37.9450   27.8680   31.8860 C   0  0  0  0  0  0  0  0  0  0  0  0
   38.7920   26.8230   32.4410 N   0  0  0  0  0  0  0  0  0  0  0  0
   39.6470   25.6920   32.6300 C   0  0  0  0  0  0  0  0  0  0  0  0
   40.3210   24.9200   31.9120 O   0  0  0  0  0  0  0  0  0  0  0  0
   39.4940   25.6880   34.0860 C   0  0  1  0  0  0  0  0  0  0  0  0
   38.8530   27.0300   33.8670 C   0  0  2  0  0  0  0  0  0  0  0  0
   37.0610   27.0970   34.1990 S   0  0  0  0  0  0  0  0  0  0  0  0
   37.8480   27.7060   30.7920 H   0  0  0  0  0  0  0  0  0  0  0  0
   38.5120   28.8260   32.0360 H   0  0  0  0  0  0  0  0  0  0  0  0
   40.3950   25.8680   34.7270 H   0  0  0  0  0  0  0  0  0  0  0  0
   39.4060   27.9220   34.1980 H   0  0  0  0  0  0  0  0  0  0  0  0
   35.5190   27.1430   31.8850 C   0  0  0  0  0  0  0  0  0  0  0  0
   35.5090   27.4470   30.8410 H   0  0  0  0  0  0  0  0  0  0  0  0
   35.7130   26.0480   32.0180 H   0  0  0  0  0  0  0  0  0  0  0  0
   34.5740   27.3960   32.3770 H   0  0  0  0  0  0  0  0  0  0  0  0
   36.2390   29.3010   32.9360 C   0  0  0  0  0  0  0  0  0  0  0  0
   36.6690   29.5650   33.9330 H   0  0  0  0  0  0  0  0  0  0  0  0
   36.5810   29.9980   32.1720 H   0  0  0  0  0  0  0  0  0  0  0  0
   31.5730   30.5590   34.9400 C   0  0  0  0  0  0  0  0  0  0  0  0
   32.4720   31.6270   34.3500 C   0  0  0  0  0  2  0  0  0  0  0  0
   33.3760   30.9470   33.4310 N   0  0  0  0  0  0  0  0  0  0  0  0
   34.1050   30.4620   32.3100 C   0  0  0  0  0  0  0  0  0  0  0  0
   34.1180   30.9120   31.1210 O   0  0  0  0  0  0  0  0  0  0  0  0
   34.7480   29.3440   33.0880 C   0  0  2  0  0  3  0  0  0  0  0  0
   34.1810   30.0580   34.2640 C   0  0  2  0  0  3  0  0  0  0  0  0
   32.7970   29.2000   35.1140 S   0  0  0  0  0  0  0  0  0  0  0  0
   31.1480   30.9670   36.3170 C   0  0  0  0  0  2  0  0  0  0  0  0
   31.1550   30.1100   37.0370 H   0  0  0  0  0  0  0  0  0  0  0  0
   30.4450   30.1550   34.0340 C   0  0  0  0  0  2  0  0  0  0  0  0
   30.4910   29.0550   33.8590 H   0  0  0  0  0  0  0  0  0  0  0  0
   38.6260   24.6170   34.6320 C   0  0  0  0  0  0  0  0  0  0  0  0
   37.8260   24.1190   33.7910 O   0  0  0  0  0  0  0  0  0  0  0  0
   38.7000   24.1850   36.0050 C   0  0  0  0  0  0  0  0  0  0  0  0
   39.6840   23.2670   36.3340 C   0  0  0  0  0  0  0  0  0  0  0  0
   39.7650   22.8350   37.6780 C   0  0  0  0  0  0  0  0  0  0  0  0
   38.8710   23.3500   38.5620 N   0  0  0  0  0  0  0  0  0  0  0  0
   37.9350   24.2330   38.2110 C   0  0  0  0  0  0  0  0  0  0  0  0
   37.8480   24.6510   36.9330 N   0  0  0  0  0  0  0  0  0  0  0  0
   40.3640   22.8980   35.5800 H   0  0  0  0  0  0  0  0  0  0  0  0
   40.5410   22.1120   37.9350 H   0  0  0  0  0  0  0  0  0  0  0  0
   37.2760   24.5760   38.9970 H   0  0  0  0  0  0  0  0  0  0  0  0
  1 13  1  6  0  0  0
  1 17  1  0  0  0  0
  1  8  1  0  0  0  0
  2 10  1  0  0  0  0
  2  3  1  0  0  0  0
  2  1  1  0  0  0  0
  3  4  1  0  0  0  0
  3  7  1  0  0  0  0
  4  6  1  0  0  0  0
  5  4  2  0  0  0  0
  6 32  1  0  0  0  0
  6 11  1  1  0  0  0
  7  6  1  0  0  0  0
  7 12  1  1  0  0  0
  7  8  1  0  0  0  0
  9  2  1  0  0  0  0
 13 15  1  0  0  0  0
 13 16  1  0  0  0  0
 14 13  1  0  0  0  0
 17 18  1  0  0  0  0
 19 17  1  0  0  0  0
 20 27  1  0  0  0  0
 20 28  1  0  0  0  0
 21 20  1  0  0  0  0
 22 26  1  0  0  0  0
 22 21  1  0  0  0  0
 23 25  1  0  0  0  0
 23 22  1  0  0  0  0
 24 23  2  0  0  0  0
 25 17  1  1  0  0  0
 25 26  1  0  0  0  0
 26 27  1  1  0  0  0
 28 29  1  0  0  0  0
 30 20  1  0  0  0  0
 31 30  1  0  0  0  0
 32 34  1  0  0  0  0
 33 32  2  0  0  0  0
 34 35  2  0  0  0  0
 34 39  1  0  0  0  0
 35 36  1  0  0  0  0
 36 41  1  0  0  0  0
 36 37  2  0  0  0  0
 38 37  1  0  0  0  0
 38 42  1  0  0  0  0
 39 38  2  0  0  0  0
 40 35  1  0  0  0  0
M  END
>  <minimizedAffinity>
-5.55520582

$$$$

 OpenBabel03262522043D

 42 46  0  0  1  0  0  0  0  0999 V2000
   38.4540   25.9630   34.7780 C   0  0  2  0  0  0  0  0  0  0  0  0
   38.0150   25.4180   36.0900 C   0  0  0  0  0  0  0  0  0  0  0  0
   38.7050   24.1620   36.3410 N   0  0  0  0  0  0  0  0  0  0  0  0
   39.4810   23.0990   36.9010 C   0  0  0  0  0  0  0  0  0  0  0  0
   39.9990   22.8250   38.0070 O   0  0  0  0  0  0  0  0  0  0  0  0
   39.5050   22.3220   35.6610 C   0  0  1  0  0  0  0  0  0  0  0  0
   38.4600   23.3030   35.2090 C   0  0  2  0  0  0  0  0  0  0  0  0
   38.9870   24.4470   33.8900 S   0  0  0  0  0  0  0  0  0  0  0  0
   38.2230   26.1140   36.9300 H   0  0  0  0  0  0  0  0  0  0  0  0
   36.9190   25.1710   36.1210 H   0  0  0  0  0  0  0  0  0  0  0  0
   39.0210   21.3120   35.6430 H   0  0  0  0  0  0  0  0  0  0  0  0
   37.4280   22.9370   35.1000 H   0  0  0  0  0  0  0  0  0  0  0  0
   39.5090   27.0180   34.8150 C   0  0  0  0  0  0  0  0  0  0  0  0
   39.2470   27.7470   35.5790 H   0  0  0  0  0  0  0  0  0  0  0  0
   40.4730   26.4890   35.0290 H   0  0  0  0  0  0  0  0  0  0  0  0
   39.5750   27.4880   33.8290 H   0  0  0  0  0  0  0  0  0  0  0  0
   37.2120   26.4380   33.9970 C   0  0  0  0  0  0  0  0  0  0  0  0
   36.8290   25.5970   33.3690 H   0  0  0  0  0  0  0  0  0  0  0  0
   36.4380   26.7980   34.6720 H   0  0  0  0  0  0  0  0  0  0  0  0
   38.3170   28.7870   29.4550 C   0  0  0  0  0  0  0  0  0  0  0  0
   36.8970   28.3740   29.7840 C   0  0  0  0  0  2  0  0  0  0  0  0
   36.8190   28.2740   31.2350 N   0  0  0  0  0  0  0  0  0  0  0  0
   36.5330   28.4230   32.6210 C   0  0  0  0  0  0  0  0  0  0  0  0
   35.6200   29.1150   33.1700 O   0  0  0  0  0  0  0  0  0  0  0  0
   37.6550   27.5130   33.0500 C   0  0  2  0  0  3  0  0  0  0  0  0
   37.7240   27.1870   31.5990 C   0  0  2  0  0  3  0  0  0  0  0  0
   39.2150   27.8080   30.7230 S   0  0  0  0  0  0  0  0  0  0  0  0
   38.6970   28.2470   28.1110 C   0  0  0  0  0  2  0  0  0  0  0  0
   39.7450   27.8540   28.0890 H   0  0  0  0  0  0  0  0  0  0  0  0
   38.5710   30.2570   29.6290 C   0  0  0  0  0  2  0  0  0  0  0  0
   39.4190   30.4010   30.3390 H   0  0  0  0  0  0  0  0  0  0  0  0
   40.7930   22.3360   34.9260 C   0  0  0  0  0  0  0  0  0  0  0  0
   40.8060   21.6110   33.8910 O   0  0  0  0  0  0  0  0  0  0  0  0
   41.9240   23.1160   35.3590 C   0  0  0  0  0  0  0  0  0  0  0  0
   42.8860   22.4770   36.1250 C   0  0  0  0  0  0  0  0  0  0  0  0
   44.0000   23.2330   36.5560 C   0  0  0  0  0  0  0  0  0  0  0  0
   44.0560   24.5410   36.1910 N   0  0  0  0  0  0  0  0  0  0  0  0
   43.1110   25.1250   35.4530 C   0  0  0  0  0  0  0  0  0  0  0  0
   42.0440   24.4150   35.0360 N   0  0  0  0  0  0  0  0  0  0  0  0
   42.7790   21.4320   36.3800 H   0  0  0  0  0  0  0  0  0  0  0  0
   44.7570   22.7280   37.1590 H   0  0  0  0  0  0  0  0  0  0  0  0
   43.2580   26.1720   35.2210 H   0  0  0  0  0  0  0  0  0  0  0  0
  1 17  1  6  0  0  0
  1 13  1  0  0  0  0
  1  2  1  0  0  0  0
  2 10  1  0  0  0  0
  2  3  1  0  0  0  0
  2  9  1  0  0  0  0
  3  4  1  0  0  0  0
  4  5  2  0  0  0  0
  6 11  1  1  0  0  0
  6  4  1  0  0  0  0
  7 12  1  6  0  0  0
  7  6  1  0  0  0  0
  7  3  1  0  0  0  0
  8  1  1  0  0  0  0
  8  7  1  0  0  0  0
 13 15  1  0  0  0  0
 13 14  1  0  0  0  0
 16 13  1  0  0  0  0
 17 19  1  0  0  0  0
 18 17  1  0  0  0  0
 20 30  1  0  0  0  0
 20 21  1  0  0  0  0
 20 27  1  0  0  0  0
 21 22  1  0  0  0  0
 22 26  1  0  0  0  0
 22 23  1  0  0  0  0
 23 25  1  0  0  0  0
 23 24  2  0  0  0  0
 25 17  1  1  0  0  0
 26 27  1  6  0  0  0
 26 25  1  0  0  0  0
 28 20  1  0  0  0  0
 29 28  1  0  0  0  0
 30 31  1  0  0  0  0
 32 34  1  0  0  0  0
 32  6  1  0  0  0  0
 33 32  2  0  0  0  0
 34 35  1  0  0  0  0
 35 40  1  0  0  0  0
 35 36  2  0  0  0  0
 36 41  1  0  0  0  0
 37 36  1  0  0  0  0
 38 37  2  0  0  0  0
 39 34  2  0  0  0  0
 39 38  1  0  0  0  0
 42 38  1  0  0  0  0
M  END
>  <minimizedAffinity>
-5.54824877

$$$$

 OpenBabel03262522043D

 42 46  0  0  1  0  0  0  0  0999 V2000
   39.0550   25.5670   34.4450 C   0  0  2  0  0  0  0  0  0  0  0  0
   37.9610   25.1830   35.3770 C   0  0  0  0  0  0  0  0  0  0  0  0
   38.4220   24.1020   36.2350 N   0  0  0  0  0  0  0  0  0  0  0  0
   38.7710   23.2720   37.3470 C   0  0  0  0  0  0  0  0  0  0  0  0
   38.5710   23.2600   38.5820 O   0  0  0  0  0  0  0  0  0  0  0  0
   39.5230   22.3160   36.5330 C   0  0  1  0  0  0  0  0  0  0  0  0
   38.8940   23.0430   35.3760 C   0  0  2  0  0  0  0  0  0  0  0  0
   40.0460   24.0240   34.3580 S   0  0  0  0  0  0  0  0  0  0  0  0
   37.6300   26.0290   36.0160 H   0  0  0  0  0  0  0  0  0  0  0  0
   37.0530   24.7830   34.8500 H   0  0  0  0  0  0  0  0  0  0  0  0
   39.1670   21.2550   36.4710 H   0  0  0  0  0  0  0  0  0  0  0  0
   38.1220   22.5140   34.7990 H   0  0  0  0  0  0  0  0  0  0  0  0
   39.8660   26.7590   34.8290 C   0  0  0  0  0  0  0  0  0  0  0  0
   39.1930   27.5550   35.1380 H   0  0  0  0  0  0  0  0  0  0  0  0
   40.5500   26.4230   35.6490 H   0  0  0  0  0  0  0  0  0  0  0  0
   40.4700   27.0680   33.9700 H   0  0  0  0  0  0  0  0  0  0  0  0
   38.4690   25.7180   33.0280 C   0  0  0  0  0  0  0  0  0  0  0  0
   39.1280   26.3920   32.4260 H   0  0  0  0  0  0  0  0  0  0  0  0
   38.3630   24.7500   32.5410 H   0  0  0  0  0  0  0  0  0  0  0  0
   34.9660   29.6010   32.8850 C   0  0  0  0  0  0  0  0  0  0  0  0
   35.6410   29.1250   31.6150 C   0  0  0  0  0  2  0  0  0  0  0  0
   36.0960   27.7650   31.8720 N   0  0  0  0  0  0  0  0  0  0  0  0
   36.3270   26.3610   31.8910 C   0  0  0  0  0  0  0  0  0  0  0  0
   35.9210   25.4820   31.0680 O   0  0  0  0  0  0  0  0  0  0  0  0
   37.1470   26.4140   33.1540 C   0  0  2  0  0  3  0  0  0  0  0  0
   37.1020   27.8840   32.9250 C   0  0  2  0  0  3  0  0  0  0  0  0
   36.0860   28.8360   34.1240 S   0  0  0  0  0  0  0  0  0  0  0  0
   35.1090   31.0880   33.0000 C   0  0  0  0  0  2  0  0  0  0  0  0
   35.3340   31.4150   34.0460 H   0  0  0  0  0  0  0  0  0  0  0  0
   33.5610   29.0970   33.0450 C   0  0  0  0  0  2  0  0  0  0  0  0
   33.4740   28.5520   34.0150 H   0  0  0  0  0  0  0  0  0  0  0  0
   40.9980   22.4020   36.6500 C   0  0  0  0  0  0  0  0  0  0  0  0
   41.4150   23.4760   37.1700 O   0  0  0  0  0  0  0  0  0  0  0  0
   41.8740   21.3460   36.2090 C   0  0  0  0  0  0  0  0  0  0  0  0
   42.4610   20.5540   37.1830 C   0  0  0  0  0  0  0  0  0  0  0  0
   43.3220   19.5150   36.7610 C   0  0  0  0  0  0  0  0  0  0  0  0
   43.5190   19.3590   35.4260 N   0  0  0  0  0  0  0  0  0  0  0  0
   42.9370   20.1400   34.5150 C   0  0  0  0  0  0  0  0  0  0  0  0
   42.1150   21.1340   34.9040 N   0  0  0  0  0  0  0  0  0  0  0  0
   42.2610   20.7330   38.2290 H   0  0  0  0  0  0  0  0  0  0  0  0
   43.7840   18.8920   37.5300 H   0  0  0  0  0  0  0  0  0  0  0  0
   43.1640   19.9260   33.4790 H   0  0  0  0  0  0  0  0  0  0  0  0
  1 17  1  6  0  0  0
  1 13  1  0  0  0  0
  1  2  1  0  0  0  0
  2  9  1  0  0  0  0
  2  3  1  0  0  0  0
  3  4  1  0  0  0  0
  4  5  2  0  0  0  0
  6 11  1  1  0  0  0
  6 32  1  0  0  0  0
  6  4  1  0  0  0  0
  7 12  1  6  0  0  0
  7  3  1  0  0  0  0
  7  6  1  0  0  0  0
  8  1  1  0  0  0  0
  8  7  1  0  0  0  0
 10  2  1  0  0  0  0
 13 14  1  0  0  0  0
 13 15  1  0  0  0  0
 16 13  1  0  0  0  0
 18 17  1  0  0  0  0
 19 17  1  0  0  0  0
 20 28  1  0  0  0  0
 20 30  1  0  0  0  0
 20 27  1  0  0  0  0
 21 22  1  0  0  0  0
 21 20  1  0  0  0  0
 22 23  1  0  0  0  0
 22 26  1  0  0  0  0
 23 25  1  0  0  0  0
 24 23  2  0  0  0  0
 25 17  1  6  0  0  0
 26 25  1  0  0  0  0
 26 27  1  1  0  0  0
 28 29  1  0  0  0  0
 30 31  1  0  0  0  0
 32 33  2  0  0  0  0
 34 32  1  0  0  0  0
 34 35  1  0  0  0  0
 35 40  1  0  0  0  0
 36 35  2  0  0  0  0
 36 41  1  0  0  0  0
 37 36  1  0  0  0  0
 38 39  1  0  0  0  0
 38 37  2  0  0  0  0
 39 34  2  0  0  0  0
 42 38  1  0  0  0  0
M  END
>  <minimizedAffinity>
-5.51118374

$$$$

 OpenBabel03262522043D

 42 46  0  0  1  0  0  0  0  0999 V2000
   38.8690   25.1980   34.4010 C   0  0  2  0  0  0  0  0  0  0  0  0
   38.0000   24.8900   35.5680 C   0  0  0  0  0  0  0  0  0  0  0  0
   38.6640   23.9080   36.4120 N   0  0  0  0  0  0  0  0  0  0  0  0
   39.2580   23.1990   37.5030 C   0  0  0  0  0  0  0  0  0  0  0  0
   39.3120   23.3080   38.7480 O   0  0  0  0  0  0  0  0  0  0  0  0
   39.8660   22.1800   36.6470 C   0  0  1  0  0  0  0  0  0  0  0  0
   38.9920   22.7770   35.5790 C   0  0  2  0  0  0  0  0  0  0  0  0
   39.8780   23.6700   34.2600 S   0  0  0  0  0  0  0  0  0  0  0  0
   37.7730   25.7900   36.1780 H   0  0  0  0  0  0  0  0  0  0  0  0
   37.0200   24.4250   35.2770 H   0  0  0  0  0  0  0  0  0  0  0  0
   39.5440   21.1120   36.7590 H   0  0  0  0  0  0  0  0  0  0  0  0
   38.1380   22.1800   35.2240 H   0  0  0  0  0  0  0  0  0  0  0  0
   39.6960   26.4360   34.4970 C   0  0  0  0  0  0  0  0  0  0  0  0
   39.0710   27.2470   34.8610 H   0  0  0  0  0  0  0  0  0  0  0  0
   40.5440   26.1940   35.1880 H   0  0  0  0  0  0  0  0  0  0  0  0
   40.1040   26.6670   33.5070 H   0  0  0  0  0  0  0  0  0  0  0  0
   38.0050   25.1970   33.1250 C   0  0  0  0  0  0  0  0  0  0  0  0
   36.9520   25.4610   33.3920 H   0  0  0  0  0  0  0  0  0  0  0  0
   38.3990   25.8910   32.3830 H   0  0  0  0  0  0  0  0  0  0  0  0
   36.0320   20.5840   31.6430 C   0  0  0  0  0  0  0  0  0  0  0  0
   35.6580   21.8540   30.9070 C   0  0  0  0  0  2  0  0  0  0  0  0
   36.7240   22.8130   31.1670 N   0  0  0  0  0  0  0  0  0  0  0  0
   37.8140   23.7250   31.1020 C   0  0  0  0  0  0  0  0  0  0  0  0
   38.3630   24.2280   30.0720 O   0  0  0  0  0  0  0  0  0  0  0  0
   37.9740   23.7940   32.5980 C   0  0  2  0  0  3  0  0  0  0  0  0
   36.6740   23.0680   32.6040 C   0  0  2  0  0  3  0  0  0  0  0  0
   36.7510   21.3200   33.1650 S   0  0  0  0  0  0  0  0  0  0  0  0
   34.7870   19.8500   32.0380 C   0  0  0  0  0  2  0  0  0  0  0  0
   34.8550   19.4180   33.0680 H   0  0  0  0  0  0  0  0  0  0  0  0
   37.0450   19.7450   30.9190 C   0  0  0  0  0  2  0  0  0  0  0  0
   37.9260   19.5780   31.5840 H   0  0  0  0  0  0  0  0  0  0  0  0
   41.3310   22.3020   36.4520 C   0  0  0  0  0  0  0  0  0  0  0  0
   41.7890   23.4580   36.6740 O   0  0  0  0  0  0  0  0  0  0  0  0
   42.1540   21.1900   36.0480 C   0  0  0  0  0  0  0  0  0  0  0  0
   42.6510   20.3670   37.0460 C   0  0  0  0  0  0  0  0  0  0  0  0
   43.4600   19.2740   36.6610 C   0  0  0  0  0  0  0  0  0  0  0  0
   43.7000   19.1000   35.3350 N   0  0  0  0  0  0  0  0  0  0  0  0
   43.2060   19.9130   34.4000 C   0  0  0  0  0  0  0  0  0  0  0  0
   42.4330   20.9590   34.7540 N   0  0  0  0  0  0  0  0  0  0  0  0
   42.4210   20.5630   38.0840 H   0  0  0  0  0  0  0  0  0  0  0  0
   43.8500   18.6260   37.4480 H   0  0  0  0  0  0  0  0  0  0  0  0
   43.4600   19.6800   33.3740 H   0  0  0  0  0  0  0  0  0  0  0  0
  1 17  1  6  0  0  0
  1 13  1  0  0  0  0
  1  2  1  0  0  0  0
  2  9  1  0  0  0  0
  2  3  1  0  0  0  0
  3  4  1  0  0  0  0
  4  5  2  0  0  0  0
  6 11  1  1  0  0  0
  6  4  1  0  0  0  0
  7 12  1  6  0  0  0
  7  3  1  0  0  0  0
  7  6  1  0  0  0  0
  8  1  1  0  0  0  0
  8  7  1  0  0  0  0
 10  2  1  0  0  0  0
 13 14  1  0  0  0  0
 13 15  1  0  0  0  0
 16 13  1  0  0  0  0
 17 18  1  0  0  0  0
 19 17  1  0  0  0  0
 20 28  1  0  0  0  0
 20 27  1  0  0  0  0
 21 22  1  0  0  0  0
 21 20  1  0  0  0  0
 22 26  1  0  0  0  0
 23 22  1  0  0  0  0
 23 25  1  0  0  0  0
 24 23  2  0  0  0  0
 25 26  1  0  0  0  0
 25 17  1  1  0  0  0
 26 27  1  1  0  0  0
 28 29  1  0  0  0  0
 30 31  1  0  0  0  0
 30 20  1  0  0  0  0
 32  6  1  0  0  0  0
 32 33  2  0  0  0  0
 34 32  1  0  0  0  0
 34 35  1  0  0  0  0
 35 40  1  0  0  0  0
 36 35  2  0  0  0  0
 36 41  1  0  0  0  0
 37 36  1  0  0  0  0
 38 39  1  0  0  0  0
 38 37  2  0  0  0  0
 39 34  2  0  0  0  0
 42 38  1  0  0  0  0
M  END
>  <minimizedAffinity>
-5.47119617

$$$$

 OpenBabel03262522043D

 42 46  0  0  1  0  0  0  0  0999 V2000
   37.3880   26.5750   31.7960 C   0  0  2  0  0  0  0  0  0  0  0  0
   38.5470   27.5060   31.7760 C   0  0  0  0  0  0  0  0  0  0  0  0
   39.5190   27.0820   32.7720 N   0  0  0  0  0  0  0  0  0  0  0  0
   40.7040   26.6680   33.4590 C   0  0  0  0  0  0  0  0  0  0  0  0
   41.9310   26.6110   33.2200 O   0  0  0  0  0  0  0  0  0  0  0  0
   39.9900   26.2810   34.6760 C   0  0  1  0  0  0  0  0  0  0  0  0
   38.8300   26.9910   34.0350 C   0  0  2  0  0  0  0  0  0  0  0  0
   37.4550   25.9150   33.5080 S   0  0  0  0  0  0  0  0  0  0  0  0
   39.0450   27.5440   30.7840 H   0  0  0  0  0  0  0  0  0  0  0  0
   38.2720   28.5590   32.0540 H   0  0  0  0  0  0  0  0  0  0  0  0
   40.2060   26.8260   35.6310 H   0  0  0  0  0  0  0  0  0  0  0  0
   38.5090   27.9480   34.4750 H   0  0  0  0  0  0  0  0  0  0  0  0
   37.3790   25.5030   30.7590 C   0  0  0  0  0  0  0  0  0  0  0  0
   37.6270   25.9450   29.7970 H   0  0  0  0  0  0  0  0  0  0  0  0
   38.1260   24.7370   31.0920 H   0  0  0  0  0  0  0  0  0  0  0  0
   36.3870   25.0410   30.7350 H   0  0  0  0  0  0  0  0  0  0  0  0
   36.0870   27.4000   31.7620 C   0  0  0  0  0  0  0  0  0  0  0  0
   35.6260   27.3200   30.7470 H   0  0  0  0  0  0  0  0  0  0  0  0
   35.3900   27.0650   32.5290 H   0  0  0  0  0  0  0  0  0  0  0  0
   35.8910   32.6000   31.2240 C   0  0  0  0  0  0  0  0  0  0  0  0
   34.7460   31.8490   31.8730 C   0  0  0  0  0  2  0  0  0  0  0  0
   35.2980   30.5900   32.3580 N   0  0  0  0  0  0  0  0  0  0  0  0
   35.7600   29.4830   33.1220 C   0  0  0  0  0  0  0  0  0  0  0  0
   35.5760   29.2430   34.3570 O   0  0  0  0  0  0  0  0  0  0  0  0
   36.4570   28.8400   31.9520 C   0  0  2  0  0  3  0  0  0  0  0  0
   35.7210   29.8660   31.1620 C   0  0  2  0  0  3  0  0  0  0  0  0
   36.7620   31.1910   30.4300 S   0  0  0  0  0  0  0  0  0  0  0  0
   35.3580   33.4780   30.1330 C   0  0  0  0  0  2  0  0  0  0  0  0
   36.0110   33.4720   29.2240 H   0  0  0  0  0  0  0  0  0  0  0  0
   36.7830   33.3010   32.2070 C   0  0  0  0  0  2  0  0  0  0  0  0
   37.8330   32.9510   32.0640 H   0  0  0  0  0  0  0  0  0  0  0  0
   39.8400   24.8220   34.8900 C   0  0  0  0  0  0  0  0  0  0  0  0
   40.1050   24.1190   33.8730 O   0  0  0  0  0  0  0  0  0  0  0  0
   39.4320   24.2610   36.1530 C   0  0  0  0  0  0  0  0  0  0  0  0
   40.2010   23.2360   36.6760 C   0  0  0  0  0  0  0  0  0  0  0  0
   39.8090   22.6780   37.9150 C   0  0  0  0  0  0  0  0  0  0  0  0
   38.7000   23.1860   38.5140 N   0  0  0  0  0  0  0  0  0  0  0  0
   37.9810   24.1750   37.9820 C   0  0  0  0  0  0  0  0  0  0  0  0
   38.3440   24.7140   36.8010 N   0  0  0  0  0  0  0  0  0  0  0  0
   41.0740   22.8790   36.1470 H   0  0  0  0  0  0  0  0  0  0  0  0
   40.4170   21.8710   38.3260 H   0  0  0  0  0  0  0  0  0  0  0  0
   37.1170   24.5010   38.5440 H   0  0  0  0  0  0  0  0  0  0  0  0
  1 13  1  6  0  0  0
  1  8  1  0  0  0  0
  2  1  1  0  0  0  0
  2 10  1  0  0  0  0
  2  3  1  0  0  0  0
  3  4  1  0  0  0  0
  3  7  1  0  0  0  0
  4  6  1  0  0  0  0
  5  4  2  0  0  0  0
  6 32  1  0  0  0  0
  6 11  1  1  0  0  0
  7 12  1  1  0  0  0
  7  6  1  0  0  0  0
  8  7  1  0  0  0  0
  9  2  1  0  0  0  0
 13 15  1  0  0  0  0
 14 13  1  0  0  0  0
 16 13  1  0  0  0  0
 17  1  1  0  0  0  0
 17 19  1  0  0  0  0
 18 17  1  0  0  0  0
 20 21  1  0  0  0  0
 20 30  1  0  0  0  0
 21 22  1  0  0  0  0
 22 23  1  0  0  0  0
 23 24  2  0  0  0  0
 25 17  1  6  0  0  0
 25 23  1  0  0  0  0
 26 27  1  6  0  0  0
 26 25  1  0  0  0  0
 26 22  1  0  0  0  0
 27 20  1  0  0  0  0
 28 20  1  0  0  0  0
 29 28  1  0  0  0  0
 31 30  1  0  0  0  0
 32 34  1  0  0  0  0
 33 32  2  0  0  0  0
 34 35  2  0  0  0  0
 34 39  1  0  0  0  0
 35 36  1  0  0  0  0
 36 41  1  0  0  0  0
 36 37  2  0  0  0  0
 38 37  1  0  0  0  0
 38 42  1  0  0  0  0
 39 38  2  0  0  0  0
 40 35  1  0  0  0  0
M  END
>  <minimizedAffinity>
-5.37437344

$$$$

 OpenBabel03262522043D

 42 46  0  0  1  0  0  0  0  0999 V2000
   38.5010   25.6340   34.2910 C   0  0  2  0  0  0  0  0  0  0  0  0
   37.3270   26.3590   33.7360 C   0  0  0  0  0  0  0  0  0  0  0  0
   36.8320   25.6450   32.5690 N   0  0  0  0  0  0  0  0  0  0  0  0
   36.0260   24.9520   31.6120 C   0  0  0  0  0  0  0  0  0  0  0  0
   34.8090   24.7320   31.4240 O   0  0  0  0  0  0  0  0  0  0  0  0
   37.1690   24.5150   30.8090 C   0  0  1  0  0  0  0  0  0  0  0  0
   37.9390   25.4870   31.6590 C   0  0  2  0  0  0  0  0  0  0  0  0
   39.1280   24.7330   32.8190 S   0  0  0  0  0  0  0  0  0  0  0  0
   36.5010   26.4570   34.4720 H   0  0  0  0  0  0  0  0  0  0  0  0
   37.5790   27.3920   33.3730 H   0  0  0  0  0  0  0  0  0  0  0  0
   37.2620   24.8760   29.7530 H   0  0  0  0  0  0  0  0  0  0  0  0
   38.3010   26.4100   31.1810 H   0  0  0  0  0  0  0  0  0  0  0  0
   38.2380   24.7370   35.4540 C   0  0  0  0  0  0  0  0  0  0  0  0
   37.6150   25.2660   36.1700 H   0  0  0  0  0  0  0  0  0  0  0  0
   37.7450   23.8210   35.0390 H   0  0  0  0  0  0  0  0  0  0  0  0
   39.1940   24.4490   35.9030 H   0  0  0  0  0  0  0  0  0  0  0  0
   39.6110   26.6540   34.6080 C   0  0  0  0  0  0  0  0  0  0  0  0
   39.2920   27.6670   34.2580 H   0  0  0  0  0  0  0  0  0  0  0  0
   39.8380   26.6700   35.6730 H   0  0  0  0  0  0  0  0  0  0  0  0
   44.2680   27.1520   32.2770 C   0  0  0  0  0  0  0  0  0  0  0  0
   44.1520   27.2060   33.7870 C   0  0  0  0  0  2  0  0  0  0  0  0
   42.9140   26.5190   34.1330 N   0  0  0  0  0  0  0  0  0  0  0  0
   41.9060   25.6400   34.6160 C   0  0  0  0  0  0  0  0  0  0  0  0
   42.0210   24.6870   35.4490 O   0  0  0  0  0  0  0  0  0  0  0  0
   40.8160   26.2820   33.7980 C   0  0  2  0  0  3  0  0  0  0  0  0
   41.8470   27.3260   33.5480 C   0  0  2  0  0  3  0  0  0  0  0  0
   42.5020   27.3910   31.8320 S   0  0  0  0  0  0  0  0  0  0  0  0
   45.0260   28.3490   31.7910 C   0  0  0  0  0  2  0  0  0  0  0  0
   44.5840   28.7830   30.8580 H   0  0  0  0  0  0  0  0  0  0  0  0
   44.7810   25.8380   31.7600 C   0  0  0  0  0  2  0  0  0  0  0  0
   44.0450   25.4160   31.0360 H   0  0  0  0  0  0  0  0  0  0  0  0
   37.5310   23.0840   30.9430 C   0  0  0  0  0  0  0  0  0  0  0  0
   38.5630   22.7470   30.2960 O   0  0  0  0  0  0  0  0  0  0  0  0
   36.7680   22.1640   31.7480 C   0  0  0  0  0  0  0  0  0  0  0  0
   35.7750   21.4330   31.1170 C   0  0  0  0  0  0  0  0  0  0  0  0
   35.0200   20.5280   31.8980 C   0  0  0  0  0  0  0  0  0  0  0  0
   35.3180   20.4330   33.2200 N   0  0  0  0  0  0  0  0  0  0  0  0
   36.2820   21.1530   33.7970 C   0  0  0  0  0  0  0  0  0  0  0  0
   37.0080   22.0190   33.0630 N   0  0  0  0  0  0  0  0  0  0  0  0
   35.5900   21.5580   30.0600 H   0  0  0  0  0  0  0  0  0  0  0  0
   34.2380   19.9530   31.3990 H   0  0  0  0  0  0  0  0  0  0  0  0
   36.4330   20.9970   34.8570 H   0  0  0  0  0  0  0  0  0  0  0  0
  1 17  1  1  0  0  0
  1 13  1  0  0  0  0
  2  1  1  0  0  0  0
  2  9  1  0  0  0  0
  3  2  1  0  0  0  0
  4  3  1  0  0  0  0
  5  4  2  0  0  0  0
  6 11  1  6  0  0  0
  6 32  1  0  0  0  0
  6  4  1  0  0  0  0
  6  7  1  0  0  0  0
  7 12  1  6  0  0  0
  7  3  1  0  0  0  0
  7  8  1  0  0  0  0
  8  1  1  0  0  0  0
 10  2  1  0  0  0  0
 13 16  1  0  0  0  0
 13 14  1  0  0  0  0
 15 13  1  0  0  0  0
 17 19  1  0  0  0  0
 18 17  1  0  0  0  0
 20 21  1  0  0  0  0
 21 22  1  0  0  0  0
 22 23  1  0  0  0  0
 23 24  2  0  0  0  0
 25 17  1  1  0  0  0
 25 23  1  0  0  0  0
 26 27  1  6  0  0  0
 26 25  1  0  0  0  0
 26 22  1  0  0  0  0
 27 20  1  0  0  0  0
 28 20  1  0  0  0  0
 29 28  1  0  0  0  0
 30 20  1  0  0  0  0
 31 30  1  0  0  0  0
 32 34  1  0  0  0  0
 33 32  2  0  0  0  0
 34 39  1  0  0  0  0
 35 34  2  0  0  0  0
 35 36  1  0  0  0  0
 36 37  2  0  0  0  0
 37 38  1  0  0  0  0
 38 42  1  0  0  0  0
 39 38  2  0  0  0  0
 40 35  1  0  0  0  0
 41 36  1  0  0  0  0
M  END
>  <minimizedAffinity>
-5.34582806

$$$$

 OpenBabel03262522043D

 42 46  0  0  1  0  0  0  0  0999 V2000
   36.7840   27.4480   32.4500 C   0  0  2  0  0  0  0  0  0  0  0  0
   38.2080   27.6190   32.0590 C   0  0  0  0  0  0  0  0  0  0  0  0
   39.0610   27.1030   33.1190 N   0  0  0  0  0  0  0  0  0  0  0  0
   40.0400   26.3950   33.8840 C   0  0  0  0  0  0  0  0  0  0  0  0
   41.0290   25.6630   33.6570 O   0  0  0  0  0  0  0  0  0  0  0  0
   39.4920   26.8170   35.1740 C   0  0  1  0  0  0  0  0  0  0  0  0
   38.6780   27.7680   34.3400 C   0  0  2  0  0  0  0  0  0  0  0  0
   36.8900   27.4160   34.2830 S   0  0  0  0  0  0  0  0  0  0  0  0
   38.4560   27.0920   31.1130 H   0  0  0  0  0  0  0  0  0  0  0  0
   38.5050   28.6950   31.9310 H   0  0  0  0  0  0  0  0  0  0  0  0
   40.1210   27.4490   35.8520 H   0  0  0  0  0  0  0  0  0  0  0  0
   38.9240   28.8390   34.4000 H   0  0  0  0  0  0  0  0  0  0  0  0
   36.0780   26.2610   31.8870 C   0  0  0  0  0  0  0  0  0  0  0  0
   36.2980   26.1950   30.8240 H   0  0  0  0  0  0  0  0  0  0  0  0
   36.4450   25.3740   32.4640 H   0  0  0  0  0  0  0  0  0  0  0  0
   35.0030   26.3730   32.0580 H   0  0  0  0  0  0  0  0  0  0  0  0
   36.0240   28.7530   32.1400 C   0  0  0  0  0  0  0  0  0  0  0  0
   36.7560   29.5430   31.8400 H   0  0  0  0  0  0  0  0  0  0  0  0
   35.2820   28.5990   31.3590 H   0  0  0  0  0  0  0  0  0  0  0  0
   34.3690   32.0630   35.8390 C   0  0  0  0  0  0  0  0  0  0  0  0
   33.7840   32.1120   34.4420 C   0  0  0  0  0  2  0  0  0  0  0  0
   34.0140   30.8010   33.8490 N   0  0  0  0  0  0  0  0  0  0  0  0
   33.9150   29.5050   33.2720 C   0  0  0  0  0  0  0  0  0  0  0  0
   32.8800   28.9130   32.8310 O   0  0  0  0  0  0  0  0  0  0  0  0
   35.3870   29.2210   33.4140 C   0  0  2  0  0  3  0  0  0  0  0  0
   35.4650   30.6700   33.7490 C   0  0  2  0  0  3  0  0  0  0  0  0
   35.8660   31.0520   35.5010 S   0  0  0  0  0  0  0  0  0  0  0  0
   34.8260   33.4320   36.2390 C   0  0  0  0  0  2  0  0  0  0  0  0
   35.8040   33.4130   36.7830 H   0  0  0  0  0  0  0  0  0  0  0  0
   33.4780   31.3860   36.8400 C   0  0  0  0  0  2  0  0  0  0  0  0
   34.0330   30.5430   37.3160 H   0  0  0  0  0  0  0  0  0  0  0  0
   38.7410   25.7770   35.9190 C   0  0  0  0  0  0  0  0  0  0  0  0
   38.1470   26.2050   36.9480 O   0  0  0  0  0  0  0  0  0  0  0  0
   38.6960   24.4010   35.4930 C   0  0  0  0  0  0  0  0  0  0  0  0
   39.4780   23.4920   36.1860 C   0  0  0  0  0  0  0  0  0  0  0  0
   39.4410   22.1390   35.7770 C   0  0  0  0  0  0  0  0  0  0  0  0
   38.6400   21.8170   34.7280 N   0  0  0  0  0  0  0  0  0  0  0  0
   37.8990   22.7190   34.0820 C   0  0  0  0  0  0  0  0  0  0  0  0
   37.9260   24.0120   34.4630 N   0  0  0  0  0  0  0  0  0  0  0  0
   40.0940   23.8160   37.0130 H   0  0  0  0  0  0  0  0  0  0  0  0
   40.0580   21.4240   36.3240 H   0  0  0  0  0  0  0  0  0  0  0  0
   37.2980   22.3520   33.2610 H   0  0  0  0  0  0  0  0  0  0  0  0
  1 13  1  6  0  0  0
  1  8  1  0  0  0  0
  2  1  1  0  0  0  0
  2  3  1  0  0  0  0
  3  4  1  0  0  0  0
  3  7  1  0  0  0  0
  4  6  1  0  0  0  0
  5  4  2  0  0  0  0
  6 11  1  1  0  0  0
  6 32  1  0  0  0  0
  7 12  1  1  0  0  0
  7  6  1  0  0  0  0
  8  7  1  0  0  0  0
  9  2  1  0  0  0  0
 10  2  1  0  0  0  0
 13 16  1  0  0  0  0
 13 15  1  0  0  0  0
 14 13  1  0  0  0  0
 17  1  1  0  0  0  0
 18 17  1  0  0  0  0
 19 17  1  0  0  0  0
 20 28  1  0  0  0  0
 20 30  1  0  0  0  0
 21 20  1  0  0  0  0
 22 21  1  0  0  0  0
 23 25  1  0  0  0  0
 23 22  1  0  0  0  0
 24 23  2  0  0  0  0
 25 17  1  6  0  0  0
 25 26  1  0  0  0  0
 26 22  1  0  0  0  0
 26 27  1  1  0  0  0
 27 20  1  0  0  0  0
 28 29  1  0  0  0  0
 30 31  1  0  0  0  0
 32 33  2  0  0  0  0
 34 32  1  0  0  0  0
 34 35  1  0  0  0  0
 35 40  1  0  0  0  0
 36 35  2  0  0  0  0
 36 41  1  0  0  0  0
 37 36  1  0  0  0  0
 38 39  1  0  0  0  0
 38 37  2  0  0  0  0
 39 34  2  0  0  0  0
 42 38  1  0  0  0  0
M  END
>  <minimizedAffinity>
-5.3129673

$$$$

 OpenBabel03262522043D

 42 46  0  0  1  0  0  0  0  0999 V2000
   38.3880   26.9630   31.8750 C   0  0  2  0  0  0  0  0  0  0  0  0
   38.3940   28.0300   30.8390 C   0  0  0  0  0  0  0  0  0  0  0  0
   37.3160   28.9680   31.1110 N   0  0  0  0  0  0  0  0  0  0  0  0
   36.5330   30.1370   31.3690 C   0  0  0  0  0  0  0  0  0  0  0  0
   36.6920   31.3770   31.3210 O   0  0  0  0  0  0  0  0  0  0  0  0
   35.3400   29.3810   31.7540 C   0  0  1  0  0  0  0  0  0  0  0  0
   36.0950   28.2060   31.1960 C   0  0  2  0  0  0  0  0  0  0  0  0
   36.6370   26.9760   32.4280 S   0  0  0  0  0  0  0  0  0  0  0  0
   39.3540   28.5880   30.8090 H   0  0  0  0  0  0  0  0  0  0  0  0
   38.2000   27.6400   29.8030 H   0  0  0  0  0  0  0  0  0  0  0  0
   34.4100   29.4820   31.1380 H   0  0  0  0  0  0  0  0  0  0  0  0
   35.7360   27.7700   30.2520 H   0  0  0  0  0  0  0  0  0  0  0  0
   39.3540   27.1230   33.0000 C   0  0  0  0  0  0  0  0  0  0  0  0
   40.3250   27.3930   32.5900 H   0  0  0  0  0  0  0  0  0  0  0  0
   38.9290   27.9130   33.6700 H   0  0  0  0  0  0  0  0  0  0  0  0
   39.4110   26.1820   33.5560 H   0  0  0  0  0  0  0  0  0  0  0  0
   38.5530   25.5960   31.1820 C   0  0  0  0  0  0  0  0  0  0  0  0
   38.0630   25.6310   30.1770 H   0  0  0  0  0  0  0  0  0  0  0  0
   39.6040   25.3280   31.0880 H   0  0  0  0  0  0  0  0  0  0  0  0
   36.1090   21.1180   32.3400 C   0  0  0  0  0  0  0  0  0  0  0  0
   37.5900   21.1280   32.0210 C   0  0  0  0  0  2  0  0  0  0  0  0
   38.0620   22.4810   32.2820 N   0  0  0  0  0  0  0  0  0  0  0  0
   38.6990   23.6570   32.7670 C   0  0  0  0  0  0  0  0  0  0  0  0
   39.6760   23.7510   33.5740 O   0  0  0  0  0  0  0  0  0  0  0  0
   37.7990   24.5830   31.9900 C   0  0  2  0  0  3  0  0  0  0  0  0
   37.3650   23.3280   31.3170 C   0  0  2  0  0  3  0  0  0  0  0  0
   35.6540   22.7800   31.7030 S   0  0  0  0  0  0  0  0  0  0  0  0
   35.4190   20.0990   31.4850 C   0  0  0  0  0  2  0  0  0  0  0  0
   34.4340   20.4630   31.0990 H   0  0  0  0  0  0  0  0  0  0  0  0
   35.8110   21.0030   33.8070 C   0  0  0  0  0  2  0  0  0  0  0  0
   35.1770   21.8660   34.1220 H   0  0  0  0  0  0  0  0  0  0  0  0
   35.0460   29.3530   33.2070 C   0  0  0  0  0  0  0  0  0  0  0  0
   36.0700   29.4000   33.9440 O   0  0  0  0  0  0  0  0  0  0  0  0
   33.7020   29.2840   33.7240 C   0  0  0  0  0  0  0  0  0  0  0  0
   32.6720   29.1390   32.8090 C   0  0  0  0  0  0  0  0  0  0  0  0
   31.3500   29.0700   33.3050 C   0  0  0  0  0  0  0  0  0  0  0  0
   31.1750   29.1510   34.6500 N   0  0  0  0  0  0  0  0  0  0  0  0
   32.1900   29.2910   35.5030 C   0  0  0  0  0  0  0  0  0  0  0  0
   33.4540   29.3580   35.0420 N   0  0  0  0  0  0  0  0  0  0  0  0
   32.8820   29.0810   31.7500 H   0  0  0  0  0  0  0  0  0  0  0  0
   30.5400   28.9550   32.5830 H   0  0  0  0  0  0  0  0  0  0  0  0
   31.9350   29.3440   36.5530 H   0  0  0  0  0  0  0  0  0  0  0  0
  1 17  1  6  0  0  0
  1  8  1  0  0  0  0
  1 13  1  0  0  0  0
  2  3  1  0  0  0  0
  2  1  1  0  0  0  0
  3  7  1  0  0  0  0
  3  4  1  0  0  0  0
  4  6  1  0  0  0  0
  5  4  2  0  0  0  0
  6 11  1  6  0  0  0
  6 32  1  0  0  0  0
  7 12  1  6  0  0  0
  7  6  1  0  0  0  0
  7  8  1  0  0  0  0
  9  2  1  0  0  0  0
 10  2  1  0  0  0  0
 13 16  1  0  0  0  0
 13 15  1  0  0  0  0
 14 13  1  0  0  0  0
 18 17  1  0  0  0  0
 19 17  1  0  0  0  0
 20 30  1  0  0  0  0
 21 22  1  0  0  0  0
 21 20  1  0  0  0  0
 22 23  1  0  0  0  0
 23 24  2  0  0  0  0
 25 17  1  6  0  0  0
 25 23  1  0  0  0  0
 26 27  1  1  0  0  0
 26 25  1  0  0  0  0
 26 22  1  0  0  0  0
 27 20  1  0  0  0  0
 28 20  1  0  0  0  0
 29 28  1  0  0  0  0
 30 31  1  0  0  0  0
 32 34  1  0  0  0  0
 32 33  2  0  0  0  0
 34 39  1  0  0  0  0
 35 36  1  0  0  0  0
 35 34  2  0  0  0  0
 36 37  2  0  0  0  0
 37 38  1  0  0  0  0
 38 42  1  0  0  0  0
 39 38  2  0  0  0  0
 40 35  1  0  0  0  0
 41 36  1  0  0  0  0
M  END
>  <minimizedAffinity>
-5.23963022

$$$$
