
 OpenBabel03262521203D

 32 34  0  0  1  0  0  0  0  0999 V2000
   37.7330   27.1380   33.3260 C   0  0  0  0  0  0  0  0  0  0  0  0
   37.3220   27.7350   34.5240 C   0  0  0  0  0  0  0  0  0  0  0  0
   37.9970   27.4130   35.6980 C   0  0  0  0  0  0  0  0  0  0  0  0
   39.0330   26.5230   35.6150 N   0  0  0  0  0  0  0  0  0  0  0  0
   39.4060   25.9610   34.4260 C   0  0  0  0  0  0  0  0  0  0  0  0
   38.7560   26.2770   33.3220 N   0  0  0  0  0  0  0  0  0  0  0  0
   36.5140   28.4410   34.6480 H   0  0  0  0  0  0  0  0  0  0  0  0
   37.7160   27.8480   36.6500 H   0  0  0  0  0  0  0  0  0  0  0  0
   36.9700   27.5550   32.2460 O   0  0  0  0  0  0  0  0  0  0  0  0
   36.8450   26.6730   31.1940 C   0  0  0  0  0  0  0  0  0  0  0  0
   37.2130   27.2070   30.2720 H   0  0  0  0  0  0  0  0  0  0  0  0
   37.4920   25.7710   31.2570 H   0  0  0  0  0  0  0  0  0  0  0  0
   35.5200   26.4550   31.2480 C   0  0  0  0  0  0  0  0  0  0  0  0
   35.1290   26.6490   32.2920 H   0  0  0  0  0  0  0  0  0  0  0  0
   34.8960   27.1930   30.6740 H   0  0  0  0  0  0  0  0  0  0  0  0
   35.0160   25.1090   30.8460 C   0  0  0  0  0  0  0  0  0  0  0  0
   35.0880   25.0370   29.7380 H   0  0  0  0  0  0  0  0  0  0  0  0
   33.9450   24.9410   31.0770 H   0  0  0  0  0  0  0  0  0  0  0  0
   36.0080   23.7720   31.5190 S   0  0  0  0  0  0  0  0  0  0  0  0
   35.9610   22.5950   30.7450 H   0  0  0  0  0  0  0  0  0  0  0  0
   40.5360   24.9960   34.3590 C   0  0  0  0  0  2  0  0  0  0  0  0
   39.9400   23.6280   34.1830 C   0  0  2  0  0  0  0  0  0  0  0  0
   38.7290   23.3720   35.0430 C   0  0  0  0  0  2  0  0  0  0  0  0
   39.1580   23.0550   36.3670 N   0  0  0  0  0  0  0  0  0  0  0  0
   39.2940   23.0910   37.7850 C   0  0  0  0  0  0  0  0  0  0  0  0
   38.6070   23.4380   38.7860 O   0  0  0  0  0  0  0  0  0  0  0  0
   40.6560   22.5200   37.6150 C   0  0  0  0  0  3  0  0  0  0  0  0
   41.3850   23.3350   37.4350 H   0  0  0  0  0  0  0  0  0  0  0  0
   40.0920   21.9690   36.3480 C   0  0  2  0  0  3  0  0  0  0  0  0
   41.0780   22.3790   34.8560 S   0  0  0  0  0  0  0  0  0  0  0  0
   39.6600   23.3960   32.7250 C   0  0  0  0  0  2  0  0  0  0  0  0
   38.5920   23.1210   32.5140 H   0  0  0  0  0  0  0  0  0  0  0  0
  1  2  1  0  0  0  0
  2  7  1  0  0  0  0
  2  3  2  0  0  0  0
  3  8  1  0  0  0  0
  4  3  1  0  0  0  0
  5  4  2  0  0  0  0
  6  1  2  0  0  0  0
  6  5  1  0  0  0  0
  9  1  1  0  0  0  0
 10 13  1  0  0  0  0
 10 12  1  0  0  0  0
 10  9  1  0  0  0  0
 11 10  1  0  0  0  0
 13 14  1  0  0  0  0
 15 13  1  0  0  0  0
 16 18  1  0  0  0  0
 16 13  1  0  0  0  0
 16 19  1  0  0  0  0
 17 16  1  0  0  0  0
 20 19  1  0  0  0  0
 21  5  1  0  0  0  0
 22 31  1  6  0  0  0
 22 21  1  0  0  0  0
 22 30  1  0  0  0  0
 22 23  1  0  0  0  0
 23 24  1  0  0  0  0
 24 25  1  0  0  0  0
 25 26  2  0  0  0  0
 27 25  1  0  0  0  0
 28 27  1  0  0  0  0
 29 30  1  6  0  0  0
 29 24  1  0  0  0  0
 29 27  1  0  0  0  0
 32 31  1  0  0  0  0
M  END
>  <minimizedAffinity>
-4.52760506

$$$$

 OpenBabel03262521203D

 32 34  0  0  1  0  0  0  0  0999 V2000
   37.2700   26.8970   33.4690 C   0  0  0  0  0  0  0  0  0  0  0  0
   37.1050   27.6600   34.6300 C   0  0  0  0  0  0  0  0  0  0  0  0
   38.0060   27.4900   35.6770 C   0  0  0  0  0  0  0  0  0  0  0  0
   39.0120   26.5770   35.5100 N   0  0  0  0  0  0  0  0  0  0  0  0
   39.1410   25.8490   34.3610 C   0  0  0  0  0  0  0  0  0  0  0  0
   38.2780   26.0230   33.3780 N   0  0  0  0  0  0  0  0  0  0  0  0
   36.3320   28.3920   34.8160 H   0  0  0  0  0  0  0  0  0  0  0  0
   37.9200   28.0570   36.5970 H   0  0  0  0  0  0  0  0  0  0  0  0
   36.3000   27.1760   32.5180 O   0  0  0  0  0  0  0  0  0  0  0  0
   36.2140   28.4810   32.0800 C   0  0  0  0  0  0  0  0  0  0  0  0
   35.1230   28.7660   32.1100 H   0  0  0  0  0  0  0  0  0  0  0  0
   36.7040   29.2300   32.7380 H   0  0  0  0  0  0  0  0  0  0  0  0
   36.7420   28.3330   30.8540 C   0  0  0  0  0  0  0  0  0  0  0  0
   37.6520   27.6620   30.8910 H   0  0  0  0  0  0  0  0  0  0  0  0
   36.1080   27.7490   30.1320 H   0  0  0  0  0  0  0  0  0  0  0  0
   37.1500   29.5650   30.1160 C   0  0  0  0  0  0  0  0  0  0  0  0
   37.9270   30.0820   30.7220 H   0  0  0  0  0  0  0  0  0  0  0  0
   36.3370   30.3090   29.9940 H   0  0  0  0  0  0  0  0  0  0  0  0
   37.8930   29.1990   28.5220 S   0  0  0  0  0  0  0  0  0  0  0  0
   38.7850   30.1960   28.0790 H   0  0  0  0  0  0  0  0  0  0  0  0
   40.2420   24.8620   34.2020 C   0  0  0  0  0  2  0  0  0  0  0  0
   39.6120   23.4980   34.1600 C   0  0  2  0  0  0  0  0  0  0  0  0
   38.4950   23.3100   35.1540 C   0  0  0  0  0  2  0  0  0  0  0  0
   39.0560   23.0510   36.4400 N   0  0  0  0  0  0  0  0  0  0  0  0
   39.3410   23.1550   37.8330 C   0  0  0  0  0  0  0  0  0  0  0  0
   38.7670   23.5660   38.8810 O   0  0  0  0  0  0  0  0  0  0  0  0
   40.6690   22.5500   37.5510 C   0  0  0  0  0  3  0  0  0  0  0  0
   41.3860   23.3410   37.2540 H   0  0  0  0  0  0  0  0  0  0  0  0
   39.9670   21.9480   36.3800 C   0  0  2  0  0  3  0  0  0  0  0  0
   40.7970   22.2630   34.7740 S   0  0  0  0  0  0  0  0  0  0  0  0
   39.1770   23.2000   32.7530 C   0  0  0  0  0  2  0  0  0  0  0  0
   38.0890   22.9350   32.6690 H   0  0  0  0  0  0  0  0  0  0  0  0
  1  2  1  0  0  0  0
  2  7  1  0  0  0  0
  2  3  2  0  0  0  0
  3  8  1  0  0  0  0
  4  3  1  0  0  0  0
  5  4  2  0  0  0  0
  6  1  2  0  0  0  0
  6  5  1  0  0  0  0
  9  1  1  0  0  0  0
 10 11  1  0  0  0  0
 10  9  1  0  0  0  0
 10 12  1  0  0  0  0
 13 14  1  0  0  0  0
 13 10  1  0  0  0  0
 15 13  1  0  0  0  0
 16 17  1  0  0  0  0
 16 13  1  0  0  0  0
 18 16  1  0  0  0  0
 19 16  1  0  0  0  0
 20 19  1  0  0  0  0
 21  5  1  0  0  0  0
 22 31  1  6  0  0  0
 22 21  1  0  0  0  0
 22 30  1  0  0  0  0
 22 23  1  0  0  0  0
 23 24  1  0  0  0  0
 24 25  1  0  0  0  0
 25 26  2  0  0  0  0
 27 25  1  0  0  0  0
 28 27  1  0  0  0  0
 29 30  1  6  0  0  0
 29 24  1  0  0  0  0
 29 27  1  0  0  0  0
 32 31  1  0  0  0  0
M  END
>  <minimizedAffinity>
-4.41618538

$$$$

 OpenBabel03262521203D

 32 34  0  0  1  0  0  0  0  0999 V2000
   35.9800   29.0650   32.3950 C   0  0  0  0  0  0  0  0  0  0  0  0
   36.2310   29.5170   31.0950 C   0  0  0  0  0  0  0  0  0  0  0  0
   36.7590   28.6240   30.1660 C   0  0  0  0  0  0  0  0  0  0  0  0
   37.0040   27.3430   30.5810 N   0  0  0  0  0  0  0  0  0  0  0  0
   36.7460   26.9380   31.8600 C   0  0  0  0  0  0  0  0  0  0  0  0
   36.2460   27.7970   32.7280 N   0  0  0  0  0  0  0  0  0  0  0  0
   36.0580   30.5130   30.7140 H   0  0  0  0  0  0  0  0  0  0  0  0
   36.9710   28.9260   29.1470 H   0  0  0  0  0  0  0  0  0  0  0  0
   35.4570   30.0630   33.2040 O   0  0  0  0  0  0  0  0  0  0  0  0
   35.5470   29.8730   34.5670 C   0  0  0  0  0  0  0  0  0  0  0  0
   34.8800   28.9990   34.8200 H   0  0  0  0  0  0  0  0  0  0  0  0
   36.5490   29.5610   34.9330 H   0  0  0  0  0  0  0  0  0  0  0  0
   35.1120   31.0740   34.9830 C   0  0  0  0  0  0  0  0  0  0  0  0
   34.9490   31.7650   34.1010 H   0  0  0  0  0  0  0  0  0  0  0  0
   34.0760   31.0780   35.4180 H   0  0  0  0  0  0  0  0  0  0  0  0
   35.9570   31.8220   35.9600 C   0  0  0  0  0  0  0  0  0  0  0  0
   36.8090   31.1660   36.2450 H   0  0  0  0  0  0  0  0  0  0  0  0
   35.4430   32.0570   36.9140 H   0  0  0  0  0  0  0  0  0  0  0  0
   36.6630   33.3170   35.2580 S   0  0  0  0  0  0  0  0  0  0  0  0
   37.8630   33.7140   35.8810 H   0  0  0  0  0  0  0  0  0  0  0  0
   37.0200   25.5410   32.2890 C   0  0  0  0  0  2  0  0  0  0  0  0
   38.5060   25.4200   32.4770 C   0  0  2  0  0  0  0  0  0  0  0  0
   38.9080   24.5400   33.6330 C   0  0  0  0  0  2  0  0  0  0  0  0
   38.7780   25.2800   34.8460 N   0  0  0  0  0  0  0  0  0  0  0  0
   38.3860   25.6470   36.1660 C   0  0  0  0  0  0  0  0  0  0  0  0
   38.0410   25.0730   37.2380 O   0  0  0  0  0  0  0  0  0  0  0  0
   38.5520   27.0680   35.7620 C   0  0  0  0  0  3  0  0  0  0  0  0
   37.6210   27.4350   35.2880 H   0  0  0  0  0  0  0  0  0  0  0  0
   39.5150   26.5060   34.7710 C   0  0  2  0  0  3  0  0  0  0  0  0
   39.1790   27.0130   33.0390 S   0  0  0  0  0  0  0  0  0  0  0  0
   39.1320   24.9780   31.1840 C   0  0  0  0  0  2  0  0  0  0  0  0
   39.7500   24.0460   31.2820 H   0  0  0  0  0  0  0  0  0  0  0  0
  1  6  1  0  0  0  0
  1  9  1  0  0  0  0
  2  1  2  0  0  0  0
  3  4  2  0  0  0  0
  3  2  1  0  0  0  0
  4  5  1  0  0  0  0
  5 21  1  0  0  0  0
  5  6  2  0  0  0  0
  7  2  1  0  0  0  0
  8  3  1  0  0  0  0
  9 10  1  0  0  0  0
 10 11  1  0  0  0  0
 10 12  1  0  0  0  0
 10 13  1  0  0  0  0
 13 15  1  0  0  0  0
 13 16  1  0  0  0  0
 14 13  1  0  0  0  0
 16 17  1  0  0  0  0
 16 18  1  0  0  0  0
 19 20  1  0  0  0  0
 19 16  1  0  0  0  0
 21 22  1  0  0  0  0
 22 31  1  6  0  0  0
 22 30  1  0  0  0  0
 22 23  1  0  0  0  0
 23 24  1  0  0  0  0
 24 25  1  0  0  0  0
 25 26  2  0  0  0  0
 27 25  1  0  0  0  0
 28 27  1  0  0  0  0
 29 30  1  6  0  0  0
 29 24  1  0  0  0  0
 29 27  1  0  0  0  0
 31 32  1  0  0  0  0
M  END
>  <minimizedAffinity>
-4.31090212

$$$$

 OpenBabel03262521203D

 32 34  0  0  1  0  0  0  0  0999 V2000
   38.3390   25.1940   36.0770 C   0  0  0  0  0  0  0  0  0  0  0  0
   38.2510   26.5530   36.3990 C   0  0  0  0  0  0  0  0  0  0  0  0
   38.5500   27.4940   35.4180 C   0  0  0  0  0  0  0  0  0  0  0  0
   38.9170   27.0330   34.1820 N   0  0  0  0  0  0  0  0  0  0  0  0
   38.9920   25.6970   33.9050 C   0  0  0  0  0  0  0  0  0  0  0  0
   38.7050   24.8180   34.8460 N   0  0  0  0  0  0  0  0  0  0  0  0
   37.9680   26.9720   37.3530 H   0  0  0  0  0  0  0  0  0  0  0  0
   38.4960   28.5580   35.6180 H   0  0  0  0  0  0  0  0  0  0  0  0
   38.0130   24.3800   37.1510 O   0  0  0  0  0  0  0  0  0  0  0  0
   38.3840   23.0550   37.0650 C   0  0  0  0  0  0  0  0  0  0  0  0
   37.4950   22.4430   37.3920 H   0  0  0  0  0  0  0  0  0  0  0  0
   38.5950   22.6920   36.0360 H   0  0  0  0  0  0  0  0  0  0  0  0
   39.4250   23.0650   37.9140 C   0  0  0  0  0  0  0  0  0  0  0  0
   39.7950   24.1220   38.0760 H   0  0  0  0  0  0  0  0  0  0  0  0
   39.1730   22.7910   38.9750 H   0  0  0  0  0  0  0  0  0  0  0  0
   40.6210   22.2440   37.5640 C   0  0  0  0  0  0  0  0  0  0  0  0
   40.2590   21.2640   37.1800 H   0  0  0  0  0  0  0  0  0  0  0  0
   41.2660   21.9930   38.4300 H   0  0  0  0  0  0  0  0  0  0  0  0
   41.6060   22.9830   36.2560 S   0  0  0  0  0  0  0  0  0  0  0  0
   42.3460   22.0410   35.5130 H   0  0  0  0  0  0  0  0  0  0  0  0
   39.3930   25.2180   32.5550 C   0  0  0  0  0  2  0  0  0  0  0  0
   38.1720   25.2850   31.6810 C   0  0  2  0  0  0  0  0  0  0  0  0
   36.9180   24.7750   32.3410 C   0  0  0  0  0  2  0  0  0  0  0  0
   36.9160   23.3490   32.2960 N   0  0  0  0  0  0  0  0  0  0  0  0
   36.8550   21.9870   32.7110 C   0  0  0  0  0  0  0  0  0  0  0  0
   36.3430   21.3130   33.6500 O   0  0  0  0  0  0  0  0  0  0  0  0
   37.6850   21.6450   31.5270 C   0  0  0  0  0  3  0  0  0  0  0  0
   38.7580   21.7650   31.7740 H   0  0  0  0  0  0  0  0  0  0  0  0
   37.0900   22.8860   30.9520 C   0  0  2  0  0  3  0  0  0  0  0  0
   38.3310   24.0840   30.3250 S   0  0  0  0  0  0  0  0  0  0  0  0
   38.0130   26.6880   31.1650 C   0  0  0  0  0  2  0  0  0  0  0  0
   37.0110   27.1370   31.3970 H   0  0  0  0  0  0  0  0  0  0  0  0
  1  2  1  0  0  0  0
  1  9  1  0  0  0  0
  2  7  1  0  0  0  0
  3  8  1  0  0  0  0
  3  2  2  0  0  0  0
  4  3  1  0  0  0  0
  5  4  2  0  0  0  0
  5  6  1  0  0  0  0
  6  1  2  0  0  0  0
 10  9  1  0  0  0  0
 10 11  1  0  0  0  0
 10 13  1  0  0  0  0
 12 10  1  0  0  0  0
 13 14  1  0  0  0  0
 13 15  1  0  0  0  0
 16 13  1  0  0  0  0
 16 18  1  0  0  0  0
 17 16  1  0  0  0  0
 19 16  1  0  0  0  0
 20 19  1  0  0  0  0
 21  5  1  0  0  0  0
 22 31  1  6  0  0  0
 22 23  1  0  0  0  0
 22 21  1  0  0  0  0
 24 23  1  0  0  0  0
 24 25  1  0  0  0  0
 25 26  2  0  0  0  0
 27 28  1  0  0  0  0
 27 25  1  0  0  0  0
 29 30  1  6  0  0  0
 29 27  1  0  0  0  0
 29 24  1  0  0  0  0
 30 22  1  0  0  0  0
 31 32  1  0  0  0  0
M  END
>  <minimizedAffinity>
-4.29478025

$$$$

 OpenBabel03262521203D

 32 34  0  0  1  0  0  0  0  0999 V2000
   37.3950   22.3090   35.3900 C   0  0  0  0  0  0  0  0  0  0  0  0
   37.1430   22.4910   36.7550 C   0  0  0  0  0  0  0  0  0  0  0  0
   37.7500   23.5580   37.4110 C   0  0  0  0  0  0  0  0  0  0  0  0
   38.5650   24.3770   36.6780 N   0  0  0  0  0  0  0  0  0  0  0  0
   38.7870   24.1680   35.3460 C   0  0  0  0  0  0  0  0  0  0  0  0
   38.2050   23.1510   34.7390 N   0  0  0  0  0  0  0  0  0  0  0  0
   36.5110   21.8780   37.3810 H   0  0  0  0  0  0  0  0  0  0  0  0
   37.5860   23.7400   38.4670 H   0  0  0  0  0  0  0  0  0  0  0  0
   36.7230   21.2090   34.8770 O   0  0  0  0  0  0  0  0  0  0  0  0
   36.5490   21.1680   33.5100 C   0  0  0  0  0  0  0  0  0  0  0  0
   36.3860   22.2290   33.1670 H   0  0  0  0  0  0  0  0  0  0  0  0
   37.4390   20.8340   32.9330 H   0  0  0  0  0  0  0  0  0  0  0  0
   35.4720   20.3670   33.4530 C   0  0  0  0  0  0  0  0  0  0  0  0
   35.6870   19.3750   33.9530 H   0  0  0  0  0  0  0  0  0  0  0  0
   34.5980   20.7050   34.0740 H   0  0  0  0  0  0  0  0  0  0  0  0
   34.9060   20.0520   32.1080 C   0  0  0  0  0  0  0  0  0  0  0  0
   34.3870   20.9630   31.7360 H   0  0  0  0  0  0  0  0  0  0  0  0
   34.1290   19.2620   32.1190 H   0  0  0  0  0  0  0  0  0  0  0  0
   36.1750   19.6490   30.9030 S   0  0  0  0  0  0  0  0  0  0  0  0
   35.7920   19.9190   29.5740 H   0  0  0  0  0  0  0  0  0  0  0  0
   39.6780   25.0700   34.5700 C   0  0  0  0  0  2  0  0  0  0  0  0
   38.8760   26.2930   34.2230 C   0  0  2  0  0  0  0  0  0  0  0  0
   37.4680   25.9950   33.7760 C   0  0  0  0  0  2  0  0  0  0  0  0
   37.4920   25.5800   32.4110 N   0  0  0  0  0  0  0  0  0  0  0  0
   37.2870   24.8010   31.2350 C   0  0  0  0  0  0  0  0  0  0  0  0
   36.4640   23.9430   30.8080 O   0  0  0  0  0  0  0  0  0  0  0  0
   38.5040   25.4380   30.6670 C   0  0  0  0  0  3  0  0  0  0  0  0
   39.4050   24.8790   30.9880 H   0  0  0  0  0  0  0  0  0  0  0  0
   38.1610   26.5510   31.5990 C   0  0  2  0  0  3  0  0  0  0  0  0
   39.5400   27.0440   32.7060 S   0  0  0  0  0  0  0  0  0  0  0  0
   38.9140   27.2510   35.3800 C   0  0  0  0  0  2  0  0  0  0  0  0
   37.8950   27.5460   35.7490 H   0  0  0  0  0  0  0  0  0  0  0  0
  1  2  1  0  0  0  0
  2  7  1  0  0  0  0
  2  3  2  0  0  0  0
  3  8  1  0  0  0  0
  4  3  1  0  0  0  0
  5  4  2  0  0  0  0
  6  5  1  0  0  0  0
  6  1  2  0  0  0  0
  9  1  1  0  0  0  0
 10  9  1  0  0  0  0
 11 10  1  0  0  0  0
 12 10  1  0  0  0  0
 13 10  1  0  0  0  0
 13 14  1  0  0  0  0
 13 15  1  0  0  0  0
 16 18  1  0  0  0  0
 16 13  1  0  0  0  0
 17 16  1  0  0  0  0
 19 16  1  0  0  0  0
 20 19  1  0  0  0  0
 21  5  1  0  0  0  0
 22 21  1  1  0  0  0
 22 31  1  0  0  0  0
 23 22  1  0  0  0  0
 24 23  1  0  0  0  0
 25 24  1  0  0  0  0
 26 25  2  0  0  0  0
 27 28  1  0  0  0  0
 27 25  1  0  0  0  0
 29 27  1  6  0  0  0
 29 24  1  0  0  0  0
 29 30  1  0  0  0  0
 30 22  1  0  0  0  0
 31 32  1  0  0  0  0
M  END
>  <minimizedAffinity>
-4.29378891

$$$$

 OpenBabel03262521203D

 32 34  0  0  1  0  0  0  0  0999 V2000
   35.6120   29.3870   32.5560 C   0  0  0  0  0  0  0  0  0  0  0  0
   35.8740   29.7700   31.2350 C   0  0  0  0  0  0  0  0  0  0  0  0
   36.5550   28.8850   30.4050 C   0  0  0  0  0  0  0  0  0  0  0  0
   36.9340   27.6800   30.9310 N   0  0  0  0  0  0  0  0  0  0  0  0
   36.6610   27.3410   32.2270 C   0  0  0  0  0  0  0  0  0  0  0  0
   36.0140   28.1920   33.0010 N   0  0  0  0  0  0  0  0  0  0  0  0
   35.5990   30.7040   30.7680 H   0  0  0  0  0  0  0  0  0  0  0  0
   36.7820   29.1340   29.3750 H   0  0  0  0  0  0  0  0  0  0  0  0
   34.9290   30.3690   33.2580 O   0  0  0  0  0  0  0  0  0  0  0  0
   34.7880   30.1790   34.6170 C   0  0  0  0  0  0  0  0  0  0  0  0
   33.7010   30.3510   34.8620 H   0  0  0  0  0  0  0  0  0  0  0  0
   34.9830   29.1440   34.9700 H   0  0  0  0  0  0  0  0  0  0  0  0
   35.6370   31.1240   35.0570 C   0  0  0  0  0  0  0  0  0  0  0  0
   36.6970   30.7280   35.0740 H   0  0  0  0  0  0  0  0  0  0  0  0
   35.7750   31.9970   34.3620 H   0  0  0  0  0  0  0  0  0  0  0  0
   35.3830   31.7220   36.4000 C   0  0  0  0  0  0  0  0  0  0  0  0
   35.7570   32.7690   36.3820 H   0  0  0  0  0  0  0  0  0  0  0  0
   35.9390   31.2320   37.2250 H   0  0  0  0  0  0  0  0  0  0  0  0
   33.6340   31.8000   36.8000 S   0  0  0  0  0  0  0  0  0  0  0  0
   33.3140   32.8270   37.7100 H   0  0  0  0  0  0  0  0  0  0  0  0
   37.0830   26.0260   32.7780 C   0  0  0  0  0  2  0  0  0  0  0  0
   38.4620   26.2060   33.3470 C   0  0  2  0  0  0  0  0  0  0  0  0
   39.2010   24.9150   33.5820 C   0  0  0  0  0  2  0  0  0  0  0  0
   38.7370   24.3290   34.7980 N   0  0  0  0  0  0  0  0  0  0  0  0
   38.2040   23.3820   35.7210 C   0  0  0  0  0  0  0  0  0  0  0  0
   38.1410   22.1270   35.8480 O   0  0  0  0  0  0  0  0  0  0  0  0
   37.7190   24.5290   36.5330 C   0  0  0  0  0  3  0  0  0  0  0  0
   36.7280   24.8580   36.1620 H   0  0  0  0  0  0  0  0  0  0  0  0
   38.8440   25.2600   35.8810 C   0  0  2  0  0  3  0  0  0  0  0  0
   38.3380   26.8190   35.0550 S   0  0  0  0  0  0  0  0  0  0  0  0
   39.2360   27.1520   32.4730 C   0  0  0  0  0  2  0  0  0  0  0  0
   40.2060   26.7260   32.1020 H   0  0  0  0  0  0  0  0  0  0  0  0
  1  6  1  0  0  0  0
  1  9  1  0  0  0  0
  2  1  2  0  0  0  0
  3  4  2  0  0  0  0
  3  2  1  0  0  0  0
  4  5  1  0  0  0  0
  5 21  1  0  0  0  0
  5  6  2  0  0  0  0
  7  2  1  0  0  0  0
  8  3  1  0  0  0  0
  9 10  1  0  0  0  0
 10 11  1  0  0  0  0
 10 12  1  0  0  0  0
 10 13  1  0  0  0  0
 13 14  1  0  0  0  0
 13 16  1  0  0  0  0
 15 13  1  0  0  0  0
 16 19  1  0  0  0  0
 16 18  1  0  0  0  0
 17 16  1  0  0  0  0
 19 20  1  0  0  0  0
 21 22  1  0  0  0  0
 22 31  1  6  0  0  0
 22 23  1  0  0  0  0
 22 30  1  0  0  0  0
 23 24  1  0  0  0  0
 24 25  1  0  0  0  0
 24 29  1  0  0  0  0
 25 26  2  0  0  0  0
 25 27  1  0  0  0  0
 28 27  1  0  0  0  0
 29 30  1  6  0  0  0
 29 27  1  0  0  0  0
 32 31  1  0  0  0  0
M  END
>  <minimizedAffinity>
-4.27327442

$$$$

 OpenBabel03262521203D

 32 34  0  0  1  0  0  0  0  0999 V2000
   36.7130   28.0100   33.8070 C   0  0  0  0  0  0  0  0  0  0  0  0
   36.9180   28.3710   32.4700 C   0  0  0  0  0  0  0  0  0  0  0  0
   37.9730   27.7880   31.7740 C   0  0  0  0  0  0  0  0  0  0  0  0
   38.7570   26.8870   32.4420 N   0  0  0  0  0  0  0  0  0  0  0  0
   38.5250   26.5580   33.7480 C   0  0  0  0  0  0  0  0  0  0  0  0
   37.5210   27.1210   34.3940 N   0  0  0  0  0  0  0  0  0  0  0  0
   36.3340   29.0750   31.8960 H   0  0  0  0  0  0  0  0  0  0  0  0
   38.1730   28.0350   30.7380 H   0  0  0  0  0  0  0  0  0  0  0  0
   35.6290   28.6710   34.3660 O   0  0  0  0  0  0  0  0  0  0  0  0
   35.4800   30.0050   34.0470 C   0  0  0  0  0  0  0  0  0  0  0  0
   36.4530   30.3430   33.5870 H   0  0  0  0  0  0  0  0  0  0  0  0
   34.7240   30.2180   33.2620 H   0  0  0  0  0  0  0  0  0  0  0  0
   35.2170   30.4920   35.2710 C   0  0  0  0  0  0  0  0  0  0  0  0
   34.1610   30.8940   35.3200 H   0  0  0  0  0  0  0  0  0  0  0  0
   35.1610   29.7200   36.0860 H   0  0  0  0  0  0  0  0  0  0  0  0
   36.1070   31.5660   35.8020 C   0  0  0  0  0  0  0  0  0  0  0  0
   36.7920   31.8760   34.9810 H   0  0  0  0  0  0  0  0  0  0  0  0
   36.7740   31.2350   36.6240 H   0  0  0  0  0  0  0  0  0  0  0  0
   35.1970   33.0320   36.3010 S   0  0  0  0  0  0  0  0  0  0  0  0
   35.9620   34.2130   36.2410 H   0  0  0  0  0  0  0  0  0  0  0  0
   39.3900   25.5760   34.4540 C   0  0  0  0  0  2  0  0  0  0  0  0
   38.7440   24.2280   34.3020 C   0  0  2  0  0  0  0  0  0  0  0  0
   37.8410   23.8490   35.4470 C   0  0  0  0  0  2  0  0  0  0  0  0
   38.6390   23.3840   36.5340 N   0  0  0  0  0  0  0  0  0  0  0  0
   39.1940   23.2520   37.8410 C   0  0  0  0  0  0  0  0  0  0  0  0
   38.8430   23.4650   39.0360 O   0  0  0  0  0  0  0  0  0  0  0  0
   40.4320   22.7310   37.2040 C   0  0  0  0  0  3  0  0  0  0  0  0
   41.0880   23.5750   36.9140 H   0  0  0  0  0  0  0  0  0  0  0  0
   39.5050   22.3250   36.1080 C   0  0  2  0  0  3  0  0  0  0  0  0
   40.0080   22.9290   34.4490 S   0  0  0  0  0  0  0  0  0  0  0  0
   38.0370   24.1670   32.9770 C   0  0  0  0  0  2  0  0  0  0  0  0
   36.9500   23.9000   33.0630 H   0  0  0  0  0  0  0  0  0  0  0  0
  1  9  1  0  0  0  0
  1  6  1  0  0  0  0
  2  1  2  0  0  0  0
  3  4  2  0  0  0  0
  3  2  1  0  0  0  0
  4  5  1  0  0  0  0
  5  6  2  0  0  0  0
  5 21  1  0  0  0  0
  7  2  1  0  0  0  0
  8  3  1  0  0  0  0
 10  9  1  0  0  0  0
 10 13  1  0  0  0  0
 11 10  1  0  0  0  0
 12 10  1  0  0  0  0
 13 14  1  0  0  0  0
 13 16  1  0  0  0  0
 13 15  1  0  0  0  0
 16 19  1  0  0  0  0
 16 18  1  0  0  0  0
 17 16  1  0  0  0  0
 20 19  1  0  0  0  0
 22 31  1  6  0  0  0
 22 30  1  0  0  0  0
 22 21  1  0  0  0  0
 22 23  1  0  0  0  0
 23 24  1  0  0  0  0
 24 25  1  0  0  0  0
 25 26  2  0  0  0  0
 27 25  1  0  0  0  0
 28 27  1  0  0  0  0
 29 30  1  6  0  0  0
 29 24  1  0  0  0  0
 29 27  1  0  0  0  0
 31 32  1  0  0  0  0
M  END
>  <minimizedAffinity>
-4.26825762

$$$$

 OpenBabel03262521203D

 32 34  0  0  1  0  0  0  0  0999 V2000
   38.0300   25.1670   36.4650 C   0  0  0  0  0  0  0  0  0  0  0  0
   38.3650   24.8450   37.7860 C   0  0  0  0  0  0  0  0  0  0  0  0
   38.4380   23.5040   38.1500 C   0  0  0  0  0  0  0  0  0  0  0  0
   38.1760   22.5670   37.1880 N   0  0  0  0  0  0  0  0  0  0  0  0
   37.8520   22.9190   35.9080 C   0  0  0  0  0  0  0  0  0  0  0  0
   37.7870   24.1950   35.5790 N   0  0  0  0  0  0  0  0  0  0  0  0
   38.5810   25.5410   38.5830 H   0  0  0  0  0  0  0  0  0  0  0  0
   38.6930   23.2040   39.1600 H   0  0  0  0  0  0  0  0  0  0  0  0
   37.9970   26.5370   36.2540 O   0  0  0  0  0  0  0  0  0  0  0  0
   39.0540   27.0860   35.5580 C   0  0  0  0  0  0  0  0  0  0  0  0
   39.3590   28.0220   36.1080 H   0  0  0  0  0  0  0  0  0  0  0  0
   39.9780   26.4690   35.5450 H   0  0  0  0  0  0  0  0  0  0  0  0
   38.4550   27.2800   34.3710 C   0  0  0  0  0  0  0  0  0  0  0  0
   39.0530   28.0020   33.7370 H   0  0  0  0  0  0  0  0  0  0  0  0
   38.4560   26.3860   33.6880 H   0  0  0  0  0  0  0  0  0  0  0  0
   37.0470   27.7770   34.3710 C   0  0  0  0  0  0  0  0  0  0  0  0
   37.0500   28.8020   34.8040 H   0  0  0  0  0  0  0  0  0  0  0  0
   36.3630   27.1930   35.0180 H   0  0  0  0  0  0  0  0  0  0  0  0
   36.3640   27.9120   32.7160 S   0  0  0  0  0  0  0  0  0  0  0  0
   35.3410   28.8750   32.6100 H   0  0  0  0  0  0  0  0  0  0  0  0
   37.5710   21.8830   34.8790 C   0  0  0  0  0  2  0  0  0  0  0  0
   38.4930   22.1460   33.7220 C   0  0  2  0  0  0  0  0  0  0  0  0
   38.2450   23.4600   33.0270 C   0  0  0  0  0  2  0  0  0  0  0  0
   37.1280   23.3180   32.1510 N   0  0  0  0  0  0  0  0  0  0  0  0
   35.8670   23.5440   31.5250 C   0  0  0  0  0  0  0  0  0  0  0  0
   35.0780   24.5100   31.3250 O   0  0  0  0  0  0  0  0  0  0  0  0
   35.8420   22.0990   31.1770 C   0  0  0  0  0  3  0  0  0  0  0  0
   35.4190   21.5180   32.0190 H   0  0  0  0  0  0  0  0  0  0  0  0
   37.3270   22.2190   31.2540 C   0  0  2  0  0  3  0  0  0  0  0  0
   38.1140   20.9930   32.3690 S   0  0  0  0  0  0  0  0  0  0  0  0
   39.9160   22.0100   34.1860 C   0  0  0  0  0  2  0  0  0  0  0  0
   40.5410   22.9210   33.9840 H   0  0  0  0  0  0  0  0  0  0  0  0
  1  2  1  0  0  0  0
  2  3  2  0  0  0  0
  2  7  1  0  0  0  0
  3  8  1  0  0  0  0
  4  3  1  0  0  0  0
  5  4  2  0  0  0  0
  6  5  1  0  0  0  0
  6  1  2  0  0  0  0
  9  1  1  0  0  0  0
 10 11  1  0  0  0  0
 10  9  1  0  0  0  0
 12 10  1  0  0  0  0
 13 16  1  0  0  0  0
 13 10  1  0  0  0  0
 14 13  1  0  0  0  0
 15 13  1  0  0  0  0
 16 17  1  0  0  0  0
 16 18  1  0  0  0  0
 19 16  1  0  0  0  0
 20 19  1  0  0  0  0
 21  5  1  0  0  0  0
 22 31  1  1  0  0  0
 22 21  1  0  0  0  0
 23 22  1  0  0  0  0
 24 23  1  0  0  0  0
 25 24  1  0  0  0  0
 26 25  2  0  0  0  0
 27 25  1  0  0  0  0
 27 28  1  0  0  0  0
 29 27  1  1  0  0  0
 29 24  1  0  0  0  0
 29 30  1  0  0  0  0
 30 22  1  0  0  0  0
 32 31  1  0  0  0  0
M  END
>  <minimizedAffinity>
-4.24549389

$$$$

 OpenBabel03262521203D

 32 34  0  0  1  0  0  0  0  0999 V2000
   35.9740   24.0530   31.4790 C   0  0  0  0  0  0  0  0  0  0  0  0
   35.0480   24.9900   31.0060 C   0  0  0  0  0  0  0  0  0  0  0  0
   35.3610   26.3430   31.0930 C   0  0  0  0  0  0  0  0  0  0  0  0
   36.5680   26.6850   31.6410 N   0  0  0  0  0  0  0  0  0  0  0  0
   37.4470   25.7410   32.0920 C   0  0  0  0  0  0  0  0  0  0  0  0
   37.1350   24.4620   32.0030 N   0  0  0  0  0  0  0  0  0  0  0  0
   34.0840   24.7780   30.5660 H   0  0  0  0  0  0  0  0  0  0  0  0
   34.6770   27.1070   30.7410 H   0  0  0  0  0  0  0  0  0  0  0  0
   35.5240   22.7500   31.3260 O   0  0  0  0  0  0  0  0  0  0  0  0
   36.0310   21.8090   32.1980 C   0  0  0  0  0  0  0  0  0  0  0  0
   36.9380   21.3570   31.7020 H   0  0  0  0  0  0  0  0  0  0  0  0
   36.4240   22.2180   33.1540 H   0  0  0  0  0  0  0  0  0  0  0  0
   34.9600   21.0040   32.2950 C   0  0  0  0  0  0  0  0  0  0  0  0
   34.3440   21.2700   33.2050 H   0  0  0  0  0  0  0  0  0  0  0  0
   34.1850   21.1500   31.4940 H   0  0  0  0  0  0  0  0  0  0  0  0
   35.1970   19.5310   32.3550 C   0  0  0  0  0  0  0  0  0  0  0  0
   34.3830   19.0330   31.7820 H   0  0  0  0  0  0  0  0  0  0  0  0
   35.1320   19.1050   33.3760 H   0  0  0  0  0  0  0  0  0  0  0  0
   36.7460   19.0500   31.5850 S   0  0  0  0  0  0  0  0  0  0  0  0
   36.7430   17.7260   31.1010 H   0  0  0  0  0  0  0  0  0  0  0  0
   38.7540   26.1360   32.6840 C   0  0  0  0  0  2  0  0  0  0  0  0
   38.6330   25.9700   34.1730 C   0  0  2  0  0  0  0  0  0  0  0  0
   39.7510   26.6120   34.9530 C   0  0  0  0  0  2  0  0  0  0  0  0
   40.8940   25.7580   34.9140 N   0  0  0  0  0  0  0  0  0  0  0  0
   42.2300   25.3020   34.7160 C   0  0  0  0  0  0  0  0  0  0  0  0
   43.3960   25.7870   34.7030 O   0  0  0  0  0  0  0  0  0  0  0  0
   41.6760   23.9360   34.5180 C   0  0  0  0  0  3  0  0  0  0  0  0
   41.3790   23.8020   33.4600 H   0  0  0  0  0  0  0  0  0  0  0  0
   40.5570   24.4420   35.3660 C   0  0  2  0  0  3  0  0  0  0  0  0
   38.8980   24.2250   34.6120 S   0  0  0  0  0  0  0  0  0  0  0  0
   37.2810   26.4540   34.6140 C   0  0  0  0  0  2  0  0  0  0  0  0
   37.3280   27.2430   35.4110 H   0  0  0  0  0  0  0  0  0  0  0  0
  1  6  1  0  0  0  0
  2  3  1  0  0  0  0
  2  1  2  0  0  0  0
  3  4  2  0  0  0  0
  4  5  1  0  0  0  0
  5 21  1  0  0  0  0
  6  5  2  0  0  0  0
  7  2  1  0  0  0  0
  8  3  1  0  0  0  0
  9  1  1  0  0  0  0
  9 10  1  0  0  0  0
 10 13  1  0  0  0  0
 10 12  1  0  0  0  0
 11 10  1  0  0  0  0
 13 16  1  0  0  0  0
 13 14  1  0  0  0  0
 15 13  1  0  0  0  0
 16 18  1  0  0  0  0
 17 16  1  0  0  0  0
 19 16  1  0  0  0  0
 20 19  1  0  0  0  0
 22 21  1  6  0  0  0
 22 30  1  0  0  0  0
 22 31  1  0  0  0  0
 22 23  1  0  0  0  0
 24 23  1  0  0  0  0
 24 29  1  0  0  0  0
 25 24  1  0  0  0  0
 26 25  2  0  0  0  0
 27 25  1  0  0  0  0
 28 27  1  0  0  0  0
 29 27  1  6  0  0  0
 30 29  1  0  0  0  0
 31 32  1  0  0  0  0
M  END
>  <minimizedAffinity>
-4.22023916

$$$$
