
 OpenBabel03272507123D

 43 48  0  0  1  0  0  0  0  0999 V2000
   37.3300   29.5640   49.8400 C   0  0  0  0  0  0  0  0  0  0  0  0
   38.0310   28.7980   50.5540 O   0  0  0  0  0  0  0  0  0  0  0  0
   37.8280   30.7710   49.2360 C   0  0  0  0  0  0  0  0  0  0  0  0
   38.4070   31.7130   50.0700 C   0  0  0  0  0  0  0  0  0  0  0  0
   38.9030   32.8960   49.5300 C   0  0  0  0  0  0  0  0  0  0  0  0
   38.7800   33.0490   48.1770 N   0  0  0  0  0  0  0  0  0  0  0  0
   38.2200   32.1350   47.3830 C   0  0  0  0  0  0  0  0  0  0  0  0
   37.7490   31.0010   47.9260 N   0  0  0  0  0  0  0  0  0  0  0  0
   38.4860   31.5530   51.1430 H   0  0  0  0  0  0  0  0  0  0  0  0
   39.3660   33.6760   50.1160 H   0  0  0  0  0  0  0  0  0  0  0  0
   38.1030   32.3310   45.9240 C   0  0  0  0  0  2  0  0  0  0  0  0
   37.7530   31.0000   45.2940 C   0  0  2  0  0  0  0  0  0  0  0  0
   38.9810   30.1450   45.2810 C   0  0  0  0  0  2  0  0  0  0  0  0
   38.9160   29.3070   44.1030 N   0  0  0  0  0  0  0  0  0  0  0  0
   38.9050   28.1610   43.2250 C   0  0  0  0  0  0  0  0  0  0  0  0
   39.3600   26.9750   43.3140 O   0  0  0  0  0  0  0  0  0  0  0  0
   38.1460   28.9260   42.1760 C   0  0  0  0  0  3  0  0  0  0  0  0
   37.0420   28.8440   42.2430 H   0  0  0  0  0  0  0  0  0  0  0  0
   38.7310   30.1070   42.9050 C   0  0  1  0  0  3  0  0  0  0  0  0
   37.4960   31.2910   43.5190 S   0  0  0  0  0  0  0  0  0  0  0  0
   36.5700   30.3700   45.9440 C   0  0  0  0  0  2  0  0  0  0  0  0
   36.3640   29.3820   45.5310 H   0  0  0  0  0  0  0  0  0  0  0  0
   35.9350   29.2210   49.6050 C   0  0  0  0  0  0  0  0  0  0  0  0
   34.9220   29.7970   50.2880 C   0  0  0  0  0  0  0  0  0  0  0  0
   33.7370   29.2370   49.8100 C   0  0  0  0  0  0  0  0  0  0  0  0
   34.1230   28.3180   48.8260 C   0  0  0  0  0  0  0  0  0  0  0  0
   35.4200   28.3610   48.7600 O   0  0  0  0  0  0  0  0  0  0  0  0
   34.9810   30.5530   51.0660 H   0  0  0  0  0  0  0  0  0  0  0  0
   32.7710   29.5220   50.1900 H   0  0  0  0  0  0  0  0  0  0  0  0
   33.5290   26.5960   47.1350 C   0  0  0  0  0  0  0  0  0  0  0  0
   33.1440   27.5280   48.0920 C   0  0  0  0  0  0  0  0  0  0  0  0
   31.8120   27.7360   48.3840 C   0  0  0  0  0  0  0  0  0  0  0  0
   30.8790   26.9950   47.6970 C   0  0  0  0  0  0  0  0  0  0  0  0
   29.5340   26.9990   47.7860 N   0  0  0  0  0  0  0  0  0  0  0  0
   29.0680   26.1040   46.9170 N   0  0  0  0  0  0  0  0  0  0  0  0
   30.1230   25.5380   46.2840 C   0  0  0  0  0  0  0  0  0  0  0  0
   31.2950   26.0790   46.7530 C   0  0  0  0  0  0  0  0  0  0  0  0
   32.6210   25.8580   46.4500 C   0  0  0  0  0  0  0  0  0  0  0  0
   34.5960   26.4550   46.9280 H   0  0  0  0  0  0  0  0  0  0  0  0
   31.4460   28.4560   49.1260 H   0  0  0  0  0  0  0  0  0  0  0  0
   28.8930   27.5640   48.3920 H   0  0  0  0  0  0  0  0  0  0  0  0
   30.0200   24.7750   45.5260 H   0  0  0  0  0  0  0  0  0  0  0  0
   32.8910   25.1330   45.7070 H   0  0  0  0  0  0  0  0  0  0  0  0
  1  2  2  0  0  0  0
  3  1  1  0  0  0  0
  3  4  1  0  0  0  0
  4  9  1  0  0  0  0
  5  4  2  0  0  0  0
  5 10  1  0  0  0  0
  6  5  1  0  0  0  0
  7  8  1  0  0  0  0
  7  6  2  0  0  0  0
  8  3  2  0  0  0  0
 11  7  1  0  0  0  0
 12 11  1  1  0  0  0
 12 21  1  0  0  0  0
 13 12  1  0  0  0  0
 14 13  1  0  0  0  0
 15 16  2  0  0  0  0
 15 14  1  0  0  0  0
 17 18  1  0  0  0  0
 17 15  1  0  0  0  0
 19 17  1  6  0  0  0
 19 20  1  0  0  0  0
 19 14  1  0  0  0  0
 20 12  1  0  0  0  0
 22 21  1  0  0  0  0
 23  1  1  0  0  0  0
 23 24  2  0  0  0  0
 24 28  1  0  0  0  0
 25 29  1  0  0  0  0
 25 24  1  0  0  0  0
 26 25  2  0  0  0  0
 27 26  1  0  0  0  0
 27 23  1  0  0  0  0
 30 31  1  0  0  0  0
 31 32  2  0  0  0  0
 31 26  1  0  0  0  0
 32 40  1  0  0  0  0
 33 34  1  0  0  0  0
 33 32  1  0  0  0  0
 34 41  1  0  0  0  0
 35 34  1  0  0  0  0
 36 37  1  0  0  0  0
 36 35  2  0  0  0  0
 37 33  2  0  0  0  0
 38 37  1  0  0  0  0
 38 30  2  0  0  0  0
 39 30  1  0  0  0  0
 42 36  1  0  0  0  0
 43 38  1  0  0  0  0
M  END
>  <minimizedAffinity>
-6.75659943

>  <minimizedRMSD>
1.1783855

$$$$
