
 OpenBabel03262521183D

 32 34  0  0  1  0  0  0  0  0999 V2000
   38.3060   31.3750   46.5600 C   0  0  0  0  0  0  0  0  0  0  0  0
   39.4320   32.1310   46.9090 C   0  0  0  0  0  0  0  0  0  0  0  0
   39.9160   33.0680   46.0010 C   0  0  0  0  0  0  0  0  0  0  0  0
   39.2600   33.1990   44.8070 N   0  0  0  0  0  0  0  0  0  0  0  0
   38.1630   32.4430   44.5020 C   0  0  0  0  0  0  0  0  0  0  0  0
   37.7160   31.5590   45.3730 N   0  0  0  0  0  0  0  0  0  0  0  0
   39.9870   32.0700   47.8330 H   0  0  0  0  0  0  0  0  0  0  0  0
   40.7850   33.6770   46.2240 H   0  0  0  0  0  0  0  0  0  0  0  0
   37.9420   30.4880   47.5610 O   0  0  0  0  0  0  0  0  0  0  0  0
   36.6030   30.4310   47.8870 C   0  0  0  0  0  0  0  0  0  0  0  0
   36.2470   31.4950   48.0000 H   0  0  0  0  0  0  0  0  0  0  0  0
   35.9450   30.0100   47.0980 H   0  0  0  0  0  0  0  0  0  0  0  0
   36.6870   29.7250   49.0270 C   0  0  0  0  0  0  0  0  0  0  0  0
   35.7250   29.8050   49.6170 H   0  0  0  0  0  0  0  0  0  0  0  0
   36.7310   28.6090   48.8900 H   0  0  0  0  0  0  0  0  0  0  0  0
   37.7950   30.0520   49.9720 C   0  0  0  0  0  0  0  0  0  0  0  0
   38.0810   31.1140   49.8050 H   0  0  0  0  0  0  0  0  0  0  0  0
   38.7240   29.4720   49.7980 H   0  0  0  0  0  0  0  0  0  0  0  0
   37.2970   29.9130   51.6920 S   0  0  0  0  0  0  0  0  0  0  0  0
   38.0460   30.7330   52.5600 H   0  0  0  0  0  0  0  0  0  0  0  0
   37.4650   32.6010   43.1980 C   0  0  0  0  0  2  0  0  0  0  0  0
   38.4100   32.1310   42.1290 C   0  0  2  0  0  0  0  0  0  0  0  0
   37.8850   30.9790   41.3120 C   0  0  0  0  0  2  0  0  0  0  0  0
   38.0590   29.7700   42.0480 N   0  0  0  0  0  0  0  0  0  0  0  0
   37.7740   28.5310   42.6950 C   0  0  0  0  0  0  0  0  0  0  0  0
   36.9370   27.5910   42.5950 O   0  0  0  0  0  0  0  0  0  0  0  0
   38.9250   28.7990   43.5960 C   0  0  0  0  0  3  0  0  0  0  0  0
   38.5950   29.4240   44.4500 H   0  0  0  0  0  0  0  0  0  0  0  0
   39.4250   29.6150   42.4520 C   0  0  2  0  0  3  0  0  0  0  0  0
   39.8540   31.3420   42.9020 S   0  0  0  0  0  0  0  0  0  0  0  0
   38.8070   33.3010   41.2730 C   0  0  0  0  0  2  0  0  0  0  0  0
   38.6040   33.1430   40.1810 H   0  0  0  0  0  0  0  0  0  0  0  0
  1  2  1  0  0  0  0
  1  9  1  0  0  0  0
  2  7  1  0  0  0  0
  3  8  1  0  0  0  0
  3  2  2  0  0  0  0
  4  3  1  0  0  0  0
  5  4  2  0  0  0  0
  5  6  1  0  0  0  0
  6  1  2  0  0  0  0
  9 10  1  0  0  0  0
 10 11  1  0  0  0  0
 10 13  1  0  0  0  0
 12 10  1  0  0  0  0
 13 14  1  0  0  0  0
 13 16  1  0  0  0  0
 15 13  1  0  0  0  0
 16 19  1  0  0  0  0
 17 16  1  0  0  0  0
 18 16  1  0  0  0  0
 19 20  1  0  0  0  0
 21  5  1  0  0  0  0
 22 31  1  6  0  0  0
 22 30  1  0  0  0  0
 22 21  1  0  0  0  0
 23 24  1  0  0  0  0
 23 22  1  0  0  0  0
 24 29  1  0  0  0  0
 24 25  1  0  0  0  0
 25 27  1  0  0  0  0
 26 25  2  0  0  0  0
 27 28  1  0  0  0  0
 29 30  1  1  0  0  0
 29 27  1  0  0  0  0
 32 31  1  0  0  0  0
M  END
>  <minimizedAffinity>
-4.53022957

>  <minimizedRMSD>
1.64853847

$$$$
