
 OpenBabel03272507123D

 43 48  0  0  1  0  0  0  0  0999 V2000
   37.2810   29.4830   49.8190 C   0  0  0  0  0  0  0  0  0  0  0  0
   37.9790   28.6650   50.4750 O   0  0  0  0  0  0  0  0  0  0  0  0
   37.8000   30.6940   49.2410 C   0  0  0  0  0  0  0  0  0  0  0  0
   38.3970   31.6070   50.0960 C   0  0  0  0  0  0  0  0  0  0  0  0
   38.9130   32.7920   49.5820 C   0  0  0  0  0  0  0  0  0  0  0  0
   38.7930   32.9780   48.2330 N   0  0  0  0  0  0  0  0  0  0  0  0
   38.2160   32.0920   47.4190 C   0  0  0  0  0  0  0  0  0  0  0  0
   37.7250   30.9550   47.9370 N   0  0  0  0  0  0  0  0  0  0  0  0
   38.4730   31.4210   51.1640 H   0  0  0  0  0  0  0  0  0  0  0  0
   39.3910   33.5500   50.1850 H   0  0  0  0  0  0  0  0  0  0  0  0
   38.1010   32.3220   45.9650 C   0  0  0  0  0  2  0  0  0  0  0  0
   37.7540   31.0060   45.3030 C   0  0  2  0  0  0  0  0  0  0  0  0
   38.9740   30.1400   45.3040 C   0  0  0  0  0  2  0  0  0  0  0  0
   38.9300   29.3240   44.1100 N   0  0  0  0  0  0  0  0  0  0  0  0
   38.9300   28.1940   43.2120 C   0  0  0  0  0  0  0  0  0  0  0  0
   39.3710   27.0020   43.2890 O   0  0  0  0  0  0  0  0  0  0  0  0
   38.2050   28.9840   42.1580 C   0  0  0  0  0  3  0  0  0  0  0  0
   37.0980   28.9140   42.1970 H   0  0  0  0  0  0  0  0  0  0  0  0
   38.7820   30.1460   42.9220 C   0  0  1  0  0  3  0  0  0  0  0  0
   37.5440   31.3320   43.5280 S   0  0  0  0  0  0  0  0  0  0  0  0
   36.5490   30.3760   45.9120 C   0  0  0  0  0  2  0  0  0  0  0  0
   36.3440   29.3990   45.4750 H   0  0  0  0  0  0  0  0  0  0  0  0
   35.8660   29.1990   49.6270 C   0  0  0  0  0  0  0  0  0  0  0  0
   34.9110   29.6900   50.4470 C   0  0  0  0  0  0  0  0  0  0  0  0
   33.6850   29.2220   49.9700 C   0  0  0  0  0  0  0  0  0  0  0  0
   33.9890   28.4460   48.8450 C   0  0  0  0  0  0  0  0  0  0  0  0
   35.2800   28.4770   48.7040 O   0  0  0  0  0  0  0  0  0  0  0  0
   35.0360   30.3270   51.3170 H   0  0  0  0  0  0  0  0  0  0  0  0
   32.7510   29.4670   50.4460 H   0  0  0  0  0  0  0  0  0  0  0  0
   33.2180   27.1890   46.8440 C   0  0  0  0  0  0  0  0  0  0  0  0
   32.9470   27.7830   48.0710 C   0  0  0  0  0  0  0  0  0  0  0  0
   31.6750   27.7640   48.6030 C   0  0  0  0  0  0  0  0  0  0  0  0
   30.6840   27.1410   47.8810 C   0  0  0  0  0  0  0  0  0  0  0  0
   29.3760   26.9800   48.1650 N   0  0  0  0  0  0  0  0  0  0  0  0
   28.8230   26.3070   47.1580 N   0  0  0  0  0  0  0  0  0  0  0  0
   29.7870   26.0460   46.2430 C   0  0  0  0  0  0  0  0  0  0  0  0
   30.9870   26.5610   46.6660 C   0  0  0  0  0  0  0  0  0  0  0  0
   32.2520   26.5700   46.1200 C   0  0  0  0  0  0  0  0  0  0  0  0
   34.2410   27.2220   46.4500 H   0  0  0  0  0  0  0  0  0  0  0  0
   31.3990   28.2150   49.5650 H   0  0  0  0  0  0  0  0  0  0  0  0
   28.8160   27.2900   48.9940 H   0  0  0  0  0  0  0  0  0  0  0  0
   29.6010   25.5080   45.3230 H   0  0  0  0  0  0  0  0  0  0  0  0
   32.4340   26.1050   45.1710 H   0  0  0  0  0  0  0  0  0  0  0  0
  1  2  2  0  0  0  0
  3  1  1  0  0  0  0
  3  4  1  0  0  0  0
  4  9  1  0  0  0  0
  5  4  2  0  0  0  0
  5 10  1  0  0  0  0
  6  5  1  0  0  0  0
  7  8  1  0  0  0  0
  7  6  2  0  0  0  0
  8  3  2  0  0  0  0
 11  7  1  0  0  0  0
 12 13  1  0  0  0  0
 12 21  1  1  0  0  0
 12 11  1  0  0  0  0
 14 13  1  0  0  0  0
 15 16  2  0  0  0  0
 15 14  1  0  0  0  0
 17 18  1  0  0  0  0
 17 15  1  0  0  0  0
 19 17  1  6  0  0  0
 19 20  1  0  0  0  0
 19 14  1  0  0  0  0
 20 12  1  0  0  0  0
 22 21  1  0  0  0  0
 23  1  1  0  0  0  0
 23 24  2  0  0  0  0
 24 28  1  0  0  0  0
 25 29  1  0  0  0  0
 25 24  1  0  0  0  0
 26 25  2  0  0  0  0
 27 26  1  0  0  0  0
 27 23  1  0  0  0  0
 30 31  1  0  0  0  0
 31 32  2  0  0  0  0
 31 26  1  0  0  0  0
 32 40  1  0  0  0  0
 33 34  1  0  0  0  0
 33 32  1  0  0  0  0
 34 41  1  0  0  0  0
 35 34  1  0  0  0  0
 36 37  1  0  0  0  0
 36 35  2  0  0  0  0
 37 33  2  0  0  0  0
 38 37  1  0  0  0  0
 38 30  2  0  0  0  0
 39 30  1  0  0  0  0
 42 36  1  0  0  0  0
 43 38  1  0  0  0  0
M  END
>  <minimizedAffinity>
-6.74453211

>  <minimizedRMSD>
1.21720314

$$$$
