
 OpenBabel03262521543D

 42 45  0  0  1  0  0  0  0  0999 V2000
   33.0510   27.0280   47.8260 C   0  0  1  0  0  0  0  0  0  0  0  0
   33.3850   28.3910   48.3950 C   0  0  2  0  0  0  0  0  0  0  0  0
   33.6050   29.3180   47.2490 C   0  0  0  0  0  0  0  0  0  0  0  0
   33.4630   28.7130   46.0180 O   0  0  0  0  0  0  0  0  0  0  0  0
   32.1930   28.1560   45.8510 C   0  0  0  0  0  0  0  0  0  0  0  0
   31.8270   27.2180   46.9500 C   0  0  2  0  0  0  0  0  0  0  0  0
   32.7770   26.3180   48.6200 H   0  0  0  0  0  0  0  0  0  0  0  0
   32.4600   28.7340   48.9300 H   0  0  0  0  0  0  0  0  0  0  0  0
   34.6080   29.8030   47.2630 H   0  0  0  0  0  0  0  0  0  0  0  0
   32.8840   30.1850   47.2450 H   0  0  0  0  0  0  0  0  0  0  0  0
   32.2680   27.5500   44.9060 H   0  0  0  0  0  0  0  0  0  0  0  0
   31.4530   28.9380   45.6280 H   0  0  0  0  0  0  0  0  0  0  0  0
   31.4400   26.2600   46.5820 H   0  0  0  0  0  0  0  0  0  0  0  0
   34.0690   26.5540   47.0060 O   0  0  0  0  0  0  0  0  0  0  0  0
   34.1770   25.6000   47.1740 H   0  0  0  0  0  0  0  0  0  0  0  0
   34.8340   28.3270   49.4830 S   0  0  0  0  0  0  0  0  0  0  0  0
   35.2160   29.9770   50.1130 C   0  0  0  0  0  0  0  0  0  0  0  0
   35.0010   30.6910   49.2690 H   0  0  0  0  0  0  0  0  0  0  0  0
   34.5030   30.2320   50.9010 H   0  0  0  0  0  0  0  0  0  0  0  0
   36.9290   30.2070   50.5600 S   0  0  0  0  0  0  0  0  0  0  0  0
   37.7730   31.0220   49.2070 C   0  0  0  0  0  0  0  0  0  0  0  0
   38.2130   32.2980   49.4940 C   0  0  0  0  0  0  0  0  0  0  0  0
   38.8850   33.0090   48.4890 C   0  0  0  0  0  0  0  0  0  0  0  0
   39.0610   32.3890   47.2830 N   0  0  0  0  0  0  0  0  0  0  0  0
   38.6040   31.1370   47.0700 C   0  0  0  0  0  0  0  0  0  0  0  0
   37.9740   30.4630   48.0040 N   0  0  0  0  0  0  0  0  0  0  0  0
   38.0720   32.7900   50.4550 H   0  0  0  0  0  0  0  0  0  0  0  0
   39.2410   34.0130   48.6900 H   0  0  0  0  0  0  0  0  0  0  0  0
   38.7480   30.6500   46.1080 H   0  0  0  0  0  0  0  0  0  0  0  0
   30.8550   27.8060   47.7870 O   0  0  0  0  0  0  0  0  0  0  0  0
   29.7770   26.9810   47.9810 C   0  0  0  0  0  2  0  0  0  0  0  0
   28.7580   27.7370   48.8440 C   0  0  1  0  0  0  0  0  0  0  0  0
   28.5410   29.0700   48.1830 C   0  0  0  0  0  2  0  0  0  0  0  0
   27.1940   29.4750   48.4260 N   0  0  0  0  0  0  0  0  0  0  0  0
   26.0350   30.2400   48.8150 C   0  0  0  0  0  0  0  0  0  0  0  0
   25.8360   31.4800   48.9570 O   0  0  0  0  0  0  0  0  0  0  0  0
   25.2140   28.9980   48.9700 C   0  0  0  0  0  3  0  0  0  0  0  0
   25.2690   28.5690   49.9900 H   0  0  0  0  0  0  0  0  0  0  0  0
   26.2500   28.4450   48.0240 C   0  0  2  0  0  3  0  0  0  0  0  0
   27.1180   26.9730   48.6520 S   0  0  0  0  0  0  0  0  0  0  0  0
   29.2040   27.8010   50.2620 C   0  0  0  0  0  2  0  0  0  0  0  0
   29.8460   26.9070   50.4430 H   0  0  0  0  0  0  0  0  0  0  0  0
  1  2  1  0  0  0  0
  1  7  1  1  0  0  0
  2  8  1  1  0  0  0
  2 16  1  0  0  0  0
  3  9  1  0  0  0  0
  3  2  1  0  0  0  0
  4  3  1  0  0  0  0
  5  4  1  0  0  0  0
  5  6  1  0  0  0  0
  6 13  1  6  0  0  0
  6 30  1  0  0  0  0
  6  1  1  0  0  0  0
 10  3  1  0  0  0  0
 11  5  1  0  0  0  0
 12  5  1  0  0  0  0
 14 15  1  0  0  0  0
 14  1  1  0  0  0  0
 16 17  1  0  0  0  0
 17 20  1  0  0  0  0
 17 19  1  0  0  0  0
 18 17  1  0  0  0  0
 21 22  1  0  0  0  0
 21 20  1  0  0  0  0
 22 27  1  0  0  0  0
 23 28  1  0  0  0  0
 23 22  2  0  0  0  0
 24 23  1  0  0  0  0
 25 24  2  0  0  0  0
 25 26  1  0  0  0  0
 26 21  2  0  0  0  0
 29 25  1  0  0  0  0
 30 31  1  0  0  0  0
 32 31  1  6  0  0  0
 32 41  1  0  0  0  0
 33 34  1  0  0  0  0
 33 32  1  0  0  0  0
 34 35  1  0  0  0  0
 35 36  2  0  0  0  0
 35 37  1  0  0  0  0
 37 38  1  0  0  0  0
 39 34  1  0  0  0  0
 39 40  1  1  0  0  0
 39 37  1  0  0  0  0
 40 32  1  0  0  0  0
 41 42  1  0  0  0  0
M  END
>  <minimizedAffinity>
-6.1227994

>  <minimizedRMSD>
1.17599344

$$$$
