
 OpenBabel03262522273D

 49 53  0  0  1  0  0  0  0  0999 V2000
   34.7760   30.5120   49.8000 C   0  0  0  0  0  0  0  0  0  0  0  0
   34.0980   30.1100   50.6010 H   0  0  0  0  0  0  0  0  0  0  0  0
   34.6270   31.6020   49.7210 H   0  0  0  0  0  0  0  0  0  0  0  0
   34.5080   27.7720   49.8920 F   0  0  0  0  0  0  0  0  0  0  0  0
   34.3500   28.4220   48.6950 C   0  0  0  0  0  0  0  0  0  0  0  0
   34.4630   29.8040   48.5290 C   0  0  0  0  0  0  0  0  0  0  0  0
   34.2940   30.3880   47.3100 C   0  0  0  0  0  0  0  0  0  0  0  0
   34.0010   29.6110   46.1830 C   0  0  0  0  0  0  0  0  0  0  0  0
   33.8840   28.2480   46.3180 C   0  0  0  0  0  0  0  0  0  0  0  0
   34.0610   27.6700   47.5720 C   0  0  0  0  0  0  0  0  0  0  0  0
   34.3950   31.4520   47.2520 H   0  0  0  0  0  0  0  0  0  0  0  0
   33.8670   30.0790   45.2120 H   0  0  0  0  0  0  0  0  0  0  0  0
   33.6570   27.6610   45.4370 H   0  0  0  0  0  0  0  0  0  0  0  0
   33.9300   26.2820   47.6500 O   0  0  0  0  0  0  0  0  0  0  0  0
   34.1240   25.4410   46.5310 C   0  0  0  0  0  2  0  0  0  0  0  0
   33.3540   24.1520   46.8490 C   0  0  2  0  0  0  0  0  0  0  0  0
   34.1950   23.3260   47.7650 C   0  0  0  0  0  2  0  0  0  0  0  0
   34.2350   21.9770   47.2990 N   0  0  0  0  0  0  0  0  0  0  0  0
   34.1680   20.5590   47.1850 C   0  0  0  0  0  0  0  0  0  0  0  0
   34.0930   19.6320   48.0360 O   0  0  0  0  0  0  0  0  0  0  0  0
   34.2160   20.5390   45.7080 C   0  0  0  0  0  3  0  0  0  0  0  0
   35.0230   19.9120   45.2600 H   0  0  0  0  0  0  0  0  0  0  0  0
   34.6440   21.9680   45.8880 C   0  0  1  0  0  3  0  0  0  0  0  0
   33.4010   23.1830   45.2920 S   0  0  0  0  0  0  0  0  0  0  0  0
   31.9700   24.4340   47.3160 C   0  0  0  0  0  2  0  0  0  0  0  0
   31.7530   25.5040   47.0510 H   0  0  0  0  0  0  0  0  0  0  0  0
   36.4820   30.0820   50.2400 S   0  0  0  0  0  0  0  0  0  0  0  0
   38.7190   32.8540   48.3490 C   0  0  0  0  0  0  0  0  0  0  0  0
   39.0280   32.1910   47.1480 C   0  0  0  0  0  0  0  0  0  0  0  0
   38.5300   30.9330   46.9960 C   0  0  0  0  0  0  0  0  0  0  0  0
   37.7710   30.3910   47.9950 N   0  0  0  0  0  0  0  0  0  0  0  0
   37.5060   31.0370   49.0930 C   0  0  0  0  0  0  0  0  0  0  0  0
   37.9730   32.3140   49.3230 N   0  0  0  0  0  0  0  0  0  0  0  0
   39.0770   33.8560   48.5480 H   0  0  0  0  0  0  0  0  0  0  0  0
   38.7540   30.4010   46.0800 H   0  0  0  0  0  0  0  0  0  0  0  0
   39.7910   32.8360   46.2360 O   0  0  0  0  0  0  0  0  0  0  0  0
   39.9460   32.2980   44.9700 C   0  0  0  0  0  0  0  0  0  0  0  0
   40.6470   31.1700   44.6150 C   0  0  0  0  0  0  0  0  0  0  0  0
   40.6970   30.7830   43.3320 C   0  0  0  0  0  0  0  0  0  0  0  0
   40.0440   31.5230   42.3940 C   0  0  0  0  0  0  0  0  0  0  0  0
   39.3320   32.6720   42.7650 C   0  0  0  0  0  0  0  0  0  0  0  0
   39.2910   33.0520   44.0760 N   0  0  0  0  0  0  0  0  0  0  0  0
   41.1230   30.6680   45.4610 H   0  0  0  0  0  0  0  0  0  0  0  0
   41.2440   29.9070   43.0700 H   0  0  0  0  0  0  0  0  0  0  0  0
   40.0410   31.2690   41.3380 H   0  0  0  0  0  0  0  0  0  0  0  0
   38.6000   33.5030   41.7110 C   0  0  0  0  0  0  0  0  0  0  0  0
   38.2750   32.8710   40.8850 H   0  0  0  0  0  0  0  0  0  0  0  0
   37.8170   34.0300   42.2640 H   0  0  0  0  0  0  0  0  0  0  0  0
   39.3420   34.2720   41.4020 H   0  0  0  0  0  0  0  0  0  0  0  0
  1 27  1  0  0  0  0
  1  2  1  0  0  0  0
  3  1  1  0  0  0  0
  5  4  1  0  0  0  0
  6  5  1  0  0  0  0
  6  1  1  0  0  0  0
  7  6  2  0  0  0  0
  8  9  2  0  0  0  0
  8  7  1  0  0  0  0
  9 10  1  0  0  0  0
 10 14  1  0  0  0  0
 10  5  2  0  0  0  0
 11  7  1  0  0  0  0
 12  8  1  0  0  0  0
 13  9  1  0  0  0  0
 15 14  1  0  0  0  0
 16 15  1  6  0  0  0
 16 25  1  0  0  0  0
 16 17  1  0  0  0  0
 18 17  1  0  0  0  0
 19 18  1  0  0  0  0
 19 20  2  0  0  0  0
 21 23  1  0  0  0  0
 21 19  1  0  0  0  0
 22 21  1  0  0  0  0
 23 24  1  6  0  0  0
 23 18  1  0  0  0  0
 24 16  1  0  0  0  0
 26 25  1  0  0  0  0
 28 34  1  0  0  0  0
 28 33  1  0  0  0  0
 29 28  2  0  0  0  0
 30 29  1  0  0  0  0
 30 31  2  0  0  0  0
 31 32  1  0  0  0  0
 32 33  2  0  0  0  0
 32 27  1  0  0  0  0
 35 30  1  0  0  0  0
 36 29  1  0  0  0  0
 37 36  1  0  0  0  0
 38 37  1  0  0  0  0
 38 43  1  0  0  0  0
 39 38  2  0  0  0  0
 40 41  2  0  0  0  0
 40 39  1  0  0  0  0
 41 42  1  0  0  0  0
 42 37  2  0  0  0  0
 44 39  1  0  0  0  0
 45 40  1  0  0  0  0
 46 48  1  0  0  0  0
 46 41  1  0  0  0  0
 47 46  1  0  0  0  0
 49 46  1  0  0  0  0
M  END
>  <minimizedAffinity>
-5.93003798

>  <minimizedRMSD>
0.569149792

$$$$
