
 OpenBabel03262522143D

 48 53  0  0  1  0  0  0  0  0999 V2000
   39.4650   33.0030   43.7760 C   0  0  0  0  0  0  0  0  0  0  0  0
   38.4240   32.8370   44.0470 H   0  0  0  0  0  0  0  0  0  0  0  0
   39.5930   33.9650   43.2170 H   0  0  0  0  0  0  0  0  0  0  0  0
   38.9960   29.8960   42.1610 C   0  0  1  0  0  0  0  0  0  0  0  0
   38.9220   31.3890   41.9670 C   0  0  0  0  0  0  0  0  0  0  0  0
   39.9830   31.8700   42.9140 C   0  0  2  0  0  0  0  0  0  0  0  0
   40.4180   30.7970   43.6390 O   0  0  0  0  0  0  0  0  0  0  0  0
   39.4340   29.8130   43.5990 C   0  0  0  0  0  0  0  0  0  0  0  0
   39.7850   29.4780   41.5210 H   0  0  0  0  0  0  0  0  0  0  0  0
   39.1750   31.6660   40.9260 H   0  0  0  0  0  0  0  0  0  0  0  0
   37.9200   31.7370   42.2840 H   0  0  0  0  0  0  0  0  0  0  0  0
   40.8450   32.2730   42.3260 H   0  0  0  0  0  0  0  0  0  0  0  0
   38.5800   30.0220   44.2580 H   0  0  0  0  0  0  0  0  0  0  0  0
   39.9370   28.8680   43.8680 H   0  0  0  0  0  0  0  0  0  0  0  0
   37.7570   29.2840   41.9560 O   0  0  0  0  0  0  0  0  0  0  0  0
   37.4350   28.4020   42.9480 C   0  0  0  0  0  2  0  0  0  0  0  0
   37.3590   27.0000   42.3320 C   0  0  1  0  0  0  0  0  0  0  0  0
   37.1550   27.0070   40.8880 C   0  0  0  0  0  2  0  0  0  0  0  0
   38.0180   26.1620   40.1990 N   0  0  2  0  0  0  0  0  0  0  0  0
   38.6720   25.5940   39.0950 C   0  0  1  0  0  0  0  0  0  0  0  0
   38.4890   25.2880   37.8930 O   0  0  0  0  0  1  0  0  0  0  0  0
   39.8740   25.4550   39.9950 C   0  0  0  0  0  3  0  0  0  0  0  0
   40.5040   24.5760   39.7530 H   0  0  0  0  0  0  0  0  0  0  0  0
   38.7830   25.2350   40.9940 C   0  0  1  0  0  0  0  0  0  0  0  0
   38.9290   26.1240   42.5640 S   0  0  0  0  0  0  0  0  0  0  0  0
   36.2430   26.2500   43.0520 C   0  0  0  0  0  2  0  0  0  0  0  0
   36.1970   25.2080   42.6960 H   0  0  0  0  0  0  0  0  0  0  0  0
   40.5890   33.1260   45.2060 S   0  0  0  0  0  0  0  0  0  0  0  0
   37.7730   31.7640   47.6450 C   0  0  0  0  0  0  0  0  0  0  0  0
   37.9460   32.5130   48.8160 C   0  0  0  0  0  0  0  0  0  0  0  0
   38.9330   33.4680   48.9080 C   0  0  0  0  0  0  0  0  0  0  0  0
   39.7260   33.6360   47.7950 C   0  0  0  0  0  0  0  0  0  0  0  0
   39.5380   32.8970   46.6710 C   0  0  0  0  0  0  0  0  0  0  0  0
   38.5690   31.9530   46.5670 N   0  0  0  0  0  0  0  0  0  0  0  0
   37.3140   32.3720   49.6890 H   0  0  0  0  0  0  0  0  0  0  0  0
   39.1020   34.0730   49.8000 H   0  0  0  0  0  0  0  0  0  0  0  0
   40.5240   34.3740   47.8030 H   0  0  0  0  0  0  0  0  0  0  0  0
   36.7170   30.7840   47.6280 C   0  0  0  0  0  0  0  0  0  0  0  0
   36.2470   30.3730   46.5700 O   0  0  0  0  0  0  0  0  0  0  0  0
   37.0240   29.6100   49.7750 C   0  0  0  0  0  0  0  0  0  0  0  0
   36.1470   30.2240   48.8680 C   0  0  0  0  0  0  0  0  0  0  0  0
   34.7870   30.2850   49.1620 C   0  0  0  0  0  0  0  0  0  0  0  0
   34.3410   29.7420   50.3330 N   0  0  0  0  0  0  0  0  0  0  0  0
   35.2070   29.1550   51.1910 C   0  0  0  0  0  0  0  0  0  0  0  0
   36.5020   29.0960   50.9130 N   0  0  0  0  0  0  0  0  0  0  0  0
   38.0950   29.5360   49.5910 H   0  0  0  0  0  0  0  0  0  0  0  0
   34.1300   30.7540   48.4650 H   0  0  0  0  0  0  0  0  0  0  0  0
   34.9530   28.7030   52.1320 H   0  0  0  0  0  0  0  0  0  0  0  0
  1  2  1  0  0  0  0
  1 28  1  0  0  0  0
  3  1  1  0  0  0  0
  4  9  1  6  0  0  0
  4  8  1  0  0  0  0
  5  4  1  0  0  0  0
  5 11  1  0  0  0  0
  5  6  1  0  0  0  0
  6 12  1  6  0  0  0
  6  7  1  0  0  0  0
  6  1  1  0  0  0  0
  8  7  1  0  0  0  0
  8 14  1  0  0  0  0
  8 13  1  0  0  0  0
 10  5  1  0  0  0  0
 15  4  1  0  0  0  0
 15 16  1  0  0  0  0
 17 25  1  0  0  0  0
 17 16  1  1  0  0  0
 17 26  1  0  0  0  0
 18 17  1  0  0  0  0
 19 18  1  6  0  0  0
 19 24  1  0  0  0  0
 20 21  1  6  0  0  0
 20 22  1  0  0  0  0
 20 19  1  0  0  0  0
 20 24  1  0  0  0  0
 23 22  1  0  0  0  0
 24 22  1  6  0  0  0
 24 25  1  0  0  0  0
 27 26  1  0  0  0  0
 28 33  1  0  0  0  0
 29 30  1  0  0  0  0
 30 31  2  0  0  0  0
 30 35  1  0  0  0  0
 31 36  1  0  0  0  0
 32 37  1  0  0  0  0
 32 31  1  0  0  0  0
 33 32  2  0  0  0  0
 34 33  1  0  0  0  0
 34 29  2  0  0  0  0
 38 29  1  0  0  0  0
 38 41  1  0  0  0  0
 39 38  2  0  0  0  0
 40 45  1  0  0  0  0
 41 42  1  0  0  0  0
 41 40  2  0  0  0  0
 42 43  2  0  0  0  0
 43 44  1  0  0  0  0
 44 48  1  0  0  0  0
 45 44  2  0  0  0  0
 46 40  1  0  0  0  0
 47 42  1  0  0  0  0
M  END
>  <minimizedAffinity>
-5.36040592

>  <minimizedRMSD>
2.92699051

$$$$
