
 OpenBabel03262522273D

 49 53  0  0  1  0  0  0  0  0999 V2000
   34.8900   30.5430   49.6970 C   0  0  0  0  0  0  0  0  0  0  0  0
   34.2190   30.1840   50.5250 H   0  0  0  0  0  0  0  0  0  0  0  0
   34.7570   31.6310   49.5780 H   0  0  0  0  0  0  0  0  0  0  0  0
   34.5200   27.8220   49.9120 F   0  0  0  0  0  0  0  0  0  0  0  0
   34.3810   28.4240   48.6880 C   0  0  0  0  0  0  0  0  0  0  0  0
   34.5440   29.7920   48.4600 C   0  0  0  0  0  0  0  0  0  0  0  0
   34.3910   30.3270   47.2170 C   0  0  0  0  0  0  0  0  0  0  0  0
   34.0630   29.5130   46.1270 C   0  0  0  0  0  0  0  0  0  0  0  0
   33.8970   28.1620   46.3220 C   0  0  0  0  0  0  0  0  0  0  0  0
   34.0570   27.6340   47.6010 C   0  0  0  0  0  0  0  0  0  0  0  0
   34.5310   31.3830   47.1110 H   0  0  0  0  0  0  0  0  0  0  0  0
   33.9430   29.9420   45.1360 H   0  0  0  0  0  0  0  0  0  0  0  0
   33.6430   27.5450   45.4690 H   0  0  0  0  0  0  0  0  0  0  0  0
   33.8750   26.2570   47.7410 O   0  0  0  0  0  0  0  0  0  0  0  0
   33.0640   25.5090   46.8590 C   0  0  0  0  0  2  0  0  0  0  0  0
   33.8410   24.2140   46.5850 C   0  0  2  0  0  0  0  0  0  0  0  0
   34.9770   24.5400   45.6730 C   0  0  0  0  0  2  0  0  0  0  0  0
   35.0290   23.5930   44.6070 N   0  0  0  0  0  0  0  0  0  0  0  0
   35.4370   22.6150   43.6550 C   0  0  0  0  0  0  0  0  0  0  0  0
   36.5680   22.1950   43.2860 O   0  0  0  0  0  0  0  0  0  0  0  0
   34.0670   22.2510   43.2380 C   0  0  0  0  0  3  0  0  0  0  0  0
   33.8590   22.3250   42.1450 H   0  0  0  0  0  0  0  0  0  0  0  0
   33.7110   23.5160   43.9670 C   0  0  1  0  0  3  0  0  0  0  0  0
   32.7390   23.2270   45.5000 S   0  0  0  0  0  0  0  0  0  0  0  0
   34.2010   23.5070   47.8430 C   0  0  0  0  0  2  0  0  0  0  0  0
   33.5710   23.9590   48.6570 H   0  0  0  0  0  0  0  0  0  0  0  0
   36.5960   30.1020   50.1260 S   0  0  0  0  0  0  0  0  0  0  0  0
   38.8340   32.8540   48.2070 C   0  0  0  0  0  0  0  0  0  0  0  0
   39.1360   32.1810   47.0090 C   0  0  0  0  0  0  0  0  0  0  0  0
   38.6320   30.9230   46.8680 C   0  0  0  0  0  0  0  0  0  0  0  0
   37.8770   30.3910   47.8730 N   0  0  0  0  0  0  0  0  0  0  0  0
   37.6180   31.0450   48.9690 C   0  0  0  0  0  0  0  0  0  0  0  0
   38.0910   32.3220   49.1880 N   0  0  0  0  0  0  0  0  0  0  0  0
   39.1970   33.8550   48.3980 H   0  0  0  0  0  0  0  0  0  0  0  0
   38.8510   30.3850   45.9540 H   0  0  0  0  0  0  0  0  0  0  0  0
   39.8970   32.8180   46.0890 O   0  0  0  0  0  0  0  0  0  0  0  0
   40.0000   32.3000   44.8100 C   0  0  0  0  0  0  0  0  0  0  0  0
   40.6400   31.1470   44.4170 C   0  0  0  0  0  0  0  0  0  0  0  0
   40.6450   30.7850   43.1260 C   0  0  0  0  0  0  0  0  0  0  0  0
   40.0090   31.5750   42.2180 C   0  0  0  0  0  0  0  0  0  0  0  0
   39.3590   32.7480   42.6260 C   0  0  0  0  0  0  0  0  0  0  0  0
   39.3630   33.1010   43.9450 N   0  0  0  0  0  0  0  0  0  0  0  0
   41.1100   30.6060   45.2430 H   0  0  0  0  0  0  0  0  0  0  0  0
   41.1450   29.8910   42.8350 H   0  0  0  0  0  0  0  0  0  0  0  0
   39.9730   31.3430   41.1570 H   0  0  0  0  0  0  0  0  0  0  0  0
   38.6460   33.6330   41.6060 C   0  0  0  0  0  0  0  0  0  0  0  0
   38.2740   33.0350   40.7740 H   0  0  0  0  0  0  0  0  0  0  0  0
   37.9010   34.1850   42.1850 H   0  0  0  0  0  0  0  0  0  0  0  0
   39.4170   34.3730   41.2960 H   0  0  0  0  0  0  0  0  0  0  0  0
  1 27  1  0  0  0  0
  1  2  1  0  0  0  0
  3  1  1  0  0  0  0
  5  4  1  0  0  0  0
  6  5  1  0  0  0  0
  6  1  1  0  0  0  0
  7  6  2  0  0  0  0
  8  9  2  0  0  0  0
  8  7  1  0  0  0  0
  9 10  1  0  0  0  0
 10 14  1  0  0  0  0
 10  5  2  0  0  0  0
 11  7  1  0  0  0  0
 12  8  1  0  0  0  0
 13  9  1  0  0  0  0
 15 14  1  0  0  0  0
 16 15  1  1  0  0  0
 16 25  1  0  0  0  0
 17 16  1  0  0  0  0
 18 17  1  0  0  0  0
 19 18  1  0  0  0  0
 20 19  2  0  0  0  0
 21 19  1  0  0  0  0
 22 21  1  0  0  0  0
 23 21  1  6  0  0  0
 23 18  1  0  0  0  0
 23 24  1  0  0  0  0
 24 16  1  0  0  0  0
 25 26  1  0  0  0  0
 28 34  1  0  0  0  0
 28 33  1  0  0  0  0
 29 28  2  0  0  0  0
 30 29  1  0  0  0  0
 30 31  2  0  0  0  0
 31 32  1  0  0  0  0
 32 33  2  0  0  0  0
 32 27  1  0  0  0  0
 35 30  1  0  0  0  0
 36 29  1  0  0  0  0
 37 36  1  0  0  0  0
 38 37  1  0  0  0  0
 38 43  1  0  0  0  0
 39 38  2  0  0  0  0
 40 41  2  0  0  0  0
 40 39  1  0  0  0  0
 41 42  1  0  0  0  0
 42 37  2  0  0  0  0
 44 39  1  0  0  0  0
 45 40  1  0  0  0  0
 46 48  1  0  0  0  0
 46 41  1  0  0  0  0
 47 46  1  0  0  0  0
 49 46  1  0  0  0  0
M  END
>  <minimizedAffinity>
-5.84483051

>  <minimizedRMSD>
1.22385681

$$$$
