
 OpenBabel03262522153D

 48 53  0  0  1  0  0  0  0  0999 V2000
   39.6170   32.8730   43.8030 C   0  0  0  0  0  0  0  0  0  0  0  0
   38.5580   32.8030   44.0430 H   0  0  0  0  0  0  0  0  0  0  0  0
   39.8380   33.7900   43.1990 H   0  0  0  0  0  0  0  0  0  0  0  0
   38.9350   29.7830   42.2340 C   0  0  1  0  0  0  0  0  0  0  0  0
   39.0520   31.2660   41.9940 C   0  0  0  0  0  0  0  0  0  0  0  0
   40.0740   31.6580   43.0230 C   0  0  2  0  0  0  0  0  0  0  0  0
   40.3150   30.5700   43.8130 O   0  0  0  0  0  0  0  0  0  0  0  0
   39.2300   29.7030   43.7080 C   0  0  0  0  0  0  0  0  0  0  0  0
   39.7230   29.2540   41.6800 H   0  0  0  0  0  0  0  0  0  0  0  0
   39.4290   31.4740   40.9740 H   0  0  0  0  0  0  0  0  0  0  0  0
   38.0740   31.7370   42.2080 H   0  0  0  0  0  0  0  0  0  0  0  0
   41.0260   31.9390   42.5070 H   0  0  0  0  0  0  0  0  0  0  0  0
   38.3510   30.0330   44.2790 H   0  0  0  0  0  0  0  0  0  0  0  0
   39.5930   28.7180   44.0470 H   0  0  0  0  0  0  0  0  0  0  0  0
   37.6560   29.3090   41.9300 O   0  0  0  0  0  0  0  0  0  0  0  0
   36.9330   28.9960   43.0470 C   0  0  0  0  0  2  0  0  0  0  0  0
   36.0600   27.7770   42.7220 C   0  0  1  0  0  0  0  0  0  0  0  0
   35.4980   27.8050   41.3760 C   0  0  0  0  0  2  0  0  0  0  0  0
   35.6540   26.6090   40.6830 N   0  0  1  0  0  0  0  0  0  0  0  0
   35.6490   25.7350   39.5870 C   0  0  1  0  0  0  0  0  0  0  0  0
   35.0270   25.4900   38.5250 O   0  0  0  0  0  1  0  0  0  0  0  0
   36.8480   25.0770   40.2210 C   0  0  0  0  0  3  0  0  0  0  0  0
   36.9140   23.9890   40.0120 H   0  0  0  0  0  0  0  0  0  0  0  0
   36.0950   25.4720   41.4510 C   0  0  1  0  0  0  0  0  0  0  0  0
   37.0530   26.2610   42.7680 S   0  0  0  0  0  0  0  0  0  0  0  0
   34.9690   27.7080   43.7850 C   0  0  0  0  0  2  0  0  0  0  0  0
   34.3580   26.8020   43.6400 H   0  0  0  0  0  0  0  0  0  0  0  0
   40.6980   32.9910   45.2660 S   0  0  0  0  0  0  0  0  0  0  0  0
   37.7830   31.7470   47.6510 C   0  0  0  0  0  0  0  0  0  0  0  0
   37.9230   32.5360   48.7990 C   0  0  0  0  0  0  0  0  0  0  0  0
   38.9180   33.4830   48.8920 C   0  0  0  0  0  0  0  0  0  0  0  0
   39.7510   33.6030   47.8030 C   0  0  0  0  0  0  0  0  0  0  0  0
   39.5940   32.8260   46.7000 C   0  0  0  0  0  0  0  0  0  0  0  0
   38.6180   31.8880   46.5960 N   0  0  0  0  0  0  0  0  0  0  0  0
   37.2590   32.4330   49.6540 H   0  0  0  0  0  0  0  0  0  0  0  0
   39.0620   34.1180   49.7680 H   0  0  0  0  0  0  0  0  0  0  0  0
   40.5560   34.3320   47.8130 H   0  0  0  0  0  0  0  0  0  0  0  0
   36.7170   30.7780   47.6310 C   0  0  0  0  0  0  0  0  0  0  0  0
   36.2420   30.3760   46.5720 O   0  0  0  0  0  0  0  0  0  0  0  0
   37.0160   29.6130   49.7840 C   0  0  0  0  0  0  0  0  0  0  0  0
   36.1420   30.2200   48.8710 C   0  0  0  0  0  0  0  0  0  0  0  0
   34.7790   30.2770   49.1560 C   0  0  0  0  0  0  0  0  0  0  0  0
   34.3290   29.7360   50.3260 N   0  0  0  0  0  0  0  0  0  0  0  0
   35.1920   29.1550   51.1920 C   0  0  0  0  0  0  0  0  0  0  0  0
   36.4890   29.1010   50.9210 N   0  0  0  0  0  0  0  0  0  0  0  0
   38.0880   29.5430   49.6070 H   0  0  0  0  0  0  0  0  0  0  0  0
   34.1240   30.7400   48.4530 H   0  0  0  0  0  0  0  0  0  0  0  0
   34.9340   28.7060   52.1320 H   0  0  0  0  0  0  0  0  0  0  0  0
  1  2  1  0  0  0  0
  1 28  1  0  0  0  0
  3  1  1  0  0  0  0
  4  9  1  6  0  0  0
  4  8  1  0  0  0  0
  5 11  1  0  0  0  0
  5  4  1  0  0  0  0
  5  6  1  0  0  0  0
  6 12  1  6  0  0  0
  6  1  1  0  0  0  0
  6  7  1  0  0  0  0
  8  7  1  0  0  0  0
  8 14  1  0  0  0  0
  8 13  1  0  0  0  0
 10  5  1  0  0  0  0
 15  4  1  0  0  0  0
 15 16  1  0  0  0  0
 17 25  1  0  0  0  0
 17 16  1  1  0  0  0
 17 26  1  0  0  0  0
 18 17  1  0  0  0  0
 19 18  1  6  0  0  0
 19 24  1  0  0  0  0
 20 21  1  6  0  0  0
 20 22  1  0  0  0  0
 20 19  1  0  0  0  0
 20 24  1  0  0  0  0
 23 22  1  0  0  0  0
 24 22  1  6  0  0  0
 24 25  1  0  0  0  0
 27 26  1  0  0  0  0
 28 33  1  0  0  0  0
 29 30  1  0  0  0  0
 30 31  2  0  0  0  0
 30 35  1  0  0  0  0
 31 36  1  0  0  0  0
 32 37  1  0  0  0  0
 32 31  1  0  0  0  0
 33 32  2  0  0  0  0
 34 33  1  0  0  0  0
 34 29  2  0  0  0  0
 38 29  1  0  0  0  0
 38 41  1  0  0  0  0
 39 38  2  0  0  0  0
 40 45  1  0  0  0  0
 41 42  1  0  0  0  0
 41 40  2  0  0  0  0
 42 43  2  0  0  0  0
 43 44  1  0  0  0  0
 44 48  1  0  0  0  0
 45 44  2  0  0  0  0
 46 40  1  0  0  0  0
 47 42  1  0  0  0  0
M  END
>  <minimizedAffinity>
-5.07513523

>  <minimizedRMSD>
3.30432034

$$$$
