
 OpenBabel03262522273D

 49 53  0  0  1  0  0  0  0  0999 V2000
   34.9020   30.5530   49.7350 C   0  0  0  0  0  0  0  0  0  0  0  0
   34.2380   30.1900   50.5650 H   0  0  0  0  0  0  0  0  0  0  0  0
   34.7730   31.6430   49.6260 H   0  0  0  0  0  0  0  0  0  0  0  0
   34.5450   27.8280   49.9280 F   0  0  0  0  0  0  0  0  0  0  0  0
   34.3880   28.4420   48.7110 C   0  0  0  0  0  0  0  0  0  0  0  0
   34.5440   29.8130   48.4950 C   0  0  0  0  0  0  0  0  0  0  0  0
   34.3730   30.3600   47.2590 C   0  0  0  0  0  0  0  0  0  0  0  0
   34.0350   29.5550   46.1660 C   0  0  0  0  0  0  0  0  0  0  0  0
   33.8750   28.2020   46.3490 C   0  0  0  0  0  0  0  0  0  0  0  0
   34.0540   27.6620   47.6200 C   0  0  0  0  0  0  0  0  0  0  0  0
   34.5080   31.4170   47.1620 H   0  0  0  0  0  0  0  0  0  0  0  0
   33.9000   29.9940   45.1810 H   0  0  0  0  0  0  0  0  0  0  0  0
   33.6130   27.5930   45.4930 H   0  0  0  0  0  0  0  0  0  0  0  0
   33.8790   26.2830   47.7490 O   0  0  0  0  0  0  0  0  0  0  0  0
   33.0330   25.5460   46.8900 C   0  0  0  0  0  2  0  0  0  0  0  0
   33.7980   24.2540   46.5710 C   0  0  2  0  0  0  0  0  0  0  0  0
   34.9260   24.5990   45.6540 C   0  0  0  0  0  2  0  0  0  0  0  0
   34.9600   23.6810   44.5620 N   0  0  0  0  0  0  0  0  0  0  0  0
   35.3500   22.7280   43.5790 C   0  0  0  0  0  0  0  0  0  0  0  0
   36.4740   22.3110   43.1850 O   0  0  0  0  0  0  0  0  0  0  0  0
   33.9720   22.3830   43.1680 C   0  0  0  0  0  3  0  0  0  0  0  0
   33.7520   22.4890   42.0810 H   0  0  0  0  0  0  0  0  0  0  0  0
   33.6330   23.6300   43.9360 C   0  0  1  0  0  3  0  0  0  0  0  0
   32.6770   23.3050   45.4730 S   0  0  0  0  0  0  0  0  0  0  0  0
   34.1710   23.5110   47.8050 C   0  0  0  0  0  2  0  0  0  0  0  0
   33.5530   23.9430   48.6380 H   0  0  0  0  0  0  0  0  0  0  0  0
   36.6100   30.1030   50.1460 S   0  0  0  0  0  0  0  0  0  0  0  0
   38.8370   32.8580   48.2190 C   0  0  0  0  0  0  0  0  0  0  0  0
   39.1330   32.1880   47.0190 C   0  0  0  0  0  0  0  0  0  0  0  0
   38.6290   30.9300   46.8780 C   0  0  0  0  0  0  0  0  0  0  0  0
   37.8790   30.3960   47.8870 N   0  0  0  0  0  0  0  0  0  0  0  0
   37.6260   31.0480   48.9850 C   0  0  0  0  0  0  0  0  0  0  0  0
   38.1000   32.3250   49.2040 N   0  0  0  0  0  0  0  0  0  0  0  0
   39.2010   33.8590   48.4100 H   0  0  0  0  0  0  0  0  0  0  0  0
   38.8420   30.3930   45.9620 H   0  0  0  0  0  0  0  0  0  0  0  0
   39.8890   32.8260   46.0960 O   0  0  0  0  0  0  0  0  0  0  0  0
   39.9950   32.3030   44.8190 C   0  0  0  0  0  0  0  0  0  0  0  0
   40.6390   31.1500   44.4320 C   0  0  0  0  0  0  0  0  0  0  0  0
   40.6470   30.7830   43.1420 C   0  0  0  0  0  0  0  0  0  0  0  0
   40.0110   31.5670   42.2300 C   0  0  0  0  0  0  0  0  0  0  0  0
   39.3570   32.7400   42.6320 C   0  0  0  0  0  0  0  0  0  0  0  0
   39.3580   33.0990   43.9500 N   0  0  0  0  0  0  0  0  0  0  0  0
   41.1080   30.6140   45.2610 H   0  0  0  0  0  0  0  0  0  0  0  0
   41.1500   29.8890   42.8560 H   0  0  0  0  0  0  0  0  0  0  0  0
   39.9770   31.3310   41.1700 H   0  0  0  0  0  0  0  0  0  0  0  0
   38.6440   33.6200   41.6060 C   0  0  0  0  0  0  0  0  0  0  0  0
   38.2750   33.0170   40.7760 H   0  0  0  0  0  0  0  0  0  0  0  0
   37.8960   34.1720   42.1830 H   0  0  0  0  0  0  0  0  0  0  0  0
   39.4140   34.3610   41.2950 H   0  0  0  0  0  0  0  0  0  0  0  0
  1 27  1  0  0  0  0
  1  2  1  0  0  0  0
  3  1  1  0  0  0  0
  5  4  1  0  0  0  0
  6  5  1  0  0  0  0
  6  1  1  0  0  0  0
  7  6  2  0  0  0  0
  8  9  2  0  0  0  0
  8  7  1  0  0  0  0
  9 10  1  0  0  0  0
 10 14  1  0  0  0  0
 10  5  2  0  0  0  0
 11  7  1  0  0  0  0
 12  8  1  0  0  0  0
 13  9  1  0  0  0  0
 15 14  1  0  0  0  0
 16 15  1  1  0  0  0
 16 25  1  0  0  0  0
 17 16  1  0  0  0  0
 18 17  1  0  0  0  0
 19 18  1  0  0  0  0
 20 19  2  0  0  0  0
 21 19  1  0  0  0  0
 22 21  1  0  0  0  0
 23 21  1  6  0  0  0
 23 18  1  0  0  0  0
 23 24  1  0  0  0  0
 24 16  1  0  0  0  0
 25 26  1  0  0  0  0
 28 34  1  0  0  0  0
 28 33  1  0  0  0  0
 29 28  2  0  0  0  0
 30 29  1  0  0  0  0
 30 31  2  0  0  0  0
 31 32  1  0  0  0  0
 32 33  2  0  0  0  0
 32 27  1  0  0  0  0
 35 30  1  0  0  0  0
 36 29  1  0  0  0  0
 37 36  1  0  0  0  0
 38 37  1  0  0  0  0
 38 43  1  0  0  0  0
 39 38  2  0  0  0  0
 40 41  2  0  0  0  0
 40 39  1  0  0  0  0
 41 42  1  0  0  0  0
 42 37  2  0  0  0  0
 44 39  1  0  0  0  0
 45 40  1  0  0  0  0
 46 48  1  0  0  0  0
 46 41  1  0  0  0  0
 47 46  1  0  0  0  0
 49 46  1  0  0  0  0
M  END
>  <minimizedAffinity>
-5.84915686

>  <minimizedRMSD>
1.65510261

$$$$
