
 OpenBabel03262522273D

 49 53  0  0  1  0  0  0  0  0999 V2000
   34.7700   30.5230   49.7790 C   0  0  0  0  0  0  0  0  0  0  0  0
   34.0880   30.1370   50.5850 H   0  0  0  0  0  0  0  0  0  0  0  0
   34.6230   31.6110   49.6770 H   0  0  0  0  0  0  0  0  0  0  0  0
   34.4730   27.7880   49.9290 F   0  0  0  0  0  0  0  0  0  0  0  0
   34.3330   28.4140   48.7160 C   0  0  0  0  0  0  0  0  0  0  0  0
   34.4620   29.7900   48.5210 C   0  0  0  0  0  0  0  0  0  0  0  0
   34.3110   30.3490   47.2870 C   0  0  0  0  0  0  0  0  0  0  0  0
   34.0210   29.5500   46.1760 C   0  0  0  0  0  0  0  0  0  0  0  0
   33.8890   28.1920   46.3390 C   0  0  0  0  0  0  0  0  0  0  0  0
   34.0470   27.6400   47.6070 C   0  0  0  0  0  0  0  0  0  0  0  0
   34.4240   31.4100   47.2070 H   0  0  0  0  0  0  0  0  0  0  0  0
   33.9020   29.9980   45.1930 H   0  0  0  0  0  0  0  0  0  0  0  0
   33.6640   27.5880   45.4690 H   0  0  0  0  0  0  0  0  0  0  0  0
   33.9010   26.2560   47.7150 O   0  0  0  0  0  0  0  0  0  0  0  0
   33.0800   25.5130   46.8370 C   0  0  0  0  0  2  0  0  0  0  0  0
   33.8500   24.2150   46.5560 C   0  0  2  0  0  0  0  0  0  0  0  0
   34.9910   24.5410   45.6480 C   0  0  0  0  0  2  0  0  0  0  0  0
   35.0380   23.6000   44.5770 N   0  0  0  0  0  0  0  0  0  0  0  0
   35.4430   22.6260   43.6200 C   0  0  0  0  0  0  0  0  0  0  0  0
   36.5720   22.2010   43.2490 O   0  0  0  0  0  0  0  0  0  0  0  0
   34.0710   22.2740   43.1960 C   0  0  0  0  0  3  0  0  0  0  0  0
   33.8660   22.3560   42.1030 H   0  0  0  0  0  0  0  0  0  0  0  0
   33.7210   23.5360   43.9320 C   0  0  1  0  0  3  0  0  0  0  0  0
   32.7440   23.2420   45.4610 S   0  0  0  0  0  0  0  0  0  0  0  0
   34.2040   23.4980   47.8100 C   0  0  0  0  0  2  0  0  0  0  0  0
   33.5740   23.9470   48.6260 H   0  0  0  0  0  0  0  0  0  0  0  0
   36.4740   30.1010   50.2350 S   0  0  0  0  0  0  0  0  0  0  0  0
   38.7250   32.8600   48.3430 C   0  0  0  0  0  0  0  0  0  0  0  0
   39.0370   32.1930   47.1460 C   0  0  0  0  0  0  0  0  0  0  0  0
   38.5340   30.9350   46.9960 C   0  0  0  0  0  0  0  0  0  0  0  0
   37.7710   30.3990   47.9930 N   0  0  0  0  0  0  0  0  0  0  0  0
   37.5040   31.0490   49.0890 C   0  0  0  0  0  0  0  0  0  0  0  0
   37.9750   32.3250   49.3170 N   0  0  0  0  0  0  0  0  0  0  0  0
   39.0860   33.8610   48.5410 H   0  0  0  0  0  0  0  0  0  0  0  0
   38.7600   30.4000   46.0820 H   0  0  0  0  0  0  0  0  0  0  0  0
   39.8040   32.8330   46.2340 O   0  0  0  0  0  0  0  0  0  0  0  0
   39.9540   32.2960   44.9680 C   0  0  0  0  0  0  0  0  0  0  0  0
   40.6540   31.1670   44.6090 C   0  0  0  0  0  0  0  0  0  0  0  0
   40.6980   30.7810   43.3250 C   0  0  0  0  0  0  0  0  0  0  0  0
   40.0420   31.5220   42.3910 C   0  0  0  0  0  0  0  0  0  0  0  0
   39.3310   32.6700   42.7650 C   0  0  0  0  0  0  0  0  0  0  0  0
   39.2950   33.0500   44.0760 N   0  0  0  0  0  0  0  0  0  0  0  0
   41.1330   30.6660   45.4530 H   0  0  0  0  0  0  0  0  0  0  0  0
   41.2440   29.9060   43.0610 H   0  0  0  0  0  0  0  0  0  0  0  0
   40.0350   31.2680   41.3350 H   0  0  0  0  0  0  0  0  0  0  0  0
   38.5950   33.5020   41.7150 C   0  0  0  0  0  0  0  0  0  0  0  0
   38.2670   32.8710   40.8890 H   0  0  0  0  0  0  0  0  0  0  0  0
   37.8150   34.0290   42.2710 H   0  0  0  0  0  0  0  0  0  0  0  0
   39.3360   34.2710   41.4030 H   0  0  0  0  0  0  0  0  0  0  0  0
  1 27  1  0  0  0  0
  1  2  1  0  0  0  0
  3  1  1  0  0  0  0
  5  4  1  0  0  0  0
  6  5  1  0  0  0  0
  6  1  1  0  0  0  0
  7  6  2  0  0  0  0
  8  9  2  0  0  0  0
  8  7  1  0  0  0  0
  9 10  1  0  0  0  0
 10 14  1  0  0  0  0
 10  5  2  0  0  0  0
 11  7  1  0  0  0  0
 12  8  1  0  0  0  0
 13  9  1  0  0  0  0
 15 14  1  0  0  0  0
 16 15  1  1  0  0  0
 16 25  1  0  0  0  0
 17 16  1  0  0  0  0
 18 17  1  0  0  0  0
 19 18  1  0  0  0  0
 20 19  2  0  0  0  0
 21 19  1  0  0  0  0
 22 21  1  0  0  0  0
 23 21  1  6  0  0  0
 23 18  1  0  0  0  0
 23 24  1  0  0  0  0
 24 16  1  0  0  0  0
 25 26  1  0  0  0  0
 28 34  1  0  0  0  0
 28 33  1  0  0  0  0
 29 28  2  0  0  0  0
 30 29  1  0  0  0  0
 30 31  2  0  0  0  0
 31 32  1  0  0  0  0
 32 33  2  0  0  0  0
 32 27  1  0  0  0  0
 35 30  1  0  0  0  0
 36 29  1  0  0  0  0
 37 36  1  0  0  0  0
 38 37  1  0  0  0  0
 38 43  1  0  0  0  0
 39 38  2  0  0  0  0
 40 41  2  0  0  0  0
 40 39  1  0  0  0  0
 41 42  1  0  0  0  0
 42 37  2  0  0  0  0
 44 39  1  0  0  0  0
 45 40  1  0  0  0  0
 46 48  1  0  0  0  0
 46 41  1  0  0  0  0
 47 46  1  0  0  0  0
 49 46  1  0  0  0  0
M  END
>  <minimizedAffinity>
-5.86299849

>  <minimizedRMSD>
1.03771818

$$$$
