
 OpenBabel03272507263D

 40 43  0  0  1  0  0  0  0  0999 V2000
   37.0380   29.8980   48.9340 C   0  0  0  0  0  0  0  0  0  0  0  0
   38.0200   30.4610   48.1010 C   0  0  0  0  0  0  0  0  0  0  0  0
   37.6300   30.9200   46.8430 C   0  0  0  0  0  0  0  0  0  0  0  0
   36.3270   30.8000   46.4850 N   0  0  0  0  0  0  0  0  0  0  0  0
   35.4070   30.2540   47.3110 C   0  0  0  0  0  0  0  0  0  0  0  0
   35.7600   29.8080   48.5210 N   0  0  0  0  0  0  0  0  0  0  0  0
   38.5670   31.4960   45.9560 N   0  0  0  0  0  0  0  0  0  0  0  0
   39.7690   32.2100   46.3740 C   0  0  0  0  0  0  0  0  0  0  0  0
   40.3130   32.8680   45.1440 C   0  0  0  0  0  0  0  0  0  0  0  0
   39.1600   32.8660   44.2230 C   0  0  0  0  0  0  0  0  0  0  0  0
   38.5480   31.5090   44.5370 C   0  0  2  0  0  0  0  0  0  0  0  0
   37.3570   29.5500   49.9030 H   0  0  0  0  0  0  0  0  0  0  0  0
   39.0440   30.5320   48.4360 H   0  0  0  0  0  0  0  0  0  0  0  0
   34.3760   30.1650   47.0150 H   0  0  0  0  0  0  0  0  0  0  0  0
   40.4670   31.5500   46.8980 H   0  0  0  0  0  0  0  0  0  0  0  0
   39.4020   32.9460   47.1400 H   0  0  0  0  0  0  0  0  0  0  0  0
   41.2690   32.4930   44.7760 H   0  0  0  0  0  0  0  0  0  0  0  0
   40.5020   33.9280   45.4290 H   0  0  0  0  0  0  0  0  0  0  0  0
   39.4400   32.8330   43.1530 H   0  0  0  0  0  0  0  0  0  0  0  0
   38.4580   33.6840   44.4150 H   0  0  0  0  0  0  0  0  0  0  0  0
   37.2580   31.3070   43.8350 C   0  0  0  0  0  0  0  0  0  0  0  0
   36.4770   32.4250   44.1070 F   0  0  0  0  0  0  0  0  0  0  0  0
   36.5370   30.2330   44.2360 F   0  0  0  0  0  0  0  0  0  0  0  0
   37.5120   31.3550   42.4860 F   0  0  0  0  0  0  0  0  0  0  0  0
   39.4710   30.4320   44.0880 C   0  0  0  0  0  0  0  0  0  0  0  0
   40.3020   30.3020   44.8440 H   0  0  0  0  0  0  0  0  0  0  0  0
   40.0110   30.8050   43.1890 H   0  0  0  0  0  0  0  0  0  0  0  0
   38.8090   29.4000   43.9470 O   0  0  0  0  0  0  0  0  0  0  0  0
   39.4530   28.3500   43.3180 C   0  0  0  0  0  2  0  0  0  0  0  0
   38.6090   27.8810   42.1690 C   0  0  1  0  0  0  0  0  0  0  0  0
   38.6240   28.7490   40.9630 C   0  0  0  0  0  2  0  0  0  0  0  0
   39.6390   28.2880   40.0540 N   0  0  0  0  0  0  0  0  0  0  0  0
   40.7580   28.2220   39.1770 C   0  0  0  0  0  0  0  0  0  0  0  0
   41.4340   29.0560   38.4840 O   0  0  0  0  0  0  0  0  0  0  0  0
   40.8980   26.7510   39.3410 C   0  0  0  0  0  3  0  0  0  0  0  0
   41.0850   26.1620   38.4380 H   0  0  0  0  0  0  0  0  0  0  0  0
   39.4620   26.8670   39.7840 C   0  0  1  0  0  3  0  0  0  0  0  0
   39.1860   26.2940   41.5040 S   0  0  0  0  0  0  0  0  0  0  0  0
   37.1900   27.6630   42.6310 C   0  0  0  0  0  2  0  0  0  0  0  0
   36.5920   27.5430   41.6810 H   0  0  0  0  0  0  0  0  0  0  0  0
  1 12  1  0  0  0  0
  2 13  1  0  0  0  0
  2  1  2  0  0  0  0
  3  2  1  0  0  0  0
  4  3  2  0  0  0  0
  4  5  1  0  0  0  0
  5  6  2  0  0  0  0
  6  1  1  0  0  0  0
  7  8  1  0  0  0  0
  7  3  1  0  0  0  0
  8 15  1  0  0  0  0
  8 16  1  0  0  0  0
  9 18  1  0  0  0  0
  9  8  1  0  0  0  0
 10 20  1  0  0  0  0
 10 11  1  0  0  0  0
 10  9  1  0  0  0  0
 11 21  1  6  0  0  0
 11  7  1  0  0  0  0
 14  5  1  0  0  0  0
 17  9  1  0  0  0  0
 19 10  1  0  0  0  0
 21 22  1  0  0  0  0
 21 23  1  0  0  0  0
 24 21  1  0  0  0  0
 25 11  1  0  0  0  0
 25 26  1  0  0  0  0
 27 25  1  0  0  0  0
 28 25  1  0  0  0  0
 29 28  1  0  0  0  0
 30 39  1  1  0  0  0
 30 29  1  0  0  0  0
 31 30  1  0  0  0  0
 32 31  1  0  0  0  0
 33 35  1  0  0  0  0
 33 32  1  0  0  0  0
 34 33  2  0  0  0  0
 36 35  1  0  0  0  0
 37 35  1  1  0  0  0
 37 32  1  0  0  0  0
 37 38  1  0  0  0  0
 38 30  1  0  0  0  0
 40 39  1  0  0  0  0
M  END
>  <minimizedAffinity>
-4.5872817

>  <minimizedRMSD>
1.4706943

$$$$
