
 OpenBabel03272509513D

 36 39  0  0  0  0  0  0  0  0999 V2000
   36.5410   28.4720   30.8280 C   0  0  0  0  0  0  0  0  0  0  0  0
   35.7140   29.2070   31.7160 C   0  0  0  0  0  0  0  0  0  0  0  0
   35.8520   29.0010   33.0720 C   0  0  0  0  0  0  0  0  0  0  0  0
   36.7930   28.0900   33.4400 N   0  0  0  0  0  0  0  0  0  0  0  0
   37.5660   27.4040   32.6060 C   0  0  0  0  0  0  0  0  0  0  0  0
   37.4350   27.6010   31.2840 N   0  0  0  0  0  0  0  0  0  0  0  0
   36.4440   28.6240   29.7560 H   0  0  0  0  0  0  0  0  0  0  0  0
   35.0070   29.8980   31.3310 H   0  0  0  0  0  0  0  0  0  0  0  0
   33.7000   29.5040   34.2070 C   0  0  0  0  0  3  0  0  0  0  0  0
   35.0550   29.7020   34.0700 C   0  0  0  0  0  0  0  0  0  0  0  0
   35.6870   30.5960   34.9080 C   0  0  0  0  0  0  0  0  0  0  0  0
   36.7660   30.7560   34.8010 H   0  0  0  0  0  0  0  0  0  0  0  0
   35.0100   31.3040   35.8820 C   0  0  0  0  0  0  0  0  0  0  0  0
   35.3280   32.2180   36.8250 N   0  0  0  0  0  0  0  0  0  0  0  0
   36.3100   32.5580   36.9480 H   0  0  0  0  0  0  0  0  0  0  0  0
   34.2270   32.5420   37.4810 N   0  0  0  0  0  0  0  0  0  0  0  0
   33.1860   31.8520   36.9830 C   0  0  0  0  0  0  0  0  0  0  0  0
   32.1510   31.9170   37.3290 H   0  0  0  0  0  0  0  0  0  0  0  0
   33.6600   31.0590   35.9660 C   0  0  0  0  0  0  0  0  0  0  0  0
   32.9620   30.1810   35.1660 C   0  0  0  0  0  3  0  0  0  0  0  0
   38.4250   26.5540   33.2550 O   0  0  0  0  0  0  0  0  0  0  0  0
   38.0780   26.0660   34.5370 C   0  0  0  0  0  0  0  0  0  0  0  0
   37.0730   26.4560   34.8050 H   0  0  0  0  0  0  0  0  0  0  0  0
   38.7740   26.5500   35.2710 H   0  0  0  0  0  0  0  0  0  0  0  0
   38.1590   24.5730   34.5830 C   0  0  0  0  0  0  0  0  0  0  0  0
   38.8220   24.1500   33.7940 H   0  0  0  0  0  0  0  0  0  0  0  0
   37.1440   24.1840   34.3590 H   0  0  0  0  0  0  0  0  0  0  0  0
   38.5230   24.0630   35.9300 C   0  0  0  0  0  0  0  0  0  0  0  0
   37.7280   24.4560   36.9900 C   0  0  0  0  0  0  0  0  0  0  0  0
   37.9430   24.0640   38.2890 C   0  0  0  0  0  0  0  0  0  0  0  0
   38.9760   23.2610   38.5380 N   0  0  0  0  0  0  0  0  0  0  0  0
   39.7610   22.8700   37.5050 C   0  0  0  0  0  0  0  0  0  0  0  0
   39.5540   23.2520   36.2240 N   0  0  0  0  0  0  0  0  0  0  0  0
   36.8580   25.1180   36.8630 H   0  0  0  0  0  0  0  0  0  0  0  0
   37.3220   24.3720   39.1190 H   0  0  0  0  0  0  0  0  0  0  0  0
   40.6170   22.2070   37.6940 H   0  0  0  0  0  0  0  0  0  0  0  0
  1  6  2  0  0  0  0
  1  2  1  0  0  0  0
  2  3  2  0  0  0  0
  3  4  1  0  0  0  0
  3 10  1  0  0  0  0
  5 21  1  0  0  0  0
  5  4  2  0  0  0  0
  6  5  1  0  0  0  0
  7  1  1  0  0  0  0
  8  2  1  0  0  0  0
  9 20  1  0  0  0  0
 10  9  2  0  0  0  0
 10 11  1  0  0  0  0
 11 13  2  0  0  0  0
 12 11  1  0  0  0  0
 13 19  1  0  0  0  0
 13 14  1  0  0  0  0
 14 15  1  0  0  0  0
 14 16  1  0  0  0  0
 17 18  1  0  0  0  0
 17 16  2  0  0  0  0
 19 17  1  0  0  0  0
 20 19  2  0  0  0  0
 21 22  1  0  0  0  0
 22 25  1  0  0  0  0
 22 23  1  0  0  0  0
 22 24  1  0  0  0  0
 25 28  1  0  0  0  0
 26 25  1  0  0  0  0
 27 25  1  0  0  0  0
 28 33  2  0  0  0  0
 28 29  1  0  0  0  0
 29 30  2  0  0  0  0
 30 31  1  0  0  0  0
 30 35  1  0  0  0  0
 32 36  1  0  0  0  0
 32 31  2  0  0  0  0
 33 32  1  0  0  0  0
 34 29  1  0  0  0  0
M  END
>  <minimizedAffinity>
-5.79569721

$$$$

 OpenBabel03272509513D

 36 39  0  0  0  0  0  0  0  0999 V2000
   36.8950   27.9260   34.5330 C   0  0  0  0  0  0  0  0  0  0  0  0
   37.5770   27.0200   35.3860 C   0  0  0  0  0  0  0  0  0  0  0  0
   37.9050   25.7720   34.9000 C   0  0  0  0  0  0  0  0  0  0  0  0
   37.5340   25.5220   33.6140 N   0  0  0  0  0  0  0  0  0  0  0  0
   36.8970   26.3730   32.8190 C   0  0  0  0  0  0  0  0  0  0  0  0
   36.5750   27.5900   33.2880 N   0  0  0  0  0  0  0  0  0  0  0  0
   36.6300   28.9140   34.9020 H   0  0  0  0  0  0  0  0  0  0  0  0
   37.8230   27.3090   36.3760 H   0  0  0  0  0  0  0  0  0  0  0  0
   38.1560   24.3530   36.9230 C   0  0  0  0  0  3  0  0  0  0  0  0
   38.6030   24.7670   35.6900 C   0  0  0  0  0  0  0  0  0  0  0  0
   39.7570   24.2120   35.1760 C   0  0  0  0  0  0  0  0  0  0  0  0
   40.1150   24.5400   34.1940 H   0  0  0  0  0  0  0  0  0  0  0  0
   40.4820   23.2530   35.8560 C   0  0  0  0  0  0  0  0  0  0  0  0
   41.6090   22.5410   35.6330 N   0  0  0  0  0  0  0  0  0  0  0  0
   42.1650   22.6570   34.7550 H   0  0  0  0  0  0  0  0  0  0  0  0
   41.8160   21.7520   36.6740 N   0  0  0  0  0  0  0  0  0  0  0  0
   40.8400   21.9340   37.5800 C   0  0  0  0  0  0  0  0  0  0  0  0
   40.7520   21.4180   38.5390 H   0  0  0  0  0  0  0  0  0  0  0  0
   39.9810   22.8840   37.0810 C   0  0  0  0  0  0  0  0  0  0  0  0
   38.8370   23.3930   37.6570 C   0  0  0  0  0  3  0  0  0  0  0  0
   36.6510   25.8530   31.5740 O   0  0  0  0  0  0  0  0  0  0  0  0
   35.7220   24.7940   31.4370 C   0  0  0  0  0  0  0  0  0  0  0  0
   34.9040   25.1230   30.7610 H   0  0  0  0  0  0  0  0  0  0  0  0
   35.2270   24.6610   32.4340 H   0  0  0  0  0  0  0  0  0  0  0  0
   36.3980   23.5430   30.9730 C   0  0  0  0  0  0  0  0  0  0  0  0
   37.4840   23.6880   30.7670 H   0  0  0  0  0  0  0  0  0  0  0  0
   35.9440   23.2680   29.9980 H   0  0  0  0  0  0  0  0  0  0  0  0
   36.1670   22.3960   31.8890 C   0  0  0  0  0  0  0  0  0  0  0  0
   35.2260   21.4610   31.5050 C   0  0  0  0  0  0  0  0  0  0  0  0
   34.9070   20.3510   32.2500 C   0  0  0  0  0  0  0  0  0  0  0  0
   35.5430   20.1690   33.4060 N   0  0  0  0  0  0  0  0  0  0  0  0
   36.4680   21.0810   33.7900 C   0  0  0  0  0  0  0  0  0  0  0  0
   36.7860   22.1750   33.0610 N   0  0  0  0  0  0  0  0  0  0  0  0
   34.6590   21.5430   30.5650 H   0  0  0  0  0  0  0  0  0  0  0  0
   34.1700   19.6190   31.9500 H   0  0  0  0  0  0  0  0  0  0  0  0
   37.0020   20.9450   34.7420 H   0  0  0  0  0  0  0  0  0  0  0  0
  1  7  1  0  0  0  0
  1  2  1  0  0  0  0
  2  8  1  0  0  0  0
  3  2  2  0  0  0  0
  3 10  1  0  0  0  0
  4  3  1  0  0  0  0
  5  6  1  0  0  0  0
  5  4  2  0  0  0  0
  6  1  2  0  0  0  0
  9 20  1  0  0  0  0
 10  9  2  0  0  0  0
 11 10  1  0  0  0  0
 11 13  2  0  0  0  0
 12 11  1  0  0  0  0
 13 19  1  0  0  0  0
 14 13  1  0  0  0  0
 14 16  1  0  0  0  0
 15 14  1  0  0  0  0
 16 17  2  0  0  0  0
 17 18  1  0  0  0  0
 19 17  1  0  0  0  0
 19 20  2  0  0  0  0
 21  5  1  0  0  0  0
 22 21  1  0  0  0  0
 22 24  1  0  0  0  0
 23 22  1  0  0  0  0
 25 22  1  0  0  0  0
 25 28  1  0  0  0  0
 26 25  1  0  0  0  0
 27 25  1  0  0  0  0
 28 33  1  0  0  0  0
 29 28  2  0  0  0  0
 29 30  1  0  0  0  0
 30 31  2  0  0  0  0
 31 32  1  0  0  0  0
 32 36  1  0  0  0  0
 33 32  2  0  0  0  0
 34 29  1  0  0  0  0
 35 30  1  0  0  0  0
M  END
>  <minimizedAffinity>
-5.77744102

$$$$

 OpenBabel03272509513D

 36 39  0  0  0  0  0  0  0  0999 V2000
   43.5040   26.2110   34.1540 C   0  0  0  0  0  0  0  0  0  0  0  0
   42.2440   26.8590   34.0910 C   0  0  0  0  0  0  0  0  0  0  0  0
   41.1190   26.1590   34.4730 C   0  0  0  0  0  0  0  0  0  0  0  0
   41.3310   24.8790   34.8870 N   0  0  0  0  0  0  0  0  0  0  0  0
   42.5120   24.2760   34.9450 C   0  0  0  0  0  0  0  0  0  0  0  0
   43.6100   24.9540   34.5730 N   0  0  0  0  0  0  0  0  0  0  0  0
   44.4000   26.7500   33.8570 H   0  0  0  0  0  0  0  0  0  0  0  0
   42.1820   27.8620   33.7540 H   0  0  0  0  0  0  0  0  0  0  0  0
   39.0920   27.0570   35.5940 C   0  0  0  0  0  3  0  0  0  0  0  0
   39.7780   26.7280   34.4480 C   0  0  0  0  0  0  0  0  0  0  0  0
   39.1790   26.9430   33.2240 C   0  0  0  0  0  0  0  0  0  0  0  0
   39.7230   26.6820   32.3100 H   0  0  0  0  0  0  0  0  0  0  0  0
   37.9110   27.4780   33.1070 C   0  0  0  0  0  0  0  0  0  0  0  0
   37.0770   27.8000   32.0930 N   0  0  0  0  0  0  0  0  0  0  0  0
   37.3480   27.6530   31.0930 H   0  0  0  0  0  0  0  0  0  0  0  0
   35.9630   28.2900   32.6090 N   0  0  0  0  0  0  0  0  0  0  0  0
   36.0510   28.2960   33.9500 C   0  0  0  0  0  0  0  0  0  0  0  0
   35.2790   28.6460   34.6410 H   0  0  0  0  0  0  0  0  0  0  0  0
   37.2810   27.7850   34.2890 C   0  0  0  0  0  0  0  0  0  0  0  0
   37.8160   27.5980   35.5450 C   0  0  0  0  0  3  0  0  0  0  0  0
   42.4270   22.9840   35.3990 O   0  0  0  0  0  0  0  0  0  0  0  0
   42.4010   22.7420   36.7930 C   0  0  0  0  0  0  0  0  0  0  0  0
   42.3040   23.7150   37.3210 H   0  0  0  0  0  0  0  0  0  0  0  0
   43.4170   22.3650   37.0790 H   0  0  0  0  0  0  0  0  0  0  0  0
   41.3190   21.7720   37.1490 C   0  0  0  0  0  0  0  0  0  0  0  0
   41.4630   21.3120   38.1540 H   0  0  0  0  0  0  0  0  0  0  0  0
   41.3810   20.9320   36.4260 H   0  0  0  0  0  0  0  0  0  0  0  0
   39.9600   22.3560   37.0080 C   0  0  0  0  0  0  0  0  0  0  0  0
   39.4840   23.1090   38.0640 C   0  0  0  0  0  0  0  0  0  0  0  0
   38.2480   23.7090   38.0750 C   0  0  0  0  0  0  0  0  0  0  0  0
   37.4670   23.5560   37.0070 N   0  0  0  0  0  0  0  0  0  0  0  0
   37.9270   22.8190   35.9660 C   0  0  0  0  0  0  0  0  0  0  0  0
   39.1420   22.2260   35.9500 N   0  0  0  0  0  0  0  0  0  0  0  0
   40.0700   23.2800   38.9800 H   0  0  0  0  0  0  0  0  0  0  0  0
   37.8740   24.2980   38.9020 H   0  0  0  0  0  0  0  0  0  0  0  0
   37.2950   22.6830   35.0770 H   0  0  0  0  0  0  0  0  0  0  0  0
  1  6  1  0  0  0  0
  2  1  2  0  0  0  0
  2  3  1  0  0  0  0
  3  4  2  0  0  0  0
  4  5  1  0  0  0  0
  5 21  1  0  0  0  0
  6  5  2  0  0  0  0
  7  1  1  0  0  0  0
  8  2  1  0  0  0  0
 10  3  1  0  0  0  0
 10  9  2  0  0  0  0
 11 10  1  0  0  0  0
 12 11  1  0  0  0  0
 13 11  2  0  0  0  0
 13 19  1  0  0  0  0
 14 16  1  0  0  0  0
 14 13  1  0  0  0  0
 15 14  1  0  0  0  0
 16 17  2  0  0  0  0
 17 19  1  0  0  0  0
 17 18  1  0  0  0  0
 19 20  2  0  0  0  0
 20  9  1  0  0  0  0
 21 22  1  0  0  0  0
 22 24  1  0  0  0  0
 22 25  1  0  0  0  0
 22 23  1  0  0  0  0
 25 26  1  0  0  0  0
 27 25  1  0  0  0  0
 28 25  1  0  0  0  0
 28 29  1  0  0  0  0
 29 30  2  0  0  0  0
 29 34  1  0  0  0  0
 30 35  1  0  0  0  0
 31 30  1  0  0  0  0
 32 31  2  0  0  0  0
 33 32  1  0  0  0  0
 33 28  2  0  0  0  0
 36 32  1  0  0  0  0
M  END
>  <minimizedAffinity>
-5.75812006

$$$$

 OpenBabel03272509513D

 36 39  0  0  0  0  0  0  0  0999 V2000
   35.3270   26.0440   31.0420 C   0  0  0  0  0  0  0  0  0  0  0  0
   35.4030   24.6270   31.0700 C   0  0  0  0  0  0  0  0  0  0  0  0
   36.2910   24.0290   31.9390 C   0  0  0  0  0  0  0  0  0  0  0  0
   37.0290   24.8760   32.7070 N   0  0  0  0  0  0  0  0  0  0  0  0
   36.9560   26.2020   32.6780 C   0  0  0  0  0  0  0  0  0  0  0  0
   36.0920   26.7890   31.8330 N   0  0  0  0  0  0  0  0  0  0  0  0
   34.6320   26.5300   30.3620 H   0  0  0  0  0  0  0  0  0  0  0  0
   34.7840   24.0520   30.4300 H   0  0  0  0  0  0  0  0  0  0  0  0
   37.6650   21.9910   32.2950 C   0  0  0  0  0  3  0  0  0  0  0  0
   36.4490   22.5850   32.0490 C   0  0  0  0  0  0  0  0  0  0  0  0
   35.3340   21.7880   31.8990 C   0  0  0  0  0  0  0  0  0  0  0  0
   34.3640   22.2590   31.7030 H   0  0  0  0  0  0  0  0  0  0  0  0
   35.3920   20.4110   31.9870 C   0  0  0  0  0  0  0  0  0  0  0  0
   34.5140   19.3880   31.8930 N   0  0  0  0  0  0  0  0  0  0  0  0
   33.4980   19.5540   31.7060 H   0  0  0  0  0  0  0  0  0  0  0  0
   35.1720   18.2550   32.0720 N   0  0  0  0  0  0  0  0  0  0  0  0
   36.4730   18.5180   32.2850 C   0  0  0  0  0  0  0  0  0  0  0  0
   37.2550   17.7750   32.4630 H   0  0  0  0  0  0  0  0  0  0  0  0
   36.6350   19.8810   32.2350 C   0  0  0  0  0  0  0  0  0  0  0  0
   37.7920   20.6130   32.3960 C   0  0  0  0  0  3  0  0  0  0  0  0
   37.8170   26.8010   33.5610 O   0  0  0  0  0  0  0  0  0  0  0  0
   37.3830   27.0610   34.8830 C   0  0  0  0  0  0  0  0  0  0  0  0
   36.3850   26.5940   35.0270 H   0  0  0  0  0  0  0  0  0  0  0  0
   37.1920   28.1630   34.9540 H   0  0  0  0  0  0  0  0  0  0  0  0
   38.3970   26.5980   35.8810 C   0  0  0  0  0  0  0  0  0  0  0  0
   38.2890   27.0980   36.8720 H   0  0  0  0  0  0  0  0  0  0  0  0
   39.3940   26.9040   35.5010 H   0  0  0  0  0  0  0  0  0  0  0  0
   38.4280   25.1190   36.0190 C   0  0  0  0  0  0  0  0  0  0  0  0
   39.4540   24.4470   35.3840 C   0  0  0  0  0  0  0  0  0  0  0  0
   39.6100   23.0830   35.4230 C   0  0  0  0  0  0  0  0  0  0  0  0
   38.7210   22.3700   36.1120 N   0  0  0  0  0  0  0  0  0  0  0  0
   37.7100   23.0210   36.7380 C   0  0  0  0  0  0  0  0  0  0  0  0
   37.5520   24.3630   36.7040 N   0  0  0  0  0  0  0  0  0  0  0  0
   40.2260   24.9670   34.7960 H   0  0  0  0  0  0  0  0  0  0  0  0
   40.4140   22.5560   34.9260 H   0  0  0  0  0  0  0  0  0  0  0  0
   36.9680   22.4470   37.3110 H   0  0  0  0  0  0  0  0  0  0  0  0
  1  2  2  0  0  0  0
  1  6  1  0  0  0  0
  2  3  1  0  0  0  0
  3 10  1  0  0  0  0
  3  4  2  0  0  0  0
  5  4  1  0  0  0  0
  5 21  1  0  0  0  0
  6  5  2  0  0  0  0
  7  1  1  0  0  0  0
  8  2  1  0  0  0  0
  9 20  1  0  0  0  0
 10  9  2  0  0  0  0
 11 13  2  0  0  0  0
 11 10  1  0  0  0  0
 12 11  1  0  0  0  0
 13 19  1  0  0  0  0
 14 13  1  0  0  0  0
 14 16  1  0  0  0  0
 15 14  1  0  0  0  0
 16 17  2  0  0  0  0
 17 18  1  0  0  0  0
 19 17  1  0  0  0  0
 19 20  2  0  0  0  0
 21 22  1  0  0  0  0
 22 24  1  0  0  0  0
 22 23  1  0  0  0  0
 22 25  1  0  0  0  0
 25 28  1  0  0  0  0
 25 26  1  0  0  0  0
 27 25  1  0  0  0  0
 28 33  1  0  0  0  0
 29 30  1  0  0  0  0
 29 28  2  0  0  0  0
 30 31  2  0  0  0  0
 31 32  1  0  0  0  0
 32 36  1  0  0  0  0
 33 32  2  0  0  0  0
 34 29  1  0  0  0  0
 35 30  1  0  0  0  0
M  END
>  <minimizedAffinity>
-5.69297075

$$$$

 OpenBabel03272509513D

 36 39  0  0  0  0  0  0  0  0999 V2000
   36.4340   25.6680   31.2770 C   0  0  0  0  0  0  0  0  0  0  0  0
   37.0650   24.8830   32.2770 C   0  0  0  0  0  0  0  0  0  0  0  0
   37.4170   25.4860   33.4660 C   0  0  0  0  0  0  0  0  0  0  0  0
   37.1190   26.8100   33.5700 N   0  0  0  0  0  0  0  0  0  0  0  0
   36.5290   27.5410   32.6310 C   0  0  0  0  0  0  0  0  0  0  0  0
   36.1840   26.9580   31.4710 N   0  0  0  0  0  0  0  0  0  0  0  0
   36.1500   25.2070   30.3340 H   0  0  0  0  0  0  0  0  0  0  0  0
   37.2550   23.8550   32.1010 H   0  0  0  0  0  0  0  0  0  0  0  0
   39.1040   23.8930   34.3540 C   0  0  0  0  0  3  0  0  0  0  0  0
   38.0680   24.7750   34.5580 C   0  0  0  0  0  0  0  0  0  0  0  0
   37.6250   24.9990   35.8450 C   0  0  0  0  0  0  0  0  0  0  0  0
   36.8000   25.7020   36.0110 H   0  0  0  0  0  0  0  0  0  0  0  0
   38.1830   24.3680   36.9400 C   0  0  0  0  0  0  0  0  0  0  0  0
   37.9840   24.3720   38.2760 N   0  0  0  0  0  0  0  0  0  0  0  0
   37.2430   24.9650   38.7170 H   0  0  0  0  0  0  0  0  0  0  0  0
   38.8500   23.5410   38.8300 N   0  0  0  0  0  0  0  0  0  0  0  0
   39.6190   22.9890   37.8760 C   0  0  0  0  0  0  0  0  0  0  0  0
   40.4210   22.2640   38.0390 H   0  0  0  0  0  0  0  0  0  0  0  0
   39.2130   23.5000   36.6660 C   0  0  0  0  0  0  0  0  0  0  0  0
   39.7080   23.2270   35.4100 C   0  0  0  0  0  3  0  0  0  0  0  0
   36.3530   28.8480   33.0080 O   0  0  0  0  0  0  0  0  0  0  0  0
   35.8280   29.1330   34.2910 C   0  0  0  0  0  0  0  0  0  0  0  0
   36.5820   28.8450   35.0550 H   0  0  0  0  0  0  0  0  0  0  0  0
   34.9730   28.4280   34.4600 H   0  0  0  0  0  0  0  0  0  0  0  0
   35.4080   30.5650   34.3930 C   0  0  0  0  0  0  0  0  0  0  0  0
   35.1730   31.0200   33.4030 H   0  0  0  0  0  0  0  0  0  0  0  0
   36.2770   31.1340   34.7830 H   0  0  0  0  0  0  0  0  0  0  0  0
   34.2990   30.7660   35.3610 C   0  0  0  0  0  0  0  0  0  0  0  0
   34.4800   31.7230   36.3400 C   0  0  0  0  0  0  0  0  0  0  0  0
   33.5430   32.0160   37.3010 C   0  0  0  0  0  0  0  0  0  0  0  0
   32.3960   31.3400   37.2850 N   0  0  0  0  0  0  0  0  0  0  0  0
   32.2090   30.3980   36.3280 C   0  0  0  0  0  0  0  0  0  0  0  0
   33.1280   30.1060   35.3800 N   0  0  0  0  0  0  0  0  0  0  0  0
   35.4000   32.3220   36.4180 H   0  0  0  0  0  0  0  0  0  0  0  0
   33.6850   32.7660   38.0680 H   0  0  0  0  0  0  0  0  0  0  0  0
   31.2680   29.8310   36.3010 H   0  0  0  0  0  0  0  0  0  0  0  0
  1  6  2  0  0  0  0
  1  2  1  0  0  0  0
  2  3  2  0  0  0  0
  3  4  1  0  0  0  0
  3 10  1  0  0  0  0
  5 21  1  0  0  0  0
  5  4  2  0  0  0  0
  6  5  1  0  0  0  0
  7  1  1  0  0  0  0
  8  2  1  0  0  0  0
  9 10  2  0  0  0  0
  9 20  1  0  0  0  0
 10 11  1  0  0  0  0
 11 12  1  0  0  0  0
 11 13  2  0  0  0  0
 13 14  1  0  0  0  0
 14 15  1  0  0  0  0
 14 16  1  0  0  0  0
 17 18  1  0  0  0  0
 17 16  2  0  0  0  0
 19 13  1  0  0  0  0
 19 17  1  0  0  0  0
 20 19  2  0  0  0  0
 21 22  1  0  0  0  0
 22 25  1  0  0  0  0
 22 24  1  0  0  0  0
 22 23  1  0  0  0  0
 25 27  1  0  0  0  0
 25 28  1  0  0  0  0
 26 25  1  0  0  0  0
 28 33  2  0  0  0  0
 28 29  1  0  0  0  0
 29 34  1  0  0  0  0
 29 30  2  0  0  0  0
 30 35  1  0  0  0  0
 31 30  1  0  0  0  0
 32 31  2  0  0  0  0
 33 32  1  0  0  0  0
 36 32  1  0  0  0  0
M  END
>  <minimizedAffinity>
-5.53256702

$$$$

 OpenBabel03272509513D

 36 39  0  0  0  0  0  0  0  0999 V2000
   35.8010   24.9180   31.0280 C   0  0  0  0  0  0  0  0  0  0  0  0
   35.5680   26.3100   31.1770 C   0  0  0  0  0  0  0  0  0  0  0  0
   36.2680   26.9990   32.1440 C   0  0  0  0  0  0  0  0  0  0  0  0
   37.1380   26.2590   32.8850 N   0  0  0  0  0  0  0  0  0  0  0  0
   37.3540   24.9560   32.7430 C   0  0  0  0  0  0  0  0  0  0  0  0
   36.6750   24.2810   31.8010 N   0  0  0  0  0  0  0  0  0  0  0  0
   35.2570   24.3620   30.2690 H   0  0  0  0  0  0  0  0  0  0  0  0
   34.8660   26.7980   30.5490 H   0  0  0  0  0  0  0  0  0  0  0  0
   36.3220   29.3690   31.4020 C   0  0  0  0  0  3  0  0  0  0  0  0
   36.1060   28.4270   32.3810 C   0  0  0  0  0  0  0  0  0  0  0  0
   35.7200   28.8460   33.6380 C   0  0  0  0  0  0  0  0  0  0  0  0
   35.5470   28.0970   34.4200 H   0  0  0  0  0  0  0  0  0  0  0  0
   35.5430   30.1790   33.9500 C   0  0  0  0  0  0  0  0  0  0  0  0
   35.1840   30.8860   35.0450 N   0  0  0  0  0  0  0  0  0  0  0  0
   34.9570   30.4150   35.9510 H   0  0  0  0  0  0  0  0  0  0  0  0
   35.1880   32.1710   34.7310 N   0  0  0  0  0  0  0  0  0  0  0  0
   35.5450   32.3200   33.4440 C   0  0  0  0  0  0  0  0  0  0  0  0
   35.6350   33.2700   32.9100 H   0  0  0  0  0  0  0  0  0  0  0  0
   35.7750   31.0670   32.9280 C   0  0  0  0  0  0  0  0  0  0  0  0
   36.1610   30.7230   31.6510 C   0  0  0  0  0  3  0  0  0  0  0  0
   38.2860   24.4730   33.6250 O   0  0  0  0  0  0  0  0  0  0  0  0
   38.5990   23.0930   33.6150 C   0  0  0  0  0  0  0  0  0  0  0  0
   39.7010   22.9790   33.6970 H   0  0  0  0  0  0  0  0  0  0  0  0
   38.3520   22.7090   32.5910 H   0  0  0  0  0  0  0  0  0  0  0  0
   37.8520   22.3650   34.6870 C   0  0  0  0  0  0  0  0  0  0  0  0
   37.7690   21.2710   34.4910 H   0  0  0  0  0  0  0  0  0  0  0  0
   36.8110   22.7490   34.6780 H   0  0  0  0  0  0  0  0  0  0  0  0
   38.3940   22.6350   36.0430 C   0  0  0  0  0  0  0  0  0  0  0  0
   37.5220   23.1510   36.9810 C   0  0  0  0  0  0  0  0  0  0  0  0
   37.8810   23.4490   38.2730 C   0  0  0  0  0  0  0  0  0  0  0  0
   39.1430   23.2280   38.6400 N   0  0  0  0  0  0  0  0  0  0  0  0
   40.0060   22.7220   37.7260 C   0  0  0  0  0  0  0  0  0  0  0  0
   39.6580   22.4260   36.4530 N   0  0  0  0  0  0  0  0  0  0  0  0
   36.4650   23.3600   36.7540 H   0  0  0  0  0  0  0  0  0  0  0  0
   37.1980   23.8530   39.0080 H   0  0  0  0  0  0  0  0  0  0  0  0
   41.0510   22.5340   38.0120 H   0  0  0  0  0  0  0  0  0  0  0  0
  1  2  2  0  0  0  0
  1  6  1  0  0  0  0
  2  3  1  0  0  0  0
  3 10  1  0  0  0  0
  3  4  2  0  0  0  0
  5  4  1  0  0  0  0
  5 21  1  0  0  0  0
  6  5  2  0  0  0  0
  7  1  1  0  0  0  0
  8  2  1  0  0  0  0
  9 20  2  0  0  0  0
  9 10  1  0  0  0  0
 10 11  2  0  0  0  0
 11 13  1  0  0  0  0
 11 12  1  0  0  0  0
 13 14  1  0  0  0  0
 14 15  1  0  0  0  0
 16 14  1  0  0  0  0
 17 16  2  0  0  0  0
 18 17  1  0  0  0  0
 19 17  1  0  0  0  0
 19 13  2  0  0  0  0
 20 19  1  0  0  0  0
 22 21  1  0  0  0  0
 22 23  1  0  0  0  0
 22 25  1  0  0  0  0
 24 22  1  0  0  0  0
 25 28  1  0  0  0  0
 26 25  1  0  0  0  0
 27 25  1  0  0  0  0
 28 33  2  0  0  0  0
 28 29  1  0  0  0  0
 29 30  2  0  0  0  0
 30 31  1  0  0  0  0
 30 35  1  0  0  0  0
 32 36  1  0  0  0  0
 32 31  2  0  0  0  0
 33 32  1  0  0  0  0
 34 29  1  0  0  0  0
M  END
>  <minimizedAffinity>
-5.44824505

$$$$

 OpenBabel03272509513D

 36 39  0  0  0  0  0  0  0  0999 V2000
   35.5690   24.0670   31.2300 C   0  0  0  0  0  0  0  0  0  0  0  0
   35.4470   25.4590   30.9830 C   0  0  0  0  0  0  0  0  0  0  0  0
   36.3520   26.3170   31.5700 C   0  0  0  0  0  0  0  0  0  0  0  0
   37.3020   25.7330   32.3500 N   0  0  0  0  0  0  0  0  0  0  0  0
   37.4130   24.4300   32.5800 C   0  0  0  0  0  0  0  0  0  0  0  0
   36.5340   23.5890   32.0100 N   0  0  0  0  0  0  0  0  0  0  0  0
   34.8630   23.3770   30.7750 H   0  0  0  0  0  0  0  0  0  0  0  0
   34.6700   25.8180   30.3570 H   0  0  0  0  0  0  0  0  0  0  0  0
   35.8730   28.6240   32.3580 C   0  0  0  0  0  3  0  0  0  0  0  0
   36.3180   27.7620   31.3830 C   0  0  0  0  0  0  0  0  0  0  0  0
   36.7490   28.2790   30.1790 C   0  0  0  0  0  0  0  0  0  0  0  0
   37.1040   27.5950   29.4000 H   0  0  0  0  0  0  0  0  0  0  0  0
   36.7510   29.6350   29.9160 C   0  0  0  0  0  0  0  0  0  0  0  0
   37.0980   30.4280   28.8780 N   0  0  0  0  0  0  0  0  0  0  0  0
   37.4760   30.0300   27.9870 H   0  0  0  0  0  0  0  0  0  0  0  0
   36.8710   31.6850   29.2190 N   0  0  0  0  0  0  0  0  0  0  0  0
   36.3800   31.7320   30.4700 C   0  0  0  0  0  0  0  0  0  0  0  0
   36.0990   32.6380   31.0140 H   0  0  0  0  0  0  0  0  0  0  0  0
   36.2950   30.4400   30.9320 C   0  0  0  0  0  0  0  0  0  0  0  0
   35.8500   29.9960   32.1580 C   0  0  0  0  0  3  0  0  0  0  0  0
   38.4640   24.1250   33.4060 O   0  0  0  0  0  0  0  0  0  0  0  0
   38.9740   22.8040   33.4190 C   0  0  0  0  0  0  0  0  0  0  0  0
   40.0790   22.8520   33.5250 H   0  0  0  0  0  0  0  0  0  0  0  0
   38.8070   22.3790   32.3950 H   0  0  0  0  0  0  0  0  0  0  0  0
   38.3170   21.9850   34.4840 C   0  0  0  0  0  0  0  0  0  0  0  0
   38.4430   20.8890   34.3280 H   0  0  0  0  0  0  0  0  0  0  0  0
   37.2250   22.1720   34.4130 H   0  0  0  0  0  0  0  0  0  0  0  0
   38.7310   22.3910   35.8520 C   0  0  0  0  0  0  0  0  0  0  0  0
   37.8050   23.0760   36.6140 C   0  0  0  0  0  0  0  0  0  0  0  0
   38.0470   23.5140   37.8940 C   0  0  0  0  0  0  0  0  0  0  0  0
   39.2420   23.2610   38.4270 N   0  0  0  0  0  0  0  0  0  0  0  0
   40.1560   22.5890   37.6860 C   0  0  0  0  0  0  0  0  0  0  0  0
   39.9230   22.1560   36.4260 N   0  0  0  0  0  0  0  0  0  0  0  0
   36.7990   23.3220   36.2430 H   0  0  0  0  0  0  0  0  0  0  0  0
   37.3230   24.0510   38.4920 H   0  0  0  0  0  0  0  0  0  0  0  0
   41.1460   22.3730   38.1110 H   0  0  0  0  0  0  0  0  0  0  0  0
  1  6  1  0  0  0  0
  2  1  2  0  0  0  0
  2  3  1  0  0  0  0
  3  4  2  0  0  0  0
  4  5  1  0  0  0  0
  5 21  1  0  0  0  0
  6  5  2  0  0  0  0
  7  1  1  0  0  0  0
  8  2  1  0  0  0  0
 10  3  1  0  0  0  0
 10  9  2  0  0  0  0
 11 10  1  0  0  0  0
 12 11  1  0  0  0  0
 13 11  2  0  0  0  0
 13 19  1  0  0  0  0
 14 16  1  0  0  0  0
 14 13  1  0  0  0  0
 15 14  1  0  0  0  0
 16 17  2  0  0  0  0
 17 19  1  0  0  0  0
 17 18  1  0  0  0  0
 19 20  2  0  0  0  0
 20  9  1  0  0  0  0
 21 22  1  0  0  0  0
 22 23  1  0  0  0  0
 22 25  1  0  0  0  0
 24 22  1  0  0  0  0
 25 28  1  0  0  0  0
 26 25  1  0  0  0  0
 27 25  1  0  0  0  0
 28 33  2  0  0  0  0
 28 29  1  0  0  0  0
 29 30  2  0  0  0  0
 30 31  1  0  0  0  0
 30 35  1  0  0  0  0
 32 36  1  0  0  0  0
 32 31  2  0  0  0  0
 33 32  1  0  0  0  0
 34 29  1  0  0  0  0
M  END
>  <minimizedAffinity>
-5.42699528

$$$$

 OpenBabel03272509513D

 36 39  0  0  0  0  0  0  0  0999 V2000
   40.9260   25.9590   34.6350 C   0  0  0  0  0  0  0  0  0  0  0  0
   39.9160   26.9410   34.4610 C   0  0  0  0  0  0  0  0  0  0  0  0
   38.7800   26.6040   33.7560 C   0  0  0  0  0  0  0  0  0  0  0  0
   38.7330   25.3290   33.2830 N   0  0  0  0  0  0  0  0  0  0  0  0
   39.6800   24.4120   33.4470 C   0  0  0  0  0  0  0  0  0  0  0  0
   40.7890   24.7360   34.1330 N   0  0  0  0  0  0  0  0  0  0  0  0
   41.8270   26.2090   35.1880 H   0  0  0  0  0  0  0  0  0  0  0  0
   40.0460   27.9110   34.8690 H   0  0  0  0  0  0  0  0  0  0  0  0
   36.8300   27.9410   34.5180 C   0  0  0  0  0  3  0  0  0  0  0  0
   37.6840   27.5330   33.5190 C   0  0  0  0  0  0  0  0  0  0  0  0
   37.4990   28.0210   32.2420 C   0  0  0  0  0  0  0  0  0  0  0  0
   38.1770   27.6970   31.4440 H   0  0  0  0  0  0  0  0  0  0  0  0
   36.4850   28.9050   31.9280 C   0  0  0  0  0  0  0  0  0  0  0  0
   36.0550   29.5420   30.8160 N   0  0  0  0  0  0  0  0  0  0  0  0
   36.5300   29.4130   29.8930 H   0  0  0  0  0  0  0  0  0  0  0  0
   35.0090   30.2830   31.1390 N   0  0  0  0  0  0  0  0  0  0  0  0
   34.7430   30.1430   32.4490 C   0  0  0  0  0  0  0  0  0  0  0  0
   33.9340   30.6360   32.9950 H   0  0  0  0  0  0  0  0  0  0  0  0
   35.6700   29.2720   32.9700 C   0  0  0  0  0  0  0  0  0  0  0  0
   35.7940   28.8280   34.2690 C   0  0  0  0  0  3  0  0  0  0  0  0
   39.3660   23.2130   32.8620 O   0  0  0  0  0  0  0  0  0  0  0  0
   39.4310   22.0280   33.6340 C   0  0  0  0  0  0  0  0  0  0  0  0
   40.3850   22.0280   34.2030 H   0  0  0  0  0  0  0  0  0  0  0  0
   39.5310   21.1740   32.9150 H   0  0  0  0  0  0  0  0  0  0  0  0
   38.2260   21.8910   34.5100 C   0  0  0  0  0  0  0  0  0  0  0  0
   37.8150   20.8550   34.5220 H   0  0  0  0  0  0  0  0  0  0  0  0
   37.4280   22.5230   34.0690 H   0  0  0  0  0  0  0  0  0  0  0  0
   38.4610   22.3990   35.8860 C   0  0  0  0  0  0  0  0  0  0  0  0
   39.7200   22.2130   36.4220 C   0  0  0  0  0  0  0  0  0  0  0  0
   40.0820   22.6290   37.6800 C   0  0  0  0  0  0  0  0  0  0  0  0
   39.1650   23.2470   38.4230 N   0  0  0  0  0  0  0  0  0  0  0  0
   37.9260   23.4340   37.9050 C   0  0  0  0  0  0  0  0  0  0  0  0
   37.5650   23.0270   36.6680 N   0  0  0  0  0  0  0  0  0  0  0  0
   40.5300   21.7110   35.8690 H   0  0  0  0  0  0  0  0  0  0  0  0
   41.0680   22.4840   38.1000 H   0  0  0  0  0  0  0  0  0  0  0  0
   37.1590   23.9430   38.5060 H   0  0  0  0  0  0  0  0  0  0  0  0
  1  7  1  0  0  0  0
  2  1  1  0  0  0  0
  2  8  1  0  0  0  0
  3  2  2  0  0  0  0
  4  5  2  0  0  0  0
  4  3  1  0  0  0  0
  5  6  1  0  0  0  0
  6  1  2  0  0  0  0
 10  3  1  0  0  0  0
 10  9  2  0  0  0  0
 11 10  1  0  0  0  0
 12 11  1  0  0  0  0
 13 11  2  0  0  0  0
 13 19  1  0  0  0  0
 14 16  1  0  0  0  0
 14 13  1  0  0  0  0
 15 14  1  0  0  0  0
 16 17  2  0  0  0  0
 17 19  1  0  0  0  0
 17 18  1  0  0  0  0
 19 20  2  0  0  0  0
 20  9  1  0  0  0  0
 21  5  1  0  0  0  0
 21 22  1  0  0  0  0
 22 23  1  0  0  0  0
 22 25  1  0  0  0  0
 24 22  1  0  0  0  0
 25 26  1  0  0  0  0
 25 28  1  0  0  0  0
 27 25  1  0  0  0  0
 28 29  2  0  0  0  0
 28 33  1  0  0  0  0
 29 30  1  0  0  0  0
 30 35  1  0  0  0  0
 30 31  2  0  0  0  0
 32 31  1  0  0  0  0
 32 36  1  0  0  0  0
 33 32  2  0  0  0  0
 34 29  1  0  0  0  0
M  END
>  <minimizedAffinity>
-5.41425276

$$$$

 OpenBabel03272509513D

 36 39  0  0  0  0  0  0  0  0999 V2000
   36.5470   28.6190   31.6680 C   0  0  0  0  0  0  0  0  0  0  0  0
   35.9170   29.5880   32.4920 C   0  0  0  0  0  0  0  0  0  0  0  0
   35.8180   29.3420   33.8450 C   0  0  0  0  0  0  0  0  0  0  0  0
   36.3480   28.1640   34.2730 N   0  0  0  0  0  0  0  0  0  0  0  0
   36.9370   27.2600   33.5000 C   0  0  0  0  0  0  0  0  0  0  0  0
   37.0360   27.4940   32.1810 N   0  0  0  0  0  0  0  0  0  0  0  0
   36.6340   28.7980   30.6000 H   0  0  0  0  0  0  0  0  0  0  0  0
   35.5340   30.4780   32.0620 H   0  0  0  0  0  0  0  0  0  0  0  0
   35.9190   31.1180   35.5790 C   0  0  0  0  0  3  0  0  0  0  0  0
   35.1910   30.2680   34.7790 C   0  0  0  0  0  0  0  0  0  0  0  0
   33.8140   30.2880   34.8610 C   0  0  0  0  0  0  0  0  0  0  0  0
   33.2320   29.6120   34.2250 H   0  0  0  0  0  0  0  0  0  0  0  0
   33.1370   31.1320   35.7190 C   0  0  0  0  0  0  0  0  0  0  0  0
   31.8450   31.3840   36.0240 N   0  0  0  0  0  0  0  0  0  0  0  0
   31.0620   30.8710   35.5560 H   0  0  0  0  0  0  0  0  0  0  0  0
   31.8100   32.3280   36.9490 N   0  0  0  0  0  0  0  0  0  0  0  0
   33.0640   32.7020   37.2590 C   0  0  0  0  0  0  0  0  0  0  0  0
   33.3420   33.4630   37.9930 H   0  0  0  0  0  0  0  0  0  0  0  0
   33.9230   31.9560   36.4890 C   0  0  0  0  0  0  0  0  0  0  0  0
   35.3000   31.9910   36.4610 C   0  0  0  0  0  3  0  0  0  0  0  0
   37.3780   26.1670   34.2010 O   0  0  0  0  0  0  0  0  0  0  0  0
   37.8190   26.3330   35.5360 C   0  0  0  0  0  0  0  0  0  0  0  0
   37.8620   25.3350   36.0220 H   0  0  0  0  0  0  0  0  0  0  0  0
   37.0080   26.8800   36.0840 H   0  0  0  0  0  0  0  0  0  0  0  0
   39.1240   27.0640   35.5830 C   0  0  0  0  0  0  0  0  0  0  0  0
   39.4440   27.3140   36.6210 H   0  0  0  0  0  0  0  0  0  0  0  0
   38.9700   28.0390   35.0750 H   0  0  0  0  0  0  0  0  0  0  0  0
   40.1990   26.3600   34.8370 C   0  0  0  0  0  0  0  0  0  0  0  0
   40.8510   27.0710   33.8480 C   0  0  0  0  0  0  0  0  0  0  0  0
   41.8630   26.5510   33.0780 C   0  0  0  0  0  0  0  0  0  0  0  0
   42.2350   25.2910   33.2990 N   0  0  0  0  0  0  0  0  0  0  0  0
   41.6000   24.5860   34.2670 C   0  0  0  0  0  0  0  0  0  0  0  0
   40.6040   25.0930   35.0280 N   0  0  0  0  0  0  0  0  0  0  0  0
   40.6000   28.1150   33.6070 H   0  0  0  0  0  0  0  0  0  0  0  0
   42.3740   27.1070   32.3030 H   0  0  0  0  0  0  0  0  0  0  0  0
   41.8960   23.5460   34.4630 H   0  0  0  0  0  0  0  0  0  0  0  0
  1  6  2  0  0  0  0
  1  2  1  0  0  0  0
  2  3  2  0  0  0  0
  3  4  1  0  0  0  0
  3 10  1  0  0  0  0
  5 21  1  0  0  0  0
  5  4  2  0  0  0  0
  6  5  1  0  0  0  0
  7  1  1  0  0  0  0
  8  2  1  0  0  0  0
  9 20  1  0  0  0  0
 10 11  1  0  0  0  0
 10  9  2  0  0  0  0
 11 13  2  0  0  0  0
 12 11  1  0  0  0  0
 13 14  1  0  0  0  0
 13 19  1  0  0  0  0
 14 16  1  0  0  0  0
 15 14  1  0  0  0  0
 16 17  2  0  0  0  0
 17 18  1  0  0  0  0
 19 17  1  0  0  0  0
 20 19  2  0  0  0  0
 21 22  1  0  0  0  0
 22 25  1  0  0  0  0
 22 23  1  0  0  0  0
 22 24  1  0  0  0  0
 25 26  1  0  0  0  0
 27 25  1  0  0  0  0
 28 33  1  0  0  0  0
 28 25  1  0  0  0  0
 29 28  2  0  0  0  0
 30 31  2  0  0  0  0
 30 29  1  0  0  0  0
 31 32  1  0  0  0  0
 32 36  1  0  0  0  0
 32 33  2  0  0  0  0
 34 29  1  0  0  0  0
 35 30  1  0  0  0  0
M  END
>  <minimizedAffinity>
-5.41017914

$$$$
