
 OpenBabel03272509493D

 36 39  0  0  0  0  0  0  0  0999 V2000
   37.1800   30.2290   51.3840 C   0  0  0  0  0  0  0  0  0  0  0  0
   37.9620   30.8890   50.4000 C   0  0  0  0  0  0  0  0  0  0  0  0
   37.7130   30.6250   49.0700 C   0  0  0  0  0  0  0  0  0  0  0  0
   36.7150   29.7340   48.8200 N   0  0  0  0  0  0  0  0  0  0  0  0
   35.9860   29.1180   49.7440 C   0  0  0  0  0  0  0  0  0  0  0  0
   36.2240   29.3720   51.0410 N   0  0  0  0  0  0  0  0  0  0  0  0
   37.3650   30.4270   52.4360 H   0  0  0  0  0  0  0  0  0  0  0  0
   38.7190   31.5700   50.6960 H   0  0  0  0  0  0  0  0  0  0  0  0
   38.8700   32.5580   48.0220 C   0  0  0  0  0  3  0  0  0  0  0  0
   38.4540   31.2470   47.9810 C   0  0  0  0  0  0  0  0  0  0  0  0
   38.7480   30.4880   46.8680 C   0  0  0  0  0  0  0  0  0  0  0  0
   38.4170   29.4430   46.8330 H   0  0  0  0  0  0  0  0  0  0  0  0
   39.4460   30.9950   45.7900 C   0  0  0  0  0  0  0  0  0  0  0  0
   39.8760   30.5280   44.5980 N   0  0  0  0  0  0  0  0  0  0  0  0
   39.6950   29.5410   44.2980 H   0  0  0  0  0  0  0  0  0  0  0  0
   40.5090   31.5030   43.9700 N   0  0  0  0  0  0  0  0  0  0  0  0
   40.5030   32.6100   44.7340 C   0  0  0  0  0  0  0  0  0  0  0  0
   40.9510   33.5720   44.4710 H   0  0  0  0  0  0  0  0  0  0  0  0
   39.8320   32.3090   45.8950 C   0  0  0  0  0  0  0  0  0  0  0  0
   39.5750   33.1280   46.9730 C   0  0  0  0  0  3  0  0  0  0  0  0
   35.0500   28.2720   49.2040 O   0  0  0  0  0  0  0  0  0  0  0  0
   34.2150   28.7380   48.1620 C   0  0  0  0  0  0  0  0  0  0  0  0
   34.8510   29.2050   47.3790 H   0  0  0  0  0  0  0  0  0  0  0  0
   33.6130   29.5870   48.5790 H   0  0  0  0  0  0  0  0  0  0  0  0
   33.3490   27.6390   47.6350 C   0  0  0  0  0  0  0  0  0  0  0  0
   33.6100   26.6400   48.0560 H   0  0  0  0  0  0  0  0  0  0  0  0
   33.5450   27.5620   46.5450 H   0  0  0  0  0  0  0  0  0  0  0  0
   31.9000   27.9310   47.7870 C   0  0  0  0  0  0  0  0  0  0  0  0
   31.3050   27.5680   48.9800 C   0  0  0  0  0  0  0  0  0  0  0  0
   29.9770   27.7750   49.2620 C   0  0  0  0  0  0  0  0  0  0  0  0
   29.2220   28.3590   48.3320 N   0  0  0  0  0  0  0  0  0  0  0  0
   29.7980   28.7180   47.1590 C   0  0  0  0  0  0  0  0  0  0  0  0
   31.1040   28.5170   46.8760 N   0  0  0  0  0  0  0  0  0  0  0  0
   31.8620   27.0820   49.7950 H   0  0  0  0  0  0  0  0  0  0  0  0
   29.5100   27.4910   50.1960 H   0  0  0  0  0  0  0  0  0  0  0  0
   29.1890   29.2010   46.3810 H   0  0  0  0  0  0  0  0  0  0  0  0
  1  7  1  0  0  0  0
  2  8  1  0  0  0  0
  2  1  2  0  0  0  0
  3  2  1  0  0  0  0
  4  3  2  0  0  0  0
  4  5  1  0  0  0  0
  5  6  2  0  0  0  0
  6  1  1  0  0  0  0
 10  9  1  0  0  0  0
 10  3  1  0  0  0  0
 11 10  2  0  0  0  0
 12 11  1  0  0  0  0
 13 19  2  0  0  0  0
 13 11  1  0  0  0  0
 14 13  1  0  0  0  0
 15 14  1  0  0  0  0
 16 14  1  0  0  0  0
 16 17  2  0  0  0  0
 17 19  1  0  0  0  0
 18 17  1  0  0  0  0
 19 20  1  0  0  0  0
 20  9  2  0  0  0  0
 21  5  1  0  0  0  0
 22 24  1  0  0  0  0
 22 21  1  0  0  0  0
 23 22  1  0  0  0  0
 25 28  1  0  0  0  0
 25 26  1  0  0  0  0
 25 22  1  0  0  0  0
 27 25  1  0  0  0  0
 28 29  1  0  0  0  0
 29 30  2  0  0  0  0
 29 34  1  0  0  0  0
 30 35  1  0  0  0  0
 31 30  1  0  0  0  0
 32 31  2  0  0  0  0
 33 32  1  0  0  0  0
 33 28  2  0  0  0  0
 36 32  1  0  0  0  0
M  END
>  <minimizedAffinity>
-6.6313839

>  <minimizedRMSD>
0.955699682

$$$$
