
 OpenBabel03262521533D

 26 28  0  0  0  0  0  0  0  0999 V2000
   34.8130   29.2750   49.6030 C   0  0  0  0  0  0  0  0  0  0  0  0
   34.2540   28.4630   50.1300 H   0  0  0  0  0  0  0  0  0  0  0  0
   34.4000   30.2430   49.9540 H   0  0  0  0  0  0  0  0  0  0  0  0
   36.5740   29.2000   49.9820 S   0  0  0  0  0  0  0  0  0  0  0  0
   37.3780   30.6050   49.2180 C   0  0  0  0  0  0  0  0  0  0  0  0
   37.2400   31.7810   49.9330 C   0  0  0  0  0  0  0  0  0  0  0  0
   37.8460   32.9290   49.3950 C   0  0  0  0  0  0  0  0  0  0  0  0
   38.5300   32.8190   48.2110 N   0  0  0  0  0  0  0  0  0  0  0  0
   38.6240   31.6460   47.5710 C   0  0  0  0  0  0  0  0  0  0  0  0
   38.0530   30.5460   48.0690 N   0  0  0  0  0  0  0  0  0  0  0  0
   36.7120   31.9150   50.8690 H   0  0  0  0  0  0  0  0  0  0  0  0
   37.7750   33.8730   49.9010 H   0  0  0  0  0  0  0  0  0  0  0  0
   39.1760   31.6210   46.6400 H   0  0  0  0  0  0  0  0  0  0  0  0
   34.4710   29.0740   47.8350 S   0  0  0  0  0  0  0  0  0  0  0  0
   32.2510   27.7240   48.7150 C   0  0  0  0  0  3  0  0  0  0  0  0
   32.7840   28.5010   47.6890 C   0  0  0  0  0  0  0  0  0  0  0  0
   31.9620   28.7860   46.6010 C   0  0  0  0  0  0  0  0  0  0  0  0
   32.3760   29.3810   45.8180 H   0  0  0  0  0  0  0  0  0  0  0  0
   30.6620   28.3120   46.5490 C   0  0  0  0  0  0  0  0  0  0  0  0
   29.7080   28.4720   45.5950 N   0  0  0  0  0  0  0  0  0  0  0  0
   29.7480   28.9910   44.6880 H   0  0  0  0  0  0  0  0  0  0  0  0
   28.6250   27.8200   46.0120 N   0  0  0  0  0  0  0  0  0  0  0  0
   28.8950   27.2610   47.2070 C   0  0  0  0  0  0  0  0  0  0  0  0
   28.1570   26.6670   47.7600 H   0  0  0  0  0  0  0  0  0  0  0  0
   30.1920   27.5480   47.5950 C   0  0  0  0  0  0  0  0  0  0  0  0
   30.9470   27.2310   48.6940 C   0  0  0  0  0  3  0  0  0  0  0  0
  1  3  1  0  0  0  0
  1  4  1  0  0  0  0
  1  2  1  0  0  0  0
  5  6  1  0  0  0  0
  5  4  1  0  0  0  0
  6 11  1  0  0  0  0
  7 12  1  0  0  0  0
  7  6  2  0  0  0  0
  8  7  1  0  0  0  0
  9 10  1  0  0  0  0
  9  8  2  0  0  0  0
 10  5  2  0  0  0  0
 13  9  1  0  0  0  0
 14  1  1  0  0  0  0
 16 14  1  0  0  0  0
 16 15  2  0  0  0  0
 17 16  1  0  0  0  0
 18 17  1  0  0  0  0
 19 17  2  0  0  0  0
 19 25  1  0  0  0  0
 20 22  1  0  0  0  0
 20 19  1  0  0  0  0
 21 20  1  0  0  0  0
 22 23  2  0  0  0  0
 23 25  1  0  0  0  0
 23 24  1  0  0  0  0
 25 26  2  0  0  0  0
 26 15  1  0  0  0  0
M  END
>  <minimizedAffinity>
-4.4160161

>  <minimizedRMSD>
2.3258121

$$$$
