
 OpenBabel03272506463D

 45 49  0  0  1  0  0  0  0  0999 V2000
   31.3570   26.8460   45.8830 O   0  0  0  0  0  0  0  0  0  0  0  0
   32.1520   28.4210   47.5420 C   0  0  2  0  0  0  0  0  0  0  0  0
   33.4090   28.3280   48.3520 C   0  0  1  0  0  0  0  0  0  0  0  0
   33.8400   27.0360   48.3150 O   0  0  0  0  0  0  0  0  0  0  0  0
   33.1480   26.3530   47.3190 C   0  0  0  0  0  0  0  0  0  0  0  0
   32.4990   27.3800   46.4300 C   0  0  1  0  0  0  0  0  0  0  0  0
   31.2290   28.1580   48.0470 H   0  0  0  0  0  0  0  0  0  0  0  0
   33.2610   28.7370   49.3700 H   0  0  0  0  0  0  0  0  0  0  0  0
   32.4960   25.6450   47.8020 H   0  0  0  0  0  0  0  0  0  0  0  0
   33.9510   25.8670   46.7010 H   0  0  0  0  0  0  0  0  0  0  0  0
   33.1840   27.9070   45.7730 H   0  0  0  0  0  0  0  0  0  0  0  0
   32.0310   29.6980   46.9550 O   0  0  0  0  0  0  0  0  0  0  0  0
   32.7820   29.7830   46.3130 H   0  0  0  0  0  0  0  0  0  0  0  0
   34.6760   29.3790   47.5290 S   0  0  0  0  0  0  0  0  0  0  0  0
   37.2280   29.3110   50.5620 C   0  0  0  0  0  0  0  0  0  0  0  0
   37.7160   30.6190   50.6450 C   0  0  0  0  0  0  0  0  0  0  0  0
   37.2450   31.5520   49.7370 C   0  0  0  0  0  0  0  0  0  0  0  0
   36.3280   31.1560   48.8050 N   0  0  0  0  0  0  0  0  0  0  0  0
   35.8780   29.8840   48.7560 C   0  0  0  0  0  0  0  0  0  0  0  0
   36.3200   28.9440   49.6310 N   0  0  0  0  0  0  0  0  0  0  0  0
   37.5370   28.5170   51.2270 H   0  0  0  0  0  0  0  0  0  0  0  0
   38.4420   30.8630   51.4090 H   0  0  0  0  0  0  0  0  0  0  0  0
   37.5860   32.5630   49.7580 H   0  0  0  0  0  0  0  0  0  0  0  0
   30.0440   28.6950   44.0050 Cl  0  0  0  0  0  0  0  0  0  0  0  0
   29.3950   27.9730   45.4580 C   0  0  0  0  0  0  0  0  0  0  0  0
   30.1070   27.1090   46.2540 C   0  0  0  0  0  0  0  0  0  0  0  0
   29.4710   26.5760   47.3790 C   0  0  0  0  0  0  0  0  0  0  0  0
   28.1670   26.9130   47.6730 C   0  0  0  0  0  0  0  0  0  0  0  0
   27.4410   27.7820   46.8780 C   0  0  0  0  0  0  0  0  0  0  0  0
   28.0720   28.3150   45.7580 C   0  0  0  0  0  0  0  0  0  0  0  0
   29.9520   25.8890   48.0540 H   0  0  0  0  0  0  0  0  0  0  0  0
   27.6820   26.5030   48.5360 H   0  0  0  0  0  0  0  0  0  0  0  0
   26.4200   28.0440   47.1130 H   0  0  0  0  0  0  0  0  0  0  0  0
   27.4940   30.5750   45.2010 C   0  0  0  0  0  3  0  0  0  0  0  0
   27.2930   29.2130   44.9490 C   0  0  0  0  0  0  0  0  0  0  0  0
   26.3800   28.9100   43.9670 C   0  0  0  0  0  0  0  0  0  0  0  0
   26.2290   27.8740   43.7800 H   0  0  0  0  0  0  0  0  0  0  0  0
   25.6950   29.8790   43.2640 C   0  0  0  0  0  0  0  0  0  0  0  0
   24.7810   29.7630   42.2850 N   0  0  0  0  0  0  0  0  0  0  0  0
   24.4470   28.8480   41.9040 H   0  0  0  0  0  0  0  0  0  0  0  0
   24.4420   30.9990   41.9590 N   0  0  0  0  0  0  0  0  0  0  0  0
   25.1050   31.9000   42.6910 C   0  0  0  0  0  0  0  0  0  0  0  0
   25.0520   32.9770   42.6630 H   0  0  0  0  0  0  0  0  0  0  0  0
   25.9310   31.2080   43.5520 C   0  0  0  0  0  0  0  0  0  0  0  0
   26.8360   31.5830   44.5270 C   0  0  0  0  0  3  0  0  0  0  0  0
  1 26  1  0  0  0  0
  1  6  1  0  0  0  0
  2  7  1  1  0  0  0
  2  3  1  0  0  0  0
  3  8  1  1  0  0  0
  4  3  1  0  0  0  0
  5  9  1  0  0  0  0
  5  4  1  0  0  0  0
  6 11  1  6  0  0  0
  6  5  1  0  0  0  0
  6  2  1  0  0  0  0
 10  5  1  0  0  0  0
 12  2  1  0  0  0  0
 13 12  1  0  0  0  0
 14  3  1  0  0  0  0
 14 19  1  0  0  0  0
 15 16  1  0  0  0  0
 15 21  1  0  0  0  0
 16 22  1  0  0  0  0
 17 23  1  0  0  0  0
 17 16  2  0  0  0  0
 18 17  1  0  0  0  0
 19 18  2  0  0  0  0
 19 20  1  0  0  0  0
 20 15  2  0  0  0  0
 24 25  1  0  0  0  0
 25 30  2  0  0  0  0
 25 26  1  0  0  0  0
 26 27  2  0  0  0  0
 27 28  1  0  0  0  0
 27 31  1  0  0  0  0
 28 32  1  0  0  0  0
 29 33  1  0  0  0  0
 29 28  2  0  0  0  0
 30 29  1  0  0  0  0
 35 34  1  0  0  0  0
 35 30  1  0  0  0  0
 36 35  2  0  0  0  0
 37 36  1  0  0  0  0
 38 44  2  0  0  0  0
 38 36  1  0  0  0  0
 39 38  1  0  0  0  0
 40 39  1  0  0  0  0
 41 39  1  0  0  0  0
 41 42  2  0  0  0  0
 42 44  1  0  0  0  0
 43 42  1  0  0  0  0
 44 45  1  0  0  0  0
 45 34  2  0  0  0  0
M  END
>  <minimizedAffinity>
-5.89502144

>  <minimizedRMSD>
0.561764598

$$$$
