
 OpenBabel03262522053D

 43 47  0  0  1  0  0  0  0  0999 V2000
   37.7660   31.8670   49.5890 C   0  0  0  0  0  0  0  0  0  0  0  0
   36.7550   32.3610   50.1820 O   0  0  0  0  0  0  0  0  0  0  0  0
   34.5500   29.1400   48.6180 C   0  0  2  0  0  0  0  0  0  0  0  0
   35.1940   28.3990   49.7390 C   0  0  0  0  0  0  0  0  0  0  0  0
   36.3250   29.1770   50.2430 N   0  0  0  0  0  0  0  0  0  0  0  0
   37.2720   29.9080   51.0390 C   0  0  0  0  0  0  0  0  0  0  0  0
   37.4810   30.0850   52.2510 O   0  0  0  0  0  0  0  0  0  0  0  0
   37.9940   30.4390   49.9150 C   0  0  1  0  0  0  0  0  0  0  0  0
   37.1690   29.4380   49.1150 C   0  0  2  0  0  0  0  0  0  0  0  0
   35.9570   30.1510   47.9800 S   0  0  0  0  0  0  0  0  0  0  0  0
   35.4440   27.3500   49.5410 H   0  0  0  0  0  0  0  0  0  0  0  0
   34.4440   28.3870   50.5830 H   0  0  0  0  0  0  0  0  0  0  0  0
   39.0550   30.1250   49.7900 H   0  0  0  0  0  0  0  0  0  0  0  0
   37.7220   28.5720   48.7120 H   0  0  0  0  0  0  0  0  0  0  0  0
   33.3410   29.9450   48.9500 C   0  0  0  0  0  0  0  0  0  0  0  0
   32.5870   29.8190   48.1290 H   0  0  0  0  0  0  0  0  0  0  0  0
   32.9310   29.6580   49.9330 H   0  0  0  0  0  0  0  0  0  0  0  0
   33.6240   31.0180   49.0270 H   0  0  0  0  0  0  0  0  0  0  0  0
   34.2710   28.1380   47.4800 C   0  0  0  0  0  0  0  0  0  0  0  0
   34.9760   27.2940   47.5350 H   0  0  0  0  0  0  0  0  0  0  0  0
   33.2380   27.7770   47.6220 H   0  0  0  0  0  0  0  0  0  0  0  0
   34.3170   28.8230   46.2660 O   0  0  0  0  0  0  0  0  0  0  0  0
   34.0630   28.1900   45.5530 H   0  0  0  0  0  0  0  0  0  0  0  0
   38.5950   32.6250   48.7030 C   0  0  0  0  0  0  0  0  0  0  0  0
   39.2020   33.7590   49.1910 C   0  0  0  0  0  0  0  0  0  0  0  0
   40.0230   34.5050   48.3050 C   0  0  0  0  0  0  0  0  0  0  0  0
   40.1550   34.0450   47.0160 N   0  0  0  0  0  0  0  0  0  0  0  0
   39.5510   32.9490   46.5910 C   0  0  0  0  0  0  0  0  0  0  0  0
   38.7710   32.2300   47.4170 N   0  0  0  0  0  0  0  0  0  0  0  0
   39.0720   34.0930   50.2220 H   0  0  0  0  0  0  0  0  0  0  0  0
   40.5250   35.4060   48.6370 H   0  0  0  0  0  0  0  0  0  0  0  0
   39.2230   33.2120   44.1430 C   0  0  0  0  0  3  0  0  0  0  0  0
   39.7190   32.4940   45.2150 C   0  0  0  0  0  0  0  0  0  0  0  0
   40.3840   31.3190   44.9290 C   0  0  0  0  0  0  0  0  0  0  0  0
   40.7650   30.7730   45.7970 H   0  0  0  0  0  0  0  0  0  0  0  0
   40.5720   30.8410   43.6420 C   0  0  0  0  0  0  0  0  0  0  0  0
   41.1890   29.7250   43.1730 N   0  0  0  0  0  0  0  0  0  0  0  0
   41.6510   29.0100   43.7930 H   0  0  0  0  0  0  0  0  0  0  0  0
   41.0720   29.7620   41.8360 N   0  0  0  0  0  0  0  0  0  0  0  0
   40.4000   30.8680   41.4770 C   0  0  0  0  0  0  0  0  0  0  0  0
   40.1530   31.1650   40.4470 H   0  0  0  0  0  0  0  0  0  0  0  0
   40.0560   31.5960   42.5990 C   0  0  0  0  0  0  0  0  0  0  0  0
   39.3810   32.7790   42.8210 C   0  0  0  0  0  3  0  0  0  0  0  0
  1  8  1  0  0  0  0
  1  2  2  0  0  0  0
  3 19  1  6  0  0  0
  3 15  1  0  0  0  0
  3  4  1  0  0  0  0
  4  5  1  0  0  0  0
  4 12  1  0  0  0  0
  5  6  1  0  0  0  0
  6  7  2  0  0  0  0
  8 13  1  1  0  0  0
  8  6  1  0  0  0  0
  9 14  1  6  0  0  0
  9  8  1  0  0  0  0
  9  5  1  0  0  0  0
 10  3  1  0  0  0  0
 10  9  1  0  0  0  0
 11  4  1  0  0  0  0
 15 18  1  0  0  0  0
 15 17  1  0  0  0  0
 16 15  1  0  0  0  0
 19 20  1  0  0  0  0
 19 21  1  0  0  0  0
 22 19  1  0  0  0  0
 23 22  1  0  0  0  0
 24 25  1  0  0  0  0
 24  1  1  0  0  0  0
 25 30  1  0  0  0  0
 26 31  1  0  0  0  0
 26 25  2  0  0  0  0
 27 26  1  0  0  0  0
 28 27  2  0  0  0  0
 28 29  1  0  0  0  0
 29 24  2  0  0  0  0
 32 33  1  0  0  0  0
 33 28  1  0  0  0  0
 34 33  2  0  0  0  0
 34 35  1  0  0  0  0
 36 34  1  0  0  0  0
 37 36  1  0  0  0  0
 37 38  1  0  0  0  0
 39 37  1  0  0  0  0
 40 39  2  0  0  0  0
 40 42  1  0  0  0  0
 41 40  1  0  0  0  0
 42 43  1  0  0  0  0
 42 36  2  0  0  0  0
 43 32  2  0  0  0  0
M  END
>  <minimizedAffinity>
-6.84411573

>  <minimizedRMSD>
0.42848897

$$$$
