
 OpenBabel03272507423D

 44 48  0  0  0  0  0  0  0  0999 V2000
   36.6470   31.1780   50.0930 C   0  0  0  0  0  0  0  0  0  0  0  0
   35.5780   30.3160   49.8690 C   0  0  0  0  0  0  0  0  0  0  0  0
   35.3660   29.1930   50.6390 C   0  0  0  0  0  0  0  0  0  0  0  0
   36.2580   28.9600   51.6410 N   0  0  0  0  0  0  0  0  0  0  0  0
   37.3070   29.8090   51.8570 C   0  0  0  0  0  0  0  0  0  0  0  0
   37.4780   30.8800   51.0950 N   0  0  0  0  0  0  0  0  0  0  0  0
   34.5790   28.4920   50.5340 H   0  0  0  0  0  0  0  0  0  0  0  0
   37.9970   29.5900   52.6640 H   0  0  0  0  0  0  0  0  0  0  0  0
   34.2330   29.3810   48.0240 C   0  0  0  0  0  0  0  0  0  0  0  0
   34.7260   28.1990   47.8840 O   0  0  0  0  0  0  0  0  0  0  0  0
   34.6050   30.4580   48.8600 N   0  0  0  0  0  0  0  0  0  0  0  0
   34.2200   31.4180   48.8180 H   0  0  0  0  0  0  0  0  0  0  0  0
   32.1050   28.6050   46.9820 C   0  0  0  0  0  3  0  0  0  0  0  0
   33.0930   29.5570   47.1240 C   0  0  0  0  0  0  0  0  0  0  0  0
   32.8930   30.6750   46.3420 C   0  0  0  0  0  0  0  0  0  0  0  0
   33.5970   31.4910   46.3650 H   0  0  0  0  0  0  0  0  0  0  0  0
   31.8350   30.8790   45.4850 C   0  0  0  0  0  0  0  0  0  0  0  0
   31.4650   31.8720   44.6560 N   0  0  0  0  0  0  0  0  0  0  0  0
   31.9670   32.7630   44.4940 H   0  0  0  0  0  0  0  0  0  0  0  0
   30.3360   31.5260   44.0650 N   0  0  0  0  0  0  0  0  0  0  0  0
   29.9300   30.3150   44.4780 C   0  0  0  0  0  0  0  0  0  0  0  0
   29.0670   29.7450   44.2030 H   0  0  0  0  0  0  0  0  0  0  0  0
   30.8780   29.8910   45.3850 C   0  0  0  0  0  0  0  0  0  0  0  0
   31.0030   28.7400   46.1330 C   0  0  0  0  0  3  0  0  0  0  0  0
   36.6790   32.2190   49.2330 O   0  0  0  0  0  0  0  0  0  0  0  0
   38.1840   32.2050   47.2770 C   0  0  0  0  0  0  0  0  0  0  0  0
   37.7940   32.6340   48.5380 C   0  0  0  0  0  0  0  0  0  0  0  0
   38.5560   33.5660   49.2140 C   0  0  0  0  0  0  0  0  0  0  0  0
   39.7110   34.0730   48.6330 C   0  0  0  0  0  0  0  0  0  0  0  0
   40.0930   33.6400   47.3760 C   0  0  0  0  0  0  0  0  0  0  0  0
   39.3150   32.7150   46.7320 C   0  0  0  0  0  0  0  0  0  0  0  0
   38.3140   33.9440   50.1960 H   0  0  0  0  0  0  0  0  0  0  0  0
   40.3230   34.8080   49.1510 H   0  0  0  0  0  0  0  0  0  0  0  0
   40.9860   34.0090   46.8820 H   0  0  0  0  0  0  0  0  0  0  0  0
   39.7360   32.2580   45.3830 C   0  0  0  0  0  0  0  0  0  0  0  0
   40.5710   31.2210   45.0300 C   0  0  0  0  0  0  0  0  0  0  0  0
   40.6460   31.2060   43.6400 C   0  0  0  0  0  0  0  0  0  0  0  0
   39.8380   32.2530   43.2280 C   0  0  0  0  0  0  0  0  0  0  0  0
   39.3110   32.8610   44.2780 O   0  0  0  0  0  0  0  0  0  0  0  0
   41.0550   30.5660   45.7580 H   0  0  0  0  0  0  0  0  0  0  0  0
   41.2160   30.5180   43.0580 H   0  0  0  0  0  0  0  0  0  0  0  0
   39.6500   32.5500   42.2050 H   0  0  0  0  0  0  0  0  0  0  0  0
   36.6820   30.4690   46.1070 N   0  0  0  0  0  0  0  0  0  0  0  0
   37.3480   31.2400   46.6390 C   0  0  0  0  0  0  0  0  0  0  0  0
  1  6  1  0  0  0  0
  2  1  2  0  0  0  0
  2  3  1  0  0  0  0
  3  4  2  0  0  0  0
  4  5  1  0  0  0  0
  5  8  1  0  0  0  0
  6  5  2  0  0  0  0
  7  3  1  0  0  0  0
  9 11  1  0  0  0  0
 10  9  2  0  0  0  0
 11  2  1  0  0  0  0
 12 11  1  0  0  0  0
 13 14  1  0  0  0  0
 14  9  1  0  0  0  0
 15 16  1  0  0  0  0
 15 14  2  0  0  0  0
 17 15  1  0  0  0  0
 18 17  1  0  0  0  0
 19 18  1  0  0  0  0
 20 21  2  0  0  0  0
 20 18  1  0  0  0  0
 21 23  1  0  0  0  0
 22 21  1  0  0  0  0
 23 17  2  0  0  0  0
 23 24  1  0  0  0  0
 24 13  2  0  0  0  0
 25  1  1  0  0  0  0
 26 27  1  0  0  0  0
 27 28  2  0  0  0  0
 27 25  1  0  0  0  0
 28 32  1  0  0  0  0
 29 33  1  0  0  0  0
 29 28  1  0  0  0  0
 30 29  2  0  0  0  0
 31 26  2  0  0  0  0
 31 30  1  0  0  0  0
 34 30  1  0  0  0  0
 35 31  1  0  0  0  0
 36 35  2  0  0  0  0
 36 40  1  0  0  0  0
 37 36  1  0  0  0  0
 38 37  2  0  0  0  0
 38 39  1  0  0  0  0
 39 35  1  0  0  0  0
 41 37  1  0  0  0  0
 42 38  1  0  0  0  0
 43 44  3  0  0  0  0
 44 26  1  0  0  0  0
M  END
>  <minimizedAffinity>
-6.34594393

>  <minimizedRMSD>
0.513214946

$$$$
