
 OpenBabel03272507443D

 36 39  0  0  0  0  0  0  0  0999 V2000
   32.5880   28.1190   47.6050 N   0  0  0  0  0  0  0  0  0  0  0  0
   33.2060   27.7940   48.8590 C   0  0  0  0  0  0  0  0  0  0  0  0
   34.4550   28.4730   49.2220 C   0  0  0  0  0  0  0  0  0  0  0  0
   35.3340   28.9220   48.1150 C   0  0  0  0  0  0  0  0  0  0  0  0
   34.6000   29.2320   46.8500 C   0  0  0  0  0  0  0  0  0  0  0  0
   33.6120   28.0740   46.5780 C   0  0  0  0  0  0  0  0  0  0  0  0
   33.3510   26.6890   48.8630 H   0  0  0  0  0  0  0  0  0  0  0  0
   32.4440   27.9860   49.6590 H   0  0  0  0  0  0  0  0  0  0  0  0
   35.0490   27.7780   49.8760 H   0  0  0  0  0  0  0  0  0  0  0  0
   34.2330   29.3580   49.8740 H   0  0  0  0  0  0  0  0  0  0  0  0
   36.0690   28.0950   47.8850 H   0  0  0  0  0  0  0  0  0  0  0  0
   35.2460   29.2900   45.9760 H   0  0  0  0  0  0  0  0  0  0  0  0
   33.9590   30.1200   47.0040 H   0  0  0  0  0  0  0  0  0  0  0  0
   34.1270   27.1030   46.5600 H   0  0  0  0  0  0  0  0  0  0  0  0
   33.2290   28.2420   45.5590 H   0  0  0  0  0  0  0  0  0  0  0  0
   35.8580   30.7730   49.7330 C   0  0  0  0  0  0  0  0  0  0  0  0
   36.1120   30.1170   48.5370 C   0  0  0  0  0  0  0  0  0  0  0  0
   37.1300   30.6250   47.7410 C   0  0  0  0  0  0  0  0  0  0  0  0
   37.3510   30.1350   46.8050 H   0  0  0  0  0  0  0  0  0  0  0  0
   37.8770   31.7300   48.0930 C   0  0  0  0  0  0  0  0  0  0  0  0
   38.8890   32.3500   47.4510 N   0  0  0  0  0  0  0  0  0  0  0  0
   39.3410   32.1230   46.5200 H   0  0  0  0  0  0  0  0  0  0  0  0
   39.2840   33.3670   48.1850 N   0  0  0  0  0  0  0  0  0  0  0  0
   38.5330   33.4150   49.3110 C   0  0  0  0  0  0  0  0  0  0  0  0
   38.5610   34.1070   50.1510 H   0  0  0  0  0  0  0  0  0  0  0  0
   37.6210   32.3750   49.2770 C   0  0  0  0  0  0  0  0  0  0  0  0
   36.6010   31.8650   50.0730 C   0  0  0  0  0  0  0  0  0  0  0  0
   31.2220   28.4290   47.3950 C   0  0  0  0  0  0  0  0  0  0  0  0
   30.7400   29.2670   46.3840 C   0  0  0  0  0  0  0  0  0  0  0  0
   29.3620   29.4770   46.3030 C   0  0  0  0  0  0  0  0  0  0  0  0
   28.5570   28.8560   47.2140 N   0  0  0  0  0  0  0  0  0  0  0  0
   29.0650   28.0560   48.1710 C   0  0  0  0  0  0  0  0  0  0  0  0
   30.3910   27.8420   48.2640 N   0  0  0  0  0  0  0  0  0  0  0  0
   31.4940   29.6800   45.7480 H   0  0  0  0  0  0  0  0  0  0  0  0
   29.0320   30.1220   45.5210 H   0  0  0  0  0  0  0  0  0  0  0  0
   28.3210   27.6240   48.8290 H   0  0  0  0  0  0  0  0  0  0  0  0
  1  2  1  0  0  0  0
  2  7  1  0  0  0  0
  2  3  1  0  0  0  0
  2  8  1  0  0  0  0
  3 10  1  0  0  0  0
  3  9  1  0  0  0  0
  4 17  1  0  0  0  0
  4  3  1  0  0  0  0
  5 13  1  0  0  0  0
  5  4  1  0  0  0  0
  6  5  1  0  0  0  0
  6  1  1  0  0  0  0
 11  4  1  0  0  0  0
 12  5  1  0  0  0  0
 14  6  1  0  0  0  0
 15  6  1  0  0  0  0
 16 27  1  0  0  0  0
 17 16  2  0  0  0  0
 18 20  2  0  0  0  0
 18 17  1  0  0  0  0
 19 18  1  0  0  0  0
 20 26  1  0  0  0  0
 21 20  1  0  0  0  0
 21 23  1  0  0  0  0
 22 21  1  0  0  0  0
 23 24  2  0  0  0  0
 24 25  1  0  0  0  0
 26 24  1  0  0  0  0
 26 27  2  0  0  0  0
 28  1  1  0  0  0  0
 28 33  1  0  0  0  0
 29 28  2  0  0  0  0
 30 29  1  0  0  0  0
 30 31  2  0  0  0  0
 31 32  1  0  0  0  0
 32 33  2  0  0  0  0
 32 36  1  0  0  0  0
 34 29  1  0  0  0  0
 35 30  1  0  0  0  0
M  END
>  <minimizedAffinity>
-6.29888105

>  <minimizedRMSD>
4.48383379

$$$$
