
 OpenBabel03272505073D

 36 39  0  0  1  0  0  0  0  0999 V2000
   31.0480   28.3270   35.1210 C   0  0  0  0  0  0  0  0  0  0  0  0
   31.7170   29.4090   35.7020 C   0  0  0  0  0  0  0  0  0  0  0  0
   32.5140   30.1780   34.8720 C   0  0  0  0  0  0  0  0  0  0  0  0
   32.5970   29.8390   33.5540 N   0  0  0  0  0  0  0  0  0  0  0  0
   31.9430   28.7970   33.0290 C   0  0  0  0  0  0  0  0  0  0  0  0
   31.1530   28.0210   33.8190 N   0  0  0  0  0  0  0  0  0  0  0  0
   33.2940   31.3190   35.2230 N   0  0  0  0  0  0  0  0  0  0  0  0
   32.8210   32.3920   36.0480 C   0  0  0  0  0  0  0  0  0  0  0  0
   33.7200   32.8740   37.1130 C   0  0  0  0  0  0  0  0  0  0  0  0
   35.1860   32.8660   36.8070 C   0  0  0  0  0  0  0  0  0  0  0  0
   35.5400   31.6030   36.0850 C   0  0  0  0  0  0  0  0  0  0  0  0
   34.6440   31.5880   34.8250 C   0  0  1  0  0  0  0  0  0  0  0  0
   30.4440   27.7810   35.8580 H   0  0  0  0  0  0  0  0  0  0  0  0
   31.6930   29.7220   36.7140 H   0  0  0  0  0  0  0  0  0  0  0  0
   32.0000   28.5180   31.9870 H   0  0  0  0  0  0  0  0  0  0  0  0
   31.8700   32.0400   36.5260 H   0  0  0  0  0  0  0  0  0  0  0  0
   32.5100   33.2100   35.3570 H   0  0  0  0  0  0  0  0  0  0  0  0
   33.4890   32.3720   38.0850 H   0  0  0  0  0  0  0  0  0  0  0  0
   33.4530   33.9560   37.3010 H   0  0  0  0  0  0  0  0  0  0  0  0
   35.7240   32.8410   37.7820 H   0  0  0  0  0  0  0  0  0  0  0  0
   35.5400   33.7640   36.2820 H   0  0  0  0  0  0  0  0  0  0  0  0
   35.2530   30.7300   36.6860 H   0  0  0  0  0  0  0  0  0  0  0  0
   36.5920   31.5720   35.8100 H   0  0  0  0  0  0  0  0  0  0  0  0
   34.7500   32.5340   34.2590 H   0  0  0  0  0  0  0  0  0  0  0  0
   35.7240   29.2990   34.4290 C   0  0  0  0  0  3  0  0  0  0  0  0
   35.2350   30.5010   33.9680 C   0  0  0  0  0  0  0  0  0  0  0  0
   35.3260   30.6620   32.5820 C   0  0  0  0  0  0  0  0  0  0  0  0
   34.9510   31.5970   32.1770 H   0  0  0  0  0  0  0  0  0  0  0  0
   35.8380   29.7590   31.6940 C   0  0  0  0  0  0  0  0  0  0  0  0
   35.9840   29.7850   30.3620 N   0  0  0  0  0  0  0  0  0  0  0  0
   35.7140   30.5510   29.7100 H   0  0  0  0  0  0  0  0  0  0  0  0
   36.5440   28.6380   30.0060 N   0  0  0  0  0  0  0  0  0  0  0  0
   36.7650   27.8640   31.1050 C   0  0  0  0  0  0  0  0  0  0  0  0
   37.2020   26.8850   31.1470 H   0  0  0  0  0  0  0  0  0  0  0  0
   36.3110   28.5790   32.2150 C   0  0  0  0  0  0  0  0  0  0  0  0
   36.2510   28.3580   33.5740 C   0  0  0  0  0  3  0  0  0  0  0  0
  1  2  1  0  0  0  0
  1 13  1  0  0  0  0
  2 14  1  0  0  0  0
  3  7  1  0  0  0  0
  3  2  2  0  0  0  0
  4  3  1  0  0  0  0
  5  4  2  0  0  0  0
  5  6  1  0  0  0  0
  6  1  2  0  0  0  0
  7  8  1  0  0  0  0
  8 16  1  0  0  0  0
  8  9  1  0  0  0  0
  9 19  1  0  0  0  0
  9 18  1  0  0  0  0
 10  9  1  0  0  0  0
 10 20  1  0  0  0  0
 11 22  1  0  0  0  0
 11 10  1  0  0  0  0
 12 24  1  6  0  0  0
 12  7  1  0  0  0  0
 12 11  1  0  0  0  0
 15  5  1  0  0  0  0
 17  8  1  0  0  0  0
 21 10  1  0  0  0  0
 23 11  1  0  0  0  0
 26 25  1  0  0  0  0
 26 12  1  0  0  0  0
 27 26  2  0  0  0  0
 28 27  1  0  0  0  0
 29 35  2  0  0  0  0
 29 27  1  0  0  0  0
 30 29  1  0  0  0  0
 31 30  1  0  0  0  0
 32 30  1  0  0  0  0
 32 33  2  0  0  0  0
 33 34  1  0  0  0  0
 33 35  1  0  0  0  0
 35 36  1  0  0  0  0
 36 25  2  0  0  0  0
M  END
>  <minimizedAffinity>
-5.63757658

$$$$

 OpenBabel03272505073D

 36 39  0  0  1  0  0  0  0  0999 V2000
   35.7250   23.5380   31.1050 C   0  0  0  0  0  0  0  0  0  0  0  0
   35.5050   24.8680   31.4810 C   0  0  0  0  0  0  0  0  0  0  0  0
   36.6160   25.6210   31.8150 C   0  0  0  0  0  0  0  0  0  0  0  0
   37.8440   25.0290   31.7590 N   0  0  0  0  0  0  0  0  0  0  0  0
   38.0190   23.7550   31.3960 C   0  0  0  0  0  0  0  0  0  0  0  0
   36.9470   22.9870   31.0620 N   0  0  0  0  0  0  0  0  0  0  0  0
   36.6540   26.9840   32.2310 N   0  0  0  0  0  0  0  0  0  0  0  0
   35.9190   28.0390   31.5950 C   0  0  0  0  0  0  0  0  0  0  0  0
   35.1990   28.9830   32.4680 C   0  0  0  0  0  0  0  0  0  0  0  0
   35.8510   29.3210   33.7730 C   0  0  0  0  0  0  0  0  0  0  0  0
   36.4280   28.0800   34.3800 C   0  0  0  0  0  0  0  0  0  0  0  0
   37.4100   27.5260   33.3210 C   0  0  1  0  0  0  0  0  0  0  0  0
   34.7840   23.0270   30.8600 H   0  0  0  0  0  0  0  0  0  0  0  0
   34.5810   25.3830   31.5430 H   0  0  0  0  0  0  0  0  0  0  0  0
   38.9860   23.2740   31.3480 H   0  0  0  0  0  0  0  0  0  0  0  0
   35.1720   27.5500   30.9170 H   0  0  0  0  0  0  0  0  0  0  0  0
   36.6330   28.5560   30.9120 H   0  0  0  0  0  0  0  0  0  0  0  0
   34.1320   28.6720   32.5970 H   0  0  0  0  0  0  0  0  0  0  0  0
   35.1240   29.9590   31.9020 H   0  0  0  0  0  0  0  0  0  0  0  0
   35.0470   29.6710   34.4600 H   0  0  0  0  0  0  0  0  0  0  0  0
   36.5820   30.1390   33.7110 H   0  0  0  0  0  0  0  0  0  0  0  0
   35.6450   27.3210   34.5100 H   0  0  0  0  0  0  0  0  0  0  0  0
   36.9450   28.2860   35.3150 H   0  0  0  0  0  0  0  0  0  0  0  0
   38.1270   28.3100   33.0070 H   0  0  0  0  0  0  0  0  0  0  0  0
   39.5450   26.2320   33.8940 C   0  0  0  0  0  3  0  0  0  0  0  0
   38.2020   26.4860   34.0660 C   0  0  0  0  0  0  0  0  0  0  0  0
   37.5850   25.6770   35.0260 C   0  0  0  0  0  0  0  0  0  0  0  0
   36.5260   25.8460   35.1920 H   0  0  0  0  0  0  0  0  0  0  0  0
   38.1850   24.7010   35.7690 C   0  0  0  0  0  0  0  0  0  0  0  0
   37.7200   23.8650   36.7070 N   0  0  0  0  0  0  0  0  0  0  0  0
   36.7460   23.8000   37.0710 H   0  0  0  0  0  0  0  0  0  0  0  0
   38.7380   23.1160   37.1050 N   0  0  0  0  0  0  0  0  0  0  0  0
   39.8680   23.4620   36.4270 C   0  0  0  0  0  0  0  0  0  0  0  0
   40.8500   23.0420   36.5230 H   0  0  0  0  0  0  0  0  0  0  0  0
   39.5270   24.4940   35.5510 C   0  0  0  0  0  0  0  0  0  0  0  0
   40.1940   25.2580   34.6180 C   0  0  0  0  0  3  0  0  0  0  0  0
  1  2  1  0  0  0  0
  2 14  1  0  0  0  0
  2  3  2  0  0  0  0
  3  7  1  0  0  0  0
  4  3  1  0  0  0  0
  5  4  2  0  0  0  0
  6  1  2  0  0  0  0
  6  5  1  0  0  0  0
  7 12  1  0  0  0  0
  8  7  1  0  0  0  0
  8  9  1  0  0  0  0
  9 18  1  0  0  0  0
  9 10  1  0  0  0  0
 10 11  1  0  0  0  0
 10 20  1  0  0  0  0
 11 22  1  0  0  0  0
 11 23  1  0  0  0  0
 12 24  1  6  0  0  0
 12 26  1  0  0  0  0
 12 11  1  0  0  0  0
 13  1  1  0  0  0  0
 15  5  1  0  0  0  0
 16  8  1  0  0  0  0
 17  8  1  0  0  0  0
 19  9  1  0  0  0  0
 21 10  1  0  0  0  0
 25 26  2  0  0  0  0
 25 36  1  0  0  0  0
 26 27  1  0  0  0  0
 27 28  1  0  0  0  0
 27 29  2  0  0  0  0
 29 30  1  0  0  0  0
 30 31  1  0  0  0  0
 30 32  1  0  0  0  0
 33 34  1  0  0  0  0
 33 32  2  0  0  0  0
 35 29  1  0  0  0  0
 35 33  1  0  0  0  0
 36 35  2  0  0  0  0
M  END
>  <minimizedAffinity>
-5.60618448

$$$$

 OpenBabel03272505073D

 36 39  0  0  1  0  0  0  0  0999 V2000
   42.8770   26.1350   34.1850 C   0  0  0  0  0  0  0  0  0  0  0  0
   42.2660   25.3080   35.1330 C   0  0  0  0  0  0  0  0  0  0  0  0
   41.0000   24.8350   34.8360 C   0  0  0  0  0  0  0  0  0  0  0  0
   40.4320   25.1980   33.6500 N   0  0  0  0  0  0  0  0  0  0  0  0
   41.0440   25.9910   32.7650 C   0  0  0  0  0  0  0  0  0  0  0  0
   42.2880   26.4740   33.0280 N   0  0  0  0  0  0  0  0  0  0  0  0
   40.1750   23.9900   35.6330 N   0  0  0  0  0  0  0  0  0  0  0  0
   40.6430   22.8120   36.3060 C   0  0  0  0  0  0  0  0  0  0  0  0
   40.2260   22.6220   37.7070 C   0  0  0  0  0  0  0  0  0  0  0  0
   38.8480   23.0890   38.0650 C   0  0  0  0  0  0  0  0  0  0  0  0
   38.5810   24.4070   37.4090 C   0  0  0  0  0  0  0  0  0  0  0  0
   38.7760   24.1580   35.8950 C   0  0  1  0  0  0  0  0  0  0  0  0
   43.8740   26.4580   34.5120 H   0  0  0  0  0  0  0  0  0  0  0  0
   42.6530   24.9920   36.0670 H   0  0  0  0  0  0  0  0  0  0  0  0
   40.6050   26.2870   31.8220 H   0  0  0  0  0  0  0  0  0  0  0  0
   41.7640   22.8460   36.2770 H   0  0  0  0  0  0  0  0  0  0  0  0
   40.3650   21.9470   35.6610 H   0  0  0  0  0  0  0  0  0  0  0  0
   41.0000   23.0150   38.4100 H   0  0  0  0  0  0  0  0  0  0  0  0
   40.2310   21.5080   37.9010 H   0  0  0  0  0  0  0  0  0  0  0  0
   38.8390   23.2680   39.1640 H   0  0  0  0  0  0  0  0  0  0  0  0
   38.0580   22.3510   37.8660 H   0  0  0  0  0  0  0  0  0  0  0  0
   39.3410   25.1410   37.7080 H   0  0  0  0  0  0  0  0  0  0  0  0
   37.5740   24.7670   37.6130 H   0  0  0  0  0  0  0  0  0  0  0  0
   38.1640   23.2980   35.5590 H   0  0  0  0  0  0  0  0  0  0  0  0
   38.2180   26.6560   35.7750 C   0  0  0  0  0  3  0  0  0  0  0  0
   38.1960   25.3850   35.2440 C   0  0  0  0  0  0  0  0  0  0  0  0
   37.5710   25.2960   33.9960 C   0  0  0  0  0  0  0  0  0  0  0  0
   37.5330   24.3110   33.5430 H   0  0  0  0  0  0  0  0  0  0  0  0
   37.0060   26.3260   33.2990 C   0  0  0  0  0  0  0  0  0  0  0  0
   36.3840   26.3800   32.1130 N   0  0  0  0  0  0  0  0  0  0  0  0
   36.2020   25.5920   31.4560 H   0  0  0  0  0  0  0  0  0  0  0  0
   36.0300   27.6410   31.9140 N   0  0  0  0  0  0  0  0  0  0  0  0
   36.4200   28.4110   32.9680 C   0  0  0  0  0  0  0  0  0  0  0  0
   36.2800   29.4650   33.1040 H   0  0  0  0  0  0  0  0  0  0  0  0
   37.0580   27.5700   33.8810 C   0  0  0  0  0  0  0  0  0  0  0  0
   37.6610   27.7250   35.1110 C   0  0  0  0  0  3  0  0  0  0  0  0
  1 13  1  0  0  0  0
  1  2  1  0  0  0  0
  2 14  1  0  0  0  0
  3  2  2  0  0  0  0
  3  7  1  0  0  0  0
  4  3  1  0  0  0  0
  5  6  1  0  0  0  0
  5  4  2  0  0  0  0
  6  1  2  0  0  0  0
  7 12  1  0  0  0  0
  7  8  1  0  0  0  0
  8  9  1  0  0  0  0
  9 19  1  0  0  0  0
  9 10  1  0  0  0  0
  9 18  1  0  0  0  0
 10 20  1  0  0  0  0
 11 23  1  0  0  0  0
 11 22  1  0  0  0  0
 11 10  1  0  0  0  0
 12 24  1  6  0  0  0
 12 11  1  0  0  0  0
 15  5  1  0  0  0  0
 16  8  1  0  0  0  0
 17  8  1  0  0  0  0
 21 10  1  0  0  0  0
 26 25  1  0  0  0  0
 26 12  1  0  0  0  0
 27 26  2  0  0  0  0
 28 27  1  0  0  0  0
 29 35  2  0  0  0  0
 29 27  1  0  0  0  0
 30 29  1  0  0  0  0
 31 30  1  0  0  0  0
 32 30  1  0  0  0  0
 32 33  2  0  0  0  0
 33 34  1  0  0  0  0
 33 35  1  0  0  0  0
 35 36  1  0  0  0  0
 36 25  2  0  0  0  0
M  END
>  <minimizedAffinity>
-5.53992462

$$$$

 OpenBabel03272505073D

 36 39  0  0  1  0  0  0  0  0999 V2000
   37.9110   27.3340   35.2910 C   0  0  0  0  0  0  0  0  0  0  0  0
   39.1700   26.7590   35.4960 C   0  0  0  0  0  0  0  0  0  0  0  0
   39.5090   25.6820   34.6960 C   0  0  0  0  0  0  0  0  0  0  0  0
   38.6070   25.2520   33.7680 N   0  0  0  0  0  0  0  0  0  0  0  0
   37.4110   25.8250   33.5970 C   0  0  0  0  0  0  0  0  0  0  0  0
   37.0470   26.8850   34.3680 N   0  0  0  0  0  0  0  0  0  0  0  0
   40.7190   24.9280   34.7150 N   0  0  0  0  0  0  0  0  0  0  0  0
   42.0270   25.5110   34.7800 C   0  0  0  0  0  0  0  0  0  0  0  0
   42.9860   24.9190   35.7310 C   0  0  0  0  0  0  0  0  0  0  0  0
   42.9080   23.4360   35.9250 C   0  0  0  0  0  0  0  0  0  0  0  0
   41.4730   23.0150   35.9960 C   0  0  0  0  0  0  0  0  0  0  0  0
   40.8390   23.5010   34.6710 C   0  0  1  0  0  0  0  0  0  0  0  0
   37.7370   28.1780   35.9720 H   0  0  0  0  0  0  0  0  0  0  0  0
   39.9100   27.0460   36.1970 H   0  0  0  0  0  0  0  0  0  0  0  0
   36.6880   25.4940   32.8650 H   0  0  0  0  0  0  0  0  0  0  0  0
   41.8890   26.5910   35.0500 H   0  0  0  0  0  0  0  0  0  0  0  0
   42.4210   25.5230   33.7370 H   0  0  0  0  0  0  0  0  0  0  0  0
   42.9760   25.4720   36.7020 H   0  0  0  0  0  0  0  0  0  0  0  0
   44.0200   25.1200   35.3210 H   0  0  0  0  0  0  0  0  0  0  0  0
   43.3590   23.2110   36.9180 H   0  0  0  0  0  0  0  0  0  0  0  0
   43.4810   22.8560   35.1880 H   0  0  0  0  0  0  0  0  0  0  0  0
   40.9600   23.5510   36.8050 H   0  0  0  0  0  0  0  0  0  0  0  0
   41.3700   21.9370   36.1000 H   0  0  0  0  0  0  0  0  0  0  0  0
   41.4240   23.1400   33.8030 H   0  0  0  0  0  0  0  0  0  0  0  0
   38.9330   22.2590   33.4930 C   0  0  0  0  0  3  0  0  0  0  0  0
   39.5100   22.7970   34.6220 C   0  0  0  0  0  0  0  0  0  0  0  0
   38.7470   22.6420   35.7840 C   0  0  0  0  0  0  0  0  0  0  0  0
   39.1660   23.0520   36.6970 H   0  0  0  0  0  0  0  0  0  0  0  0
   37.5300   22.0270   35.8770 C   0  0  0  0  0  0  0  0  0  0  0  0
   36.7030   21.8120   36.9090 N   0  0  0  0  0  0  0  0  0  0  0  0
   36.8440   22.0930   37.9030 H   0  0  0  0  0  0  0  0  0  0  0  0
   35.6490   21.1630   36.4390 N   0  0  0  0  0  0  0  0  0  0  0  0
   35.7860   20.9540   35.0990 C   0  0  0  0  0  0  0  0  0  0  0  0
   35.1050   20.4590   34.4350 H   0  0  0  0  0  0  0  0  0  0  0  0
   37.0070   21.5110   34.7150 C   0  0  0  0  0  0  0  0  0  0  0  0
   37.7100   21.6300   33.5360 C   0  0  0  0  0  3  0  0  0  0  0  0
  1  2  1  0  0  0  0
  1 13  1  0  0  0  0
  2 14  1  0  0  0  0
  3  7  1  0  0  0  0
  3  2  2  0  0  0  0
  4  3  1  0  0  0  0
  5  4  2  0  0  0  0
  5  6  1  0  0  0  0
  6  1  2  0  0  0  0
  7  8  1  0  0  0  0
  8 16  1  0  0  0  0
  8  9  1  0  0  0  0
  9 10  1  0  0  0  0
  9 18  1  0  0  0  0
 10 11  1  0  0  0  0
 10 20  1  0  0  0  0
 11 23  1  0  0  0  0
 11 22  1  0  0  0  0
 12 24  1  6  0  0  0
 12  7  1  0  0  0  0
 12 11  1  0  0  0  0
 15  5  1  0  0  0  0
 17  8  1  0  0  0  0
 19  9  1  0  0  0  0
 21 10  1  0  0  0  0
 25 36  2  0  0  0  0
 25 26  1  0  0  0  0
 26 12  1  0  0  0  0
 26 27  2  0  0  0  0
 27 29  1  0  0  0  0
 27 28  1  0  0  0  0
 29 30  1  0  0  0  0
 30 31  1  0  0  0  0
 32 30  1  0  0  0  0
 33 32  2  0  0  0  0
 34 33  1  0  0  0  0
 35 33  1  0  0  0  0
 35 29  2  0  0  0  0
 36 35  1  0  0  0  0
M  END
>  <minimizedAffinity>
-5.46269751

$$$$

 OpenBabel03272505073D

 36 39  0  0  1  0  0  0  0  0999 V2000
   36.5140   23.1270   31.2780 C   0  0  0  0  0  0  0  0  0  0  0  0
   37.3430   23.6180   32.2920 C   0  0  0  0  0  0  0  0  0  0  0  0
   37.1360   24.9240   32.7010 C   0  0  0  0  0  0  0  0  0  0  0  0
   36.1480   25.6450   32.0970 N   0  0  0  0  0  0  0  0  0  0  0  0
   35.3720   25.1450   31.1290 C   0  0  0  0  0  0  0  0  0  0  0  0
   35.5510   23.8650   30.7040 N   0  0  0  0  0  0  0  0  0  0  0  0
   37.8450   25.6480   33.7030 N   0  0  0  0  0  0  0  0  0  0  0  0
   38.1790   25.1170   34.9920 C   0  0  0  0  0  0  0  0  0  0  0  0
   39.5520   25.3370   35.4800 C   0  0  0  0  0  0  0  0  0  0  0  0
   40.1940   26.6390   35.1100 C   0  0  0  0  0  0  0  0  0  0  0  0
   39.8780   26.9660   33.6840 C   0  0  0  0  0  0  0  0  0  0  0  0
   38.3340   26.9910   33.6040 C   0  0  1  0  0  0  0  0  0  0  0  0
   36.7560   22.0870   31.0250 H   0  0  0  0  0  0  0  0  0  0  0  0
   38.1230   23.1100   32.7980 H   0  0  0  0  0  0  0  0  0  0  0  0
   34.5860   25.7060   30.6430 H   0  0  0  0  0  0  0  0  0  0  0  0
   37.9980   24.0110   34.9450 H   0  0  0  0  0  0  0  0  0  0  0  0
   37.4120   25.5040   35.7030 H   0  0  0  0  0  0  0  0  0  0  0  0
   40.2060   24.4620   35.2400 H   0  0  0  0  0  0  0  0  0  0  0  0
   39.5030   25.3310   36.6100 H   0  0  0  0  0  0  0  0  0  0  0  0
   41.2960   26.4900   35.1700 H   0  0  0  0  0  0  0  0  0  0  0  0
   39.9580   27.4660   35.7950 H   0  0  0  0  0  0  0  0  0  0  0  0
   40.2140   26.1540   33.0260 H   0  0  0  0  0  0  0  0  0  0  0  0
   40.2950   27.9250   33.3840 H   0  0  0  0  0  0  0  0  0  0  0  0
   37.9130   27.6650   34.3770 H   0  0  0  0  0  0  0  0  0  0  0  0
   36.9850   28.4620   31.9960 C   0  0  0  0  0  3  0  0  0  0  0  0
   38.0470   27.6280   32.2710 C   0  0  0  0  0  0  0  0  0  0  0  0
   38.8890   27.3960   31.1790 C   0  0  0  0  0  0  0  0  0  0  0  0
   39.7390   26.7440   31.3530 H   0  0  0  0  0  0  0  0  0  0  0  0
   38.7440   27.9090   29.9210 C   0  0  0  0  0  0  0  0  0  0  0  0
   39.4650   27.7700   28.8000 N   0  0  0  0  0  0  0  0  0  0  0  0
   40.3320   27.2070   28.6700 H   0  0  0  0  0  0  0  0  0  0  0  0
   38.8730   28.4920   27.8610 N   0  0  0  0  0  0  0  0  0  0  0  0
   37.7640   29.1020   28.3670 C   0  0  0  0  0  0  0  0  0  0  0  0
   37.0760   29.7500   27.8590 H   0  0  0  0  0  0  0  0  0  0  0  0
   37.6640   28.7330   29.7100 C   0  0  0  0  0  0  0  0  0  0  0  0
   36.7950   29.0020   30.7450 C   0  0  0  0  0  3  0  0  0  0  0  0
  1  2  1  0  0  0  0
  2  3  2  0  0  0  0
  2 14  1  0  0  0  0
  3  7  1  0  0  0  0
  4  3  1  0  0  0  0
  5  4  2  0  0  0  0
  6  5  1  0  0  0  0
  6  1  2  0  0  0  0
  7  8  1  0  0  0  0
  8  9  1  0  0  0  0
  8 17  1  0  0  0  0
  9 19  1  0  0  0  0
 10 20  1  0  0  0  0
 10  9  1  0  0  0  0
 10 21  1  0  0  0  0
 11 10  1  0  0  0  0
 12 11  1  0  0  0  0
 12  7  1  0  0  0  0
 12 24  1  1  0  0  0
 13  1  1  0  0  0  0
 15  5  1  0  0  0  0
 16  8  1  0  0  0  0
 18  9  1  0  0  0  0
 22 11  1  0  0  0  0
 23 11  1  0  0  0  0
 25 26  1  0  0  0  0
 26 12  1  0  0  0  0
 27 28  1  0  0  0  0
 27 26  2  0  0  0  0
 29 27  1  0  0  0  0
 30 29  1  0  0  0  0
 31 30  1  0  0  0  0
 32 33  2  0  0  0  0
 32 30  1  0  0  0  0
 33 35  1  0  0  0  0
 34 33  1  0  0  0  0
 35 29  2  0  0  0  0
 35 36  1  0  0  0  0
 36 25  2  0  0  0  0
M  END
>  <minimizedAffinity>
-5.35109425

$$$$

 OpenBabel03272505073D

 36 39  0  0  1  0  0  0  0  0999 V2000
   36.4400   27.5330   31.1300 C   0  0  0  0  0  0  0  0  0  0  0  0
   37.8270   27.7170   31.1310 C   0  0  0  0  0  0  0  0  0  0  0  0
   38.5960   26.7210   31.7060 C   0  0  0  0  0  0  0  0  0  0  0  0
   37.9630   25.6330   32.2310 N   0  0  0  0  0  0  0  0  0  0  0  0
   36.6340   25.4870   32.2140 C   0  0  0  0  0  0  0  0  0  0  0  0
   35.8500   26.4500   31.6570 N   0  0  0  0  0  0  0  0  0  0  0  0
   40.0150   26.6780   31.8330 N   0  0  0  0  0  0  0  0  0  0  0  0
   40.9260   27.0080   30.7760 C   0  0  0  0  0  0  0  0  0  0  0  0
   42.0660   27.8800   31.1140 C   0  0  0  0  0  0  0  0  0  0  0  0
   42.6630   27.7060   32.4770 C   0  0  0  0  0  0  0  0  0  0  0  0
   41.5690   27.5330   33.4830 C   0  0  0  0  0  0  0  0  0  0  0  0
   40.7590   26.3070   33.0000 C   0  0  1  0  0  0  0  0  0  0  0  0
   35.9200   28.3750   30.6540 H   0  0  0  0  0  0  0  0  0  0  0  0
   38.3750   28.5360   30.7410 H   0  0  0  0  0  0  0  0  0  0  0  0
   36.1210   24.6310   32.6270 H   0  0  0  0  0  0  0  0  0  0  0  0
   40.3260   27.5130   29.9750 H   0  0  0  0  0  0  0  0  0  0  0  0
   41.2530   26.0420   30.3260 H   0  0  0  0  0  0  0  0  0  0  0  0
   41.8300   28.9490   30.8910 H   0  0  0  0  0  0  0  0  0  0  0  0
   42.8940   27.6330   30.3850 H   0  0  0  0  0  0  0  0  0  0  0  0
   43.1860   28.6560   32.7290 H   0  0  0  0  0  0  0  0  0  0  0  0
   43.4210   26.9110   32.5370 H   0  0  0  0  0  0  0  0  0  0  0  0
   40.8860   28.3920   33.4540 H   0  0  0  0  0  0  0  0  0  0  0  0
   41.9600   27.3660   34.4850 H   0  0  0  0  0  0  0  0  0  0  0  0
   41.4270   25.4390   32.8330 H   0  0  0  0  0  0  0  0  0  0  0  0
   39.2260   26.8690   34.9750 C   0  0  0  0  0  3  0  0  0  0  0  0
   39.8830   25.9610   34.1740 C   0  0  0  0  0  0  0  0  0  0  0  0
   39.6780   24.6250   34.5350 C   0  0  0  0  0  0  0  0  0  0  0  0
   40.1780   23.8770   33.9290 H   0  0  0  0  0  0  0  0  0  0  0  0
   38.9110   24.1760   35.5730 C   0  0  0  0  0  0  0  0  0  0  0  0
   38.6320   22.9450   36.0240 N   0  0  0  0  0  0  0  0  0  0  0  0
   38.9710   22.0380   35.6390 H   0  0  0  0  0  0  0  0  0  0  0  0
   37.8300   23.0830   37.0690 N   0  0  0  0  0  0  0  0  0  0  0  0
   37.5850   24.4030   37.3020 C   0  0  0  0  0  0  0  0  0  0  0  0
   36.9770   24.8360   38.0720 H   0  0  0  0  0  0  0  0  0  0  0  0
   38.2820   25.1310   36.3360 C   0  0  0  0  0  0  0  0  0  0  0  0
   38.4440   26.4650   36.0330 C   0  0  0  0  0  3  0  0  0  0  0  0
  1  2  2  0  0  0  0
  1  6  1  0  0  0  0
  2  3  1  0  0  0  0
  3  7  1  0  0  0  0
  3  4  2  0  0  0  0
  5  4  1  0  0  0  0
  5 15  1  0  0  0  0
  6  5  2  0  0  0  0
  7 12  1  0  0  0  0
  8  9  1  0  0  0  0
  8  7  1  0  0  0  0
  9 10  1  0  0  0  0
 10 21  1  0  0  0  0
 10 20  1  0  0  0  0
 10 11  1  0  0  0  0
 11 23  1  0  0  0  0
 12 24  1  6  0  0  0
 12 11  1  0  0  0  0
 12 26  1  0  0  0  0
 13  1  1  0  0  0  0
 14  2  1  0  0  0  0
 16  8  1  0  0  0  0
 17  8  1  0  0  0  0
 18  9  1  0  0  0  0
 19  9  1  0  0  0  0
 22 11  1  0  0  0  0
 25 36  1  0  0  0  0
 26 27  1  0  0  0  0
 26 25  2  0  0  0  0
 27 29  2  0  0  0  0
 28 27  1  0  0  0  0
 29 30  1  0  0  0  0
 29 35  1  0  0  0  0
 30 32  1  0  0  0  0
 31 30  1  0  0  0  0
 32 33  2  0  0  0  0
 33 34  1  0  0  0  0
 35 33  1  0  0  0  0
 36 35  2  0  0  0  0
M  END
>  <minimizedAffinity>
-5.34406137

$$$$

 OpenBabel03272505073D

 36 39  0  0  1  0  0  0  0  0999 V2000
   35.5310   22.2690   32.0070 C   0  0  0  0  0  0  0  0  0  0  0  0
   36.2020   23.4190   31.5780 C   0  0  0  0  0  0  0  0  0  0  0  0
   37.4770   23.6270   32.0740 C   0  0  0  0  0  0  0  0  0  0  0  0
   37.9960   22.7100   32.9400 N   0  0  0  0  0  0  0  0  0  0  0  0
   37.3260   21.6200   33.3300 C   0  0  0  0  0  0  0  0  0  0  0  0
   36.0700   21.3870   32.8610 N   0  0  0  0  0  0  0  0  0  0  0  0
   38.3550   24.7160   31.7960 N   0  0  0  0  0  0  0  0  0  0  0  0
   38.5960   25.2370   30.4820 C   0  0  0  0  0  0  0  0  0  0  0  0
   38.5780   26.7020   30.3210 C   0  0  0  0  0  0  0  0  0  0  0  0
   39.1120   27.5090   31.4650 C   0  0  0  0  0  0  0  0  0  0  0  0
   38.6340   26.9220   32.7570 C   0  0  0  0  0  0  0  0  0  0  0  0
   39.1290   25.4560   32.7470 C   0  0  1  0  0  0  0  0  0  0  0  0
   34.5300   22.1950   31.5590 H   0  0  0  0  0  0  0  0  0  0  0  0
   35.8550   24.1650   30.9110 H   0  0  0  0  0  0  0  0  0  0  0  0
   37.7260   20.8860   34.0150 H   0  0  0  0  0  0  0  0  0  0  0  0
   37.8100   24.8020   29.8100 H   0  0  0  0  0  0  0  0  0  0  0  0
   39.5540   24.7860   30.1330 H   0  0  0  0  0  0  0  0  0  0  0  0
   37.5690   27.0550   29.9920 H   0  0  0  0  0  0  0  0  0  0  0  0
   39.2440   26.9430   29.4410 H   0  0  0  0  0  0  0  0  0  0  0  0
   38.6630   28.5250   31.3880 H   0  0  0  0  0  0  0  0  0  0  0  0
   40.2020   27.6500   31.4440 H   0  0  0  0  0  0  0  0  0  0  0  0
   37.5370   26.8830   32.7740 H   0  0  0  0  0  0  0  0  0  0  0  0
   39.0300   27.4560   33.6180 H   0  0  0  0  0  0  0  0  0  0  0  0
   40.2180   25.4130   32.5500 H   0  0  0  0  0  0  0  0  0  0  0  0
   37.8810   25.3610   34.9830 C   0  0  0  0  0  3  0  0  0  0  0  0
   38.9250   24.9920   34.1640 C   0  0  0  0  0  0  0  0  0  0  0  0
   39.8350   24.1120   34.7590 C   0  0  0  0  0  0  0  0  0  0  0  0
   40.6740   23.7960   34.1470 H   0  0  0  0  0  0  0  0  0  0  0  0
   39.7690   23.6160   36.0310 C   0  0  0  0  0  0  0  0  0  0  0  0
   40.5600   22.7800   36.7170 N   0  0  0  0  0  0  0  0  0  0  0  0
   41.4330   22.3190   36.3850 H   0  0  0  0  0  0  0  0  0  0  0  0
   40.0260   22.6340   37.9200 N   0  0  0  0  0  0  0  0  0  0  0  0
   38.8870   23.3750   38.0210 C   0  0  0  0  0  0  0  0  0  0  0  0
   38.2310   23.4670   38.8650 H   0  0  0  0  0  0  0  0  0  0  0  0
   38.7030   24.0230   36.7980 C   0  0  0  0  0  0  0  0  0  0  0  0
   37.7710   24.8890   36.2710 C   0  0  0  0  0  3  0  0  0  0  0  0
  1  6  1  0  0  0  0
  2  1  2  0  0  0  0
  2  3  1  0  0  0  0
  3  4  2  0  0  0  0
  4  5  1  0  0  0  0
  5 15  1  0  0  0  0
  6  5  2  0  0  0  0
  7  3  1  0  0  0  0
  7 12  1  0  0  0  0
  8  7  1  0  0  0  0
  9  8  1  0  0  0  0
  9 10  1  0  0  0  0
 10 11  1  0  0  0  0
 11 22  1  0  0  0  0
 11 23  1  0  0  0  0
 12 24  1  6  0  0  0
 12 11  1  0  0  0  0
 12 26  1  0  0  0  0
 13  1  1  0  0  0  0
 14  2  1  0  0  0  0
 16  8  1  0  0  0  0
 17  8  1  0  0  0  0
 18  9  1  0  0  0  0
 19  9  1  0  0  0  0
 20 10  1  0  0  0  0
 21 10  1  0  0  0  0
 25 36  1  0  0  0  0
 26 27  1  0  0  0  0
 26 25  2  0  0  0  0
 27 29  2  0  0  0  0
 28 27  1  0  0  0  0
 29 30  1  0  0  0  0
 29 35  1  0  0  0  0
 30 32  1  0  0  0  0
 31 30  1  0  0  0  0
 32 33  2  0  0  0  0
 33 34  1  0  0  0  0
 35 33  1  0  0  0  0
 36 35  2  0  0  0  0
M  END
>  <minimizedAffinity>
-5.29995108

$$$$

 OpenBabel03272505073D

 36 39  0  0  1  0  0  0  0  0999 V2000
   38.3510   26.0200   36.0320 C   0  0  0  0  0  0  0  0  0  0  0  0
   37.7990   25.0600   35.1780 C   0  0  0  0  0  0  0  0  0  0  0  0
   38.0960   25.1670   33.8310 C   0  0  0  0  0  0  0  0  0  0  0  0
   38.9000   26.1910   33.4220 N   0  0  0  0  0  0  0  0  0  0  0  0
   39.4120   27.0930   34.2650 C   0  0  0  0  0  0  0  0  0  0  0  0
   39.1380   27.0150   35.5960 N   0  0  0  0  0  0  0  0  0  0  0  0
   37.6540   24.3240   32.7690 N   0  0  0  0  0  0  0  0  0  0  0  0
   37.6540   22.8910   32.8300 C   0  0  0  0  0  0  0  0  0  0  0  0
   36.4440   22.1940   32.3570 C   0  0  0  0  0  0  0  0  0  0  0  0
   35.7250   22.8120   31.1970 C   0  0  0  0  0  0  0  0  0  0  0  0
   35.6760   24.2970   31.3720 C   0  0  0  0  0  0  0  0  0  0  0  0
   37.1520   24.7430   31.4950 C   0  0  1  0  0  0  0  0  0  0  0  0
   38.0570   25.8490   37.0760 H   0  0  0  0  0  0  0  0  0  0  0  0
   37.1700   24.2460   35.4330 H   0  0  0  0  0  0  0  0  0  0  0  0
   40.0500   27.9080   33.9540 H   0  0  0  0  0  0  0  0  0  0  0  0
   37.8220   22.6110   33.9030 H   0  0  0  0  0  0  0  0  0  0  0  0
   38.5720   22.5510   32.2970 H   0  0  0  0  0  0  0  0  0  0  0  0
   35.7550   21.9700   33.2090 H   0  0  0  0  0  0  0  0  0  0  0  0
   36.7720   21.1720   32.0040 H   0  0  0  0  0  0  0  0  0  0  0  0
   34.6730   22.4480   31.2320 H   0  0  0  0  0  0  0  0  0  0  0  0
   36.1210   22.5150   30.2150 H   0  0  0  0  0  0  0  0  0  0  0  0
   35.1900   24.5520   32.3230 H   0  0  0  0  0  0  0  0  0  0  0  0
   35.1930   24.7910   30.5310 H   0  0  0  0  0  0  0  0  0  0  0  0
   37.7480   24.3590   30.6440 H   0  0  0  0  0  0  0  0  0  0  0  0
   38.0400   27.0140   30.7060 C   0  0  0  0  0  3  0  0  0  0  0  0
   37.0960   26.2400   31.3450 C   0  0  0  0  0  0  0  0  0  0  0  0
   36.0230   26.9650   31.8740 C   0  0  0  0  0  0  0  0  0  0  0  0
   35.2570   26.3920   32.3850 H   0  0  0  0  0  0  0  0  0  0  0  0
   35.8510   28.3190   31.8080 C   0  0  0  0  0  0  0  0  0  0  0  0
   34.8870   29.1300   32.2650 N   0  0  0  0  0  0  0  0  0  0  0  0
   34.0290   28.8610   32.7910 H   0  0  0  0  0  0  0  0  0  0  0  0
   35.2200   30.3660   31.9230 N   0  0  0  0  0  0  0  0  0  0  0  0
   36.4010   30.3630   31.2430 C   0  0  0  0  0  0  0  0  0  0  0  0
   36.9310   31.2010   30.8360 H   0  0  0  0  0  0  0  0  0  0  0  0
   36.8270   29.0360   31.1590 C   0  0  0  0  0  0  0  0  0  0  0  0
   37.9110   28.3810   30.6150 C   0  0  0  0  0  3  0  0  0  0  0  0
  1 13  1  0  0  0  0
  2 14  1  0  0  0  0
  2  1  2  0  0  0  0
  3  2  1  0  0  0  0
  4  3  2  0  0  0  0
  4  5  1  0  0  0  0
  5  6  2  0  0  0  0
  6  1  1  0  0  0  0
  7  8  1  0  0  0  0
  7  3  1  0  0  0  0
  8 16  1  0  0  0  0
  9  8  1  0  0  0  0
  9 18  1  0  0  0  0
 10 20  1  0  0  0  0
 10 11  1  0  0  0  0
 10  9  1  0  0  0  0
 11 12  1  0  0  0  0
 11 22  1  0  0  0  0
 12 24  1  6  0  0  0
 12  7  1  0  0  0  0
 15  5  1  0  0  0  0
 17  8  1  0  0  0  0
 19  9  1  0  0  0  0
 21 10  1  0  0  0  0
 23 11  1  0  0  0  0
 25 26  1  0  0  0  0
 26 12  1  0  0  0  0
 26 27  2  0  0  0  0
 27 28  1  0  0  0  0
 29 27  1  0  0  0  0
 29 30  1  0  0  0  0
 30 31  1  0  0  0  0
 32 30  1  0  0  0  0
 33 32  2  0  0  0  0
 34 33  1  0  0  0  0
 35 33  1  0  0  0  0
 35 29  2  0  0  0  0
 36 25  2  0  0  0  0
 36 35  1  0  0  0  0
M  END
>  <minimizedAffinity>
-5.2930913

$$$$

 OpenBabel03272505073D

 36 39  0  0  1  0  0  0  0  0999 V2000
   39.2500   22.0720   33.9500 C   0  0  0  0  0  0  0  0  0  0  0  0
   40.4030   22.8640   33.9370 C   0  0  0  0  0  0  0  0  0  0  0  0
   40.3910   24.0100   34.7110 C   0  0  0  0  0  0  0  0  0  0  0  0
   39.2690   24.2960   35.4320 N   0  0  0  0  0  0  0  0  0  0  0  0
   38.1820   23.5170   35.4230 C   0  0  0  0  0  0  0  0  0  0  0  0
   38.1620   22.3840   34.6710 N   0  0  0  0  0  0  0  0  0  0  0  0
   41.4310   24.9740   34.8600 N   0  0  0  0  0  0  0  0  0  0  0  0
   42.8100   24.6410   35.0700 C   0  0  0  0  0  0  0  0  0  0  0  0
   43.8110   25.3690   34.2690 C   0  0  0  0  0  0  0  0  0  0  0  0
   43.5120   26.8050   33.9660 C   0  0  0  0  0  0  0  0  0  0  0  0
   42.0650   26.9510   33.6120 C   0  0  0  0  0  0  0  0  0  0  0  0
   41.2880   26.3990   34.8300 C   0  0  1  0  0  0  0  0  0  0  0  0
   39.3580   21.1890   33.3070 H   0  0  0  0  0  0  0  0  0  0  0  0
   41.3010   22.6960   33.4000 H   0  0  0  0  0  0  0  0  0  0  0  0
   37.2870   23.7320   35.9900 H   0  0  0  0  0  0  0  0  0  0  0  0
   42.9170   23.5470   34.8510 H   0  0  0  0  0  0  0  0  0  0  0  0
   42.9960   24.7360   36.1650 H   0  0  0  0  0  0  0  0  0  0  0  0
   44.0820   24.7930   33.3500 H   0  0  0  0  0  0  0  0  0  0  0  0
   44.7680   25.3770   34.8710 H   0  0  0  0  0  0  0  0  0  0  0  0
   44.0950   27.0770   33.0580 H   0  0  0  0  0  0  0  0  0  0  0  0
   43.8250   27.5050   34.7550 H   0  0  0  0  0  0  0  0  0  0  0  0
   41.8160   26.3040   32.7610 H   0  0  0  0  0  0  0  0  0  0  0  0
   41.7950   27.9870   33.4200 H   0  0  0  0  0  0  0  0  0  0  0  0
   41.6260   26.8900   35.7640 H   0  0  0  0  0  0  0  0  0  0  0  0
   38.9720   27.2050   35.5750 C   0  0  0  0  0  3  0  0  0  0  0  0
   39.8710   26.8470   34.5940 C   0  0  0  0  0  0  0  0  0  0  0  0
   39.3610   26.9270   33.2940 C   0  0  0  0  0  0  0  0  0  0  0  0
   40.0370   26.6530   32.4910 H   0  0  0  0  0  0  0  0  0  0  0  0
   38.0990   27.3150   32.9420 C   0  0  0  0  0  0  0  0  0  0  0  0
   37.4890   27.4360   31.7550 N   0  0  0  0  0  0  0  0  0  0  0  0
   37.8910   27.2430   30.8130 H   0  0  0  0  0  0  0  0  0  0  0  0
   36.2540   27.8540   31.9890 N   0  0  0  0  0  0  0  0  0  0  0  0
   36.0570   28.0070   33.3290 C   0  0  0  0  0  0  0  0  0  0  0  0
   35.1670   28.3310   33.8320 H   0  0  0  0  0  0  0  0  0  0  0  0
   37.2490   27.6600   33.9660 C   0  0  0  0  0  0  0  0  0  0  0  0
   37.6910   27.6020   35.2700 C   0  0  0  0  0  3  0  0  0  0  0  0
  1  6  1  0  0  0  0
  2  1  2  0  0  0  0
  2  3  1  0  0  0  0
  3  7  1  0  0  0  0
  3  4  2  0  0  0  0
  5  4  1  0  0  0  0
  5 15  1  0  0  0  0
  6  5  2  0  0  0  0
  7  8  1  0  0  0  0
  8 17  1  0  0  0  0
  9 19  1  0  0  0  0
  9  8  1  0  0  0  0
 10  9  1  0  0  0  0
 10 21  1  0  0  0  0
 11 10  1  0  0  0  0
 11 12  1  0  0  0  0
 12  7  1  0  0  0  0
 12 24  1  1  0  0  0
 13  1  1  0  0  0  0
 14  2  1  0  0  0  0
 16  8  1  0  0  0  0
 18  9  1  0  0  0  0
 20 10  1  0  0  0  0
 22 11  1  0  0  0  0
 23 11  1  0  0  0  0
 26 12  1  0  0  0  0
 26 25  2  0  0  0  0
 27 26  1  0  0  0  0
 28 27  1  0  0  0  0
 29 27  2  0  0  0  0
 29 35  1  0  0  0  0
 30 32  1  0  0  0  0
 30 29  1  0  0  0  0
 31 30  1  0  0  0  0
 32 33  2  0  0  0  0
 33 34  1  0  0  0  0
 33 35  1  0  0  0  0
 35 36  2  0  0  0  0
 36 25  1  0  0  0  0
M  END
>  <minimizedAffinity>
-5.28642845

$$$$
