
 OpenBabel03272504413D

 48 51  0  0  0  0  0  0  0  0999 V2000
   34.6050   29.2080   48.8230 C   0  0  0  0  0  0  0  0  0  0  0  0
   35.5040   29.1390   49.4760 H   0  0  0  0  0  0  0  0  0  0  0  0
   34.0160   30.0510   49.2940 H   0  0  0  0  0  0  0  0  0  0  0  0
   37.3670   30.2920   48.6350 Cl  0  0  0  0  0  0  0  0  0  0  0  0
   36.2580   30.1820   47.2680 C   0  0  0  0  0  0  0  0  0  0  0  0
   36.6640   30.6090   46.0540 C   0  0  0  0  0  0  0  0  0  0  0  0
   35.8080   30.5280   44.9760 C   0  0  0  0  0  0  0  0  0  0  0  0
   34.5320   30.0020   45.1650 C   0  0  0  0  0  0  0  0  0  0  0  0
   34.1870   29.5790   46.4630 C   0  0  0  0  0  0  0  0  0  0  0  0
   35.0110   29.6520   47.5230 C   0  0  0  0  0  0  0  0  0  0  0  0
   36.1580   30.8810   43.9980 H   0  0  0  0  0  0  0  0  0  0  0  0
   33.9500   29.9830   44.2740 H   0  0  0  0  0  0  0  0  0  0  0  0
   33.2210   29.2310   46.4010 H   0  0  0  0  0  0  0  0  0  0  0  0
   39.6470   32.7680   46.2870 C   0  0  0  0  0  0  0  0  0  0  0  0
   40.5330   32.0840   45.3790 C   0  0  0  0  0  0  0  0  0  0  0  0
   40.0670   30.9300   44.7440 C   0  0  0  0  0  0  0  0  0  0  0  0
   38.8060   30.4990   45.0000 N   0  0  0  0  0  0  0  0  0  0  0  0
   37.9940   31.1610   45.8570 C   0  0  0  0  0  0  0  0  0  0  0  0
   38.4170   32.2720   46.4810 N   0  0  0  0  0  0  0  0  0  0  0  0
   40.0080   33.6610   46.7770 H   0  0  0  0  0  0  0  0  0  0  0  0
   41.5120   32.5250   45.2580 H   0  0  0  0  0  0  0  0  0  0  0  0
   40.9630   30.2960   43.8690 N   0  0  0  0  0  0  0  0  0  0  0  0
   40.7490   30.6960   42.9280 H   0  0  0  0  0  0  0  0  0  0  0  0
   41.7210   29.5700   44.0050 H   0  0  0  0  0  0  0  0  0  0  0  0
   33.8480   27.9610   48.9690 C   0  0  0  0  0  0  0  0  0  0  0  0
   33.9050   27.3390   48.0460 H   0  0  0  0  0  0  0  0  0  0  0  0
   34.2540   27.2860   49.7740 H   0  0  0  0  0  0  0  0  0  0  0  0
   32.5410   28.2010   49.3040 O   0  0  0  0  0  0  0  0  0  0  0  0
   32.2620   26.5260   47.2990 O   0  0  0  0  0  0  0  0  0  0  0  0
   31.5100   27.4020   48.2710 P   0  0  2  0  0  0  0  0  0  0  0  0
   30.6600   28.6240   47.3830 O   0  0  0  0  0  0  0  0  0  0  0  0
   28.9800   27.4340   46.1020 C   0  0  0  0  0  3  0  0  0  0  0  0
   30.1170   28.2140   46.1660 C   0  0  0  0  0  0  0  0  0  0  0  0
   30.6690   28.5550   44.9480 C   0  0  0  0  0  0  0  0  0  0  0  0
   31.5730   29.1740   44.9380 H   0  0  0  0  0  0  0  0  0  0  0  0
   30.1270   28.1450   43.7430 C   0  0  0  0  0  0  0  0  0  0  0  0
   30.4250   28.3100   42.4420 N   0  0  0  0  0  0  0  0  0  0  0  0
   31.2530   28.8670   42.0930 H   0  0  0  0  0  0  0  0  0  0  0  0
   29.5500   27.6870   41.6660 N   0  0  0  0  0  0  0  0  0  0  0  0
   28.6280   27.0790   42.4360 C   0  0  0  0  0  0  0  0  0  0  0  0
   27.7610   26.4750   42.1290 H   0  0  0  0  0  0  0  0  0  0  0  0
   28.9880   27.3650   43.7380 C   0  0  0  0  0  0  0  0  0  0  0  0
   28.3840   26.9900   44.9390 C   0  0  0  0  0  3  0  0  0  0  0  0
   30.3480   26.5170   49.0440 O   0  0  0  0  0  0  0  0  0  0  0  0
   29.6090   27.3060   49.8950 C   0  0  0  0  0  0  0  0  0  0  0  0
   29.2430   26.6340   51.0600 F   0  0  0  0  0  0  0  0  0  0  0  0
   30.3290   28.4060   50.3140 F   0  0  0  0  0  0  0  0  0  0  0  0
   28.4510   27.7440   49.2630 F   0  0  0  0  0  0  0  0  0  0  0  0
  1 25  1  0  0  0  0
  1  3  1  0  0  0  0
  1  2  1  0  0  0  0
  5 10  1  0  0  0  0
  5  4  1  0  0  0  0
  6  5  2  0  0  0  0
  7  8  2  0  0  0  0
  7  6  1  0  0  0  0
  8  9  1  0  0  0  0
  9 10  2  0  0  0  0
 10  1  1  0  0  0  0
 11  7  1  0  0  0  0
 12  8  1  0  0  0  0
 13  9  1  0  0  0  0
 14 19  1  0  0  0  0
 14 20  1  0  0  0  0
 15 14  2  0  0  0  0
 16 17  2  0  0  0  0
 16 15  1  0  0  0  0
 17 18  1  0  0  0  0
 18  6  1  0  0  0  0
 18 19  2  0  0  0  0
 21 15  1  0  0  0  0
 22 24  1  0  0  0  0
 22 16  1  0  0  0  0
 23 22  1  0  0  0  0
 25 28  1  0  0  0  0
 25 27  1  0  0  0  0
 26 25  1  0  0  0  0
 30 29  2  6  0  0  0
 30 44  1  0  0  0  0
 30 28  1  0  0  0  0
 31 30  1  0  0  0  0
 32 33  1  0  0  0  0
 33 31  1  0  0  0  0
 34 33  2  0  0  0  0
 35 34  1  0  0  0  0
 36 34  1  0  0  0  0
 37 36  1  0  0  0  0
 38 37  1  0  0  0  0
 39 40  2  0  0  0  0
 39 37  1  0  0  0  0
 40 42  1  0  0  0  0
 41 40  1  0  0  0  0
 42 36  2  0  0  0  0
 42 43  1  0  0  0  0
 43 32  2  0  0  0  0
 44 45  1  0  0  0  0
 45 47  1  0  0  0  0
 45 46  1  0  0  0  0
 48 45  1  0  0  0  0
M  END
>  <minimizedAffinity>
-5.73378468

>  <minimizedRMSD>
0.757906616

$$$$
