
 OpenBabel03272509493D

 36 39  0  0  0  0  0  0  0  0999 V2000
   37.5550   30.3380   51.0880 C   0  0  0  0  0  0  0  0  0  0  0  0
   38.1320   30.9280   49.9340 C   0  0  0  0  0  0  0  0  0  0  0  0
   37.6360   30.5830   48.6950 C   0  0  0  0  0  0  0  0  0  0  0  0
   36.6130   29.6860   48.6960 N   0  0  0  0  0  0  0  0  0  0  0  0
   36.0740   29.1360   49.7780 C   0  0  0  0  0  0  0  0  0  0  0  0
   36.5540   29.4690   50.9880 N   0  0  0  0  0  0  0  0  0  0  0  0
   37.9350   30.6000   52.0720 H   0  0  0  0  0  0  0  0  0  0  0  0
   38.9300   31.6190   50.0370 H   0  0  0  0  0  0  0  0  0  0  0  0
   39.5000   31.3110   47.2230 C   0  0  0  0  0  3  0  0  0  0  0  0
   38.1550   31.1290   47.4480 C   0  0  0  0  0  0  0  0  0  0  0  0
   37.2600   31.4740   46.4580 C   0  0  0  0  0  0  0  0  0  0  0  0
   36.1870   31.3300   46.6350 H   0  0  0  0  0  0  0  0  0  0  0  0
   37.6630   31.9980   45.2460 C   0  0  0  0  0  0  0  0  0  0  0  0
   37.0570   32.4210   44.1150 N   0  0  0  0  0  0  0  0  0  0  0  0
   36.0160   32.3950   44.0070 H   0  0  0  0  0  0  0  0  0  0  0  0
   37.9890   32.8290   43.2690 N   0  0  0  0  0  0  0  0  0  0  0  0
   39.2010   32.6800   43.8290 C   0  0  0  0  0  0  0  0  0  0  0  0
   40.1570   32.9350   43.3630 H   0  0  0  0  0  0  0  0  0  0  0  0
   39.0190   32.1540   45.0860 C   0  0  0  0  0  0  0  0  0  0  0  0
   39.9700   31.8310   46.0280 C   0  0  0  0  0  3  0  0  0  0  0  0
   35.0570   28.2650   49.4810 O   0  0  0  0  0  0  0  0  0  0  0  0
   34.2680   28.4920   48.3280 C   0  0  0  0  0  0  0  0  0  0  0  0
   34.9440   28.6650   47.4630 H   0  0  0  0  0  0  0  0  0  0  0  0
   33.7430   29.4710   48.4760 H   0  0  0  0  0  0  0  0  0  0  0  0
   33.3070   27.3660   48.1050 C   0  0  0  0  0  0  0  0  0  0  0  0
   33.3750   26.5760   48.8890 H   0  0  0  0  0  0  0  0  0  0  0  0
   33.6000   26.8700   47.1560 H   0  0  0  0  0  0  0  0  0  0  0  0
   31.9100   27.8360   47.9270 C   0  0  0  0  0  0  0  0  0  0  0  0
   31.0170   27.5640   48.9450 C   0  0  0  0  0  0  0  0  0  0  0  0
   29.6950   27.9370   48.9190 C   0  0  0  0  0  0  0  0  0  0  0  0
   29.2510   28.5970   47.8500 N   0  0  0  0  0  0  0  0  0  0  0  0
   30.1200   28.8680   46.8460 C   0  0  0  0  0  0  0  0  0  0  0  0
   31.4220   28.5040   46.8670 N   0  0  0  0  0  0  0  0  0  0  0  0
   31.3090   27.0240   49.8590 H   0  0  0  0  0  0  0  0  0  0  0  0
   28.9950   27.7240   49.7160 H   0  0  0  0  0  0  0  0  0  0  0  0
   29.7690   29.4120   45.9570 H   0  0  0  0  0  0  0  0  0  0  0  0
  1  7  1  0  0  0  0
  2  8  1  0  0  0  0
  2  1  2  0  0  0  0
  3  4  2  0  0  0  0
  3  2  1  0  0  0  0
  4  5  1  0  0  0  0
  5  6  2  0  0  0  0
  6  1  1  0  0  0  0
  9 10  1  0  0  0  0
 10  3  1  0  0  0  0
 11 12  1  0  0  0  0
 11 10  2  0  0  0  0
 13 11  1  0  0  0  0
 14 13  1  0  0  0  0
 15 14  1  0  0  0  0
 16 17  2  0  0  0  0
 16 14  1  0  0  0  0
 17 19  1  0  0  0  0
 18 17  1  0  0  0  0
 19 13  2  0  0  0  0
 19 20  1  0  0  0  0
 20  9  2  0  0  0  0
 21  5  1  0  0  0  0
 22 24  1  0  0  0  0
 22 21  1  0  0  0  0
 23 22  1  0  0  0  0
 25 22  1  0  0  0  0
 25 26  1  0  0  0  0
 27 25  1  0  0  0  0
 28 25  1  0  0  0  0
 28 29  1  0  0  0  0
 29 34  1  0  0  0  0
 30 29  2  0  0  0  0
 30 35  1  0  0  0  0
 31 30  1  0  0  0  0
 32 33  1  0  0  0  0
 32 31  2  0  0  0  0
 33 28  2  0  0  0  0
 36 32  1  0  0  0  0
M  END
>  <minimizedAffinity>
-6.19125557

>  <minimizedRMSD>
0.741990209

$$$$
