
 OpenBabel03272507413D

 44 48  0  0  0  0  0  0  0  0999 V2000
   36.7980   31.1880   50.1290 C   0  0  0  0  0  0  0  0  0  0  0  0
   35.7610   30.2860   49.9110 C   0  0  0  0  0  0  0  0  0  0  0  0
   35.5910   29.1600   50.6870 C   0  0  0  0  0  0  0  0  0  0  0  0
   36.4920   28.9650   51.6880 N   0  0  0  0  0  0  0  0  0  0  0  0
   37.5090   29.8520   51.9000 C   0  0  0  0  0  0  0  0  0  0  0  0
   37.6400   30.9250   51.1320 N   0  0  0  0  0  0  0  0  0  0  0  0
   34.8300   28.4300   50.5850 H   0  0  0  0  0  0  0  0  0  0  0  0
   38.2070   29.6630   52.7080 H   0  0  0  0  0  0  0  0  0  0  0  0
   34.3310   29.2570   48.1840 C   0  0  0  0  0  0  0  0  0  0  0  0
   34.7460   28.0380   48.1620 O   0  0  0  0  0  0  0  0  0  0  0  0
   34.7830   30.3870   48.9020 N   0  0  0  0  0  0  0  0  0  0  0  0
   34.4600   31.3610   48.7650 H   0  0  0  0  0  0  0  0  0  0  0  0
   33.0710   30.4800   46.4140 C   0  0  0  0  0  3  0  0  0  0  0  0
   33.1900   29.4140   47.2820 C   0  0  0  0  0  0  0  0  0  0  0  0
   32.1380   28.5280   47.2070 C   0  0  0  0  0  0  0  0  0  0  0  0
   32.1160   27.6510   47.8360 H   0  0  0  0  0  0  0  0  0  0  0  0
   31.0480   28.6390   46.3720 C   0  0  0  0  0  0  0  0  0  0  0  0
   29.9440   27.9020   46.1510 N   0  0  0  0  0  0  0  0  0  0  0  0
   29.6840   27.0170   46.6230 H   0  0  0  0  0  0  0  0  0  0  0  0
   29.2240   28.4950   45.2180 N   0  0  0  0  0  0  0  0  0  0  0  0
   29.8180   29.6230   44.7980 C   0  0  0  0  0  0  0  0  0  0  0  0
   29.5090   30.3350   44.0610 H   0  0  0  0  0  0  0  0  0  0  0  0
   30.9840   29.7260   45.5270 C   0  0  0  0  0  0  0  0  0  0  0  0
   31.9960   30.6610   45.5380 C   0  0  0  0  0  3  0  0  0  0  0  0
   36.7920   32.2250   49.2640 O   0  0  0  0  0  0  0  0  0  0  0  0
   38.2440   32.2280   47.2690 C   0  0  0  0  0  0  0  0  0  0  0  0
   37.8810   32.6540   48.5390 C   0  0  0  0  0  0  0  0  0  0  0  0
   38.6490   33.5980   49.1930 C   0  0  0  0  0  0  0  0  0  0  0  0
   39.7800   34.1200   48.5800 C   0  0  0  0  0  0  0  0  0  0  0  0
   40.1340   33.6900   47.3140 C   0  0  0  0  0  0  0  0  0  0  0  0
   39.3530   32.7520   46.6930 C   0  0  0  0  0  0  0  0  0  0  0  0
   38.4270   33.9750   50.1800 H   0  0  0  0  0  0  0  0  0  0  0  0
   40.3950   34.8640   49.0810 H   0  0  0  0  0  0  0  0  0  0  0  0
   41.0090   34.0700   46.7960 H   0  0  0  0  0  0  0  0  0  0  0  0
   39.7440   32.2990   45.3340 C   0  0  0  0  0  0  0  0  0  0  0  0
   40.5830   31.2710   44.9600 C   0  0  0  0  0  0  0  0  0  0  0  0
   40.6210   31.2560   43.5690 C   0  0  0  0  0  0  0  0  0  0  0  0
   39.7890   32.2910   43.1770 C   0  0  0  0  0  0  0  0  0  0  0  0
   39.2820   32.8940   44.2400 O   0  0  0  0  0  0  0  0  0  0  0  0
   41.0930   30.6240   45.6770 H   0  0  0  0  0  0  0  0  0  0  0  0
   41.1850   30.5730   42.9730 H   0  0  0  0  0  0  0  0  0  0  0  0
   39.5710   32.5840   42.1600 H   0  0  0  0  0  0  0  0  0  0  0  0
   36.7360   30.4680   46.1420 N   0  0  0  0  0  0  0  0  0  0  0  0
   37.4050   31.2500   46.6550 C   0  0  0  0  0  0  0  0  0  0  0  0
  1  6  1  0  0  0  0
  2  1  2  0  0  0  0
  2  3  1  0  0  0  0
  3  4  2  0  0  0  0
  4  5  1  0  0  0  0
  5  8  1  0  0  0  0
  6  5  2  0  0  0  0
  7  3  1  0  0  0  0
  9 11  1  0  0  0  0
 10  9  2  0  0  0  0
 11  2  1  0  0  0  0
 12 11  1  0  0  0  0
 13 14  1  0  0  0  0
 14  9  1  0  0  0  0
 15 14  2  0  0  0  0
 15 16  1  0  0  0  0
 17 15  1  0  0  0  0
 18 17  1  0  0  0  0
 18 19  1  0  0  0  0
 20 18  1  0  0  0  0
 21 20  2  0  0  0  0
 21 23  1  0  0  0  0
 22 21  1  0  0  0  0
 23 24  1  0  0  0  0
 23 17  2  0  0  0  0
 24 13  2  0  0  0  0
 25  1  1  0  0  0  0
 26 27  1  0  0  0  0
 27 28  2  0  0  0  0
 27 25  1  0  0  0  0
 28 32  1  0  0  0  0
 29 33  1  0  0  0  0
 29 28  1  0  0  0  0
 30 29  2  0  0  0  0
 31 26  2  0  0  0  0
 31 30  1  0  0  0  0
 34 30  1  0  0  0  0
 35 31  1  0  0  0  0
 36 35  2  0  0  0  0
 36 40  1  0  0  0  0
 37 36  1  0  0  0  0
 38 37  2  0  0  0  0
 38 39  1  0  0  0  0
 39 35  1  0  0  0  0
 41 37  1  0  0  0  0
 42 38  1  0  0  0  0
 43 44  3  0  0  0  0
 44 26  1  0  0  0  0
M  END
>  <minimizedAffinity>
-6.35029459

>  <minimizedRMSD>
0.712509394

$$$$
