
 OpenBabel03272509493D

 36 39  0  0  0  0  0  0  0  0999 V2000
   37.1390   30.1120   51.0600 C   0  0  0  0  0  0  0  0  0  0  0  0
   37.7210   30.5220   49.8310 C   0  0  0  0  0  0  0  0  0  0  0  0
   37.0900   30.1790   48.6540 C   0  0  0  0  0  0  0  0  0  0  0  0
   35.9400   29.4630   48.7850 N   0  0  0  0  0  0  0  0  0  0  0  0
   35.3990   29.0810   49.9360 C   0  0  0  0  0  0  0  0  0  0  0  0
   36.0090   29.4130   51.0860 N   0  0  0  0  0  0  0  0  0  0  0  0
   37.6240   30.3750   51.9960 H   0  0  0  0  0  0  0  0  0  0  0  0
   38.6230   31.0790   49.8330 H   0  0  0  0  0  0  0  0  0  0  0  0
   36.7760   30.7620   46.2600 C   0  0  0  0  0  3  0  0  0  0  0  0
   37.6000   30.5470   47.3400 C   0  0  0  0  0  0  0  0  0  0  0  0
   38.9620   30.6850   47.1780 C   0  0  0  0  0  0  0  0  0  0  0  0
   39.6220   30.5150   48.0370 H   0  0  0  0  0  0  0  0  0  0  0  0
   39.5320   31.0310   45.9690 C   0  0  0  0  0  0  0  0  0  0  0  0
   40.7830   31.2370   45.5010 N   0  0  0  0  0  0  0  0  0  0  0  0
   41.6220   31.1400   46.1200 H   0  0  0  0  0  0  0  0  0  0  0  0
   40.7040   31.5560   44.2210 N   0  0  0  0  0  0  0  0  0  0  0  0
   39.4150   31.5610   43.8360 C   0  0  0  0  0  0  0  0  0  0  0  0
   39.0480   31.7900   42.8320 H   0  0  0  0  0  0  0  0  0  0  0  0
   38.6530   31.2310   44.9310 C   0  0  0  0  0  0  0  0  0  0  0  0
   37.2840   31.1120   45.0180 C   0  0  0  0  0  3  0  0  0  0  0  0
   34.2380   28.3700   49.7680 O   0  0  0  0  0  0  0  0  0  0  0  0
   33.5810   28.4060   48.5150 C   0  0  0  0  0  0  0  0  0  0  0  0
   34.3470   28.3730   47.7110 H   0  0  0  0  0  0  0  0  0  0  0  0
   33.1150   29.4220   48.4180 H   0  0  0  0  0  0  0  0  0  0  0  0
   32.5690   27.3090   48.4080 C   0  0  0  0  0  0  0  0  0  0  0  0
   32.6910   26.5290   49.1940 H   0  0  0  0  0  0  0  0  0  0  0  0
   32.7510   26.7910   47.4430 H   0  0  0  0  0  0  0  0  0  0  0  0
   31.1760   27.8210   48.3610 C   0  0  0  0  0  0  0  0  0  0  0  0
   30.4460   27.7730   49.5330 C   0  0  0  0  0  0  0  0  0  0  0  0
   29.1480   28.2100   49.6400 C   0  0  0  0  0  0  0  0  0  0  0  0
   28.5620   28.7070   48.5520 N   0  0  0  0  0  0  0  0  0  0  0  0
   29.2710   28.7580   47.3980 C   0  0  0  0  0  0  0  0  0  0  0  0
   30.5480   28.3300   47.2870 N   0  0  0  0  0  0  0  0  0  0  0  0
   30.8600   27.3760   50.4730 H   0  0  0  0  0  0  0  0  0  0  0  0
   28.5760   28.1730   50.5580 H   0  0  0  0  0  0  0  0  0  0  0  0
   28.8020   29.1660   46.4910 H   0  0  0  0  0  0  0  0  0  0  0  0
  1  6  1  0  0  0  0
  1  7  1  0  0  0  0
  2  8  1  0  0  0  0
  2  1  2  0  0  0  0
  3  4  2  0  0  0  0
  3  2  1  0  0  0  0
  4  5  1  0  0  0  0
  5  6  2  0  0  0  0
  9 10  1  0  0  0  0
 10  3  1  0  0  0  0
 11 10  2  0  0  0  0
 11 12  1  0  0  0  0
 13 11  1  0  0  0  0
 14 13  1  0  0  0  0
 14 15  1  0  0  0  0
 16 14  1  0  0  0  0
 17 16  2  0  0  0  0
 17 19  1  0  0  0  0
 18 17  1  0  0  0  0
 19 20  1  0  0  0  0
 19 13  2  0  0  0  0
 20  9  2  0  0  0  0
 21  5  1  0  0  0  0
 22 21  1  0  0  0  0
 23 22  1  0  0  0  0
 24 22  1  0  0  0  0
 25 22  1  0  0  0  0
 25 26  1  0  0  0  0
 27 25  1  0  0  0  0
 28 25  1  0  0  0  0
 28 29  1  0  0  0  0
 29 30  2  0  0  0  0
 29 34  1  0  0  0  0
 30 35  1  0  0  0  0
 31 30  1  0  0  0  0
 32 31  2  0  0  0  0
 33 32  1  0  0  0  0
 33 28  2  0  0  0  0
 36 32  1  0  0  0  0
M  END
>  <minimizedAffinity>
-6.10379887

>  <minimizedRMSD>
0.512142956

$$$$
