
 OpenBabel03262522053D

 43 47  0  0  1  0  0  0  0  0999 V2000
   37.7650   31.8630   49.6530 C   0  0  0  0  0  0  0  0  0  0  0  0
   36.7730   32.3780   50.2600 O   0  0  0  0  0  0  0  0  0  0  0  0
   34.5490   29.1600   48.6170 C   0  0  2  0  0  0  0  0  0  0  0  0
   35.1640   28.4150   49.7520 C   0  0  0  0  0  0  0  0  0  0  0  0
   36.2900   29.1850   50.2790 N   0  0  0  0  0  0  0  0  0  0  0  0
   37.2250   29.9090   51.0940 C   0  0  0  0  0  0  0  0  0  0  0  0
   37.4100   30.0870   52.3100 O   0  0  0  0  0  0  0  0  0  0  0  0
   37.9750   30.4330   49.9850 C   0  0  1  0  0  0  0  0  0  0  0  0
   37.1600   29.4390   49.1680 C   0  0  2  0  0  0  0  0  0  0  0  0
   35.9770   30.1590   48.0080 S   0  0  0  0  0  0  0  0  0  0  0  0
   35.4100   27.3640   49.5600 H   0  0  0  0  0  0  0  0  0  0  0  0
   34.3960   28.4100   50.5790 H   0  0  0  0  0  0  0  0  0  0  0  0
   39.0360   30.1110   49.8820 H   0  0  0  0  0  0  0  0  0  0  0  0
   37.7140   28.5670   48.7780 H   0  0  0  0  0  0  0  0  0  0  0  0
   33.3400   29.9750   48.9220 C   0  0  0  0  0  0  0  0  0  0  0  0
   32.6020   29.8540   48.0860 H   0  0  0  0  0  0  0  0  0  0  0  0
   32.9070   29.6920   49.8970 H   0  0  0  0  0  0  0  0  0  0  0  0
   33.6300   31.0460   49.0040 H   0  0  0  0  0  0  0  0  0  0  0  0
   34.2860   28.1590   47.4740 C   0  0  0  0  0  0  0  0  0  0  0  0
   34.9810   27.3070   47.5470 H   0  0  0  0  0  0  0  0  0  0  0  0
   33.2460   27.8090   47.5920 H   0  0  0  0  0  0  0  0  0  0  0  0
   34.3690   28.8410   46.2610 O   0  0  0  0  0  0  0  0  0  0  0  0
   34.1250   28.2100   45.5430 H   0  0  0  0  0  0  0  0  0  0  0  0
   38.5910   32.6010   48.7480 C   0  0  0  0  0  0  0  0  0  0  0  0
   39.1670   33.7670   49.1960 C   0  0  0  0  0  0  0  0  0  0  0  0
   39.9850   34.4930   48.2900 C   0  0  0  0  0  0  0  0  0  0  0  0
   40.1460   33.9830   47.0230 N   0  0  0  0  0  0  0  0  0  0  0  0
   39.5710   32.8570   46.6370 C   0  0  0  0  0  0  0  0  0  0  0  0
   38.7940   32.1570   47.4810 N   0  0  0  0  0  0  0  0  0  0  0  0
   39.0160   34.1400   50.2100 H   0  0  0  0  0  0  0  0  0  0  0  0
   40.4630   35.4170   48.5910 H   0  0  0  0  0  0  0  0  0  0  0  0
   40.5150   31.2140   45.0310 C   0  0  0  0  0  3  0  0  0  0  0  0
   39.7690   32.3490   45.2830 C   0  0  0  0  0  0  0  0  0  0  0  0
   39.2110   32.9900   44.1940 C   0  0  0  0  0  0  0  0  0  0  0  0
   38.6260   33.8840   44.4260 H   0  0  0  0  0  0  0  0  0  0  0  0
   39.3650   32.5510   42.8900 C   0  0  0  0  0  0  0  0  0  0  0  0
   38.9000   33.0400   41.7100 N   0  0  0  0  0  0  0  0  0  0  0  0
   38.3020   33.9030   41.6320 H   0  0  0  0  0  0  0  0  0  0  0  0
   39.3560   32.2160   40.7530 N   0  0  0  0  0  0  0  0  0  0  0  0
   40.0850   31.2380   41.3160 C   0  0  0  0  0  0  0  0  0  0  0  0
   40.5850   30.4190   40.7780 H   0  0  0  0  0  0  0  0  0  0  0  0
   40.1230   31.4060   42.6850 C   0  0  0  0  0  0  0  0  0  0  0  0
   40.7050   30.7230   43.7330 C   0  0  0  0  0  3  0  0  0  0  0  0
  1  8  1  0  0  0  0
  1  2  2  0  0  0  0
  3 19  1  6  0  0  0
  3 15  1  0  0  0  0
  3  4  1  0  0  0  0
  4  5  1  0  0  0  0
  4 12  1  0  0  0  0
  5  6  1  0  0  0  0
  6  7  2  0  0  0  0
  8 13  1  1  0  0  0
  8  6  1  0  0  0  0
  9 14  1  6  0  0  0
  9  8  1  0  0  0  0
  9  5  1  0  0  0  0
 10  3  1  0  0  0  0
 10  9  1  0  0  0  0
 11  4  1  0  0  0  0
 15 18  1  0  0  0  0
 15 17  1  0  0  0  0
 16 15  1  0  0  0  0
 19 20  1  0  0  0  0
 19 21  1  0  0  0  0
 22 19  1  0  0  0  0
 23 22  1  0  0  0  0
 24 25  1  0  0  0  0
 24  1  1  0  0  0  0
 25 30  1  0  0  0  0
 26 31  1  0  0  0  0
 26 25  2  0  0  0  0
 27 26  1  0  0  0  0
 28 27  2  0  0  0  0
 28 29  1  0  0  0  0
 29 24  2  0  0  0  0
 32 33  1  0  0  0  0
 33 28  1  0  0  0  0
 34 35  1  0  0  0  0
 34 33  2  0  0  0  0
 36 34  1  0  0  0  0
 37 36  1  0  0  0  0
 38 37  1  0  0  0  0
 39 40  2  0  0  0  0
 39 37  1  0  0  0  0
 40 42  1  0  0  0  0
 41 40  1  0  0  0  0
 42 36  2  0  0  0  0
 42 43  1  0  0  0  0
 43 32  2  0  0  0  0
M  END
>  <minimizedAffinity>
-6.58134604

>  <minimizedRMSD>
0.235501319

$$$$
