
 OpenBabel03262521533D

 26 28  0  0  0  0  0  0  0  0999 V2000
   34.6060   29.3080   49.9230 C   0  0  0  0  0  0  0  0  0  0  0  0
   33.9120   29.1140   50.7780 H   0  0  0  0  0  0  0  0  0  0  0  0
   34.3100   30.2770   49.4720 H   0  0  0  0  0  0  0  0  0  0  0  0
   36.3160   29.4030   50.4860 S   0  0  0  0  0  0  0  0  0  0  0  0
   37.1790   30.6000   49.4720 C   0  0  0  0  0  0  0  0  0  0  0  0
   37.1990   31.8740   50.0130 C   0  0  0  0  0  0  0  0  0  0  0  0
   37.8610   32.8700   49.2730 C   0  0  0  0  0  0  0  0  0  0  0  0
   38.4400   32.5270   48.0790 N   0  0  0  0  0  0  0  0  0  0  0  0
   38.3830   31.2710   47.6160 C   0  0  0  0  0  0  0  0  0  0  0  0
   37.7570   30.3130   48.3060 N   0  0  0  0  0  0  0  0  0  0  0  0
   36.7570   32.1910   50.9490 H   0  0  0  0  0  0  0  0  0  0  0  0
   37.9100   33.8780   49.6370 H   0  0  0  0  0  0  0  0  0  0  0  0
   38.8580   31.0600   46.6660 H   0  0  0  0  0  0  0  0  0  0  0  0
   34.3380   27.9730   48.7270 S   0  0  0  0  0  0  0  0  0  0  0  0
   31.6130   27.6610   48.7480 C   0  0  0  0  0  3  0  0  0  0  0  0
   32.6970   28.1930   48.0550 C   0  0  0  0  0  0  0  0  0  0  0  0
   32.4330   28.8720   46.8670 C   0  0  0  0  0  0  0  0  0  0  0  0
   33.2670   29.2780   46.3400 H   0  0  0  0  0  0  0  0  0  0  0  0
   31.1370   29.0080   46.4000 C   0  0  0  0  0  0  0  0  0  0  0  0
   30.6680   29.6230   45.2820 N   0  0  0  0  0  0  0  0  0  0  0  0
   31.1860   30.1290   44.5290 H   0  0  0  0  0  0  0  0  0  0  0  0
   29.3450   29.4770   45.2830 N   0  0  0  0  0  0  0  0  0  0  0  0
   28.9910   28.7840   46.3800 C   0  0  0  0  0  0  0  0  0  0  0  0
   27.9470   28.5330   46.6070 H   0  0  0  0  0  0  0  0  0  0  0  0
   30.1070   28.4590   47.1310 C   0  0  0  0  0  0  0  0  0  0  0  0
   30.2970   27.7790   48.3050 C   0  0  0  0  0  3  0  0  0  0  0  0
  1  4  1  0  0  0  0
  1  2  1  0  0  0  0
  3  1  1  0  0  0  0
  5  6  1  0  0  0  0
  5  4  1  0  0  0  0
  6 11  1  0  0  0  0
  7 12  1  0  0  0  0
  7  6  2  0  0  0  0
  8  7  1  0  0  0  0
  9  8  2  0  0  0  0
  9 10  1  0  0  0  0
 10  5  2  0  0  0  0
 13  9  1  0  0  0  0
 14  1  1  0  0  0  0
 16 14  1  0  0  0  0
 16 15  2  0  0  0  0
 17 16  1  0  0  0  0
 18 17  1  0  0  0  0
 19 17  2  0  0  0  0
 19 25  1  0  0  0  0
 20 22  1  0  0  0  0
 20 19  1  0  0  0  0
 21 20  1  0  0  0  0
 22 23  2  0  0  0  0
 23 24  1  0  0  0  0
 23 25  1  0  0  0  0
 25 26  2  0  0  0  0
 26 15  1  0  0  0  0
M  END
>  <minimizedAffinity>
-4.38808155

>  <minimizedRMSD>
2.14963222

$$$$
