
 OpenBabel03272504413D

 48 51  0  0  0  0  0  0  0  0999 V2000
   34.5750   29.2440   48.8380 C   0  0  0  0  0  0  0  0  0  0  0  0
   35.4560   29.2330   49.5170 H   0  0  0  0  0  0  0  0  0  0  0  0
   33.9350   30.0720   49.2680 H   0  0  0  0  0  0  0  0  0  0  0  0
   37.3350   30.3370   48.6750 Cl  0  0  0  0  0  0  0  0  0  0  0  0
   36.2470   30.2020   47.2940 C   0  0  0  0  0  0  0  0  0  0  0  0
   36.6700   30.6140   46.0800 C   0  0  0  0  0  0  0  0  0  0  0  0
   35.8300   30.5130   44.9900 C   0  0  0  0  0  0  0  0  0  0  0  0
   34.5530   29.9840   45.1680 C   0  0  0  0  0  0  0  0  0  0  0  0
   34.1900   29.5790   46.4670 C   0  0  0  0  0  0  0  0  0  0  0  0
   34.9980   29.6700   47.5370 C   0  0  0  0  0  0  0  0  0  0  0  0
   36.1930   30.8530   44.0120 H   0  0  0  0  0  0  0  0  0  0  0  0
   33.9850   29.9500   44.2680 H   0  0  0  0  0  0  0  0  0  0  0  0
   33.2270   29.2260   46.3950 H   0  0  0  0  0  0  0  0  0  0  0  0
   39.6490   32.7720   46.3480 C   0  0  0  0  0  0  0  0  0  0  0  0
   40.5410   32.0980   45.4370 C   0  0  0  0  0  0  0  0  0  0  0  0
   40.0780   30.9500   44.7880 C   0  0  0  0  0  0  0  0  0  0  0  0
   38.8170   30.5150   45.0340 N   0  0  0  0  0  0  0  0  0  0  0  0
   38.0000   31.1680   45.8940 C   0  0  0  0  0  0  0  0  0  0  0  0
   38.4200   32.2720   46.5310 N   0  0  0  0  0  0  0  0  0  0  0  0
   40.0080   33.6590   46.8500 H   0  0  0  0  0  0  0  0  0  0  0  0
   41.5200   32.5400   45.3260 H   0  0  0  0  0  0  0  0  0  0  0  0
   40.9780   30.3250   43.9110 N   0  0  0  0  0  0  0  0  0  0  0  0
   40.7680   30.7350   42.9730 H   0  0  0  0  0  0  0  0  0  0  0  0
   41.7360   29.5980   44.0430 H   0  0  0  0  0  0  0  0  0  0  0  0
   33.8700   27.9680   48.9970 C   0  0  0  0  0  0  0  0  0  0  0  0
   33.9790   27.3260   48.0930 H   0  0  0  0  0  0  0  0  0  0  0  0
   34.2840   27.3320   49.8290 H   0  0  0  0  0  0  0  0  0  0  0  0
   32.5450   28.1580   49.2930 O   0  0  0  0  0  0  0  0  0  0  0  0
   32.3580   26.3530   47.3950 O   0  0  0  0  0  0  0  0  0  0  0  0
   31.5760   27.3590   48.2030 P   0  0  2  0  0  0  0  0  0  0  0  0
   30.9390   28.5660   47.1340 O   0  0  0  0  0  0  0  0  0  0  0  0
   30.1030   27.1860   45.3240 C   0  0  0  0  0  3  0  0  0  0  0  0
   29.9060   28.1430   46.2990 C   0  0  0  0  0  0  0  0  0  0  0  0
   28.6220   28.6450   46.3860 C   0  0  0  0  0  0  0  0  0  0  0  0
   28.4090   29.4060   47.1420 H   0  0  0  0  0  0  0  0  0  0  0  0
   27.6000   28.2220   45.5560 C   0  0  0  0  0  0  0  0  0  0  0  0
   26.2950   28.5110   45.4030 N   0  0  0  0  0  0  0  0  0  0  0  0
   25.7770   29.2190   45.9900 H   0  0  0  0  0  0  0  0  0  0  0  0
   25.7560   27.7970   44.4260 N   0  0  0  0  0  0  0  0  0  0  0  0
   26.6960   26.9960   43.8900 C   0  0  0  0  0  0  0  0  0  0  0  0
   26.6020   26.2730   43.0650 H   0  0  0  0  0  0  0  0  0  0  0  0
   27.8520   27.2620   44.5960 C   0  0  0  0  0  0  0  0  0  0  0  0
   29.1320   26.7170   44.4620 C   0  0  0  0  0  3  0  0  0  0  0  0
   30.2630   26.6290   48.8910 O   0  0  0  0  0  0  0  0  0  0  0  0
   29.7160   27.4200   49.8760 C   0  0  0  0  0  0  0  0  0  0  0  0
   29.3390   26.6870   51.0000 F   0  0  0  0  0  0  0  0  0  0  0  0
   30.6220   28.3550   50.3310 F   0  0  0  0  0  0  0  0  0  0  0  0
   28.5940   28.0840   49.3920 F   0  0  0  0  0  0  0  0  0  0  0  0
  1 25  1  0  0  0  0
  1  3  1  0  0  0  0
  1  2  1  0  0  0  0
  5 10  1  0  0  0  0
  5  4  1  0  0  0  0
  6  5  2  0  0  0  0
  7  8  2  0  0  0  0
  7  6  1  0  0  0  0
  8  9  1  0  0  0  0
  9 10  2  0  0  0  0
 10  1  1  0  0  0  0
 11  7  1  0  0  0  0
 12  8  1  0  0  0  0
 13  9  1  0  0  0  0
 14 19  1  0  0  0  0
 14 20  1  0  0  0  0
 15 14  2  0  0  0  0
 16 17  2  0  0  0  0
 16 15  1  0  0  0  0
 17 18  1  0  0  0  0
 18  6  1  0  0  0  0
 18 19  2  0  0  0  0
 21 15  1  0  0  0  0
 22 24  1  0  0  0  0
 22 16  1  0  0  0  0
 23 22  1  0  0  0  0
 25 28  1  0  0  0  0
 25 27  1  0  0  0  0
 26 25  1  0  0  0  0
 30 29  2  6  0  0  0
 30 44  1  0  0  0  0
 30 28  1  0  0  0  0
 31 30  1  0  0  0  0
 32 33  1  0  0  0  0
 33 34  2  0  0  0  0
 33 31  1  0  0  0  0
 34 35  1  0  0  0  0
 36 34  1  0  0  0  0
 37 36  1  0  0  0  0
 37 38  1  0  0  0  0
 39 37  1  0  0  0  0
 40 39  2  0  0  0  0
 40 42  1  0  0  0  0
 41 40  1  0  0  0  0
 42 36  2  0  0  0  0
 43 42  1  0  0  0  0
 43 32  2  0  0  0  0
 44 45  1  0  0  0  0
 45 47  1  0  0  0  0
 45 46  1  0  0  0  0
 48 45  1  0  0  0  0
M  END
>  <minimizedAffinity>
-6.27942562

>  <minimizedRMSD>
1.12724388

$$$$
