
 OpenBabel03272504413D

 48 51  0  0  0  0  0  0  0  0999 V2000
   34.5740   29.2450   48.8420 C   0  0  0  0  0  0  0  0  0  0  0  0
   35.4560   29.2340   49.5210 H   0  0  0  0  0  0  0  0  0  0  0  0
   33.9360   30.0740   49.2720 H   0  0  0  0  0  0  0  0  0  0  0  0
   37.3340   30.3390   48.6780 Cl  0  0  0  0  0  0  0  0  0  0  0  0
   36.2460   30.2020   47.2970 C   0  0  0  0  0  0  0  0  0  0  0  0
   36.6700   30.6130   46.0830 C   0  0  0  0  0  0  0  0  0  0  0  0
   35.8300   30.5110   44.9930 C   0  0  0  0  0  0  0  0  0  0  0  0
   34.5540   29.9830   45.1710 C   0  0  0  0  0  0  0  0  0  0  0  0
   34.1900   29.5780   46.4700 C   0  0  0  0  0  0  0  0  0  0  0  0
   34.9980   29.6710   47.5410 C   0  0  0  0  0  0  0  0  0  0  0  0
   36.1930   30.8510   44.0150 H   0  0  0  0  0  0  0  0  0  0  0  0
   33.9850   29.9470   44.2720 H   0  0  0  0  0  0  0  0  0  0  0  0
   33.2270   29.2250   46.3990 H   0  0  0  0  0  0  0  0  0  0  0  0
   39.6490   32.7710   46.3510 C   0  0  0  0  0  0  0  0  0  0  0  0
   40.5400   32.0980   45.4400 C   0  0  0  0  0  0  0  0  0  0  0  0
   40.0770   30.9500   44.7900 C   0  0  0  0  0  0  0  0  0  0  0  0
   38.8160   30.5160   45.0360 N   0  0  0  0  0  0  0  0  0  0  0  0
   38.0000   31.1680   45.8970 C   0  0  0  0  0  0  0  0  0  0  0  0
   38.4200   32.2720   46.5350 N   0  0  0  0  0  0  0  0  0  0  0  0
   40.0080   33.6580   46.8530 H   0  0  0  0  0  0  0  0  0  0  0  0
   41.5190   32.5410   45.3280 H   0  0  0  0  0  0  0  0  0  0  0  0
   40.9780   30.3260   43.9120 N   0  0  0  0  0  0  0  0  0  0  0  0
   40.7670   30.7360   42.9750 H   0  0  0  0  0  0  0  0  0  0  0  0
   41.7360   29.5990   44.0440 H   0  0  0  0  0  0  0  0  0  0  0  0
   33.8680   27.9710   49.0020 C   0  0  0  0  0  0  0  0  0  0  0  0
   33.9780   27.3270   48.0990 H   0  0  0  0  0  0  0  0  0  0  0  0
   34.2790   27.3360   49.8370 H   0  0  0  0  0  0  0  0  0  0  0  0
   32.5430   28.1630   49.2940 O   0  0  0  0  0  0  0  0  0  0  0  0
   32.3590   26.3560   47.3960 O   0  0  0  0  0  0  0  0  0  0  0  0
   31.5750   27.3620   48.2030 P   0  0  2  0  0  0  0  0  0  0  0  0
   30.9390   28.5680   47.1330 O   0  0  0  0  0  0  0  0  0  0  0  0
   30.1040   27.1870   45.3240 C   0  0  0  0  0  3  0  0  0  0  0  0
   29.9060   28.1440   46.2980 C   0  0  0  0  0  0  0  0  0  0  0  0
   28.6210   28.6450   46.3850 C   0  0  0  0  0  0  0  0  0  0  0  0
   28.4080   29.4080   47.1400 H   0  0  0  0  0  0  0  0  0  0  0  0
   27.6000   28.2210   45.5540 C   0  0  0  0  0  0  0  0  0  0  0  0
   26.2950   28.5100   45.4020 N   0  0  0  0  0  0  0  0  0  0  0  0
   25.7760   29.2180   45.9890 H   0  0  0  0  0  0  0  0  0  0  0  0
   25.7560   27.7950   44.4250 N   0  0  0  0  0  0  0  0  0  0  0  0
   26.6970   26.9940   43.8890 C   0  0  0  0  0  0  0  0  0  0  0  0
   26.6030   26.2710   43.0650 H   0  0  0  0  0  0  0  0  0  0  0  0
   27.8530   27.2610   44.5960 C   0  0  0  0  0  0  0  0  0  0  0  0
   29.1320   26.7170   44.4620 C   0  0  0  0  0  3  0  0  0  0  0  0
   30.2620   26.6310   48.8900 O   0  0  0  0  0  0  0  0  0  0  0  0
   29.7150   27.4210   49.8760 C   0  0  0  0  0  0  0  0  0  0  0  0
   29.3400   26.6860   51.0000 F   0  0  0  0  0  0  0  0  0  0  0  0
   30.6210   28.3560   50.3310 F   0  0  0  0  0  0  0  0  0  0  0  0
   28.5920   28.0850   49.3950 F   0  0  0  0  0  0  0  0  0  0  0  0
  1 25  1  0  0  0  0
  1  3  1  0  0  0  0
  1  2  1  0  0  0  0
  5 10  1  0  0  0  0
  5  4  1  0  0  0  0
  6  5  2  0  0  0  0
  7  8  2  0  0  0  0
  7  6  1  0  0  0  0
  8  9  1  0  0  0  0
  9 10  2  0  0  0  0
 10  1  1  0  0  0  0
 11  7  1  0  0  0  0
 12  8  1  0  0  0  0
 13  9  1  0  0  0  0
 14 19  1  0  0  0  0
 14 20  1  0  0  0  0
 15 14  2  0  0  0  0
 16 17  2  0  0  0  0
 16 15  1  0  0  0  0
 17 18  1  0  0  0  0
 18  6  1  0  0  0  0
 18 19  2  0  0  0  0
 21 15  1  0  0  0  0
 22 24  1  0  0  0  0
 22 16  1  0  0  0  0
 23 22  1  0  0  0  0
 25 28  1  0  0  0  0
 25 27  1  0  0  0  0
 26 25  1  0  0  0  0
 30 29  2  6  0  0  0
 30 44  1  0  0  0  0
 30 28  1  0  0  0  0
 31 30  1  0  0  0  0
 32 33  1  0  0  0  0
 33 34  2  0  0  0  0
 33 31  1  0  0  0  0
 34 35  1  0  0  0  0
 36 34  1  0  0  0  0
 37 36  1  0  0  0  0
 37 38  1  0  0  0  0
 39 37  1  0  0  0  0
 40 39  2  0  0  0  0
 40 42  1  0  0  0  0
 41 40  1  0  0  0  0
 42 36  2  0  0  0  0
 43 42  1  0  0  0  0
 43 32  2  0  0  0  0
 44 45  1  0  0  0  0
 45 47  1  0  0  0  0
 45 46  1  0  0  0  0
 48 45  1  0  0  0  0
M  END
>  <minimizedAffinity>
-6.27944374

>  <minimizedRMSD>
1.2060734

$$$$
