
 OpenBabel03262522053D

 43 47  0  0  1  0  0  0  0  0999 V2000
   37.7670   31.8670   49.5890 C   0  0  0  0  0  0  0  0  0  0  0  0
   36.7570   32.3610   50.1830 O   0  0  0  0  0  0  0  0  0  0  0  0
   34.5490   29.1410   48.6190 C   0  0  2  0  0  0  0  0  0  0  0  0
   35.1940   28.3990   49.7390 C   0  0  0  0  0  0  0  0  0  0  0  0
   36.3260   29.1770   50.2430 N   0  0  0  0  0  0  0  0  0  0  0  0
   37.2730   29.9070   51.0380 C   0  0  0  0  0  0  0  0  0  0  0  0
   37.4830   30.0830   52.2510 O   0  0  0  0  0  0  0  0  0  0  0  0
   37.9940   30.4380   49.9140 C   0  0  1  0  0  0  0  0  0  0  0  0
   37.1690   29.4390   49.1140 C   0  0  2  0  0  0  0  0  0  0  0  0
   35.9560   30.1520   47.9810 S   0  0  0  0  0  0  0  0  0  0  0  0
   35.4430   27.3500   49.5400 H   0  0  0  0  0  0  0  0  0  0  0  0
   34.4440   28.3870   50.5830 H   0  0  0  0  0  0  0  0  0  0  0  0
   39.0550   30.1240   49.7880 H   0  0  0  0  0  0  0  0  0  0  0  0
   37.7210   28.5720   48.7100 H   0  0  0  0  0  0  0  0  0  0  0  0
   33.3410   29.9470   48.9520 C   0  0  0  0  0  0  0  0  0  0  0  0
   32.5860   29.8220   48.1320 H   0  0  0  0  0  0  0  0  0  0  0  0
   32.9320   29.6590   49.9350 H   0  0  0  0  0  0  0  0  0  0  0  0
   33.6240   31.0200   49.0300 H   0  0  0  0  0  0  0  0  0  0  0  0
   34.2690   28.1400   47.4800 C   0  0  0  0  0  0  0  0  0  0  0  0
   34.9680   27.2910   47.5390 H   0  0  0  0  0  0  0  0  0  0  0  0
   33.2320   27.7860   47.6170 H   0  0  0  0  0  0  0  0  0  0  0  0
   34.3260   28.8230   46.2660 O   0  0  0  0  0  0  0  0  0  0  0  0
   34.0720   28.1920   45.5520 H   0  0  0  0  0  0  0  0  0  0  0  0
   38.5950   32.6250   48.7040 C   0  0  0  0  0  0  0  0  0  0  0  0
   39.2020   33.7590   49.1910 C   0  0  0  0  0  0  0  0  0  0  0  0
   40.0230   34.5060   48.3060 C   0  0  0  0  0  0  0  0  0  0  0  0
   40.1550   34.0460   47.0160 N   0  0  0  0  0  0  0  0  0  0  0  0
   39.5520   32.9500   46.5910 C   0  0  0  0  0  0  0  0  0  0  0  0
   38.7720   32.2310   47.4170 N   0  0  0  0  0  0  0  0  0  0  0  0
   39.0730   34.0920   50.2230 H   0  0  0  0  0  0  0  0  0  0  0  0
   40.5250   35.4060   48.6380 H   0  0  0  0  0  0  0  0  0  0  0  0
   39.2240   33.2130   44.1440 C   0  0  0  0  0  3  0  0  0  0  0  0
   39.7190   32.4960   45.2150 C   0  0  0  0  0  0  0  0  0  0  0  0
   40.3850   31.3190   44.9290 C   0  0  0  0  0  0  0  0  0  0  0  0
   40.7650   30.7740   45.7970 H   0  0  0  0  0  0  0  0  0  0  0  0
   40.5710   30.8420   43.6430 C   0  0  0  0  0  0  0  0  0  0  0  0
   41.1890   29.7260   43.1740 N   0  0  0  0  0  0  0  0  0  0  0  0
   41.6510   29.0100   43.7940 H   0  0  0  0  0  0  0  0  0  0  0  0
   41.0720   29.7620   41.8360 N   0  0  0  0  0  0  0  0  0  0  0  0
   40.4010   30.8700   41.4780 C   0  0  0  0  0  0  0  0  0  0  0  0
   40.1540   31.1650   40.4480 H   0  0  0  0  0  0  0  0  0  0  0  0
   40.0560   31.5960   42.5990 C   0  0  0  0  0  0  0  0  0  0  0  0
   39.3820   32.7790   42.8210 C   0  0  0  0  0  3  0  0  0  0  0  0
  1  8  1  0  0  0  0
  1  2  2  0  0  0  0
  3 19  1  6  0  0  0
  3 15  1  0  0  0  0
  3  4  1  0  0  0  0
  4  5  1  0  0  0  0
  4 12  1  0  0  0  0
  5  6  1  0  0  0  0
  6  7  2  0  0  0  0
  8 13  1  1  0  0  0
  8  6  1  0  0  0  0
  9 14  1  6  0  0  0
  9  8  1  0  0  0  0
  9  5  1  0  0  0  0
 10  3  1  0  0  0  0
 10  9  1  0  0  0  0
 11  4  1  0  0  0  0
 15 18  1  0  0  0  0
 15 17  1  0  0  0  0
 16 15  1  0  0  0  0
 19 20  1  0  0  0  0
 19 21  1  0  0  0  0
 22 19  1  0  0  0  0
 23 22  1  0  0  0  0
 24 25  1  0  0  0  0
 24  1  1  0  0  0  0
 25 30  1  0  0  0  0
 26 31  1  0  0  0  0
 26 25  2  0  0  0  0
 27 26  1  0  0  0  0
 28 27  2  0  0  0  0
 28 29  1  0  0  0  0
 29 24  2  0  0  0  0
 32 33  1  0  0  0  0
 33 28  1  0  0  0  0
 34 33  2  0  0  0  0
 34 35  1  0  0  0  0
 36 34  1  0  0  0  0
 37 36  1  0  0  0  0
 37 38  1  0  0  0  0
 39 37  1  0  0  0  0
 40 39  2  0  0  0  0
 40 42  1  0  0  0  0
 41 40  1  0  0  0  0
 42 43  1  0  0  0  0
 42 36  2  0  0  0  0
 43 32  2  0  0  0  0
M  END
>  <minimizedAffinity>
-6.84593153

>  <minimizedRMSD>
0.425252408

$$$$
