
 OpenBabel03272504413D

 48 51  0  0  0  0  0  0  0  0999 V2000
   34.2690   29.1090   48.7510 C   0  0  0  0  0  0  0  0  0  0  0  0
   35.1230   29.0500   49.4630 H   0  0  0  0  0  0  0  0  0  0  0  0
   33.6430   29.9490   49.1790 H   0  0  0  0  0  0  0  0  0  0  0  0
   37.0230   30.2290   48.7460 Cl  0  0  0  0  0  0  0  0  0  0  0  0
   36.0110   30.0980   47.3080 C   0  0  0  0  0  0  0  0  0  0  0  0
   36.4940   30.5250   46.1220 C   0  0  0  0  0  0  0  0  0  0  0  0
   35.7140   30.4280   44.9880 C   0  0  0  0  0  0  0  0  0  0  0  0
   34.4350   29.8860   45.0930 C   0  0  0  0  0  0  0  0  0  0  0  0
   34.0080   29.4650   46.3670 C   0  0  0  0  0  0  0  0  0  0  0  0
   34.7570   29.5530   47.4790 C   0  0  0  0  0  0  0  0  0  0  0  0
   36.1260   30.7810   44.0340 H   0  0  0  0  0  0  0  0  0  0  0  0
   33.9160   29.8560   44.1640 H   0  0  0  0  0  0  0  0  0  0  0  0
   33.0530   29.1040   46.2410 H   0  0  0  0  0  0  0  0  0  0  0  0
   39.4540   32.6720   46.6130 C   0  0  0  0  0  0  0  0  0  0  0  0
   40.3770   32.0560   45.6940 C   0  0  0  0  0  0  0  0  0  0  0  0
   39.9400   30.9470   44.9630 C   0  0  0  0  0  0  0  0  0  0  0  0
   38.6740   30.4950   45.1420 N   0  0  0  0  0  0  0  0  0  0  0  0
   37.8270   31.0940   46.0120 C   0  0  0  0  0  0  0  0  0  0  0  0
   38.2210   32.1590   46.7270 N   0  0  0  0  0  0  0  0  0  0  0  0
   39.7920   33.5290   47.1780 H   0  0  0  0  0  0  0  0  0  0  0  0
   41.3570   32.5070   45.6400 H   0  0  0  0  0  0  0  0  0  0  0  0
   40.8720   30.3780   44.0800 N   0  0  0  0  0  0  0  0  0  0  0  0
   40.6890   30.8420   43.1620 H   0  0  0  0  0  0  0  0  0  0  0  0
   41.6280   29.6460   44.1930 H   0  0  0  0  0  0  0  0  0  0  0  0
   33.5140   27.8570   48.8510 C   0  0  0  0  0  0  0  0  0  0  0  0
   33.5420   27.2870   47.8930 H   0  0  0  0  0  0  0  0  0  0  0  0
   33.9420   27.1380   49.6040 H   0  0  0  0  0  0  0  0  0  0  0  0
   32.2180   28.0790   49.2380 O   0  0  0  0  0  0  0  0  0  0  0  0
   31.8240   26.5150   47.1650 O   0  0  0  0  0  0  0  0  0  0  0  0
   31.1530   27.4830   48.1070 P   0  0  2  0  0  0  0  0  0  0  0  0
   30.5850   28.8470   47.2010 O   0  0  0  0  0  0  0  0  0  0  0  0
   28.2550   29.4350   46.8800 C   0  0  0  0  0  3  0  0  0  0  0  0
   29.3600   28.6730   46.5590 C   0  0  0  0  0  0  0  0  0  0  0  0
   29.1620   27.7320   45.5660 C   0  0  0  0  0  0  0  0  0  0  0  0
   30.0040   27.0990   45.2710 H   0  0  0  0  0  0  0  0  0  0  0  0
   27.9440   27.5630   44.9320 C   0  0  0  0  0  0  0  0  0  0  0  0
   27.4590   26.7640   43.9660 N   0  0  0  0  0  0  0  0  0  0  0  0
   28.0310   26.0290   43.4680 H   0  0  0  0  0  0  0  0  0  0  0  0
   26.1820   27.0200   43.7260 N   0  0  0  0  0  0  0  0  0  0  0  0
   25.7690   28.0130   44.5370 C   0  0  0  0  0  0  0  0  0  0  0  0
   24.7730   28.4790   44.6100 H   0  0  0  0  0  0  0  0  0  0  0  0
   26.8720   28.3540   45.2930 C   0  0  0  0  0  0  0  0  0  0  0  0
   27.0120   29.3210   46.2920 C   0  0  0  0  0  3  0  0  0  0  0  0
   29.8060   26.7870   48.7650 O   0  0  0  0  0  0  0  0  0  0  0  0
   29.4160   27.4460   49.9080 C   0  0  0  0  0  0  0  0  0  0  0  0
   29.3400   26.5980   51.0110 F   0  0  0  0  0  0  0  0  0  0  0  0
   30.3220   28.4260   50.2580 F   0  0  0  0  0  0  0  0  0  0  0  0
   28.1700   28.0350   49.7240 F   0  0  0  0  0  0  0  0  0  0  0  0
  1 25  1  0  0  0  0
  1  3  1  0  0  0  0
  1  2  1  0  0  0  0
  5 10  1  0  0  0  0
  5  4  1  0  0  0  0
  6  5  2  0  0  0  0
  7  8  2  0  0  0  0
  7  6  1  0  0  0  0
  8  9  1  0  0  0  0
  9 10  2  0  0  0  0
 10  1  1  0  0  0  0
 11  7  1  0  0  0  0
 12  8  1  0  0  0  0
 13  9  1  0  0  0  0
 14 19  1  0  0  0  0
 14 20  1  0  0  0  0
 15 14  2  0  0  0  0
 16 17  2  0  0  0  0
 16 15  1  0  0  0  0
 17 18  1  0  0  0  0
 18  6  1  0  0  0  0
 18 19  2  0  0  0  0
 21 15  1  0  0  0  0
 22 24  1  0  0  0  0
 22 16  1  0  0  0  0
 23 22  1  0  0  0  0
 25 28  1  0  0  0  0
 25 27  1  0  0  0  0
 26 25  1  0  0  0  0
 30 29  2  6  0  0  0
 30 44  1  0  0  0  0
 30 28  1  0  0  0  0
 31 30  1  0  0  0  0
 33 32  1  0  0  0  0
 33 31  1  0  0  0  0
 34 33  2  0  0  0  0
 35 34  1  0  0  0  0
 36 42  2  0  0  0  0
 36 34  1  0  0  0  0
 37 36  1  0  0  0  0
 38 37  1  0  0  0  0
 39 37  1  0  0  0  0
 39 40  2  0  0  0  0
 40 41  1  0  0  0  0
 40 42  1  0  0  0  0
 42 43  1  0  0  0  0
 43 32  2  0  0  0  0
 44 45  1  0  0  0  0
 45 47  1  0  0  0  0
 45 46  1  0  0  0  0
 48 45  1  0  0  0  0
M  END
>  <minimizedAffinity>
-6.27540302

>  <minimizedRMSD>
1.69930696

$$$$
