
 OpenBabel03272504413D

 48 51  0  0  0  0  0  0  0  0999 V2000
   34.6900   29.3590   48.7580 C   0  0  0  0  0  0  0  0  0  0  0  0
   35.5860   29.3770   49.4190 H   0  0  0  0  0  0  0  0  0  0  0  0
   34.0480   30.1890   49.1800 H   0  0  0  0  0  0  0  0  0  0  0  0
   37.4550   30.4200   48.4970 Cl  0  0  0  0  0  0  0  0  0  0  0  0
   36.3270   30.2700   47.1500 C   0  0  0  0  0  0  0  0  0  0  0  0
   36.7200   30.6550   45.9170 C   0  0  0  0  0  0  0  0  0  0  0  0
   35.8480   30.5430   44.8530 C   0  0  0  0  0  0  0  0  0  0  0  0
   34.5720   30.0310   45.0770 C   0  0  0  0  0  0  0  0  0  0  0  0
   34.2420   29.6540   46.3930 C   0  0  0  0  0  0  0  0  0  0  0  0
   35.0810   29.7560   47.4380 C   0  0  0  0  0  0  0  0  0  0  0  0
   36.1870   30.8610   43.8600 H   0  0  0  0  0  0  0  0  0  0  0  0
   33.9780   29.9860   44.1940 H   0  0  0  0  0  0  0  0  0  0  0  0
   33.2730   29.3100   46.3550 H   0  0  0  0  0  0  0  0  0  0  0  0
   39.7100   32.8120   46.0240 C   0  0  0  0  0  0  0  0  0  0  0  0
   40.5880   32.0830   45.1430 C   0  0  0  0  0  0  0  0  0  0  0  0
   40.1120   30.9020   44.5660 C   0  0  0  0  0  0  0  0  0  0  0  0
   38.8530   30.4880   44.8520 N   0  0  0  0  0  0  0  0  0  0  0  0
   38.0490   31.1920   45.6830 C   0  0  0  0  0  0  0  0  0  0  0  0
   38.4810   32.3290   46.2510 N   0  0  0  0  0  0  0  0  0  0  0  0
   40.0790   33.7250   46.4700 H   0  0  0  0  0  0  0  0  0  0  0  0
   41.5670   32.5140   44.9940 H   0  0  0  0  0  0  0  0  0  0  0  0
   41.0000   30.2240   43.7160 N   0  0  0  0  0  0  0  0  0  0  0  0
   40.7790   30.5800   42.7580 H   0  0  0  0  0  0  0  0  0  0  0  0
   41.7570   29.5030   43.8800 H   0  0  0  0  0  0  0  0  0  0  0  0
   34.0060   28.0780   48.9650 C   0  0  0  0  0  0  0  0  0  0  0  0
   34.1010   27.4160   48.0740 H   0  0  0  0  0  0  0  0  0  0  0  0
   34.4490   27.4680   49.8020 H   0  0  0  0  0  0  0  0  0  0  0  0
   32.6870   28.2590   49.2890 O   0  0  0  0  0  0  0  0  0  0  0  0
   32.5030   26.4880   47.3580 O   0  0  0  0  0  0  0  0  0  0  0  0
   31.7040   27.3860   48.2700 P   0  0  2  0  0  0  0  0  0  0  0  0
   30.8450   28.5430   47.3060 O   0  0  0  0  0  0  0  0  0  0  0  0
   29.2800   27.2210   46.0090 C   0  0  0  0  0  3  0  0  0  0  0  0
   30.3660   28.0700   46.0860 C   0  0  0  0  0  0  0  0  0  0  0  0
   30.9380   28.4100   44.8750 C   0  0  0  0  0  0  0  0  0  0  0  0
   31.8030   29.0800   44.8750 H   0  0  0  0  0  0  0  0  0  0  0  0
   30.4590   27.9370   43.6660 C   0  0  0  0  0  0  0  0  0  0  0  0
   30.7880   28.0840   42.3710 N   0  0  0  0  0  0  0  0  0  0  0  0
   31.5930   28.6790   42.0320 H   0  0  0  0  0  0  0  0  0  0  0  0
   29.9780   27.3910   41.5860 N   0  0  0  0  0  0  0  0  0  0  0  0
   29.0680   26.7500   42.3450 C   0  0  0  0  0  0  0  0  0  0  0  0
   28.2460   26.0870   42.0300 H   0  0  0  0  0  0  0  0  0  0  0  0
   29.3680   27.0910   43.6480 C   0  0  0  0  0  0  0  0  0  0  0  0
   28.7490   26.7130   44.8420 C   0  0  0  0  0  3  0  0  0  0  0  0
   30.5460   26.5060   49.0550 O   0  0  0  0  0  0  0  0  0  0  0  0
   29.7540   27.3150   49.8370 C   0  0  0  0  0  0  0  0  0  0  0  0
   29.2920   26.6630   50.9790 F   0  0  0  0  0  0  0  0  0  0  0  0
   30.4540   28.4120   50.2950 F   0  0  0  0  0  0  0  0  0  0  0  0
   28.6530   27.7570   49.1120 F   0  0  0  0  0  0  0  0  0  0  0  0
  1 25  1  0  0  0  0
  1  3  1  0  0  0  0
  1  2  1  0  0  0  0
  5 10  1  0  0  0  0
  5  4  1  0  0  0  0
  6  5  2  0  0  0  0
  7  8  2  0  0  0  0
  7  6  1  0  0  0  0
  8  9  1  0  0  0  0
  9 10  2  0  0  0  0
 10  1  1  0  0  0  0
 11  7  1  0  0  0  0
 12  8  1  0  0  0  0
 13  9  1  0  0  0  0
 14 19  1  0  0  0  0
 14 20  1  0  0  0  0
 15 14  2  0  0  0  0
 16 17  2  0  0  0  0
 16 15  1  0  0  0  0
 17 18  1  0  0  0  0
 18  6  1  0  0  0  0
 18 19  2  0  0  0  0
 21 15  1  0  0  0  0
 22 24  1  0  0  0  0
 22 16  1  0  0  0  0
 23 22  1  0  0  0  0
 25 28  1  0  0  0  0
 25 27  1  0  0  0  0
 26 25  1  0  0  0  0
 30 29  2  6  0  0  0
 30 44  1  0  0  0  0
 30 28  1  0  0  0  0
 31 30  1  0  0  0  0
 32 33  1  0  0  0  0
 33 31  1  0  0  0  0
 34 35  1  0  0  0  0
 34 33  2  0  0  0  0
 36 34  1  0  0  0  0
 37 36  1  0  0  0  0
 38 37  1  0  0  0  0
 39 40  2  0  0  0  0
 39 37  1  0  0  0  0
 40 42  1  0  0  0  0
 41 40  1  0  0  0  0
 42 36  2  0  0  0  0
 42 43  1  0  0  0  0
 43 32  2  0  0  0  0
 44 45  1  0  0  0  0
 45 47  1  0  0  0  0
 45 46  1  0  0  0  0
 48 45  1  0  0  0  0
M  END
>  <minimizedAffinity>
-5.71032429

>  <minimizedRMSD>
0.367497474

$$$$
