
 OpenBabel03272509493D

 36 39  0  0  0  0  0  0  0  0999 V2000
   37.3300   30.1300   51.3350 C   0  0  0  0  0  0  0  0  0  0  0  0
   37.8430   30.7300   50.1560 C   0  0  0  0  0  0  0  0  0  0  0  0
   37.1900   30.5090   48.9620 C   0  0  0  0  0  0  0  0  0  0  0  0
   36.0850   29.7160   49.0300 N   0  0  0  0  0  0  0  0  0  0  0  0
   35.6080   29.1560   50.1350 C   0  0  0  0  0  0  0  0  0  0  0  0
   36.2410   29.3690   51.3010 N   0  0  0  0  0  0  0  0  0  0  0  0
   37.8340   30.2950   52.2830 H   0  0  0  0  0  0  0  0  0  0  0  0
   38.7130   31.3340   50.2050 H   0  0  0  0  0  0  0  0  0  0  0  0
   37.0790   30.7110   46.4890 C   0  0  0  0  0  3  0  0  0  0  0  0
   37.6310   31.0760   47.6950 C   0  0  0  0  0  0  0  0  0  0  0  0
   38.6410   32.0140   47.7090 C   0  0  0  0  0  0  0  0  0  0  0  0
   39.0830   32.3060   48.6690 H   0  0  0  0  0  0  0  0  0  0  0  0
   39.1210   32.6020   46.5560 C   0  0  0  0  0  0  0  0  0  0  0  0
   40.0650   33.5190   46.2470 N   0  0  0  0  0  0  0  0  0  0  0  0
   40.6520   33.9730   46.9860 H   0  0  0  0  0  0  0  0  0  0  0  0
   40.0710   33.6860   44.9360 N   0  0  0  0  0  0  0  0  0  0  0  0
   39.1420   32.8910   44.3750 C   0  0  0  0  0  0  0  0  0  0  0  0
   38.9220   32.8190   43.3060 H   0  0  0  0  0  0  0  0  0  0  0  0
   38.5260   32.1940   45.3870 C   0  0  0  0  0  0  0  0  0  0  0  0
   37.5140   31.2640   45.2940 C   0  0  0  0  0  3  0  0  0  0  0  0
   34.4820   28.4070   49.9070 O   0  0  0  0  0  0  0  0  0  0  0  0
   33.7380   28.6190   48.7210 C   0  0  0  0  0  0  0  0  0  0  0  0
   34.4460   28.8340   47.8930 H   0  0  0  0  0  0  0  0  0  0  0  0
   33.1670   29.5730   48.8590 H   0  0  0  0  0  0  0  0  0  0  0  0
   32.8390   27.4580   48.4370 C   0  0  0  0  0  0  0  0  0  0  0  0
   33.0040   26.6010   49.1310 H   0  0  0  0  0  0  0  0  0  0  0  0
   33.1030   27.0790   47.4280 H   0  0  0  0  0  0  0  0  0  0  0  0
   31.4060   27.8460   48.3850 C   0  0  0  0  0  0  0  0  0  0  0  0
   30.6810   27.7430   49.5560 C   0  0  0  0  0  0  0  0  0  0  0  0
   29.3490   28.0660   49.6580 C   0  0  0  0  0  0  0  0  0  0  0  0
   28.7250   28.5040   48.5660 N   0  0  0  0  0  0  0  0  0  0  0  0
   29.4290   28.6080   47.4120 C   0  0  0  0  0  0  0  0  0  0  0  0
   30.7390   28.2920   47.3060 N   0  0  0  0  0  0  0  0  0  0  0  0
   31.1260   27.3900   50.4990 H   0  0  0  0  0  0  0  0  0  0  0  0
   28.7810   27.9850   50.5750 H   0  0  0  0  0  0  0  0  0  0  0  0
   28.9280   28.9680   46.5020 H   0  0  0  0  0  0  0  0  0  0  0  0
  1  7  1  0  0  0  0
  2  8  1  0  0  0  0
  2  1  2  0  0  0  0
  3  4  2  0  0  0  0
  3  2  1  0  0  0  0
  4  5  1  0  0  0  0
  5  6  2  0  0  0  0
  6  1  1  0  0  0  0
  9 10  1  0  0  0  0
 10 11  2  0  0  0  0
 10  3  1  0  0  0  0
 11 12  1  0  0  0  0
 13 11  1  0  0  0  0
 14 13  1  0  0  0  0
 14 15  1  0  0  0  0
 16 14  1  0  0  0  0
 17 16  2  0  0  0  0
 17 19  1  0  0  0  0
 18 17  1  0  0  0  0
 19 13  2  0  0  0  0
 20 19  1  0  0  0  0
 20  9  2  0  0  0  0
 21  5  1  0  0  0  0
 22 24  1  0  0  0  0
 22 21  1  0  0  0  0
 23 22  1  0  0  0  0
 25 22  1  0  0  0  0
 25 26  1  0  0  0  0
 27 25  1  0  0  0  0
 28 25  1  0  0  0  0
 28 29  1  0  0  0  0
 29 30  2  0  0  0  0
 29 34  1  0  0  0  0
 30 35  1  0  0  0  0
 31 30  1  0  0  0  0
 32 31  2  0  0  0  0
 33 32  1  0  0  0  0
 33 28  2  0  0  0  0
 36 32  1  0  0  0  0
M  END
>  <minimizedAffinity>
-6.89695978

>  <minimizedRMSD>
0.583860993

$$$$
