
 OpenBabel03272504423D

 48 51  0  0  0  0  0  0  0  0999 V2000
   34.6990   29.3560   48.7520 C   0  0  0  0  0  0  0  0  0  0  0  0
   35.5950   29.3810   49.4120 H   0  0  0  0  0  0  0  0  0  0  0  0
   34.0530   30.1830   49.1740 H   0  0  0  0  0  0  0  0  0  0  0  0
   37.4630   30.4190   48.4850 Cl  0  0  0  0  0  0  0  0  0  0  0  0
   36.3310   30.2700   47.1400 C   0  0  0  0  0  0  0  0  0  0  0  0
   36.7210   30.6550   45.9070 C   0  0  0  0  0  0  0  0  0  0  0  0
   35.8470   30.5440   44.8450 C   0  0  0  0  0  0  0  0  0  0  0  0
   34.5710   30.0320   45.0720 C   0  0  0  0  0  0  0  0  0  0  0  0
   34.2450   29.6530   46.3880 C   0  0  0  0  0  0  0  0  0  0  0  0
   35.0860   29.7550   47.4310 C   0  0  0  0  0  0  0  0  0  0  0  0
   36.1830   30.8630   43.8510 H   0  0  0  0  0  0  0  0  0  0  0  0
   33.9750   29.9870   44.1910 H   0  0  0  0  0  0  0  0  0  0  0  0
   33.2760   29.3090   46.3530 H   0  0  0  0  0  0  0  0  0  0  0  0
   39.7090   32.8170   46.0030 C   0  0  0  0  0  0  0  0  0  0  0  0
   40.5870   32.0850   45.1250 C   0  0  0  0  0  0  0  0  0  0  0  0
   40.1130   30.9000   44.5540 C   0  0  0  0  0  0  0  0  0  0  0  0
   38.8540   30.4860   44.8420 N   0  0  0  0  0  0  0  0  0  0  0  0
   38.0500   31.1940   45.6700 C   0  0  0  0  0  0  0  0  0  0  0  0
   38.4800   32.3340   46.2320 N   0  0  0  0  0  0  0  0  0  0  0  0
   40.0760   33.7330   46.4440 H   0  0  0  0  0  0  0  0  0  0  0  0
   41.5660   32.5160   44.9740 H   0  0  0  0  0  0  0  0  0  0  0  0
   41.0010   30.2190   43.7070 N   0  0  0  0  0  0  0  0  0  0  0  0
   40.7800   30.5700   42.7480 H   0  0  0  0  0  0  0  0  0  0  0  0
   41.7590   29.4990   43.8750 H   0  0  0  0  0  0  0  0  0  0  0  0
   34.0220   28.0720   48.9610 C   0  0  0  0  0  0  0  0  0  0  0  0
   34.1140   27.4130   48.0660 H   0  0  0  0  0  0  0  0  0  0  0  0
   34.4750   27.4610   49.7920 H   0  0  0  0  0  0  0  0  0  0  0  0
   32.7050   28.2450   49.2960 O   0  0  0  0  0  0  0  0  0  0  0  0
   32.5080   26.5050   47.3390 O   0  0  0  0  0  0  0  0  0  0  0  0
   31.7160   27.3990   48.2600 P   0  0  2  0  0  0  0  0  0  0  0  0
   30.8740   28.5800   47.3110 O   0  0  0  0  0  0  0  0  0  0  0  0
   30.9920   28.4830   44.8910 C   0  0  0  0  0  3  0  0  0  0  0  0
   30.3930   28.1300   46.0820 C   0  0  0  0  0  0  0  0  0  0  0  0
   29.2910   27.3030   45.9690 C   0  0  0  0  0  0  0  0  0  0  0  0
   28.7750   26.9910   46.8830 H   0  0  0  0  0  0  0  0  0  0  0  0
   28.8150   26.8590   44.7480 C   0  0  0  0  0  0  0  0  0  0  0  0
   27.8050   26.0770   44.3290 N   0  0  0  0  0  0  0  0  0  0  0  0
   27.1110   25.6140   44.9790 H   0  0  0  0  0  0  0  0  0  0  0  0
   27.7940   25.9700   43.0100 N   0  0  0  0  0  0  0  0  0  0  0  0
   28.8140   26.6860   42.4980 C   0  0  0  0  0  0  0  0  0  0  0  0
   29.1040   26.8220   41.4450 H   0  0  0  0  0  0  0  0  0  0  0  0
   29.4540   27.2440   43.5870 C   0  0  0  0  0  0  0  0  0  0  0  0
   30.5740   28.0780   43.6390 C   0  0  0  0  0  3  0  0  0  0  0  0
   30.5450   26.5210   49.0280 O   0  0  0  0  0  0  0  0  0  0  0  0
   29.7650   27.3270   49.8250 C   0  0  0  0  0  0  0  0  0  0  0  0
   29.2990   26.6630   50.9590 F   0  0  0  0  0  0  0  0  0  0  0  0
   30.4780   28.4090   50.2970 F   0  0  0  0  0  0  0  0  0  0  0  0
   28.6660   27.7920   49.1110 F   0  0  0  0  0  0  0  0  0  0  0  0
  1 25  1  0  0  0  0
  1  3  1  0  0  0  0
  1  2  1  0  0  0  0
  5 10  1  0  0  0  0
  5  4  1  0  0  0  0
  6  5  2  0  0  0  0
  7  8  2  0  0  0  0
  7  6  1  0  0  0  0
  8  9  1  0  0  0  0
  9 10  2  0  0  0  0
 10  1  1  0  0  0  0
 11  7  1  0  0  0  0
 12  8  1  0  0  0  0
 13  9  1  0  0  0  0
 14 19  1  0  0  0  0
 14 20  1  0  0  0  0
 15 14  2  0  0  0  0
 16 17  2  0  0  0  0
 16 15  1  0  0  0  0
 17 18  1  0  0  0  0
 18  6  1  0  0  0  0
 18 19  2  0  0  0  0
 21 15  1  0  0  0  0
 22 24  1  0  0  0  0
 22 16  1  0  0  0  0
 23 22  1  0  0  0  0
 25 28  1  0  0  0  0
 25 27  1  0  0  0  0
 26 25  1  0  0  0  0
 30 29  2  6  0  0  0
 30 44  1  0  0  0  0
 30 28  1  0  0  0  0
 31 30  1  0  0  0  0
 32 33  1  0  0  0  0
 33 31  1  0  0  0  0
 34 33  2  0  0  0  0
 34 35  1  0  0  0  0
 36 34  1  0  0  0  0
 37 36  1  0  0  0  0
 37 38  1  0  0  0  0
 39 37  1  0  0  0  0
 40 39  2  0  0  0  0
 40 42  1  0  0  0  0
 41 40  1  0  0  0  0
 42 43  1  0  0  0  0
 42 36  2  0  0  0  0
 43 32  2  0  0  0  0
 44 45  1  0  0  0  0
 45 47  1  0  0  0  0
 45 46  1  0  0  0  0
 48 45  1  0  0  0  0
M  END
>  <minimizedAffinity>
-5.82350445

>  <minimizedRMSD>
0.306223065

$$$$
