
 OpenBabel03262521523D

 26 28  0  0  0  0  0  0  0  0999 V2000
   34.5400   29.2960   48.8470 C   0  0  0  0  0  0  0  0  0  0  0  0
   33.8150   29.6840   49.6050 H   0  0  0  0  0  0  0  0  0  0  0  0
   34.5560   30.0190   48.0060 H   0  0  0  0  0  0  0  0  0  0  0  0
   36.1930   29.1490   49.5480 S   0  0  0  0  0  0  0  0  0  0  0  0
   37.1640   30.5530   49.0080 C   0  0  0  0  0  0  0  0  0  0  0  0
   37.0030   31.6760   49.8000 C   0  0  0  0  0  0  0  0  0  0  0  0
   37.7350   32.8210   49.4380 C   0  0  0  0  0  0  0  0  0  0  0  0
   38.5540   32.7580   48.3400 N   0  0  0  0  0  0  0  0  0  0  0  0
   38.6620   31.6340   47.6180 C   0  0  0  0  0  0  0  0  0  0  0  0
   37.9730   30.5390   47.9480 N   0  0  0  0  0  0  0  0  0  0  0  0
   36.3700   31.7720   50.6730 H   0  0  0  0  0  0  0  0  0  0  0  0
   37.6540   33.7250   50.0100 H   0  0  0  0  0  0  0  0  0  0  0  0
   39.3240   31.6460   46.7610 H   0  0  0  0  0  0  0  0  0  0  0  0
   33.8820   27.7090   48.2710 S   0  0  0  0  0  0  0  0  0  0  0  0
   31.6330   28.5030   46.9170 C   0  0  0  0  0  3  0  0  0  0  0  0
   32.1160   27.9100   48.0800 C   0  0  0  0  0  0  0  0  0  0  0  0
   31.1840   27.5050   49.0330 C   0  0  0  0  0  0  0  0  0  0  0  0
   31.5600   27.0500   49.9220 H   0  0  0  0  0  0  0  0  0  0  0  0
   29.8280   27.6890   48.8240 C   0  0  0  0  0  0  0  0  0  0  0  0
   28.7680   27.3700   49.6130 N   0  0  0  0  0  0  0  0  0  0  0  0
   28.7460   26.9160   50.5540 H   0  0  0  0  0  0  0  0  0  0  0  0
   27.6700   27.7520   48.9640 N   0  0  0  0  0  0  0  0  0  0  0  0
   28.0350   28.3000   47.7910 C   0  0  0  0  0  0  0  0  0  0  0  0
   27.3050   28.6930   47.0720 H   0  0  0  0  0  0  0  0  0  0  0  0
   29.4120   28.2830   47.6530 C   0  0  0  0  0  0  0  0  0  0  0  0
   30.2740   28.7040   46.6760 C   0  0  0  0  0  3  0  0  0  0  0  0
  1  4  1  0  0  0  0
  1  2  1  0  0  0  0
  3  1  1  0  0  0  0
  5  4  1  0  0  0  0
  5  6  1  0  0  0  0
  6 11  1  0  0  0  0
  7  6  2  0  0  0  0
  7 12  1  0  0  0  0
  8  7  1  0  0  0  0
  9 10  1  0  0  0  0
  9  8  2  0  0  0  0
 10  5  2  0  0  0  0
 13  9  1  0  0  0  0
 14  1  1  0  0  0  0
 15 16  1  0  0  0  0
 16 14  1  0  0  0  0
 16 17  2  0  0  0  0
 17 18  1  0  0  0  0
 19 17  1  0  0  0  0
 19 20  1  0  0  0  0
 20 21  1  0  0  0  0
 22 20  1  0  0  0  0
 23 22  2  0  0  0  0
 24 23  1  0  0  0  0
 25 23  1  0  0  0  0
 25 19  2  0  0  0  0
 26 15  2  0  0  0  0
 26 25  1  0  0  0  0
M  END
>  <minimizedAffinity>
-4.71149778

>  <minimizedRMSD>
2.05720949

$$$$
