
 OpenBabel03272509493D

 36 39  0  0  0  0  0  0  0  0999 V2000
   37.1810   30.2290   51.3840 C   0  0  0  0  0  0  0  0  0  0  0  0
   37.9620   30.8890   50.4010 C   0  0  0  0  0  0  0  0  0  0  0  0
   37.7130   30.6250   49.0710 C   0  0  0  0  0  0  0  0  0  0  0  0
   36.7140   29.7340   48.8210 N   0  0  0  0  0  0  0  0  0  0  0  0
   35.9850   29.1180   49.7440 C   0  0  0  0  0  0  0  0  0  0  0  0
   36.2250   29.3720   51.0410 N   0  0  0  0  0  0  0  0  0  0  0  0
   37.3660   30.4270   52.4370 H   0  0  0  0  0  0  0  0  0  0  0  0
   38.7200   31.5690   50.6960 H   0  0  0  0  0  0  0  0  0  0  0  0
   38.8700   32.5580   48.0230 C   0  0  0  0  0  3  0  0  0  0  0  0
   38.4540   31.2470   47.9820 C   0  0  0  0  0  0  0  0  0  0  0  0
   38.7480   30.4880   46.8690 C   0  0  0  0  0  0  0  0  0  0  0  0
   38.4180   29.4430   46.8330 H   0  0  0  0  0  0  0  0  0  0  0  0
   39.4450   30.9950   45.7910 C   0  0  0  0  0  0  0  0  0  0  0  0
   39.8760   30.5270   44.5980 N   0  0  0  0  0  0  0  0  0  0  0  0
   39.6940   29.5410   44.2990 H   0  0  0  0  0  0  0  0  0  0  0  0
   40.5090   31.5040   43.9700 N   0  0  0  0  0  0  0  0  0  0  0  0
   40.5020   32.6100   44.7340 C   0  0  0  0  0  0  0  0  0  0  0  0
   40.9510   33.5720   44.4720 H   0  0  0  0  0  0  0  0  0  0  0  0
   39.8320   32.3100   45.8960 C   0  0  0  0  0  0  0  0  0  0  0  0
   39.5750   33.1280   46.9740 C   0  0  0  0  0  3  0  0  0  0  0  0
   35.0490   28.2730   49.2050 O   0  0  0  0  0  0  0  0  0  0  0  0
   34.2170   28.7390   48.1600 C   0  0  0  0  0  0  0  0  0  0  0  0
   34.8550   29.2030   47.3780 H   0  0  0  0  0  0  0  0  0  0  0  0
   33.6150   29.5890   48.5740 H   0  0  0  0  0  0  0  0  0  0  0  0
   33.3510   27.6390   47.6320 C   0  0  0  0  0  0  0  0  0  0  0  0
   33.6130   26.6410   48.0530 H   0  0  0  0  0  0  0  0  0  0  0  0
   33.5470   27.5630   46.5420 H   0  0  0  0  0  0  0  0  0  0  0  0
   31.9030   27.9310   47.7850 C   0  0  0  0  0  0  0  0  0  0  0  0
   31.3080   27.5670   48.9780 C   0  0  0  0  0  0  0  0  0  0  0  0
   29.9790   27.7730   49.2610 C   0  0  0  0  0  0  0  0  0  0  0  0
   29.2240   28.3570   48.3320 N   0  0  0  0  0  0  0  0  0  0  0  0
   29.7990   28.7170   47.1580 C   0  0  0  0  0  0  0  0  0  0  0  0
   31.1060   28.5170   46.8750 N   0  0  0  0  0  0  0  0  0  0  0  0
   31.8660   27.0800   49.7930 H   0  0  0  0  0  0  0  0  0  0  0  0
   29.5130   27.4880   50.1940 H   0  0  0  0  0  0  0  0  0  0  0  0
   29.1900   29.2010   46.3810 H   0  0  0  0  0  0  0  0  0  0  0  0
  1  7  1  0  0  0  0
  2  8  1  0  0  0  0
  2  1  2  0  0  0  0
  3  2  1  0  0  0  0
  4  3  2  0  0  0  0
  4  5  1  0  0  0  0
  5  6  2  0  0  0  0
  6  1  1  0  0  0  0
 10  9  1  0  0  0  0
 10  3  1  0  0  0  0
 11 10  2  0  0  0  0
 12 11  1  0  0  0  0
 13 19  2  0  0  0  0
 13 11  1  0  0  0  0
 14 13  1  0  0  0  0
 15 14  1  0  0  0  0
 16 14  1  0  0  0  0
 16 17  2  0  0  0  0
 17 19  1  0  0  0  0
 18 17  1  0  0  0  0
 19 20  1  0  0  0  0
 20  9  2  0  0  0  0
 21  5  1  0  0  0  0
 22 24  1  0  0  0  0
 22 21  1  0  0  0  0
 23 22  1  0  0  0  0
 25 28  1  0  0  0  0
 25 26  1  0  0  0  0
 25 22  1  0  0  0  0
 27 25  1  0  0  0  0
 28 29  1  0  0  0  0
 29 30  2  0  0  0  0
 29 34  1  0  0  0  0
 30 35  1  0  0  0  0
 31 30  1  0  0  0  0
 32 31  2  0  0  0  0
 33 32  1  0  0  0  0
 33 28  2  0  0  0  0
 36 32  1  0  0  0  0
M  END
>  <minimizedAffinity>
-6.63186359

>  <minimizedRMSD>
0.939277709

$$$$
