
 OpenBabel03262521523D

 26 28  0  0  0  0  0  0  0  0999 V2000
   32.4420   28.3640   47.4150 C   0  0  0  0  0  0  0  0  0  0  0  0
   32.9720   28.5150   46.4420 H   0  0  0  0  0  0  0  0  0  0  0  0
   32.1270   29.3640   47.7780 H   0  0  0  0  0  0  0  0  0  0  0  0
   30.9930   27.3130   47.2090 S   0  0  0  0  0  0  0  0  0  0  0  0
   29.8500   27.6560   48.5440 C   0  0  0  0  0  0  0  0  0  0  0  0
   28.9840   28.7020   48.2780 C   0  0  0  0  0  0  0  0  0  0  0  0
   28.0550   29.0300   49.2800 C   0  0  0  0  0  0  0  0  0  0  0  0
   28.0600   28.3070   50.4450 N   0  0  0  0  0  0  0  0  0  0  0  0
   28.9300   27.3060   50.6350 C   0  0  0  0  0  0  0  0  0  0  0  0
   29.8190   26.9810   49.6930 N   0  0  0  0  0  0  0  0  0  0  0  0
   28.9430   29.2990   47.3750 H   0  0  0  0  0  0  0  0  0  0  0  0
   27.3560   29.8320   49.1350 H   0  0  0  0  0  0  0  0  0  0  0  0
   28.8860   26.7710   51.5760 H   0  0  0  0  0  0  0  0  0  0  0  0
   33.6590   27.6600   48.5590 S   0  0  0  0  0  0  0  0  0  0  0  0
   35.2150   29.7260   47.6440 C   0  0  0  0  0  3  0  0  0  0  0  0
   34.9960   28.8370   48.6940 C   0  0  0  0  0  0  0  0  0  0  0  0
   35.8420   28.9250   49.7980 C   0  0  0  0  0  0  0  0  0  0  0  0
   35.6700   28.2410   50.6000 H   0  0  0  0  0  0  0  0  0  0  0  0
   36.8610   29.8600   49.8410 C   0  0  0  0  0  0  0  0  0  0  0  0
   37.7830   30.1080   50.8080 N   0  0  0  0  0  0  0  0  0  0  0  0
   37.9250   29.6430   51.7330 H   0  0  0  0  0  0  0  0  0  0  0  0
   38.5440   31.1100   50.3730 N   0  0  0  0  0  0  0  0  0  0  0  0
   38.1070   31.4840   49.1570 C   0  0  0  0  0  0  0  0  0  0  0  0
   38.5740   32.2960   48.5860 H   0  0  0  0  0  0  0  0  0  0  0  0
   37.0270   30.7110   48.7710 C   0  0  0  0  0  0  0  0  0  0  0  0
   36.2310   30.6800   47.6550 C   0  0  0  0  0  3  0  0  0  0  0  0
  1  3  1  0  0  0  0
  1 14  1  0  0  0  0
  2  1  1  0  0  0  0
  4  1  1  0  0  0  0
  4  5  1  0  0  0  0
  5 10  1  0  0  0  0
  6  5  2  0  0  0  0
  6  7  1  0  0  0  0
  7  8  2  0  0  0  0
  8  9  1  0  0  0  0
  9 13  1  0  0  0  0
 10  9  2  0  0  0  0
 11  6  1  0  0  0  0
 12  7  1  0  0  0  0
 14 16  1  0  0  0  0
 15 26  2  0  0  0  0
 15 16  1  0  0  0  0
 16 17  2  0  0  0  0
 17 19  1  0  0  0  0
 17 18  1  0  0  0  0
 19 20  1  0  0  0  0
 20 21  1  0  0  0  0
 22 20  1  0  0  0  0
 23 22  2  0  0  0  0
 24 23  1  0  0  0  0
 25 23  1  0  0  0  0
 25 19  2  0  0  0  0
 26 25  1  0  0  0  0
M  END
>  <minimizedAffinity>
-5.37636423

>  <minimizedRMSD>
7.9581337

$$$$
