
 OpenBabel03272506463D

 45 49  0  0  1  0  0  0  0  0999 V2000
   31.2940   27.0620   45.7310 O   0  0  0  0  0  0  0  0  0  0  0  0
   32.1870   28.4780   47.4800 C   0  0  2  0  0  0  0  0  0  0  0  0
   33.4440   28.2630   48.2670 C   0  0  1  0  0  0  0  0  0  0  0  0
   33.8040   26.9550   48.1390 O   0  0  0  0  0  0  0  0  0  0  0  0
   33.0670   26.3780   47.1090 C   0  0  0  0  0  0  0  0  0  0  0  0
   32.4670   27.4950   46.2980 C   0  0  1  0  0  0  0  0  0  0  0  0
   31.2550   28.2320   47.9770 H   0  0  0  0  0  0  0  0  0  0  0  0
   33.3270   28.6110   49.3110 H   0  0  0  0  0  0  0  0  0  0  0  0
   32.3810   25.6760   47.5530 H   0  0  0  0  0  0  0  0  0  0  0  0
   33.8360   25.8910   46.4510 H   0  0  0  0  0  0  0  0  0  0  0  0
   33.1750   28.0270   45.6690 H   0  0  0  0  0  0  0  0  0  0  0  0
   32.1320   29.7960   46.9800 O   0  0  0  0  0  0  0  0  0  0  0  0
   32.8810   29.8820   46.3360 H   0  0  0  0  0  0  0  0  0  0  0  0
   34.7600   29.2960   47.5000 S   0  0  0  0  0  0  0  0  0  0  0  0
   37.1250   29.2940   50.6820 C   0  0  0  0  0  0  0  0  0  0  0  0
   37.6070   30.6030   50.7670 C   0  0  0  0  0  0  0  0  0  0  0  0
   37.1910   31.5170   49.8120 C   0  0  0  0  0  0  0  0  0  0  0  0
   36.3320   31.1010   48.8350 N   0  0  0  0  0  0  0  0  0  0  0  0
   35.8860   29.8270   48.7860 C   0  0  0  0  0  0  0  0  0  0  0  0
   36.2750   28.9060   49.7050 N   0  0  0  0  0  0  0  0  0  0  0  0
   37.3930   28.5140   51.3800 H   0  0  0  0  0  0  0  0  0  0  0  0
   38.2860   30.8640   51.5680 H   0  0  0  0  0  0  0  0  0  0  0  0
   37.5310   32.5290   49.8330 H   0  0  0  0  0  0  0  0  0  0  0  0
   30.1100   29.3810   44.3570 Cl  0  0  0  0  0  0  0  0  0  0  0  0
   29.4130   28.3840   45.6110 C   0  0  0  0  0  0  0  0  0  0  0  0
   30.0640   27.3120   46.1720 C   0  0  0  0  0  0  0  0  0  0  0  0
   29.3930   26.5740   47.1510 C   0  0  0  0  0  0  0  0  0  0  0  0
   28.1150   26.9190   47.5360 C   0  0  0  0  0  0  0  0  0  0  0  0
   27.4500   27.9970   46.9770 C   0  0  0  0  0  0  0  0  0  0  0  0
   28.1160   28.7330   46.0030 C   0  0  0  0  0  0  0  0  0  0  0  0
   29.8250   25.7180   47.6400 H   0  0  0  0  0  0  0  0  0  0  0  0
   27.6020   26.3520   48.2870 H   0  0  0  0  0  0  0  0  0  0  0  0
   26.4490   28.2630   47.2820 H   0  0  0  0  0  0  0  0  0  0  0  0
   26.9690   29.6730   44.1170 C   0  0  0  0  0  3  0  0  0  0  0  0
   27.4000   29.8450   45.4380 C   0  0  0  0  0  0  0  0  0  0  0  0
   27.0880   31.0500   46.0220 C   0  0  0  0  0  0  0  0  0  0  0  0
   27.4190   31.1770   47.0240 H   0  0  0  0  0  0  0  0  0  0  0  0
   26.3910   32.0380   45.3590 C   0  0  0  0  0  0  0  0  0  0  0  0
   26.0050   33.2590   45.7710 N   0  0  0  0  0  0  0  0  0  0  0  0
   26.2020   33.6420   46.7260 H   0  0  0  0  0  0  0  0  0  0  0  0
   25.3680   33.8020   44.7470 N   0  0  0  0  0  0  0  0  0  0  0  0
   25.3330   32.9760   43.6970 C   0  0  0  0  0  0  0  0  0  0  0  0
   24.8920   33.1250   42.7230 H   0  0  0  0  0  0  0  0  0  0  0  0
   25.9890   31.8180   44.0580 C   0  0  0  0  0  0  0  0  0  0  0  0
   26.2700   30.6290   43.4100 C   0  0  0  0  0  3  0  0  0  0  0  0
  1 26  1  0  0  0  0
  1  6  1  0  0  0  0
  2  7  1  1  0  0  0
  2  3  1  0  0  0  0
  3  8  1  1  0  0  0
  4  3  1  0  0  0  0
  5  9  1  0  0  0  0
  5  4  1  0  0  0  0
  6 11  1  6  0  0  0
  6  5  1  0  0  0  0
  6  2  1  0  0  0  0
 10  5  1  0  0  0  0
 12  2  1  0  0  0  0
 13 12  1  0  0  0  0
 14  3  1  0  0  0  0
 14 19  1  0  0  0  0
 15 16  1  0  0  0  0
 15 21  1  0  0  0  0
 16 22  1  0  0  0  0
 17 23  1  0  0  0  0
 17 16  2  0  0  0  0
 18 17  1  0  0  0  0
 19 18  2  0  0  0  0
 19 20  1  0  0  0  0
 20 15  2  0  0  0  0
 24 25  1  0  0  0  0
 25 30  2  0  0  0  0
 25 26  1  0  0  0  0
 26 27  2  0  0  0  0
 27 28  1  0  0  0  0
 27 31  1  0  0  0  0
 28 32  1  0  0  0  0
 29 33  1  0  0  0  0
 29 28  2  0  0  0  0
 30 29  1  0  0  0  0
 34 35  1  0  0  0  0
 35 30  1  0  0  0  0
 35 36  2  0  0  0  0
 36 37  1  0  0  0  0
 38 39  1  0  0  0  0
 38 36  1  0  0  0  0
 39 40  1  0  0  0  0
 41 39  1  0  0  0  0
 42 44  1  0  0  0  0
 42 41  2  0  0  0  0
 43 42  1  0  0  0  0
 44 38  2  0  0  0  0
 45 44  1  0  0  0  0
 45 34  2  0  0  0  0
M  END
>  <minimizedAffinity>
-6.1405673

>  <minimizedRMSD>
0.545278788

$$$$
