
 OpenBabel03262522053D

 43 47  0  0  1  0  0  0  0  0999 V2000
   37.7310   31.8190   49.6730 C   0  0  0  0  0  0  0  0  0  0  0  0
   36.7230   32.3200   50.2650 O   0  0  0  0  0  0  0  0  0  0  0  0
   34.5040   29.0870   48.7500 C   0  0  2  0  0  0  0  0  0  0  0  0
   35.1540   28.3560   49.8750 C   0  0  0  0  0  0  0  0  0  0  0  0
   36.2900   29.1380   50.3640 N   0  0  0  0  0  0  0  0  0  0  0  0
   37.2420   29.8750   51.1460 C   0  0  0  0  0  0  0  0  0  0  0  0
   37.4590   30.0650   52.3560 O   0  0  0  0  0  0  0  0  0  0  0  0
   37.9580   30.3930   50.0130 C   0  0  1  0  0  0  0  0  0  0  0  0
   37.1270   29.3860   49.2280 C   0  0  2  0  0  0  0  0  0  0  0  0
   35.9090   30.0890   48.0930 S   0  0  0  0  0  0  0  0  0  0  0  0
   35.4010   27.3050   49.6860 H   0  0  0  0  0  0  0  0  0  0  0  0
   34.4090   28.3550   50.7230 H   0  0  0  0  0  0  0  0  0  0  0  0
   39.0180   30.0760   49.8850 H   0  0  0  0  0  0  0  0  0  0  0  0
   37.6760   28.5150   48.8310 H   0  0  0  0  0  0  0  0  0  0  0  0
   33.2990   29.8970   49.0810 C   0  0  0  0  0  0  0  0  0  0  0  0
   32.5390   29.7640   48.2660 H   0  0  0  0  0  0  0  0  0  0  0  0
   32.8950   29.6210   50.0690 H   0  0  0  0  0  0  0  0  0  0  0  0
   33.5840   30.9710   49.1450 H   0  0  0  0  0  0  0  0  0  0  0  0
   34.2170   28.0730   47.6240 C   0  0  0  0  0  0  0  0  0  0  0  0
   34.9250   27.2310   47.6810 H   0  0  0  0  0  0  0  0  0  0  0  0
   33.1860   27.7120   47.7790 H   0  0  0  0  0  0  0  0  0  0  0  0
   34.2510   28.7470   46.4040 O   0  0  0  0  0  0  0  0  0  0  0  0
   33.9920   28.1070   45.6990 H   0  0  0  0  0  0  0  0  0  0  0  0
   38.5570   32.5660   48.7770 C   0  0  0  0  0  0  0  0  0  0  0  0
   39.1270   33.7310   49.2350 C   0  0  0  0  0  0  0  0  0  0  0  0
   39.9460   34.4670   48.3390 C   0  0  0  0  0  0  0  0  0  0  0  0
   40.1120   33.9670   47.0680 N   0  0  0  0  0  0  0  0  0  0  0  0
   39.5430   32.8430   46.6710 C   0  0  0  0  0  0  0  0  0  0  0  0
   38.7660   32.1330   47.5080 N   0  0  0  0  0  0  0  0  0  0  0  0
   38.9710   34.0960   50.2520 H   0  0  0  0  0  0  0  0  0  0  0  0
   40.4200   35.3910   48.6480 H   0  0  0  0  0  0  0  0  0  0  0  0
   40.5000   31.2180   45.0550 C   0  0  0  0  0  3  0  0  0  0  0  0
   39.7470   32.3460   45.3140 C   0  0  0  0  0  0  0  0  0  0  0  0
   39.1870   32.9910   44.2280 C   0  0  0  0  0  0  0  0  0  0  0  0
   38.5960   33.8810   44.4660 H   0  0  0  0  0  0  0  0  0  0  0  0
   39.3470   32.5640   42.9220 C   0  0  0  0  0  0  0  0  0  0  0  0
   38.8830   33.0600   41.7440 N   0  0  0  0  0  0  0  0  0  0  0  0
   38.2800   33.9210   41.6720 H   0  0  0  0  0  0  0  0  0  0  0  0
   39.3450   32.2470   40.7820 N   0  0  0  0  0  0  0  0  0  0  0  0
   40.0790   31.2690   41.3390 C   0  0  0  0  0  0  0  0  0  0  0  0
   40.5850   30.4560   40.7960 H   0  0  0  0  0  0  0  0  0  0  0  0
   40.1130   31.4260   42.7090 C   0  0  0  0  0  0  0  0  0  0  0  0
   40.6960   30.7390   43.7540 C   0  0  0  0  0  3  0  0  0  0  0  0
  1  8  1  0  0  0  0
  1  2  2  0  0  0  0
  3 19  1  6  0  0  0
  3 15  1  0  0  0  0
  3  4  1  0  0  0  0
  4  5  1  0  0  0  0
  4 12  1  0  0  0  0
  5  6  1  0  0  0  0
  6  7  2  0  0  0  0
  8 13  1  1  0  0  0
  8  6  1  0  0  0  0
  9 14  1  6  0  0  0
  9  8  1  0  0  0  0
  9  5  1  0  0  0  0
 10  3  1  0  0  0  0
 10  9  1  0  0  0  0
 11  4  1  0  0  0  0
 15 18  1  0  0  0  0
 15 17  1  0  0  0  0
 16 15  1  0  0  0  0
 19 20  1  0  0  0  0
 19 21  1  0  0  0  0
 22 19  1  0  0  0  0
 23 22  1  0  0  0  0
 24 25  1  0  0  0  0
 24  1  1  0  0  0  0
 25 30  1  0  0  0  0
 26 31  1  0  0  0  0
 26 25  2  0  0  0  0
 27 26  1  0  0  0  0
 28 27  2  0  0  0  0
 28 29  1  0  0  0  0
 29 24  2  0  0  0  0
 32 33  1  0  0  0  0
 33 28  1  0  0  0  0
 34 35  1  0  0  0  0
 34 33  2  0  0  0  0
 36 34  1  0  0  0  0
 37 36  1  0  0  0  0
 38 37  1  0  0  0  0
 39 40  2  0  0  0  0
 39 37  1  0  0  0  0
 40 42  1  0  0  0  0
 41 40  1  0  0  0  0
 42 36  2  0  0  0  0
 42 43  1  0  0  0  0
 43 32  2  0  0  0  0
M  END
>  <minimizedAffinity>
-6.56402397

>  <minimizedRMSD>
0.434198618

$$$$
