
 OpenBabel03272504423D

 48 51  0  0  0  0  0  0  0  0999 V2000
   34.7280   29.3700   48.6030 C   0  0  0  0  0  0  0  0  0  0  0  0
   35.6160   29.4290   49.2730 H   0  0  0  0  0  0  0  0  0  0  0  0
   34.0490   30.1760   49.0140 H   0  0  0  0  0  0  0  0  0  0  0  0
   37.4990   30.4150   48.3370 Cl  0  0  0  0  0  0  0  0  0  0  0  0
   36.3630   30.2820   46.9940 C   0  0  0  0  0  0  0  0  0  0  0  0
   36.7530   30.6740   45.7620 C   0  0  0  0  0  0  0  0  0  0  0  0
   35.8760   30.5750   44.7020 C   0  0  0  0  0  0  0  0  0  0  0  0
   34.5980   30.0700   44.9280 C   0  0  0  0  0  0  0  0  0  0  0  0
   34.2710   29.6850   46.2430 C   0  0  0  0  0  0  0  0  0  0  0  0
   35.1150   29.7750   47.2850 C   0  0  0  0  0  0  0  0  0  0  0  0
   36.2120   30.8980   43.7090 H   0  0  0  0  0  0  0  0  0  0  0  0
   33.9990   30.0350   44.0480 H   0  0  0  0  0  0  0  0  0  0  0  0
   33.3000   29.3470   46.2070 H   0  0  0  0  0  0  0  0  0  0  0  0
   39.7430   32.8330   45.8360 C   0  0  0  0  0  0  0  0  0  0  0  0
   40.6290   32.0780   44.9860 C   0  0  0  0  0  0  0  0  0  0  0  0
   40.1590   30.8810   44.4400 C   0  0  0  0  0  0  0  0  0  0  0  0
   38.8970   30.4750   44.7250 N   0  0  0  0  0  0  0  0  0  0  0  0
   38.0850   31.2040   45.5260 C   0  0  0  0  0  0  0  0  0  0  0  0
   38.5110   32.3570   46.0650 N   0  0  0  0  0  0  0  0  0  0  0  0
   40.1070   33.7590   46.2580 H   0  0  0  0  0  0  0  0  0  0  0  0
   41.6100   32.5050   44.8340 H   0  0  0  0  0  0  0  0  0  0  0  0
   41.0550   30.1780   43.6190 N   0  0  0  0  0  0  0  0  0  0  0  0
   40.8440   30.5060   42.6490 H   0  0  0  0  0  0  0  0  0  0  0  0
   41.8100   29.4620   43.8120 H   0  0  0  0  0  0  0  0  0  0  0  0
   34.0940   28.0640   48.8130 C   0  0  0  0  0  0  0  0  0  0  0  0
   34.1500   27.4320   47.8960 H   0  0  0  0  0  0  0  0  0  0  0  0
   34.6060   27.4420   49.6000 H   0  0  0  0  0  0  0  0  0  0  0  0
   32.7940   28.1960   49.2260 O   0  0  0  0  0  0  0  0  0  0  0  0
   32.5040   26.5450   47.2040 O   0  0  0  0  0  0  0  0  0  0  0  0
   31.7590   27.4290   48.1730 P   0  0  2  0  0  0  0  0  0  0  0  0
   30.9480   28.6770   47.2850 O   0  0  0  0  0  0  0  0  0  0  0  0
   31.0100   28.6230   44.8610 C   0  0  0  0  0  3  0  0  0  0  0  0
   30.4110   28.2890   46.0590 C   0  0  0  0  0  0  0  0  0  0  0  0
   29.2510   27.5460   45.9530 C   0  0  0  0  0  0  0  0  0  0  0  0
   28.7330   27.2520   46.8710 H   0  0  0  0  0  0  0  0  0  0  0  0
   28.7210   27.1620   44.7340 C   0  0  0  0  0  0  0  0  0  0  0  0
   27.6480   26.4630   44.3230 N   0  0  0  0  0  0  0  0  0  0  0  0
   26.9360   26.0370   44.9780 H   0  0  0  0  0  0  0  0  0  0  0  0
   27.6030   26.3840   43.0020 N   0  0  0  0  0  0  0  0  0  0  0  0
   28.6600   27.0370   42.4820 C   0  0  0  0  0  0  0  0  0  0  0  0
   28.9390   27.1740   41.4250 H   0  0  0  0  0  0  0  0  0  0  0  0
   29.3610   27.5250   43.5660 C   0  0  0  0  0  0  0  0  0  0  0  0
   30.5380   28.2750   43.6120 C   0  0  0  0  0  3  0  0  0  0  0  0
   30.5680   26.5640   48.9230 O   0  0  0  0  0  0  0  0  0  0  0  0
   29.8360   27.3620   49.7720 C   0  0  0  0  0  0  0  0  0  0  0  0
   29.3440   26.6590   50.8700 F   0  0  0  0  0  0  0  0  0  0  0  0
   30.6080   28.3770   50.2990 F   0  0  0  0  0  0  0  0  0  0  0  0
   28.7590   27.9240   49.0960 F   0  0  0  0  0  0  0  0  0  0  0  0
  1 25  1  0  0  0  0
  1  3  1  0  0  0  0
  1  2  1  0  0  0  0
  5 10  1  0  0  0  0
  5  4  1  0  0  0  0
  6  5  2  0  0  0  0
  7  8  2  0  0  0  0
  7  6  1  0  0  0  0
  8  9  1  0  0  0  0
  9 10  2  0  0  0  0
 10  1  1  0  0  0  0
 11  7  1  0  0  0  0
 12  8  1  0  0  0  0
 13  9  1  0  0  0  0
 14 19  1  0  0  0  0
 14 20  1  0  0  0  0
 15 14  2  0  0  0  0
 16 17  2  0  0  0  0
 16 15  1  0  0  0  0
 17 18  1  0  0  0  0
 18  6  1  0  0  0  0
 18 19  2  0  0  0  0
 21 15  1  0  0  0  0
 22 24  1  0  0  0  0
 22 16  1  0  0  0  0
 23 22  1  0  0  0  0
 25 28  1  0  0  0  0
 25 27  1  0  0  0  0
 26 25  1  0  0  0  0
 30 29  2  6  0  0  0
 30 44  1  0  0  0  0
 30 28  1  0  0  0  0
 31 30  1  0  0  0  0
 32 33  1  0  0  0  0
 33 31  1  0  0  0  0
 34 33  2  0  0  0  0
 34 35  1  0  0  0  0
 36 34  1  0  0  0  0
 37 36  1  0  0  0  0
 37 38  1  0  0  0  0
 39 37  1  0  0  0  0
 40 39  2  0  0  0  0
 40 42  1  0  0  0  0
 41 40  1  0  0  0  0
 42 43  1  0  0  0  0
 42 36  2  0  0  0  0
 43 32  2  0  0  0  0
 44 45  1  0  0  0  0
 45 47  1  0  0  0  0
 45 46  1  0  0  0  0
 48 45  1  0  0  0  0
M  END
>  <minimizedAffinity>
-5.80247641

>  <minimizedRMSD>
0.689327955

$$$$
