
 OpenBabel03272507423D

 44 48  0  0  0  0  0  0  0  0999 V2000
   36.7920   31.2080   50.1220 C   0  0  0  0  0  0  0  0  0  0  0  0
   35.7490   30.3200   49.8760 C   0  0  0  0  0  0  0  0  0  0  0  0
   35.5620   29.1800   50.6270 C   0  0  0  0  0  0  0  0  0  0  0  0
   36.4530   28.9560   51.6320 N   0  0  0  0  0  0  0  0  0  0  0  0
   37.4750   29.8300   51.8700 C   0  0  0  0  0  0  0  0  0  0  0  0
   37.6220   30.9170   51.1260 N   0  0  0  0  0  0  0  0  0  0  0  0
   34.7970   28.4580   50.5040 H   0  0  0  0  0  0  0  0  0  0  0  0
   38.1650   29.6190   52.6800 H   0  0  0  0  0  0  0  0  0  0  0  0
   34.3290   29.3400   48.1130 C   0  0  0  0  0  0  0  0  0  0  0  0
   34.7370   28.1190   48.0650 O   0  0  0  0  0  0  0  0  0  0  0  0
   34.7800   30.4500   48.8610 N   0  0  0  0  0  0  0  0  0  0  0  0
   34.4630   31.4290   48.7450 H   0  0  0  0  0  0  0  0  0  0  0  0
   32.2230   28.5650   47.0270 C   0  0  0  0  0  3  0  0  0  0  0  0
   33.1960   29.5240   47.2040 C   0  0  0  0  0  0  0  0  0  0  0  0
   32.9920   30.6580   46.4470 C   0  0  0  0  0  0  0  0  0  0  0  0
   33.6860   31.4820   46.4990 H   0  0  0  0  0  0  0  0  0  0  0  0
   31.9400   30.8710   45.5830 C   0  0  0  0  0  0  0  0  0  0  0  0
   31.5690   31.8790   44.7750 N   0  0  0  0  0  0  0  0  0  0  0  0
   32.0610   32.7800   44.6390 H   0  0  0  0  0  0  0  0  0  0  0  0
   30.4510   31.5350   44.1630 N   0  0  0  0  0  0  0  0  0  0  0  0
   30.0550   30.3100   44.5400 C   0  0  0  0  0  0  0  0  0  0  0  0
   29.2020   29.7350   44.2420 H   0  0  0  0  0  0  0  0  0  0  0  0
   30.9970   29.8740   45.4480 C   0  0  0  0  0  0  0  0  0  0  0  0
   31.1270   28.7070   46.1690 C   0  0  0  0  0  3  0  0  0  0  0  0
   36.8010   32.2630   49.2780 O   0  0  0  0  0  0  0  0  0  0  0  0
   38.2570   32.2520   47.2860 C   0  0  0  0  0  0  0  0  0  0  0  0
   37.8950   32.6830   48.5540 C   0  0  0  0  0  0  0  0  0  0  0  0
   38.6660   33.6250   49.2060 C   0  0  0  0  0  0  0  0  0  0  0  0
   39.8020   34.1390   48.5940 C   0  0  0  0  0  0  0  0  0  0  0  0
   40.1550   33.7020   47.3300 C   0  0  0  0  0  0  0  0  0  0  0  0
   39.3700   32.7680   46.7100 C   0  0  0  0  0  0  0  0  0  0  0  0
   38.4450   34.0060   50.1930 H   0  0  0  0  0  0  0  0  0  0  0  0
   40.4200   34.8810   49.0940 H   0  0  0  0  0  0  0  0  0  0  0  0
   41.0330   34.0760   46.8130 H   0  0  0  0  0  0  0  0  0  0  0  0
   39.7610   32.3080   45.3540 C   0  0  0  0  0  0  0  0  0  0  0  0
   40.5930   31.2740   44.9840 C   0  0  0  0  0  0  0  0  0  0  0  0
   40.6350   31.2550   43.5930 C   0  0  0  0  0  0  0  0  0  0  0  0
   39.8110   32.2950   43.1960 C   0  0  0  0  0  0  0  0  0  0  0  0
   39.3060   32.9040   44.2570 O   0  0  0  0  0  0  0  0  0  0  0  0
   41.0980   30.6260   45.7030 H   0  0  0  0  0  0  0  0  0  0  0  0
   41.1950   30.5670   43.0000 H   0  0  0  0  0  0  0  0  0  0  0  0
   39.5970   32.5870   42.1780 H   0  0  0  0  0  0  0  0  0  0  0  0
   36.7410   30.4980   46.1610 N   0  0  0  0  0  0  0  0  0  0  0  0
   37.4130   31.2770   46.6730 C   0  0  0  0  0  0  0  0  0  0  0  0
  1  6  1  0  0  0  0
  2  1  2  0  0  0  0
  2  3  1  0  0  0  0
  3  4  2  0  0  0  0
  4  5  1  0  0  0  0
  5  8  1  0  0  0  0
  6  5  2  0  0  0  0
  7  3  1  0  0  0  0
  9 11  1  0  0  0  0
 10  9  2  0  0  0  0
 11  2  1  0  0  0  0
 12 11  1  0  0  0  0
 13 14  1  0  0  0  0
 14  9  1  0  0  0  0
 15 16  1  0  0  0  0
 15 14  2  0  0  0  0
 17 15  1  0  0  0  0
 18 17  1  0  0  0  0
 19 18  1  0  0  0  0
 20 21  2  0  0  0  0
 20 18  1  0  0  0  0
 21 23  1  0  0  0  0
 22 21  1  0  0  0  0
 23 17  2  0  0  0  0
 23 24  1  0  0  0  0
 24 13  2  0  0  0  0
 25  1  1  0  0  0  0
 26 27  1  0  0  0  0
 27 28  2  0  0  0  0
 27 25  1  0  0  0  0
 28 32  1  0  0  0  0
 29 33  1  0  0  0  0
 29 28  1  0  0  0  0
 30 29  2  0  0  0  0
 31 26  2  0  0  0  0
 31 30  1  0  0  0  0
 34 30  1  0  0  0  0
 35 31  1  0  0  0  0
 36 35  2  0  0  0  0
 36 40  1  0  0  0  0
 37 36  1  0  0  0  0
 38 37  2  0  0  0  0
 38 39  1  0  0  0  0
 39 35  1  0  0  0  0
 41 37  1  0  0  0  0
 42 38  1  0  0  0  0
 43 44  3  0  0  0  0
 44 26  1  0  0  0  0
M  END
>  <minimizedAffinity>
-6.39636612

>  <minimizedRMSD>
0.492011398

$$$$
