
 OpenBabel03272509263D

 28 30  0  0  0  0  0  0  0  0999 V2000
   34.6360   29.3070   45.9280 C   0  0  0  0  0  0  0  0  0  0  0  0
   33.6630   28.8410   45.5900 H   0  0  0  0  0  0  0  0  0  0  0  0
   35.2690   28.4680   46.1920 H   0  0  0  0  0  0  0  0  0  0  0  0
   34.2450   30.2280   47.0500 C   0  0  0  0  0  0  0  0  0  0  0  0
   34.4320   31.2680   46.6630 H   0  0  0  0  0  0  0  0  0  0  0  0
   33.1590   30.0910   47.2840 H   0  0  0  0  0  0  0  0  0  0  0  0
   37.0650   29.8130   49.5370 C   0  0  0  0  0  0  0  0  0  0  0  0
   36.4040   30.1030   48.3450 C   0  0  0  0  0  0  0  0  0  0  0  0
   35.0410   29.9520   48.2560 C   0  0  0  0  0  0  0  0  0  0  0  0
   34.4130   29.5120   49.3840 N   0  0  0  0  0  0  0  0  0  0  0  0
   35.0530   29.2370   50.5220 C   0  0  0  0  0  0  0  0  0  0  0  0
   36.3810   29.3830   50.6100 N   0  0  0  0  0  0  0  0  0  0  0  0
   38.1440   29.9580   49.5260 H   0  0  0  0  0  0  0  0  0  0  0  0
   36.9450   30.4410   47.4990 H   0  0  0  0  0  0  0  0  0  0  0  0
   34.5420   28.8890   51.4100 H   0  0  0  0  0  0  0  0  0  0  0  0
   35.2010   30.2620   44.4900 S   0  0  0  0  0  0  0  0  0  0  0  0
   37.9350   29.6010   44.1390 C   0  0  0  0  0  3  0  0  0  0  0  0
   36.9700   30.4910   44.5670 C   0  0  0  0  0  0  0  0  0  0  0  0
   37.3220   31.7090   45.1240 C   0  0  0  0  0  0  0  0  0  0  0  0
   36.6350   32.4730   45.4880 H   0  0  0  0  0  0  0  0  0  0  0  0
   38.6600   32.0670   45.2670 C   0  0  0  0  0  0  0  0  0  0  0  0
   39.3110   33.1610   45.7620 N   0  0  0  0  0  0  0  0  0  0  0  0
   38.8090   33.9990   46.1580 H   0  0  0  0  0  0  0  0  0  0  0  0
   40.6060   32.9640   45.6500 N   0  0  0  0  0  0  0  0  0  0  0  0
   40.8440   31.7590   45.0890 C   0  0  0  0  0  0  0  0  0  0  0  0
   41.8270   31.3530   44.8840 H   0  0  0  0  0  0  0  0  0  0  0  0
   39.6320   31.1620   44.8330 C   0  0  0  0  0  0  0  0  0  0  0  0
   39.2580   29.9700   44.2880 C   0  0  0  0  0  3  0  0  0  0  0  0
  1  3  1  0  0  0  0
  1  4  1  0  0  0  0
  2  1  1  0  0  0  0
  4  6  1  0  0  0  0
  4  9  1  0  0  0  0
  5  4  1  0  0  0  0
  7 12  1  0  0  0  0
  8  7  2  0  0  0  0
  9  8  1  0  0  0  0
  9 10  2  0  0  0  0
 10 11  1  0  0  0  0
 11 12  2  0  0  0  0
 11 15  1  0  0  0  0
 13  7  1  0  0  0  0
 14  8  1  0  0  0  0
 16 18  1  0  0  0  0
 16  1  1  0  0  0  0
 17 28  2  0  0  0  0
 17 18  1  0  0  0  0
 18 19  2  0  0  0  0
 19 21  1  0  0  0  0
 19 20  1  0  0  0  0
 21 22  1  0  0  0  0
 22 23  1  0  0  0  0
 24 22  1  0  0  0  0
 25 24  2  0  0  0  0
 26 25  1  0  0  0  0
 27 25  1  0  0  0  0
 27 21  2  0  0  0  0
 28 27  1  0  0  0  0
M  END
>  <minimizedAffinity>
-4.61093855

>  <minimizedRMSD>
5.70351028

$$$$
