
 OpenBabel03272509493D

 36 39  0  0  0  0  0  0  0  0999 V2000
   37.3300   30.1300   51.3350 C   0  0  0  0  0  0  0  0  0  0  0  0
   37.8440   30.7300   50.1560 C   0  0  0  0  0  0  0  0  0  0  0  0
   37.1900   30.5090   48.9620 C   0  0  0  0  0  0  0  0  0  0  0  0
   36.0860   29.7160   49.0300 N   0  0  0  0  0  0  0  0  0  0  0  0
   35.6080   29.1560   50.1350 C   0  0  0  0  0  0  0  0  0  0  0  0
   36.2410   29.3690   51.3010 N   0  0  0  0  0  0  0  0  0  0  0  0
   37.8340   30.2950   52.2840 H   0  0  0  0  0  0  0  0  0  0  0  0
   38.7140   31.3340   50.2060 H   0  0  0  0  0  0  0  0  0  0  0  0
   37.0790   30.7110   46.4890 C   0  0  0  0  0  3  0  0  0  0  0  0
   37.6310   31.0760   47.6950 C   0  0  0  0  0  0  0  0  0  0  0  0
   38.6410   32.0140   47.7100 C   0  0  0  0  0  0  0  0  0  0  0  0
   39.0830   32.3080   48.6690 H   0  0  0  0  0  0  0  0  0  0  0  0
   39.1210   32.6030   46.5560 C   0  0  0  0  0  0  0  0  0  0  0  0
   40.0650   33.5190   46.2470 N   0  0  0  0  0  0  0  0  0  0  0  0
   40.6500   33.9730   46.9870 H   0  0  0  0  0  0  0  0  0  0  0  0
   40.0710   33.6870   44.9350 N   0  0  0  0  0  0  0  0  0  0  0  0
   39.1430   32.8910   44.3750 C   0  0  0  0  0  0  0  0  0  0  0  0
   38.9230   32.8190   43.3070 H   0  0  0  0  0  0  0  0  0  0  0  0
   38.5270   32.1940   45.3860 C   0  0  0  0  0  0  0  0  0  0  0  0
   37.5150   31.2640   45.2950 C   0  0  0  0  0  3  0  0  0  0  0  0
   34.4820   28.4070   49.9070 O   0  0  0  0  0  0  0  0  0  0  0  0
   33.7390   28.6190   48.7220 C   0  0  0  0  0  0  0  0  0  0  0  0
   34.4470   28.8350   47.8930 H   0  0  0  0  0  0  0  0  0  0  0  0
   33.1670   29.5730   48.8590 H   0  0  0  0  0  0  0  0  0  0  0  0
   32.8390   27.4580   48.4370 C   0  0  0  0  0  0  0  0  0  0  0  0
   33.0050   26.6010   49.1310 H   0  0  0  0  0  0  0  0  0  0  0  0
   33.1040   27.0790   47.4280 H   0  0  0  0  0  0  0  0  0  0  0  0
   31.4060   27.8460   48.3850 C   0  0  0  0  0  0  0  0  0  0  0  0
   30.6810   27.7430   49.5560 C   0  0  0  0  0  0  0  0  0  0  0  0
   29.3500   28.0660   49.6590 C   0  0  0  0  0  0  0  0  0  0  0  0
   28.7250   28.5030   48.5660 N   0  0  0  0  0  0  0  0  0  0  0  0
   29.4290   28.6070   47.4120 C   0  0  0  0  0  0  0  0  0  0  0  0
   30.7390   28.2910   47.3060 N   0  0  0  0  0  0  0  0  0  0  0  0
   31.1270   27.3910   50.4990 H   0  0  0  0  0  0  0  0  0  0  0  0
   28.7810   27.9860   50.5750 H   0  0  0  0  0  0  0  0  0  0  0  0
   28.9280   28.9660   46.5020 H   0  0  0  0  0  0  0  0  0  0  0  0
  1  7  1  0  0  0  0
  2  8  1  0  0  0  0
  2  1  2  0  0  0  0
  3  4  2  0  0  0  0
  3  2  1  0  0  0  0
  4  5  1  0  0  0  0
  5  6  2  0  0  0  0
  6  1  1  0  0  0  0
  9 10  1  0  0  0  0
 10 11  2  0  0  0  0
 10  3  1  0  0  0  0
 11 12  1  0  0  0  0
 13 11  1  0  0  0  0
 14 13  1  0  0  0  0
 14 15  1  0  0  0  0
 16 14  1  0  0  0  0
 17 16  2  0  0  0  0
 17 19  1  0  0  0  0
 18 17  1  0  0  0  0
 19 13  2  0  0  0  0
 20 19  1  0  0  0  0
 20  9  2  0  0  0  0
 21  5  1  0  0  0  0
 22 24  1  0  0  0  0
 22 21  1  0  0  0  0
 23 22  1  0  0  0  0
 25 22  1  0  0  0  0
 25 26  1  0  0  0  0
 27 25  1  0  0  0  0
 28 25  1  0  0  0  0
 28 29  1  0  0  0  0
 29 30  2  0  0  0  0
 29 34  1  0  0  0  0
 30 35  1  0  0  0  0
 31 30  1  0  0  0  0
 32 31  2  0  0  0  0
 33 32  1  0  0  0  0
 33 28  2  0  0  0  0
 36 32  1  0  0  0  0
M  END
>  <minimizedAffinity>
-6.8967824

>  <minimizedRMSD>
1.21961141

$$$$
