
 OpenBabel03272509493D

 36 39  0  0  0  0  0  0  0  0999 V2000
   37.2300   30.1110   51.4930 C   0  0  0  0  0  0  0  0  0  0  0  0
   37.8220   30.7810   50.3910 C   0  0  0  0  0  0  0  0  0  0  0  0
   37.2940   30.5810   49.1330 C   0  0  0  0  0  0  0  0  0  0  0  0
   36.2270   29.7390   49.0660 N   0  0  0  0  0  0  0  0  0  0  0  0
   35.6750   29.1130   50.0990 C   0  0  0  0  0  0  0  0  0  0  0  0
   36.1860   29.3050   51.3270 N   0  0  0  0  0  0  0  0  0  0  0  0
   37.6340   30.2580   52.4910 H   0  0  0  0  0  0  0  0  0  0  0  0
   38.6540   31.4190   50.5460 H   0  0  0  0  0  0  0  0  0  0  0  0
   38.8910   32.0870   47.9690 C   0  0  0  0  0  3  0  0  0  0  0  0
   37.8250   31.2190   47.9360 C   0  0  0  0  0  0  0  0  0  0  0  0
   37.2300   30.9380   46.7230 C   0  0  0  0  0  0  0  0  0  0  0  0
   36.3800   30.2460   46.6930 H   0  0  0  0  0  0  0  0  0  0  0  0
   37.6680   31.4970   45.5390 C   0  0  0  0  0  0  0  0  0  0  0  0
   37.3140   31.4270   44.2360 N   0  0  0  0  0  0  0  0  0  0  0  0
   36.5170   30.8280   43.9170 H   0  0  0  0  0  0  0  0  0  0  0  0
   38.1230   32.2070   43.5410 N   0  0  0  0  0  0  0  0  0  0  0  0
   39.0070   32.7920   44.3680 C   0  0  0  0  0  0  0  0  0  0  0  0
   39.7970   33.4880   44.0730 H   0  0  0  0  0  0  0  0  0  0  0  0
   38.7360   32.3540   45.6420 C   0  0  0  0  0  0  0  0  0  0  0  0
   39.3790   32.6810   46.8160 C   0  0  0  0  0  3  0  0  0  0  0  0
   34.6120   28.3260   49.7370 O   0  0  0  0  0  0  0  0  0  0  0  0
   34.0960   28.4230   48.4230 C   0  0  0  0  0  0  0  0  0  0  0  0
   34.9460   28.4480   47.7080 H   0  0  0  0  0  0  0  0  0  0  0  0
   33.6200   29.4340   48.3310 H   0  0  0  0  0  0  0  0  0  0  0  0
   33.1270   27.3170   48.1440 C   0  0  0  0  0  0  0  0  0  0  0  0
   33.2080   26.4760   48.8700 H   0  0  0  0  0  0  0  0  0  0  0  0
   33.4000   26.8860   47.1580 H   0  0  0  0  0  0  0  0  0  0  0  0
   31.7280   27.8010   48.0250 C   0  0  0  0  0  0  0  0  0  0  0  0
   30.8930   27.5880   49.1050 C   0  0  0  0  0  0  0  0  0  0  0  0
   29.5760   27.9790   49.1380 C   0  0  0  0  0  0  0  0  0  0  0  0
   29.0800   28.6000   48.0690 N   0  0  0  0  0  0  0  0  0  0  0  0
   29.8920   28.8130   47.0050 C   0  0  0  0  0  0  0  0  0  0  0  0
   31.1880   28.4300   46.9670 N   0  0  0  0  0  0  0  0  0  0  0  0
   31.2300   27.0830   50.0230 H   0  0  0  0  0  0  0  0  0  0  0  0
   28.9220   27.8130   49.9830 H   0  0  0  0  0  0  0  0  0  0  0  0
   29.4970   29.3240   46.1150 H   0  0  0  0  0  0  0  0  0  0  0  0
  1  7  1  0  0  0  0
  2  8  1  0  0  0  0
  2  1  2  0  0  0  0
  3  2  1  0  0  0  0
  4  3  2  0  0  0  0
  4  5  1  0  0  0  0
  5  6  2  0  0  0  0
  6  1  1  0  0  0  0
 10  9  1  0  0  0  0
 10  3  1  0  0  0  0
 11 10  2  0  0  0  0
 12 11  1  0  0  0  0
 13 19  2  0  0  0  0
 13 11  1  0  0  0  0
 14 13  1  0  0  0  0
 15 14  1  0  0  0  0
 16 14  1  0  0  0  0
 16 17  2  0  0  0  0
 17 19  1  0  0  0  0
 18 17  1  0  0  0  0
 19 20  1  0  0  0  0
 20  9  2  0  0  0  0
 21  5  1  0  0  0  0
 22 21  1  0  0  0  0
 23 22  1  0  0  0  0
 24 22  1  0  0  0  0
 25 22  1  0  0  0  0
 25 26  1  0  0  0  0
 27 25  1  0  0  0  0
 28 25  1  0  0  0  0
 28 29  1  0  0  0  0
 29 30  2  0  0  0  0
 29 34  1  0  0  0  0
 30 35  1  0  0  0  0
 31 30  1  0  0  0  0
 32 31  2  0  0  0  0
 33 32  1  0  0  0  0
 33 28  2  0  0  0  0
 36 32  1  0  0  0  0
M  END
>  <minimizedAffinity>
-6.51020336

>  <minimizedRMSD>
1.03700829

$$$$
