
 OpenBabel03272509493D

 36 39  0  0  0  0  0  0  0  0999 V2000
   37.2120   30.1240   51.4840 C   0  0  0  0  0  0  0  0  0  0  0  0
   37.7930   30.8000   50.3810 C   0  0  0  0  0  0  0  0  0  0  0  0
   37.2970   30.5560   49.1180 C   0  0  0  0  0  0  0  0  0  0  0  0
   36.2690   29.6660   49.0480 N   0  0  0  0  0  0  0  0  0  0  0  0
   35.7270   29.0350   50.0830 C   0  0  0  0  0  0  0  0  0  0  0  0
   36.2070   29.2700   51.3150 N   0  0  0  0  0  0  0  0  0  0  0  0
   37.5920   30.3060   52.4860 H   0  0  0  0  0  0  0  0  0  0  0  0
   38.5940   31.4770   50.5380 H   0  0  0  0  0  0  0  0  0  0  0  0
   38.8830   32.0660   47.9470 C   0  0  0  0  0  3  0  0  0  0  0  0
   37.8190   31.1950   47.9180 C   0  0  0  0  0  0  0  0  0  0  0  0
   37.2200   30.9130   46.7090 C   0  0  0  0  0  0  0  0  0  0  0  0
   36.3720   30.2190   46.6820 H   0  0  0  0  0  0  0  0  0  0  0  0
   37.6500   31.4740   45.5220 C   0  0  0  0  0  0  0  0  0  0  0  0
   37.2900   31.4030   44.2220 N   0  0  0  0  0  0  0  0  0  0  0  0
   36.4940   30.8020   43.9060 H   0  0  0  0  0  0  0  0  0  0  0  0
   38.0930   32.1870   43.5220 N   0  0  0  0  0  0  0  0  0  0  0  0
   38.9800   32.7730   44.3450 C   0  0  0  0  0  0  0  0  0  0  0  0
   39.7660   33.4720   44.0470 H   0  0  0  0  0  0  0  0  0  0  0  0
   38.7160   32.3340   45.6200 C   0  0  0  0  0  0  0  0  0  0  0  0
   39.3640   32.6630   46.7910 C   0  0  0  0  0  3  0  0  0  0  0  0
   34.7050   28.1960   49.7170 O   0  0  0  0  0  0  0  0  0  0  0  0
   33.7890   28.6130   48.7230 C   0  0  0  0  0  0  0  0  0  0  0  0
   34.3600   29.0510   47.8760 H   0  0  0  0  0  0  0  0  0  0  0  0
   33.2120   29.4750   49.1490 H   0  0  0  0  0  0  0  0  0  0  0  0
   32.8960   27.4870   48.3090 C   0  0  0  0  0  0  0  0  0  0  0  0
   33.0300   26.5740   48.9340 H   0  0  0  0  0  0  0  0  0  0  0  0
   33.1980   27.1910   47.2820 H   0  0  0  0  0  0  0  0  0  0  0  0
   31.4680   27.8890   48.2340 C   0  0  0  0  0  0  0  0  0  0  0  0
   30.7040   27.7190   49.3710 C   0  0  0  0  0  0  0  0  0  0  0  0
   29.3710   28.0460   49.4500 C   0  0  0  0  0  0  0  0  0  0  0  0
   28.7860   28.5550   48.3670 N   0  0  0  0  0  0  0  0  0  0  0  0
   29.5290   28.7250   47.2460 C   0  0  0  0  0  0  0  0  0  0  0  0
   30.8400   28.4060   47.1630 N   0  0  0  0  0  0  0  0  0  0  0  0
   31.1160   27.3040   50.3040 H   0  0  0  0  0  0  0  0  0  0  0  0
   28.7720   27.9130   50.3410 H   0  0  0  0  0  0  0  0  0  0  0  0
   29.0610   29.1450   46.3440 H   0  0  0  0  0  0  0  0  0  0  0  0
  1  7  1  0  0  0  0
  2  8  1  0  0  0  0
  2  1  2  0  0  0  0
  3  2  1  0  0  0  0
  4  3  2  0  0  0  0
  4  5  1  0  0  0  0
  5  6  2  0  0  0  0
  6  1  1  0  0  0  0
 10  9  1  0  0  0  0
 10  3  1  0  0  0  0
 11 10  2  0  0  0  0
 12 11  1  0  0  0  0
 13 19  2  0  0  0  0
 13 11  1  0  0  0  0
 14 13  1  0  0  0  0
 15 14  1  0  0  0  0
 16 14  1  0  0  0  0
 16 17  2  0  0  0  0
 17 19  1  0  0  0  0
 18 17  1  0  0  0  0
 19 20  1  0  0  0  0
 20  9  2  0  0  0  0
 21  5  1  0  0  0  0
 22 24  1  0  0  0  0
 22 21  1  0  0  0  0
 23 22  1  0  0  0  0
 25 22  1  0  0  0  0
 25 26  1  0  0  0  0
 27 25  1  0  0  0  0
 28 25  1  0  0  0  0
 28 29  1  0  0  0  0
 29 30  2  0  0  0  0
 29 34  1  0  0  0  0
 30 35  1  0  0  0  0
 31 30  1  0  0  0  0
 32 31  2  0  0  0  0
 33 32  1  0  0  0  0
 33 28  2  0  0  0  0
 36 32  1  0  0  0  0
M  END
>  <minimizedAffinity>
-6.52422237

>  <minimizedRMSD>
0.646301508

$$$$
