
 OpenBabel03272506463D

 45 49  0  0  1  0  0  0  0  0999 V2000
   30.3410   27.0650   45.5800 O   0  0  0  0  0  0  0  0  0  0  0  0
   31.4350   28.4310   47.2530 C   0  0  2  0  0  0  0  0  0  0  0  0
   32.6290   28.0670   48.0820 C   0  0  1  0  0  0  0  0  0  0  0  0
   32.7690   26.7120   48.0480 O   0  0  0  0  0  0  0  0  0  0  0  0
   31.9600   26.1950   47.0410 C   0  0  0  0  0  0  0  0  0  0  0  0
   31.5630   27.3380   46.1450 C   0  0  1  0  0  0  0  0  0  0  0  0
   30.4690   28.3750   47.7440 H   0  0  0  0  0  0  0  0  0  0  0  0
   32.5590   28.4990   49.0990 H   0  0  0  0  0  0  0  0  0  0  0  0
   31.1620   25.6470   47.5130 H   0  0  0  0  0  0  0  0  0  0  0  0
   32.6470   25.5450   46.4340 H   0  0  0  0  0  0  0  0  0  0  0  0
   32.3560   27.7020   45.5000 H   0  0  0  0  0  0  0  0  0  0  0  0
   31.6040   29.7030   46.6680 O   0  0  0  0  0  0  0  0  0  0  0  0
   32.3660   29.6210   46.0370 H   0  0  0  0  0  0  0  0  0  0  0  0
   34.1070   28.8150   47.2810 S   0  0  0  0  0  0  0  0  0  0  0  0
   35.9660   29.4150   50.7300 C   0  0  0  0  0  0  0  0  0  0  0  0
   36.7270   30.5710   50.5270 C   0  0  0  0  0  0  0  0  0  0  0  0
   36.6660   31.1850   49.2870 C   0  0  0  0  0  0  0  0  0  0  0  0
   35.8690   30.6380   48.3220 N   0  0  0  0  0  0  0  0  0  0  0  0
   35.1480   29.5210   48.5550 C   0  0  0  0  0  0  0  0  0  0  0  0
   35.1850   28.8930   49.7590 N   0  0  0  0  0  0  0  0  0  0  0  0
   35.9510   28.8690   51.6620 H   0  0  0  0  0  0  0  0  0  0  0  0
   37.3370   30.9490   51.3370 H   0  0  0  0  0  0  0  0  0  0  0  0
   37.2280   32.0690   49.0820 H   0  0  0  0  0  0  0  0  0  0  0  0
   29.3880   29.3600   44.0010 Cl  0  0  0  0  0  0  0  0  0  0  0  0
   28.6160   28.5740   45.3570 C   0  0  0  0  0  0  0  0  0  0  0  0
   29.1590   27.4940   46.0120 C   0  0  0  0  0  0  0  0  0  0  0  0
   28.4350   26.9350   47.0690 C   0  0  0  0  0  0  0  0  0  0  0  0
   27.2130   27.4570   47.4360 C   0  0  0  0  0  0  0  0  0  0  0  0
   26.6580   28.5440   46.7820 C   0  0  0  0  0  0  0  0  0  0  0  0
   27.3760   29.1030   45.7310 C   0  0  0  0  0  0  0  0  0  0  0  0
   28.7810   26.0870   47.6330 H   0  0  0  0  0  0  0  0  0  0  0  0
   26.6600   27.0270   48.2460 H   0  0  0  0  0  0  0  0  0  0  0  0
   25.7010   28.9500   47.0740 H   0  0  0  0  0  0  0  0  0  0  0  0
   26.2700   29.9720   43.7880 C   0  0  0  0  0  3  0  0  0  0  0  0
   26.7750   30.2290   45.0690 C   0  0  0  0  0  0  0  0  0  0  0  0
   26.6320   31.5180   45.5270 C   0  0  0  0  0  0  0  0  0  0  0  0
   27.0170   31.7070   46.4980 H   0  0  0  0  0  0  0  0  0  0  0  0
   26.0310   32.5090   44.7790 C   0  0  0  0  0  0  0  0  0  0  0  0
   25.8110   33.8030   45.0670 N   0  0  0  0  0  0  0  0  0  0  0  0
   26.0910   34.2580   45.9670 H   0  0  0  0  0  0  0  0  0  0  0  0
   25.2000   34.3100   44.0070 N   0  0  0  0  0  0  0  0  0  0  0  0
   25.0220   33.3890   43.0570 C   0  0  0  0  0  0  0  0  0  0  0  0
   24.5610   33.4880   42.0850 H   0  0  0  0  0  0  0  0  0  0  0  0
   25.5510   32.2040   43.5230 C   0  0  0  0  0  0  0  0  0  0  0  0
   25.6610   30.9270   43.0010 C   0  0  0  0  0  3  0  0  0  0  0  0
  1 26  1  0  0  0  0
  1  6  1  0  0  0  0
  2  7  1  1  0  0  0
  2  3  1  0  0  0  0
  3  8  1  1  0  0  0
  4  3  1  0  0  0  0
  5  9  1  0  0  0  0
  5  4  1  0  0  0  0
  6 11  1  6  0  0  0
  6  5  1  0  0  0  0
  6  2  1  0  0  0  0
 10  5  1  0  0  0  0
 12  2  1  0  0  0  0
 13 12  1  0  0  0  0
 14  3  1  0  0  0  0
 14 19  1  0  0  0  0
 15 21  1  0  0  0  0
 16 15  1  0  0  0  0
 16 22  1  0  0  0  0
 17 16  2  0  0  0  0
 18 19  2  0  0  0  0
 18 17  1  0  0  0  0
 19 20  1  0  0  0  0
 20 15  2  0  0  0  0
 23 17  1  0  0  0  0
 24 25  1  0  0  0  0
 25 30  2  0  0  0  0
 25 26  1  0  0  0  0
 26 27  2  0  0  0  0
 27 28  1  0  0  0  0
 27 31  1  0  0  0  0
 28 32  1  0  0  0  0
 29 33  1  0  0  0  0
 29 28  2  0  0  0  0
 30 29  1  0  0  0  0
 34 35  1  0  0  0  0
 35 36  2  0  0  0  0
 35 30  1  0  0  0  0
 36 37  1  0  0  0  0
 38 39  1  0  0  0  0
 38 36  1  0  0  0  0
 39 40  1  0  0  0  0
 41 39  1  0  0  0  0
 42 44  1  0  0  0  0
 42 41  2  0  0  0  0
 43 42  1  0  0  0  0
 44 38  2  0  0  0  0
 45 44  1  0  0  0  0
 45 34  2  0  0  0  0
M  END
>  <minimizedAffinity>
-6.30563593

>  <minimizedRMSD>
1.1169349

$$$$
