
 OpenBabel03272509263D

 28 30  0  0  0  0  0  0  0  0999 V2000
   33.9950   28.1230   45.5120 C   0  0  0  0  0  0  0  0  0  0  0  0
   34.5510   27.9860   44.5370 H   0  0  0  0  0  0  0  0  0  0  0  0
   34.4460   27.4080   46.1910 H   0  0  0  0  0  0  0  0  0  0  0  0
   32.5520   27.8930   45.1620 C   0  0  0  0  0  0  0  0  0  0  0  0
   32.2760   28.7290   44.4600 H   0  0  0  0  0  0  0  0  0  0  0  0
   32.4450   26.9040   44.6470 H   0  0  0  0  0  0  0  0  0  0  0  0
   31.1300   27.2960   48.6160 C   0  0  0  0  0  0  0  0  0  0  0  0
   31.9940   27.2190   47.5260 C   0  0  0  0  0  0  0  0  0  0  0  0
   31.7110   27.9050   46.3690 C   0  0  0  0  0  0  0  0  0  0  0  0
   30.5610   28.6370   46.3750 N   0  0  0  0  0  0  0  0  0  0  0  0
   29.7380   28.7070   47.4220 C   0  0  0  0  0  0  0  0  0  0  0  0
   30.0120   28.0390   48.5500 N   0  0  0  0  0  0  0  0  0  0  0  0
   31.4240   26.7240   49.4950 H   0  0  0  0  0  0  0  0  0  0  0  0
   32.8740   26.6320   47.5800 H   0  0  0  0  0  0  0  0  0  0  0  0
   28.8290   29.2930   47.4140 H   0  0  0  0  0  0  0  0  0  0  0  0
   34.2740   29.8650   45.9480 S   0  0  0  0  0  0  0  0  0  0  0  0
   34.3470   29.6870   48.7750 C   0  0  0  0  0  3  0  0  0  0  0  0
   34.9790   29.9780   47.5840 C   0  0  0  0  0  0  0  0  0  0  0  0
   36.2950   30.4110   47.5640 C   0  0  0  0  0  0  0  0  0  0  0  0
   36.8760   30.6640   46.6780 H   0  0  0  0  0  0  0  0  0  0  0  0
   37.0130   30.5620   48.7470 C   0  0  0  0  0  0  0  0  0  0  0  0
   38.2850   30.9550   49.0510 N   0  0  0  0  0  0  0  0  0  0  0  0
   38.9910   31.2380   48.3220 H   0  0  0  0  0  0  0  0  0  0  0  0
   38.4360   30.9120   50.3570 N   0  0  0  0  0  0  0  0  0  0  0  0
   37.2920   30.4960   50.9410 C   0  0  0  0  0  0  0  0  0  0  0  0
   37.1490   30.3730   52.0090 H   0  0  0  0  0  0  0  0  0  0  0  0
   36.3680   30.2640   49.9500 C   0  0  0  0  0  0  0  0  0  0  0  0
   35.0730   29.8420   49.9410 C   0  0  0  0  0  3  0  0  0  0  0  0
  1 16  1  0  0  0  0
  1  3  1  0  0  0  0
  2  1  1  0  0  0  0
  4  1  1  0  0  0  0
  4  9  1  0  0  0  0
  5  4  1  0  0  0  0
  6  4  1  0  0  0  0
  7 13  1  0  0  0  0
  8 14  1  0  0  0  0
  8  7  2  0  0  0  0
  9 10  2  0  0  0  0
  9  8  1  0  0  0  0
 10 11  1  0  0  0  0
 11 12  2  0  0  0  0
 12  7  1  0  0  0  0
 15 11  1  0  0  0  0
 16 18  1  0  0  0  0
 17 28  1  0  0  0  0
 18 17  2  0  0  0  0
 19 18  1  0  0  0  0
 19 21  2  0  0  0  0
 20 19  1  0  0  0  0
 21 22  1  0  0  0  0
 21 27  1  0  0  0  0
 22 24  1  0  0  0  0
 23 22  1  0  0  0  0
 24 25  2  0  0  0  0
 25 26  1  0  0  0  0
 27 25  1  0  0  0  0
 28 27  2  0  0  0  0
M  END
>  <minimizedAffinity>
-4.56816721

>  <minimizedRMSD>
7.02564573

$$$$
