
 OpenBabel03272507423D

 44 48  0  0  0  0  0  0  0  0999 V2000
   36.6480   31.1810   50.0960 C   0  0  0  0  0  0  0  0  0  0  0  0
   35.5790   30.3180   49.8720 C   0  0  0  0  0  0  0  0  0  0  0  0
   35.3670   29.1960   50.6430 C   0  0  0  0  0  0  0  0  0  0  0  0
   36.2600   28.9630   51.6450 N   0  0  0  0  0  0  0  0  0  0  0  0
   37.3080   29.8120   51.8600 C   0  0  0  0  0  0  0  0  0  0  0  0
   37.4790   30.8820   51.0980 N   0  0  0  0  0  0  0  0  0  0  0  0
   34.5800   28.4940   50.5380 H   0  0  0  0  0  0  0  0  0  0  0  0
   37.9990   29.5940   52.6680 H   0  0  0  0  0  0  0  0  0  0  0  0
   34.2350   29.3820   48.0270 C   0  0  0  0  0  0  0  0  0  0  0  0
   34.7300   28.2010   47.8870 O   0  0  0  0  0  0  0  0  0  0  0  0
   34.6060   30.4590   48.8630 N   0  0  0  0  0  0  0  0  0  0  0  0
   34.2200   31.4190   48.8220 H   0  0  0  0  0  0  0  0  0  0  0  0
   32.1080   28.6060   46.9860 C   0  0  0  0  0  3  0  0  0  0  0  0
   33.0950   29.5570   47.1270 C   0  0  0  0  0  0  0  0  0  0  0  0
   32.8950   30.6740   46.3440 C   0  0  0  0  0  0  0  0  0  0  0  0
   33.6000   31.4910   46.3670 H   0  0  0  0  0  0  0  0  0  0  0  0
   31.8370   30.8770   45.4860 C   0  0  0  0  0  0  0  0  0  0  0  0
   31.4680   31.8700   44.6560 N   0  0  0  0  0  0  0  0  0  0  0  0
   31.9690   32.7610   44.4920 H   0  0  0  0  0  0  0  0  0  0  0  0
   30.3390   31.5230   44.0660 N   0  0  0  0  0  0  0  0  0  0  0  0
   29.9320   30.3130   44.4800 C   0  0  0  0  0  0  0  0  0  0  0  0
   29.0700   29.7420   44.2060 H   0  0  0  0  0  0  0  0  0  0  0  0
   30.8810   29.8900   45.3870 C   0  0  0  0  0  0  0  0  0  0  0  0
   31.0050   28.7400   46.1360 C   0  0  0  0  0  3  0  0  0  0  0  0
   36.6800   32.2210   49.2350 O   0  0  0  0  0  0  0  0  0  0  0  0
   38.1850   32.2070   47.2800 C   0  0  0  0  0  0  0  0  0  0  0  0
   37.7940   32.6360   48.5410 C   0  0  0  0  0  0  0  0  0  0  0  0
   38.5570   33.5680   49.2160 C   0  0  0  0  0  0  0  0  0  0  0  0
   39.7110   34.0750   48.6350 C   0  0  0  0  0  0  0  0  0  0  0  0
   40.0930   33.6420   47.3780 C   0  0  0  0  0  0  0  0  0  0  0  0
   39.3150   32.7170   46.7340 C   0  0  0  0  0  0  0  0  0  0  0  0
   38.3150   33.9460   50.1990 H   0  0  0  0  0  0  0  0  0  0  0  0
   40.3230   34.8100   49.1530 H   0  0  0  0  0  0  0  0  0  0  0  0
   40.9860   34.0110   46.8840 H   0  0  0  0  0  0  0  0  0  0  0  0
   39.7360   32.2600   45.3860 C   0  0  0  0  0  0  0  0  0  0  0  0
   40.5680   31.2200   45.0320 C   0  0  0  0  0  0  0  0  0  0  0  0
   40.6450   31.2070   43.6420 C   0  0  0  0  0  0  0  0  0  0  0  0
   39.8410   32.2570   43.2300 C   0  0  0  0  0  0  0  0  0  0  0  0
   39.3150   32.8650   44.2810 O   0  0  0  0  0  0  0  0  0  0  0  0
   41.0480   30.5630   45.7600 H   0  0  0  0  0  0  0  0  0  0  0  0
   41.2130   30.5170   43.0600 H   0  0  0  0  0  0  0  0  0  0  0  0
   39.6560   32.5560   42.2080 H   0  0  0  0  0  0  0  0  0  0  0  0
   36.6830   30.4710   46.1090 N   0  0  0  0  0  0  0  0  0  0  0  0
   37.3490   31.2420   46.6420 C   0  0  0  0  0  0  0  0  0  0  0  0
  1  6  1  0  0  0  0
  2  1  2  0  0  0  0
  2  3  1  0  0  0  0
  3  4  2  0  0  0  0
  4  5  1  0  0  0  0
  5  8  1  0  0  0  0
  6  5  2  0  0  0  0
  7  3  1  0  0  0  0
  9 11  1  0  0  0  0
 10  9  2  0  0  0  0
 11  2  1  0  0  0  0
 12 11  1  0  0  0  0
 13 14  1  0  0  0  0
 14  9  1  0  0  0  0
 15 16  1  0  0  0  0
 15 14  2  0  0  0  0
 17 15  1  0  0  0  0
 18 17  1  0  0  0  0
 19 18  1  0  0  0  0
 20 21  2  0  0  0  0
 20 18  1  0  0  0  0
 21 23  1  0  0  0  0
 22 21  1  0  0  0  0
 23 17  2  0  0  0  0
 23 24  1  0  0  0  0
 24 13  2  0  0  0  0
 25  1  1  0  0  0  0
 26 27  1  0  0  0  0
 27 28  2  0  0  0  0
 27 25  1  0  0  0  0
 28 32  1  0  0  0  0
 29 33  1  0  0  0  0
 29 28  1  0  0  0  0
 30 29  2  0  0  0  0
 31 26  2  0  0  0  0
 31 30  1  0  0  0  0
 34 30  1  0  0  0  0
 35 31  1  0  0  0  0
 36 35  2  0  0  0  0
 36 40  1  0  0  0  0
 37 36  1  0  0  0  0
 38 37  2  0  0  0  0
 38 39  1  0  0  0  0
 39 35  1  0  0  0  0
 41 37  1  0  0  0  0
 42 38  1  0  0  0  0
 43 44  3  0  0  0  0
 44 26  1  0  0  0  0
M  END
>  <minimizedAffinity>
-6.34356022

>  <minimizedRMSD>
0.446068227

$$$$
