
 OpenBabel03272506463D

 45 49  0  0  1  0  0  0  0  0999 V2000
   30.4590   27.0860   45.6220 O   0  0  0  0  0  0  0  0  0  0  0  0
   31.5730   28.4080   47.3170 C   0  0  2  0  0  0  0  0  0  0  0  0
   32.7670   28.0160   48.1330 C   0  0  1  0  0  0  0  0  0  0  0  0
   32.8930   26.6610   48.0730 O   0  0  0  0  0  0  0  0  0  0  0  0
   32.0740   26.1720   47.0600 C   0  0  0  0  0  0  0  0  0  0  0  0
   31.6860   27.3350   46.1870 C   0  0  1  0  0  0  0  0  0  0  0  0
   30.6090   28.3530   47.8100 H   0  0  0  0  0  0  0  0  0  0  0  0
   32.7040   28.4290   49.1590 H   0  0  0  0  0  0  0  0  0  0  0  0
   31.2720   25.6220   47.5240 H   0  0  0  0  0  0  0  0  0  0  0  0
   32.7520   25.5260   46.4380 H   0  0  0  0  0  0  0  0  0  0  0  0
   32.4800   27.7030   45.5460 H   0  0  0  0  0  0  0  0  0  0  0  0
   31.7530   29.6890   46.7550 O   0  0  0  0  0  0  0  0  0  0  0  0
   32.5110   29.6120   46.1200 H   0  0  0  0  0  0  0  0  0  0  0  0
   34.2490   28.7640   47.3410 S   0  0  0  0  0  0  0  0  0  0  0  0
   36.1160   29.3930   50.7810 C   0  0  0  0  0  0  0  0  0  0  0  0
   36.8120   30.5920   50.5940 C   0  0  0  0  0  0  0  0  0  0  0  0
   36.7020   31.2270   49.3680 C   0  0  0  0  0  0  0  0  0  0  0  0
   35.9240   30.6580   48.4000 N   0  0  0  0  0  0  0  0  0  0  0  0
   35.2660   29.4990   48.6180 C   0  0  0  0  0  0  0  0  0  0  0  0
   35.3520   28.8500   49.8070 N   0  0  0  0  0  0  0  0  0  0  0  0
   36.1410   28.8280   51.7010 H   0  0  0  0  0  0  0  0  0  0  0  0
   37.4100   30.9850   51.4040 H   0  0  0  0  0  0  0  0  0  0  0  0
   37.2130   32.1440   49.1750 H   0  0  0  0  0  0  0  0  0  0  0  0
   29.5350   29.5510   44.3050 Cl  0  0  0  0  0  0  0  0  0  0  0  0
   28.7500   28.6270   45.5620 C   0  0  0  0  0  0  0  0  0  0  0  0
   29.2790   27.4760   46.0950 C   0  0  0  0  0  0  0  0  0  0  0  0
   28.5440   26.8090   47.0800 C   0  0  0  0  0  0  0  0  0  0  0  0
   27.3250   27.3000   47.4980 C   0  0  0  0  0  0  0  0  0  0  0  0
   26.7840   28.4580   46.9680 C   0  0  0  0  0  0  0  0  0  0  0  0
   27.5130   29.1230   45.9880 C   0  0  0  0  0  0  0  0  0  0  0  0
   28.8800   25.9000   47.5470 H   0  0  0  0  0  0  0  0  0  0  0  0
   26.7640   26.7870   48.2530 H   0  0  0  0  0  0  0  0  0  0  0  0
   25.8290   28.8380   47.2990 H   0  0  0  0  0  0  0  0  0  0  0  0
   26.7950   31.3810   46.3600 C   0  0  0  0  0  3  0  0  0  0  0  0
   26.9250   30.3220   45.4540 C   0  0  0  0  0  0  0  0  0  0  0  0
   26.4740   30.5630   44.1770 C   0  0  0  0  0  0  0  0  0  0  0  0
   26.5730   29.7540   43.4950 H   0  0  0  0  0  0  0  0  0  0  0  0
   25.9250   31.7690   43.7980 C   0  0  0  0  0  0  0  0  0  0  0  0
   25.4400   32.1700   42.6100 N   0  0  0  0  0  0  0  0  0  0  0  0
   25.4170   31.5670   41.7540 H   0  0  0  0  0  0  0  0  0  0  0  0
   25.0340   33.4160   42.7870 N   0  0  0  0  0  0  0  0  0  0  0  0
   25.2410   33.8270   44.0420 C   0  0  0  0  0  0  0  0  0  0  0  0
   25.0220   34.7800   44.4960 H   0  0  0  0  0  0  0  0  0  0  0  0
   25.8200   32.7810   44.7300 C   0  0  0  0  0  0  0  0  0  0  0  0
   26.2530   32.6070   46.0310 C   0  0  0  0  0  3  0  0  0  0  0  0
  1 26  1  0  0  0  0
  1  6  1  0  0  0  0
  2  7  1  1  0  0  0
  2  3  1  0  0  0  0
  3  8  1  1  0  0  0
  4  3  1  0  0  0  0
  5  9  1  0  0  0  0
  5  4  1  0  0  0  0
  6 11  1  6  0  0  0
  6  5  1  0  0  0  0
  6  2  1  0  0  0  0
 10  5  1  0  0  0  0
 12  2  1  0  0  0  0
 13 12  1  0  0  0  0
 14  3  1  0  0  0  0
 14 19  1  0  0  0  0
 15 21  1  0  0  0  0
 16 15  1  0  0  0  0
 16 22  1  0  0  0  0
 17 16  2  0  0  0  0
 18 19  2  0  0  0  0
 18 17  1  0  0  0  0
 19 20  1  0  0  0  0
 20 15  2  0  0  0  0
 23 17  1  0  0  0  0
 24 25  1  0  0  0  0
 25 30  2  0  0  0  0
 25 26  1  0  0  0  0
 26 27  2  0  0  0  0
 27 28  1  0  0  0  0
 27 31  1  0  0  0  0
 28 32  1  0  0  0  0
 29 33  1  0  0  0  0
 29 28  2  0  0  0  0
 30 29  1  0  0  0  0
 35 30  1  0  0  0  0
 35 34  2  0  0  0  0
 36 35  1  0  0  0  0
 37 36  1  0  0  0  0
 38 36  2  0  0  0  0
 38 44  1  0  0  0  0
 39 41  1  0  0  0  0
 39 38  1  0  0  0  0
 40 39  1  0  0  0  0
 41 42  2  0  0  0  0
 42 43  1  0  0  0  0
 42 44  1  0  0  0  0
 44 45  2  0  0  0  0
 45 34  1  0  0  0  0
M  END
>  <minimizedAffinity>
-6.22880602

>  <minimizedRMSD>
1.06498778

$$$$
