
 OpenBabel03272507423D

 44 48  0  0  0  0  0  0  0  0999 V2000
   36.7950   31.2080   50.1200 C   0  0  0  0  0  0  0  0  0  0  0  0
   35.7520   30.3200   49.8760 C   0  0  0  0  0  0  0  0  0  0  0  0
   35.5660   29.1810   50.6270 C   0  0  0  0  0  0  0  0  0  0  0  0
   36.4580   28.9570   51.6310 N   0  0  0  0  0  0  0  0  0  0  0  0
   37.4810   29.8300   51.8670 C   0  0  0  0  0  0  0  0  0  0  0  0
   37.6280   30.9170   51.1230 N   0  0  0  0  0  0  0  0  0  0  0  0
   34.7990   28.4590   50.5060 H   0  0  0  0  0  0  0  0  0  0  0  0
   38.1720   29.6180   52.6760 H   0  0  0  0  0  0  0  0  0  0  0  0
   34.3310   29.3410   48.1120 C   0  0  0  0  0  0  0  0  0  0  0  0
   34.7420   28.1210   48.0620 O   0  0  0  0  0  0  0  0  0  0  0  0
   34.7820   30.4510   48.8620 N   0  0  0  0  0  0  0  0  0  0  0  0
   34.4630   31.4290   48.7480 H   0  0  0  0  0  0  0  0  0  0  0  0
   32.2240   28.5650   47.0290 C   0  0  0  0  0  3  0  0  0  0  0  0
   33.1980   29.5250   47.2050 C   0  0  0  0  0  0  0  0  0  0  0  0
   32.9910   30.6600   46.4500 C   0  0  0  0  0  0  0  0  0  0  0  0
   33.6850   31.4850   46.5010 H   0  0  0  0  0  0  0  0  0  0  0  0
   31.9390   30.8720   45.5870 C   0  0  0  0  0  0  0  0  0  0  0  0
   31.5660   31.8810   44.7790 N   0  0  0  0  0  0  0  0  0  0  0  0
   32.0570   32.7830   44.6440 H   0  0  0  0  0  0  0  0  0  0  0  0
   30.4470   31.5350   44.1680 N   0  0  0  0  0  0  0  0  0  0  0  0
   30.0530   30.3110   44.5460 C   0  0  0  0  0  0  0  0  0  0  0  0
   29.2000   29.7360   44.2480 H   0  0  0  0  0  0  0  0  0  0  0  0
   30.9960   29.8750   45.4520 C   0  0  0  0  0  0  0  0  0  0  0  0
   31.1290   28.7070   46.1720 C   0  0  0  0  0  3  0  0  0  0  0  0
   36.8050   32.2630   49.2760 O   0  0  0  0  0  0  0  0  0  0  0  0
   38.2590   32.2520   47.2820 C   0  0  0  0  0  0  0  0  0  0  0  0
   37.8980   32.6830   48.5510 C   0  0  0  0  0  0  0  0  0  0  0  0
   38.6700   33.6240   49.2030 C   0  0  0  0  0  0  0  0  0  0  0  0
   39.8050   34.1380   48.5900 C   0  0  0  0  0  0  0  0  0  0  0  0
   40.1580   33.7020   47.3250 C   0  0  0  0  0  0  0  0  0  0  0  0
   39.3710   32.7670   46.7060 C   0  0  0  0  0  0  0  0  0  0  0  0
   38.4500   34.0050   50.1890 H   0  0  0  0  0  0  0  0  0  0  0  0
   40.4240   34.8790   49.0890 H   0  0  0  0  0  0  0  0  0  0  0  0
   41.0350   34.0750   46.8070 H   0  0  0  0  0  0  0  0  0  0  0  0
   39.7610   32.3080   45.3490 C   0  0  0  0  0  0  0  0  0  0  0  0
   40.5940   31.2750   44.9780 C   0  0  0  0  0  0  0  0  0  0  0  0
   40.6340   31.2560   43.5870 C   0  0  0  0  0  0  0  0  0  0  0  0
   39.8080   32.2950   43.1920 C   0  0  0  0  0  0  0  0  0  0  0  0
   39.3040   32.9030   44.2530 O   0  0  0  0  0  0  0  0  0  0  0  0
   41.1000   30.6270   45.6970 H   0  0  0  0  0  0  0  0  0  0  0  0
   41.1940   30.5680   42.9930 H   0  0  0  0  0  0  0  0  0  0  0  0
   39.5930   32.5860   42.1730 H   0  0  0  0  0  0  0  0  0  0  0  0
   36.7420   30.4980   46.1580 N   0  0  0  0  0  0  0  0  0  0  0  0
   37.4140   31.2770   46.6700 C   0  0  0  0  0  0  0  0  0  0  0  0
  1  6  1  0  0  0  0
  2  1  2  0  0  0  0
  2  3  1  0  0  0  0
  3  4  2  0  0  0  0
  4  5  1  0  0  0  0
  5  8  1  0  0  0  0
  6  5  2  0  0  0  0
  7  3  1  0  0  0  0
  9 11  1  0  0  0  0
 10  9  2  0  0  0  0
 11  2  1  0  0  0  0
 12 11  1  0  0  0  0
 13 14  1  0  0  0  0
 14  9  1  0  0  0  0
 15 16  1  0  0  0  0
 15 14  2  0  0  0  0
 17 15  1  0  0  0  0
 18 17  1  0  0  0  0
 19 18  1  0  0  0  0
 20 21  2  0  0  0  0
 20 18  1  0  0  0  0
 21 23  1  0  0  0  0
 22 21  1  0  0  0  0
 23 17  2  0  0  0  0
 23 24  1  0  0  0  0
 24 13  2  0  0  0  0
 25  1  1  0  0  0  0
 26 27  1  0  0  0  0
 27 28  2  0  0  0  0
 27 25  1  0  0  0  0
 28 32  1  0  0  0  0
 29 33  1  0  0  0  0
 29 28  1  0  0  0  0
 30 29  2  0  0  0  0
 31 26  2  0  0  0  0
 31 30  1  0  0  0  0
 34 30  1  0  0  0  0
 35 31  1  0  0  0  0
 36 35  2  0  0  0  0
 36 40  1  0  0  0  0
 37 36  1  0  0  0  0
 38 37  2  0  0  0  0
 38 39  1  0  0  0  0
 39 35  1  0  0  0  0
 41 37  1  0  0  0  0
 42 38  1  0  0  0  0
 43 44  3  0  0  0  0
 44 26  1  0  0  0  0
M  END
>  <minimizedAffinity>
-6.3949995

>  <minimizedRMSD>
0.566957951

$$$$
