
 OpenBabel03272510243D

 35 39  0  0  0  0  0  0  0  0999 V2000
   36.0660   30.1320   46.9800 C   0  0  0  0  0  0  0  0  0  0  0  0
   36.9440   30.6730   47.9040 C   0  0  0  0  0  0  0  0  0  0  0  0
   37.9400   31.5520   47.5040 C   0  0  0  0  0  0  0  0  0  0  0  0
   38.0010   31.8510   46.1390 C   0  0  0  0  0  0  0  0  0  0  0  0
   38.8730   32.6740   45.5030 N   0  0  0  0  0  0  0  0  0  0  0  0
   38.5510   32.6520   44.2030 C   0  0  0  0  0  0  0  0  0  0  0  0
   37.5090   31.8480   43.9980 N   0  0  0  0  0  0  0  0  0  0  0  0
   37.1460   31.3340   45.1900 C   0  0  0  0  0  0  0  0  0  0  0  0
   36.1540   30.4530   45.6240 C   0  0  0  0  0  0  0  0  0  0  0  0
   35.3000   29.4570   47.2880 H   0  0  0  0  0  0  0  0  0  0  0  0
   38.6140   31.9650   48.2190 H   0  0  0  0  0  0  0  0  0  0  0  0
   39.6550   33.2230   45.9540 H   0  0  0  0  0  0  0  0  0  0  0  0
   35.4650   30.0290   44.8970 H   0  0  0  0  0  0  0  0  0  0  0  0
   37.4250   30.1180   51.5920 C   0  0  0  0  0  0  0  0  0  0  0  0
   37.7080   30.5430   50.3050 C   0  0  0  0  0  0  0  0  0  0  0  0
   36.7870   30.2900   49.3010 C   0  0  0  0  0  0  0  0  0  0  0  0
   35.6350   29.6260   49.6410 N   0  0  0  0  0  0  0  0  0  0  0  0
   35.3980   29.2300   50.9070 C   0  0  0  0  0  0  0  0  0  0  0  0
   36.2770   29.4720   51.8640 N   0  0  0  0  0  0  0  0  0  0  0  0
   38.1990   30.3560   52.3250 H   0  0  0  0  0  0  0  0  0  0  0  0
   38.6180   31.0710   50.0150 H   0  0  0  0  0  0  0  0  0  0  0  0
   34.4790   28.7020   51.1730 H   0  0  0  0  0  0  0  0  0  0  0  0
   39.2580   33.3970   43.2560 O   0  0  0  0  0  0  0  0  0  0  0  0
   38.5970   33.9100   41.0860 C   0  0  0  0  0  0  0  0  0  0  0  0
   39.2220   32.9950   41.9340 C   0  0  0  0  0  0  0  0  0  0  0  0
   39.7200   31.8240   41.3600 C   0  0  0  0  0  0  0  0  0  0  0  0
   40.1830   31.1740   42.0650 H   0  0  0  0  0  0  0  0  0  0  0  0
   39.5760   31.6220   40.0060 C   0  0  0  0  0  0  0  0  0  0  0  0
   39.9780   30.5770   39.2620 N   0  0  0  0  0  0  0  0  0  0  0  0
   40.4780   29.7180   39.5810 H   0  0  0  0  0  0  0  0  0  0  0  0
   39.6400   30.7820   37.9890 N   0  0  0  0  0  0  0  0  0  0  0  0
   39.0130   31.9620   37.8800 C   0  0  0  0  0  0  0  0  0  0  0  0
   38.5800   32.5100   37.0540 H   0  0  0  0  0  0  0  0  0  0  0  0
   38.9620   32.5150   39.1570 C   0  0  0  0  0  0  0  0  0  0  0  0
   38.4630   33.6890   39.7320 C   0  0  0  0  0  0  0  0  0  0  0  0
  1 10  1  0  0  0  0
  1  2  1  0  0  0  0
  2 16  1  0  0  0  0
  3  2  2  0  0  0  0
  3 11  1  0  0  0  0
  4  3  1  0  0  0  0
  5 12  1  0  0  0  0
  5  4  1  0  0  0  0
  6  5  1  0  0  0  0
  7  6  2  0  0  0  0
  7  8  1  0  0  0  0
  8  9  1  0  0  0  0
  8  4  2  0  0  0  0
  9  1  2  0  0  0  0
 13  9  1  0  0  0  0
 14 19  1  0  0  0  0
 14 20  1  0  0  0  0
 15 14  2  0  0  0  0
 16 17  2  0  0  0  0
 16 15  1  0  0  0  0
 17 18  1  0  0  0  0
 18 22  1  0  0  0  0
 18 19  2  0  0  0  0
 21 15  1  0  0  0  0
 23  6  1  0  0  0  0
 24 25  1  0  0  0  0
 25 23  1  0  0  0  0
 26 25  2  0  0  0  0
 26 27  1  0  0  0  0
 28 26  1  0  0  0  0
 29 30  1  0  0  0  0
 29 28  1  0  0  0  0
 31 29  1  0  0  0  0
 32 31  2  0  0  0  0
 32 34  1  0  0  0  0
 33 32  1  0  0  0  0
 34 35  1  0  0  0  0
 34 28  2  0  0  0  0
 35 24  2  0  0  0  0
M  END
>  <minimizedAffinity>
-5.73860836

>  <minimizedRMSD>
1.69081593

$$$$
