
 OpenBabel03272510243D

 35 39  0  0  0  0  0  0  0  0999 V2000
   35.9520   30.0490   46.6460 C   0  0  0  0  0  0  0  0  0  0  0  0
   36.8970   30.6640   47.4490 C   0  0  0  0  0  0  0  0  0  0  0  0
   37.8320   31.5320   46.9060 C   0  0  0  0  0  0  0  0  0  0  0  0
   37.7610   31.7450   45.5250 C   0  0  0  0  0  0  0  0  0  0  0  0
   38.5530   32.5400   44.7610 N   0  0  0  0  0  0  0  0  0  0  0  0
   38.1150   32.4290   43.5000 C   0  0  0  0  0  0  0  0  0  0  0  0
   37.0780   31.5950   43.4420 N   0  0  0  0  0  0  0  0  0  0  0  0
   36.8360   31.1530   44.6930 C   0  0  0  0  0  0  0  0  0  0  0  0
   35.9090   30.2840   45.2700 C   0  0  0  0  0  0  0  0  0  0  0  0
   35.2330   29.3820   47.0650 H   0  0  0  0  0  0  0  0  0  0  0  0
   38.5580   32.0020   47.5280 H   0  0  0  0  0  0  0  0  0  0  0  0
   39.3590   33.1310   45.1030 H   0  0  0  0  0  0  0  0  0  0  0  0
   35.1670   29.8020   44.6380 H   0  0  0  0  0  0  0  0  0  0  0  0
   37.6990   30.3990   51.1140 C   0  0  0  0  0  0  0  0  0  0  0  0
   37.8510   30.7520   49.7830 C   0  0  0  0  0  0  0  0  0  0  0  0
   36.8770   30.3680   48.8770 C   0  0  0  0  0  0  0  0  0  0  0  0
   35.8060   29.6520   49.3500 N   0  0  0  0  0  0  0  0  0  0  0  0
   35.6970   29.3290   50.6540 C   0  0  0  0  0  0  0  0  0  0  0  0
   36.6260   29.6960   51.5190 N   0  0  0  0  0  0  0  0  0  0  0  0
   38.5080   30.7390   51.7650 H   0  0  0  0  0  0  0  0  0  0  0  0
   38.6950   31.3200   49.3870 H   0  0  0  0  0  0  0  0  0  0  0  0
   34.8420   28.7600   51.0270 H   0  0  0  0  0  0  0  0  0  0  0  0
   38.7150   33.1240   42.4480 O   0  0  0  0  0  0  0  0  0  0  0  0
   38.5950   33.6400   40.1840 C   0  0  0  0  0  3  0  0  0  0  0  0
   37.9220   33.5620   41.4040 C   0  0  0  0  0  0  0  0  0  0  0  0
   36.5740   33.9240   41.4170 C   0  0  0  0  0  0  0  0  0  0  0  0
   36.1260   33.8390   42.3810 H   0  0  0  0  0  0  0  0  0  0  0  0
   35.9730   34.3360   40.2500 C   0  0  0  0  0  0  0  0  0  0  0  0
   34.7030   34.7230   40.0450 N   0  0  0  0  0  0  0  0  0  0  0  0
   33.9320   34.7830   40.7460 H   0  0  0  0  0  0  0  0  0  0  0  0
   34.5360   35.0430   38.7630 N   0  0  0  0  0  0  0  0  0  0  0  0
   35.6930   34.8700   38.1070 C   0  0  0  0  0  0  0  0  0  0  0  0
   36.0040   35.0050   37.0800 H   0  0  0  0  0  0  0  0  0  0  0  0
   36.6240   34.4190   39.0370 C   0  0  0  0  0  0  0  0  0  0  0  0
   37.9760   34.0560   39.0250 C   0  0  0  0  0  3  0  0  0  0  0  0
  1 10  1  0  0  0  0
  1  2  1  0  0  0  0
  2 16  1  0  0  0  0
  3  2  2  0  0  0  0
  3 11  1  0  0  0  0
  4  3  1  0  0  0  0
  5 12  1  0  0  0  0
  5  4  1  0  0  0  0
  6  5  1  0  0  0  0
  7  6  2  0  0  0  0
  7  8  1  0  0  0  0
  8  9  1  0  0  0  0
  8  4  2  0  0  0  0
  9  1  2  0  0  0  0
 13  9  1  0  0  0  0
 14 19  1  0  0  0  0
 14 20  1  0  0  0  0
 15 14  2  0  0  0  0
 16 17  2  0  0  0  0
 16 15  1  0  0  0  0
 17 18  1  0  0  0  0
 18 22  1  0  0  0  0
 18 19  2  0  0  0  0
 21 15  1  0  0  0  0
 23  6  1  0  0  0  0
 24 25  1  0  0  0  0
 25 26  2  0  0  0  0
 25 23  1  0  0  0  0
 26 27  1  0  0  0  0
 28 26  1  0  0  0  0
 29 28  1  0  0  0  0
 29 30  1  0  0  0  0
 31 29  1  0  0  0  0
 32 31  2  0  0  0  0
 32 34  1  0  0  0  0
 33 32  1  0  0  0  0
 34 28  2  0  0  0  0
 35 34  1  0  0  0  0
 35 24  2  0  0  0  0
M  END
>  <minimizedAffinity>
-5.58257008

>  <minimizedRMSD>
2.60059905

$$$$
