
 OpenBabel03262521473D

 33 35  0  0  0  0  0  0  0  0999 V2000
   34.7250   30.6380   49.2800 O   0  0  0  0  0  0  0  0  0  0  0  0
   34.4990   29.4490   50.1990 P   0  0  2  0  0  0  0  0  0  0  0  0
   33.0370   29.7250   50.9800 O   0  0  0  0  0  0  0  0  0  0  0  0
   33.1010   29.3600   51.8910 H   0  0  0  0  0  0  0  0  0  0  0  0
   35.7840   29.3830   51.3060 O   0  0  0  0  0  0  0  0  0  0  0  0
   37.0110   29.2470   50.6460 C   0  0  0  0  0  0  0  0  0  0  0  0
   36.8560   29.0620   49.5810 H   0  0  0  0  0  0  0  0  0  0  0  0
   37.5530   28.3480   51.0520 H   0  0  0  0  0  0  0  0  0  0  0  0
   37.7810   30.5100   50.8370 C   0  0  0  0  0  0  0  0  0  0  0  0
   38.7210   30.2770   51.4080 H   0  0  0  0  0  0  0  0  0  0  0  0
   37.2430   31.2490   51.4940 H   0  0  0  0  0  0  0  0  0  0  0  0
   38.1380   31.2150   49.6030 C   0  0  0  0  0  0  0  0  0  0  0  0
   38.5710   32.5370   49.5990 C   0  0  0  0  0  0  0  0  0  0  0  0
   38.8840   33.1030   48.3550 C   0  0  0  0  0  0  0  0  0  0  0  0
   38.7510   32.3380   47.2260 N   0  0  0  0  0  0  0  0  0  0  0  0
   38.3190   31.0400   47.2920 C   0  0  0  0  0  0  0  0  0  0  0  0
   38.0150   30.4870   48.4860 N   0  0  0  0  0  0  0  0  0  0  0  0
   38.6570   33.0930   50.5200 H   0  0  0  0  0  0  0  0  0  0  0  0
   39.2260   34.1280   48.2930 H   0  0  0  0  0  0  0  0  0  0  0  0
   38.2350   30.4860   46.3630 H   0  0  0  0  0  0  0  0  0  0  0  0
   34.3880   28.0260   49.3110 O   0  0  0  0  0  0  0  0  0  0  0  0
   32.1990   27.6500   48.4240 C   0  0  0  0  0  3  0  0  0  0  0  0
   33.5260   27.9860   48.2220 C   0  0  0  0  0  0  0  0  0  0  0  0
   33.8810   28.2600   46.9220 C   0  0  0  0  0  0  0  0  0  0  0  0
   34.9110   28.5260   46.7390 H   0  0  0  0  0  0  0  0  0  0  0  0
   32.9560   28.1970   45.8940 C   0  0  0  0  0  0  0  0  0  0  0  0
   33.0840   28.4180   44.5900 N   0  0  0  0  0  0  0  0  0  0  0  0
   33.9310   28.6980   44.0230 H   0  0  0  0  0  0  0  0  0  0  0  0
   31.9010   28.2330   43.9900 N   0  0  0  0  0  0  0  0  0  0  0  0
   30.9860   27.8830   44.9270 C   0  0  0  0  0  0  0  0  0  0  0  0
   29.9200   27.6560   44.7940 H   0  0  0  0  0  0  0  0  0  0  0  0
   31.6320   27.8530   46.1450 C   0  0  0  0  0  0  0  0  0  0  0  0
   31.2410   27.5750   47.4240 C   0  0  0  0  0  3  0  0  0  0  0  0
  2  1  2  6  0  0  0
  2  3  1  0  0  0  0
  2  5  1  0  0  0  0
  3  4  1  0  0  0  0
  6  9  1  0  0  0  0
  6  8  1  0  0  0  0
  6  5  1  0  0  0  0
  7  6  1  0  0  0  0
  9 10  1  0  0  0  0
  9 11  1  0  0  0  0
 12  9  1  0  0  0  0
 13 12  1  0  0  0  0
 13 18  1  0  0  0  0
 14 13  2  0  0  0  0
 15 16  2  0  0  0  0
 15 14  1  0  0  0  0
 16 17  1  0  0  0  0
 17 12  2  0  0  0  0
 19 14  1  0  0  0  0
 20 16  1  0  0  0  0
 21  2  1  0  0  0  0
 23 22  1  0  0  0  0
 23 21  1  0  0  0  0
 24 23  2  0  0  0  0
 25 24  1  0  0  0  0
 26 32  2  0  0  0  0
 26 24  1  0  0  0  0
 27 26  1  0  0  0  0
 28 27  1  0  0  0  0
 29 27  1  0  0  0  0
 29 30  2  0  0  0  0
 30 32  1  0  0  0  0
 31 30  1  0  0  0  0
 32 33  1  0  0  0  0
 33 22  2  0  0  0  0
M  END
>  <minimizedAffinity>
-5.3930645

>  <minimizedRMSD>
0.876146495

$$$$
