
 OpenBabel03272510243D

 35 39  0  0  0  0  0  0  0  0999 V2000
   35.8370   30.0480   46.9710 C   0  0  0  0  0  0  0  0  0  0  0  0
   36.8180   30.5780   47.7930 C   0  0  0  0  0  0  0  0  0  0  0  0
   37.8110   31.3950   47.2740 C   0  0  0  0  0  0  0  0  0  0  0  0
   37.7610   31.6450   45.8980 C   0  0  0  0  0  0  0  0  0  0  0  0
   38.6080   32.4040   45.1560 N   0  0  0  0  0  0  0  0  0  0  0  0
   38.1680   32.3540   43.8920 C   0  0  0  0  0  0  0  0  0  0  0  0
   37.0790   31.5920   43.8100 N   0  0  0  0  0  0  0  0  0  0  0  0
   36.8020   31.1370   45.0490 C   0  0  0  0  0  0  0  0  0  0  0  0
   35.8170   30.3180   45.6020 C   0  0  0  0  0  0  0  0  0  0  0  0
   35.0740   29.4210   47.3720 H   0  0  0  0  0  0  0  0  0  0  0  0
   38.5640   31.8000   47.9090 H   0  0  0  0  0  0  0  0  0  0  0  0
   39.4500   32.9310   45.5150 H   0  0  0  0  0  0  0  0  0  0  0  0
   35.0470   29.9030   44.9560 H   0  0  0  0  0  0  0  0  0  0  0  0
   37.5840   30.1720   51.4520 C   0  0  0  0  0  0  0  0  0  0  0  0
   37.7650   30.5460   50.1310 C   0  0  0  0  0  0  0  0  0  0  0  0
   36.7710   30.2500   49.2120 C   0  0  0  0  0  0  0  0  0  0  0  0
   35.6530   29.5950   49.6650 N   0  0  0  0  0  0  0  0  0  0  0  0
   35.5170   29.2490   50.9600 C   0  0  0  0  0  0  0  0  0  0  0  0
   36.4650   29.5320   51.8360 N   0  0  0  0  0  0  0  0  0  0  0  0
   38.4110   30.4410   52.1130 H   0  0  0  0  0  0  0  0  0  0  0  0
   38.6470   31.0660   49.7510 H   0  0  0  0  0  0  0  0  0  0  0  0
   34.6240   28.7300   51.3160 H   0  0  0  0  0  0  0  0  0  0  0  0
   38.8190   33.0330   42.8580 O   0  0  0  0  0  0  0  0  0  0  0  0
   38.9290   32.6900   40.5610 C   0  0  0  0  0  3  0  0  0  0  0  0
   39.3710   32.2980   41.8260 C   0  0  0  0  0  0  0  0  0  0  0  0
   40.2850   31.2460   41.8880 C   0  0  0  0  0  0  0  0  0  0  0  0
   40.5760   31.0010   42.8840 H   0  0  0  0  0  0  0  0  0  0  0  0
   40.7080   30.6470   40.7240 C   0  0  0  0  0  0  0  0  0  0  0  0
   41.5730   29.6320   40.5620 N   0  0  0  0  0  0  0  0  0  0  0  0
   42.0870   29.1060   41.3010 H   0  0  0  0  0  0  0  0  0  0  0  0
   41.7040   29.3610   39.2630 N   0  0  0  0  0  0  0  0  0  0  0  0
   40.9260   30.1940   38.5550 C   0  0  0  0  0  0  0  0  0  0  0  0
   40.7300   30.3230   37.4990 H   0  0  0  0  0  0  0  0  0  0  0  0
   40.2820   31.0240   39.4680 C   0  0  0  0  0  0  0  0  0  0  0  0
   39.3650   32.0790   39.4060 C   0  0  0  0  0  3  0  0  0  0  0  0
  1 10  1  0  0  0  0
  1  2  1  0  0  0  0
  2 16  1  0  0  0  0
  3  2  2  0  0  0  0
  3 11  1  0  0  0  0
  4  3  1  0  0  0  0
  5 12  1  0  0  0  0
  5  4  1  0  0  0  0
  6  5  1  0  0  0  0
  7  6  2  0  0  0  0
  7  8  1  0  0  0  0
  8  9  1  0  0  0  0
  8  4  2  0  0  0  0
  9  1  2  0  0  0  0
 13  9  1  0  0  0  0
 14 19  1  0  0  0  0
 14 20  1  0  0  0  0
 15 14  2  0  0  0  0
 16 17  2  0  0  0  0
 16 15  1  0  0  0  0
 17 18  1  0  0  0  0
 18 22  1  0  0  0  0
 18 19  2  0  0  0  0
 21 15  1  0  0  0  0
 23  6  1  0  0  0  0
 24 25  1  0  0  0  0
 25 26  2  0  0  0  0
 25 23  1  0  0  0  0
 26 27  1  0  0  0  0
 28 26  1  0  0  0  0
 29 28  1  0  0  0  0
 29 30  1  0  0  0  0
 31 29  1  0  0  0  0
 32 31  2  0  0  0  0
 32 34  1  0  0  0  0
 33 32  1  0  0  0  0
 34 28  2  0  0  0  0
 35 34  1  0  0  0  0
 35 24  2  0  0  0  0
M  END
>  <minimizedAffinity>
-5.71558571

>  <minimizedRMSD>
2.54057765

$$$$
