
 OpenBabel03272510243D

 35 39  0  0  0  0  0  0  0  0999 V2000
   35.1610   29.8500   47.1650 C   0  0  0  0  0  0  0  0  0  0  0  0
   36.4090   30.2530   47.6080 C   0  0  0  0  0  0  0  0  0  0  0  0
   37.3630   30.7140   46.7140 C   0  0  0  0  0  0  0  0  0  0  0  0
   36.9940   30.7480   45.3650 C   0  0  0  0  0  0  0  0  0  0  0  0
   37.7380   31.1540   44.3050 N   0  0  0  0  0  0  0  0  0  0  0  0
   36.9730   31.0100   43.2150 C   0  0  0  0  0  0  0  0  0  0  0  0
   35.7770   30.5290   43.5490 N   0  0  0  0  0  0  0  0  0  0  0  0
   35.7630   30.3560   44.8860 C   0  0  0  0  0  0  0  0  0  0  0  0
   34.8240   29.8960   45.8110 C   0  0  0  0  0  0  0  0  0  0  0  0
   34.4280   29.4950   47.8540 H   0  0  0  0  0  0  0  0  0  0  0  0
   38.3230   31.0230   47.0600 H   0  0  0  0  0  0  0  0  0  0  0  0
   38.7310   31.5130   44.3410 H   0  0  0  0  0  0  0  0  0  0  0  0
   33.8440   29.5800   45.4610 H   0  0  0  0  0  0  0  0  0  0  0  0
   37.9240   30.5680   51.0360 C   0  0  0  0  0  0  0  0  0  0  0  0
   37.7920   30.7210   49.6660 C   0  0  0  0  0  0  0  0  0  0  0  0
   36.6850   30.1750   49.0380 C   0  0  0  0  0  0  0  0  0  0  0  0
   35.7720   29.5050   49.8130 N   0  0  0  0  0  0  0  0  0  0  0  0
   35.9390   29.3790   51.1450 C   0  0  0  0  0  0  0  0  0  0  0  0
   36.9940   29.9010   51.7440 N   0  0  0  0  0  0  0  0  0  0  0  0
   38.8210   31.0270   51.4560 H   0  0  0  0  0  0  0  0  0  0  0  0
   38.5060   31.2490   49.0320 H   0  0  0  0  0  0  0  0  0  0  0  0
   35.2090   28.8460   51.7590 H   0  0  0  0  0  0  0  0  0  0  0  0
   37.4390   31.3400   41.9400 O   0  0  0  0  0  0  0  0  0  0  0  0
   36.5010   33.4610   41.7790 C   0  0  0  0  0  3  0  0  0  0  0  0
   36.7010   32.2210   41.1710 C   0  0  0  0  0  0  0  0  0  0  0  0
   36.1500   32.0300   39.9040 C   0  0  0  0  0  0  0  0  0  0  0  0
   36.3430   31.0610   39.5030 H   0  0  0  0  0  0  0  0  0  0  0  0
   35.4430   33.0520   39.3130 C   0  0  0  0  0  0  0  0  0  0  0  0
   34.8380   33.0770   38.1120 N   0  0  0  0  0  0  0  0  0  0  0  0
   34.7950   32.3140   37.4030 H   0  0  0  0  0  0  0  0  0  0  0  0
   34.2660   34.2660   37.9280 N   0  0  0  0  0  0  0  0  0  0  0  0
   34.4870   35.0370   39.0020 C   0  0  0  0  0  0  0  0  0  0  0  0
   34.2120   36.0490   39.2720 H   0  0  0  0  0  0  0  0  0  0  0  0
   35.2370   34.2830   39.8990 C   0  0  0  0  0  0  0  0  0  0  0  0
   35.7900   34.4740   41.1700 C   0  0  0  0  0  3  0  0  0  0  0  0
  1  2  1  0  0  0  0
  1 10  1  0  0  0  0
  2 16  1  0  0  0  0
  3 11  1  0  0  0  0
  3  2  2  0  0  0  0
  4  3  1  0  0  0  0
  5 12  1  0  0  0  0
  5  4  1  0  0  0  0
  6  7  2  0  0  0  0
  6  5  1  0  0  0  0
  7  8  1  0  0  0  0
  8  4  2  0  0  0  0
  8  9  1  0  0  0  0
  9  1  2  0  0  0  0
 13  9  1  0  0  0  0
 14 20  1  0  0  0  0
 14 19  1  0  0  0  0
 15 14  2  0  0  0  0
 16 15  1  0  0  0  0
 16 17  2  0  0  0  0
 17 18  1  0  0  0  0
 18 19  2  0  0  0  0
 18 22  1  0  0  0  0
 21 15  1  0  0  0  0
 23  6  1  0  0  0  0
 25 24  1  0  0  0  0
 25 23  1  0  0  0  0
 26 25  2  0  0  0  0
 27 26  1  0  0  0  0
 28 34  2  0  0  0  0
 28 26  1  0  0  0  0
 29 28  1  0  0  0  0
 30 29  1  0  0  0  0
 31 29  1  0  0  0  0
 31 32  2  0  0  0  0
 32 33  1  0  0  0  0
 32 34  1  0  0  0  0
 34 35  1  0  0  0  0
 35 24  2  0  0  0  0
M  END
>  <minimizedAffinity>
-5.0215497

>  <minimizedRMSD>
3.67635202

$$$$
