
 OpenBabel03262521473D

 33 35  0  0  0  0  0  0  0  0999 V2000
   34.7400   30.5010   49.1280 O   0  0  0  0  0  0  0  0  0  0  0  0
   34.5200   29.3830   50.1340 P   0  0  2  0  0  0  0  0  0  0  0  0
   33.0010   29.6410   50.8040 O   0  0  0  0  0  0  0  0  0  0  0  0
   33.0280   29.3580   51.7460 H   0  0  0  0  0  0  0  0  0  0  0  0
   35.7370   29.4830   51.3130 O   0  0  0  0  0  0  0  0  0  0  0  0
   37.0010   29.2750   50.7500 C   0  0  0  0  0  0  0  0  0  0  0  0
   36.9130   28.9970   49.6980 H   0  0  0  0  0  0  0  0  0  0  0  0
   37.5010   28.4100   51.2690 H   0  0  0  0  0  0  0  0  0  0  0  0
   37.7790   30.5410   50.8790 C   0  0  0  0  0  0  0  0  0  0  0  0
   38.7260   30.3270   51.4460 H   0  0  0  0  0  0  0  0  0  0  0  0
   37.2530   31.3090   51.5120 H   0  0  0  0  0  0  0  0  0  0  0  0
   38.1230   31.1930   49.6120 C   0  0  0  0  0  0  0  0  0  0  0  0
   38.5590   32.5110   49.5470 C   0  0  0  0  0  0  0  0  0  0  0  0
   38.8590   33.0240   48.2760 C   0  0  0  0  0  0  0  0  0  0  0  0
   38.7090   32.2140   47.1820 N   0  0  0  0  0  0  0  0  0  0  0  0
   38.2750   30.9200   47.3080 C   0  0  0  0  0  0  0  0  0  0  0  0
   37.9840   30.4190   48.5280 N   0  0  0  0  0  0  0  0  0  0  0  0
   38.6580   33.1060   50.4430 H   0  0  0  0  0  0  0  0  0  0  0  0
   39.2020   34.0440   48.1680 H   0  0  0  0  0  0  0  0  0  0  0  0
   38.1770   30.3290   46.4040 H   0  0  0  0  0  0  0  0  0  0  0  0
   34.5360   27.8860   49.3690 O   0  0  0  0  0  0  0  0  0  0  0  0
   33.8560   26.5160   47.5300 C   0  0  0  0  0  3  0  0  0  0  0  0
   33.8760   27.7520   48.1540 C   0  0  0  0  0  0  0  0  0  0  0  0
   33.2200   28.7640   47.4940 C   0  0  0  0  0  0  0  0  0  0  0  0
   33.2220   29.7370   47.9610 H   0  0  0  0  0  0  0  0  0  0  0  0
   32.5860   28.5430   46.2830 C   0  0  0  0  0  0  0  0  0  0  0  0
   31.9070   29.3650   45.4920 N   0  0  0  0  0  0  0  0  0  0  0  0
   31.6870   30.3930   45.5990 H   0  0  0  0  0  0  0  0  0  0  0  0
   31.4750   28.6920   44.4180 N   0  0  0  0  0  0  0  0  0  0  0  0
   31.8850   27.4020   44.5160 C   0  0  0  0  0  0  0  0  0  0  0  0
   31.7120   26.5720   43.8190 H   0  0  0  0  0  0  0  0  0  0  0  0
   32.5920   27.2840   45.6930 C   0  0  0  0  0  0  0  0  0  0  0  0
   33.2340   26.2510   46.3190 C   0  0  0  0  0  3  0  0  0  0  0  0
  2  1  2  6  0  0  0
  2  3  1  0  0  0  0
  2  5  1  0  0  0  0
  3  4  1  0  0  0  0
  6  9  1  0  0  0  0
  6  8  1  0  0  0  0
  6  5  1  0  0  0  0
  7  6  1  0  0  0  0
  9 10  1  0  0  0  0
  9 11  1  0  0  0  0
 12  9  1  0  0  0  0
 13 12  1  0  0  0  0
 13 18  1  0  0  0  0
 14 13  2  0  0  0  0
 15 16  2  0  0  0  0
 15 14  1  0  0  0  0
 16 17  1  0  0  0  0
 17 12  2  0  0  0  0
 19 14  1  0  0  0  0
 20 16  1  0  0  0  0
 21  2  1  0  0  0  0
 22 23  1  0  0  0  0
 23 21  1  0  0  0  0
 24 25  1  0  0  0  0
 24 23  2  0  0  0  0
 26 24  1  0  0  0  0
 27 28  1  0  0  0  0
 27 26  1  0  0  0  0
 29 30  2  0  0  0  0
 29 27  1  0  0  0  0
 30 32  1  0  0  0  0
 31 30  1  0  0  0  0
 32 26  2  0  0  0  0
 32 33  1  0  0  0  0
 33 22  2  0  0  0  0
M  END
>  <minimizedAffinity>
-5.35920143

>  <minimizedRMSD>
0.42172578

$$$$
