
 OpenBabel03262521473D

 33 35  0  0  0  0  0  0  0  0999 V2000
   34.7320   30.5420   49.1510 O   0  0  0  0  0  0  0  0  0  0  0  0
   34.4770   29.4150   50.1390 P   0  0  2  0  0  0  0  0  0  0  0  0
   33.0250   29.7750   50.9030 O   0  0  0  0  0  0  0  0  0  0  0  0
   33.0820   29.4620   51.8340 H   0  0  0  0  0  0  0  0  0  0  0  0
   35.7630   29.3780   51.2460 O   0  0  0  0  0  0  0  0  0  0  0  0
   36.9920   29.2590   50.5860 C   0  0  0  0  0  0  0  0  0  0  0  0
   36.8400   29.0950   49.5180 H   0  0  0  0  0  0  0  0  0  0  0  0
   37.5350   28.3530   50.9760 H   0  0  0  0  0  0  0  0  0  0  0  0
   37.7580   30.5190   50.8060 C   0  0  0  0  0  0  0  0  0  0  0  0
   38.6860   30.2810   51.3940 H   0  0  0  0  0  0  0  0  0  0  0  0
   37.2070   31.2530   51.4570 H   0  0  0  0  0  0  0  0  0  0  0  0
   38.1430   31.2350   49.5860 C   0  0  0  0  0  0  0  0  0  0  0  0
   38.5640   32.5600   49.6000 C   0  0  0  0  0  0  0  0  0  0  0  0
   38.9060   33.1360   48.3690 C   0  0  0  0  0  0  0  0  0  0  0  0
   38.8100   32.3780   47.2320 N   0  0  0  0  0  0  0  0  0  0  0  0
   38.3870   31.0750   47.2790 C   0  0  0  0  0  0  0  0  0  0  0  0
   38.0560   30.5120   48.4620 N   0  0  0  0  0  0  0  0  0  0  0  0
   38.6210   33.1120   50.5270 H   0  0  0  0  0  0  0  0  0  0  0  0
   39.2400   34.1640   48.3220 H   0  0  0  0  0  0  0  0  0  0  0  0
   38.3320   30.5270   46.3450 H   0  0  0  0  0  0  0  0  0  0  0  0
   34.3250   27.9460   49.3350 O   0  0  0  0  0  0  0  0  0  0  0  0
   33.7420   27.8680   47.0160 C   0  0  0  0  0  3  0  0  0  0  0  0
   33.3570   27.8260   48.3450 C   0  0  0  0  0  0  0  0  0  0  0  0
   32.0110   27.6630   48.5700 C   0  0  0  0  0  0  0  0  0  0  0  0
   31.6870   27.6270   49.5990 H   0  0  0  0  0  0  0  0  0  0  0  0
   31.1130   27.5510   47.5230 C   0  0  0  0  0  0  0  0  0  0  0  0
   29.7940   27.3910   47.5190 N   0  0  0  0  0  0  0  0  0  0  0  0
   29.1110   27.3120   48.3200 H   0  0  0  0  0  0  0  0  0  0  0  0
   29.3590   27.3350   46.2540 N   0  0  0  0  0  0  0  0  0  0  0  0
   30.4200   27.4600   45.4200 C   0  0  0  0  0  0  0  0  0  0  0  0
   30.4340   27.4580   44.3220 H   0  0  0  0  0  0  0  0  0  0  0  0
   31.5460   27.5990   46.2020 C   0  0  0  0  0  0  0  0  0  0  0  0
   32.8760   27.7590   45.9380 C   0  0  0  0  0  3  0  0  0  0  0  0
  2  1  2  6  0  0  0
  2  3  1  0  0  0  0
  2  5  1  0  0  0  0
  3  4  1  0  0  0  0
  6  9  1  0  0  0  0
  6  8  1  0  0  0  0
  6  5  1  0  0  0  0
  7  6  1  0  0  0  0
  9 10  1  0  0  0  0
  9 11  1  0  0  0  0
 12 13  1  0  0  0  0
 12  9  1  0  0  0  0
 13 18  1  0  0  0  0
 14 13  2  0  0  0  0
 15 16  2  0  0  0  0
 15 14  1  0  0  0  0
 16 17  1  0  0  0  0
 17 12  2  0  0  0  0
 19 14  1  0  0  0  0
 20 16  1  0  0  0  0
 21  2  1  0  0  0  0
 22 23  1  0  0  0  0
 23 24  2  0  0  0  0
 23 21  1  0  0  0  0
 24 25  1  0  0  0  0
 26 24  1  0  0  0  0
 27 26  1  0  0  0  0
 27 28  1  0  0  0  0
 29 27  1  0  0  0  0
 30 32  1  0  0  0  0
 30 29  2  0  0  0  0
 31 30  1  0  0  0  0
 32 26  2  0  0  0  0
 33 32  1  0  0  0  0
 33 22  2  0  0  0  0
M  END
>  <minimizedAffinity>
-5.53129816

>  <minimizedRMSD>
1.22613978

$$$$
