
 OpenBabel03262521473D

 33 35  0  0  0  0  0  0  0  0999 V2000
   34.7450   30.5720   49.1850 O   0  0  0  0  0  0  0  0  0  0  0  0
   34.5420   29.4240   50.1610 P   0  0  2  0  0  0  0  0  0  0  0  0
   33.0090   29.6270   50.8190 O   0  0  0  0  0  0  0  0  0  0  0  0
   33.0330   29.3220   51.7530 H   0  0  0  0  0  0  0  0  0  0  0  0
   35.7420   29.5270   51.3570 O   0  0  0  0  0  0  0  0  0  0  0  0
   37.0130   29.2970   50.8160 C   0  0  0  0  0  0  0  0  0  0  0  0
   36.9360   28.9940   49.7700 H   0  0  0  0  0  0  0  0  0  0  0  0
   37.5000   28.4420   51.3630 H   0  0  0  0  0  0  0  0  0  0  0  0
   37.7970   30.5610   50.9240 C   0  0  0  0  0  0  0  0  0  0  0  0
   38.7490   30.3490   51.4850 H   0  0  0  0  0  0  0  0  0  0  0  0
   37.2810   31.3380   51.5540 H   0  0  0  0  0  0  0  0  0  0  0  0
   38.1310   31.1980   49.6470 C   0  0  0  0  0  0  0  0  0  0  0  0
   38.5690   32.5150   49.5630 C   0  0  0  0  0  0  0  0  0  0  0  0
   38.8590   33.0130   48.2850 C   0  0  0  0  0  0  0  0  0  0  0  0
   38.6990   32.1910   47.2010 N   0  0  0  0  0  0  0  0  0  0  0  0
   38.2630   30.9000   47.3450 C   0  0  0  0  0  0  0  0  0  0  0  0
   37.9820   30.4120   48.5730 N   0  0  0  0  0  0  0  0  0  0  0  0
   38.6770   33.1190   50.4520 H   0  0  0  0  0  0  0  0  0  0  0  0
   39.2030   34.0310   48.1620 H   0  0  0  0  0  0  0  0  0  0  0  0
   38.1570   30.2980   46.4490 H   0  0  0  0  0  0  0  0  0  0  0  0
   34.6060   27.9470   49.3610 O   0  0  0  0  0  0  0  0  0  0  0  0
   33.7440   26.6280   47.5610 C   0  0  0  0  0  3  0  0  0  0  0  0
   34.0970   27.8660   48.0700 C   0  0  0  0  0  0  0  0  0  0  0  0
   33.9060   28.9350   47.2280 C   0  0  0  0  0  0  0  0  0  0  0  0
   34.1730   29.9110   47.6030 H   0  0  0  0  0  0  0  0  0  0  0  0
   33.3910   28.7650   45.9530 C   0  0  0  0  0  0  0  0  0  0  0  0
   33.1300   29.6450   44.9930 N   0  0  0  0  0  0  0  0  0  0  0  0
   33.2540   30.6940   44.9740 H   0  0  0  0  0  0  0  0  0  0  0  0
   32.6360   29.0050   43.9260 N   0  0  0  0  0  0  0  0  0  0  0  0
   32.5770   27.6770   44.2010 C   0  0  0  0  0  0  0  0  0  0  0  0
   32.2250   26.8590   43.5590 H   0  0  0  0  0  0  0  0  0  0  0  0
   33.0500   27.5010   45.4840 C   0  0  0  0  0  0  0  0  0  0  0  0
   33.2270   26.4140   46.2920 C   0  0  0  0  0  3  0  0  0  0  0  0
  2  1  2  6  0  0  0
  2  3  1  0  0  0  0
  2  5  1  0  0  0  0
  3  4  1  0  0  0  0
  6  9  1  0  0  0  0
  6  5  1  0  0  0  0
  6  8  1  0  0  0  0
  7  6  1  0  0  0  0
  9 10  1  0  0  0  0
  9 11  1  0  0  0  0
 12  9  1  0  0  0  0
 13 12  1  0  0  0  0
 13 18  1  0  0  0  0
 14 13  2  0  0  0  0
 15 16  2  0  0  0  0
 15 14  1  0  0  0  0
 16 17  1  0  0  0  0
 17 12  2  0  0  0  0
 19 14  1  0  0  0  0
 20 16  1  0  0  0  0
 21  2  1  0  0  0  0
 22 23  1  0  0  0  0
 23 21  1  0  0  0  0
 24 25  1  0  0  0  0
 24 23  2  0  0  0  0
 26 24  1  0  0  0  0
 27 26  1  0  0  0  0
 28 27  1  0  0  0  0
 29 30  2  0  0  0  0
 29 27  1  0  0  0  0
 30 32  1  0  0  0  0
 31 30  1  0  0  0  0
 32 26  2  0  0  0  0
 32 33  1  0  0  0  0
 33 22  2  0  0  0  0
M  END
>  <minimizedAffinity>
-5.40715551

>  <minimizedRMSD>
0.206623331

$$$$
