
 OpenBabel03262521473D

 33 35  0  0  0  0  0  0  0  0999 V2000
   34.7070   30.5880   49.1950 O   0  0  0  0  0  0  0  0  0  0  0  0
   34.4720   29.4290   50.1500 P   0  0  2  0  0  0  0  0  0  0  0  0
   32.9890   29.7140   50.8850 O   0  0  0  0  0  0  0  0  0  0  0  0
   33.0350   29.3810   51.8090 H   0  0  0  0  0  0  0  0  0  0  0  0
   35.7310   29.4170   51.2880 O   0  0  0  0  0  0  0  0  0  0  0  0
   36.9730   29.2490   50.6640 C   0  0  0  0  0  0  0  0  0  0  0  0
   36.8440   29.0320   49.6020 H   0  0  0  0  0  0  0  0  0  0  0  0
   37.4960   28.3590   51.1120 H   0  0  0  0  0  0  0  0  0  0  0  0
   37.7500   30.5100   50.8360 C   0  0  0  0  0  0  0  0  0  0  0  0
   38.6890   30.2820   51.4120 H   0  0  0  0  0  0  0  0  0  0  0  0
   37.2160   31.2640   51.4780 H   0  0  0  0  0  0  0  0  0  0  0  0
   38.1150   31.1920   49.5900 C   0  0  0  0  0  0  0  0  0  0  0  0
   38.5530   32.5110   49.5630 C   0  0  0  0  0  0  0  0  0  0  0  0
   38.8730   33.0530   48.3100 C   0  0  0  0  0  0  0  0  0  0  0  0
   38.7410   32.2690   47.1950 N   0  0  0  0  0  0  0  0  0  0  0  0
   38.3030   30.9740   47.2830 C   0  0  0  0  0  0  0  0  0  0  0  0
   37.9930   30.4440   48.4860 N   0  0  0  0  0  0  0  0  0  0  0  0
   38.6380   33.0840   50.4750 H   0  0  0  0  0  0  0  0  0  0  0  0
   39.2190   34.0760   48.2310 H   0  0  0  0  0  0  0  0  0  0  0  0
   38.2200   30.4040   46.3640 H   0  0  0  0  0  0  0  0  0  0  0  0
   34.3990   27.9750   49.3090 O   0  0  0  0  0  0  0  0  0  0  0  0
   33.8450   28.0680   46.9840 C   0  0  0  0  0  3  0  0  0  0  0  0
   33.4600   27.8390   48.2940 C   0  0  0  0  0  0  0  0  0  0  0  0
   32.1430   27.4870   48.4770 C   0  0  0  0  0  0  0  0  0  0  0  0
   31.8200   27.3030   49.4890 H   0  0  0  0  0  0  0  0  0  0  0  0
   31.2730   27.3740   47.4050 C   0  0  0  0  0  0  0  0  0  0  0  0
   29.9850   27.0520   47.3600 N   0  0  0  0  0  0  0  0  0  0  0  0
   29.3120   26.8040   48.1370 H   0  0  0  0  0  0  0  0  0  0  0  0
   29.5670   27.0750   46.0880 N   0  0  0  0  0  0  0  0  0  0  0  0
   30.6100   27.4190   45.2920 C   0  0  0  0  0  0  0  0  0  0  0  0
   30.6310   27.5340   44.2000 H   0  0  0  0  0  0  0  0  0  0  0  0
   31.7040   27.6140   46.1070 C   0  0  0  0  0  0  0  0  0  0  0  0
   33.0060   27.9660   45.8840 C   0  0  0  0  0  3  0  0  0  0  0  0
  2  1  2  6  0  0  0
  2  3  1  0  0  0  0
  2  5  1  0  0  0  0
  3  4  1  0  0  0  0
  6  9  1  0  0  0  0
  6  8  1  0  0  0  0
  6  5  1  0  0  0  0
  7  6  1  0  0  0  0
  9 10  1  0  0  0  0
  9 11  1  0  0  0  0
 12  9  1  0  0  0  0
 13 12  1  0  0  0  0
 13 18  1  0  0  0  0
 14 13  2  0  0  0  0
 15 16  2  0  0  0  0
 15 14  1  0  0  0  0
 16 17  1  0  0  0  0
 17 12  2  0  0  0  0
 19 14  1  0  0  0  0
 20 16  1  0  0  0  0
 21  2  1  0  0  0  0
 22 23  1  0  0  0  0
 23 24  2  0  0  0  0
 23 21  1  0  0  0  0
 24 25  1  0  0  0  0
 26 24  1  0  0  0  0
 27 26  1  0  0  0  0
 27 28  1  0  0  0  0
 29 27  1  0  0  0  0
 30 29  2  0  0  0  0
 30 32  1  0  0  0  0
 31 30  1  0  0  0  0
 32 26  2  0  0  0  0
 33 32  1  0  0  0  0
 33 22  2  0  0  0  0
M  END
>  <minimizedAffinity>
-5.49636698

>  <minimizedRMSD>
1.36260569

$$$$
