
 OpenBabel03262521473D

 33 35  0  0  0  0  0  0  0  0999 V2000
   34.7390   30.4620   49.1040 O   0  0  0  0  0  0  0  0  0  0  0  0
   34.4950   29.3640   50.1250 P   0  0  2  0  0  0  0  0  0  0  0  0
   32.9970   29.6830   50.8160 O   0  0  0  0  0  0  0  0  0  0  0  0
   33.0290   29.4100   51.7600 H   0  0  0  0  0  0  0  0  0  0  0  0
   35.7330   29.4330   51.2840 O   0  0  0  0  0  0  0  0  0  0  0  0
   36.9890   29.2600   50.6900 C   0  0  0  0  0  0  0  0  0  0  0  0
   36.8830   29.0210   49.6300 H   0  0  0  0  0  0  0  0  0  0  0  0
   37.5070   28.3810   51.1670 H   0  0  0  0  0  0  0  0  0  0  0  0
   37.7560   30.5280   50.8530 C   0  0  0  0  0  0  0  0  0  0  0  0
   38.6940   30.3120   51.4350 H   0  0  0  0  0  0  0  0  0  0  0  0
   37.2140   31.2840   51.4870 H   0  0  0  0  0  0  0  0  0  0  0  0
   38.1190   31.2010   49.6030 C   0  0  0  0  0  0  0  0  0  0  0  0
   38.5500   32.5230   49.5660 C   0  0  0  0  0  0  0  0  0  0  0  0
   38.8700   33.0570   48.3090 C   0  0  0  0  0  0  0  0  0  0  0  0
   38.7440   32.2630   47.2000 N   0  0  0  0  0  0  0  0  0  0  0  0
   38.3140   30.9660   47.2970 C   0  0  0  0  0  0  0  0  0  0  0  0
   38.0040   30.4440   48.5050 N   0  0  0  0  0  0  0  0  0  0  0  0
   38.6300   33.1040   50.4730 H   0  0  0  0  0  0  0  0  0  0  0  0
   39.2100   34.0800   48.2220 H   0  0  0  0  0  0  0  0  0  0  0  0
   38.2360   30.3870   46.3830 H   0  0  0  0  0  0  0  0  0  0  0  0
   34.4460   27.8590   49.3780 O   0  0  0  0  0  0  0  0  0  0  0  0
   33.2490   28.8660   47.5670 C   0  0  0  0  0  3  0  0  0  0  0  0
   33.8940   27.7650   48.1060 C   0  0  0  0  0  0  0  0  0  0  0  0
   33.9290   26.6450   47.3080 C   0  0  0  0  0  0  0  0  0  0  0  0
   34.4260   25.7740   47.7070 H   0  0  0  0  0  0  0  0  0  0  0  0
   33.3510   26.6380   46.0500 C   0  0  0  0  0  0  0  0  0  0  0  0
   33.2730   25.6820   45.1330 N   0  0  0  0  0  0  0  0  0  0  0  0
   33.6360   24.6890   45.1440 H   0  0  0  0  0  0  0  0  0  0  0  0
   32.6130   26.1450   44.0640 N   0  0  0  0  0  0  0  0  0  0  0  0
   32.2560   27.4330   44.2940 C   0  0  0  0  0  0  0  0  0  0  0  0
   31.7060   28.1210   43.6390 H   0  0  0  0  0  0  0  0  0  0  0  0
   32.7140   27.7690   45.5510 C   0  0  0  0  0  0  0  0  0  0  0  0
   32.6580   28.9000   46.3140 C   0  0  0  0  0  3  0  0  0  0  0  0
  2  1  2  6  0  0  0
  2  3  1  0  0  0  0
  2  5  1  0  0  0  0
  3  4  1  0  0  0  0
  6  9  1  0  0  0  0
  6  8  1  0  0  0  0
  6  5  1  0  0  0  0
  7  6  1  0  0  0  0
  9 10  1  0  0  0  0
  9 11  1  0  0  0  0
 12  9  1  0  0  0  0
 13 12  1  0  0  0  0
 13 18  1  0  0  0  0
 14 13  2  0  0  0  0
 15 16  2  0  0  0  0
 15 14  1  0  0  0  0
 16 17  1  0  0  0  0
 17 12  2  0  0  0  0
 19 14  1  0  0  0  0
 20 16  1  0  0  0  0
 21  2  1  0  0  0  0
 22 23  1  0  0  0  0
 23 21  1  0  0  0  0
 24 25  1  0  0  0  0
 24 23  2  0  0  0  0
 26 24  1  0  0  0  0
 27 28  1  0  0  0  0
 27 26  1  0  0  0  0
 29 30  2  0  0  0  0
 29 27  1  0  0  0  0
 30 32  1  0  0  0  0
 31 30  1  0  0  0  0
 32 26  2  0  0  0  0
 32 33  1  0  0  0  0
 33 22  2  0  0  0  0
M  END
>  <minimizedAffinity>
-5.26187086

>  <minimizedRMSD>
0.279375046

$$$$
