
 OpenBabel03262521473D

 33 35  0  0  0  0  0  0  0  0999 V2000
   34.7360   30.4650   49.1030 O   0  0  0  0  0  0  0  0  0  0  0  0
   34.4870   29.3910   50.1480 P   0  0  2  0  0  0  0  0  0  0  0  0
   33.0290   29.7790   50.8880 O   0  0  0  0  0  0  0  0  0  0  0  0
   33.0850   29.5170   51.8340 H   0  0  0  0  0  0  0  0  0  0  0  0
   35.7690   29.4250   51.2600 O   0  0  0  0  0  0  0  0  0  0  0  0
   37.0010   29.2820   50.6120 C   0  0  0  0  0  0  0  0  0  0  0  0
   36.8560   29.0990   49.5460 H   0  0  0  0  0  0  0  0  0  0  0  0
   37.5330   28.3780   51.0230 H   0  0  0  0  0  0  0  0  0  0  0  0
   37.7780   30.5390   50.8130 C   0  0  0  0  0  0  0  0  0  0  0  0
   38.7130   30.2980   51.3910 H   0  0  0  0  0  0  0  0  0  0  0  0
   37.2410   31.2800   51.4680 H   0  0  0  0  0  0  0  0  0  0  0  0
   38.1510   31.2440   49.5840 C   0  0  0  0  0  0  0  0  0  0  0  0
   38.5690   32.5710   49.5840 C   0  0  0  0  0  0  0  0  0  0  0  0
   38.8990   33.1370   48.3440 C   0  0  0  0  0  0  0  0  0  0  0  0
   38.7960   32.3680   47.2150 N   0  0  0  0  0  0  0  0  0  0  0  0
   38.3770   31.0650   47.2770 C   0  0  0  0  0  0  0  0  0  0  0  0
   38.0570   30.5120   48.4670 N   0  0  0  0  0  0  0  0  0  0  0  0
   38.6320   33.1310   50.5050 H   0  0  0  0  0  0  0  0  0  0  0  0
   39.2300   34.1650   48.2860 H   0  0  0  0  0  0  0  0  0  0  0  0
   38.3160   30.5080   46.3480 H   0  0  0  0  0  0  0  0  0  0  0  0
   34.3510   27.8800   49.4240 O   0  0  0  0  0  0  0  0  0  0  0  0
   32.0910   27.6790   48.6670 C   0  0  0  0  0  3  0  0  0  0  0  0
   33.4450   27.7190   48.3830 C   0  0  0  0  0  0  0  0  0  0  0  0
   33.7810   27.5920   47.0550 C   0  0  0  0  0  0  0  0  0  0  0  0
   34.8300   27.6200   46.8090 H   0  0  0  0  0  0  0  0  0  0  0  0
   32.8110   27.4360   46.0790 C   0  0  0  0  0  0  0  0  0  0  0  0
   32.9150   27.2980   44.7620 N   0  0  0  0  0  0  0  0  0  0  0  0
   33.7680   27.2750   44.1410 H   0  0  0  0  0  0  0  0  0  0  0  0
   31.6910   27.1770   44.2320 N   0  0  0  0  0  0  0  0  0  0  0  0
   30.7740   27.2380   45.2280 C   0  0  0  0  0  0  0  0  0  0  0  0
   29.6800   27.1730   45.1590 H   0  0  0  0  0  0  0  0  0  0  0  0
   31.4620   27.4020   46.4110 C   0  0  0  0  0  0  0  0  0  0  0  0
   31.0900   27.5250   47.7200 C   0  0  0  0  0  3  0  0  0  0  0  0
  2  1  2  6  0  0  0
  2  3  1  0  0  0  0
  2  5  1  0  0  0  0
  3  4  1  0  0  0  0
  6  9  1  0  0  0  0
  6  8  1  0  0  0  0
  6  5  1  0  0  0  0
  7  6  1  0  0  0  0
  9 10  1  0  0  0  0
  9 11  1  0  0  0  0
 12  9  1  0  0  0  0
 13 12  1  0  0  0  0
 13 18  1  0  0  0  0
 14 13  2  0  0  0  0
 15 16  2  0  0  0  0
 15 14  1  0  0  0  0
 16 17  1  0  0  0  0
 17 12  2  0  0  0  0
 19 14  1  0  0  0  0
 20 16  1  0  0  0  0
 21  2  1  0  0  0  0
 23 22  1  0  0  0  0
 23 21  1  0  0  0  0
 24 23  2  0  0  0  0
 25 24  1  0  0  0  0
 26 32  2  0  0  0  0
 26 24  1  0  0  0  0
 27 26  1  0  0  0  0
 28 27  1  0  0  0  0
 29 27  1  0  0  0  0
 29 30  2  0  0  0  0
 30 32  1  0  0  0  0
 31 30  1  0  0  0  0
 32 33  1  0  0  0  0
 33 22  2  0  0  0  0
M  END
>  <minimizedAffinity>
-5.40444851

>  <minimizedRMSD>
1.06484973

$$$$
