
 OpenBabel03272503313D

 44 48  0  0  1  0  0  0  0  0999 V2000
   36.0570   29.9720   47.3420 C   0  0  0  0  0  0  0  0  0  0  0  0
   36.2160   30.6670   46.1410 C   0  0  0  0  0  0  0  0  0  0  0  0
   35.5070   30.1960   45.0370 C   0  0  0  0  0  0  0  0  0  0  0  0
   34.7070   29.0880   45.2170 N   0  0  0  0  0  0  0  0  0  0  0  0
   34.5870   28.4570   46.3860 C   0  0  0  0  0  0  0  0  0  0  0  0
   35.2600   28.8970   47.4510 N   0  0  0  0  0  0  0  0  0  0  0  0
   36.8300   31.5200   45.9980 H   0  0  0  0  0  0  0  0  0  0  0  0
   35.5790   30.6750   44.0870 H   0  0  0  0  0  0  0  0  0  0  0  0
   36.7890   30.4570   48.4860 N   0  0  0  0  0  0  0  0  0  0  0  0
   38.1530   30.8910   48.5100 C   0  0  0  0  0  0  0  0  0  0  0  0
   38.1560   31.8960   49.6530 C   0  0  2  0  0  0  0  0  0  0  0  0
   36.7080   32.0210   50.1030 C   0  0  0  0  0  0  0  0  0  0  0  0
   36.2720   30.5950   49.8390 C   0  0  0  0  0  0  0  0  0  0  0  0
   38.7930   30.0140   48.8020 H   0  0  0  0  0  0  0  0  0  0  0  0
   38.5240   31.3010   47.5670 H   0  0  0  0  0  0  0  0  0  0  0  0
   38.7070   31.4700   50.5270 H   0  0  0  0  0  0  0  0  0  0  0  0
   36.1170   32.6670   49.4270 H   0  0  0  0  0  0  0  0  0  0  0  0
   36.6190   32.2910   51.1590 H   0  0  0  0  0  0  0  0  0  0  0  0
   35.1850   30.5400   49.7950 H   0  0  0  0  0  0  0  0  0  0  0  0
   36.7400   29.8860   50.5400 H   0  0  0  0  0  0  0  0  0  0  0  0
   38.7380   33.2220   49.2540 C   0  0  0  0  0  0  0  0  0  0  0  0
   37.6720   34.0830   49.0620 F   0  0  0  0  0  0  0  0  0  0  0  0
   39.3340   33.0450   48.0330 F   0  0  0  0  0  0  0  0  0  0  0  0
   39.6290   33.7170   50.1730 F   0  0  0  0  0  0  0  0  0  0  0  0
   33.5350   27.0320   46.5420 S   0  0  0  0  0  0  0  0  0  0  0  0
   32.0520   27.2210   47.3260 C   0  0  0  0  0  0  0  0  0  0  0  0
   31.3360   26.7030   48.3670 C   0  0  0  0  0  0  0  0  0  0  0  0
   30.1040   27.1170   48.7400 C   0  0  0  0  0  0  0  0  0  0  0  0
   29.5660   28.2220   47.9020 C   0  0  0  0  0  0  0  0  0  0  0  0
   30.8850   28.5330   46.6850 S   0  0  0  0  0  0  0  0  0  0  0  0
   31.8720   25.9110   48.8680 H   0  0  0  0  0  0  0  0  0  0  0  0
   29.5320   26.7200   49.5540 H   0  0  0  0  0  0  0  0  0  0  0  0
   27.8680   29.9250   47.3700 C   0  0  0  0  0  3  0  0  0  0  0  0
   28.3080   28.8300   48.0830 C   0  0  0  0  0  0  0  0  0  0  0  0
   27.5250   28.2340   49.0510 C   0  0  0  0  0  0  0  0  0  0  0  0
   27.8170   27.3740   49.6410 H   0  0  0  0  0  0  0  0  0  0  0  0
   26.2460   28.7140   49.3580 C   0  0  0  0  0  0  0  0  0  0  0  0
   25.2720   28.3640   50.2190 N   0  0  0  0  0  0  0  0  0  0  0  0
   25.3270   27.5720   50.8830 H   0  0  0  0  0  0  0  0  0  0  0  0
   24.2560   29.2000   50.0610 N   0  0  0  0  0  0  0  0  0  0  0  0
   24.5510   30.1060   49.0980 C   0  0  0  0  0  0  0  0  0  0  0  0
   23.9560   30.9370   48.7050 H   0  0  0  0  0  0  0  0  0  0  0  0
   25.8170   29.8100   48.6370 C   0  0  0  0  0  0  0  0  0  0  0  0
   26.6090   30.3960   47.6730 C   0  0  0  0  0  3  0  0  0  0  0  0
  1  6  1  0  0  0  0
  1  9  1  0  0  0  0
  2  1  2  0  0  0  0
  3  4  2  0  0  0  0
  3  2  1  0  0  0  0
  4  5  1  0  0  0  0
  5 25  1  0  0  0  0
  5  6  2  0  0  0  0
  7  2  1  0  0  0  0
  8  3  1  0  0  0  0
  9 10  1  0  0  0  0
  9 13  1  0  0  0  0
 10 14  1  0  0  0  0
 10 11  1  0  0  0  0
 11 12  1  0  0  0  0
 11 16  1  1  0  0  0
 12 18  1  0  0  0  0
 13 12  1  0  0  0  0
 13 20  1  0  0  0  0
 15 10  1  0  0  0  0
 17 12  1  0  0  0  0
 19 13  1  0  0  0  0
 21 11  1  0  0  0  0
 21 24  1  0  0  0  0
 22 21  1  0  0  0  0
 23 21  1  0  0  0  0
 25 26  1  0  0  0  0
 26 27  2  0  0  0  0
 27 28  1  0  0  0  0
 27 31  1  0  0  0  0
 28 32  1  0  0  0  0
 29 34  1  0  0  0  0
 29 28  2  0  0  0  0
 30 26  1  0  0  0  0
 30 29  1  0  0  0  0
 33 44  2  0  0  0  0
 33 34  1  0  0  0  0
 34 35  2  0  0  0  0
 35 37  1  0  0  0  0
 35 36  1  0  0  0  0
 37 38  1  0  0  0  0
 38 39  1  0  0  0  0
 40 38  1  0  0  0  0
 41 40  2  0  0  0  0
 42 41  1  0  0  0  0
 43 41  1  0  0  0  0
 43 37  2  0  0  0  0
 44 43  1  0  0  0  0
M  END
>  <minimizedAffinity>
-6.85433912

>  <minimizedRMSD>
1.70969439

$$$$
