
 OpenBabel03272503323D

 44 48  0  0  1  0  0  0  0  0999 V2000
   36.0510   29.9710   47.3600 C   0  0  0  0  0  0  0  0  0  0  0  0
   36.2000   30.6670   46.1580 C   0  0  0  0  0  0  0  0  0  0  0  0
   35.4880   30.1920   45.0570 C   0  0  0  0  0  0  0  0  0  0  0  0
   34.6960   29.0800   45.2410 N   0  0  0  0  0  0  0  0  0  0  0  0
   34.5850   28.4480   46.4100 C   0  0  0  0  0  0  0  0  0  0  0  0
   35.2600   28.8910   47.4720 N   0  0  0  0  0  0  0  0  0  0  0  0
   36.8090   31.5230   46.0120 H   0  0  0  0  0  0  0  0  0  0  0  0
   35.5530   30.6720   44.1070 H   0  0  0  0  0  0  0  0  0  0  0  0
   36.7860   30.4600   48.5000 N   0  0  0  0  0  0  0  0  0  0  0  0
   38.1500   30.8910   48.5200 C   0  0  0  0  0  0  0  0  0  0  0  0
   38.1570   31.9020   49.6590 C   0  0  2  0  0  0  0  0  0  0  0  0
   36.7100   32.0310   50.1100 C   0  0  0  0  0  0  0  0  0  0  0  0
   36.2710   30.6050   49.8540 C   0  0  0  0  0  0  0  0  0  0  0  0
   38.7890   30.0140   48.8160 H   0  0  0  0  0  0  0  0  0  0  0  0
   38.5210   31.2960   47.5740 H   0  0  0  0  0  0  0  0  0  0  0  0
   38.7090   31.4780   50.5340 H   0  0  0  0  0  0  0  0  0  0  0  0
   36.1200   32.6750   49.4330 H   0  0  0  0  0  0  0  0  0  0  0  0
   36.6230   32.3070   51.1650 H   0  0  0  0  0  0  0  0  0  0  0  0
   35.1840   30.5520   49.8110 H   0  0  0  0  0  0  0  0  0  0  0  0
   36.7390   29.8980   50.5570 H   0  0  0  0  0  0  0  0  0  0  0  0
   38.7410   33.2240   49.2530 C   0  0  0  0  0  0  0  0  0  0  0  0
   37.6770   34.0870   49.0590 F   0  0  0  0  0  0  0  0  0  0  0  0
   39.3350   33.0410   48.0320 F   0  0  0  0  0  0  0  0  0  0  0  0
   39.6340   33.7220   50.1680 F   0  0  0  0  0  0  0  0  0  0  0  0
   33.5410   27.0170   46.5710 S   0  0  0  0  0  0  0  0  0  0  0  0
   32.0520   27.2030   47.3430 C   0  0  0  0  0  0  0  0  0  0  0  0
   31.3220   26.6720   48.3680 C   0  0  0  0  0  0  0  0  0  0  0  0
   30.0880   27.0880   48.7360 C   0  0  0  0  0  0  0  0  0  0  0  0
   29.5650   28.2090   47.9090 C   0  0  0  0  0  0  0  0  0  0  0  0
   30.8990   28.5310   46.7110 S   0  0  0  0  0  0  0  0  0  0  0  0
   31.8490   25.8690   48.8620 H   0  0  0  0  0  0  0  0  0  0  0  0
   29.5060   26.6810   49.5370 H   0  0  0  0  0  0  0  0  0  0  0  0
   27.8760   29.9190   47.3740 C   0  0  0  0  0  3  0  0  0  0  0  0
   28.3100   28.8210   48.0870 C   0  0  0  0  0  0  0  0  0  0  0  0
   27.5220   28.2280   49.0540 C   0  0  0  0  0  0  0  0  0  0  0  0
   27.8090   27.3660   49.6440 H   0  0  0  0  0  0  0  0  0  0  0  0
   26.2430   28.7130   49.3570 C   0  0  0  0  0  0  0  0  0  0  0  0
   25.2660   28.3660   50.2150 N   0  0  0  0  0  0  0  0  0  0  0  0
   25.3160   27.5740   50.8800 H   0  0  0  0  0  0  0  0  0  0  0  0
   24.2540   29.2060   50.0560 N   0  0  0  0  0  0  0  0  0  0  0  0
   24.5550   30.1110   49.0930 C   0  0  0  0  0  0  0  0  0  0  0  0
   23.9640   30.9430   48.7000 H   0  0  0  0  0  0  0  0  0  0  0  0
   25.8220   29.8100   48.6350 C   0  0  0  0  0  0  0  0  0  0  0  0
   26.6160   30.3940   47.6740 C   0  0  0  0  0  3  0  0  0  0  0  0
  1  6  1  0  0  0  0
  1  9  1  0  0  0  0
  2  1  2  0  0  0  0
  3  4  2  0  0  0  0
  3  2  1  0  0  0  0
  4  5  1  0  0  0  0
  5 25  1  0  0  0  0
  5  6  2  0  0  0  0
  7  2  1  0  0  0  0
  8  3  1  0  0  0  0
  9 10  1  0  0  0  0
  9 13  1  0  0  0  0
 10 14  1  0  0  0  0
 10 11  1  0  0  0  0
 11 12  1  0  0  0  0
 11 16  1  1  0  0  0
 12 18  1  0  0  0  0
 13 12  1  0  0  0  0
 13 20  1  0  0  0  0
 15 10  1  0  0  0  0
 17 12  1  0  0  0  0
 19 13  1  0  0  0  0
 21 11  1  0  0  0  0
 21 24  1  0  0  0  0
 22 21  1  0  0  0  0
 23 21  1  0  0  0  0
 25 26  1  0  0  0  0
 26 27  2  0  0  0  0
 27 28  1  0  0  0  0
 27 31  1  0  0  0  0
 28 32  1  0  0  0  0
 29 34  1  0  0  0  0
 29 28  2  0  0  0  0
 30 26  1  0  0  0  0
 30 29  1  0  0  0  0
 33 44  2  0  0  0  0
 33 34  1  0  0  0  0
 34 35  2  0  0  0  0
 35 37  1  0  0  0  0
 35 36  1  0  0  0  0
 37 38  1  0  0  0  0
 38 39  1  0  0  0  0
 40 38  1  0  0  0  0
 41 40  2  0  0  0  0
 42 41  1  0  0  0  0
 43 41  1  0  0  0  0
 43 37  2  0  0  0  0
 44 43  1  0  0  0  0
M  END
>  <minimizedAffinity>
-6.85283375

>  <minimizedRMSD>
1.82885396

$$$$
