
 OpenBabel03272503323D

 44 48  0  0  1  0  0  0  0  0999 V2000
   35.4270   29.4090   47.8290 C   0  0  0  0  0  0  0  0  0  0  0  0
   35.2600   30.1010   46.6270 C   0  0  0  0  0  0  0  0  0  0  0  0
   34.1950   29.7130   45.8150 C   0  0  0  0  0  0  0  0  0  0  0  0
   33.3950   28.6840   46.2600 N   0  0  0  0  0  0  0  0  0  0  0  0
   33.5940   28.0530   47.4180 C   0  0  0  0  0  0  0  0  0  0  0  0
   34.6090   28.4130   48.2060 N   0  0  0  0  0  0  0  0  0  0  0  0
   35.8740   30.8930   46.2800 H   0  0  0  0  0  0  0  0  0  0  0  0
   34.0060   30.1950   44.8830 H   0  0  0  0  0  0  0  0  0  0  0  0
   36.5280   29.8080   48.6720 N   0  0  0  0  0  0  0  0  0  0  0  0
   37.6770   30.5640   48.2790 C   0  0  0  0  0  0  0  0  0  0  0  0
   38.0660   31.2640   49.5740 C   0  0  2  0  0  0  0  0  0  0  0  0
   36.9820   30.9100   50.5810 C   0  0  0  0  0  0  0  0  0  0  0  0
   36.6730   29.5110   50.0890 C   0  0  0  0  0  0  0  0  0  0  0  0
   38.4930   29.8400   48.0050 H   0  0  0  0  0  0  0  0  0  0  0  0
   37.5170   31.2490   47.4430 H   0  0  0  0  0  0  0  0  0  0  0  0
   39.0080   30.8170   49.9750 H   0  0  0  0  0  0  0  0  0  0  0  0
   36.0660   31.5120   50.4340 H   0  0  0  0  0  0  0  0  0  0  0  0
   37.3500   30.9140   51.6110 H   0  0  0  0  0  0  0  0  0  0  0  0
   35.7050   29.1880   50.4700 H   0  0  0  0  0  0  0  0  0  0  0  0
   37.5020   28.8140   50.2870 H   0  0  0  0  0  0  0  0  0  0  0  0
   38.2140   32.7490   49.4050 C   0  0  0  0  0  0  0  0  0  0  0  0
   37.0660   33.3250   49.9180 F   0  0  0  0  0  0  0  0  0  0  0  0
   38.2190   32.9990   48.0570 F   0  0  0  0  0  0  0  0  0  0  0  0
   39.3420   33.2490   50.0050 F   0  0  0  0  0  0  0  0  0  0  0  0
   32.5170   26.7320   47.9270 S   0  0  0  0  0  0  0  0  0  0  0  0
   31.0340   27.1400   48.6230 C   0  0  0  0  0  0  0  0  0  0  0  0
   30.3070   26.9250   49.7590 C   0  0  0  0  0  0  0  0  0  0  0  0
   29.0790   27.4370   50.0000 C   0  0  0  0  0  0  0  0  0  0  0  0
   28.5580   28.2850   48.8950 C   0  0  0  0  0  0  0  0  0  0  0  0
   29.8860   28.2470   47.6480 S   0  0  0  0  0  0  0  0  0  0  0  0
   30.8320   26.2880   50.4560 H   0  0  0  0  0  0  0  0  0  0  0  0
   28.4990   27.2770   50.8870 H   0  0  0  0  0  0  0  0  0  0  0  0
   26.1320   28.3430   49.3150 C   0  0  0  0  0  3  0  0  0  0  0  0
   27.3080   28.9340   48.9000 C   0  0  0  0  0  0  0  0  0  0  0  0
   27.3420   30.2370   48.4470 C   0  0  0  0  0  0  0  0  0  0  0  0
   28.2340   30.7520   48.1100 H   0  0  0  0  0  0  0  0  0  0  0  0
   26.1860   31.0250   48.3870 C   0  0  0  0  0  0  0  0  0  0  0  0
   25.9030   32.2840   48.0080 N   0  0  0  0  0  0  0  0  0  0  0  0
   26.5970   32.9630   47.6490 H   0  0  0  0  0  0  0  0  0  0  0  0
   24.6040   32.4880   48.1740 N   0  0  0  0  0  0  0  0  0  0  0  0
   24.0220   31.3670   48.6630 C   0  0  0  0  0  0  0  0  0  0  0  0
   22.9760   31.1700   48.9200 H   0  0  0  0  0  0  0  0  0  0  0  0
   25.0170   30.4220   48.8060 C   0  0  0  0  0  0  0  0  0  0  0  0
   24.9950   29.1200   49.2550 C   0  0  0  0  0  3  0  0  0  0  0  0
  1  6  1  0  0  0  0
  1  9  1  0  0  0  0
  2  1  2  0  0  0  0
  3  4  2  0  0  0  0
  3  2  1  0  0  0  0
  4  5  1  0  0  0  0
  5 25  1  0  0  0  0
  5  6  2  0  0  0  0
  7  2  1  0  0  0  0
  8  3  1  0  0  0  0
  9 13  1  0  0  0  0
 10  9  1  0  0  0  0
 10 11  1  0  0  0  0
 11 16  1  1  0  0  0
 11 12  1  0  0  0  0
 12 18  1  0  0  0  0
 13 20  1  0  0  0  0
 13 19  1  0  0  0  0
 13 12  1  0  0  0  0
 14 10  1  0  0  0  0
 15 10  1  0  0  0  0
 17 12  1  0  0  0  0
 21 11  1  0  0  0  0
 21 22  1  0  0  0  0
 21 24  1  0  0  0  0
 23 21  1  0  0  0  0
 25 26  1  0  0  0  0
 26 27  2  0  0  0  0
 27 28  1  0  0  0  0
 27 31  1  0  0  0  0
 28 32  1  0  0  0  0
 29 34  1  0  0  0  0
 29 28  2  0  0  0  0
 30 26  1  0  0  0  0
 30 29  1  0  0  0  0
 34 33  2  0  0  0  0
 35 34  1  0  0  0  0
 36 35  1  0  0  0  0
 37 35  2  0  0  0  0
 37 43  1  0  0  0  0
 38 40  1  0  0  0  0
 38 37  1  0  0  0  0
 39 38  1  0  0  0  0
 40 41  2  0  0  0  0
 41 43  1  0  0  0  0
 41 42  1  0  0  0  0
 43 44  2  0  0  0  0
 44 33  1  0  0  0  0
M  END
>  <minimizedAffinity>
-7.60022926

>  <minimizedRMSD>
0.771425784

$$$$
