
 OpenBabel03272506083D

 47 51  0  0  0  0  0  0  0  0999 V2000
   34.2280   28.0380   49.1000 C   0  0  0  0  0  0  0  0  0  0  0  0
   34.2730   27.0740   49.6680 H   0  0  0  0  0  0  0  0  0  0  0  0
   35.0590   27.9630   48.3640 H   0  0  0  0  0  0  0  0  0  0  0  0
   32.9110   28.1080   48.3680 C   0  0  0  0  0  0  0  0  0  0  0  0
   32.8800   28.6240   47.0190 C   0  0  0  0  0  0  0  0  0  0  0  0
   31.1600   28.4880   46.6530 S   0  0  0  0  0  0  0  0  0  0  0  0
   30.6900   27.7660   48.3240 C   0  0  0  0  0  0  0  0  0  0  0  0
   31.7580   27.7370   48.8440 N   0  0  0  0  0  0  0  0  0  0  0  0
   29.4130   27.3470   48.8740 N   0  0  0  0  0  0  0  0  0  0  0  0
   28.4540   26.8510   47.9300 C   0  0  0  0  0  0  0  0  0  0  0  0
   27.0470   26.8480   48.4390 C   0  0  0  0  0  0  0  0  0  0  0  0
   26.8900   27.4910   49.7380 N   0  0  0  0  0  0  0  0  0  0  0  0
   27.8600   26.8460   50.6280 C   0  0  0  0  0  0  0  0  0  0  0  0
   29.1930   27.4490   50.2890 C   0  0  0  0  0  0  0  0  0  0  0  0
   33.6970   28.9710   46.4640 H   0  0  0  0  0  0  0  0  0  0  0  0
   28.7110   25.8220   47.5630 H   0  0  0  0  0  0  0  0  0  0  0  0
   28.4940   27.4990   47.0300 H   0  0  0  0  0  0  0  0  0  0  0  0
   26.3540   27.3780   47.7450 H   0  0  0  0  0  0  0  0  0  0  0  0
   26.6600   25.8090   48.5320 H   0  0  0  0  0  0  0  0  0  0  0  0
   25.9530   27.2830   50.0950 H   0  0  0  0  0  0  0  0  0  0  0  0
   27.8560   25.7680   50.4740 H   0  0  0  0  0  0  0  0  0  0  0  0
   27.5580   27.1020   51.6760 H   0  0  0  0  0  0  0  0  0  0  0  0
   29.9770   26.8310   50.7960 H   0  0  0  0  0  0  0  0  0  0  0  0
   29.2740   28.4830   50.6730 H   0  0  0  0  0  0  0  0  0  0  0  0
   34.3920   29.1670   50.0320 C   0  0  0  0  0  0  0  0  0  0  0  0
   34.2530   28.8720   51.0850 H   0  0  0  0  0  0  0  0  0  0  0  0
   33.6470   29.9800   49.8280 H   0  0  0  0  0  0  0  0  0  0  0  0
   37.7150   30.6640   50.7720 C   0  0  0  0  0  0  0  0  0  0  0  0
   38.2530   30.8780   49.4920 C   0  0  0  0  0  0  0  0  0  0  0  0
   37.4560   30.5000   48.4160 C   0  0  0  0  0  0  0  0  0  0  0  0
   36.2400   29.9630   48.6320 N   0  0  0  0  0  0  0  0  0  0  0  0
   35.7730   29.7810   49.9040 C   0  0  0  0  0  0  0  0  0  0  0  0
   36.5040   30.1280   50.9480 N   0  0  0  0  0  0  0  0  0  0  0  0
   38.3480   30.9630   51.6020 H   0  0  0  0  0  0  0  0  0  0  0  0
   39.2130   31.3030   49.3320 H   0  0  0  0  0  0  0  0  0  0  0  0
   36.9040   30.7100   46.0630 C   0  0  0  0  0  3  0  0  0  0  0  0
   37.8840   30.6630   47.0320 C   0  0  0  0  0  0  0  0  0  0  0  0
   39.1890   30.7740   46.6270 C   0  0  0  0  0  0  0  0  0  0  0  0
   39.9630   30.7400   47.3540 H   0  0  0  0  0  0  0  0  0  0  0  0
   39.5300   30.9260   45.3000 C   0  0  0  0  0  0  0  0  0  0  0  0
   40.6860   31.0560   44.6150 N   0  0  0  0  0  0  0  0  0  0  0  0
   41.6440   31.0630   45.0360 H   0  0  0  0  0  0  0  0  0  0  0  0
   40.4480   31.1760   43.3080 N   0  0  0  0  0  0  0  0  0  0  0  0
   39.1350   31.1310   43.0570 C   0  0  0  0  0  0  0  0  0  0  0  0
   38.6040   31.1980   42.1280 H   0  0  0  0  0  0  0  0  0  0  0  0
   38.5760   30.9760   44.3080 C   0  0  0  0  0  0  0  0  0  0  0  0
   37.2450   30.8650   44.7120 C   0  0  0  0  0  3  0  0  0  0  0  0
  1  2  1  0  0  0  0
  1 25  1  0  0  0  0
  3  1  1  0  0  0  0
  4  8  1  0  0  0  0
  4  1  1  0  0  0  0
  5  4  2  0  0  0  0
  6  5  1  0  0  0  0
  6  7  1  0  0  0  0
  7  8  2  0  0  0  0
  7  9  1  0  0  0  0
  9 14  1  0  0  0  0
 10 11  1  0  0  0  0
 10  9  1  0  0  0  0
 11 19  1  0  0  0  0
 11 12  1  0  0  0  0
 12 20  1  0  0  0  0
 12 13  1  0  0  0  0
 13 22  1  0  0  0  0
 14 13  1  0  0  0  0
 14 24  1  0  0  0  0
 14 23  1  0  0  0  0
 15  5  1  0  0  0  0
 16 10  1  0  0  0  0
 17 10  1  0  0  0  0
 18 11  1  0  0  0  0
 21 13  1  0  0  0  0
 25 26  1  0  0  0  0
 27 25  1  0  0  0  0
 28 33  1  0  0  0  0
 28 34  1  0  0  0  0
 29 28  2  0  0  0  0
 30 31  2  0  0  0  0
 30 29  1  0  0  0  0
 31 32  1  0  0  0  0
 32 25  1  0  0  0  0
 32 33  2  0  0  0  0
 35 29  1  0  0  0  0
 36 37  1  0  0  0  0
 37 30  1  0  0  0  0
 38 37  2  0  0  0  0
 38 39  1  0  0  0  0
 40 38  1  0  0  0  0
 41 42  1  0  0  0  0
 41 40  1  0  0  0  0
 43 41  1  0  0  0  0
 44 43  2  0  0  0  0
 44 46  1  0  0  0  0
 45 44  1  0  0  0  0
 46 47  1  0  0  0  0
 46 40  2  0  0  0  0
 47 36  2  0  0  0  0
M  END
>  <minimizedAffinity>
-7.7721777

>  <minimizedRMSD>
1.6316427

$$$$
