
 OpenBabel03272506083D

 47 51  0  0  0  0  0  0  0  0999 V2000
   34.6590   28.2620   49.1030 C   0  0  0  0  0  0  0  0  0  0  0  0
   34.7240   27.3440   49.7410 H   0  0  0  0  0  0  0  0  0  0  0  0
   35.5200   28.1720   48.4040 H   0  0  0  0  0  0  0  0  0  0  0  0
   33.3690   28.2190   48.3220 C   0  0  0  0  0  0  0  0  0  0  0  0
   33.3760   28.5930   46.9260 C   0  0  0  0  0  0  0  0  0  0  0  0
   31.6760   28.3710   46.5170 S   0  0  0  0  0  0  0  0  0  0  0  0
   31.1600   27.8120   48.2370 C   0  0  0  0  0  0  0  0  0  0  0  0
   32.2090   27.8670   48.7930 N   0  0  0  0  0  0  0  0  0  0  0  0
   29.8740   27.4160   48.7820 N   0  0  0  0  0  0  0  0  0  0  0  0
   28.9640   26.7990   47.8620 C   0  0  0  0  0  0  0  0  0  0  0  0
   27.5390   26.8090   48.3180 C   0  0  0  0  0  0  0  0  0  0  0  0
   27.3170   27.5770   49.5370 N   0  0  0  0  0  0  0  0  0  0  0  0
   28.2690   27.0550   50.5230 C   0  0  0  0  0  0  0  0  0  0  0  0
   29.5990   27.6570   50.1700 C   0  0  0  0  0  0  0  0  0  0  0  0
   34.2050   28.9040   46.3680 H   0  0  0  0  0  0  0  0  0  0  0  0
   29.2600   25.7450   47.6120 H   0  0  0  0  0  0  0  0  0  0  0  0
   29.0220   27.3520   46.9010 H   0  0  0  0  0  0  0  0  0  0  0  0
   26.8600   27.2450   47.5490 H   0  0  0  0  0  0  0  0  0  0  0  0
   27.1740   25.7750   48.5050 H   0  0  0  0  0  0  0  0  0  0  0  0
   26.3730   27.3810   49.8810 H   0  0  0  0  0  0  0  0  0  0  0  0
   28.2970   25.9660   50.4810 H   0  0  0  0  0  0  0  0  0  0  0  0
   27.9210   27.4080   51.5280 H   0  0  0  0  0  0  0  0  0  0  0  0
   30.3780   27.1160   50.7650 H   0  0  0  0  0  0  0  0  0  0  0  0
   29.6400   28.7260   50.4480 H   0  0  0  0  0  0  0  0  0  0  0  0
   34.7380   29.4610   49.9550 C   0  0  0  0  0  0  0  0  0  0  0  0
   34.9000   29.2160   51.0180 H   0  0  0  0  0  0  0  0  0  0  0  0
   33.7940   30.0630   49.9060 H   0  0  0  0  0  0  0  0  0  0  0  0
   37.4280   32.0280   49.8660 C   0  0  0  0  0  0  0  0  0  0  0  0
   37.9150   31.9230   48.5520 C   0  0  0  0  0  0  0  0  0  0  0  0
   37.3040   30.9730   47.7400 C   0  0  0  0  0  0  0  0  0  0  0  0
   36.3020   30.2160   48.2240 N   0  0  0  0  0  0  0  0  0  0  0  0
   35.8720   30.3660   49.5140 C   0  0  0  0  0  0  0  0  0  0  0  0
   36.4300   31.2590   50.3120 N   0  0  0  0  0  0  0  0  0  0  0  0
   37.9140   32.7730   50.4880 H   0  0  0  0  0  0  0  0  0  0  0  0
   38.7060   32.5260   48.1790 H   0  0  0  0  0  0  0  0  0  0  0  0
   39.0570   30.7420   46.0780 C   0  0  0  0  0  3  0  0  0  0  0  0
   37.7060   30.7540   46.3560 C   0  0  0  0  0  0  0  0  0  0  0  0
   36.8370   30.5600   45.3120 C   0  0  0  0  0  0  0  0  0  0  0  0
   35.7920   30.5640   45.5000 H   0  0  0  0  0  0  0  0  0  0  0  0
   37.2800   30.3570   44.0230 C   0  0  0  0  0  0  0  0  0  0  0  0
   36.6910   30.1430   42.8280 N   0  0  0  0  0  0  0  0  0  0  0  0
   35.6580   30.0900   42.6610 H   0  0  0  0  0  0  0  0  0  0  0  0
   37.6060   30.0080   41.8680 N   0  0  0  0  0  0  0  0  0  0  0  0
   38.8410   30.1220   42.3690 C   0  0  0  0  0  0  0  0  0  0  0  0
   39.7950   30.0650   41.8820 H   0  0  0  0  0  0  0  0  0  0  0  0
   38.6230   30.3390   43.7130 C   0  0  0  0  0  0  0  0  0  0  0  0
   39.5120   30.5360   44.7690 C   0  0  0  0  0  3  0  0  0  0  0  0
  1  2  1  0  0  0  0
  1 25  1  0  0  0  0
  3  1  1  0  0  0  0
  4  8  1  0  0  0  0
  4  1  1  0  0  0  0
  5  4  2  0  0  0  0
  6  5  1  0  0  0  0
  6  7  1  0  0  0  0
  7  9  1  0  0  0  0
  7  8  2  0  0  0  0
  9 14  1  0  0  0  0
 10 11  1  0  0  0  0
 10  9  1  0  0  0  0
 11 19  1  0  0  0  0
 11 12  1  0  0  0  0
 12 20  1  0  0  0  0
 12 13  1  0  0  0  0
 13 22  1  0  0  0  0
 14 24  1  0  0  0  0
 14 13  1  0  0  0  0
 14 23  1  0  0  0  0
 15  5  1  0  0  0  0
 16 10  1  0  0  0  0
 17 10  1  0  0  0  0
 18 11  1  0  0  0  0
 21 13  1  0  0  0  0
 25 26  1  0  0  0  0
 27 25  1  0  0  0  0
 28 33  1  0  0  0  0
 28 34  1  0  0  0  0
 29 28  2  0  0  0  0
 30 31  2  0  0  0  0
 30 29  1  0  0  0  0
 31 32  1  0  0  0  0
 32 25  1  0  0  0  0
 32 33  2  0  0  0  0
 35 29  1  0  0  0  0
 36 37  1  0  0  0  0
 37 30  1  0  0  0  0
 38 39  1  0  0  0  0
 38 37  2  0  0  0  0
 40 38  1  0  0  0  0
 41 40  1  0  0  0  0
 42 41  1  0  0  0  0
 43 44  2  0  0  0  0
 43 41  1  0  0  0  0
 44 46  1  0  0  0  0
 45 44  1  0  0  0  0
 46 40  2  0  0  0  0
 46 47  1  0  0  0  0
 47 36  2  0  0  0  0
M  END
>  <minimizedAffinity>
-6.93544769

>  <minimizedRMSD>
1.59311807

$$$$
