
 OpenBabel03272508433D

 30 33  0  0  0  0  0  0  0  0999 V2000
   34.7620   28.8350   49.2190 C   0  0  0  0  0  0  0  0  0  0  0  0
   35.5850   28.5380   50.2990 C   0  0  0  0  0  0  0  0  0  0  0  0
   36.7320   29.2860   50.0420 C   0  0  0  0  0  0  0  0  0  0  0  0
   36.5620   29.9750   48.8660 C   0  0  0  0  0  0  0  0  0  0  0  0
   35.3670   29.6790   48.4010 O   0  0  0  0  0  0  0  0  0  0  0  0
   35.3630   27.8890   51.1140 H   0  0  0  0  0  0  0  0  0  0  0  0
   37.6130   29.3130   50.6760 H   0  0  0  0  0  0  0  0  0  0  0  0
   37.9020   32.0300   48.8870 C   0  0  0  0  0  3  0  0  0  0  0  0
   37.5140   30.8760   48.2270 C   0  0  0  0  0  0  0  0  0  0  0  0
   38.0100   30.5520   46.9710 C   0  0  0  0  0  0  0  0  0  0  0  0
   37.7030   29.6440   46.4540 H   0  0  0  0  0  0  0  0  0  0  0  0
   38.9170   31.3940   46.3420 C   0  0  0  0  0  0  0  0  0  0  0  0
   39.5660   31.3690   45.1620 N   0  0  0  0  0  0  0  0  0  0  0  0
   39.4370   30.5830   44.4720 H   0  0  0  0  0  0  0  0  0  0  0  0
   40.3180   32.4630   45.1050 N   0  0  0  0  0  0  0  0  0  0  0  0
   40.1630   33.1890   46.2290 C   0  0  0  0  0  0  0  0  0  0  0  0
   40.6710   34.1260   46.4220 H   0  0  0  0  0  0  0  0  0  0  0  0
   39.2650   32.5270   47.0490 C   0  0  0  0  0  0  0  0  0  0  0  0
   38.8160   32.9080   48.2900 C   0  0  0  0  0  3  0  0  0  0  0  0
   33.4250   28.2780   49.0410 C   0  0  0  0  0  0  0  0  0  0  0  0
   32.5000   28.7210   49.7420 O   0  0  0  0  0  0  0  0  0  0  0  0
   31.8160   25.5560   47.2260 C   0  0  0  0  0  0  0  0  0  0  0  0
   32.7410   25.2370   46.2390 C   0  0  0  0  0  0  0  0  0  0  0  0
   33.9260   25.9440   46.1780 C   0  0  0  0  0  0  0  0  0  0  0  0
   34.1310   26.9210   47.0890 N   0  0  0  0  0  0  0  0  0  0  0  0
   33.2160   27.2230   48.0500 C   0  0  0  0  0  0  0  0  0  0  0  0
   32.0610   26.5320   48.1070 N   0  0  0  0  0  0  0  0  0  0  0  0
   30.8830   25.0090   47.2840 H   0  0  0  0  0  0  0  0  0  0  0  0
   32.5340   24.4420   45.5270 H   0  0  0  0  0  0  0  0  0  0  0  0
   34.6740   25.7400   45.4390 H   0  0  0  0  0  0  0  0  0  0  0  0
  1  2  2  0  0  0  0
  2  6  1  0  0  0  0
  3  2  1  0  0  0  0
  3  7  1  0  0  0  0
  4  3  2  0  0  0  0
  5  4  1  0  0  0  0
  5  1  1  0  0  0  0
  9  4  1  0  0  0  0
  9  8  2  0  0  0  0
 10  9  1  0  0  0  0
 11 10  1  0  0  0  0
 12 10  2  0  0  0  0
 12 18  1  0  0  0  0
 13 12  1  0  0  0  0
 14 13  1  0  0  0  0
 15 13  1  0  0  0  0
 15 16  2  0  0  0  0
 16 17  1  0  0  0  0
 16 18  1  0  0  0  0
 18 19  2  0  0  0  0
 19  8  1  0  0  0  0
 20  1  1  0  0  0  0
 20 21  2  0  0  0  0
 22 28  1  0  0  0  0
 22 27  1  0  0  0  0
 23 22  2  0  0  0  0
 24 23  1  0  0  0  0
 24 25  2  0  0  0  0
 25 26  1  0  0  0  0
 26 27  2  0  0  0  0
 26 20  1  0  0  0  0
 29 23  1  0  0  0  0
 30 24  1  0  0  0  0
M  END
>  <minimizedAffinity>
-5.60714483

>  <minimizedRMSD>
3.88824749

$$$$
