
 OpenBabel03272508463D

 30 33  0  0  0  0  0  0  0  0999 V2000
   38.1950   25.3960   35.7130 C   0  0  0  0  0  0  0  0  0  0  0  0
   38.2730   26.6100   36.3840 C   0  0  0  0  0  0  0  0  0  0  0  0
   38.0750   27.5480   35.3720 C   0  0  0  0  0  0  0  0  0  0  0  0
   37.8920   26.8890   34.1820 C   0  0  0  0  0  0  0  0  0  0  0  0
   37.9710   25.5980   34.4260 O   0  0  0  0  0  0  0  0  0  0  0  0
   38.4450   26.7570   37.4250 H   0  0  0  0  0  0  0  0  0  0  0  0
   38.0670   28.6250   35.5140 H   0  0  0  0  0  0  0  0  0  0  0  0
   36.6470   28.4260   32.7300 C   0  0  0  0  0  3  0  0  0  0  0  0
   37.6530   27.4850   32.8720 C   0  0  0  0  0  0  0  0  0  0  0  0
   38.4440   27.0930   31.8000 C   0  0  0  0  0  0  0  0  0  0  0  0
   39.2340   26.3530   31.9140 H   0  0  0  0  0  0  0  0  0  0  0  0
   38.2350   27.6460   30.5430 C   0  0  0  0  0  0  0  0  0  0  0  0
   38.8090   27.4860   29.3360 N   0  0  0  0  0  0  0  0  0  0  0  0
   39.6090   26.8170   29.1820 H   0  0  0  0  0  0  0  0  0  0  0  0
   38.1790   28.2950   28.4910 N   0  0  0  0  0  0  0  0  0  0  0  0
   37.2100   28.9740   29.1380 C   0  0  0  0  0  0  0  0  0  0  0  0
   36.5550   29.6960   28.6650 H   0  0  0  0  0  0  0  0  0  0  0  0
   37.2190   28.5770   30.4640 C   0  0  0  0  0  0  0  0  0  0  0  0
   36.4020   29.0100   31.4810 C   0  0  0  0  0  3  0  0  0  0  0  0
   38.3430   24.0990   36.3640 C   0  0  0  0  0  0  0  0  0  0  0  0
   37.3330   23.5590   36.8470 O   0  0  0  0  0  0  0  0  0  0  0  0
   41.0440   21.9000   37.4430 C   0  0  0  0  0  0  0  0  0  0  0  0
   42.1020   22.2620   36.6180 C   0  0  0  0  0  0  0  0  0  0  0  0
   41.9100   23.2590   35.6820 C   0  0  0  0  0  0  0  0  0  0  0  0
   40.6930   23.8420   35.6130 N   0  0  0  0  0  0  0  0  0  0  0  0
   39.6650   23.4780   36.4280 C   0  0  0  0  0  0  0  0  0  0  0  0
   39.8540   22.5040   37.3400 N   0  0  0  0  0  0  0  0  0  0  0  0
   41.1810   21.1190   38.1810 H   0  0  0  0  0  0  0  0  0  0  0  0
   43.0640   21.7660   36.7090 H   0  0  0  0  0  0  0  0  0  0  0  0
   42.6900   23.5790   35.0200 H   0  0  0  0  0  0  0  0  0  0  0  0
  1 20  1  0  0  0  0
  1  2  2  0  0  0  0
  2  6  1  0  0  0  0
  3  7  1  0  0  0  0
  3  2  1  0  0  0  0
  4  5  1  0  0  0  0
  4  3  2  0  0  0  0
  5  1  1  0  0  0  0
  8  9  1  0  0  0  0
  9  4  1  0  0  0  0
 10 11  1  0  0  0  0
 10  9  2  0  0  0  0
 12 10  1  0  0  0  0
 13 12  1  0  0  0  0
 14 13  1  0  0  0  0
 15 16  2  0  0  0  0
 15 13  1  0  0  0  0
 16 18  1  0  0  0  0
 17 16  1  0  0  0  0
 18 12  2  0  0  0  0
 18 19  1  0  0  0  0
 19  8  2  0  0  0  0
 20 26  1  0  0  0  0
 20 21  2  0  0  0  0
 22 28  1  0  0  0  0
 23 29  1  0  0  0  0
 23 22  2  0  0  0  0
 24 23  1  0  0  0  0
 25 24  2  0  0  0  0
 25 26  1  0  0  0  0
 26 27  2  0  0  0  0
 27 22  1  0  0  0  0
 30 24  1  0  0  0  0
M  END
>  <minimizedAffinity>
-5.70186424

$$$$

 OpenBabel03272508463D

 30 33  0  0  0  0  0  0  0  0999 V2000
   36.0370   28.4510   33.4300 C   0  0  0  0  0  0  0  0  0  0  0  0
   36.9130   28.3540   32.3570 C   0  0  0  0  0  0  0  0  0  0  0  0
   37.7900   27.3450   32.7490 C   0  0  0  0  0  0  0  0  0  0  0  0
   37.4230   26.8920   33.9920 C   0  0  0  0  0  0  0  0  0  0  0  0
   36.3660   27.5810   34.3700 O   0  0  0  0  0  0  0  0  0  0  0  0
   36.8940   28.9290   31.4600 H   0  0  0  0  0  0  0  0  0  0  0  0
   38.6260   26.9820   32.1580 H   0  0  0  0  0  0  0  0  0  0  0  0
   39.0840   25.0990   34.2000 C   0  0  0  0  0  3  0  0  0  0  0  0
   38.0670   25.8440   34.7750 C   0  0  0  0  0  0  0  0  0  0  0  0
   37.6460   25.6200   36.0790 C   0  0  0  0  0  0  0  0  0  0  0  0
   36.8460   26.2070   36.5270 H   0  0  0  0  0  0  0  0  0  0  0  0
   38.2440   24.6270   36.8430 C   0  0  0  0  0  0  0  0  0  0  0  0
   38.0720   24.1710   38.0980 N   0  0  0  0  0  0  0  0  0  0  0  0
   37.3500   24.5820   38.7470 H   0  0  0  0  0  0  0  0  0  0  0  0
   38.9470   23.1890   38.2820 N   0  0  0  0  0  0  0  0  0  0  0  0
   39.6790   23.0070   37.1650 C   0  0  0  0  0  0  0  0  0  0  0  0
   40.4590   22.2620   37.0640 H   0  0  0  0  0  0  0  0  0  0  0  0
   39.2490   23.9190   36.2160 C   0  0  0  0  0  0  0  0  0  0  0  0
   39.7150   24.0870   34.9340 C   0  0  0  0  0  3  0  0  0  0  0  0
   34.9220   29.3900   33.4850 C   0  0  0  0  0  0  0  0  0  0  0  0
   34.1120   29.4050   32.5430 O   0  0  0  0  0  0  0  0  0  0  0  0
   35.8350   31.7600   36.1010 C   0  0  0  0  0  0  0  0  0  0  0  0
   34.6420   31.9600   36.7840 C   0  0  0  0  0  0  0  0  0  0  0  0
   33.5100   31.2920   36.3640 C   0  0  0  0  0  0  0  0  0  0  0  0
   33.6160   30.4660   35.2990 N   0  0  0  0  0  0  0  0  0  0  0  0
   34.7920   30.2800   34.6390 C   0  0  0  0  0  0  0  0  0  0  0  0
   35.8950   30.9340   35.0510 N   0  0  0  0  0  0  0  0  0  0  0  0
   36.7310   32.2800   36.4200 H   0  0  0  0  0  0  0  0  0  0  0  0
   34.6030   32.6340   37.6360 H   0  0  0  0  0  0  0  0  0  0  0  0
   32.5630   31.4080   36.8530 H   0  0  0  0  0  0  0  0  0  0  0  0
  1 20  1  0  0  0  0
  1  5  1  0  0  0  0
  2  3  1  0  0  0  0
  2  1  2  0  0  0  0
  3  4  2  0  0  0  0
  4  5  1  0  0  0  0
  4  9  1  0  0  0  0
  6  2  1  0  0  0  0
  7  3  1  0  0  0  0
  8  9  2  0  0  0  0
  8 19  1  0  0  0  0
  9 10  1  0  0  0  0
 10 11  1  0  0  0  0
 10 12  2  0  0  0  0
 12 13  1  0  0  0  0
 13 15  1  0  0  0  0
 13 14  1  0  0  0  0
 16 15  2  0  0  0  0
 17 16  1  0  0  0  0
 18 12  1  0  0  0  0
 18 16  1  0  0  0  0
 19 18  2  0  0  0  0
 20 26  1  0  0  0  0
 21 20  2  0  0  0  0
 22 28  1  0  0  0  0
 22 23  1  0  0  0  0
 23 29  1  0  0  0  0
 24 23  2  0  0  0  0
 24 30  1  0  0  0  0
 25 24  1  0  0  0  0
 26 27  1  0  0  0  0
 26 25  2  0  0  0  0
 27 22  2  0  0  0  0
M  END
>  <minimizedAffinity>
-5.68236303

$$$$

 OpenBabel03272508463D

 30 33  0  0  0  0  0  0  0  0999 V2000
   38.2470   24.5360   35.4720 C   0  0  0  0  0  0  0  0  0  0  0  0
   38.4930   25.4230   36.5130 C   0  0  0  0  0  0  0  0  0  0  0  0
   38.1040   26.6520   35.9840 C   0  0  0  0  0  0  0  0  0  0  0  0
   37.6570   26.4650   34.6990 C   0  0  0  0  0  0  0  0  0  0  0  0
   37.7590   25.1810   34.4270 O   0  0  0  0  0  0  0  0  0  0  0  0
   38.8870   25.1890   37.4750 H   0  0  0  0  0  0  0  0  0  0  0  0
   38.1500   27.6000   36.5130 H   0  0  0  0  0  0  0  0  0  0  0  0
   36.2280   28.4040   34.2360 C   0  0  0  0  0  3  0  0  0  0  0  0
   37.1580   27.4830   33.7820 C   0  0  0  0  0  0  0  0  0  0  0  0
   37.6290   27.5030   32.4770 C   0  0  0  0  0  0  0  0  0  0  0  0
   38.3600   26.7770   32.1230 H   0  0  0  0  0  0  0  0  0  0  0  0
   37.1680   28.4620   31.5850 C   0  0  0  0  0  0  0  0  0  0  0  0
   37.4160   28.7450   30.2920 N   0  0  0  0  0  0  0  0  0  0  0  0
   38.0970   28.1810   29.7190 H   0  0  0  0  0  0  0  0  0  0  0  0
   36.6690   29.7950   29.9690 N   0  0  0  0  0  0  0  0  0  0  0  0
   35.9450   30.1920   31.0350 C   0  0  0  0  0  0  0  0  0  0  0  0
   35.2570   31.0280   31.0240 H   0  0  0  0  0  0  0  0  0  0  0  0
   36.2440   29.3520   32.0940 C   0  0  0  0  0  0  0  0  0  0  0  0
   35.7360   29.3900   33.3710 C   0  0  0  0  0  3  0  0  0  0  0  0
   38.5030   23.1020   35.5520 C   0  0  0  0  0  0  0  0  0  0  0  0
   39.5600   22.7160   36.0790 O   0  0  0  0  0  0  0  0  0  0  0  0
   35.7240   20.7440   35.4440 C   0  0  0  0  0  0  0  0  0  0  0  0
   35.6340   20.4140   34.0970 C   0  0  0  0  0  0  0  0  0  0  0  0
   36.5180   20.9900   33.2070 C   0  0  0  0  0  0  0  0  0  0  0  0
   37.4380   21.8540   33.6920 N   0  0  0  0  0  0  0  0  0  0  0  0
   37.5140   22.1680   35.0140 C   0  0  0  0  0  0  0  0  0  0  0  0
   36.6490   21.6060   35.8800 N   0  0  0  0  0  0  0  0  0  0  0  0
   35.0350   20.2990   36.1530 H   0  0  0  0  0  0  0  0  0  0  0  0
   34.8790   19.7140   33.7520 H   0  0  0  0  0  0  0  0  0  0  0  0
   36.4950   20.7720   32.1580 H   0  0  0  0  0  0  0  0  0  0  0  0
  1 20  1  0  0  0  0
  1  2  2  0  0  0  0
  2  6  1  0  0  0  0
  3  2  1  0  0  0  0
  3  7  1  0  0  0  0
  4  3  2  0  0  0  0
  5  4  1  0  0  0  0
  5  1  1  0  0  0  0
  9  8  1  0  0  0  0
  9  4  1  0  0  0  0
 10  9  2  0  0  0  0
 11 10  1  0  0  0  0
 12 18  2  0  0  0  0
 12 10  1  0  0  0  0
 13 12  1  0  0  0  0
 14 13  1  0  0  0  0
 15 13  1  0  0  0  0
 15 16  2  0  0  0  0
 16 18  1  0  0  0  0
 17 16  1  0  0  0  0
 18 19  1  0  0  0  0
 19  8  2  0  0  0  0
 20 21  2  0  0  0  0
 22 27  1  0  0  0  0
 22 28  1  0  0  0  0
 23 22  2  0  0  0  0
 24 25  2  0  0  0  0
 24 23  1  0  0  0  0
 25 26  1  0  0  0  0
 26 20  1  0  0  0  0
 26 27  2  0  0  0  0
 29 23  1  0  0  0  0
 30 24  1  0  0  0  0
M  END
>  <minimizedAffinity>
-5.67564726

$$$$

 OpenBabel03272508463D

 30 33  0  0  0  0  0  0  0  0999 V2000
   37.1340   27.4970   32.7650 C   0  0  0  0  0  0  0  0  0  0  0  0
   37.0630   28.4280   31.7360 C   0  0  0  0  0  0  0  0  0  0  0  0
   36.2450   29.4260   32.2620 C   0  0  0  0  0  0  0  0  0  0  0  0
   35.8720   29.0720   33.5360 C   0  0  0  0  0  0  0  0  0  0  0  0
   36.4250   27.9080   33.8030 O   0  0  0  0  0  0  0  0  0  0  0  0
   37.5320   28.3650   30.7810 H   0  0  0  0  0  0  0  0  0  0  0  0
   35.9570   30.3340   31.7410 H   0  0  0  0  0  0  0  0  0  0  0  0
   33.6500   29.6260   34.4160 C   0  0  0  0  0  3  0  0  0  0  0  0
   35.0200   29.8280   34.4460 C   0  0  0  0  0  0  0  0  0  0  0  0
   35.6060   30.7320   35.3240 C   0  0  0  0  0  0  0  0  0  0  0  0
   36.6830   30.8880   35.3450 H   0  0  0  0  0  0  0  0  0  0  0  0
   34.8160   31.4630   36.2000 C   0  0  0  0  0  0  0  0  0  0  0  0
   35.0640   32.3900   37.1440 N   0  0  0  0  0  0  0  0  0  0  0  0
   36.0420   32.7170   37.3610 H   0  0  0  0  0  0  0  0  0  0  0  0
   33.8940   32.7400   37.6680 N   0  0  0  0  0  0  0  0  0  0  0  0
   32.8980   32.0520   37.0760 C   0  0  0  0  0  0  0  0  0  0  0  0
   31.8500   32.1610   37.3290 H   0  0  0  0  0  0  0  0  0  0  0  0
   33.4590   31.2200   36.1220 C   0  0  0  0  0  0  0  0  0  0  0  0
   32.8150   30.3430   35.2820 C   0  0  0  0  0  3  0  0  0  0  0  0
   37.8920   26.2530   32.6830 C   0  0  0  0  0  0  0  0  0  0  0  0
   39.1160   26.2900   32.8900 O   0  0  0  0  0  0  0  0  0  0  0  0
   35.4310   23.9850   31.2360 C   0  0  0  0  0  0  0  0  0  0  0  0
   35.8240   22.7390   31.7110 C   0  0  0  0  0  0  0  0  0  0  0  0
   36.9320   22.6540   32.5300 C   0  0  0  0  0  0  0  0  0  0  0  0
   37.5880   23.7970   32.8340 N   0  0  0  0  0  0  0  0  0  0  0  0
   37.1920   25.0100   32.3620 C   0  0  0  0  0  0  0  0  0  0  0  0
   36.1100   25.0900   31.5630 N   0  0  0  0  0  0  0  0  0  0  0  0
   34.5640   24.0650   30.5920 H   0  0  0  0  0  0  0  0  0  0  0  0
   35.2660   21.8470   31.4400 H   0  0  0  0  0  0  0  0  0  0  0  0
   37.2800   21.7210   32.9250 H   0  0  0  0  0  0  0  0  0  0  0  0
  1  5  1  0  0  0  0
  2  3  1  0  0  0  0
  2  1  2  0  0  0  0
  3  4  2  0  0  0  0
  4  5  1  0  0  0  0
  4  9  1  0  0  0  0
  6  2  1  0  0  0  0
  7  3  1  0  0  0  0
  8  9  2  0  0  0  0
  8 19  1  0  0  0  0
  9 10  1  0  0  0  0
 10 11  1  0  0  0  0
 10 12  2  0  0  0  0
 12 13  1  0  0  0  0
 13 14  1  0  0  0  0
 13 15  1  0  0  0  0
 16 17  1  0  0  0  0
 16 15  2  0  0  0  0
 18 12  1  0  0  0  0
 18 16  1  0  0  0  0
 19 18  2  0  0  0  0
 20  1  1  0  0  0  0
 20 21  2  0  0  0  0
 22 27  2  0  0  0  0
 22 23  1  0  0  0  0
 23 24  2  0  0  0  0
 24 25  1  0  0  0  0
 24 30  1  0  0  0  0
 26 20  1  0  0  0  0
 26 25  2  0  0  0  0
 27 26  1  0  0  0  0
 28 22  1  0  0  0  0
 29 23  1  0  0  0  0
M  END
>  <minimizedAffinity>
-5.67460012

$$$$

 OpenBabel03272508463D

 30 33  0  0  0  0  0  0  0  0999 V2000
   38.1750   25.1000   33.9460 C   0  0  0  0  0  0  0  0  0  0  0  0
   39.2600   25.6590   33.2810 C   0  0  0  0  0  0  0  0  0  0  0  0
   38.7930   26.9190   32.9110 C   0  0  0  0  0  0  0  0  0  0  0  0
   37.5000   27.0630   33.3490 C   0  0  0  0  0  0  0  0  0  0  0  0
   37.1620   25.9500   33.9650 O   0  0  0  0  0  0  0  0  0  0  0  0
   40.2090   25.2070   33.1110 H   0  0  0  0  0  0  0  0  0  0  0  0
   39.3690   27.6610   32.3650 H   0  0  0  0  0  0  0  0  0  0  0  0
   36.0040   28.7700   34.2820 C   0  0  0  0  0  3  0  0  0  0  0  0
   36.6350   28.2250   33.1760 C   0  0  0  0  0  0  0  0  0  0  0  0
   36.4670   28.7560   31.9040 C   0  0  0  0  0  0  0  0  0  0  0  0
   36.9630   28.3250   31.0360 H   0  0  0  0  0  0  0  0  0  0  0  0
   35.6480   29.8610   31.7130 C   0  0  0  0  0  0  0  0  0  0  0  0
   35.2850   30.5930   30.6430 N   0  0  0  0  0  0  0  0  0  0  0  0
   35.6370   30.3760   29.6740 H   0  0  0  0  0  0  0  0  0  0  0  0
   34.4660   31.5440   31.0770 N   0  0  0  0  0  0  0  0  0  0  0  0
   34.2980   31.4360   32.4110 C   0  0  0  0  0  0  0  0  0  0  0  0
   33.6740   32.0970   33.0000 H   0  0  0  0  0  0  0  0  0  0  0  0
   35.0470   30.3590   32.8520 C   0  0  0  0  0  0  0  0  0  0  0  0
   35.1690   29.8850   34.1360 C   0  0  0  0  0  3  0  0  0  0  0  0
   38.1820   23.7620   34.5270 C   0  0  0  0  0  0  0  0  0  0  0  0
   37.9300   22.7940   33.7900 O   0  0  0  0  0  0  0  0  0  0  0  0
   37.8410   24.0110   38.1480 C   0  0  0  0  0  0  0  0  0  0  0  0
   38.9670   23.3510   38.6240 C   0  0  0  0  0  0  0  0  0  0  0  0
   39.8590   22.8120   37.7180 C   0  0  0  0  0  0  0  0  0  0  0  0
   39.5920   22.9530   36.4010 N   0  0  0  0  0  0  0  0  0  0  0  0
   38.4840   23.6020   35.9490 C   0  0  0  0  0  0  0  0  0  0  0  0
   37.6150   24.1270   36.8350 N   0  0  0  0  0  0  0  0  0  0  0  0
   37.1330   24.4380   38.8490 H   0  0  0  0  0  0  0  0  0  0  0  0
   39.1420   23.2610   39.6920 H   0  0  0  0  0  0  0  0  0  0  0  0
   40.7440   22.2920   38.0280 H   0  0  0  0  0  0  0  0  0  0  0  0
  1  5  1  0  0  0  0
  1 20  1  0  0  0  0
  2  1  2  0  0  0  0
  3  2  1  0  0  0  0
  3  4  2  0  0  0  0
  4  5  1  0  0  0  0
  6  2  1  0  0  0  0
  7  3  1  0  0  0  0
  9  4  1  0  0  0  0
  9  8  2  0  0  0  0
 10  9  1  0  0  0  0
 11 10  1  0  0  0  0
 12 10  2  0  0  0  0
 12 18  1  0  0  0  0
 13 15  1  0  0  0  0
 13 12  1  0  0  0  0
 14 13  1  0  0  0  0
 15 16  2  0  0  0  0
 16 18  1  0  0  0  0
 16 17  1  0  0  0  0
 18 19  2  0  0  0  0
 19  8  1  0  0  0  0
 20 26  1  0  0  0  0
 21 20  2  0  0  0  0
 22 23  1  0  0  0  0
 22 28  1  0  0  0  0
 23 29  1  0  0  0  0
 24 30  1  0  0  0  0
 24 23  2  0  0  0  0
 25 24  1  0  0  0  0
 26 25  2  0  0  0  0
 26 27  1  0  0  0  0
 27 22  2  0  0  0  0
M  END
>  <minimizedAffinity>
-5.6499176

$$$$

 OpenBabel03272508463D

 30 33  0  0  0  0  0  0  0  0999 V2000
   38.1190   24.8510   35.9560 C   0  0  0  0  0  0  0  0  0  0  0  0
   38.3880   25.9380   36.7800 C   0  0  0  0  0  0  0  0  0  0  0  0
   38.1600   27.0330   35.9500 C   0  0  0  0  0  0  0  0  0  0  0  0
   37.7790   26.5830   34.7100 C   0  0  0  0  0  0  0  0  0  0  0  0
   37.7650   25.2670   34.7520 O   0  0  0  0  0  0  0  0  0  0  0  0
   38.6940   25.9080   37.8000 H   0  0  0  0  0  0  0  0  0  0  0  0
   38.2700   28.0730   36.2460 H   0  0  0  0  0  0  0  0  0  0  0  0
   38.2030   27.2630   32.3910 C   0  0  0  0  0  3  0  0  0  0  0  0
   37.4450   27.3910   33.5430 C   0  0  0  0  0  0  0  0  0  0  0  0
   36.3710   28.2690   33.6160 C   0  0  0  0  0  0  0  0  0  0  0  0
   35.7770   28.3680   34.5230 H   0  0  0  0  0  0  0  0  0  0  0  0
   36.0340   29.0500   32.5180 C   0  0  0  0  0  0  0  0  0  0  0  0
   35.0830   29.9700   32.2720 N   0  0  0  0  0  0  0  0  0  0  0  0
   34.3720   30.2460   33.0000 H   0  0  0  0  0  0  0  0  0  0  0  0
   35.2540   30.3860   31.0220 N   0  0  0  0  0  0  0  0  0  0  0  0
   36.3000   29.7480   30.4610 C   0  0  0  0  0  0  0  0  0  0  0  0
   36.6410   29.9150   29.4470 H   0  0  0  0  0  0  0  0  0  0  0  0
   36.8270   28.8780   31.4010 C   0  0  0  0  0  0  0  0  0  0  0  0
   37.8990   28.0300   31.2600 C   0  0  0  0  0  3  0  0  0  0  0  0
   38.2210   23.4620   36.3870 C   0  0  0  0  0  0  0  0  0  0  0  0
   37.1930   22.8870   36.7850 O   0  0  0  0  0  0  0  0  0  0  0  0
   41.2860   22.0330   35.0250 C   0  0  0  0  0  0  0  0  0  0  0  0
   41.9440   21.5520   36.1510 C   0  0  0  0  0  0  0  0  0  0  0  0
   41.3540   21.7070   37.3890 C   0  0  0  0  0  0  0  0  0  0  0  0
   40.1530   22.3250   37.4490 N   0  0  0  0  0  0  0  0  0  0  0  0
   39.5200   22.7910   36.3380 C   0  0  0  0  0  0  0  0  0  0  0  0
   40.0980   22.6390   35.1310 N   0  0  0  0  0  0  0  0  0  0  0  0
   41.7400   21.9180   34.0480 H   0  0  0  0  0  0  0  0  0  0  0  0
   42.9090   21.0610   36.0560 H   0  0  0  0  0  0  0  0  0  0  0  0
   41.8160   21.3560   38.2900 H   0  0  0  0  0  0  0  0  0  0  0  0
  1 20  1  0  0  0  0
  1  2  2  0  0  0  0
  2  6  1  0  0  0  0
  3  7  1  0  0  0  0
  3  2  1  0  0  0  0
  4  5  1  0  0  0  0
  4  3  2  0  0  0  0
  5  1  1  0  0  0  0
  8  9  1  0  0  0  0
  9 10  2  0  0  0  0
  9  4  1  0  0  0  0
 10 11  1  0  0  0  0
 12 10  1  0  0  0  0
 13 12  1  0  0  0  0
 13 14  1  0  0  0  0
 15 13  1  0  0  0  0
 16 15  2  0  0  0  0
 16 18  1  0  0  0  0
 17 16  1  0  0  0  0
 18 12  2  0  0  0  0
 19 18  1  0  0  0  0
 19  8  2  0  0  0  0
 20 21  2  0  0  0  0
 22 27  2  0  0  0  0
 22 23  1  0  0  0  0
 23 24  2  0  0  0  0
 24 25  1  0  0  0  0
 24 30  1  0  0  0  0
 26 20  1  0  0  0  0
 26 25  2  0  0  0  0
 27 26  1  0  0  0  0
 28 22  1  0  0  0  0
 29 23  1  0  0  0  0
M  END
>  <minimizedAffinity>
-5.58900213

$$$$

 OpenBabel03272508463D

 30 33  0  0  0  0  0  0  0  0999 V2000
   36.3580   27.8410   32.6470 C   0  0  0  0  0  0  0  0  0  0  0  0
   37.1360   27.3930   33.7070 C   0  0  0  0  0  0  0  0  0  0  0  0
   36.7750   28.2430   34.7500 C   0  0  0  0  0  0  0  0  0  0  0  0
   35.8330   29.1330   34.2960 C   0  0  0  0  0  0  0  0  0  0  0  0
   35.6080   28.8610   33.0280 O   0  0  0  0  0  0  0  0  0  0  0  0
   37.8340   26.5880   33.6950 H   0  0  0  0  0  0  0  0  0  0  0  0
   37.1800   28.2000   35.7580 H   0  0  0  0  0  0  0  0  0  0  0  0
   35.9660   31.1470   35.6910 C   0  0  0  0  0  3  0  0  0  0  0  0
   35.1850   30.1950   35.0570 C   0  0  0  0  0  0  0  0  0  0  0  0
   33.7980   30.2270   35.1230 C   0  0  0  0  0  0  0  0  0  0  0  0
   33.1870   29.4770   34.6240 H   0  0  0  0  0  0  0  0  0  0  0  0
   33.1590   31.2280   35.8420 C   0  0  0  0  0  0  0  0  0  0  0  0
   31.8720   31.5310   36.0960 N   0  0  0  0  0  0  0  0  0  0  0  0
   31.0770   30.9500   35.7180 H   0  0  0  0  0  0  0  0  0  0  0  0
   31.8670   32.6210   36.8550 N   0  0  0  0  0  0  0  0  0  0  0  0
   33.1320   33.0240   37.0910 C   0  0  0  0  0  0  0  0  0  0  0  0
   33.3910   33.8910   37.6870 H   0  0  0  0  0  0  0  0  0  0  0  0
   33.9890   32.1450   36.4520 C   0  0  0  0  0  0  0  0  0  0  0  0
   35.3630   32.1750   36.4270 C   0  0  0  0  0  3  0  0  0  0  0  0
   36.3870   27.2500   31.3130 C   0  0  0  0  0  0  0  0  0  0  0  0
   36.2720   28.0000   30.3290 O   0  0  0  0  0  0  0  0  0  0  0  0
   35.5570   23.7000   31.2690 C   0  0  0  0  0  0  0  0  0  0  0  0
   36.7630   23.0920   30.9400 C   0  0  0  0  0  0  0  0  0  0  0  0
   37.8750   23.8820   30.7290 C   0  0  0  0  0  0  0  0  0  0  0  0
   37.7380   25.2210   30.8530 N   0  0  0  0  0  0  0  0  0  0  0  0
   36.5510   25.8030   31.1760 C   0  0  0  0  0  0  0  0  0  0  0  0
   35.4670   25.0300   31.3810 N   0  0  0  0  0  0  0  0  0  0  0  0
   34.6770   23.0910   31.4360 H   0  0  0  0  0  0  0  0  0  0  0  0
   36.8280   22.0110   30.8510 H   0  0  0  0  0  0  0  0  0  0  0  0
   38.8300   23.4670   30.4730 H   0  0  0  0  0  0  0  0  0  0  0  0
  1  5  1  0  0  0  0
  1  2  2  0  0  0  0
  2  3  1  0  0  0  0
  3  7  1  0  0  0  0
  4  3  2  0  0  0  0
  4  9  1  0  0  0  0
  5  4  1  0  0  0  0
  6  2  1  0  0  0  0
  8 19  1  0  0  0  0
  9 10  1  0  0  0  0
  9  8  2  0  0  0  0
 10 12  2  0  0  0  0
 11 10  1  0  0  0  0
 12 13  1  0  0  0  0
 12 18  1  0  0  0  0
 13 15  1  0  0  0  0
 14 13  1  0  0  0  0
 15 16  2  0  0  0  0
 16 17  1  0  0  0  0
 18 16  1  0  0  0  0
 19 18  2  0  0  0  0
 20  1  1  0  0  0  0
 21 20  2  0  0  0  0
 22 27  1  0  0  0  0
 22 28  1  0  0  0  0
 23 22  2  0  0  0  0
 24 25  2  0  0  0  0
 24 23  1  0  0  0  0
 25 26  1  0  0  0  0
 26 20  1  0  0  0  0
 26 27  2  0  0  0  0
 29 23  1  0  0  0  0
 30 24  1  0  0  0  0
M  END
>  <minimizedAffinity>
-5.56487513

$$$$

 OpenBabel03272508463D

 30 33  0  0  0  0  0  0  0  0999 V2000
   36.5480   25.9630   31.9300 C   0  0  0  0  0  0  0  0  0  0  0  0
   35.3890   25.9720   31.1650 C   0  0  0  0  0  0  0  0  0  0  0  0
   35.1450   24.6190   30.9380 C   0  0  0  0  0  0  0  0  0  0  0  0
   36.1270   23.8790   31.5500 C   0  0  0  0  0  0  0  0  0  0  0  0
   36.9520   24.7210   32.1360 O   0  0  0  0  0  0  0  0  0  0  0  0
   34.8390   26.8260   30.8430 H   0  0  0  0  0  0  0  0  0  0  0  0
   34.3090   24.2230   30.3670 H   0  0  0  0  0  0  0  0  0  0  0  0
   37.4150   21.8460   31.0760 C   0  0  0  0  0  3  0  0  0  0  0  0
   36.2560   22.4270   31.5640 C   0  0  0  0  0  0  0  0  0  0  0  0
   35.2140   21.6610   32.0700 C   0  0  0  0  0  0  0  0  0  0  0  0
   34.3040   22.1210   32.4530 H   0  0  0  0  0  0  0  0  0  0  0  0
   35.3140   20.2770   32.0930 C   0  0  0  0  0  0  0  0  0  0  0  0
   34.5070   19.2800   32.5030 N   0  0  0  0  0  0  0  0  0  0  0  0
   33.5570   19.4660   32.9190 H   0  0  0  0  0  0  0  0  0  0  0  0
   35.1460   18.1380   32.2730 N   0  0  0  0  0  0  0  0  0  0  0  0
   36.3520   18.3860   31.7230 C   0  0  0  0  0  0  0  0  0  0  0  0
   37.0620   17.6170   31.4430 H   0  0  0  0  0  0  0  0  0  0  0  0
   36.4900   19.7570   31.5920 C   0  0  0  0  0  0  0  0  0  0  0  0
   37.5600   20.4530   31.0800 C   0  0  0  0  0  3  0  0  0  0  0  0
   37.2040   27.1700   32.4220 C   0  0  0  0  0  0  0  0  0  0  0  0
   36.6890   28.2710   32.1640 O   0  0  0  0  0  0  0  0  0  0  0  0
   39.4170   26.7270   35.2850 C   0  0  0  0  0  0  0  0  0  0  0  0
   40.6870   26.8080   34.7250 C   0  0  0  0  0  0  0  0  0  0  0  0
   40.8070   27.0130   33.3650 C   0  0  0  0  0  0  0  0  0  0  0  0
   39.6740   27.1280   32.6360 N   0  0  0  0  0  0  0  0  0  0  0  0
   38.4380   27.0480   33.1980 C   0  0  0  0  0  0  0  0  0  0  0  0
   38.3230   26.8460   34.5250 N   0  0  0  0  0  0  0  0  0  0  0  0
   39.3100   26.5660   36.3510 H   0  0  0  0  0  0  0  0  0  0  0  0
   41.5710   26.7100   35.3490 H   0  0  0  0  0  0  0  0  0  0  0  0
   41.7600   27.0840   32.8800 H   0  0  0  0  0  0  0  0  0  0  0  0
  1  5  1  0  0  0  0
  1 20  1  0  0  0  0
  2  1  2  0  0  0  0
  3  2  1  0  0  0  0
  3  4  2  0  0  0  0
  4  9  1  0  0  0  0
  4  5  1  0  0  0  0
  6  2  1  0  0  0  0
  7  3  1  0  0  0  0
  8 19  2  0  0  0  0
  8  9  1  0  0  0  0
  9 10  2  0  0  0  0
 10 12  1  0  0  0  0
 10 11  1  0  0  0  0
 12 13  1  0  0  0  0
 13 14  1  0  0  0  0
 15 13  1  0  0  0  0
 16 15  2  0  0  0  0
 17 16  1  0  0  0  0
 18 16  1  0  0  0  0
 18 12  2  0  0  0  0
 19 18  1  0  0  0  0
 20 26  1  0  0  0  0
 21 20  2  0  0  0  0
 22 28  1  0  0  0  0
 23 22  1  0  0  0  0
 23 29  1  0  0  0  0
 24 23  2  0  0  0  0
 25 26  2  0  0  0  0
 25 24  1  0  0  0  0
 26 27  1  0  0  0  0
 27 22  2  0  0  0  0
 30 24  1  0  0  0  0
M  END
>  <minimizedAffinity>
-5.47294474

$$$$

 OpenBabel03272508463D

 30 33  0  0  0  0  0  0  0  0999 V2000
   38.1690   24.9880   33.9060 C   0  0  0  0  0  0  0  0  0  0  0  0
   39.2150   25.4590   33.1220 C   0  0  0  0  0  0  0  0  0  0  0  0
   38.7800   26.7260   32.7360 C   0  0  0  0  0  0  0  0  0  0  0  0
   37.5410   26.9580   33.2800 C   0  0  0  0  0  0  0  0  0  0  0  0
   37.2060   25.8920   33.9760 O   0  0  0  0  0  0  0  0  0  0  0  0
   40.1210   24.9500   32.8890 H   0  0  0  0  0  0  0  0  0  0  0  0
   39.3400   27.4110   32.1060 H   0  0  0  0  0  0  0  0  0  0  0  0
   36.6240   28.7560   31.8860 C   0  0  0  0  0  3  0  0  0  0  0  0
   36.7230   28.1560   33.1300 C   0  0  0  0  0  0  0  0  0  0  0  0
   36.0630   28.6650   34.2410 C   0  0  0  0  0  0  0  0  0  0  0  0
   36.1430   28.1910   35.2180 H   0  0  0  0  0  0  0  0  0  0  0  0
   35.2790   29.8040   34.1230 C   0  0  0  0  0  0  0  0  0  0  0  0
   34.5330   30.5290   34.9790 N   0  0  0  0  0  0  0  0  0  0  0  0
   34.4460   30.2720   35.9970 H   0  0  0  0  0  0  0  0  0  0  0  0
   34.0010   31.5300   34.2860 N   0  0  0  0  0  0  0  0  0  0  0  0
   34.3930   31.4590   32.9980 C   0  0  0  0  0  0  0  0  0  0  0  0
   34.0920   32.1640   32.2320 H   0  0  0  0  0  0  0  0  0  0  0  0
   35.2190   30.3570   32.8600 C   0  0  0  0  0  0  0  0  0  0  0  0
   35.8440   29.9080   31.7210 C   0  0  0  0  0  3  0  0  0  0  0  0
   38.1620   23.6770   34.5460 C   0  0  0  0  0  0  0  0  0  0  0  0
   37.9400   22.6760   33.8450 O   0  0  0  0  0  0  0  0  0  0  0  0
   39.7990   22.7990   37.6830 C   0  0  0  0  0  0  0  0  0  0  0  0
   38.9680   23.3560   38.6470 C   0  0  0  0  0  0  0  0  0  0  0  0
   37.8380   24.0390   38.2430 C   0  0  0  0  0  0  0  0  0  0  0  0
   37.5920   24.1340   36.9170 N   0  0  0  0  0  0  0  0  0  0  0  0
   38.4150   23.5830   35.9840 C   0  0  0  0  0  0  0  0  0  0  0  0
   39.5170   22.9180   36.3810 N   0  0  0  0  0  0  0  0  0  0  0  0
   40.6890   22.2620   37.9880 H   0  0  0  0  0  0  0  0  0  0  0  0
   39.2040   23.2560   39.7030 H   0  0  0  0  0  0  0  0  0  0  0  0
   37.1610   24.4890   38.9420 H   0  0  0  0  0  0  0  0  0  0  0  0
  1  5  1  0  0  0  0
  1 20  1  0  0  0  0
  2  1  2  0  0  0  0
  3  2  1  0  0  0  0
  3  4  2  0  0  0  0
  4  5  1  0  0  0  0
  6  2  1  0  0  0  0
  7  3  1  0  0  0  0
  8  9  1  0  0  0  0
  9  4  1  0  0  0  0
  9 10  2  0  0  0  0
 10 11  1  0  0  0  0
 12 10  1  0  0  0  0
 12 13  1  0  0  0  0
 13 14  1  0  0  0  0
 15 13  1  0  0  0  0
 16 15  2  0  0  0  0
 17 16  1  0  0  0  0
 18 16  1  0  0  0  0
 18 12  2  0  0  0  0
 19  8  2  0  0  0  0
 19 18  1  0  0  0  0
 20 26  1  0  0  0  0
 21 20  2  0  0  0  0
 22 28  1  0  0  0  0
 22 23  1  0  0  0  0
 23 29  1  0  0  0  0
 24 23  2  0  0  0  0
 24 30  1  0  0  0  0
 25 24  1  0  0  0  0
 26 27  1  0  0  0  0
 26 25  2  0  0  0  0
 27 22  2  0  0  0  0
M  END
>  <minimizedAffinity>
-5.45416975

$$$$
