
 OpenBabel03272508433D

 30 33  0  0  0  0  0  0  0  0999 V2000
   35.5390   29.6960   49.5250 C   0  0  0  0  0  0  0  0  0  0  0  0
   36.6410   29.4290   50.3270 C   0  0  0  0  0  0  0  0  0  0  0  0
   37.6870   30.0580   49.6540 C   0  0  0  0  0  0  0  0  0  0  0  0
   37.1940   30.6550   48.5200 C   0  0  0  0  0  0  0  0  0  0  0  0
   35.9000   30.4160   48.4760 O   0  0  0  0  0  0  0  0  0  0  0  0
   36.6520   28.8720   51.2350 H   0  0  0  0  0  0  0  0  0  0  0  0
   38.7220   30.0690   49.9840 H   0  0  0  0  0  0  0  0  0  0  0  0
   38.9480   32.2730   47.9520 C   0  0  0  0  0  3  0  0  0  0  0  0
   37.9440   31.4180   47.5300 C   0  0  0  0  0  0  0  0  0  0  0  0
   37.6310   31.2680   46.1850 C   0  0  0  0  0  0  0  0  0  0  0  0
   36.8410   30.5950   45.8560 H   0  0  0  0  0  0  0  0  0  0  0  0
   38.3300   31.9840   45.2230 C   0  0  0  0  0  0  0  0  0  0  0  0
   38.2740   32.0640   43.8800 N   0  0  0  0  0  0  0  0  0  0  0  0
   37.5830   31.5020   43.3160 H   0  0  0  0  0  0  0  0  0  0  0  0
   39.2050   32.9310   43.4980 N   0  0  0  0  0  0  0  0  0  0  0  0
   39.8580   33.4100   44.5760 C   0  0  0  0  0  0  0  0  0  0  0  0
   40.6640   34.1340   44.5260 H   0  0  0  0  0  0  0  0  0  0  0  0
   39.3180   32.8190   45.7050 C   0  0  0  0  0  0  0  0  0  0  0  0
   39.6800   33.0160   47.0160 C   0  0  0  0  0  3  0  0  0  0  0  0
   34.1880   29.2350   49.8230 C   0  0  0  0  0  0  0  0  0  0  0  0
   33.5860   29.7440   50.7830 O   0  0  0  0  0  0  0  0  0  0  0  0
   31.6520   27.0740   48.3410 C   0  0  0  0  0  0  0  0  0  0  0  0
   32.3800   26.2770   47.4660 C   0  0  0  0  0  0  0  0  0  0  0  0
   33.7450   26.4640   47.3680 C   0  0  0  0  0  0  0  0  0  0  0  0
   34.3130   27.4210   48.1350 N   0  0  0  0  0  0  0  0  0  0  0  0
   33.5870   28.1950   48.9880 C   0  0  0  0  0  0  0  0  0  0  0  0
   32.2560   28.0110   49.0810 N   0  0  0  0  0  0  0  0  0  0  0  0
   30.5810   26.9380   48.4260 H   0  0  0  0  0  0  0  0  0  0  0  0
   31.8820   25.5180   46.8690 H   0  0  0  0  0  0  0  0  0  0  0  0
   34.3560   25.8780   46.7110 H   0  0  0  0  0  0  0  0  0  0  0  0
  1 20  1  0  0  0  0
  1  2  2  0  0  0  0
  2  6  1  0  0  0  0
  3  7  1  0  0  0  0
  3  2  1  0  0  0  0
  4  3  2  0  0  0  0
  5  4  1  0  0  0  0
  5  1  1  0  0  0  0
  9  8  1  0  0  0  0
  9  4  1  0  0  0  0
 10  9  2  0  0  0  0
 11 10  1  0  0  0  0
 12 18  2  0  0  0  0
 12 10  1  0  0  0  0
 13 12  1  0  0  0  0
 14 13  1  0  0  0  0
 15 13  1  0  0  0  0
 15 16  2  0  0  0  0
 16 18  1  0  0  0  0
 17 16  1  0  0  0  0
 18 19  1  0  0  0  0
 19  8  2  0  0  0  0
 20 21  2  0  0  0  0
 22 28  1  0  0  0  0
 22 27  1  0  0  0  0
 23 22  2  0  0  0  0
 24 23  1  0  0  0  0
 24 25  2  0  0  0  0
 25 26  1  0  0  0  0
 26 27  2  0  0  0  0
 26 20  1  0  0  0  0
 29 23  1  0  0  0  0
 30 24  1  0  0  0  0
M  END
>  <minimizedAffinity>
-6.27836704

>  <minimizedRMSD>
3.58517194

$$$$
