
 OpenBabel03272505343D

 38 41  0  0  1  0  0  0  0  0999 V2000
   37.3780   30.4640   49.4010 C   0  0  0  0  0  0  0  0  0  0  0  0
   37.3690   31.7000   50.0470 C   0  0  0  0  0  0  0  0  0  0  0  0
   37.8620   32.8190   49.3590 C   0  0  0  0  0  0  0  0  0  0  0  0
   38.3250   32.6210   48.0850 N   0  0  0  0  0  0  0  0  0  0  0  0
   38.3130   31.4080   47.5030 C   0  0  0  0  0  0  0  0  0  0  0  0
   37.8470   30.3420   48.1490 N   0  0  0  0  0  0  0  0  0  0  0  0
   38.8190   31.3280   46.1770 N   0  0  0  0  0  0  0  0  0  0  0  0
   40.2370   31.0510   45.9650 C   0  0  0  0  0  0  0  0  0  0  0  0
   40.8180   31.9220   44.8770 C   0  0  0  0  0  0  0  0  0  0  0  0
   39.9800   31.9830   43.7120 N   0  0  0  0  0  0  0  0  0  0  0  0
   38.7980   31.1690   43.7850 C   0  0  0  0  0  0  0  0  0  0  0  0
   37.9680   31.5140   45.0160 C   0  0  1  0  0  0  0  0  0  0  0  0
   36.9890   31.8140   51.0710 H   0  0  0  0  0  0  0  0  0  0  0  0
   37.8840   33.7930   49.7930 H   0  0  0  0  0  0  0  0  0  0  0  0
   40.3140   29.9990   45.6210 H   0  0  0  0  0  0  0  0  0  0  0  0
   40.8210   31.1720   46.8840 H   0  0  0  0  0  0  0  0  0  0  0  0
   41.7740   31.4460   44.5700 H   0  0  0  0  0  0  0  0  0  0  0  0
   41.0590   32.9500   45.2180 H   0  0  0  0  0  0  0  0  0  0  0  0
   40.4610   31.7650   42.8240 H   0  0  0  0  0  0  0  0  0  0  0  0
   39.0410   30.1050   43.8700 H   0  0  0  0  0  0  0  0  0  0  0  0
   38.1680   31.4280   42.9080 H   0  0  0  0  0  0  0  0  0  0  0  0
   37.6150   32.5680   44.9500 H   0  0  0  0  0  0  0  0  0  0  0  0
   35.8590   30.6380   46.0090 C   0  0  0  0  0  3  0  0  0  0  0  0
   36.8040   30.5900   44.9950 C   0  0  0  0  0  0  0  0  0  0  0  0
   36.6640   29.6830   43.9660 C   0  0  0  0  0  0  0  0  0  0  0  0
   37.3780   29.6050   43.1460 H   0  0  0  0  0  0  0  0  0  0  0  0
   35.5860   28.8210   43.9380 C   0  0  0  0  0  0  0  0  0  0  0  0
   35.1120   27.8360   43.1460 N   0  0  0  0  0  0  0  0  0  0  0  0
   35.5990   27.5290   42.2590 H   0  0  0  0  0  0  0  0  0  0  0  0
   33.9900   27.3310   43.6230 N   0  0  0  0  0  0  0  0  0  0  0  0
   33.6360   27.9460   44.7740 C   0  0  0  0  0  0  0  0  0  0  0  0
   32.7830   27.7610   45.3950 H   0  0  0  0  0  0  0  0  0  0  0  0
   34.6440   28.8730   44.9540 C   0  0  0  0  0  0  0  0  0  0  0  0
   34.7720   29.7830   46.0010 C   0  0  0  0  0  3  0  0  0  0  0  0
   36.8560   29.2710   50.1290 C   0  0  0  0  0  0  0  0  0  0  0  0
   36.0270   28.5330   49.2840 F   0  0  0  0  0  0  0  0  0  0  0  0
   37.9020   28.5790   50.6230 F   0  0  0  0  0  0  0  0  0  0  0  0
   36.0150   29.7620   51.1420 F   0  0  0  0  0  0  0  0  0  0  0  0
  1  2  1  0  0  0  0
  1 35  1  0  0  0  0
  2 13  1  0  0  0  0
  3 14  1  0  0  0  0
  3  2  2  0  0  0  0
  4  3  1  0  0  0  0
  5  4  2  0  0  0  0
  5  6  1  0  0  0  0
  6  1  2  0  0  0  0
  7  5  1  0  0  0  0
  8  7  1  0  0  0  0
  8 16  1  0  0  0  0
  9 18  1  0  0  0  0
  9  8  1  0  0  0  0
 10 11  1  0  0  0  0
 10  9  1  0  0  0  0
 11 20  1  0  0  0  0
 11 12  1  0  0  0  0
 12 22  1  6  0  0  0
 12  7  1  0  0  0  0
 15  8  1  0  0  0  0
 17  9  1  0  0  0  0
 19 10  1  0  0  0  0
 21 11  1  0  0  0  0
 24 12  1  0  0  0  0
 24 23  2  0  0  0  0
 25 24  1  0  0  0  0
 26 25  1  0  0  0  0
 27 25  2  0  0  0  0
 27 33  1  0  0  0  0
 28 30  1  0  0  0  0
 28 27  1  0  0  0  0
 29 28  1  0  0  0  0
 30 31  2  0  0  0  0
 31 33  1  0  0  0  0
 31 32  1  0  0  0  0
 33 34  2  0  0  0  0
 34 23  1  0  0  0  0
 35 37  1  0  0  0  0
 35 38  1  0  0  0  0
 36 35  1  0  0  0  0
M  END
>  <minimizedAffinity>
-6.5071578

>  <minimizedRMSD>
1.88635671

$$$$
