
 OpenBabel03272505343D

 38 41  0  0  1  0  0  0  0  0999 V2000
   36.8570   31.0910   49.0550 C   0  0  0  0  0  0  0  0  0  0  0  0
   37.1150   32.2790   49.7410 C   0  0  0  0  0  0  0  0  0  0  0  0
   37.9760   33.2180   49.1550 C   0  0  0  0  0  0  0  0  0  0  0  0
   38.5130   32.9040   47.9340 N   0  0  0  0  0  0  0  0  0  0  0  0
   38.2340   31.7450   47.3090 C   0  0  0  0  0  0  0  0  0  0  0  0
   37.4180   30.8490   47.8600 N   0  0  0  0  0  0  0  0  0  0  0  0
   38.8510   31.5330   46.0470 N   0  0  0  0  0  0  0  0  0  0  0  0
   40.1510   30.8710   45.9850 C   0  0  0  0  0  0  0  0  0  0  0  0
   41.0750   31.5500   45.0020 C   0  0  0  0  0  0  0  0  0  0  0  0
   40.4300   31.8470   43.7530 N   0  0  0  0  0  0  0  0  0  0  0  0
   39.0700   31.3960   43.6630 C   0  0  0  0  0  0  0  0  0  0  0  0
   38.2280   31.9540   44.8050 C   0  0  1  0  0  0  0  0  0  0  0  0
   36.6630   32.4890   50.7200 H   0  0  0  0  0  0  0  0  0  0  0  0
   38.2160   34.1450   49.6240 H   0  0  0  0  0  0  0  0  0  0  0  0
   39.9740   29.8410   45.6130 H   0  0  0  0  0  0  0  0  0  0  0  0
   40.6340   30.8200   46.9670 H   0  0  0  0  0  0  0  0  0  0  0  0
   41.8910   30.8260   44.7860 H   0  0  0  0  0  0  0  0  0  0  0  0
   41.5500   32.4680   45.4050 H   0  0  0  0  0  0  0  0  0  0  0  0
   40.9330   31.5080   42.9170 H   0  0  0  0  0  0  0  0  0  0  0  0
   38.9960   30.3060   43.7360 H   0  0  0  0  0  0  0  0  0  0  0  0
   38.6430   31.8250   42.7320 H   0  0  0  0  0  0  0  0  0  0  0  0
   38.1910   33.0650   44.7390 H   0  0  0  0  0  0  0  0  0  0  0  0
   36.0420   31.8760   43.6140 C   0  0  0  0  0  3  0  0  0  0  0  0
   36.8640   31.3920   44.6200 C   0  0  0  0  0  0  0  0  0  0  0  0
   36.4170   30.3870   45.4510 C   0  0  0  0  0  0  0  0  0  0  0  0
   37.0220   29.9720   46.2550 H   0  0  0  0  0  0  0  0  0  0  0  0
   35.1510   29.8580   45.2870 C   0  0  0  0  0  0  0  0  0  0  0  0
   34.3790   28.9140   45.8620 N   0  0  0  0  0  0  0  0  0  0  0  0
   34.7010   28.3310   46.6830 H   0  0  0  0  0  0  0  0  0  0  0  0
   33.2010   28.8270   45.2700 N   0  0  0  0  0  0  0  0  0  0  0  0
   33.1070   29.7120   44.2530 C   0  0  0  0  0  0  0  0  0  0  0  0
   32.2840   29.8810   43.5890 H   0  0  0  0  0  0  0  0  0  0  0  0
   34.3330   30.3460   44.2780 C   0  0  0  0  0  0  0  0  0  0  0  0
   34.7720   31.3620   43.4320 C   0  0  0  0  0  3  0  0  0  0  0  0
   35.9430   30.0890   49.6740 C   0  0  0  0  0  0  0  0  0  0  0  0
   34.6520   30.6140   49.7460 F   0  0  0  0  0  0  0  0  0  0  0  0
   36.0360   28.9370   48.9800 F   0  0  0  0  0  0  0  0  0  0  0  0
   36.3610   29.9430   51.0080 F   0  0  0  0  0  0  0  0  0  0  0  0
  1 35  1  0  0  0  0
  1  2  1  0  0  0  0
  2 13  1  0  0  0  0
  3 14  1  0  0  0  0
  3  2  2  0  0  0  0
  4  3  1  0  0  0  0
  5  6  1  0  0  0  0
  5  4  2  0  0  0  0
  6  1  2  0  0  0  0
  7  5  1  0  0  0  0
  8  7  1  0  0  0  0
  8 16  1  0  0  0  0
  9 18  1  0  0  0  0
  9  8  1  0  0  0  0
 10  9  1  0  0  0  0
 11 20  1  0  0  0  0
 11 10  1  0  0  0  0
 11 12  1  0  0  0  0
 12 22  1  6  0  0  0
 12  7  1  0  0  0  0
 15  8  1  0  0  0  0
 17  9  1  0  0  0  0
 19 10  1  0  0  0  0
 21 11  1  0  0  0  0
 23 24  1  0  0  0  0
 24 12  1  0  0  0  0
 24 25  2  0  0  0  0
 25 26  1  0  0  0  0
 27 25  1  0  0  0  0
 27 28  1  0  0  0  0
 28 29  1  0  0  0  0
 30 28  1  0  0  0  0
 31 33  1  0  0  0  0
 31 30  2  0  0  0  0
 32 31  1  0  0  0  0
 33 27  2  0  0  0  0
 34 23  2  0  0  0  0
 34 33  1  0  0  0  0
 35 36  1  0  0  0  0
 35 38  1  0  0  0  0
 37 35  1  0  0  0  0
M  END
>  <minimizedAffinity>
-6.26084089

>  <minimizedRMSD>
0.672635794

$$$$
