
 OpenBabel03272505343D

 38 41  0  0  1  0  0  0  0  0999 V2000
   37.0180   31.1810   49.1420 C   0  0  0  0  0  0  0  0  0  0  0  0
   37.2860   32.3990   49.7690 C   0  0  0  0  0  0  0  0  0  0  0  0
   38.1070   33.3250   49.1110 C   0  0  0  0  0  0  0  0  0  0  0  0
   38.5990   32.9700   47.8830 N   0  0  0  0  0  0  0  0  0  0  0  0
   38.3130   31.7830   47.3170 C   0  0  0  0  0  0  0  0  0  0  0  0
   37.5340   30.8990   47.9360 N   0  0  0  0  0  0  0  0  0  0  0  0
   38.8820   31.5280   46.0400 N   0  0  0  0  0  0  0  0  0  0  0  0
   40.1880   30.8830   45.9510 C   0  0  0  0  0  0  0  0  0  0  0  0
   41.0610   31.5330   44.9050 C   0  0  0  0  0  0  0  0  0  0  0  0
   40.3620   31.7710   43.6720 N   0  0  0  0  0  0  0  0  0  0  0  0
   39.0060   31.2980   43.6560 C   0  0  0  0  0  0  0  0  0  0  0  0
   38.2030   31.8910   44.8090 C   0  0  1  0  0  0  0  0  0  0  0  0
   36.8700   32.6430   50.7570 H   0  0  0  0  0  0  0  0  0  0  0  0
   38.3520   34.2740   49.5330 H   0  0  0  0  0  0  0  0  0  0  0  0
   40.0120   29.8360   45.6280 H   0  0  0  0  0  0  0  0  0  0  0  0
   40.7110   30.8780   46.9140 H   0  0  0  0  0  0  0  0  0  0  0  0
   41.8790   30.8130   44.6850 H   0  0  0  0  0  0  0  0  0  0  0  0
   41.5380   32.4740   45.2520 H   0  0  0  0  0  0  0  0  0  0  0  0
   40.8360   31.4050   42.8310 H   0  0  0  0  0  0  0  0  0  0  0  0
   38.9520   30.2120   43.7750 H   0  0  0  0  0  0  0  0  0  0  0  0
   38.5360   31.6840   42.7270 H   0  0  0  0  0  0  0  0  0  0  0  0
   38.1460   32.9970   44.7010 H   0  0  0  0  0  0  0  0  0  0  0  0
   36.4230   30.3440   45.6110 C   0  0  0  0  0  3  0  0  0  0  0  0
   36.8410   31.3040   44.7020 C   0  0  0  0  0  0  0  0  0  0  0  0
   35.9920   31.7150   43.6960 C   0  0  0  0  0  0  0  0  0  0  0  0
   36.2720   32.4640   42.9570 H   0  0  0  0  0  0  0  0  0  0  0  0
   34.7270   31.1750   43.5880 C   0  0  0  0  0  0  0  0  0  0  0  0
   33.6490   31.3030   42.7860 N   0  0  0  0  0  0  0  0  0  0  0  0
   33.6210   31.9680   41.9650 H   0  0  0  0  0  0  0  0  0  0  0  0
   32.6680   30.5040   43.1640 N   0  0  0  0  0  0  0  0  0  0  0  0
   33.0250   29.7830   44.2500 C   0  0  0  0  0  0  0  0  0  0  0  0
   32.4520   29.0540   44.7870 H   0  0  0  0  0  0  0  0  0  0  0  0
   34.3130   30.2150   44.5000 C   0  0  0  0  0  0  0  0  0  0  0  0
   35.1590   29.7910   45.5220 C   0  0  0  0  0  3  0  0  0  0  0  0
   36.1450   30.1930   49.8380 C   0  0  0  0  0  0  0  0  0  0  0  0
   34.8290   30.6570   49.8500 F   0  0  0  0  0  0  0  0  0  0  0  0
   36.3040   28.9910   49.2480 F   0  0  0  0  0  0  0  0  0  0  0  0
   36.5510   30.1840   51.1840 F   0  0  0  0  0  0  0  0  0  0  0  0
  1  2  1  0  0  0  0
  1 35  1  0  0  0  0
  2 13  1  0  0  0  0
  3 14  1  0  0  0  0
  3  2  2  0  0  0  0
  4  3  1  0  0  0  0
  5  4  2  0  0  0  0
  5  6  1  0  0  0  0
  6  1  2  0  0  0  0
  7  5  1  0  0  0  0
  8  7  1  0  0  0  0
  8 16  1  0  0  0  0
  9 18  1  0  0  0  0
  9  8  1  0  0  0  0
 10  9  1  0  0  0  0
 11 10  1  0  0  0  0
 11 20  1  0  0  0  0
 11 12  1  0  0  0  0
 12 22  1  6  0  0  0
 12  7  1  0  0  0  0
 15  8  1  0  0  0  0
 17  9  1  0  0  0  0
 19 10  1  0  0  0  0
 21 11  1  0  0  0  0
 24 12  1  0  0  0  0
 24 23  2  0  0  0  0
 25 24  1  0  0  0  0
 26 25  1  0  0  0  0
 27 25  2  0  0  0  0
 27 33  1  0  0  0  0
 28 30  1  0  0  0  0
 28 27  1  0  0  0  0
 29 28  1  0  0  0  0
 30 31  2  0  0  0  0
 31 33  1  0  0  0  0
 31 32  1  0  0  0  0
 33 34  2  0  0  0  0
 34 23  1  0  0  0  0
 35 36  1  0  0  0  0
 35 38  1  0  0  0  0
 37 35  1  0  0  0  0
M  END
>  <minimizedAffinity>
-6.28365755

>  <minimizedRMSD>
0.740322351

$$$$
