
 OpenBabel03272505343D

 38 41  0  0  1  0  0  0  0  0999 V2000
   36.7990   31.1080   49.0110 C   0  0  0  0  0  0  0  0  0  0  0  0
   37.0690   32.2790   49.7210 C   0  0  0  0  0  0  0  0  0  0  0  0
   37.9620   33.2070   49.1670 C   0  0  0  0  0  0  0  0  0  0  0  0
   38.5180   32.8990   47.9530 N   0  0  0  0  0  0  0  0  0  0  0  0
   38.2270   31.7560   47.3060 C   0  0  0  0  0  0  0  0  0  0  0  0
   37.3800   30.8710   47.8250 N   0  0  0  0  0  0  0  0  0  0  0  0
   38.8660   31.5490   46.0530 N   0  0  0  0  0  0  0  0  0  0  0  0
   40.1520   30.8590   46.0090 C   0  0  0  0  0  0  0  0  0  0  0  0
   41.1110   31.5310   45.0560 C   0  0  0  0  0  0  0  0  0  0  0  0
   40.5000   31.8610   43.7980 N   0  0  0  0  0  0  0  0  0  0  0  0
   39.1320   31.4420   43.6730 C   0  0  0  0  0  0  0  0  0  0  0  0
   38.2790   32.0020   44.8050 C   0  0  1  0  0  0  0  0  0  0  0  0
   36.6000   32.4860   50.6930 H   0  0  0  0  0  0  0  0  0  0  0  0
   38.2120   34.1220   49.6550 H   0  0  0  0  0  0  0  0  0  0  0  0
   39.9600   29.8390   45.6180 H   0  0  0  0  0  0  0  0  0  0  0  0
   40.6120   30.7830   47.0000 H   0  0  0  0  0  0  0  0  0  0  0  0
   41.9160   30.7920   44.8460 H   0  0  0  0  0  0  0  0  0  0  0  0
   41.5980   32.4320   45.4830 H   0  0  0  0  0  0  0  0  0  0  0  0
   41.0140   31.5230   42.9680 H   0  0  0  0  0  0  0  0  0  0  0  0
   39.0330   30.3530   43.7270 H   0  0  0  0  0  0  0  0  0  0  0  0
   38.7360   31.8940   42.7390 H   0  0  0  0  0  0  0  0  0  0  0  0
   38.2690   33.1140   44.7560 H   0  0  0  0  0  0  0  0  0  0  0  0
   36.4450   30.4010   45.3300 C   0  0  0  0  0  3  0  0  0  0  0  0
   36.9080   31.4740   44.5830 C   0  0  0  0  0  0  0  0  0  0  0  0
   36.0940   32.0530   43.6310 C   0  0  0  0  0  0  0  0  0  0  0  0
   36.4080   32.8970   43.0190 H   0  0  0  0  0  0  0  0  0  0  0  0
   34.8190   31.5680   43.4180 C   0  0  0  0  0  0  0  0  0  0  0  0
   33.7640   31.8440   42.6220 N   0  0  0  0  0  0  0  0  0  0  0  0
   33.7720   32.6250   41.9090 H   0  0  0  0  0  0  0  0  0  0  0  0
   32.7570   31.0230   42.8550 N   0  0  0  0  0  0  0  0  0  0  0  0
   33.0700   30.1390   43.8280 C   0  0  0  0  0  0  0  0  0  0  0  0
   32.4670   29.3540   44.2380 H   0  0  0  0  0  0  0  0  0  0  0  0
   34.3610   30.4950   44.1670 C   0  0  0  0  0  0  0  0  0  0  0  0
   35.1720   29.9010   45.1310 C   0  0  0  0  0  3  0  0  0  0  0  0
   35.8490   30.1180   49.5970 C   0  0  0  0  0  0  0  0  0  0  0  0
   34.5670   30.6670   49.6380 F   0  0  0  0  0  0  0  0  0  0  0  0
   35.9400   28.9710   48.8940 F   0  0  0  0  0  0  0  0  0  0  0  0
   36.2290   29.9510   50.9400 F   0  0  0  0  0  0  0  0  0  0  0  0
  1 35  1  0  0  0  0
  1  2  1  0  0  0  0
  2 13  1  0  0  0  0
  3 14  1  0  0  0  0
  3  2  2  0  0  0  0
  4  3  1  0  0  0  0
  5  6  1  0  0  0  0
  5  4  2  0  0  0  0
  6  1  2  0  0  0  0
  7  5  1  0  0  0  0
  8  7  1  0  0  0  0
  8 16  1  0  0  0  0
  9 18  1  0  0  0  0
  9  8  1  0  0  0  0
 10  9  1  0  0  0  0
 11 20  1  0  0  0  0
 11 10  1  0  0  0  0
 11 12  1  0  0  0  0
 12 22  1  6  0  0  0
 12  7  1  0  0  0  0
 15  8  1  0  0  0  0
 17  9  1  0  0  0  0
 19 10  1  0  0  0  0
 21 11  1  0  0  0  0
 24 12  1  0  0  0  0
 24 23  2  0  0  0  0
 25 24  1  0  0  0  0
 26 25  1  0  0  0  0
 27 25  2  0  0  0  0
 27 33  1  0  0  0  0
 28 30  1  0  0  0  0
 28 27  1  0  0  0  0
 29 28  1  0  0  0  0
 30 31  2  0  0  0  0
 31 33  1  0  0  0  0
 31 32  1  0  0  0  0
 33 34  2  0  0  0  0
 34 23  1  0  0  0  0
 35 36  1  0  0  0  0
 35 38  1  0  0  0  0
 37 35  1  0  0  0  0
M  END
>  <minimizedAffinity>
-6.1331501

>  <minimizedRMSD>
0.649972141

$$$$
