
 OpenBabel03272508433D

 30 33  0  0  0  0  0  0  0  0999 V2000
   35.5790   29.6640   49.7760 C   0  0  0  0  0  0  0  0  0  0  0  0
   36.6030   29.4050   50.6780 C   0  0  0  0  0  0  0  0  0  0  0  0
   37.7200   29.9690   50.0650 C   0  0  0  0  0  0  0  0  0  0  0  0
   37.3400   30.5220   48.8670 C   0  0  0  0  0  0  0  0  0  0  0  0
   36.0470   30.3190   48.7270 O   0  0  0  0  0  0  0  0  0  0  0  0
   36.5220   28.8940   51.6100 H   0  0  0  0  0  0  0  0  0  0  0  0
   38.7250   29.9660   50.4780 H   0  0  0  0  0  0  0  0  0  0  0  0
   38.7100   32.4560   48.2310 C   0  0  0  0  0  3  0  0  0  0  0  0
   38.1920   31.2130   47.9060 C   0  0  0  0  0  0  0  0  0  0  0  0
   38.4640   30.6050   46.6870 C   0  0  0  0  0  0  0  0  0  0  0  0
   38.0550   29.6290   46.4340 H   0  0  0  0  0  0  0  0  0  0  0  0
   39.2720   31.2430   45.7560 C   0  0  0  0  0  0  0  0  0  0  0  0
   39.7130   30.9350   44.5220 N   0  0  0  0  0  0  0  0  0  0  0  0
   39.4550   30.0310   44.0470 H   0  0  0  0  0  0  0  0  0  0  0  0
   40.4690   31.9470   44.1110 N   0  0  0  0  0  0  0  0  0  0  0  0
   40.5190   32.9010   45.0610 C   0  0  0  0  0  0  0  0  0  0  0  0
   41.0720   33.8280   44.9640 H   0  0  0  0  0  0  0  0  0  0  0  0
   39.7570   32.4780   46.1360 C   0  0  0  0  0  0  0  0  0  0  0  0
   39.5300   33.1360   47.3220 C   0  0  0  0  0  3  0  0  0  0  0  0
   34.1930   29.2570   49.9830 C   0  0  0  0  0  0  0  0  0  0  0  0
   33.5490   29.7920   50.9020 O   0  0  0  0  0  0  0  0  0  0  0  0
   31.6810   27.1690   48.3650 C   0  0  0  0  0  0  0  0  0  0  0  0
   32.4300   26.3650   47.5150 C   0  0  0  0  0  0  0  0  0  0  0  0
   33.8010   26.5220   47.4800 C   0  0  0  0  0  0  0  0  0  0  0  0
   34.3550   27.4590   48.2830 N   0  0  0  0  0  0  0  0  0  0  0  0
   33.6080   28.2390   49.1110 C   0  0  0  0  0  0  0  0  0  0  0  0
   32.2700   28.0840   49.1420 N   0  0  0  0  0  0  0  0  0  0  0  0
   30.6040   27.0550   48.4010 H   0  0  0  0  0  0  0  0  0  0  0  0
   31.9430   25.6230   46.8870 H   0  0  0  0  0  0  0  0  0  0  0  0
   34.4290   25.9300   46.8440 H   0  0  0  0  0  0  0  0  0  0  0  0
  1 20  1  0  0  0  0
  1  2  2  0  0  0  0
  2  6  1  0  0  0  0
  3  7  1  0  0  0  0
  3  2  1  0  0  0  0
  4  3  2  0  0  0  0
  5  4  1  0  0  0  0
  5  1  1  0  0  0  0
  9  8  1  0  0  0  0
  9  4  1  0  0  0  0
 10  9  2  0  0  0  0
 11 10  1  0  0  0  0
 12 18  2  0  0  0  0
 12 10  1  0  0  0  0
 13 12  1  0  0  0  0
 14 13  1  0  0  0  0
 15 13  1  0  0  0  0
 15 16  2  0  0  0  0
 16 18  1  0  0  0  0
 17 16  1  0  0  0  0
 18 19  1  0  0  0  0
 19  8  2  0  0  0  0
 20 21  2  0  0  0  0
 22 28  1  0  0  0  0
 22 27  1  0  0  0  0
 23 22  2  0  0  0  0
 24 23  1  0  0  0  0
 24 25  2  0  0  0  0
 25 26  1  0  0  0  0
 26 27  2  0  0  0  0
 26 20  1  0  0  0  0
 29 23  1  0  0  0  0
 30 24  1  0  0  0  0
M  END
>  <minimizedAffinity>
-6.55092287

>  <minimizedRMSD>
3.45701408

$$$$
