
 OpenBabel03272505353D

 38 41  0  0  1  0  0  0  0  0999 V2000
   38.5020   22.6140   34.5810 C   0  0  0  0  0  0  0  0  0  0  0  0
   38.6610   22.1460   35.8850 C   0  0  0  0  0  0  0  0  0  0  0  0
   39.6530   22.7260   36.6890 C   0  0  0  0  0  0  0  0  0  0  0  0
   40.4080   23.7260   36.1350 N   0  0  0  0  0  0  0  0  0  0  0  0
   40.2170   24.1450   34.8700 C   0  0  0  0  0  0  0  0  0  0  0  0
   39.2780   23.5990   34.1020 N   0  0  0  0  0  0  0  0  0  0  0  0
   41.0620   25.1890   34.4070 N   0  0  0  0  0  0  0  0  0  0  0  0
   42.3250   24.8550   33.7550 C   0  0  0  0  0  0  0  0  0  0  0  0
   43.4470   25.7500   34.2220 C   0  0  0  0  0  0  0  0  0  0  0  0
   43.0710   27.1370   34.2520 N   0  0  0  0  0  0  0  0  0  0  0  0
   41.7400   27.4030   33.7840 C   0  0  0  0  0  0  0  0  0  0  0  0
   40.7110   26.5890   34.5600 C   0  0  1  0  0  0  0  0  0  0  0  0
   38.0330   21.3400   36.2900 H   0  0  0  0  0  0  0  0  0  0  0  0
   39.8280   22.4160   37.6940 H   0  0  0  0  0  0  0  0  0  0  0  0
   42.1880   25.0380   32.6690 H   0  0  0  0  0  0  0  0  0  0  0  0
   42.6030   23.8070   33.9090 H   0  0  0  0  0  0  0  0  0  0  0  0
   44.2640   25.6480   33.4750 H   0  0  0  0  0  0  0  0  0  0  0  0
   43.8650   25.4550   35.2070 H   0  0  0  0  0  0  0  0  0  0  0  0
   43.7160   27.7690   33.7520 H   0  0  0  0  0  0  0  0  0  0  0  0
   41.6150   27.1280   32.7330 H   0  0  0  0  0  0  0  0  0  0  0  0
   41.5210   28.4680   34.0100 H   0  0  0  0  0  0  0  0  0  0  0  0
   40.7260   26.8850   35.6330 H   0  0  0  0  0  0  0  0  0  0  0  0
   38.3010   27.1800   34.7850 C   0  0  0  0  0  3  0  0  0  0  0  0
   39.3910   26.9250   33.9640 C   0  0  0  0  0  0  0  0  0  0  0  0
   39.2490   26.9850   32.5940 C   0  0  0  0  0  0  0  0  0  0  0  0
   40.0720   26.7940   31.9060 H   0  0  0  0  0  0  0  0  0  0  0  0
   38.0270   27.2960   32.0320 C   0  0  0  0  0  0  0  0  0  0  0  0
   37.5030   27.4470   30.7980 N   0  0  0  0  0  0  0  0  0  0  0  0
   38.0690   27.3230   29.9150 H   0  0  0  0  0  0  0  0  0  0  0  0
   36.2210   27.7620   30.8540 N   0  0  0  0  0  0  0  0  0  0  0  0
   35.8000   27.8430   32.1360 C   0  0  0  0  0  0  0  0  0  0  0  0
   34.8220   28.0780   32.5040 H   0  0  0  0  0  0  0  0  0  0  0  0
   36.9410   27.5500   32.8570 C   0  0  0  0  0  0  0  0  0  0  0  0
   37.0700   27.4940   34.2430 C   0  0  0  0  0  3  0  0  0  0  0  0
   37.4480   22.0000   33.7220 C   0  0  0  0  0  0  0  0  0  0  0  0
   36.5230   21.3290   34.5230 F   0  0  0  0  0  0  0  0  0  0  0  0
   36.9140   22.9630   32.9440 F   0  0  0  0  0  0  0  0  0  0  0  0
   38.0860   20.9990   32.9690 F   0  0  0  0  0  0  0  0  0  0  0  0
  1  2  1  0  0  0  0
  2 13  1  0  0  0  0
  2  3  2  0  0  0  0
  3 14  1  0  0  0  0
  4  3  1  0  0  0  0
  5  4  2  0  0  0  0
  6  1  2  0  0  0  0
  6  5  1  0  0  0  0
  7 12  1  0  0  0  0
  7  5  1  0  0  0  0
  8 16  1  0  0  0  0
  8  9  1  0  0  0  0
  8  7  1  0  0  0  0
  9 10  1  0  0  0  0
  9 18  1  0  0  0  0
 11 21  1  0  0  0  0
 11 10  1  0  0  0  0
 11 12  1  0  0  0  0
 12 22  1  1  0  0  0
 15  8  1  0  0  0  0
 17  9  1  0  0  0  0
 19 10  1  0  0  0  0
 20 11  1  0  0  0  0
 24 12  1  0  0  0  0
 24 23  2  0  0  0  0
 25 24  1  0  0  0  0
 26 25  1  0  0  0  0
 27 25  2  0  0  0  0
 27 33  1  0  0  0  0
 28 30  1  0  0  0  0
 28 27  1  0  0  0  0
 29 28  1  0  0  0  0
 30 31  2  0  0  0  0
 31 32  1  0  0  0  0
 31 33  1  0  0  0  0
 33 34  2  0  0  0  0
 34 23  1  0  0  0  0
 35 36  1  0  0  0  0
 35  1  1  0  0  0  0
 37 35  1  0  0  0  0
 38 35  1  0  0  0  0
M  END
>  <minimizedAffinity>
-6.06542444

$$$$

 OpenBabel03272505353D

 38 41  0  0  1  0  0  0  0  0999 V2000
   38.5790   24.2050   35.3510 C   0  0  0  0  0  0  0  0  0  0  0  0
   39.8180   23.5870   35.5260 C   0  0  0  0  0  0  0  0  0  0  0  0
   40.0690   22.3860   34.8460 C   0  0  0  0  0  0  0  0  0  0  0  0
   39.0710   21.8950   34.0460 N   0  0  0  0  0  0  0  0  0  0  0  0
   37.8920   22.5270   33.9080 C   0  0  0  0  0  0  0  0  0  0  0  0
   37.6460   23.6670   34.5510 N   0  0  0  0  0  0  0  0  0  0  0  0
   36.9350   21.9200   33.0510 N   0  0  0  0  0  0  0  0  0  0  0  0
   35.9820   20.9620   33.6030 C   0  0  0  0  0  0  0  0  0  0  0  0
   35.8090   19.7650   32.7000 C   0  0  0  0  0  0  0  0  0  0  0  0
   35.6460   20.1320   31.3210 N   0  0  0  0  0  0  0  0  0  0  0  0
   35.6210   21.5470   31.0800 C   0  0  0  0  0  0  0  0  0  0  0  0
   36.8720   22.2210   31.6320 C   0  0  1  0  0  0  0  0  0  0  0  0
   40.5910   24.0160   36.1790 H   0  0  0  0  0  0  0  0  0  0  0  0
   40.9940   21.8620   34.9340 H   0  0  0  0  0  0  0  0  0  0  0  0
   35.0000   21.4770   33.6580 H   0  0  0  0  0  0  0  0  0  0  0  0
   36.2690   20.6280   34.6060 H   0  0  0  0  0  0  0  0  0  0  0  0
   34.8700   19.2620   33.0200 H   0  0  0  0  0  0  0  0  0  0  0  0
   36.6270   19.0200   32.7940 H   0  0  0  0  0  0  0  0  0  0  0  0
   34.8200   19.7170   30.8600 H   0  0  0  0  0  0  0  0  0  0  0  0
   34.7730   22.0300   31.5750 H   0  0  0  0  0  0  0  0  0  0  0  0
   35.6560   21.6930   29.9800 H   0  0  0  0  0  0  0  0  0  0  0  0
   37.7730   21.8340   31.1060 H   0  0  0  0  0  0  0  0  0  0  0  0
   35.4500   24.2510   31.3790 C   0  0  0  0  0  3  0  0  0  0  0  0
   36.7110   23.6730   31.3540 C   0  0  0  0  0  0  0  0  0  0  0  0
   37.8170   24.4460   31.0700 C   0  0  0  0  0  0  0  0  0  0  0  0
   38.8280   24.0410   31.0370 H   0  0  0  0  0  0  0  0  0  0  0  0
   37.6770   25.7940   30.8100 C   0  0  0  0  0  0  0  0  0  0  0  0
   38.4710   26.8420   30.5050 N   0  0  0  0  0  0  0  0  0  0  0  0
   39.5190   26.7570   30.4020 H   0  0  0  0  0  0  0  0  0  0  0  0
   37.7690   27.9520   30.3570 N   0  0  0  0  0  0  0  0  0  0  0  0
   36.4520   27.7190   30.5550 C   0  0  0  0  0  0  0  0  0  0  0  0
   35.6370   28.4120   30.5070 H   0  0  0  0  0  0  0  0  0  0  0  0
   36.4140   26.3670   30.8370 C   0  0  0  0  0  0  0  0  0  0  0  0
   35.2880   25.5990   31.1220 C   0  0  0  0  0  3  0  0  0  0  0  0
   38.3070   25.4820   36.0730 C   0  0  0  0  0  0  0  0  0  0  0  0
   38.1260   25.2220   37.4320 F   0  0  0  0  0  0  0  0  0  0  0  0
   39.3040   26.3480   35.8010 F   0  0  0  0  0  0  0  0  0  0  0  0
   37.0620   25.9400   35.6100 F   0  0  0  0  0  0  0  0  0  0  0  0
  1  2  1  0  0  0  0
  1 35  1  0  0  0  0
  2 13  1  0  0  0  0
  3 14  1  0  0  0  0
  3  2  2  0  0  0  0
  4  3  1  0  0  0  0
  5  4  2  0  0  0  0
  5  6  1  0  0  0  0
  6  1  2  0  0  0  0
  7  8  1  0  0  0  0
  7  5  1  0  0  0  0
  8 15  1  0  0  0  0
  8 16  1  0  0  0  0
  9 18  1  0  0  0  0
  9 17  1  0  0  0  0
  9  8  1  0  0  0  0
 10  9  1  0  0  0  0
 11 10  1  0  0  0  0
 11 20  1  0  0  0  0
 11 12  1  0  0  0  0
 12 22  1  6  0  0  0
 12  7  1  0  0  0  0
 19 10  1  0  0  0  0
 21 11  1  0  0  0  0
 24 23  1  0  0  0  0
 24 12  1  0  0  0  0
 25 24  2  0  0  0  0
 26 25  1  0  0  0  0
 27 33  2  0  0  0  0
 27 25  1  0  0  0  0
 28 27  1  0  0  0  0
 29 28  1  0  0  0  0
 30 28  1  0  0  0  0
 30 31  2  0  0  0  0
 31 33  1  0  0  0  0
 32 31  1  0  0  0  0
 33 34  1  0  0  0  0
 34 23  2  0  0  0  0
 35 36  1  0  0  0  0
 37 35  1  0  0  0  0
 38 35  1  0  0  0  0
M  END
>  <minimizedAffinity>
-6.0236001

$$$$

 OpenBabel03272505353D

 38 41  0  0  1  0  0  0  0  0999 V2000
   36.8870   20.9690   32.8150 C   0  0  0  0  0  0  0  0  0  0  0  0
   37.6190   19.9280   32.2410 C   0  0  0  0  0  0  0  0  0  0  0  0
   38.8090   20.2370   31.5670 C   0  0  0  0  0  0  0  0  0  0  0  0
   39.1780   21.5550   31.5140 N   0  0  0  0  0  0  0  0  0  0  0  0
   38.4400   22.5250   32.0840 C   0  0  0  0  0  0  0  0  0  0  0  0
   37.3100   22.2390   32.7250 N   0  0  0  0  0  0  0  0  0  0  0  0
   38.9260   23.8560   31.9630 N   0  0  0  0  0  0  0  0  0  0  0  0
   38.5170   24.6690   30.8220 C   0  0  0  0  0  0  0  0  0  0  0  0
   39.6770   25.4460   30.2470 C   0  0  0  0  0  0  0  0  0  0  0  0
   40.4680   26.0880   31.2610 N   0  0  0  0  0  0  0  0  0  0  0  0
   39.9750   25.9160   32.5990 C   0  0  0  0  0  0  0  0  0  0  0  0
   39.8240   24.4390   32.9430 C   0  0  1  0  0  0  0  0  0  0  0  0
   37.2850   18.8830   32.3070 H   0  0  0  0  0  0  0  0  0  0  0  0
   39.4160   19.4910   31.1070 H   0  0  0  0  0  0  0  0  0  0  0  0
   37.7800   25.4080   31.1990 H   0  0  0  0  0  0  0  0  0  0  0  0
   38.0510   24.0680   30.0340 H   0  0  0  0  0  0  0  0  0  0  0  0
   39.2360   26.2490   29.6170 H   0  0  0  0  0  0  0  0  0  0  0  0
   40.3330   24.8370   29.5910 H   0  0  0  0  0  0  0  0  0  0  0  0
   40.6270   27.0970   31.1080 H   0  0  0  0  0  0  0  0  0  0  0  0
   38.9840   26.3610   32.7280 H   0  0  0  0  0  0  0  0  0  0  0  0
   40.7510   26.3120   33.2870 H   0  0  0  0  0  0  0  0  0  0  0  0
   40.8190   23.9400   32.9130 H   0  0  0  0  0  0  0  0  0  0  0  0
   38.2750   25.2720   34.7070 C   0  0  0  0  0  3  0  0  0  0  0  0
   39.2810   24.3950   34.3260 C   0  0  0  0  0  0  0  0  0  0  0  0
   39.7760   23.4810   35.2320 C   0  0  0  0  0  0  0  0  0  0  0  0
   40.5650   22.7720   34.9840 H   0  0  0  0  0  0  0  0  0  0  0  0
   39.2770   23.4350   36.5190 C   0  0  0  0  0  0  0  0  0  0  0  0
   39.4850   22.7240   37.6470 N   0  0  0  0  0  0  0  0  0  0  0  0
   40.2020   21.9500   37.7140 H   0  0  0  0  0  0  0  0  0  0  0  0
   38.6880   23.1230   38.6220 N   0  0  0  0  0  0  0  0  0  0  0  0
   37.8900   24.1330   38.2090 C   0  0  0  0  0  0  0  0  0  0  0  0
   37.1430   24.6640   38.7640 H   0  0  0  0  0  0  0  0  0  0  0  0
   38.2720   24.3130   36.8940 C   0  0  0  0  0  0  0  0  0  0  0  0
   37.7610   25.2410   35.9890 C   0  0  0  0  0  3  0  0  0  0  0  0
   35.6210   20.6440   33.5330 C   0  0  0  0  0  0  0  0  0  0  0  0
   35.7450   20.9880   34.8790 F   0  0  0  0  0  0  0  0  0  0  0  0
   34.6000   21.2520   32.8960 F   0  0  0  0  0  0  0  0  0  0  0  0
   35.5020   19.2440   33.5130 F   0  0  0  0  0  0  0  0  0  0  0  0
  1 35  1  0  0  0  0
  2 13  1  0  0  0  0
  2  1  2  0  0  0  0
  3  2  1  0  0  0  0
  4  3  2  0  0  0  0
  4  5  1  0  0  0  0
  5  6  2  0  0  0  0
  6  1  1  0  0  0  0
  7  5  1  0  0  0  0
  7 12  1  0  0  0  0
  8 15  1  0  0  0  0
  8  7  1  0  0  0  0
  9  8  1  0  0  0  0
  9 10  1  0  0  0  0
 10 11  1  0  0  0  0
 11 20  1  0  0  0  0
 11 12  1  0  0  0  0
 11 21  1  0  0  0  0
 12 22  1  6  0  0  0
 12 24  1  0  0  0  0
 14  3  1  0  0  0  0
 16  8  1  0  0  0  0
 17  9  1  0  0  0  0
 18  9  1  0  0  0  0
 19 10  1  0  0  0  0
 23 34  1  0  0  0  0
 24 23  2  0  0  0  0
 24 25  1  0  0  0  0
 25 27  2  0  0  0  0
 26 25  1  0  0  0  0
 27 33  1  0  0  0  0
 27 28  1  0  0  0  0
 28 29  1  0  0  0  0
 28 30  1  0  0  0  0
 31 30  2  0  0  0  0
 31 32  1  0  0  0  0
 33 31  1  0  0  0  0
 34 33  2  0  0  0  0
 35 36  1  0  0  0  0
 37 35  1  0  0  0  0
 38 35  1  0  0  0  0
M  END
>  <minimizedAffinity>
-6.00248957

$$$$

 OpenBabel03272505353D

 38 41  0  0  1  0  0  0  0  0999 V2000
   37.2480   22.7860   33.0600 C   0  0  0  0  0  0  0  0  0  0  0  0
   37.2100   21.8830   34.1230 C   0  0  0  0  0  0  0  0  0  0  0  0
   38.1780   21.9950   35.1320 C   0  0  0  0  0  0  0  0  0  0  0  0
   39.1070   22.9950   35.0050 N   0  0  0  0  0  0  0  0  0  0  0  0
   39.1020   23.8430   33.9610 C   0  0  0  0  0  0  0  0  0  0  0  0
   38.1870   23.7420   33.0000 N   0  0  0  0  0  0  0  0  0  0  0  0
   40.1170   24.8390   33.9400 N   0  0  0  0  0  0  0  0  0  0  0  0
   41.3880   24.5550   33.2810 C   0  0  0  0  0  0  0  0  0  0  0  0
   42.5590   25.0540   34.0930 C   0  0  0  0  0  0  0  0  0  0  0  0
   42.3600   26.3880   34.5890 N   0  0  0  0  0  0  0  0  0  0  0  0
   41.1290   27.0000   34.1730 C   0  0  0  0  0  0  0  0  0  0  0  0
   39.9300   26.1400   34.5560 C   0  0  1  0  0  0  0  0  0  0  0  0
   36.4470   21.0950   34.1840 H   0  0  0  0  0  0  0  0  0  0  0  0
   38.2070   21.3390   35.9720 H   0  0  0  0  0  0  0  0  0  0  0  0
   41.3890   25.1160   32.3240 H   0  0  0  0  0  0  0  0  0  0  0  0
   41.5140   23.4870   33.0720 H   0  0  0  0  0  0  0  0  0  0  0  0
   43.4300   25.0860   33.4030 H   0  0  0  0  0  0  0  0  0  0  0  0
   42.8320   24.3800   34.9320 H   0  0  0  0  0  0  0  0  0  0  0  0
   43.1280   27.0440   34.3780 H   0  0  0  0  0  0  0  0  0  0  0  0
   41.0810   27.1210   33.0860 H   0  0  0  0  0  0  0  0  0  0  0  0
   41.0230   27.9450   34.7460 H   0  0  0  0  0  0  0  0  0  0  0  0
   39.8710   26.0470   35.6640 H   0  0  0  0  0  0  0  0  0  0  0  0
   37.6840   27.1580   34.9040 C   0  0  0  0  0  3  0  0  0  0  0  0
   38.7320   26.8580   34.0460 C   0  0  0  0  0  0  0  0  0  0  0  0
   38.6640   27.2260   32.7190 C   0  0  0  0  0  0  0  0  0  0  0  0
   39.4590   27.0140   32.0060 H   0  0  0  0  0  0  0  0  0  0  0  0
   37.5560   27.8930   32.2380 C   0  0  0  0  0  0  0  0  0  0  0  0
   37.1250   28.4010   31.0640 N   0  0  0  0  0  0  0  0  0  0  0  0
   37.6910   28.3460   30.1730 H   0  0  0  0  0  0  0  0  0  0  0  0
   35.9330   28.9570   31.1860 N   0  0  0  0  0  0  0  0  0  0  0  0
   35.4840   28.8580   32.4570 C   0  0  0  0  0  0  0  0  0  0  0  0
   34.5590   29.2100   32.8680 H   0  0  0  0  0  0  0  0  0  0  0  0
   36.5100   28.1920   33.0990 C   0  0  0  0  0  0  0  0  0  0  0  0
   36.5660   27.8260   34.4420 C   0  0  0  0  0  3  0  0  0  0  0  0
   36.2210   22.6710   31.9840 C   0  0  0  0  0  0  0  0  0  0  0  0
   35.6100   23.9090   31.7850 F   0  0  0  0  0  0  0  0  0  0  0  0
   36.8090   22.1580   30.8850 F   0  0  0  0  0  0  0  0  0  0  0  0
   35.2110   21.8330   32.4890 F   0  0  0  0  0  0  0  0  0  0  0  0
  1  2  1  0  0  0  0
  2 13  1  0  0  0  0
  2  3  2  0  0  0  0
  3 14  1  0  0  0  0
  4  3  1  0  0  0  0
  5  4  2  0  0  0  0
  6  1  2  0  0  0  0
  6  5  1  0  0  0  0
  7  5  1  0  0  0  0
  7 12  1  0  0  0  0
  8  7  1  0  0  0  0
  8  9  1  0  0  0  0
  9 10  1  0  0  0  0
  9 18  1  0  0  0  0
 11 12  1  0  0  0  0
 11 10  1  0  0  0  0
 11 21  1  0  0  0  0
 12 22  1  1  0  0  0
 15  8  1  0  0  0  0
 16  8  1  0  0  0  0
 17  9  1  0  0  0  0
 19 10  1  0  0  0  0
 20 11  1  0  0  0  0
 24 12  1  0  0  0  0
 24 23  2  0  0  0  0
 25 24  1  0  0  0  0
 26 25  1  0  0  0  0
 27 25  2  0  0  0  0
 27 33  1  0  0  0  0
 28 30  1  0  0  0  0
 28 27  1  0  0  0  0
 29 28  1  0  0  0  0
 30 31  2  0  0  0  0
 31 32  1  0  0  0  0
 31 33  1  0  0  0  0
 33 34  2  0  0  0  0
 34 23  1  0  0  0  0
 35 38  1  0  0  0  0
 35  1  1  0  0  0  0
 36 35  1  0  0  0  0
 37 35  1  0  0  0  0
M  END
>  <minimizedAffinity>
-5.95628309

$$$$

 OpenBabel03272505353D

 38 41  0  0  1  0  0  0  0  0999 V2000
   38.1670   23.9530   35.5320 C   0  0  0  0  0  0  0  0  0  0  0  0
   37.7240   25.2140   35.9300 C   0  0  0  0  0  0  0  0  0  0  0  0
   37.6120   26.2220   34.9610 C   0  0  0  0  0  0  0  0  0  0  0  0
   37.9500   25.8980   33.6730 N   0  0  0  0  0  0  0  0  0  0  0  0
   38.3730   24.6650   33.3370 C   0  0  0  0  0  0  0  0  0  0  0  0
   38.4810   23.7040   34.2510 N   0  0  0  0  0  0  0  0  0  0  0  0
   38.6950   24.4500   31.9690 N   0  0  0  0  0  0  0  0  0  0  0  0
   40.0590   24.6850   31.5060 C   0  0  0  0  0  0  0  0  0  0  0  0
   40.0800   25.4040   30.1790 C   0  0  0  0  0  0  0  0  0  0  0  0
   39.1540   24.8450   29.2330 N   0  0  0  0  0  0  0  0  0  0  0  0
   38.4400   23.6930   29.7080 C   0  0  0  0  0  0  0  0  0  0  0  0
   37.7050   23.9990   31.0080 C   0  0  1  0  0  0  0  0  0  0  0  0
   37.4630   25.4310   36.9750 H   0  0  0  0  0  0  0  0  0  0  0  0
   37.2790   27.2070   35.1960 H   0  0  0  0  0  0  0  0  0  0  0  0
   40.5240   23.6900   31.3490 H   0  0  0  0  0  0  0  0  0  0  0  0
   40.6500   25.2470   32.2380 H   0  0  0  0  0  0  0  0  0  0  0  0
   41.1010   25.2640   29.7610 H   0  0  0  0  0  0  0  0  0  0  0  0
   39.9100   26.4970   30.2670 H   0  0  0  0  0  0  0  0  0  0  0  0
   39.5650   24.6090   28.3160 H   0  0  0  0  0  0  0  0  0  0  0  0
   39.1140   22.8590   29.9290 H   0  0  0  0  0  0  0  0  0  0  0  0
   37.6540   23.4630   28.9590 H   0  0  0  0  0  0  0  0  0  0  0  0
   36.9380   24.7870   30.8320 H   0  0  0  0  0  0  0  0  0  0  0  0
   35.7240   22.7430   31.8490 C   0  0  0  0  0  3  0  0  0  0  0  0
   37.0410   22.7300   31.4090 C   0  0  0  0  0  0  0  0  0  0  0  0
   37.7340   21.5400   31.3440 C   0  0  0  0  0  0  0  0  0  0  0  0
   38.7670   21.4760   31.0070 H   0  0  0  0  0  0  0  0  0  0  0  0
   37.1250   20.3580   31.7160 C   0  0  0  0  0  0  0  0  0  0  0  0
   37.4450   19.0490   31.7930 N   0  0  0  0  0  0  0  0  0  0  0  0
   38.3960   18.6740   31.5270 H   0  0  0  0  0  0  0  0  0  0  0  0
   36.4280   18.3300   32.2350 N   0  0  0  0  0  0  0  0  0  0  0  0
   35.3560   19.1130   32.4840 C   0  0  0  0  0  0  0  0  0  0  0  0
   34.3900   18.8270   32.8480 H   0  0  0  0  0  0  0  0  0  0  0  0
   35.8090   20.3760   32.1540 C   0  0  0  0  0  0  0  0  0  0  0  0
   35.0970   21.5710   32.2240 C   0  0  0  0  0  3  0  0  0  0  0  0
   38.2880   22.8780   36.5590 C   0  0  0  0  0  0  0  0  0  0  0  0
   39.2240   23.2540   37.5220 F   0  0  0  0  0  0  0  0  0  0  0  0
   37.0600   22.6160   37.0500 F   0  0  0  0  0  0  0  0  0  0  0  0
   38.8480   21.7670   35.9060 F   0  0  0  0  0  0  0  0  0  0  0  0
  1  2  1  0  0  0  0
  1 35  1  0  0  0  0
  2 13  1  0  0  0  0
  3 14  1  0  0  0  0
  3  2  2  0  0  0  0
  4  3  1  0  0  0  0
  5  4  2  0  0  0  0
  5  6  1  0  0  0  0
  6  1  2  0  0  0  0
  7  5  1  0  0  0  0
  8  7  1  0  0  0  0
  8 16  1  0  0  0  0
  9 18  1  0  0  0  0
  9  8  1  0  0  0  0
 10 11  1  0  0  0  0
 10  9  1  0  0  0  0
 11 20  1  0  0  0  0
 11 12  1  0  0  0  0
 12 22  1  6  0  0  0
 12 24  1  0  0  0  0
 12  7  1  0  0  0  0
 15  8  1  0  0  0  0
 17  9  1  0  0  0  0
 19 10  1  0  0  0  0
 21 11  1  0  0  0  0
 23 34  1  0  0  0  0
 24 23  2  0  0  0  0
 25 24  1  0  0  0  0
 25 27  2  0  0  0  0
 26 25  1  0  0  0  0
 27 28  1  0  0  0  0
 27 33  1  0  0  0  0
 28 30  1  0  0  0  0
 29 28  1  0  0  0  0
 30 31  2  0  0  0  0
 31 32  1  0  0  0  0
 33 34  2  0  0  0  0
 33 31  1  0  0  0  0
 35 37  1  0  0  0  0
 35 36  1  0  0  0  0
 38 35  1  0  0  0  0
M  END
>  <minimizedAffinity>
-5.9554081

$$$$

 OpenBabel03272505353D

 38 41  0  0  1  0  0  0  0  0999 V2000
   38.3450   24.0700   35.4350 C   0  0  0  0  0  0  0  0  0  0  0  0
   37.6790   25.2210   35.8580 C   0  0  0  0  0  0  0  0  0  0  0  0
   37.3940   26.2160   34.9120 C   0  0  0  0  0  0  0  0  0  0  0  0
   37.7940   25.9910   33.6210 N   0  0  0  0  0  0  0  0  0  0  0  0
   38.4330   24.8630   33.2600 C   0  0  0  0  0  0  0  0  0  0  0  0
   38.7070   23.9150   34.1520 N   0  0  0  0  0  0  0  0  0  0  0  0
   38.7970   24.7440   31.8910 N   0  0  0  0  0  0  0  0  0  0  0  0
   40.1000   25.2330   31.4490 C   0  0  0  0  0  0  0  0  0  0  0  0
   40.0000   25.9770   30.1400 C   0  0  0  0  0  0  0  0  0  0  0  0
   39.1960   25.2850   29.1710 N   0  0  0  0  0  0  0  0  0  0  0  0
   38.6980   24.0120   29.6100 C   0  0  0  0  0  0  0  0  0  0  0  0
   37.9110   24.1470   30.9090 C   0  0  1  0  0  0  0  0  0  0  0  0
   37.3770   25.3600   36.9050 H   0  0  0  0  0  0  0  0  0  0  0  0
   36.8880   27.1190   35.1670 H   0  0  0  0  0  0  0  0  0  0  0  0
   40.7380   24.3420   31.2730 H   0  0  0  0  0  0  0  0  0  0  0  0
   40.5760   25.8720   32.2000 H   0  0  0  0  0  0  0  0  0  0  0  0
   41.0320   26.0330   29.7290 H   0  0  0  0  0  0  0  0  0  0  0  0
   39.6360   27.0190   30.2520 H   0  0  0  0  0  0  0  0  0  0  0  0
   39.6490   25.1500   28.2530 H   0  0  0  0  0  0  0  0  0  0  0  0
   39.5090   23.3070   29.8180 H   0  0  0  0  0  0  0  0  0  0  0  0
   37.9710   23.6630   28.8470 H   0  0  0  0  0  0  0  0  0  0  0  0
   37.0160   24.7880   30.7430 H   0  0  0  0  0  0  0  0  0  0  0  0
   38.4270   21.7620   31.4110 C   0  0  0  0  0  3  0  0  0  0  0  0
   37.4840   22.7700   31.2730 C   0  0  0  0  0  0  0  0  0  0  0  0
   36.1470   22.4950   31.4740 C   0  0  0  0  0  0  0  0  0  0  0  0
   35.3680   23.2500   31.3770 H   0  0  0  0  0  0  0  0  0  0  0  0
   35.7420   21.2200   31.8120 C   0  0  0  0  0  0  0  0  0  0  0  0
   34.5870   20.5750   32.0790 N   0  0  0  0  0  0  0  0  0  0  0  0
   33.6450   21.0550   32.0630 H   0  0  0  0  0  0  0  0  0  0  0  0
   34.7980   19.3000   32.3540 N   0  0  0  0  0  0  0  0  0  0  0  0
   36.1160   19.0050   32.2890 C   0  0  0  0  0  0  0  0  0  0  0  0
   36.5990   18.0650   32.4590 H   0  0  0  0  0  0  0  0  0  0  0  0
   36.6890   20.2150   31.9490 C   0  0  0  0  0  0  0  0  0  0  0  0
   38.0420   20.4790   31.7500 C   0  0  0  0  0  3  0  0  0  0  0  0
   38.6500   23.0080   36.4380 C   0  0  0  0  0  0  0  0  0  0  0  0
   38.6180   21.7580   35.8200 F   0  0  0  0  0  0  0  0  0  0  0  0
   39.8240   23.3050   37.0310 F   0  0  0  0  0  0  0  0  0  0  0  0
   37.5790   23.0030   37.3480 F   0  0  0  0  0  0  0  0  0  0  0  0
  1  2  1  0  0  0  0
  1 35  1  0  0  0  0
  2 13  1  0  0  0  0
  3 14  1  0  0  0  0
  3  2  2  0  0  0  0
  4  3  1  0  0  0  0
  5  4  2  0  0  0  0
  5  6  1  0  0  0  0
  6  1  2  0  0  0  0
  7  5  1  0  0  0  0
  8  7  1  0  0  0  0
  8 16  1  0  0  0  0
  9 18  1  0  0  0  0
  9  8  1  0  0  0  0
 10 11  1  0  0  0  0
 10  9  1  0  0  0  0
 11 20  1  0  0  0  0
 11 12  1  0  0  0  0
 12 22  1  6  0  0  0
 12 24  1  0  0  0  0
 12  7  1  0  0  0  0
 15  8  1  0  0  0  0
 17  9  1  0  0  0  0
 19 10  1  0  0  0  0
 21 11  1  0  0  0  0
 23 34  1  0  0  0  0
 24 23  2  0  0  0  0
 24 25  1  0  0  0  0
 25 27  2  0  0  0  0
 26 25  1  0  0  0  0
 27 33  1  0  0  0  0
 27 28  1  0  0  0  0
 28 30  1  0  0  0  0
 29 28  1  0  0  0  0
 31 30  2  0  0  0  0
 31 32  1  0  0  0  0
 33 31  1  0  0  0  0
 34 33  2  0  0  0  0
 35 37  1  0  0  0  0
 35 38  1  0  0  0  0
 36 35  1  0  0  0  0
M  END
>  <minimizedAffinity>
-5.74441624

$$$$

 OpenBabel03272505353D

 38 41  0  0  1  0  0  0  0  0999 V2000
   38.4980   24.7670   35.6320 C   0  0  0  0  0  0  0  0  0  0  0  0
   38.1840   25.9290   36.3370 C   0  0  0  0  0  0  0  0  0  0  0  0
   38.3160   27.1640   35.6870 C   0  0  0  0  0  0  0  0  0  0  0  0
   38.7490   27.1490   34.3870 N   0  0  0  0  0  0  0  0  0  0  0  0
   39.0400   26.0020   33.7470 C   0  0  0  0  0  0  0  0  0  0  0  0
   38.9170   24.8260   34.3580 N   0  0  0  0  0  0  0  0  0  0  0  0
   39.4800   26.1130   32.4000 N   0  0  0  0  0  0  0  0  0  0  0  0
   40.9060   26.2460   32.1190 C   0  0  0  0  0  0  0  0  0  0  0  0
   41.1690   27.2820   31.0530 C   0  0  0  0  0  0  0  0  0  0  0  0
   40.2880   27.1520   29.9260 N   0  0  0  0  0  0  0  0  0  0  0  0
   39.3800   26.0420   30.0050 C   0  0  0  0  0  0  0  0  0  0  0  0
   38.5520   26.0990   31.2840 C   0  0  1  0  0  0  0  0  0  0  0  0
   37.8400   25.8960   37.3810 H   0  0  0  0  0  0  0  0  0  0  0  0
   38.0920   28.0900   36.1670 H   0  0  0  0  0  0  0  0  0  0  0  0
   41.2500   25.2690   31.7200 H   0  0  0  0  0  0  0  0  0  0  0  0
   41.4810   26.4900   33.0190 H   0  0  0  0  0  0  0  0  0  0  0  0
   42.2030   27.1000   30.6850 H   0  0  0  0  0  0  0  0  0  0  0  0
   41.1370   28.3240   31.4340 H   0  0  0  0  0  0  0  0  0  0  0  0
   40.7640   27.1080   29.0110 H   0  0  0  0  0  0  0  0  0  0  0  0
   39.9090   25.0840   30.0290 H   0  0  0  0  0  0  0  0  0  0  0  0
   38.6580   26.1490   29.1680 H   0  0  0  0  0  0  0  0  0  0  0  0
   37.9200   27.0170   31.2840 H   0  0  0  0  0  0  0  0  0  0  0  0
   36.3270   25.0050   31.5230 C   0  0  0  0  0  3  0  0  0  0  0  0
   37.6850   24.8920   31.2640 C   0  0  0  0  0  0  0  0  0  0  0  0
   38.2320   23.6560   30.9860 C   0  0  0  0  0  0  0  0  0  0  0  0
   39.2910   23.5140   30.7770 H   0  0  0  0  0  0  0  0  0  0  0  0
   37.4350   22.5300   30.9660 C   0  0  0  0  0  0  0  0  0  0  0  0
   37.5790   21.2060   30.7480 N   0  0  0  0  0  0  0  0  0  0  0  0
   38.5100   20.7600   30.5180 H   0  0  0  0  0  0  0  0  0  0  0  0
   36.4270   20.5700   30.8620 N   0  0  0  0  0  0  0  0  0  0  0  0
   35.4300   21.4300   31.1650 C   0  0  0  0  0  0  0  0  0  0  0  0
   34.3900   21.2210   31.3200 H   0  0  0  0  0  0  0  0  0  0  0  0
   36.0770   22.6490   31.2250 C   0  0  0  0  0  0  0  0  0  0  0  0
   35.5110   23.8900   31.5060 C   0  0  0  0  0  3  0  0  0  0  0  0
   38.3610   23.4510   36.3190 C   0  0  0  0  0  0  0  0  0  0  0  0
   37.7630   22.5320   35.4570 F   0  0  0  0  0  0  0  0  0  0  0  0
   39.5730   23.0770   36.7750 F   0  0  0  0  0  0  0  0  0  0  0  0
   37.4360   23.6430   37.3600 F   0  0  0  0  0  0  0  0  0  0  0  0
  1 35  1  0  0  0  0
  1  2  1  0  0  0  0
  2 13  1  0  0  0  0
  3 14  1  0  0  0  0
  3  2  2  0  0  0  0
  4  3  1  0  0  0  0
  5  6  1  0  0  0  0
  5  4  2  0  0  0  0
  6  1  2  0  0  0  0
  7  5  1  0  0  0  0
  8  7  1  0  0  0  0
  8 16  1  0  0  0  0
  9 18  1  0  0  0  0
  9  8  1  0  0  0  0
 10 11  1  0  0  0  0
 10  9  1  0  0  0  0
 11 20  1  0  0  0  0
 11 12  1  0  0  0  0
 12 22  1  1  0  0  0
 12  7  1  0  0  0  0
 15  8  1  0  0  0  0
 17  9  1  0  0  0  0
 19 10  1  0  0  0  0
 21 11  1  0  0  0  0
 24 12  1  0  0  0  0
 24 23  2  0  0  0  0
 25 24  1  0  0  0  0
 26 25  1  0  0  0  0
 27 25  2  0  0  0  0
 27 33  1  0  0  0  0
 28 30  1  0  0  0  0
 28 27  1  0  0  0  0
 29 28  1  0  0  0  0
 30 31  2  0  0  0  0
 31 33  1  0  0  0  0
 31 32  1  0  0  0  0
 33 34  2  0  0  0  0
 34 23  1  0  0  0  0
 35 37  1  0  0  0  0
 35 38  1  0  0  0  0
 36 35  1  0  0  0  0
M  END
>  <minimizedAffinity>
-5.71306658

$$$$

 OpenBabel03272505353D

 38 41  0  0  1  0  0  0  0  0999 V2000
   37.2190   26.1760   33.5620 C   0  0  0  0  0  0  0  0  0  0  0  0
   37.3530   27.4700   34.0670 C   0  0  0  0  0  0  0  0  0  0  0  0
   37.9230   27.6380   35.3370 C   0  0  0  0  0  0  0  0  0  0  0  0
   38.3140   26.5080   36.0060 N   0  0  0  0  0  0  0  0  0  0  0  0
   38.1660   25.2800   35.4780 C   0  0  0  0  0  0  0  0  0  0  0  0
   37.6260   25.1130   34.2730 N   0  0  0  0  0  0  0  0  0  0  0  0
   38.6100   24.1850   36.2670 N   0  0  0  0  0  0  0  0  0  0  0  0
   37.6800   23.5400   37.1900 C   0  0  0  0  0  0  0  0  0  0  0  0
   38.3320   23.2400   38.5180 C   0  0  0  0  0  0  0  0  0  0  0  0
   39.6320   22.6440   38.3730 N   0  0  0  0  0  0  0  0  0  0  0  0
   40.0270   22.4010   37.0150 C   0  0  0  0  0  0  0  0  0  0  0  0
   39.9690   23.6800   36.1870 C   0  0  1  0  0  0  0  0  0  0  0  0
   37.0240   28.3490   33.4960 H   0  0  0  0  0  0  0  0  0  0  0  0
   38.0550   28.5980   35.7820 H   0  0  0  0  0  0  0  0  0  0  0  0
   37.3950   22.5690   36.7360 H   0  0  0  0  0  0  0  0  0  0  0  0
   36.7780   24.1400   37.3500 H   0  0  0  0  0  0  0  0  0  0  0  0
   37.6830   22.4930   39.0260 H   0  0  0  0  0  0  0  0  0  0  0  0
   38.3980   24.1240   39.1860 H   0  0  0  0  0  0  0  0  0  0  0  0
   39.7650   21.7690   38.9050 H   0  0  0  0  0  0  0  0  0  0  0  0
   39.3620   21.6870   36.5180 H   0  0  0  0  0  0  0  0  0  0  0  0
   41.0950   22.0980   37.0340 H   0  0  0  0  0  0  0  0  0  0  0  0
   40.6910   24.4240   36.5910 H   0  0  0  0  0  0  0  0  0  0  0  0
   41.2390   24.0900   34.0840 C   0  0  0  0  0  3  0  0  0  0  0  0
   40.3640   23.2920   34.8070 C   0  0  0  0  0  0  0  0  0  0  0  0
   39.8610   22.1370   34.2460 C   0  0  0  0  0  0  0  0  0  0  0  0
   39.1720   21.4770   34.7710 H   0  0  0  0  0  0  0  0  0  0  0  0
   40.2230   21.7700   32.9650 C   0  0  0  0  0  0  0  0  0  0  0  0
   39.9630   20.7660   32.1010 N   0  0  0  0  0  0  0  0  0  0  0  0
   39.3170   19.9630   32.3330 H   0  0  0  0  0  0  0  0  0  0  0  0
   40.6120   20.9310   30.9620 N   0  0  0  0  0  0  0  0  0  0  0  0
   41.3530   22.0610   30.9880 C   0  0  0  0  0  0  0  0  0  0  0  0
   41.9840   22.4630   30.2220 H   0  0  0  0  0  0  0  0  0  0  0  0
   41.0980   22.5710   32.2460 C   0  0  0  0  0  0  0  0  0  0  0  0
   41.6140   23.7400   32.8010 C   0  0  0  0  0  3  0  0  0  0  0  0
   36.6140   25.9920   32.2110 C   0  0  0  0  0  0  0  0  0  0  0  0
   35.9540   24.7650   32.1570 F   0  0  0  0  0  0  0  0  0  0  0  0
   35.8300   27.0560   31.9460 F   0  0  0  0  0  0  0  0  0  0  0  0
   37.6860   25.8810   31.3090 F   0  0  0  0  0  0  0  0  0  0  0  0
  1  2  2  0  0  0  0
  1  6  1  0  0  0  0
  2  3  1  0  0  0  0
  3 14  1  0  0  0  0
  3  4  2  0  0  0  0
  5  4  1  0  0  0  0
  5  7  1  0  0  0  0
  6  5  2  0  0  0  0
  7  8  1  0  0  0  0
  8 16  1  0  0  0  0
  8  9  1  0  0  0  0
  9 17  1  0  0  0  0
  9 18  1  0  0  0  0
 10  9  1  0  0  0  0
 10 19  1  0  0  0  0
 11 21  1  0  0  0  0
 11 10  1  0  0  0  0
 12  7  1  0  0  0  0
 12 22  1  1  0  0  0
 12 11  1  0  0  0  0
 13  2  1  0  0  0  0
 15  8  1  0  0  0  0
 20 11  1  0  0  0  0
 23 24  1  0  0  0  0
 24 12  1  0  0  0  0
 25 26  1  0  0  0  0
 25 24  2  0  0  0  0
 27 25  1  0  0  0  0
 28 29  1  0  0  0  0
 28 27  1  0  0  0  0
 30 31  2  0  0  0  0
 30 28  1  0  0  0  0
 31 33  1  0  0  0  0
 32 31  1  0  0  0  0
 33 34  1  0  0  0  0
 33 27  2  0  0  0  0
 34 23  2  0  0  0  0
 35  1  1  0  0  0  0
 36 35  1  0  0  0  0
 37 35  1  0  0  0  0
 38 35  1  0  0  0  0
M  END
>  <minimizedAffinity>
-5.65379715

$$$$

 OpenBabel03272505353D

 38 41  0  0  1  0  0  0  0  0999 V2000
   37.1960   25.8770   32.2790 C   0  0  0  0  0  0  0  0  0  0  0  0
   35.8990   25.9760   31.7760 C   0  0  0  0  0  0  0  0  0  0  0  0
   35.3270   24.8480   31.1700 C   0  0  0  0  0  0  0  0  0  0  0  0
   36.0880   23.7110   31.1120 N   0  0  0  0  0  0  0  0  0  0  0  0
   37.3360   23.6620   31.6130 C   0  0  0  0  0  0  0  0  0  0  0  0
   37.8850   24.7290   32.1890 N   0  0  0  0  0  0  0  0  0  0  0  0
   38.0270   22.4260   31.4930 N   0  0  0  0  0  0  0  0  0  0  0  0
   38.8460   22.1720   30.3120 C   0  0  0  0  0  0  0  0  0  0  0  0
   38.6550   20.7670   29.7940 C   0  0  0  0  0  0  0  0  0  0  0  0
   38.6900   19.7830   30.8400 N   0  0  0  0  0  0  0  0  0  0  0  0
   38.9540   20.3140   32.1480 C   0  0  0  0  0  0  0  0  0  0  0  0
   37.9470   21.3980   32.5150 C   0  0  1  0  0  0  0  0  0  0  0  0
   35.3230   26.9100   31.8430 H   0  0  0  0  0  0  0  0  0  0  0  0
   34.3400   24.8550   30.7650 H   0  0  0  0  0  0  0  0  0  0  0  0
   39.9060   22.2660   30.6260 H   0  0  0  0  0  0  0  0  0  0  0  0
   38.6440   22.8900   29.5100 H   0  0  0  0  0  0  0  0  0  0  0  0
   39.5150   20.5600   29.1200 H   0  0  0  0  0  0  0  0  0  0  0  0
   37.7300   20.6410   29.1930 H   0  0  0  0  0  0  0  0  0  0  0  0
   39.3470   19.0030   30.6760 H   0  0  0  0  0  0  0  0  0  0  0  0
   39.9400   20.7830   32.2060 H   0  0  0  0  0  0  0  0  0  0  0  0
   38.7930   19.4890   32.8750 H   0  0  0  0  0  0  0  0  0  0  0  0
   36.9230   20.9640   32.5580 H   0  0  0  0  0  0  0  0  0  0  0  0
   39.6580   22.2590   34.1080 C   0  0  0  0  0  3  0  0  0  0  0  0
   38.3440   21.8860   33.8620 C   0  0  0  0  0  0  0  0  0  0  0  0
   37.4050   21.9670   34.8690 C   0  0  0  0  0  0  0  0  0  0  0  0
   36.3620   21.6860   34.7280 H   0  0  0  0  0  0  0  0  0  0  0  0
   37.7650   22.4190   36.1230 C   0  0  0  0  0  0  0  0  0  0  0  0
   37.1740   22.6340   37.3170 N   0  0  0  0  0  0  0  0  0  0  0  0
   36.1480   22.4500   37.4900 H   0  0  0  0  0  0  0  0  0  0  0  0
   38.0360   23.0940   38.2060 N   0  0  0  0  0  0  0  0  0  0  0  0
   39.2680   23.2170   37.6640 C   0  0  0  0  0  0  0  0  0  0  0  0
   40.1710   23.5610   38.1270 H   0  0  0  0  0  0  0  0  0  0  0  0
   39.0800   22.7910   36.3630 C   0  0  0  0  0  0  0  0  0  0  0  0
   40.0380   22.7150   35.3560 C   0  0  0  0  0  3  0  0  0  0  0  0
   37.8090   27.0750   32.9240 C   0  0  0  0  0  0  0  0  0  0  0  0
   36.8730   27.6870   33.7590 F   0  0  0  0  0  0  0  0  0  0  0  0
   38.9420   26.6930   33.5460 F   0  0  0  0  0  0  0  0  0  0  0  0
   38.0520   27.9990   31.8930 F   0  0  0  0  0  0  0  0  0  0  0  0
  1 35  1  0  0  0  0
  2 13  1  0  0  0  0
  2  1  2  0  0  0  0
  3  2  1  0  0  0  0
  4  3  2  0  0  0  0
  4  5  1  0  0  0  0
  5  6  2  0  0  0  0
  6  1  1  0  0  0  0
  7  5  1  0  0  0  0
  7 12  1  0  0  0  0
  8 15  1  0  0  0  0
  8  7  1  0  0  0  0
  9  8  1  0  0  0  0
  9 10  1  0  0  0  0
 10 11  1  0  0  0  0
 11 20  1  0  0  0  0
 11 12  1  0  0  0  0
 11 21  1  0  0  0  0
 12 22  1  1  0  0  0
 12 24  1  0  0  0  0
 14  3  1  0  0  0  0
 16  8  1  0  0  0  0
 17  9  1  0  0  0  0
 18  9  1  0  0  0  0
 19 10  1  0  0  0  0
 23 34  1  0  0  0  0
 24 23  2  0  0  0  0
 24 25  1  0  0  0  0
 25 27  2  0  0  0  0
 26 25  1  0  0  0  0
 27 33  1  0  0  0  0
 27 28  1  0  0  0  0
 28 29  1  0  0  0  0
 28 30  1  0  0  0  0
 31 32  1  0  0  0  0
 31 30  2  0  0  0  0
 33 31  1  0  0  0  0
 34 33  2  0  0  0  0
 35 37  1  0  0  0  0
 35 36  1  0  0  0  0
 38 35  1  0  0  0  0
M  END
>  <minimizedAffinity>
-5.62873983

$$$$
