
 OpenBabel03272509073D

 43 47  0  0  0  0  0  0  0  0999 V2000
   33.6070   26.9930   46.8580 C   0  0  0  0  0  0  0  0  0  0  0  0
   33.7810   25.6780   47.2840 C   0  0  0  0  0  0  0  0  0  0  0  0
   34.1760   24.6970   46.4150 C   0  0  0  0  0  0  0  0  0  0  0  0
   34.4120   24.9760   45.0890 C   0  0  0  0  0  0  0  0  0  0  0  0
   34.2430   26.2720   44.6600 C   0  0  0  0  0  0  0  0  0  0  0  0
   33.8440   27.2840   45.5220 C   0  0  0  0  0  0  0  0  0  0  0  0
   33.5720   25.5570   48.3360 H   0  0  0  0  0  0  0  0  0  0  0  0
   34.2590   23.7500   46.9110 H   0  0  0  0  0  0  0  0  0  0  0  0
   34.7190   24.1400   44.4830 H   0  0  0  0  0  0  0  0  0  0  0  0
   34.4600   26.3620   43.5920 H   0  0  0  0  0  0  0  0  0  0  0  0
   32.7510   29.1440   44.1280 C   0  0  0  0  0  3  0  0  0  0  0  0
   33.7690   28.5400   44.7980 C   0  0  0  0  0  0  0  0  0  0  0  0
   34.9730   29.2590   44.7490 C   0  0  0  0  0  0  0  0  0  0  0  0
   35.8770   28.8850   45.2490 H   0  0  0  0  0  0  0  0  0  0  0  0
   35.1710   30.4610   44.1040 C   0  0  0  0  0  0  0  0  0  0  0  0
   36.2070   31.2880   43.9410 N   0  0  0  0  0  0  0  0  0  0  0  0
   37.1700   31.1430   44.3250 H   0  0  0  0  0  0  0  0  0  0  0  0
   35.7980   32.3120   43.2120 N   0  0  0  0  0  0  0  0  0  0  0  0
   34.4990   32.1960   42.8770 C   0  0  0  0  0  0  0  0  0  0  0  0
   33.8650   32.8510   42.2950 H   0  0  0  0  0  0  0  0  0  0  0  0
   34.0960   31.0200   43.4430 C   0  0  0  0  0  0  0  0  0  0  0  0
   32.8960   30.3420   43.4700 C   0  0  0  0  0  3  0  0  0  0  0  0
   33.1740   28.1220   47.7250 C   0  0  0  0  0  0  0  0  0  0  0  0
   32.5330   27.6570   48.5240 H   0  0  0  0  0  0  0  0  0  0  0  0
   32.5150   28.7860   47.1740 H   0  0  0  0  0  0  0  0  0  0  0  0
   34.9920   28.4250   49.4300 C   0  0  0  0  0  3  0  0  0  0  0  0
   34.2840   28.8220   48.4030 C   0  0  0  0  0  3  0  0  0  0  0  0
   37.3890   30.1660   51.5630 C   0  0  0  0  0  0  0  0  0  0  0  0
   38.0970   30.9380   50.6230 C   0  0  0  0  0  0  0  0  0  0  0  0
   37.7250   30.8430   49.2750 C   0  0  0  0  0  0  0  0  0  0  0  0
   36.6890   29.9990   48.9490 N   0  0  0  0  0  0  0  0  0  0  0  0
   36.0530   29.2860   49.9090 C   0  0  0  0  0  0  0  0  0  0  0  0
   36.3890   29.3620   51.1890 N   0  0  0  0  0  0  0  0  0  0  0  0
   37.6590   30.2260   52.5990 H   0  0  0  0  0  0  0  0  0  0  0  0
   38.8980   31.5850   50.8940 H   0  0  0  0  0  0  0  0  0  0  0  0
   38.3880   31.6010   48.2130 C   0  0  0  0  0  0  0  0  0  0  0  0
   38.6050   31.0840   46.9560 C   0  0  0  0  0  0  0  0  0  0  0  0
   39.2550   32.0760   46.2060 C   0  0  0  0  0  0  0  0  0  0  0  0
   39.4000   33.1390   47.0350 N   0  0  0  0  0  0  0  0  0  0  0  0
   38.8830   32.8500   48.2230 N   0  0  0  0  0  0  0  0  0  0  0  0
   38.3460   30.1100   46.5710 H   0  0  0  0  0  0  0  0  0  0  0  0
   39.5580   31.9640   45.1720 H   0  0  0  0  0  0  0  0  0  0  0  0
   39.8550   34.0140   46.7230 H   0  0  0  0  0  0  0  0  0  0  0  0
  1  2  1  0  0  0  0
  1 23  1  0  0  0  0
  2  7  1  0  0  0  0
  3  8  1  0  0  0  0
  3  2  2  0  0  0  0
  4  3  1  0  0  0  0
  5  4  2  0  0  0  0
  5  6  1  0  0  0  0
  6  1  2  0  0  0  0
  9  4  1  0  0  0  0
 10  5  1  0  0  0  0
 11 12  1  0  0  0  0
 12  6  1  0  0  0  0
 13 12  2  0  0  0  0
 13 14  1  0  0  0  0
 15 13  1  0  0  0  0
 16 15  1  0  0  0  0
 16 17  1  0  0  0  0
 18 16  1  0  0  0  0
 19 18  2  0  0  0  0
 19 21  1  0  0  0  0
 20 19  1  0  0  0  0
 21 22  1  0  0  0  0
 21 15  2  0  0  0  0
 22 11  2  0  0  0  0
 23 27  1  0  0  0  0
 23 24  1  0  0  0  0
 25 23  1  0  0  0  0
 26 32  1  0  0  0  0
 27 26  2  0  0  0  0
 28 34  1  0  0  0  0
 29 35  1  0  0  0  0
 29 28  2  0  0  0  0
 30 29  1  0  0  0  0
 31 30  2  0  0  0  0
 31 32  1  0  0  0  0
 32 33  2  0  0  0  0
 33 28  1  0  0  0  0
 36 40  2  0  0  0  0
 36 30  1  0  0  0  0
 37 36  1  0  0  0  0
 38 37  2  0  0  0  0
 38 39  1  0  0  0  0
 39 40  1  0  0  0  0
 41 37  1  0  0  0  0
 42 38  1  0  0  0  0
 43 39  1  0  0  0  0
M  END
>  <minimizedAffinity>
-6.76214743

>  <minimizedRMSD>
0.479732364

$$$$
