
 OpenBabel03272509103D

 43 47  0  0  0  0  0  0  0  0999 V2000
   34.6660   29.6590   34.0970 C   0  0  0  0  0  0  0  0  0  0  0  0
   33.4940   29.5160   34.8360 C   0  0  0  0  0  0  0  0  0  0  0  0
   32.2730   29.8110   34.2940 C   0  0  0  0  0  0  0  0  0  0  0  0
   32.1610   30.2620   32.9990 C   0  0  0  0  0  0  0  0  0  0  0  0
   33.3130   30.4070   32.2620 C   0  0  0  0  0  0  0  0  0  0  0  0
   34.5630   30.1130   32.7900 C   0  0  0  0  0  0  0  0  0  0  0  0
   33.6820   29.1570   35.8370 H   0  0  0  0  0  0  0  0  0  0  0  0
   31.4840   29.6430   35.0000 H   0  0  0  0  0  0  0  0  0  0  0  0
   31.1590   30.4680   32.6610 H   0  0  0  0  0  0  0  0  0  0  0  0
   33.0900   30.7710   31.2560 H   0  0  0  0  0  0  0  0  0  0  0  0
   36.3170   31.4400   31.4630 C   0  0  0  0  0  3  0  0  0  0  0  0
   35.5830   30.3410   31.7820 C   0  0  0  0  0  0  0  0  0  0  0  0
   35.8480   29.2340   30.9590 C   0  0  0  0  0  0  0  0  0  0  0  0
   35.3250   28.2790   31.1060 H   0  0  0  0  0  0  0  0  0  0  0  0
   36.7500   29.2020   29.9160 C   0  0  0  0  0  0  0  0  0  0  0  0
   37.1410   28.2790   29.0340 N   0  0  0  0  0  0  0  0  0  0  0  0
   36.7850   27.2970   28.9790 H   0  0  0  0  0  0  0  0  0  0  0  0
   38.0550   28.8280   28.2510 N   0  0  0  0  0  0  0  0  0  0  0  0
   38.2900   30.1110   28.5870 C   0  0  0  0  0  0  0  0  0  0  0  0
   38.9670   30.8350   28.1540 H   0  0  0  0  0  0  0  0  0  0  0  0
   37.4600   30.3520   29.6460 C   0  0  0  0  0  0  0  0  0  0  0  0
   37.2270   31.4580   30.4340 C   0  0  0  0  0  3  0  0  0  0  0  0
   36.0360   29.3710   34.6020 C   0  0  0  0  0  0  0  0  0  0  0  0
   36.0090   29.6220   35.6980 H   0  0  0  0  0  0  0  0  0  0  0  0
   36.7490   30.0630   34.1640 H   0  0  0  0  0  0  0  0  0  0  0  0
   37.3860   27.4360   33.7440 C   0  0  0  0  0  3  0  0  0  0  0  0
   36.4380   27.9560   34.4830 C   0  0  0  0  0  3  0  0  0  0  0  0
   37.7220   23.9040   32.8850 C   0  0  0  0  0  0  0  0  0  0  0  0
   38.0920   23.3440   34.1220 C   0  0  0  0  0  0  0  0  0  0  0  0
   38.2110   24.2010   35.2260 C   0  0  0  0  0  0  0  0  0  0  0  0
   37.9590   25.5400   35.0340 N   0  0  0  0  0  0  0  0  0  0  0  0
   37.6070   26.0060   33.8120 C   0  0  0  0  0  0  0  0  0  0  0  0
   37.4890   25.2140   32.7570 N   0  0  0  0  0  0  0  0  0  0  0  0
   37.6260   23.2650   32.0300 H   0  0  0  0  0  0  0  0  0  0  0  0
   38.2840   22.3060   34.2510 H   0  0  0  0  0  0  0  0  0  0  0  0
   38.5840   23.7300   36.5600 C   0  0  0  0  0  0  0  0  0  0  0  0
   37.9980   24.2090   37.7080 C   0  0  0  0  0  0  0  0  0  0  0  0
   38.5930   23.5410   38.7890 C   0  0  0  0  0  0  0  0  0  0  0  0
   39.5050   22.6960   38.2510 N   0  0  0  0  0  0  0  0  0  0  0  0
   39.4940   22.8120   36.9280 N   0  0  0  0  0  0  0  0  0  0  0  0
   37.2240   24.9550   37.8120 H   0  0  0  0  0  0  0  0  0  0  0  0
   38.3370   23.7060   39.8290 H   0  0  0  0  0  0  0  0  0  0  0  0
   40.0890   22.0780   38.8400 H   0  0  0  0  0  0  0  0  0  0  0  0
  1 23  1  0  0  0  0
  1  2  1  0  0  0  0
  2  7  1  0  0  0  0
  3  2  2  0  0  0  0
  3  8  1  0  0  0  0
  4  3  1  0  0  0  0
  5  6  1  0  0  0  0
  5  4  2  0  0  0  0
  6  1  2  0  0  0  0
  9  4  1  0  0  0  0
 10  5  1  0  0  0  0
 11 12  1  0  0  0  0
 12  6  1  0  0  0  0
 13 14  1  0  0  0  0
 13 12  2  0  0  0  0
 15 13  1  0  0  0  0
 16 15  1  0  0  0  0
 17 16  1  0  0  0  0
 18 19  2  0  0  0  0
 18 16  1  0  0  0  0
 19 21  1  0  0  0  0
 20 19  1  0  0  0  0
 21 15  2  0  0  0  0
 21 22  1  0  0  0  0
 22 11  2  0  0  0  0
 23 24  1  0  0  0  0
 25 23  1  0  0  0  0
 26 32  1  0  0  0  0
 26 27  2  0  0  0  0
 27 23  1  0  0  0  0
 28 29  1  0  0  0  0
 29 35  1  0  0  0  0
 29 30  2  0  0  0  0
 30 36  1  0  0  0  0
 31 30  1  0  0  0  0
 32 31  2  0  0  0  0
 33 28  2  0  0  0  0
 33 32  1  0  0  0  0
 34 28  1  0  0  0  0
 36 40  2  0  0  0  0
 36 37  1  0  0  0  0
 37 41  1  0  0  0  0
 37 38  2  0  0  0  0
 38 42  1  0  0  0  0
 39 38  1  0  0  0  0
 39 43  1  0  0  0  0
 40 39  1  0  0  0  0
M  END
>  <minimizedAffinity>
-7.03892994

$$$$

 OpenBabel03272509103D

 43 47  0  0  0  0  0  0  0  0999 V2000
   39.9250   27.1220   31.9590 C   0  0  0  0  0  0  0  0  0  0  0  0
   40.8730   27.5700   31.0430 C   0  0  0  0  0  0  0  0  0  0  0  0
   42.1520   27.8640   31.4300 C   0  0  0  0  0  0  0  0  0  0  0  0
   42.5450   27.7290   32.7410 C   0  0  0  0  0  0  0  0  0  0  0  0
   41.6150   27.2870   33.6540 C   0  0  0  0  0  0  0  0  0  0  0  0
   40.3120   26.9820   33.2840 C   0  0  0  0  0  0  0  0  0  0  0  0
   40.4730   27.6440   30.0420 H   0  0  0  0  0  0  0  0  0  0  0  0
   42.7440   28.1930   30.5990 H   0  0  0  0  0  0  0  0  0  0  0  0
   43.5710   27.9840   32.9510 H   0  0  0  0  0  0  0  0  0  0  0  0
   42.0500   27.2230   34.6550 H   0  0  0  0  0  0  0  0  0  0  0  0
   38.8560   27.1940   35.3890 C   0  0  0  0  0  3  0  0  0  0  0  0
   39.5710   26.5250   34.4460 C   0  0  0  0  0  0  0  0  0  0  0  0
   39.6180   25.1380   34.6610 C   0  0  0  0  0  0  0  0  0  0  0  0
   40.1620   24.4760   33.9740 H   0  0  0  0  0  0  0  0  0  0  0  0
   39.0200   24.4620   35.7040 C   0  0  0  0  0  0  0  0  0  0  0  0
   38.9460   23.1840   36.0820 N   0  0  0  0  0  0  0  0  0  0  0  0
   39.3840   22.3740   35.5860 H   0  0  0  0  0  0  0  0  0  0  0  0
   38.2220   23.1290   37.1880 N   0  0  0  0  0  0  0  0  0  0  0  0
   37.8040   24.3530   37.5670 C   0  0  0  0  0  0  0  0  0  0  0  0
   37.2040   24.6540   38.4150 H   0  0  0  0  0  0  0  0  0  0  0  0
   38.3110   25.2030   36.6260 C   0  0  0  0  0  0  0  0  0  0  0  0
   38.2420   26.5670   36.4460 C   0  0  0  0  0  3  0  0  0  0  0  0
   38.5120   26.7850   31.6330 C   0  0  0  0  0  0  0  0  0  0  0  0
   38.2290   25.9640   32.3480 H   0  0  0  0  0  0  0  0  0  0  0  0
   38.4520   26.3420   30.6440 H   0  0  0  0  0  0  0  0  0  0  0  0
   36.5560   27.9650   32.6740 C   0  0  0  0  0  3  0  0  0  0  0  0
   37.5640   27.8970   31.8400 C   0  0  0  0  0  3  0  0  0  0  0  0
   34.5630   30.8710   31.7210 C   0  0  0  0  0  0  0  0  0  0  0  0
   34.2930   31.4530   32.9730 C   0  0  0  0  0  0  0  0  0  0  0  0
   34.8110   30.8300   34.1180 C   0  0  0  0  0  0  0  0  0  0  0  0
   35.5540   29.6850   33.9490 N   0  0  0  0  0  0  0  0  0  0  0  0
   35.7720   29.1820   32.7110 C   0  0  0  0  0  0  0  0  0  0  0  0
   35.2920   29.7550   31.6170 N   0  0  0  0  0  0  0  0  0  0  0  0
   34.1750   31.3330   30.8350 H   0  0  0  0  0  0  0  0  0  0  0  0
   33.7150   32.3400   33.0850 H   0  0  0  0  0  0  0  0  0  0  0  0
   34.5980   31.3480   35.4700 C   0  0  0  0  0  0  0  0  0  0  0  0
   33.3440   31.5090   36.0130 C   0  0  0  0  0  0  0  0  0  0  0  0
   33.5160   32.0200   37.3090 C   0  0  0  0  0  0  0  0  0  0  0  0
   34.8540   32.1450   37.4890 N   0  0  0  0  0  0  0  0  0  0  0  0
   35.4890   31.7440   36.3940 N   0  0  0  0  0  0  0  0  0  0  0  0
   32.3830   31.2980   35.5710 H   0  0  0  0  0  0  0  0  0  0  0  0
   32.7060   32.2520   37.9900 H   0  0  0  0  0  0  0  0  0  0  0  0
   35.2530   32.5050   38.3720 H   0  0  0  0  0  0  0  0  0  0  0  0
  1  6  1  0  0  0  0
  2  3  1  0  0  0  0
  2  1  2  0  0  0  0
  3  4  2  0  0  0  0
  4  9  1  0  0  0  0
  4  5  1  0  0  0  0
  5 10  1  0  0  0  0
  6  5  2  0  0  0  0
  6 12  1  0  0  0  0
  7  2  1  0  0  0  0
  8  3  1  0  0  0  0
 11 22  1  0  0  0  0
 12 13  1  0  0  0  0
 12 11  2  0  0  0  0
 13 15  2  0  0  0  0
 14 13  1  0  0  0  0
 15 16  1  0  0  0  0
 15 21  1  0  0  0  0
 16 18  1  0  0  0  0
 17 16  1  0  0  0  0
 18 19  2  0  0  0  0
 19 20  1  0  0  0  0
 21 19  1  0  0  0  0
 22 21  2  0  0  0  0
 23 27  1  0  0  0  0
 23  1  1  0  0  0  0
 23 24  1  0  0  0  0
 25 23  1  0  0  0  0
 26 32  1  0  0  0  0
 27 26  2  0  0  0  0
 28 29  1  0  0  0  0
 29 35  1  0  0  0  0
 29 30  2  0  0  0  0
 30 36  1  0  0  0  0
 31 30  1  0  0  0  0
 32 31  2  0  0  0  0
 33 28  2  0  0  0  0
 33 32  1  0  0  0  0
 34 28  1  0  0  0  0
 36 37  1  0  0  0  0
 36 40  2  0  0  0  0
 37 38  2  0  0  0  0
 38 39  1  0  0  0  0
 38 42  1  0  0  0  0
 39 43  1  0  0  0  0
 40 39  1  0  0  0  0
 41 37  1  0  0  0  0
M  END
>  <minimizedAffinity>
-7.01146412

$$$$

 OpenBabel03272509103D

 43 47  0  0  0  0  0  0  0  0999 V2000
   36.7830   28.2810   33.6660 C   0  0  0  0  0  0  0  0  0  0  0  0
   37.1710   27.6490   32.4880 C   0  0  0  0  0  0  0  0  0  0  0  0
   36.7170   28.0760   31.2700 C   0  0  0  0  0  0  0  0  0  0  0  0
   35.8590   29.1460   31.1680 C   0  0  0  0  0  0  0  0  0  0  0  0
   35.4710   29.7780   32.3270 C   0  0  0  0  0  0  0  0  0  0  0  0
   35.9180   29.3620   33.5730 C   0  0  0  0  0  0  0  0  0  0  0  0
   37.8420   26.8220   32.6680 H   0  0  0  0  0  0  0  0  0  0  0  0
   37.1150   27.4770   30.4750 H   0  0  0  0  0  0  0  0  0  0  0  0
   35.5560   29.4100   30.1680 H   0  0  0  0  0  0  0  0  0  0  0  0
   34.7920   30.6070   32.1120 H   0  0  0  0  0  0  0  0  0  0  0  0
   35.9450   31.0790   35.4840 C   0  0  0  0  0  3  0  0  0  0  0  0
   35.3630   30.2230   34.6020 C   0  0  0  0  0  0  0  0  0  0  0  0
   33.9680   30.1430   34.7410 C   0  0  0  0  0  0  0  0  0  0  0  0
   33.3700   29.4880   34.0920 H   0  0  0  0  0  0  0  0  0  0  0  0
   33.2070   30.8360   35.6590 C   0  0  0  0  0  0  0  0  0  0  0  0
   31.9050   30.9010   35.9490 N   0  0  0  0  0  0  0  0  0  0  0  0
   31.1440   30.3700   35.4670 H   0  0  0  0  0  0  0  0  0  0  0  0
   31.7550   31.7550   36.9490 N   0  0  0  0  0  0  0  0  0  0  0  0
   32.9360   32.2700   37.3420 C   0  0  0  0  0  0  0  0  0  0  0  0
   33.1620   32.9850   38.1220 H   0  0  0  0  0  0  0  0  0  0  0  0
   33.8620   31.6870   36.5230 C   0  0  0  0  0  0  0  0  0  0  0  0
   35.2310   31.7930   36.4160 C   0  0  0  0  0  3  0  0  0  0  0  0
   37.2180   27.8840   35.0330 C   0  0  0  0  0  0  0  0  0  0  0  0
   36.2870   27.9210   35.6650 H   0  0  0  0  0  0  0  0  0  0  0  0
   37.8790   28.6380   35.4490 H   0  0  0  0  0  0  0  0  0  0  0  0
   39.0070   26.1310   35.1960 C   0  0  0  0  0  3  0  0  0  0  0  0
   37.7560   26.5130   35.1210 C   0  0  0  0  0  3  0  0  0  0  0  0
   40.6840   22.9240   35.6790 C   0  0  0  0  0  0  0  0  0  0  0  0
   39.6290   22.0170   35.4680 C   0  0  0  0  0  0  0  0  0  0  0  0
   38.3630   22.5360   35.1580 C   0  0  0  0  0  0  0  0  0  0  0  0
   38.2270   23.9020   35.0780 N   0  0  0  0  0  0  0  0  0  0  0  0
   39.2900   24.7140   35.2950 C   0  0  0  0  0  0  0  0  0  0  0  0
   40.4940   24.2440   35.5880 N   0  0  0  0  0  0  0  0  0  0  0  0
   41.6580   22.5470   35.9170 H   0  0  0  0  0  0  0  0  0  0  0  0
   39.7520   20.9620   35.5350 H   0  0  0  0  0  0  0  0  0  0  0  0
   37.1950   21.6880   34.9150 C   0  0  0  0  0  0  0  0  0  0  0  0
   36.7340   21.4040   33.6510 C   0  0  0  0  0  0  0  0  0  0  0  0
   35.6130   20.5720   33.7940 C   0  0  0  0  0  0  0  0  0  0  0  0
   35.4480   20.3920   35.1280 N   0  0  0  0  0  0  0  0  0  0  0  0
   36.3900   21.0570   35.7860 N   0  0  0  0  0  0  0  0  0  0  0  0
   37.1240   21.7320   32.6990 H   0  0  0  0  0  0  0  0  0  0  0  0
   35.0310   20.1790   32.9700 H   0  0  0  0  0  0  0  0  0  0  0  0
   34.6810   19.8110   35.5070 H   0  0  0  0  0  0  0  0  0  0  0  0
  1 23  1  0  0  0  0
  2  7  1  0  0  0  0
  2  1  2  0  0  0  0
  3  2  1  0  0  0  0
  4  3  2  0  0  0  0
  4  5  1  0  0  0  0
  5  6  2  0  0  0  0
  6  1  1  0  0  0  0
  6 12  1  0  0  0  0
  8  3  1  0  0  0  0
  9  4  1  0  0  0  0
 10  5  1  0  0  0  0
 11 22  1  0  0  0  0
 12 13  1  0  0  0  0
 12 11  2  0  0  0  0
 13 15  2  0  0  0  0
 14 13  1  0  0  0  0
 15 16  1  0  0  0  0
 15 21  1  0  0  0  0
 16 18  1  0  0  0  0
 17 16  1  0  0  0  0
 18 19  2  0  0  0  0
 19 20  1  0  0  0  0
 21 19  1  0  0  0  0
 22 21  2  0  0  0  0
 23 27  1  0  0  0  0
 23 25  1  0  0  0  0
 23 24  1  0  0  0  0
 26 32  1  0  0  0  0
 27 26  2  0  0  0  0
 28 34  1  0  0  0  0
 29 35  1  0  0  0  0
 29 28  2  0  0  0  0
 30 29  1  0  0  0  0
 31 30  2  0  0  0  0
 31 32  1  0  0  0  0
 32 33  2  0  0  0  0
 33 28  1  0  0  0  0
 36 30  1  0  0  0  0
 36 40  2  0  0  0  0
 37 38  2  0  0  0  0
 37 36  1  0  0  0  0
 38 39  1  0  0  0  0
 39 43  1  0  0  0  0
 39 40  1  0  0  0  0
 41 37  1  0  0  0  0
 42 38  1  0  0  0  0
M  END
>  <minimizedAffinity>
-6.94216156

$$$$

 OpenBabel03272509103D

 43 47  0  0  0  0  0  0  0  0999 V2000
   35.9860   30.0060   31.8300 C   0  0  0  0  0  0  0  0  0  0  0  0
   36.5680   30.1230   30.5700 C   0  0  0  0  0  0  0  0  0  0  0  0
   37.0480   31.3220   30.1180 C   0  0  0  0  0  0  0  0  0  0  0  0
   36.9710   32.4550   30.8940 C   0  0  0  0  0  0  0  0  0  0  0  0
   36.3980   32.3490   32.1400 C   0  0  0  0  0  0  0  0  0  0  0  0
   35.9050   31.1430   32.6200 C   0  0  0  0  0  0  0  0  0  0  0  0
   36.5830   29.1840   30.0360 H   0  0  0  0  0  0  0  0  0  0  0  0
   37.4600   31.2290   29.1330 H   0  0  0  0  0  0  0  0  0  0  0  0
   37.3760   33.3510   30.4540 H   0  0  0  0  0  0  0  0  0  0  0  0
   36.3970   33.3140   32.6540 H   0  0  0  0  0  0  0  0  0  0  0  0
   35.9900   31.3740   35.1760 C   0  0  0  0  0  3  0  0  0  0  0  0
   35.3810   31.3300   33.9610 C   0  0  0  0  0  0  0  0  0  0  0  0
   33.9850   31.4630   34.0310 C   0  0  0  0  0  0  0  0  0  0  0  0
   33.3680   31.4460   33.1220 H   0  0  0  0  0  0  0  0  0  0  0  0
   33.2460   31.6240   35.1850 C   0  0  0  0  0  0  0  0  0  0  0  0
   31.9480   31.7640   35.4620 N   0  0  0  0  0  0  0  0  0  0  0  0
   31.1720   31.7780   34.7620 H   0  0  0  0  0  0  0  0  0  0  0  0
   31.8250   31.8820   36.7740 N   0  0  0  0  0  0  0  0  0  0  0  0
   33.0210   31.8240   37.3920 C   0  0  0  0  0  0  0  0  0  0  0  0
   33.2690   31.8860   38.4430 H   0  0  0  0  0  0  0  0  0  0  0  0
   33.9270   31.6590   36.3830 C   0  0  0  0  0  0  0  0  0  0  0  0
   35.2990   31.5330   36.3530 C   0  0  0  0  0  3  0  0  0  0  0  0
   35.4310   28.7490   32.4020 C   0  0  0  0  0  0  0  0  0  0  0  0
   34.7750   28.3180   31.5960 H   0  0  0  0  0  0  0  0  0  0  0  0
   34.7640   28.9770   33.2270 H   0  0  0  0  0  0  0  0  0  0  0  0
   36.9800   27.4560   33.8960 C   0  0  0  0  0  3  0  0  0  0  0  0
   36.4500   27.7330   32.7300 C   0  0  0  0  0  3  0  0  0  0  0  0
   39.6650   25.1100   33.1120 C   0  0  0  0  0  0  0  0  0  0  0  0
   39.7550   24.3720   34.3070 C   0  0  0  0  0  0  0  0  0  0  0  0
   38.8810   24.6990   35.3530 C   0  0  0  0  0  0  0  0  0  0  0  0
   37.9860   25.7240   35.1510 N   0  0  0  0  0  0  0  0  0  0  0  0
   37.9580   26.3910   33.9720 C   0  0  0  0  0  0  0  0  0  0  0  0
   38.7740   26.0970   32.9710 N   0  0  0  0  0  0  0  0  0  0  0  0
   40.3250   24.8740   32.3010 H   0  0  0  0  0  0  0  0  0  0  0  0
   40.4550   23.5830   34.4460 H   0  0  0  0  0  0  0  0  0  0  0  0
   38.8820   23.9970   36.6380 C   0  0  0  0  0  0  0  0  0  0  0  0
   37.9960   24.2950   37.6470 C   0  0  0  0  0  0  0  0  0  0  0  0
   38.2830   23.4350   38.7180 C   0  0  0  0  0  0  0  0  0  0  0  0
   39.3200   22.6630   38.3120 N   0  0  0  0  0  0  0  0  0  0  0  0
   39.6700   23.0020   37.0770 N   0  0  0  0  0  0  0  0  0  0  0  0
   37.2130   25.0370   37.6630 H   0  0  0  0  0  0  0  0  0  0  0  0
   37.7500   23.4300   39.6610 H   0  0  0  0  0  0  0  0  0  0  0  0
   39.7300   21.9360   38.9230 H   0  0  0  0  0  0  0  0  0  0  0  0
  1 23  1  0  0  0  0
  1  6  1  0  0  0  0
  2  1  2  0  0  0  0
  3  2  1  0  0  0  0
  3  4  2  0  0  0  0
  4  5  1  0  0  0  0
  5  6  2  0  0  0  0
  5 10  1  0  0  0  0
  6 12  1  0  0  0  0
  7  2  1  0  0  0  0
  8  3  1  0  0  0  0
  9  4  1  0  0  0  0
 11 22  1  0  0  0  0
 12 13  1  0  0  0  0
 12 11  2  0  0  0  0
 13 15  2  0  0  0  0
 14 13  1  0  0  0  0
 15 16  1  0  0  0  0
 15 21  1  0  0  0  0
 16 18  1  0  0  0  0
 17 16  1  0  0  0  0
 18 19  2  0  0  0  0
 19 20  1  0  0  0  0
 21 19  1  0  0  0  0
 22 21  2  0  0  0  0
 23 27  1  0  0  0  0
 23 25  1  0  0  0  0
 24 23  1  0  0  0  0
 26 32  1  0  0  0  0
 27 26  2  0  0  0  0
 28 29  1  0  0  0  0
 29 35  1  0  0  0  0
 29 30  2  0  0  0  0
 30 36  1  0  0  0  0
 31 30  1  0  0  0  0
 32 31  2  0  0  0  0
 33 28  2  0  0  0  0
 33 32  1  0  0  0  0
 34 28  1  0  0  0  0
 36 40  2  0  0  0  0
 36 37  1  0  0  0  0
 37 41  1  0  0  0  0
 37 38  2  0  0  0  0
 38 42  1  0  0  0  0
 39 38  1  0  0  0  0
 39 43  1  0  0  0  0
 40 39  1  0  0  0  0
M  END
>  <minimizedAffinity>
-6.85138941

$$$$

 OpenBabel03272509103D

 43 47  0  0  0  0  0  0  0  0999 V2000
   36.6050   22.1070   31.9340 C   0  0  0  0  0  0  0  0  0  0  0  0
   35.4950   21.5800   31.2780 C   0  0  0  0  0  0  0  0  0  0  0  0
   34.8280   20.4930   31.7740 C   0  0  0  0  0  0  0  0  0  0  0  0
   35.2320   19.8830   32.9390 C   0  0  0  0  0  0  0  0  0  0  0  0
   36.3270   20.3970   33.5930 C   0  0  0  0  0  0  0  0  0  0  0  0
   37.0200   21.4990   33.1090 C   0  0  0  0  0  0  0  0  0  0  0  0
   35.2550   22.1240   30.3760 H   0  0  0  0  0  0  0  0  0  0  0  0
   34.0020   20.2240   31.1450 H   0  0  0  0  0  0  0  0  0  0  0  0
   34.6440   19.0360   33.2510 H   0  0  0  0  0  0  0  0  0  0  0  0
   36.5450   19.8260   34.5000 H   0  0  0  0  0  0  0  0  0  0  0  0
   39.4560   21.8630   33.8370 C   0  0  0  0  0  3  0  0  0  0  0  0
   38.1080   21.8250   34.0130 C   0  0  0  0  0  0  0  0  0  0  0  0
   37.7080   22.1310   35.3240 C   0  0  0  0  0  0  0  0  0  0  0  0
   36.6460   22.1370   35.6060 H   0  0  0  0  0  0  0  0  0  0  0  0
   38.5480   22.4470   36.3710 C   0  0  0  0  0  0  0  0  0  0  0  0
   38.3760   22.7610   37.6570 N   0  0  0  0  0  0  0  0  0  0  0  0
   37.4580   22.8300   38.1520 H   0  0  0  0  0  0  0  0  0  0  0  0
   39.5710   22.9680   38.1870 N   0  0  0  0  0  0  0  0  0  0  0  0
   40.5520   22.7990   37.2790 C   0  0  0  0  0  0  0  0  0  0  0  0
   41.6240   22.8910   37.3830 H   0  0  0  0  0  0  0  0  0  0  0  0
   39.9040   22.4670   36.1220 C   0  0  0  0  0  0  0  0  0  0  0  0
   40.3340   22.1730   34.8470 C   0  0  0  0  0  3  0  0  0  0  0  0
   37.3980   23.2780   31.4670 C   0  0  0  0  0  0  0  0  0  0  0  0
   37.1260   23.4100   30.3840 H   0  0  0  0  0  0  0  0  0  0  0  0
   38.4560   23.0390   31.4740 H   0  0  0  0  0  0  0  0  0  0  0  0
   36.9980   25.7490   31.6600 C   0  0  0  0  0  3  0  0  0  0  0  0
   37.0730   24.5410   32.1600 C   0  0  0  0  0  3  0  0  0  0  0  0
   36.7120   27.9570   34.5530 C   0  0  0  0  0  0  0  0  0  0  0  0
   35.8840   28.9780   34.0510 C   0  0  0  0  0  0  0  0  0  0  0  0
   35.4400   28.8760   32.7240 C   0  0  0  0  0  0  0  0  0  0  0  0
   35.8390   27.7830   31.9920 N   0  0  0  0  0  0  0  0  0  0  0  0
   36.6390   26.8390   32.5440 C   0  0  0  0  0  0  0  0  0  0  0  0
   37.0690   26.9160   33.7950 N   0  0  0  0  0  0  0  0  0  0  0  0
   37.0610   28.0180   35.5650 H   0  0  0  0  0  0  0  0  0  0  0  0
   35.5860   29.8180   34.6320 H   0  0  0  0  0  0  0  0  0  0  0  0
   34.5730   29.8760   32.0980 C   0  0  0  0  0  0  0  0  0  0  0  0
   33.3130   30.1650   32.5680 C   0  0  0  0  0  0  0  0  0  0  0  0
   32.7780   31.1600   31.7360 C   0  0  0  0  0  0  0  0  0  0  0  0
   33.7290   31.4250   30.8080 N   0  0  0  0  0  0  0  0  0  0  0  0
   34.7920   30.6600   31.0290 N   0  0  0  0  0  0  0  0  0  0  0  0
   32.7910   29.7380   33.4110 H   0  0  0  0  0  0  0  0  0  0  0  0
   31.7930   31.5950   31.8560 H   0  0  0  0  0  0  0  0  0  0  0  0
   33.5840   32.1300   30.0660 H   0  0  0  0  0  0  0  0  0  0  0  0
  1  6  1  0  0  0  0
  2  3  1  0  0  0  0
  2  1  2  0  0  0  0
  3  4  2  0  0  0  0
  4  9  1  0  0  0  0
  4  5  1  0  0  0  0
  5 10  1  0  0  0  0
  6  5  2  0  0  0  0
  6 12  1  0  0  0  0
  7  2  1  0  0  0  0
  8  3  1  0  0  0  0
 11 12  2  0  0  0  0
 11 22  1  0  0  0  0
 12 13  1  0  0  0  0
 13 14  1  0  0  0  0
 13 15  2  0  0  0  0
 15 16  1  0  0  0  0
 16 17  1  0  0  0  0
 16 18  1  0  0  0  0
 19 20  1  0  0  0  0
 19 18  2  0  0  0  0
 21 15  1  0  0  0  0
 21 19  1  0  0  0  0
 22 21  2  0  0  0  0
 23 25  1  0  0  0  0
 23  1  1  0  0  0  0
 23 27  1  0  0  0  0
 24 23  1  0  0  0  0
 26 27  2  0  0  0  0
 26 32  1  0  0  0  0
 28 34  1  0  0  0  0
 29 28  1  0  0  0  0
 29 35  1  0  0  0  0
 30 29  2  0  0  0  0
 31 32  2  0  0  0  0
 31 30  1  0  0  0  0
 32 33  1  0  0  0  0
 33 28  2  0  0  0  0
 36 37  1  0  0  0  0
 36 30  1  0  0  0  0
 37 41  1  0  0  0  0
 38 42  1  0  0  0  0
 38 37  2  0  0  0  0
 39 40  1  0  0  0  0
 39 38  1  0  0  0  0
 40 36  2  0  0  0  0
 43 39  1  0  0  0  0
M  END
>  <minimizedAffinity>
-6.65656424

$$$$

 OpenBabel03272509103D

 43 47  0  0  0  0  0  0  0  0999 V2000
   34.8530   30.1320   33.4330 C   0  0  0  0  0  0  0  0  0  0  0  0
   35.2120   30.5430   32.1520 C   0  0  0  0  0  0  0  0  0  0  0  0
   34.2780   31.0150   31.2700 C   0  0  0  0  0  0  0  0  0  0  0  0
   32.9500   31.0960   31.6190 C   0  0  0  0  0  0  0  0  0  0  0  0
   32.5860   30.6920   32.8820 C   0  0  0  0  0  0  0  0  0  0  0  0
   33.5160   30.2110   33.7940 C   0  0  0  0  0  0  0  0  0  0  0  0
   36.2720   30.4420   31.9700 H   0  0  0  0  0  0  0  0  0  0  0  0
   34.7280   31.2850   30.3350 H   0  0  0  0  0  0  0  0  0  0  0  0
   32.2900   31.4800   30.8590 H   0  0  0  0  0  0  0  0  0  0  0  0
   31.5100   30.8060   33.0340 H   0  0  0  0  0  0  0  0  0  0  0  0
   32.6760   30.5870   36.1920 C   0  0  0  0  0  3  0  0  0  0  0  0
   32.8500   29.8830   35.0420 C   0  0  0  0  0  0  0  0  0  0  0  0
   32.3050   28.5900   35.0910 C   0  0  0  0  0  0  0  0  0  0  0  0
   32.3730   27.9120   34.2290 H   0  0  0  0  0  0  0  0  0  0  0  0
   31.6480   28.0310   36.1670 C   0  0  0  0  0  0  0  0  0  0  0  0
   31.0710   26.8530   36.4130 N   0  0  0  0  0  0  0  0  0  0  0  0
   31.0110   26.0500   35.7460 H   0  0  0  0  0  0  0  0  0  0  0  0
   30.5920   26.8850   37.6470 N   0  0  0  0  0  0  0  0  0  0  0  0
   30.8360   28.0690   38.2410 C   0  0  0  0  0  0  0  0  0  0  0  0
   30.5820   28.4180   39.2330 H   0  0  0  0  0  0  0  0  0  0  0  0
   31.5080   28.8010   37.3030 C   0  0  0  0  0  0  0  0  0  0  0  0
   32.0300   30.0760   37.2910 C   0  0  0  0  0  3  0  0  0  0  0  0
   35.7950   29.6000   34.4560 C   0  0  0  0  0  0  0  0  0  0  0  0
   35.2350   29.6460   35.4300 H   0  0  0  0  0  0  0  0  0  0  0  0
   36.6380   30.2740   34.5740 H   0  0  0  0  0  0  0  0  0  0  0  0
   37.2110   27.7270   33.5650 C   0  0  0  0  0  3  0  0  0  0  0  0
   36.1890   28.1940   34.2400 C   0  0  0  0  0  3  0  0  0  0  0  0
   37.4900   24.2770   32.4070 C   0  0  0  0  0  0  0  0  0  0  0  0
   37.8330   23.6050   33.5950 C   0  0  0  0  0  0  0  0  0  0  0  0
   37.9550   24.3610   34.7700 C   0  0  0  0  0  0  0  0  0  0  0  0
   37.7310   25.7160   34.6930 N   0  0  0  0  0  0  0  0  0  0  0  0
   37.4040   26.2930   33.5120 C   0  0  0  0  0  0  0  0  0  0  0  0
   37.2830   25.5970   32.3910 N   0  0  0  0  0  0  0  0  0  0  0  0
   37.3920   23.7160   31.4990 H   0  0  0  0  0  0  0  0  0  0  0  0
   38.0050   22.5560   33.6360 H   0  0  0  0  0  0  0  0  0  0  0  0
   38.3040   23.7690   36.0620 C   0  0  0  0  0  0  0  0  0  0  0  0
   39.6050   23.5450   36.4490 C   0  0  0  0  0  0  0  0  0  0  0  0
   39.5650   22.9740   37.7300 C   0  0  0  0  0  0  0  0  0  0  0  0
   38.2530   22.8790   38.0580 N   0  0  0  0  0  0  0  0  0  0  0  0
   37.5110   23.3530   37.0640 N   0  0  0  0  0  0  0  0  0  0  0  0
   40.5160   23.7500   35.9090 H   0  0  0  0  0  0  0  0  0  0  0  0
   40.4390   22.6850   38.3010 H   0  0  0  0  0  0  0  0  0  0  0  0
   37.9450   22.4860   38.9630 H   0  0  0  0  0  0  0  0  0  0  0  0
  1  6  1  0  0  0  0
  1 23  1  0  0  0  0
  2  1  2  0  0  0  0
  3  4  2  0  0  0  0
  3  2  1  0  0  0  0
  4  5  1  0  0  0  0
  5 10  1  0  0  0  0
  5  6  2  0  0  0  0
  6 12  1  0  0  0  0
  7  2  1  0  0  0  0
  8  3  1  0  0  0  0
  9  4  1  0  0  0  0
 11 22  1  0  0  0  0
 12 13  1  0  0  0  0
 12 11  2  0  0  0  0
 13 15  2  0  0  0  0
 14 13  1  0  0  0  0
 15 16  1  0  0  0  0
 15 21  1  0  0  0  0
 16 18  1  0  0  0  0
 17 16  1  0  0  0  0
 18 19  2  0  0  0  0
 19 20  1  0  0  0  0
 21 19  1  0  0  0  0
 22 21  2  0  0  0  0
 23 25  1  0  0  0  0
 23 24  1  0  0  0  0
 26 27  2  0  0  0  0
 27 23  1  0  0  0  0
 28 29  1  0  0  0  0
 29 35  1  0  0  0  0
 29 30  2  0  0  0  0
 30 36  1  0  0  0  0
 31 30  1  0  0  0  0
 32 26  1  0  0  0  0
 32 31  2  0  0  0  0
 33 28  2  0  0  0  0
 33 32  1  0  0  0  0
 34 28  1  0  0  0  0
 36 37  1  0  0  0  0
 36 40  2  0  0  0  0
 37 38  2  0  0  0  0
 38 39  1  0  0  0  0
 38 42  1  0  0  0  0
 39 43  1  0  0  0  0
 40 39  1  0  0  0  0
 41 37  1  0  0  0  0
M  END
>  <minimizedAffinity>
-6.53495026

$$$$

 OpenBabel03272509103D

 43 47  0  0  0  0  0  0  0  0999 V2000
   36.4150   28.8090   30.7090 C   0  0  0  0  0  0  0  0  0  0  0  0
   37.2030   28.8970   29.5640 C   0  0  0  0  0  0  0  0  0  0  0  0
   37.5490   30.1090   29.0310 C   0  0  0  0  0  0  0  0  0  0  0  0
   37.1270   31.2840   29.6080 C   0  0  0  0  0  0  0  0  0  0  0  0
   36.3490   31.2080   30.7390 C   0  0  0  0  0  0  0  0  0  0  0  0
   35.9850   29.9900   31.2980 C   0  0  0  0  0  0  0  0  0  0  0  0
   37.4840   27.9250   29.1840 H   0  0  0  0  0  0  0  0  0  0  0  0
   38.1550   29.9890   28.1550 H   0  0  0  0  0  0  0  0  0  0  0  0
   37.4500   32.1880   29.1170 H   0  0  0  0  0  0  0  0  0  0  0  0
   36.0810   32.2050   31.0970 H   0  0  0  0  0  0  0  0  0  0  0  0
   33.8600   30.0500   32.7390 C   0  0  0  0  0  3  0  0  0  0  0  0
   35.1860   30.2190   32.4880 C   0  0  0  0  0  0  0  0  0  0  0  0
   35.8980   30.7400   33.5800 C   0  0  0  0  0  0  0  0  0  0  0  0
   36.9790   30.9260   33.5150 H   0  0  0  0  0  0  0  0  0  0  0  0
   35.3660   31.0670   34.8090 C   0  0  0  0  0  0  0  0  0  0  0  0
   35.8550   31.5620   35.9490 N   0  0  0  0  0  0  0  0  0  0  0  0
   36.8540   31.8170   36.1250 H   0  0  0  0  0  0  0  0  0  0  0  0
   34.8540   31.6690   36.8070 N   0  0  0  0  0  0  0  0  0  0  0  0
   33.6920   31.2540   36.2670 C   0  0  0  0  0  0  0  0  0  0  0  0
   32.6980   31.2120   36.6930 H   0  0  0  0  0  0  0  0  0  0  0  0
   34.0140   30.8710   34.9950 C   0  0  0  0  0  0  0  0  0  0  0  0
   33.2820   30.3610   33.9460 C   0  0  0  0  0  3  0  0  0  0  0  0
   35.9830   27.5400   31.3550 C   0  0  0  0  0  0  0  0  0  0  0  0
   35.6480   26.8750   30.5120 H   0  0  0  0  0  0  0  0  0  0  0  0
   35.0970   27.7110   31.9590 H   0  0  0  0  0  0  0  0  0  0  0  0
   37.3840   26.9110   33.3410 C   0  0  0  0  0  3  0  0  0  0  0  0
   37.0600   26.8320   32.0740 C   0  0  0  0  0  3  0  0  0  0  0  0
   40.6140   25.2480   33.6980 C   0  0  0  0  0  0  0  0  0  0  0  0
   40.4350   24.5340   34.8980 C   0  0  0  0  0  0  0  0  0  0  0  0
   39.1990   24.6400   35.5520 C   0  0  0  0  0  0  0  0  0  0  0  0
   38.2330   25.4360   34.9820 N   0  0  0  0  0  0  0  0  0  0  0  0
   38.4780   26.0950   33.8240 C   0  0  0  0  0  0  0  0  0  0  0  0
   39.6390   26.0080   33.1900 N   0  0  0  0  0  0  0  0  0  0  0  0
   41.5520   25.1790   33.1840 H   0  0  0  0  0  0  0  0  0  0  0  0
   41.1940   23.9230   35.3250 H   0  0  0  0  0  0  0  0  0  0  0  0
   38.8990   23.9400   36.8020 C   0  0  0  0  0  0  0  0  0  0  0  0
   37.7680   24.1940   37.5420 C   0  0  0  0  0  0  0  0  0  0  0  0
   37.8070   23.3500   38.6620 C   0  0  0  0  0  0  0  0  0  0  0  0
   38.9500   22.6300   38.5500 N   0  0  0  0  0  0  0  0  0  0  0  0
   39.5920   22.9840   37.4440 N   0  0  0  0  0  0  0  0  0  0  0  0
   36.9740   24.8970   37.3440 H   0  0  0  0  0  0  0  0  0  0  0  0
   37.0480   23.3190   39.4350 H   0  0  0  0  0  0  0  0  0  0  0  0
   39.2200   21.9240   39.2570 H   0  0  0  0  0  0  0  0  0  0  0  0
  1  6  1  0  0  0  0
  1 23  1  0  0  0  0
  2  1  2  0  0  0  0
  3  2  1  0  0  0  0
  3  4  2  0  0  0  0
  4  5  1  0  0  0  0
  5 10  1  0  0  0  0
  5  6  2  0  0  0  0
  6 12  1  0  0  0  0
  7  2  1  0  0  0  0
  8  3  1  0  0  0  0
  9  4  1  0  0  0  0
 11 22  1  0  0  0  0
 12 11  2  0  0  0  0
 12 13  1  0  0  0  0
 13 15  2  0  0  0  0
 14 13  1  0  0  0  0
 15 21  1  0  0  0  0
 15 16  1  0  0  0  0
 16 17  1  0  0  0  0
 16 18  1  0  0  0  0
 19 20  1  0  0  0  0
 19 18  2  0  0  0  0
 21 19  1  0  0  0  0
 22 21  2  0  0  0  0
 23 25  1  0  0  0  0
 23 27  1  0  0  0  0
 24 23  1  0  0  0  0
 26 32  1  0  0  0  0
 27 26  2  0  0  0  0
 28 29  1  0  0  0  0
 29 35  1  0  0  0  0
 29 30  2  0  0  0  0
 30 36  1  0  0  0  0
 31 30  1  0  0  0  0
 32 31  2  0  0  0  0
 33 28  2  0  0  0  0
 33 32  1  0  0  0  0
 34 28  1  0  0  0  0
 36 40  2  0  0  0  0
 36 37  1  0  0  0  0
 37 38  2  0  0  0  0
 38 42  1  0  0  0  0
 39 38  1  0  0  0  0
 39 43  1  0  0  0  0
 40 39  1  0  0  0  0
 41 37  1  0  0  0  0
M  END
>  <minimizedAffinity>
-6.50633049

$$$$

 OpenBabel03272509103D

 43 47  0  0  0  0  0  0  0  0999 V2000
   36.9520   22.0410   31.9060 C   0  0  0  0  0  0  0  0  0  0  0  0
   35.8880   21.5490   31.1540 C   0  0  0  0  0  0  0  0  0  0  0  0
   35.0030   20.6470   31.6810 C   0  0  0  0  0  0  0  0  0  0  0  0
   35.1360   20.1950   32.9730 C   0  0  0  0  0  0  0  0  0  0  0  0
   36.1830   20.6760   33.7230 C   0  0  0  0  0  0  0  0  0  0  0  0
   37.0930   21.5900   33.2110 C   0  0  0  0  0  0  0  0  0  0  0  0
   35.8670   21.9600   30.1560 H   0  0  0  0  0  0  0  0  0  0  0  0
   34.2510   20.3780   30.9660 H   0  0  0  0  0  0  0  0  0  0  0  0
   34.3910   19.4870   33.3000 H   0  0  0  0  0  0  0  0  0  0  0  0
   36.1780   20.2410   34.7270 H   0  0  0  0  0  0  0  0  0  0  0  0
   39.4290   21.9510   34.2160 C   0  0  0  0  0  3  0  0  0  0  0  0
   38.0700   21.9290   34.2310 C   0  0  0  0  0  0  0  0  0  0  0  0
   37.5200   22.2730   35.4760 C   0  0  0  0  0  0  0  0  0  0  0  0
   36.4320   22.2960   35.6290 H   0  0  0  0  0  0  0  0  0  0  0  0
   38.2330   22.6070   36.6080 C   0  0  0  0  0  0  0  0  0  0  0  0
   37.9120   22.9550   37.8570 N   0  0  0  0  0  0  0  0  0  0  0  0
   36.9420   23.0450   38.2370 H   0  0  0  0  0  0  0  0  0  0  0  0
   39.0380   23.1640   38.5210 N   0  0  0  0  0  0  0  0  0  0  0  0
   40.1180   22.9630   37.7410 C   0  0  0  0  0  0  0  0  0  0  0  0
   41.1710   23.0480   37.9710 H   0  0  0  0  0  0  0  0  0  0  0  0
   39.6090   22.6080   36.5230 C   0  0  0  0  0  0  0  0  0  0  0  0
   40.1840   22.2770   35.3160 C   0  0  0  0  0  3  0  0  0  0  0  0
   37.9660   23.0140   31.4180 C   0  0  0  0  0  0  0  0  0  0  0  0
   38.1010   22.7820   30.3260 H   0  0  0  0  0  0  0  0  0  0  0  0
   38.9290   22.8140   31.8780 H   0  0  0  0  0  0  0  0  0  0  0  0
   37.9070   25.3220   32.4050 C   0  0  0  0  0  3  0  0  0  0  0  0
   37.5460   24.4260   31.5210 C   0  0  0  0  0  3  0  0  0  0  0  0
   36.2220   28.4880   33.0860 C   0  0  0  0  0  0  0  0  0  0  0  0
   36.4650   29.2010   31.8970 C   0  0  0  0  0  0  0  0  0  0  0  0
   37.2010   28.5670   30.8860 C   0  0  0  0  0  0  0  0  0  0  0  0
   37.6430   27.2850   31.1150 N   0  0  0  0  0  0  0  0  0  0  0  0
   37.3700   26.6620   32.2860 C   0  0  0  0  0  0  0  0  0  0  0  0
   36.6760   27.2420   33.2540 N   0  0  0  0  0  0  0  0  0  0  0  0
   35.6610   28.9560   33.8710 H   0  0  0  0  0  0  0  0  0  0  0  0
   36.1160   30.1930   31.7380 H   0  0  0  0  0  0  0  0  0  0  0  0
   37.5110   29.2100   29.6080 C   0  0  0  0  0  0  0  0  0  0  0  0
   37.2330   30.5340   29.3570 C   0  0  0  0  0  0  0  0  0  0  0  0
   37.6600   30.8070   28.0480 C   0  0  0  0  0  0  0  0  0  0  0  0
   38.1720   29.6460   27.5710 N   0  0  0  0  0  0  0  0  0  0  0  0
   38.0800   28.7040   28.5020 N   0  0  0  0  0  0  0  0  0  0  0  0
   36.7760   31.2650   30.0070 H   0  0  0  0  0  0  0  0  0  0  0  0
   37.5740   31.7720   27.5630 H   0  0  0  0  0  0  0  0  0  0  0  0
   38.5600   29.5750   26.6150 H   0  0  0  0  0  0  0  0  0  0  0  0
  1  6  1  0  0  0  0
  2  3  1  0  0  0  0
  2  1  2  0  0  0  0
  3  4  2  0  0  0  0
  4  9  1  0  0  0  0
  4  5  1  0  0  0  0
  5 10  1  0  0  0  0
  6  5  2  0  0  0  0
  6 12  1  0  0  0  0
  7  2  1  0  0  0  0
  8  3  1  0  0  0  0
 11 12  2  0  0  0  0
 11 22  1  0  0  0  0
 12 13  1  0  0  0  0
 13 14  1  0  0  0  0
 13 15  2  0  0  0  0
 15 16  1  0  0  0  0
 16 17  1  0  0  0  0
 16 18  1  0  0  0  0
 19 20  1  0  0  0  0
 19 18  2  0  0  0  0
 21 15  1  0  0  0  0
 21 19  1  0  0  0  0
 22 21  2  0  0  0  0
 23 27  1  0  0  0  0
 23 25  1  0  0  0  0
 23  1  1  0  0  0  0
 24 23  1  0  0  0  0
 27 26  2  0  0  0  0
 28 33  1  0  0  0  0
 28 34  1  0  0  0  0
 29 28  2  0  0  0  0
 30 31  2  0  0  0  0
 30 29  1  0  0  0  0
 31 32  1  0  0  0  0
 32 26  1  0  0  0  0
 32 33  2  0  0  0  0
 35 29  1  0  0  0  0
 36 30  1  0  0  0  0
 37 36  1  0  0  0  0
 37 41  1  0  0  0  0
 38 37  2  0  0  0  0
 39 38  1  0  0  0  0
 39 40  1  0  0  0  0
 40 36  2  0  0  0  0
 42 38  1  0  0  0  0
 43 39  1  0  0  0  0
M  END
>  <minimizedAffinity>
-6.4776535

$$$$

 OpenBabel03272509103D

 43 47  0  0  0  0  0  0  0  0999 V2000
   39.3200   25.7850   34.8830 C   0  0  0  0  0  0  0  0  0  0  0  0
   40.4240   26.6330   34.9410 C   0  0  0  0  0  0  0  0  0  0  0  0
   41.5920   26.3210   34.2990 C   0  0  0  0  0  0  0  0  0  0  0  0
   41.7160   25.1580   33.5760 C   0  0  0  0  0  0  0  0  0  0  0  0
   40.6310   24.3150   33.5140 C   0  0  0  0  0  0  0  0  0  0  0  0
   39.4360   24.6090   34.1560 C   0  0  0  0  0  0  0  0  0  0  0  0
   40.2320   27.5170   35.5300 H   0  0  0  0  0  0  0  0  0  0  0  0
   42.3320   27.0830   34.4500 H   0  0  0  0  0  0  0  0  0  0  0  0
   42.6730   24.9990   33.1060 H   0  0  0  0  0  0  0  0  0  0  0  0
   40.8570   23.4300   32.9130 H   0  0  0  0  0  0  0  0  0  0  0  0
   38.1190   22.4520   34.6100 C   0  0  0  0  0  3  0  0  0  0  0  0
   38.4720   23.5550   33.8980 C   0  0  0  0  0  0  0  0  0  0  0  0
   37.7920   23.6710   32.6750 C   0  0  0  0  0  0  0  0  0  0  0  0
   37.9800   24.5170   31.9990 H   0  0  0  0  0  0  0  0  0  0  0  0
   36.8500   22.7890   32.1880 C   0  0  0  0  0  0  0  0  0  0  0  0
   36.1070   22.7170   31.0810 N   0  0  0  0  0  0  0  0  0  0  0  0
   36.1130   23.4060   30.2950 H   0  0  0  0  0  0  0  0  0  0  0  0
   35.3670   21.6230   31.1610 N   0  0  0  0  0  0  0  0  0  0  0  0
   35.5970   20.9510   32.3050 C   0  0  0  0  0  0  0  0  0  0  0  0
   35.1640   20.0310   32.6750 H   0  0  0  0  0  0  0  0  0  0  0  0
   36.5400   21.6900   32.9610 C   0  0  0  0  0  0  0  0  0  0  0  0
   37.1880   21.5430   34.1690 C   0  0  0  0  0  3  0  0  0  0  0  0
   38.0140   26.0350   35.5530 C   0  0  0  0  0  0  0  0  0  0  0  0
   38.2670   26.2580   36.6260 H   0  0  0  0  0  0  0  0  0  0  0  0
   37.4260   25.1230   35.5770 H   0  0  0  0  0  0  0  0  0  0  0  0
   36.8900   27.4270   33.7920 C   0  0  0  0  0  3  0  0  0  0  0  0
   37.2770   27.1980   35.0220 C   0  0  0  0  0  3  0  0  0  0  0  0
   35.1600   30.1610   32.1000 C   0  0  0  0  0  0  0  0  0  0  0  0
   34.7380   30.9460   33.1890 C   0  0  0  0  0  0  0  0  0  0  0  0
   35.0660   30.5150   34.4820 C   0  0  0  0  0  0  0  0  0  0  0  0
   35.7830   29.3480   34.6110 N   0  0  0  0  0  0  0  0  0  0  0  0
   36.1550   28.6440   33.5160 C   0  0  0  0  0  0  0  0  0  0  0  0
   35.8550   29.0340   32.2850 N   0  0  0  0  0  0  0  0  0  0  0  0
   34.9180   30.4740   31.1040 H   0  0  0  0  0  0  0  0  0  0  0  0
   34.1820   31.8460   33.0700 H   0  0  0  0  0  0  0  0  0  0  0  0
   34.6830   31.2530   35.6860 C   0  0  0  0  0  0  0  0  0  0  0  0
   33.3780   31.3620   36.1060 C   0  0  0  0  0  0  0  0  0  0  0  0
   33.3820   32.1290   37.2810 C   0  0  0  0  0  0  0  0  0  0  0  0
   34.6790   32.4470   37.5170 N   0  0  0  0  0  0  0  0  0  0  0  0
   35.4450   31.9240   36.5670 N   0  0  0  0  0  0  0  0  0  0  0  0
   32.4860   30.9550   35.6550 H   0  0  0  0  0  0  0  0  0  0  0  0
   32.4970   32.3870   37.8490 H   0  0  0  0  0  0  0  0  0  0  0  0
   34.9600   33.0150   38.3340 H   0  0  0  0  0  0  0  0  0  0  0  0
  1  2  1  0  0  0  0
  1 23  1  0  0  0  0
  2  7  1  0  0  0  0
  3  8  1  0  0  0  0
  3  2  2  0  0  0  0
  4  3  1  0  0  0  0
  5  4  2  0  0  0  0
  5  6  1  0  0  0  0
  6  1  2  0  0  0  0
  9  4  1  0  0  0  0
 10  5  1  0  0  0  0
 12  6  1  0  0  0  0
 12 11  2  0  0  0  0
 13 12  1  0  0  0  0
 14 13  1  0  0  0  0
 15 13  2  0  0  0  0
 15 21  1  0  0  0  0
 16 18  1  0  0  0  0
 16 15  1  0  0  0  0
 17 16  1  0  0  0  0
 18 19  2  0  0  0  0
 19 20  1  0  0  0  0
 19 21  1  0  0  0  0
 21 22  2  0  0  0  0
 22 11  1  0  0  0  0
 23 25  1  0  0  0  0
 23 24  1  0  0  0  0
 26 27  2  0  0  0  0
 27 23  1  0  0  0  0
 28 33  2  0  0  0  0
 28 29  1  0  0  0  0
 29 30  2  0  0  0  0
 30 31  1  0  0  0  0
 30 36  1  0  0  0  0
 32 26  1  0  0  0  0
 32 31  2  0  0  0  0
 33 32  1  0  0  0  0
 34 28  1  0  0  0  0
 35 29  1  0  0  0  0
 36 37  1  0  0  0  0
 36 40  2  0  0  0  0
 37 38  2  0  0  0  0
 38 39  1  0  0  0  0
 38 42  1  0  0  0  0
 39 43  1  0  0  0  0
 40 39  1  0  0  0  0
 41 37  1  0  0  0  0
M  END
>  <minimizedAffinity>
-6.47060537

$$$$
