
 OpenBabel03272509073D

 43 47  0  0  0  0  0  0  0  0999 V2000
   33.1900   27.1370   47.3050 C   0  0  0  0  0  0  0  0  0  0  0  0
   33.6540   25.8300   47.4340 C   0  0  0  0  0  0  0  0  0  0  0  0
   33.9300   25.0630   46.3350 C   0  0  0  0  0  0  0  0  0  0  0  0
   33.7580   25.5570   45.0630 C   0  0  0  0  0  0  0  0  0  0  0  0
   33.3000   26.8460   44.9260 C   0  0  0  0  0  0  0  0  0  0  0  0
   33.0130   27.6440   46.0250 C   0  0  0  0  0  0  0  0  0  0  0  0
   33.7570   25.5320   48.4670 H   0  0  0  0  0  0  0  0  0  0  0  0
   34.2760   24.0890   46.6200 H   0  0  0  0  0  0  0  0  0  0  0  0
   34.0020   24.8790   44.2620 H   0  0  0  0  0  0  0  0  0  0  0  0
   33.2050   27.1170   43.8710 H   0  0  0  0  0  0  0  0  0  0  0  0
   31.4050   29.6290   45.7540 C   0  0  0  0  0  3  0  0  0  0  0  0
   32.5710   28.9520   45.5760 C   0  0  0  0  0  0  0  0  0  0  0  0
   33.5030   29.6440   44.7860 C   0  0  0  0  0  0  0  0  0  0  0  0
   34.4890   29.2130   44.5620 H   0  0  0  0  0  0  0  0  0  0  0  0
   33.3150   30.8880   44.2190 C   0  0  0  0  0  0  0  0  0  0  0  0
   34.0520   31.6980   43.4550 N   0  0  0  0  0  0  0  0  0  0  0  0
   35.0210   31.5030   43.1150 H   0  0  0  0  0  0  0  0  0  0  0  0
   33.3370   32.7840   43.2110 N   0  0  0  0  0  0  0  0  0  0  0  0
   32.1260   32.7230   43.7970 C   0  0  0  0  0  0  0  0  0  0  0  0
   31.3120   33.4350   43.7950 H   0  0  0  0  0  0  0  0  0  0  0  0
   32.1090   31.5170   44.4390 C   0  0  0  0  0  0  0  0  0  0  0  0
   31.1690   30.8680   45.2100 C   0  0  0  0  0  3  0  0  0  0  0  0
   32.8560   28.0430   48.4380 C   0  0  0  0  0  0  0  0  0  0  0  0
   32.4650   27.3710   49.2520 H   0  0  0  0  0  0  0  0  0  0  0  0
   32.0240   28.6860   48.1690 H   0  0  0  0  0  0  0  0  0  0  0  0
   35.1320   28.2890   49.4690 C   0  0  0  0  0  3  0  0  0  0  0  0
   34.0140   28.7740   48.9870 C   0  0  0  0  0  3  0  0  0  0  0  0
   37.4010   30.2160   51.5820 C   0  0  0  0  0  0  0  0  0  0  0  0
   38.0880   30.9900   50.6290 C   0  0  0  0  0  0  0  0  0  0  0  0
   37.7470   30.8310   49.2780 C   0  0  0  0  0  0  0  0  0  0  0  0
   36.7590   29.9270   48.9630 N   0  0  0  0  0  0  0  0  0  0  0  0
   36.1400   29.2160   49.9360 C   0  0  0  0  0  0  0  0  0  0  0  0
   36.4480   29.3510   51.2180 N   0  0  0  0  0  0  0  0  0  0  0  0
   37.6480   30.3230   52.6190 H   0  0  0  0  0  0  0  0  0  0  0  0
   38.8510   31.6830   50.8900 H   0  0  0  0  0  0  0  0  0  0  0  0
   38.3920   31.5850   48.2020 C   0  0  0  0  0  0  0  0  0  0  0  0
   38.6070   31.0560   46.9500 C   0  0  0  0  0  0  0  0  0  0  0  0
   39.2380   32.0470   46.1840 C   0  0  0  0  0  0  0  0  0  0  0  0
   39.3760   33.1210   46.9990 N   0  0  0  0  0  0  0  0  0  0  0  0
   38.8710   32.8400   48.1940 N   0  0  0  0  0  0  0  0  0  0  0  0
   38.3560   30.0740   46.5790 H   0  0  0  0  0  0  0  0  0  0  0  0
   39.5350   31.9270   45.1490 H   0  0  0  0  0  0  0  0  0  0  0  0
   39.8170   33.9980   46.6740 H   0  0  0  0  0  0  0  0  0  0  0  0
  1  2  1  0  0  0  0
  1 23  1  0  0  0  0
  2  7  1  0  0  0  0
  3  8  1  0  0  0  0
  3  2  2  0  0  0  0
  4  3  1  0  0  0  0
  5  4  2  0  0  0  0
  5  6  1  0  0  0  0
  6  1  2  0  0  0  0
  9  4  1  0  0  0  0
 10  5  1  0  0  0  0
 12 11  1  0  0  0  0
 12  6  1  0  0  0  0
 13 12  2  0  0  0  0
 14 13  1  0  0  0  0
 15 21  2  0  0  0  0
 15 13  1  0  0  0  0
 16 15  1  0  0  0  0
 17 16  1  0  0  0  0
 18 16  1  0  0  0  0
 18 19  2  0  0  0  0
 19 21  1  0  0  0  0
 20 19  1  0  0  0  0
 21 22  1  0  0  0  0
 22 11  2  0  0  0  0
 23 27  1  0  0  0  0
 23 24  1  0  0  0  0
 25 23  1  0  0  0  0
 26 32  1  0  0  0  0
 27 26  2  0  0  0  0
 28 34  1  0  0  0  0
 29 35  1  0  0  0  0
 29 28  2  0  0  0  0
 30 29  1  0  0  0  0
 31 30  2  0  0  0  0
 31 32  1  0  0  0  0
 32 33  2  0  0  0  0
 33 28  1  0  0  0  0
 36 30  1  0  0  0  0
 37 36  1  0  0  0  0
 38 37  2  0  0  0  0
 38 39  1  0  0  0  0
 39 40  1  0  0  0  0
 40 36  2  0  0  0  0
 41 37  1  0  0  0  0
 42 38  1  0  0  0  0
 43 39  1  0  0  0  0
M  END
>  <minimizedAffinity>
-6.78877163

>  <minimizedRMSD>
1.37369585

$$$$
