
 OpenBabel03272508363D

 47 51  0  0  1  0  0  0  0  0999 V2000
   40.0080   31.6180   43.1630 N   0  0  0  0  0  0  0  0  0  0  0  0
   39.4550   32.8290   42.7080 C   0  0  0  0  0  0  0  0  0  0  0  0
   38.0580   32.7890   42.2510 C   0  0  0  0  0  0  0  0  0  0  0  0
   37.7490   31.6240   41.5320 O   0  0  0  0  0  0  0  0  0  0  0  0
   38.0170   30.5360   42.3070 C   0  0  0  0  0  0  0  0  0  0  0  0
   39.4960   30.4440   42.6030 C   0  0  1  0  0  0  0  0  0  0  0  0
   40.0990   32.9690   41.7990 H   0  0  0  0  0  0  0  0  0  0  0  0
   39.6760   33.7620   43.2170 H   0  0  0  0  0  0  0  0  0  0  0  0
   38.0140   33.5130   41.3570 H   0  0  0  0  0  0  0  0  0  0  0  0
   37.2570   33.2620   42.7950 H   0  0  0  0  0  0  0  0  0  0  0  0
   37.8390   29.6480   41.6180 H   0  0  0  0  0  0  0  0  0  0  0  0
   37.3590   30.3350   43.1480 H   0  0  0  0  0  0  0  0  0  0  0  0
   39.4900   29.7220   43.4980 H   0  0  0  0  0  0  0  0  0  0  0  0
   40.1360   28.4310   41.1600 C   0  0  0  0  0  0  0  0  0  0  0  0
   40.2800   29.7320   41.5870 C   0  0  0  0  0  0  0  0  0  0  0  0
   41.3320   30.3640   40.9070 C   0  0  0  0  0  0  0  0  0  0  0  0
   41.5360   31.4140   41.1730 H   0  0  0  0  0  0  0  0  0  0  0  0
   42.1400   29.8080   39.9370 C   0  0  0  0  0  0  0  0  0  0  0  0
   43.1640   30.3250   39.2330 N   0  0  0  0  0  0  0  0  0  0  0  0
   43.5540   31.3030   39.3000 H   0  0  0  0  0  0  0  0  0  0  0  0
   43.5760   29.3490   38.4420 N   0  0  0  0  0  0  0  0  0  0  0  0
   42.8500   28.2320   38.6190 C   0  0  0  0  0  0  0  0  0  0  0  0
   42.9380   27.2660   38.1240 H   0  0  0  0  0  0  0  0  0  0  0  0
   41.9060   28.4980   39.5870 C   0  0  0  0  0  0  0  0  0  0  0  0
   40.8950   27.7980   40.2010 C   0  0  0  0  0  0  0  0  0  0  0  0
   40.4230   31.6000   44.5090 C   0  0  0  0  0  0  0  0  0  0  0  0
   41.5440   31.6500   44.4940 H   0  0  0  0  0  0  0  0  0  0  0  0
   40.2420   30.5440   44.8780 H   0  0  0  0  0  0  0  0  0  0  0  0
   39.8240   32.5080   45.4670 C   0  0  0  0  0  0  0  0  0  0  0  0
   39.4220   33.4740   45.2390 H   0  0  0  0  0  0  0  0  0  0  0  0
   40.6450   32.7520   46.2200 H   0  0  0  0  0  0  0  0  0  0  0  0
   37.6800   30.9560   47.9000 C   0  0  0  0  0  0  0  0  0  0  0  0
   36.9110   30.8160   46.7620 C   0  0  0  0  0  0  0  0  0  0  0  0
   37.6370   31.3890   45.7090 C   0  0  0  0  0  0  0  0  0  0  0  0
   38.7750   31.8370   46.2350 N   0  0  0  0  0  0  0  0  0  0  0  0
   38.8010   31.5780   47.5490 N   0  0  0  0  0  0  0  0  0  0  0  0
   35.9130   30.3380   46.7110 H   0  0  0  0  0  0  0  0  0  0  0  0
   37.1990   31.3710   44.7790 H   0  0  0  0  0  0  0  0  0  0  0  0
   37.4450   30.1590   51.5580 C   0  0  0  0  0  0  0  0  0  0  0  0
   37.9490   30.6820   50.3770 C   0  0  0  0  0  0  0  0  0  0  0  0
   37.2680   30.4760   49.1890 C   0  0  0  0  0  0  0  0  0  0  0  0
   36.1230   29.7480   49.3060 N   0  0  0  0  0  0  0  0  0  0  0  0
   35.6440   29.2470   50.4540 C   0  0  0  0  0  0  0  0  0  0  0  0
   36.3110   29.4570   51.5760 N   0  0  0  0  0  0  0  0  0  0  0  0
   38.0340   30.3640   52.4360 H   0  0  0  0  0  0  0  0  0  0  0  0
   38.8660   31.2570   50.3210 H   0  0  0  0  0  0  0  0  0  0  0  0
   34.7170   28.6810   50.4260 H   0  0  0  0  0  0  0  0  0  0  0  0
  1 26  1  0  0  0  0
  2  1  1  0  0  0  0
  2  8  1  0  0  0  0
  3  2  1  0  0  0  0
  3 10  1  0  0  0  0
  4  3  1  0  0  0  0
  4  5  1  0  0  0  0
  5  6  1  0  0  0  0
  5 12  1  0  0  0  0
  6  1  1  0  0  0  0
  6 13  1  1  0  0  0
  7  2  1  0  0  0  0
  9  3  1  0  0  0  0
 11  5  1  0  0  0  0
 14 15  1  0  0  0  0
 15  6  1  0  0  0  0
 16 17  1  0  0  0  0
 16 15  2  0  0  0  0
 18 16  1  0  0  0  0
 19 20  1  0  0  0  0
 19 18  1  0  0  0  0
 21 22  2  0  0  0  0
 21 19  1  0  0  0  0
 22 24  1  0  0  0  0
 23 22  1  0  0  0  0
 24 18  2  0  0  0  0
 24 25  1  0  0  0  0
 25 14  2  0  0  0  0
 26 28  1  0  0  0  0
 26 29  1  0  0  0  0
 27 26  1  0  0  0  0
 29 31  1  0  0  0  0
 29 35  1  0  0  0  0
 30 29  1  0  0  0  0
 32 41  1  0  0  0  0
 33 32  1  0  0  0  0
 34 35  1  0  0  0  0
 34 33  2  0  0  0  0
 35 36  1  0  0  0  0
 36 32  2  0  0  0  0
 37 33  1  0  0  0  0
 38 34  1  0  0  0  0
 39 44  1  0  0  0  0
 39 45  1  0  0  0  0
 40 39  2  0  0  0  0
 41 42  2  0  0  0  0
 41 40  1  0  0  0  0
 42 43  1  0  0  0  0
 43 44  2  0  0  0  0
 46 40  1  0  0  0  0
 47 43  1  0  0  0  0
M  END
>  <minimizedAffinity>
-6.12515688

>  <minimizedRMSD>
1.05424333

$$$$
