
 OpenBabel03272509063D

 43 47  0  0  0  0  0  0  0  0999 V2000
   33.4890   26.9570   47.0240 C   0  0  0  0  0  0  0  0  0  0  0  0
   33.5160   25.6250   47.4300 C   0  0  0  0  0  0  0  0  0  0  0  0
   33.9000   24.6300   46.5730 C   0  0  0  0  0  0  0  0  0  0  0  0
   34.2710   24.9110   45.2790 C   0  0  0  0  0  0  0  0  0  0  0  0
   34.2470   26.2240   44.8690 C   0  0  0  0  0  0  0  0  0  0  0  0
   33.8620   27.2510   45.7210 C   0  0  0  0  0  0  0  0  0  0  0  0
   33.2090   25.5030   48.4590 H   0  0  0  0  0  0  0  0  0  0  0  0
   33.8620   23.6700   47.0510 H   0  0  0  0  0  0  0  0  0  0  0  0
   34.5580   24.0630   44.6790 H   0  0  0  0  0  0  0  0  0  0  0  0
   34.5610   26.3140   43.8260 H   0  0  0  0  0  0  0  0  0  0  0  0
   34.9870   29.3880   44.8480 C   0  0  0  0  0  3  0  0  0  0  0  0
   33.9540   28.5220   45.0240 C   0  0  0  0  0  0  0  0  0  0  0  0
   32.7530   28.9600   44.4460 C   0  0  0  0  0  0  0  0  0  0  0  0
   31.8360   28.3560   44.5130 H   0  0  0  0  0  0  0  0  0  0  0  0
   32.5720   30.1410   43.7570 C   0  0  0  0  0  0  0  0  0  0  0  0
   31.5410   30.7300   43.1470 N   0  0  0  0  0  0  0  0  0  0  0  0
   30.5700   30.3470   43.0790 H   0  0  0  0  0  0  0  0  0  0  0  0
   31.9680   31.8780   42.6470 N   0  0  0  0  0  0  0  0  0  0  0  0
   33.2740   32.0780   42.9100 C   0  0  0  0  0  0  0  0  0  0  0  0
   33.9210   32.9030   42.6470 H   0  0  0  0  0  0  0  0  0  0  0  0
   33.6610   30.9740   43.6150 C   0  0  0  0  0  0  0  0  0  0  0  0
   34.8590   30.5770   44.1690 C   0  0  0  0  0  3  0  0  0  0  0  0
   33.0790   28.1040   47.8810 C   0  0  0  0  0  0  0  0  0  0  0  0
   32.4500   27.6560   48.6990 H   0  0  0  0  0  0  0  0  0  0  0  0
   32.4140   28.7620   47.3310 H   0  0  0  0  0  0  0  0  0  0  0  0
   35.0070   28.3740   49.4660 C   0  0  0  0  0  3  0  0  0  0  0  0
   34.2050   28.8070   48.5250 C   0  0  0  0  0  3  0  0  0  0  0  0
   37.3980   30.1640   51.5650 C   0  0  0  0  0  0  0  0  0  0  0  0
   38.0960   30.9290   50.6120 C   0  0  0  0  0  0  0  0  0  0  0  0
   37.7190   30.8120   49.2660 C   0  0  0  0  0  0  0  0  0  0  0  0
   36.6880   29.9550   48.9560 N   0  0  0  0  0  0  0  0  0  0  0  0
   36.0630   29.2500   49.9290 C   0  0  0  0  0  0  0  0  0  0  0  0
   36.4030   29.3470   51.2060 N   0  0  0  0  0  0  0  0  0  0  0  0
   37.6720   30.2400   52.5990 H   0  0  0  0  0  0  0  0  0  0  0  0
   38.8920   31.5860   50.8700 H   0  0  0  0  0  0  0  0  0  0  0  0
   38.3710   31.5610   48.1910 C   0  0  0  0  0  0  0  0  0  0  0  0
   38.5580   31.0400   46.9310 C   0  0  0  0  0  0  0  0  0  0  0  0
   39.2060   32.0240   46.1680 C   0  0  0  0  0  0  0  0  0  0  0  0
   39.3810   33.0850   46.9930 N   0  0  0  0  0  0  0  0  0  0  0  0
   38.8830   32.8030   48.1920 N   0  0  0  0  0  0  0  0  0  0  0  0
   38.2780   30.0700   46.5520 H   0  0  0  0  0  0  0  0  0  0  0  0
   39.4880   31.9070   45.1290 H   0  0  0  0  0  0  0  0  0  0  0  0
   39.8410   33.9540   46.6730 H   0  0  0  0  0  0  0  0  0  0  0  0
  1  2  1  0  0  0  0
  1 23  1  0  0  0  0
  2  7  1  0  0  0  0
  3  8  1  0  0  0  0
  3  2  2  0  0  0  0
  4  3  1  0  0  0  0
  5  4  2  0  0  0  0
  5  6  1  0  0  0  0
  6  1  2  0  0  0  0
  9  4  1  0  0  0  0
 10  5  1  0  0  0  0
 11 12  1  0  0  0  0
 12  6  1  0  0  0  0
 13 14  1  0  0  0  0
 13 12  2  0  0  0  0
 15 13  1  0  0  0  0
 16 15  1  0  0  0  0
 17 16  1  0  0  0  0
 18 19  2  0  0  0  0
 18 16  1  0  0  0  0
 19 21  1  0  0  0  0
 20 19  1  0  0  0  0
 21 15  2  0  0  0  0
 21 22  1  0  0  0  0
 22 11  2  0  0  0  0
 23 27  1  0  0  0  0
 23 24  1  0  0  0  0
 25 23  1  0  0  0  0
 26 32  1  0  0  0  0
 27 26  2  0  0  0  0
 28 34  1  0  0  0  0
 29 35  1  0  0  0  0
 29 28  2  0  0  0  0
 30 29  1  0  0  0  0
 31 30  2  0  0  0  0
 31 32  1  0  0  0  0
 32 33  2  0  0  0  0
 33 28  1  0  0  0  0
 36 40  2  0  0  0  0
 36 30  1  0  0  0  0
 37 36  1  0  0  0  0
 38 37  2  0  0  0  0
 38 39  1  0  0  0  0
 39 40  1  0  0  0  0
 41 37  1  0  0  0  0
 42 38  1  0  0  0  0
 43 39  1  0  0  0  0
M  END
>  <minimizedAffinity>
-6.61710358

>  <minimizedRMSD>
0.870289505

$$$$
