
 OpenBabel03272502173D

 36 39  0  0  1  0  0  0  0  0999 V2000
   37.1400   30.6000   49.1690 C   0  0  0  0  0  0  0  0  0  0  0  0
   37.2800   31.7590   49.9390 C   0  0  0  0  0  0  0  0  0  0  0  0
   38.0690   32.7920   49.4540 C   0  0  0  0  0  0  0  0  0  0  0  0
   38.6730   32.6130   48.2330 N   0  0  0  0  0  0  0  0  0  0  0  0
   38.5260   31.5020   47.5160 C   0  0  0  0  0  0  0  0  0  0  0  0
   37.7600   30.5130   48.0000 N   0  0  0  0  0  0  0  0  0  0  0  0
   36.8180   31.9260   50.8990 H   0  0  0  0  0  0  0  0  0  0  0  0
   38.2230   33.7190   49.9970 H   0  0  0  0  0  0  0  0  0  0  0  0
   39.9980   32.3710   45.7370 C   0  0  0  0  0  0  0  0  0  0  0  0
   39.1890   31.3580   46.2220 C   0  0  0  0  0  0  0  0  0  0  0  0
   38.9830   30.1850   45.5000 C   0  0  0  0  0  0  0  0  0  0  0  0
   38.3450   29.3940   45.8920 H   0  0  0  0  0  0  0  0  0  0  0  0
   39.5880   30.0060   44.2750 C   0  0  0  0  0  0  0  0  0  0  0  0
   39.5510   28.9880   43.4020 N   0  0  0  0  0  0  0  0  0  0  0  0
   39.0270   28.0660   43.4720 H   0  0  0  0  0  0  0  0  0  0  0  0
   40.3110   29.2840   42.3410 N   0  0  0  0  0  0  0  0  0  0  0  0
   40.8410   30.5210   42.5510 C   0  0  0  0  0  0  0  0  0  0  0  0
   41.5010   31.0950   41.9250 H   0  0  0  0  0  0  0  0  0  0  0  0
   40.3960   30.9860   43.7610 C   0  0  0  0  0  0  0  0  0  0  0  0
   40.5730   32.1310   44.5050 C   0  0  0  0  0  0  0  0  0  0  0  0
   36.1030   29.3790   49.9230 S   0  0  0  0  0  0  0  0  0  0  0  0
   33.7310   28.3010   49.2100 N   0  0  0  0  0  0  0  0  0  0  0  0
   34.3620   29.5880   49.4090 C   0  0  2  0  0  0  0  0  0  0  0  0
   34.3330   30.3210   48.0910 C   0  0  0  0  0  0  0  0  0  0  0  0
   33.3880   29.7520   47.2110 O   0  0  0  0  0  0  0  0  0  0  0  0
   33.9490   28.5060   46.8510 C   0  0  0  0  0  0  0  0  0  0  0  0
   34.3130   27.6870   48.0550 C   0  0  2  0  0  0  0  0  0  0  0  0
   33.7870   27.6660   50.0240 H   0  0  0  0  0  0  0  0  0  0  0  0
   33.8680   30.1580   50.2080 H   0  0  0  0  0  0  0  0  0  0  0  0
   33.9970   31.3550   48.2690 H   0  0  0  0  0  0  0  0  0  0  0  0
   35.3240   30.3340   47.5990 H   0  0  0  0  0  0  0  0  0  0  0  0
   33.1520   27.9720   46.2930 H   0  0  0  0  0  0  0  0  0  0  0  0
   34.7780   28.6290   46.1250 H   0  0  0  0  0  0  0  0  0  0  0  0
   35.4080   27.6670   48.1660 H   0  0  0  0  0  0  0  0  0  0  0  0
   33.7820   26.3880   47.9360 O   0  0  0  0  0  0  0  0  0  0  0  0
   34.5220   25.8820   47.4700 H   0  0  0  0  0  0  0  0  0  0  0  0
  1 21  1  0  0  0  0
  1  2  1  0  0  0  0
  2  7  1  0  0  0  0
  3  2  2  0  0  0  0
  3  8  1  0  0  0  0
  4  3  1  0  0  0  0
  5  6  1  0  0  0  0
  5  4  2  0  0  0  0
  6  1  2  0  0  0  0
  9 10  1  0  0  0  0
 10  5  1  0  0  0  0
 11 12  1  0  0  0  0
 11 10  2  0  0  0  0
 13 11  1  0  0  0  0
 14 15  1  0  0  0  0
 14 13  1  0  0  0  0
 16 17  2  0  0  0  0
 16 14  1  0  0  0  0
 17 19  1  0  0  0  0
 18 17  1  0  0  0  0
 19 13  2  0  0  0  0
 19 20  1  0  0  0  0
 20  9  2  0  0  0  0
 22 23  1  0  0  0  0
 22 28  1  0  0  0  0
 23 21  1  0  0  0  0
 23 29  1  1  0  0  0
 24 30  1  0  0  0  0
 24 23  1  0  0  0  0
 25 24  1  0  0  0  0
 26 25  1  0  0  0  0
 26 27  1  0  0  0  0
 27 34  1  1  0  0  0
 27 22  1  0  0  0  0
 31 24  1  0  0  0  0
 32 26  1  0  0  0  0
 33 26  1  0  0  0  0
 35 27  1  0  0  0  0
 36 35  1  0  0  0  0
M  END
>  <minimizedAffinity>
-6.53662491

>  <minimizedRMSD>
1.36489522

$$$$
