
 OpenBabel03272509073D

 43 47  0  0  0  0  0  0  0  0999 V2000
   33.5070   26.9370   47.0170 C   0  0  0  0  0  0  0  0  0  0  0  0
   33.5430   25.6040   47.4160 C   0  0  0  0  0  0  0  0  0  0  0  0
   33.9320   24.6140   46.5540 C   0  0  0  0  0  0  0  0  0  0  0  0
   34.2980   24.9040   45.2610 C   0  0  0  0  0  0  0  0  0  0  0  0
   34.2660   26.2190   44.8570 C   0  0  0  0  0  0  0  0  0  0  0  0
   33.8760   27.2390   45.7140 C   0  0  0  0  0  0  0  0  0  0  0  0
   33.2390   25.4750   48.4450 H   0  0  0  0  0  0  0  0  0  0  0  0
   33.9000   23.6530   47.0270 H   0  0  0  0  0  0  0  0  0  0  0  0
   34.5890   24.0600   44.6570 H   0  0  0  0  0  0  0  0  0  0  0  0
   34.5780   26.3150   43.8140 H   0  0  0  0  0  0  0  0  0  0  0  0
   34.9880   29.3860   44.8460 C   0  0  0  0  0  3  0  0  0  0  0  0
   33.9600   28.5140   45.0230 C   0  0  0  0  0  0  0  0  0  0  0  0
   32.7540   28.9500   44.4510 C   0  0  0  0  0  0  0  0  0  0  0  0
   31.8410   28.3400   44.5180 H   0  0  0  0  0  0  0  0  0  0  0  0
   32.5650   30.1320   43.7680 C   0  0  0  0  0  0  0  0  0  0  0  0
   31.5290   30.7190   43.1640 N   0  0  0  0  0  0  0  0  0  0  0  0
   30.5590   30.3310   43.0970 H   0  0  0  0  0  0  0  0  0  0  0  0
   31.9490   31.8710   42.6690 N   0  0  0  0  0  0  0  0  0  0  0  0
   33.2550   32.0770   42.9270 C   0  0  0  0  0  0  0  0  0  0  0  0
   33.8960   32.9060   42.6660 H   0  0  0  0  0  0  0  0  0  0  0  0
   33.6490   30.9710   43.6260 C   0  0  0  0  0  0  0  0  0  0  0  0
   34.8510   30.5770   44.1740 C   0  0  0  0  0  3  0  0  0  0  0  0
   33.0930   28.0780   47.8790 C   0  0  0  0  0  0  0  0  0  0  0  0
   32.4700   27.6220   48.6970 H   0  0  0  0  0  0  0  0  0  0  0  0
   32.4210   28.7330   47.3340 H   0  0  0  0  0  0  0  0  0  0  0  0
   35.0090   28.3650   49.4760 C   0  0  0  0  0  3  0  0  0  0  0  0
   34.2160   28.7870   48.5220 C   0  0  0  0  0  3  0  0  0  0  0  0
   37.4000   30.1650   51.5650 C   0  0  0  0  0  0  0  0  0  0  0  0
   38.0950   30.9280   50.6090 C   0  0  0  0  0  0  0  0  0  0  0  0
   37.7170   30.8060   49.2640 C   0  0  0  0  0  0  0  0  0  0  0  0
   36.6870   29.9470   48.9580 N   0  0  0  0  0  0  0  0  0  0  0  0
   36.0640   29.2440   49.9340 C   0  0  0  0  0  0  0  0  0  0  0  0
   36.4060   29.3450   51.2100 N   0  0  0  0  0  0  0  0  0  0  0  0
   37.6750   30.2440   52.5980 H   0  0  0  0  0  0  0  0  0  0  0  0
   38.8910   31.5870   50.8640 H   0  0  0  0  0  0  0  0  0  0  0  0
   38.3660   31.5530   48.1860 C   0  0  0  0  0  0  0  0  0  0  0  0
   38.5430   31.0320   46.9250 C   0  0  0  0  0  0  0  0  0  0  0  0
   39.1910   32.0130   46.1580 C   0  0  0  0  0  0  0  0  0  0  0  0
   39.3750   33.0730   46.9830 N   0  0  0  0  0  0  0  0  0  0  0  0
   38.8830   32.7930   48.1840 N   0  0  0  0  0  0  0  0  0  0  0  0
   38.2580   30.0630   46.5470 H   0  0  0  0  0  0  0  0  0  0  0  0
   39.4670   31.8960   45.1170 H   0  0  0  0  0  0  0  0  0  0  0  0
   39.8370   33.9400   46.6600 H   0  0  0  0  0  0  0  0  0  0  0  0
  1  2  1  0  0  0  0
  1 23  1  0  0  0  0
  2  7  1  0  0  0  0
  3  8  1  0  0  0  0
  3  2  2  0  0  0  0
  4  3  1  0  0  0  0
  5  4  2  0  0  0  0
  5  6  1  0  0  0  0
  6  1  2  0  0  0  0
  9  4  1  0  0  0  0
 10  5  1  0  0  0  0
 11 12  1  0  0  0  0
 12  6  1  0  0  0  0
 13 14  1  0  0  0  0
 13 12  2  0  0  0  0
 15 13  1  0  0  0  0
 16 15  1  0  0  0  0
 17 16  1  0  0  0  0
 18 19  2  0  0  0  0
 18 16  1  0  0  0  0
 19 21  1  0  0  0  0
 20 19  1  0  0  0  0
 21 15  2  0  0  0  0
 21 22  1  0  0  0  0
 22 11  2  0  0  0  0
 23 27  1  0  0  0  0
 23 24  1  0  0  0  0
 25 23  1  0  0  0  0
 26 32  1  0  0  0  0
 27 26  2  0  0  0  0
 28 34  1  0  0  0  0
 29 35  1  0  0  0  0
 29 28  2  0  0  0  0
 30 29  1  0  0  0  0
 31 30  2  0  0  0  0
 31 32  1  0  0  0  0
 32 33  2  0  0  0  0
 33 28  1  0  0  0  0
 36 30  1  0  0  0  0
 37 36  1  0  0  0  0
 38 37  2  0  0  0  0
 38 39  1  0  0  0  0
 39 40  1  0  0  0  0
 40 36  2  0  0  0  0
 41 37  1  0  0  0  0
 42 38  1  0  0  0  0
 43 39  1  0  0  0  0
M  END
>  <minimizedAffinity>
-6.6135931

>  <minimizedRMSD>
0.72323364

$$$$
