
 OpenBabel03272508113D

 37 40  0  0  0  0  0  0  0  0999 V2000
   36.6390   29.5900   44.1390 Cl  0  0  0  0  0  0  0  0  0  0  0  0
   38.2770   29.9350   43.5350 C   0  0  0  0  0  0  0  0  0  0  0  0
   39.3130   30.3840   44.3350 C   0  0  0  0  0  0  0  0  0  0  0  0
   40.5410   30.6140   43.7360 C   0  0  0  0  0  0  0  0  0  0  0  0
   40.7190   30.4040   42.3930 C   0  0  0  0  0  0  0  0  0  0  0  0
   39.7020   29.9610   41.5880 C   0  0  0  0  0  0  0  0  0  0  0  0
   38.4820   29.7280   42.1670 C   0  0  0  0  0  0  0  0  0  0  0  0
   41.2960   30.9610   44.4250 H   0  0  0  0  0  0  0  0  0  0  0  0
   41.7030   30.6040   41.9900 H   0  0  0  0  0  0  0  0  0  0  0  0
   39.9010   29.8130   40.5340 H   0  0  0  0  0  0  0  0  0  0  0  0
   37.3700   27.8690   41.0800 C   0  0  0  0  0  0  0  0  0  0  0  0
   37.4290   29.2550   41.2660 C   0  0  0  0  0  0  0  0  0  0  0  0
   36.4890   29.9960   40.5810 C   0  0  0  0  0  0  0  0  0  0  0  0
   36.5640   31.0600   40.7490 H   0  0  0  0  0  0  0  0  0  0  0  0
   35.5720   29.3580   39.7750 C   0  0  0  0  0  0  0  0  0  0  0  0
   34.5820   29.8780   39.0250 N   0  0  0  0  0  0  0  0  0  0  0  0
   34.3520   30.8940   38.9400 H   0  0  0  0  0  0  0  0  0  0  0  0
   33.9470   28.9080   38.4140 N   0  0  0  0  0  0  0  0  0  0  0  0
   34.4980   27.7080   38.7400 C   0  0  0  0  0  0  0  0  0  0  0  0
   34.2080   26.7180   38.4050 H   0  0  0  0  0  0  0  0  0  0  0  0
   35.5380   27.9920   39.6100 C   0  0  0  0  0  0  0  0  0  0  0  0
   36.4580   27.2130   40.2760 C   0  0  0  0  0  0  0  0  0  0  0  0
   38.9430   30.5300   45.6370 O   0  0  0  0  0  0  0  0  0  0  0  0
   39.4920   32.5450   47.1610 O   0  0  0  0  0  0  0  0  0  0  0  0
   38.3680   31.8820   46.4430 P   0  0  1  0  0  0  0  0  0  0  0  0
   37.7850   32.9100   45.2040 O   0  0  0  0  0  0  0  0  0  0  0  0
   38.5470   33.2950   44.7030 H   0  0  0  0  0  0  0  0  0  0  0  0
   37.0660   31.4410   47.4430 O   0  0  0  0  0  0  0  0  0  0  0  0
   37.6190   30.5320   50.9770 C   0  0  0  0  0  0  0  0  0  0  0  0
   37.7230   31.3130   49.8260 C   0  0  0  0  0  0  0  0  0  0  0  0
   37.1080   30.8730   48.6640 C   0  0  0  0  0  0  0  0  0  0  0  0
   36.4240   29.6770   48.7160 N   0  0  0  0  0  0  0  0  0  0  0  0
   36.3500   28.9550   49.8520 C   0  0  0  0  0  0  0  0  0  0  0  0
   36.9440   29.3810   50.9750 N   0  0  0  0  0  0  0  0  0  0  0  0
   38.1410   30.9830   51.8220 H   0  0  0  0  0  0  0  0  0  0  0  0
   38.2380   32.2500   49.7160 H   0  0  0  0  0  0  0  0  0  0  0  0
   35.8120   28.0160   49.8880 H   0  0  0  0  0  0  0  0  0  0  0  0
  2  1  1  0  0  0  0
  2  3  1  0  0  0  0
  3 23  1  0  0  0  0
  4  3  2  0  0  0  0
  4  8  1  0  0  0  0
  5  4  1  0  0  0  0
  6  7  1  0  0  0  0
  6  5  2  0  0  0  0
  7  2  2  0  0  0  0
  9  5  1  0  0  0  0
 10  6  1  0  0  0  0
 11 12  1  0  0  0  0
 12  7  1  0  0  0  0
 13 14  1  0  0  0  0
 13 12  2  0  0  0  0
 15 13  1  0  0  0  0
 16 15  1  0  0  0  0
 17 16  1  0  0  0  0
 18 19  2  0  0  0  0
 18 16  1  0  0  0  0
 19 21  1  0  0  0  0
 20 19  1  0  0  0  0
 21 15  2  0  0  0  0
 21 22  1  0  0  0  0
 22 11  2  0  0  0  0
 23 25  1  0  0  0  0
 25 24  2  1  0  0  0
 25 28  1  0  0  0  0
 26 25  1  0  0  0  0
 27 26  1  0  0  0  0
 28 31  1  0  0  0  0
 29 35  1  0  0  0  0
 30 29  2  0  0  0  0
 31 32  2  0  0  0  0
 31 30  1  0  0  0  0
 32 33  1  0  0  0  0
 33 37  1  0  0  0  0
 33 34  2  0  0  0  0
 34 29  1  0  0  0  0
 36 30  1  0  0  0  0
M  END
>  <minimizedAffinity>
-4.84629965

>  <minimizedRMSD>
0.936742067

$$$$
