
 OpenBabel03272502003D

 45 50  0  0  0  0  0  0  0  0999 V2000
   34.4100   28.3660   49.7890 C   0  0  0  0  0  0  0  0  0  0  0  0
   33.5450   29.0120   50.0320 H   0  0  0  0  0  0  0  0  0  0  0  0
   34.4010   27.5500   50.5490 H   0  0  0  0  0  0  0  0  0  0  0  0
   37.3170   30.1000   51.2780 C   0  0  0  0  0  0  0  0  0  0  0  0
   37.8730   30.7290   50.1530 C   0  0  0  0  0  0  0  0  0  0  0  0
   37.2510   30.5560   48.9040 C   0  0  0  0  0  0  0  0  0  0  0  0
   36.1520   29.7890   48.8650 N   0  0  0  0  0  0  0  0  0  0  0  0
   35.6280   29.1850   49.9760 C   0  0  0  0  0  0  0  0  0  0  0  0
   36.2260   29.3610   51.1370 N   0  0  0  0  0  0  0  0  0  0  0  0
   37.8020   30.2370   52.2410 H   0  0  0  0  0  0  0  0  0  0  0  0
   38.7410   31.3290   50.2110 H   0  0  0  0  0  0  0  0  0  0  0  0
   37.1270   30.7400   46.5070 C   0  0  0  0  0  0  0  0  0  0  0  0
   37.7370   31.1600   47.6700 C   0  0  0  0  0  0  0  0  0  0  0  0
   38.7420   32.0950   47.6290 C   0  0  0  0  0  0  0  0  0  0  0  0
   39.2180   32.4230   48.5320 H   0  0  0  0  0  0  0  0  0  0  0  0
   39.2000   32.6650   46.4540 C   0  0  0  0  0  0  0  0  0  0  0  0
   40.1420   33.5760   46.1530 N   0  0  0  0  0  0  0  0  0  0  0  0
   40.7690   34.0710   46.8400 H   0  0  0  0  0  0  0  0  0  0  0  0
   40.1400   33.7370   44.8480 N   0  0  0  0  0  0  0  0  0  0  0  0
   39.2040   32.9420   44.2720 C   0  0  0  0  0  0  0  0  0  0  0  0
   38.9840   32.8720   43.2110 H   0  0  0  0  0  0  0  0  0  0  0  0
   38.5800   32.2380   45.2900 C   0  0  0  0  0  0  0  0  0  0  0  0
   37.5690   31.3010   45.3030 C   0  0  0  0  0  0  0  0  0  0  0  0
   34.3420   27.8180   48.3800 C   0  0  0  0  0  0  0  0  0  0  0  0
   34.9250   28.3980   47.6620 H   0  0  0  0  0  0  0  0  0  0  0  0
   34.5990   26.7510   48.4200 H   0  0  0  0  0  0  0  0  0  0  0  0
   32.8910   27.9250   47.9840 C   0  0  0  0  0  0  0  0  0  0  0  0
   31.8570   27.0910   48.3860 C   0  0  0  0  0  0  0  0  0  0  0  0
   30.6780   27.5360   47.7970 C   0  0  0  0  0  0  0  0  0  0  0  0
   31.0350   28.6190   47.0610 N   0  0  0  0  0  0  0  0  0  0  0  0
   32.3390   28.8460   47.1750 N   0  0  0  0  0  0  0  0  0  0  0  0
   28.6930   29.0780   46.3010 N   0  0  0  0  0  0  0  0  0  0  0  0
   30.0170   29.2960   46.3330 C   0  0  0  0  0  0  0  0  0  0  0  0
   30.2520   30.3420   45.4980 N   0  0  0  0  0  0  0  0  0  0  0  0
   29.1040   30.7630   44.9620 C   0  0  0  0  0  0  0  0  0  0  0  0
   28.8500   31.7830   44.0710 C   0  0  0  0  0  0  0  0  0  0  0  0
   27.5770   32.0020   43.6820 N   0  0  0  0  0  0  0  0  0  0  0  0
   26.5870   31.2170   44.1770 C   0  0  0  0  0  0  0  0  0  0  0  0
   26.8400   30.2110   45.0580 N   0  0  0  0  0  0  0  0  0  0  0  0
   28.1050   29.9700   45.4620 C   0  0  0  0  0  0  0  0  0  0  0  0
   31.9530   26.2390   49.0450 H   0  0  0  0  0  0  0  0  0  0  0  0
   29.7460   27.0540   47.9560 H   0  0  0  0  0  0  0  0  0  0  0  0
   28.1950   28.3380   46.8380 H   0  0  0  0  0  0  0  0  0  0  0  0
   29.6610   32.3900   43.6940 H   0  0  0  0  0  0  0  0  0  0  0  0
   25.5470   31.3510   43.8980 H   0  0  0  0  0  0  0  0  0  0  0  0
  1  8  1  0  0  0  0
  1  2  1  0  0  0  0
  1  3  1  0  0  0  0
  4 10  1  0  0  0  0
  5 11  1  0  0  0  0
  5  4  2  0  0  0  0
  6  5  1  0  0  0  0
  7  6  2  0  0  0  0
  7  8  1  0  0  0  0
  8  9  2  0  0  0  0
  9  4  1  0  0  0  0
 12 13  1  0  0  0  0
 13  6  1  0  0  0  0
 14 13  2  0  0  0  0
 14 15  1  0  0  0  0
 16 14  1  0  0  0  0
 17 16  1  0  0  0  0
 17 18  1  0  0  0  0
 19 17  1  0  0  0  0
 20 19  2  0  0  0  0
 20 22  1  0  0  0  0
 21 20  1  0  0  0  0
 22 23  1  0  0  0  0
 22 16  2  0  0  0  0
 23 12  2  0  0  0  0
 24 26  1  0  0  0  0
 24  1  1  0  0  0  0
 25 24  1  0  0  0  0
 27 24  1  0  0  0  0
 27 28  1  0  0  0  0
 28 41  1  0  0  0  0
 29 42  1  0  0  0  0
 29 28  2  0  0  0  0
 30 31  1  0  0  0  0
 30 29  1  0  0  0  0
 31 27  2  0  0  0  0
 32 33  1  0  0  0  0
 32 43  1  0  0  0  0
 33 30  1  0  0  0  0
 34 33  2  0  0  0  0
 35 40  1  0  0  0  0
 35 34  1  0  0  0  0
 36 35  2  0  0  0  0
 37 36  1  0  0  0  0
 37 38  2  0  0  0  0
 38 39  1  0  0  0  0
 39 40  2  0  0  0  0
 40 32  1  0  0  0  0
 44 36  1  0  0  0  0
 45 38  1  0  0  0  0
M  END
>  <minimizedAffinity>
-7.97567749

>  <minimizedRMSD>
0.71354121

$$$$
