
 OpenBabel03272505143D

 42 46  0  0  0  0  0  0  0  0999 V2000
   37.5820   27.8700   35.4080 Cl  0  0  0  0  0  0  0  0  0  0  0  0
   37.1100   27.8550   33.7210 C   0  0  0  0  0  0  0  0  0  0  0  0
   37.7180   27.0800   32.7280 C   0  0  0  0  0  0  0  0  0  0  0  0
   37.2660   27.1480   31.4350 C   0  0  0  0  0  0  0  0  0  0  0  0
   36.2260   27.9620   31.0970 C   0  0  0  0  0  0  0  0  0  0  0  0
   35.5810   28.7590   32.0490 C   0  0  0  0  0  0  0  0  0  0  0  0
   36.0560   28.6740   33.3490 C   0  0  0  0  0  0  0  0  0  0  0  0
   37.7950   26.5130   30.7300 H   0  0  0  0  0  0  0  0  0  0  0  0
   35.9140   27.9770   30.0800 H   0  0  0  0  0  0  0  0  0  0  0  0
   34.7680   29.3870   31.7470 H   0  0  0  0  0  0  0  0  0  0  0  0
   33.9740   29.3160   34.4640 C   0  0  0  0  0  3  0  0  0  0  0  0
   35.3390   29.5310   34.2880 C   0  0  0  0  0  0  0  0  0  0  0  0
   35.8900   30.5530   35.0340 C   0  0  0  0  0  0  0  0  0  0  0  0
   36.9290   30.7330   34.9140 H   0  0  0  0  0  0  0  0  0  0  0  0
   35.1270   31.3100   35.8980 C   0  0  0  0  0  0  0  0  0  0  0  0
   35.4540   32.3350   36.7060 N   0  0  0  0  0  0  0  0  0  0  0  0
   36.4100   32.7790   36.8380 H   0  0  0  0  0  0  0  0  0  0  0  0
   34.3730   32.7440   37.3500 N   0  0  0  0  0  0  0  0  0  0  0  0
   33.3060   32.0000   36.9860 C   0  0  0  0  0  0  0  0  0  0  0  0
   32.2700   32.0440   37.3000 H   0  0  0  0  0  0  0  0  0  0  0  0
   33.7760   31.0850   36.0620 C   0  0  0  0  0  0  0  0  0  0  0  0
   33.2020   30.0680   35.3270 C   0  0  0  0  0  3  0  0  0  0  0  0
   39.0660   26.0600   33.3120 S   0  0  0  0  0  0  0  0  0  0  0  0
   37.8920   23.7330   31.5860 Cl  0  0  0  0  0  0  0  0  0  0  0  0
   37.9640   23.5280   33.3200 C   0  0  0  0  0  0  0  0  0  0  0  0
   37.4940   22.3400   33.8330 C   0  0  0  0  0  0  0  0  0  0  0  0
   37.5440   22.1610   35.2070 C   0  0  0  0  0  0  0  0  0  0  0  0
   38.0480   23.1480   36.0070 C   0  0  0  0  0  0  0  0  0  0  0  0
   38.5080   24.3280   35.4240 C   0  0  0  0  0  0  0  0  0  0  0  0
   38.4880   24.5700   34.0780 C   0  0  0  0  0  0  0  0  0  0  0  0
   37.1710   21.2210   35.6080 H   0  0  0  0  0  0  0  0  0  0  0  0
   38.0830   23.0000   37.0790 H   0  0  0  0  0  0  0  0  0  0  0  0
   38.9050   25.0990   36.0830 H   0  0  0  0  0  0  0  0  0  0  0  0
   35.0840   20.3720   31.9340 C   0  0  0  0  0  0  0  0  0  0  0  0
   35.8640   19.4010   31.2810 C   0  0  0  0  0  0  0  0  0  0  0  0
   37.2400   19.4380   31.5080 C   0  0  0  0  0  0  0  0  0  0  0  0
   37.7530   20.3950   32.3360 N   0  0  0  0  0  0  0  0  0  0  0  0
   36.9570   21.3000   32.9350 C   0  0  0  0  0  0  0  0  0  0  0  0
   35.6410   21.2790   32.7300 N   0  0  0  0  0  0  0  0  0  0  0  0
   34.0230   20.3080   31.7300 H   0  0  0  0  0  0  0  0  0  0  0  0
   35.5040   18.6250   30.6170 H   0  0  0  0  0  0  0  0  0  0  0  0
   37.9730   18.7870   31.1000 H   0  0  0  0  0  0  0  0  0  0  0  0
  2  1  1  0  0  0  0
  3 23  1  0  0  0  0
  3  2  2  0  0  0  0
  4  3  1  0  0  0  0
  5  4  2  0  0  0  0
  5  6  1  0  0  0  0
  6  7  2  0  0  0  0
  7  2  1  0  0  0  0
  7 12  1  0  0  0  0
  8  4  1  0  0  0  0
  9  5  1  0  0  0  0
 10  6  1  0  0  0  0
 11 22  1  0  0  0  0
 12 11  2  0  0  0  0
 12 13  1  0  0  0  0
 13 15  2  0  0  0  0
 14 13  1  0  0  0  0
 15 21  1  0  0  0  0
 15 16  1  0  0  0  0
 16 17  1  0  0  0  0
 16 18  1  0  0  0  0
 19 20  1  0  0  0  0
 19 18  2  0  0  0  0
 21 19  1  0  0  0  0
 22 21  2  0  0  0  0
 23 30  1  0  0  0  0
 24 25  1  0  0  0  0
 25 26  2  0  0  0  0
 25 30  1  0  0  0  0
 26 27  1  0  0  0  0
 27 31  1  0  0  0  0
 27 28  2  0  0  0  0
 28 32  1  0  0  0  0
 29 28  1  0  0  0  0
 29 33  1  0  0  0  0
 30 29  2  0  0  0  0
 34 39  1  0  0  0  0
 35 36  1  0  0  0  0
 35 34  2  0  0  0  0
 36 37  2  0  0  0  0
 37 38  1  0  0  0  0
 38 26  1  0  0  0  0
 39 38  2  0  0  0  0
 40 34  1  0  0  0  0
 41 35  1  0  0  0  0
 42 36  1  0  0  0  0
M  END
>  <minimizedAffinity>
-6.85612202

$$$$

 OpenBabel03272505143D

 42 46  0  0  0  0  0  0  0  0999 V2000
   36.3970   27.2050   34.5250 Cl  0  0  0  0  0  0  0  0  0  0  0  0
   36.4920   27.9980   32.9660 C   0  0  0  0  0  0  0  0  0  0  0  0
   37.1200   27.4640   31.8360 C   0  0  0  0  0  0  0  0  0  0  0  0
   37.1350   28.1750   30.6630 C   0  0  0  0  0  0  0  0  0  0  0  0
   36.5430   29.3990   30.5770 C   0  0  0  0  0  0  0  0  0  0  0  0
   35.9010   29.9810   31.6750 C   0  0  0  0  0  0  0  0  0  0  0  0
   35.8990   29.2450   32.8500 C   0  0  0  0  0  0  0  0  0  0  0  0
   37.6440   27.6850   29.8370 H   0  0  0  0  0  0  0  0  0  0  0  0
   36.5830   29.9080   29.6420 H   0  0  0  0  0  0  0  0  0  0  0  0
   35.4470   30.9460   31.5700 H   0  0  0  0  0  0  0  0  0  0  0  0
   33.8680   29.6170   34.1640 C   0  0  0  0  0  3  0  0  0  0  0  0
   35.2140   29.9110   33.9530 C   0  0  0  0  0  0  0  0  0  0  0  0
   35.7780   30.8180   34.8260 C   0  0  0  0  0  0  0  0  0  0  0  0
   36.8020   31.0550   34.6830 H   0  0  0  0  0  0  0  0  0  0  0  0
   35.0450   31.3950   35.8420 C   0  0  0  0  0  0  0  0  0  0  0  0
   35.3880   32.2870   36.7890 N   0  0  0  0  0  0  0  0  0  0  0  0
   36.3370   32.7400   36.9420 H   0  0  0  0  0  0  0  0  0  0  0  0
   34.3350   32.5450   37.5480 N   0  0  0  0  0  0  0  0  0  0  0  0
   33.2700   31.8300   37.1240 C   0  0  0  0  0  0  0  0  0  0  0  0
   32.2540   31.7820   37.4950 H   0  0  0  0  0  0  0  0  0  0  0  0
   33.7130   31.0950   36.0380 C   0  0  0  0  0  0  0  0  0  0  0  0
   33.1270   30.1900   35.1770 C   0  0  0  0  0  3  0  0  0  0  0  0
   37.8530   25.8530   32.0920 S   0  0  0  0  0  0  0  0  0  0  0  0
   38.6260   23.4520   33.9400 Cl  0  0  0  0  0  0  0  0  0  0  0  0
   39.6440   24.8720   33.9500 C   0  0  0  0  0  0  0  0  0  0  0  0
   40.7410   24.8520   34.7820 C   0  0  0  0  0  0  0  0  0  0  0  0
   41.5600   25.9710   34.8020 C   0  0  0  0  0  0  0  0  0  0  0  0
   41.2670   27.0480   34.0140 C   0  0  0  0  0  0  0  0  0  0  0  0
   40.1400   27.0030   33.1940 C   0  0  0  0  0  0  0  0  0  0  0  0
   39.2910   25.9340   33.1250 C   0  0  0  0  0  0  0  0  0  0  0  0
   42.4260   25.9510   35.4610 H   0  0  0  0  0  0  0  0  0  0  0  0
   41.9120   27.9170   34.0360 H   0  0  0  0  0  0  0  0  0  0  0  0
   39.9270   27.8740   32.5750 H   0  0  0  0  0  0  0  0  0  0  0  0
   42.3570   21.8050   35.9620 C   0  0  0  0  0  0  0  0  0  0  0  0
   41.6270   21.4450   37.1090 C   0  0  0  0  0  0  0  0  0  0  0  0
   40.5650   22.2750   37.4690 C   0  0  0  0  0  0  0  0  0  0  0  0
   40.2900   23.3740   36.7060 N   0  0  0  0  0  0  0  0  0  0  0  0
   41.0240   23.6700   35.6170 C   0  0  0  0  0  0  0  0  0  0  0  0
   42.0420   22.8880   35.2590 N   0  0  0  0  0  0  0  0  0  0  0  0
   43.1710   21.1360   35.7200 H   0  0  0  0  0  0  0  0  0  0  0  0
   41.8070   20.5870   37.7440 H   0  0  0  0  0  0  0  0  0  0  0  0
   39.9130   22.1560   38.2990 H   0  0  0  0  0  0  0  0  0  0  0  0
  2  1  1  0  0  0  0
  3 23  1  0  0  0  0
  3  2  2  0  0  0  0
  4  3  1  0  0  0  0
  5  4  2  0  0  0  0
  5  6  1  0  0  0  0
  6  7  2  0  0  0  0
  7  2  1  0  0  0  0
  7 12  1  0  0  0  0
  8  4  1  0  0  0  0
  9  5  1  0  0  0  0
 10  6  1  0  0  0  0
 11 22  1  0  0  0  0
 12 11  2  0  0  0  0
 12 13  1  0  0  0  0
 13 15  2  0  0  0  0
 14 13  1  0  0  0  0
 15 21  1  0  0  0  0
 15 16  1  0  0  0  0
 16 17  1  0  0  0  0
 16 18  1  0  0  0  0
 19 20  1  0  0  0  0
 19 18  2  0  0  0  0
 21 19  1  0  0  0  0
 22 21  2  0  0  0  0
 23 30  1  0  0  0  0
 24 25  1  0  0  0  0
 25 26  1  0  0  0  0
 26 27  2  0  0  0  0
 26 38  1  0  0  0  0
 27 31  1  0  0  0  0
 28 32  1  0  0  0  0
 28 27  1  0  0  0  0
 29 28  2  0  0  0  0
 30 29  1  0  0  0  0
 30 25  2  0  0  0  0
 33 29  1  0  0  0  0
 34 35  1  0  0  0  0
 35 36  2  0  0  0  0
 35 41  1  0  0  0  0
 36 42  1  0  0  0  0
 37 36  1  0  0  0  0
 38 37  2  0  0  0  0
 39 38  1  0  0  0  0
 39 34  2  0  0  0  0
 40 34  1  0  0  0  0
M  END
>  <minimizedAffinity>
-6.81766462

$$$$

 OpenBabel03272505143D

 42 46  0  0  0  0  0  0  0  0999 V2000
   37.5540   27.9240   35.4670 Cl  0  0  0  0  0  0  0  0  0  0  0  0
   37.0640   27.9240   33.7850 C   0  0  0  0  0  0  0  0  0  0  0  0
   37.6650   27.1620   32.7780 C   0  0  0  0  0  0  0  0  0  0  0  0
   37.1980   27.2400   31.4910 C   0  0  0  0  0  0  0  0  0  0  0  0
   36.1500   28.0510   31.1730 C   0  0  0  0  0  0  0  0  0  0  0  0
   35.5110   28.8350   32.1400 C   0  0  0  0  0  0  0  0  0  0  0  0
   36.0000   28.7400   33.4340 C   0  0  0  0  0  0  0  0  0  0  0  0
   37.7240   26.6150   30.7740 H   0  0  0  0  0  0  0  0  0  0  0  0
   35.8270   28.0740   30.1590 H   0  0  0  0  0  0  0  0  0  0  0  0
   34.6900   29.4610   31.8530 H   0  0  0  0  0  0  0  0  0  0  0  0
   35.9950   30.6110   35.0110 C   0  0  0  0  0  3  0  0  0  0  0  0
   35.2890   29.5830   34.3890 C   0  0  0  0  0  0  0  0  0  0  0  0
   33.9610   29.4630   34.7420 C   0  0  0  0  0  0  0  0  0  0  0  0
   33.4060   28.6860   34.2800 H   0  0  0  0  0  0  0  0  0  0  0  0
   33.3770   30.3120   35.6590 C   0  0  0  0  0  0  0  0  0  0  0  0
   32.1220   30.3720   36.1410 N   0  0  0  0  0  0  0  0  0  0  0  0
   31.3010   29.7440   35.8950 H   0  0  0  0  0  0  0  0  0  0  0  0
   32.0350   31.3670   37.0090 N   0  0  0  0  0  0  0  0  0  0  0  0
   33.2280   31.9900   37.1230 C   0  0  0  0  0  0  0  0  0  0  0  0
   33.5340   32.8340   37.7290 H   0  0  0  0  0  0  0  0  0  0  0  0
   34.0890   31.3250   36.2670 C   0  0  0  0  0  0  0  0  0  0  0  0
   35.4190   31.4660   35.9290 C   0  0  0  0  0  3  0  0  0  0  0  0
   39.0260   26.1450   33.3370 S   0  0  0  0  0  0  0  0  0  0  0  0
   37.8940   23.8140   31.5870 Cl  0  0  0  0  0  0  0  0  0  0  0  0
   37.9600   23.5980   33.3200 C   0  0  0  0  0  0  0  0  0  0  0  0
   37.5050   22.3990   33.8210 C   0  0  0  0  0  0  0  0  0  0  0  0
   37.5500   22.2100   35.1940 C   0  0  0  0  0  0  0  0  0  0  0  0
   38.0360   23.1980   36.0040 C   0  0  0  0  0  0  0  0  0  0  0  0
   38.4820   24.3890   35.4320 C   0  0  0  0  0  0  0  0  0  0  0  0
   38.4650   24.6410   34.0880 C   0  0  0  0  0  0  0  0  0  0  0  0
   37.1890   21.2610   35.5870 H   0  0  0  0  0  0  0  0  0  0  0  0
   38.0680   23.0420   37.0750 H   0  0  0  0  0  0  0  0  0  0  0  0
   38.8640   25.1610   36.0990 H   0  0  0  0  0  0  0  0  0  0  0  0
   35.1400   20.4420   31.8550 C   0  0  0  0  0  0  0  0  0  0  0  0
   35.9310   19.4590   31.2350 C   0  0  0  0  0  0  0  0  0  0  0  0
   37.2990   19.4830   31.5080 C   0  0  0  0  0  0  0  0  0  0  0  0
   37.7940   20.4400   32.3470 N   0  0  0  0  0  0  0  0  0  0  0  0
   36.9880   21.3580   32.9130 C   0  0  0  0  0  0  0  0  0  0  0  0
   35.6790   21.3490   32.6630 N   0  0  0  0  0  0  0  0  0  0  0  0
   34.0860   20.3880   31.6150 H   0  0  0  0  0  0  0  0  0  0  0  0
   35.5860   18.6820   30.5650 H   0  0  0  0  0  0  0  0  0  0  0  0
   38.0390   18.8220   31.1300 H   0  0  0  0  0  0  0  0  0  0  0  0
  2  1  1  0  0  0  0
  3 23  1  0  0  0  0
  3  2  2  0  0  0  0
  4  3  1  0  0  0  0
  5  4  2  0  0  0  0
  5  6  1  0  0  0  0
  6  7  2  0  0  0  0
  7  2  1  0  0  0  0
  7 12  1  0  0  0  0
  8  4  1  0  0  0  0
  9  5  1  0  0  0  0
 10  6  1  0  0  0  0
 11 22  1  0  0  0  0
 12 13  1  0  0  0  0
 12 11  2  0  0  0  0
 13 15  2  0  0  0  0
 14 13  1  0  0  0  0
 15 16  1  0  0  0  0
 15 21  1  0  0  0  0
 16 18  1  0  0  0  0
 17 16  1  0  0  0  0
 18 19  2  0  0  0  0
 19 20  1  0  0  0  0
 21 19  1  0  0  0  0
 22 21  2  0  0  0  0
 23 30  1  0  0  0  0
 24 25  1  0  0  0  0
 25 26  2  0  0  0  0
 25 30  1  0  0  0  0
 26 27  1  0  0  0  0
 27 31  1  0  0  0  0
 27 28  2  0  0  0  0
 28 32  1  0  0  0  0
 29 28  1  0  0  0  0
 29 33  1  0  0  0  0
 30 29  2  0  0  0  0
 34 39  1  0  0  0  0
 35 36  1  0  0  0  0
 35 34  2  0  0  0  0
 36 37  2  0  0  0  0
 37 38  1  0  0  0  0
 38 26  1  0  0  0  0
 39 38  2  0  0  0  0
 40 34  1  0  0  0  0
 41 35  1  0  0  0  0
 42 36  1  0  0  0  0
M  END
>  <minimizedAffinity>
-6.63863277

$$$$

 OpenBabel03272505143D

 42 46  0  0  0  0  0  0  0  0999 V2000
   37.1960   28.0540   34.5450 Cl  0  0  0  0  0  0  0  0  0  0  0  0
   36.8780   28.5890   32.9080 C   0  0  0  0  0  0  0  0  0  0  0  0
   37.6290   28.2200   31.7870 C   0  0  0  0  0  0  0  0  0  0  0  0
   37.2900   28.7010   30.5490 C   0  0  0  0  0  0  0  0  0  0  0  0
   36.2250   29.5370   30.3880 C   0  0  0  0  0  0  0  0  0  0  0  0
   35.4390   29.9380   31.4740 C   0  0  0  0  0  0  0  0  0  0  0  0
   35.8010   29.4400   32.7160 C   0  0  0  0  0  0  0  0  0  0  0  0
   37.9260   28.3640   29.7350 H   0  0  0  0  0  0  0  0  0  0  0  0
   36.0040   29.8810   29.4050 H   0  0  0  0  0  0  0  0  0  0  0  0
   34.6100   30.5980   31.3100 H   0  0  0  0  0  0  0  0  0  0  0  0
   33.6710   29.3400   33.9140 C   0  0  0  0  0  3  0  0  0  0  0  0
   34.9410   29.9000   33.8010 C   0  0  0  0  0  0  0  0  0  0  0  0
   35.2680   30.8500   34.7460 C   0  0  0  0  0  0  0  0  0  0  0  0
   36.2320   31.2890   34.6770 H   0  0  0  0  0  0  0  0  0  0  0  0
   34.3830   31.2190   35.7380 C   0  0  0  0  0  0  0  0  0  0  0  0
   34.4940   32.1080   36.7420 N   0  0  0  0  0  0  0  0  0  0  0  0
   35.3250   32.7270   36.9720 H   0  0  0  0  0  0  0  0  0  0  0  0
   33.3720   32.1150   37.4430 N   0  0  0  0  0  0  0  0  0  0  0  0
   32.4930   31.2310   36.9230 C   0  0  0  0  0  0  0  0  0  0  0  0
   31.4870   30.9670   37.2270 H   0  0  0  0  0  0  0  0  0  0  0  0
   33.1280   30.6560   35.8370 C   0  0  0  0  0  0  0  0  0  0  0  0
   32.7780   29.7020   34.9030 C   0  0  0  0  0  3  0  0  0  0  0  0
   38.9940   27.1210   32.1440 S   0  0  0  0  0  0  0  0  0  0  0  0
   39.6650   26.2150   35.0610 Cl  0  0  0  0  0  0  0  0  0  0  0  0
   38.7330   25.1380   34.0480 C   0  0  0  0  0  0  0  0  0  0  0  0
   38.3420   23.9380   34.6000 C   0  0  0  0  0  0  0  0  0  0  0  0
   37.6020   23.0720   33.8100 C   0  0  0  0  0  0  0  0  0  0  0  0
   37.2810   23.4190   32.5280 C   0  0  0  0  0  0  0  0  0  0  0  0
   37.7080   24.6500   32.0300 C   0  0  0  0  0  0  0  0  0  0  0  0
   38.4400   25.5510   32.7530 C   0  0  0  0  0  0  0  0  0  0  0  0
   37.2950   22.1240   34.2490 H   0  0  0  0  0  0  0  0  0  0  0  0
   36.7030   22.7370   31.9180 H   0  0  0  0  0  0  0  0  0  0  0  0
   37.4410   24.9040   31.0050 H   0  0  0  0  0  0  0  0  0  0  0  0
   38.1280   23.6950   38.2300 C   0  0  0  0  0  0  0  0  0  0  0  0
   39.3010   23.0170   38.6040 C   0  0  0  0  0  0  0  0  0  0  0  0
   40.1700   22.6420   37.5790 C   0  0  0  0  0  0  0  0  0  0  0  0
   39.8460   22.9480   36.2880 N   0  0  0  0  0  0  0  0  0  0  0  0
   38.7080   23.6000   35.9880 C   0  0  0  0  0  0  0  0  0  0  0  0
   37.8670   23.9650   36.9550 N   0  0  0  0  0  0  0  0  0  0  0  0
   37.4830   23.9660   39.0560 H   0  0  0  0  0  0  0  0  0  0  0  0
   39.6000   22.7530   39.6110 H   0  0  0  0  0  0  0  0  0  0  0  0
   41.0930   22.1270   37.6780 H   0  0  0  0  0  0  0  0  0  0  0  0
  2  1  1  0  0  0  0
  3 23  1  0  0  0  0
  3  2  2  0  0  0  0
  4  3  1  0  0  0  0
  5  4  2  0  0  0  0
  5  6  1  0  0  0  0
  6  7  2  0  0  0  0
  7  2  1  0  0  0  0
  7 12  1  0  0  0  0
  8  4  1  0  0  0  0
  9  5  1  0  0  0  0
 10  6  1  0  0  0  0
 11 22  1  0  0  0  0
 12 11  2  0  0  0  0
 12 13  1  0  0  0  0
 13 15  2  0  0  0  0
 14 13  1  0  0  0  0
 15 21  1  0  0  0  0
 15 16  1  0  0  0  0
 16 17  1  0  0  0  0
 16 18  1  0  0  0  0
 19 20  1  0  0  0  0
 19 18  2  0  0  0  0
 21 19  1  0  0  0  0
 22 21  2  0  0  0  0
 23 30  1  0  0  0  0
 25 26  1  0  0  0  0
 25 24  1  0  0  0  0
 26 38  1  0  0  0  0
 27 31  1  0  0  0  0
 27 26  2  0  0  0  0
 28 27  1  0  0  0  0
 29 28  2  0  0  0  0
 29 30  1  0  0  0  0
 30 25  2  0  0  0  0
 32 28  1  0  0  0  0
 33 29  1  0  0  0  0
 34 35  1  0  0  0  0
 34 40  1  0  0  0  0
 35 41  1  0  0  0  0
 36 42  1  0  0  0  0
 36 35  2  0  0  0  0
 37 36  1  0  0  0  0
 38 37  2  0  0  0  0
 38 39  1  0  0  0  0
 39 34  2  0  0  0  0
M  END
>  <minimizedAffinity>
-6.62773895

$$$$

 OpenBabel03272505143D

 42 46  0  0  0  0  0  0  0  0999 V2000
   37.1940   28.0110   34.5350 Cl  0  0  0  0  0  0  0  0  0  0  0  0
   36.8650   28.5700   32.9080 C   0  0  0  0  0  0  0  0  0  0  0  0
   37.6060   28.2130   31.7760 C   0  0  0  0  0  0  0  0  0  0  0  0
   37.2580   28.7110   30.5470 C   0  0  0  0  0  0  0  0  0  0  0  0
   36.1950   29.5520   30.4060 C   0  0  0  0  0  0  0  0  0  0  0  0
   35.4190   29.9420   31.5030 C   0  0  0  0  0  0  0  0  0  0  0  0
   35.7890   29.4260   32.7350 C   0  0  0  0  0  0  0  0  0  0  0  0
   37.8870   28.3830   29.7240 H   0  0  0  0  0  0  0  0  0  0  0  0
   35.9670   29.9100   29.4290 H   0  0  0  0  0  0  0  0  0  0  0  0
   34.5900   30.6050   31.3540 H   0  0  0  0  0  0  0  0  0  0  0  0
   35.3810   30.9390   34.6150 C   0  0  0  0  0  3  0  0  0  0  0  0
   34.9390   29.8740   33.8330 C   0  0  0  0  0  0  0  0  0  0  0  0
   33.7160   29.3370   34.1800 C   0  0  0  0  0  0  0  0  0  0  0  0
   33.3610   28.5250   33.5970 H   0  0  0  0  0  0  0  0  0  0  0  0
   32.9840   29.8320   35.2400 C   0  0  0  0  0  0  0  0  0  0  0  0
   31.7900   29.4650   35.7420 N   0  0  0  0  0  0  0  0  0  0  0  0
   31.1540   28.6860   35.4030 H   0  0  0  0  0  0  0  0  0  0  0  0
   31.4950   30.2420   36.7720 N   0  0  0  0  0  0  0  0  0  0  0  0
   32.4830   31.1400   36.9760 C   0  0  0  0  0  0  0  0  0  0  0  0
   32.5880   31.9250   37.7160 H   0  0  0  0  0  0  0  0  0  0  0  0
   33.4350   30.8870   36.0050 C   0  0  0  0  0  0  0  0  0  0  0  0
   34.6560   31.4410   35.6770 C   0  0  0  0  0  3  0  0  0  0  0  0
   38.9700   27.1050   32.1080 S   0  0  0  0  0  0  0  0  0  0  0  0
   39.7200   26.1580   34.9920 Cl  0  0  0  0  0  0  0  0  0  0  0  0
   38.7450   25.1040   33.9970 C   0  0  0  0  0  0  0  0  0  0  0  0
   38.3580   23.9020   34.5480 C   0  0  0  0  0  0  0  0  0  0  0  0
   37.5830   23.0540   33.7720 C   0  0  0  0  0  0  0  0  0  0  0  0
   37.2270   23.4190   32.5040 C   0  0  0  0  0  0  0  0  0  0  0  0
   37.6520   24.6500   32.0070 C   0  0  0  0  0  0  0  0  0  0  0  0
   38.4170   25.5350   32.7170 C   0  0  0  0  0  0  0  0  0  0  0  0
   37.2790   22.1040   34.2100 H   0  0  0  0  0  0  0  0  0  0  0  0
   36.6220   22.7500   31.9060 H   0  0  0  0  0  0  0  0  0  0  0  0
   37.3560   24.9190   30.9940 H   0  0  0  0  0  0  0  0  0  0  0  0
   38.2420   23.6000   38.1780 C   0  0  0  0  0  0  0  0  0  0  0  0
   39.4290   22.9230   38.5100 C   0  0  0  0  0  0  0  0  0  0  0  0
   40.2720   22.5710   37.4550 C   0  0  0  0  0  0  0  0  0  0  0  0
   39.9120   22.8950   36.1790 N   0  0  0  0  0  0  0  0  0  0  0  0
   38.7630   23.5450   35.9200 C   0  0  0  0  0  0  0  0  0  0  0  0
   37.9450   23.8880   36.9150 N   0  0  0  0  0  0  0  0  0  0  0  0
   37.6180   23.8530   39.0250 H   0  0  0  0  0  0  0  0  0  0  0  0
   39.7560   22.6450   39.5040 H   0  0  0  0  0  0  0  0  0  0  0  0
   41.2010   22.0610   37.5220 H   0  0  0  0  0  0  0  0  0  0  0  0
  2  1  1  0  0  0  0
  3 23  1  0  0  0  0
  3  2  2  0  0  0  0
  4  3  1  0  0  0  0
  5  4  2  0  0  0  0
  5  6  1  0  0  0  0
  6  7  2  0  0  0  0
  7  2  1  0  0  0  0
  7 12  1  0  0  0  0
  8  4  1  0  0  0  0
  9  5  1  0  0  0  0
 10  6  1  0  0  0  0
 11 22  1  0  0  0  0
 12 13  1  0  0  0  0
 12 11  2  0  0  0  0
 13 15  2  0  0  0  0
 14 13  1  0  0  0  0
 15 16  1  0  0  0  0
 15 21  1  0  0  0  0
 16 18  1  0  0  0  0
 17 16  1  0  0  0  0
 18 19  2  0  0  0  0
 19 20  1  0  0  0  0
 21 19  1  0  0  0  0
 22 21  2  0  0  0  0
 23 30  1  0  0  0  0
 25 26  1  0  0  0  0
 25 24  1  0  0  0  0
 26 38  1  0  0  0  0
 27 31  1  0  0  0  0
 27 26  2  0  0  0  0
 28 27  1  0  0  0  0
 29 28  2  0  0  0  0
 29 30  1  0  0  0  0
 30 25  2  0  0  0  0
 32 28  1  0  0  0  0
 33 29  1  0  0  0  0
 34 35  1  0  0  0  0
 34 40  1  0  0  0  0
 35 41  1  0  0  0  0
 36 42  1  0  0  0  0
 36 35  2  0  0  0  0
 37 36  1  0  0  0  0
 38 37  2  0  0  0  0
 38 39  1  0  0  0  0
 39 34  2  0  0  0  0
M  END
>  <minimizedAffinity>
-6.4994154

$$$$

 OpenBabel03272505143D

 42 46  0  0  0  0  0  0  0  0999 V2000
   35.9610   25.2670   31.4030 Cl  0  0  0  0  0  0  0  0  0  0  0  0
   37.6260   25.7570   31.1590 C   0  0  0  0  0  0  0  0  0  0  0  0
   38.6600   24.9010   30.7660 C   0  0  0  0  0  0  0  0  0  0  0  0
   39.9300   25.3930   30.6050 C   0  0  0  0  0  0  0  0  0  0  0  0
   40.2040   26.7100   30.8210 C   0  0  0  0  0  0  0  0  0  0  0  0
   39.2090   27.6110   31.2140 C   0  0  0  0  0  0  0  0  0  0  0  0
   37.9330   27.0910   31.3710 C   0  0  0  0  0  0  0  0  0  0  0  0
   40.6700   24.6590   30.2980 H   0  0  0  0  0  0  0  0  0  0  0  0
   41.2070   27.0410   30.6810 H   0  0  0  0  0  0  0  0  0  0  0  0
   39.4620   28.6400   31.3750 H   0  0  0  0  0  0  0  0  0  0  0  0
   36.6160   28.1610   33.1340 C   0  0  0  0  0  3  0  0  0  0  0  0
   36.9460   28.0840   31.7830 C   0  0  0  0  0  0  0  0  0  0  0  0
   36.2960   28.9720   30.9520 C   0  0  0  0  0  0  0  0  0  0  0  0
   36.5330   28.9300   29.9180 H   0  0  0  0  0  0  0  0  0  0  0  0
   35.3750   29.8760   31.4380 C   0  0  0  0  0  0  0  0  0  0  0  0
   34.6380   30.8150   30.8160 N   0  0  0  0  0  0  0  0  0  0  0  0
   34.6230   31.0490   29.7810 H   0  0  0  0  0  0  0  0  0  0  0  0
   33.8900   31.4430   31.7090 N   0  0  0  0  0  0  0  0  0  0  0  0
   34.1140   30.9390   32.9420 C   0  0  0  0  0  0  0  0  0  0  0  0
   33.6900   31.2000   33.9040 H   0  0  0  0  0  0  0  0  0  0  0  0
   35.0580   29.9410   32.7790 C   0  0  0  0  0  0  0  0  0  0  0  0
   35.6960   29.0620   33.6310 C   0  0  0  0  0  3  0  0  0  0  0  0
   38.1570   23.2020   30.5180 S   0  0  0  0  0  0  0  0  0  0  0  0
   39.6150   23.6290   33.2510 Cl  0  0  0  0  0  0  0  0  0  0  0  0
   38.1630   22.6580   33.2250 C   0  0  0  0  0  0  0  0  0  0  0  0
   37.7390   22.1290   34.4240 C   0  0  0  0  0  0  0  0  0  0  0  0
   36.5880   21.3560   34.4210 C   0  0  0  0  0  0  0  0  0  0  0  0
   35.9120   21.1380   33.2530 C   0  0  0  0  0  0  0  0  0  0  0  0
   36.3960   21.7020   32.0730 C   0  0  0  0  0  0  0  0  0  0  0  0
   37.5230   22.4740   32.0040 C   0  0  0  0  0  0  0  0  0  0  0  0
   36.2560   20.9400   35.3710 H   0  0  0  0  0  0  0  0  0  0  0  0
   35.0150   20.5330   33.2600 H   0  0  0  0  0  0  0  0  0  0  0  0
   35.8400   21.5140   31.1550 H   0  0  0  0  0  0  0  0  0  0  0  0
   40.4370   22.0070   36.8720 C   0  0  0  0  0  0  0  0  0  0  0  0
   39.9810   22.8090   37.9330 C   0  0  0  0  0  0  0  0  0  0  0  0
   38.7230   23.3950   37.7890 C   0  0  0  0  0  0  0  0  0  0  0  0
   38.0090   23.1660   36.6480 N   0  0  0  0  0  0  0  0  0  0  0  0
   38.4960   22.3880   35.6630 C   0  0  0  0  0  0  0  0  0  0  0  0
   39.6950   21.8210   35.7840 N   0  0  0  0  0  0  0  0  0  0  0  0
   41.4160   21.5740   37.0250 H   0  0  0  0  0  0  0  0  0  0  0  0
   40.5090   23.0200   38.8540 H   0  0  0  0  0  0  0  0  0  0  0  0
   38.2270   24.0250   38.4850 H   0  0  0  0  0  0  0  0  0  0  0  0
  2  7  1  0  0  0  0
  2  1  1  0  0  0  0
  3  2  2  0  0  0  0
  4  3  1  0  0  0  0
  4  5  2  0  0  0  0
  5  6  1  0  0  0  0
  6  7  2  0  0  0  0
  6 10  1  0  0  0  0
  7 12  1  0  0  0  0
  8  4  1  0  0  0  0
  9  5  1  0  0  0  0
 11 22  1  0  0  0  0
 12 11  2  0  0  0  0
 13 15  2  0  0  0  0
 13 12  1  0  0  0  0
 14 13  1  0  0  0  0
 15 21  1  0  0  0  0
 16 15  1  0  0  0  0
 16 18  1  0  0  0  0
 17 16  1  0  0  0  0
 18 19  2  0  0  0  0
 19 20  1  0  0  0  0
 21 19  1  0  0  0  0
 21 22  2  0  0  0  0
 23  3  1  0  0  0  0
 23 30  1  0  0  0  0
 25 24  1  0  0  0  0
 25 26  1  0  0  0  0
 26 38  1  0  0  0  0
 27 26  2  0  0  0  0
 27 31  1  0  0  0  0
 28 32  1  0  0  0  0
 28 27  1  0  0  0  0
 29 28  2  0  0  0  0
 30 29  1  0  0  0  0
 30 25  2  0  0  0  0
 33 29  1  0  0  0  0
 34 40  1  0  0  0  0
 34 35  1  0  0  0  0
 35 41  1  0  0  0  0
 36 35  2  0  0  0  0
 36 42  1  0  0  0  0
 37 36  1  0  0  0  0
 38 39  1  0  0  0  0
 38 37  2  0  0  0  0
 39 34  2  0  0  0  0
M  END
>  <minimizedAffinity>
-6.48749208

$$$$

 OpenBabel03272505143D

 42 46  0  0  0  0  0  0  0  0999 V2000
   37.2660   27.8060   33.8490 Cl  0  0  0  0  0  0  0  0  0  0  0  0
   37.3190   28.2850   32.1650 C   0  0  0  0  0  0  0  0  0  0  0  0
   38.2930   27.8760   31.2490 C   0  0  0  0  0  0  0  0  0  0  0  0
   38.2370   28.3150   29.9500 C   0  0  0  0  0  0  0  0  0  0  0  0
   37.2420   29.1470   29.5330 C   0  0  0  0  0  0  0  0  0  0  0  0
   36.2410   29.5870   30.4060 C   0  0  0  0  0  0  0  0  0  0  0  0
   36.3180   29.1310   31.7140 C   0  0  0  0  0  0  0  0  0  0  0  0
   39.0330   27.9480   29.3080 H   0  0  0  0  0  0  0  0  0  0  0  0
   37.2440   29.4570   28.5150 H   0  0  0  0  0  0  0  0  0  0  0  0
   35.4740   30.2420   30.0430 H   0  0  0  0  0  0  0  0  0  0  0  0
   35.4820   30.7820   33.3150 C   0  0  0  0  0  3  0  0  0  0  0  0
   35.2460   29.6290   32.5680 C   0  0  0  0  0  0  0  0  0  0  0  0
   33.9960   29.0630   32.7120 C   0  0  0  0  0  0  0  0  0  0  0  0
   33.7960   28.1840   32.1520 H   0  0  0  0  0  0  0  0  0  0  0  0
   33.0460   29.6100   33.5490 C   0  0  0  0  0  0  0  0  0  0  0  0
   31.7880   29.2280   33.8340 N   0  0  0  0  0  0  0  0  0  0  0  0
   31.2610   28.3890   33.4520 H   0  0  0  0  0  0  0  0  0  0  0  0
   31.2610   30.0760   34.7020 N   0  0  0  0  0  0  0  0  0  0  0  0
   32.1550   31.0400   35.0120 C   0  0  0  0  0  0  0  0  0  0  0  0
   32.0800   31.8920   35.6770 H   0  0  0  0  0  0  0  0  0  0  0  0
   33.2950   30.7520   34.2820 C   0  0  0  0  0  0  0  0  0  0  0  0
   34.5380   31.3380   34.1540 C   0  0  0  0  0  3  0  0  0  0  0  0
   39.5360   26.7870   31.9320 S   0  0  0  0  0  0  0  0  0  0  0  0
   39.8940   26.0810   34.9570 Cl  0  0  0  0  0  0  0  0  0  0  0  0
   38.9790   24.9860   33.9490 C   0  0  0  0  0  0  0  0  0  0  0  0
   38.4620   23.8610   34.5530 C   0  0  0  0  0  0  0  0  0  0  0  0
   37.7330   22.9810   33.7670 C   0  0  0  0  0  0  0  0  0  0  0  0
   37.5470   23.2420   32.4390 C   0  0  0  0  0  0  0  0  0  0  0  0
   38.0980   24.4000   31.8900 C   0  0  0  0  0  0  0  0  0  0  0  0
   38.8270   25.3090   32.6060 C   0  0  0  0  0  0  0  0  0  0  0  0
   37.3260   22.0930   34.2480 H   0  0  0  0  0  0  0  0  0  0  0  0
   36.9770   22.5490   31.8330 H   0  0  0  0  0  0  0  0  0  0  0  0
   37.9360   24.5860   30.8290 H   0  0  0  0  0  0  0  0  0  0  0  0
   37.8980   23.8810   38.1540 C   0  0  0  0  0  0  0  0  0  0  0  0
   39.0110   23.2060   38.6850 C   0  0  0  0  0  0  0  0  0  0  0  0
   39.9630   22.7420   37.7760 C   0  0  0  0  0  0  0  0  0  0  0  0
   39.7710   22.9620   36.4420 N   0  0  0  0  0  0  0  0  0  0  0  0
   38.6850   23.6150   35.9900 C   0  0  0  0  0  0  0  0  0  0  0  0
   37.7660   24.0650   36.8440 N   0  0  0  0  0  0  0  0  0  0  0  0
   37.1850   24.2230   38.8920 H   0  0  0  0  0  0  0  0  0  0  0  0
   39.2060   23.0090   39.7310 H   0  0  0  0  0  0  0  0  0  0  0  0
   40.8570   22.2160   37.9990 H   0  0  0  0  0  0  0  0  0  0  0  0
  2  1  1  0  0  0  0
  3 23  1  0  0  0  0
  3  2  2  0  0  0  0
  4  3  1  0  0  0  0
  5  4  2  0  0  0  0
  5  6  1  0  0  0  0
  6  7  2  0  0  0  0
  7  2  1  0  0  0  0
  7 12  1  0  0  0  0
  8  4  1  0  0  0  0
  9  5  1  0  0  0  0
 10  6  1  0  0  0  0
 11 22  1  0  0  0  0
 12 13  1  0  0  0  0
 12 11  2  0  0  0  0
 13 15  2  0  0  0  0
 14 13  1  0  0  0  0
 15 16  1  0  0  0  0
 15 21  1  0  0  0  0
 16 18  1  0  0  0  0
 17 16  1  0  0  0  0
 18 19  2  0  0  0  0
 19 20  1  0  0  0  0
 21 19  1  0  0  0  0
 22 21  2  0  0  0  0
 23 30  1  0  0  0  0
 25 26  1  0  0  0  0
 25 24  1  0  0  0  0
 26 38  1  0  0  0  0
 27 31  1  0  0  0  0
 27 26  2  0  0  0  0
 28 27  1  0  0  0  0
 29 28  2  0  0  0  0
 29 30  1  0  0  0  0
 30 25  2  0  0  0  0
 32 28  1  0  0  0  0
 33 29  1  0  0  0  0
 34 35  1  0  0  0  0
 34 40  1  0  0  0  0
 35 41  1  0  0  0  0
 36 42  1  0  0  0  0
 36 35  2  0  0  0  0
 37 36  1  0  0  0  0
 38 37  2  0  0  0  0
 38 39  1  0  0  0  0
 39 34  2  0  0  0  0
M  END
>  <minimizedAffinity>
-6.38062191

$$$$

 OpenBabel03272505143D

 42 46  0  0  0  0  0  0  0  0999 V2000
   38.7320   24.1890   32.7760 Cl  0  0  0  0  0  0  0  0  0  0  0  0
   38.3330   25.5320   33.8280 C   0  0  0  0  0  0  0  0  0  0  0  0
   37.4340   26.5550   33.5110 C   0  0  0  0  0  0  0  0  0  0  0  0
   37.1970   27.5600   34.4120 C   0  0  0  0  0  0  0  0  0  0  0  0
   37.8250   27.5810   35.6220 C   0  0  0  0  0  0  0  0  0  0  0  0
   38.7330   26.5830   35.9920 C   0  0  0  0  0  0  0  0  0  0  0  0
   38.9570   25.5770   35.0640 C   0  0  0  0  0  0  0  0  0  0  0  0
   36.4850   28.3120   34.0840 H   0  0  0  0  0  0  0  0  0  0  0  0
   37.6040   28.3840   36.2850 H   0  0  0  0  0  0  0  0  0  0  0  0
   39.2090   26.6330   36.9510 H   0  0  0  0  0  0  0  0  0  0  0  0
   41.2080   24.6190   34.9970 C   0  0  0  0  0  3  0  0  0  0  0  0
   39.9150   24.5730   35.5150 C   0  0  0  0  0  0  0  0  0  0  0  0
   39.6630   23.5640   36.4210 C   0  0  0  0  0  0  0  0  0  0  0  0
   38.6840   23.5110   36.8270 H   0  0  0  0  0  0  0  0  0  0  0  0
   40.6390   22.6580   36.7840 C   0  0  0  0  0  0  0  0  0  0  0  0
   40.6100   21.6150   37.6340 N   0  0  0  0  0  0  0  0  0  0  0  0
   39.7890   21.2720   38.2140 H   0  0  0  0  0  0  0  0  0  0  0  0
   41.8000   21.0370   37.6540 N   0  0  0  0  0  0  0  0  0  0  0  0
   42.6450   21.6830   36.8210 C   0  0  0  0  0  0  0  0  0  0  0  0
   43.6850   21.4980   36.5820 H   0  0  0  0  0  0  0  0  0  0  0  0
   41.9140   22.7170   36.2630 C   0  0  0  0  0  0  0  0  0  0  0  0
   42.1900   23.7180   35.3550 C   0  0  0  0  0  3  0  0  0  0  0  0
   36.6830   26.4010   31.8940 S   0  0  0  0  0  0  0  0  0  0  0  0
   39.1750   26.2630   30.0100 Cl  0  0  0  0  0  0  0  0  0  0  0  0
   38.2010   27.7140   29.9970 C   0  0  0  0  0  0  0  0  0  0  0  0
   38.5910   28.7250   29.1480 C   0  0  0  0  0  0  0  0  0  0  0  0
   37.8290   29.8830   29.1250 C   0  0  0  0  0  0  0  0  0  0  0  0
   36.7290   29.9940   29.9280 C   0  0  0  0  0  0  0  0  0  0  0  0
   36.3890   28.9330   30.7660 C   0  0  0  0  0  0  0  0  0  0  0  0
   37.0950   27.7640   30.8390 C   0  0  0  0  0  0  0  0  0  0  0  0
   38.1410   30.6800   28.4520 H   0  0  0  0  0  0  0  0  0  0  0  0
   36.1400   30.9020   29.9040 H   0  0  0  0  0  0  0  0  0  0  0  0
   35.5080   29.0460   31.3970 H   0  0  0  0  0  0  0  0  0  0  0  0
   40.6490   27.8150   26.2800 C   0  0  0  0  0  0  0  0  0  0  0  0
   41.9460   28.2240   26.6370 C   0  0  0  0  0  0  0  0  0  0  0  0
   42.0980   28.8220   27.8890 C   0  0  0  0  0  0  0  0  0  0  0  0
   41.0030   28.9770   28.6900 N   0  0  0  0  0  0  0  0  0  0  0  0
   39.7840   28.5650   28.2960 C   0  0  0  0  0  0  0  0  0  0  0  0
   39.6210   27.9920   27.1040 N   0  0  0  0  0  0  0  0  0  0  0  0
   40.5760   27.3570   25.3020 H   0  0  0  0  0  0  0  0  0  0  0  0
   42.8410   28.1230   26.0380 H   0  0  0  0  0  0  0  0  0  0  0  0
   42.9980   29.1880   28.3170 H   0  0  0  0  0  0  0  0  0  0  0  0
  1  2  1  0  0  0  0
  2  7  1  0  0  0  0
  3  2  2  0  0  0  0
  3  4  1  0  0  0  0
  4  5  2  0  0  0  0
  5  6  1  0  0  0  0
  5  9  1  0  0  0  0
  6 10  1  0  0  0  0
  7 12  1  0  0  0  0
  7  6  2  0  0  0  0
  8  4  1  0  0  0  0
 11 22  2  0  0  0  0
 11 12  1  0  0  0  0
 12 13  2  0  0  0  0
 13 15  1  0  0  0  0
 13 14  1  0  0  0  0
 15 16  1  0  0  0  0
 16 18  1  0  0  0  0
 16 17  1  0  0  0  0
 19 18  2  0  0  0  0
 20 19  1  0  0  0  0
 21 15  2  0  0  0  0
 21 19  1  0  0  0  0
 22 21  1  0  0  0  0
 23  3  1  0  0  0  0
 25 24  1  0  0  0  0
 25 30  1  0  0  0  0
 26 25  2  0  0  0  0
 27 26  1  0  0  0  0
 27 28  2  0  0  0  0
 28 29  1  0  0  0  0
 29 30  2  0  0  0  0
 29 33  1  0  0  0  0
 30 23  1  0  0  0  0
 31 27  1  0  0  0  0
 32 28  1  0  0  0  0
 34 35  2  0  0  0  0
 34 39  1  0  0  0  0
 35 36  1  0  0  0  0
 36 42  1  0  0  0  0
 36 37  2  0  0  0  0
 38 37  1  0  0  0  0
 38 26  1  0  0  0  0
 39 38  2  0  0  0  0
 40 34  1  0  0  0  0
 41 35  1  0  0  0  0
M  END
>  <minimizedAffinity>
-6.33656168

$$$$

 OpenBabel03272505143D

 42 46  0  0  0  0  0  0  0  0999 V2000
   36.7200   27.4510   34.5610 Cl  0  0  0  0  0  0  0  0  0  0  0  0
   36.7430   28.2420   32.9980 C   0  0  0  0  0  0  0  0  0  0  0  0
   37.4570   27.7880   31.8840 C   0  0  0  0  0  0  0  0  0  0  0  0
   37.4030   28.4890   30.7060 C   0  0  0  0  0  0  0  0  0  0  0  0
   36.6600   29.6260   30.6000 C   0  0  0  0  0  0  0  0  0  0  0  0
   35.9260   30.1250   31.6810 C   0  0  0  0  0  0  0  0  0  0  0  0
   35.9960   29.4010   32.8620 C   0  0  0  0  0  0  0  0  0  0  0  0
   37.9870   28.0650   29.8940 H   0  0  0  0  0  0  0  0  0  0  0  0
   36.6520   30.1310   29.6630 H   0  0  0  0  0  0  0  0  0  0  0  0
   35.3530   31.0230   31.5610 H   0  0  0  0  0  0  0  0  0  0  0  0
   33.8640   29.6270   34.0410 C   0  0  0  0  0  3  0  0  0  0  0  0
   35.2090   29.9780   33.9460 C   0  0  0  0  0  0  0  0  0  0  0  0
   35.6740   30.8520   34.9080 C   0  0  0  0  0  0  0  0  0  0  0  0
   36.6960   31.1320   34.8530 H   0  0  0  0  0  0  0  0  0  0  0  0
   34.8490   31.3440   35.8970 C   0  0  0  0  0  0  0  0  0  0  0  0
   35.0900   32.1910   36.9150 N   0  0  0  0  0  0  0  0  0  0  0  0
   36.0070   32.6660   37.1610 H   0  0  0  0  0  0  0  0  0  0  0  0
   33.9760   32.3680   37.6070 N   0  0  0  0  0  0  0  0  0  0  0  0
   32.9720   31.6430   37.0670 C   0  0  0  0  0  0  0  0  0  0  0  0
   31.9340   31.5390   37.3590 H   0  0  0  0  0  0  0  0  0  0  0  0
   33.5190   30.9880   35.9780 C   0  0  0  0  0  0  0  0  0  0  0  0
   33.0310   30.1140   35.0280 C   0  0  0  0  0  3  0  0  0  0  0  0
   38.3860   26.2860   32.1660 S   0  0  0  0  0  0  0  0  0  0  0  0
   39.7980   23.5440   31.6530 Cl  0  0  0  0  0  0  0  0  0  0  0  0
   38.0540   23.6130   31.5610 C   0  0  0  0  0  0  0  0  0  0  0  0
   37.3940   22.4420   31.2630 C   0  0  0  0  0  0  0  0  0  0  0  0
   36.0100   22.4790   31.1860 C   0  0  0  0  0  0  0  0  0  0  0  0
   35.3440   23.6520   31.4020 C   0  0  0  0  0  0  0  0  0  0  0  0
   36.0730   24.8030   31.6980 C   0  0  0  0  0  0  0  0  0  0  0  0
   37.4370   24.8380   31.7900 C   0  0  0  0  0  0  0  0  0  0  0  0
   35.4920   21.5510   30.9500 H   0  0  0  0  0  0  0  0  0  0  0  0
   34.2640   23.6720   31.3390 H   0  0  0  0  0  0  0  0  0  0  0  0
   35.5200   25.7260   31.8660 H   0  0  0  0  0  0  0  0  0  0  0  0
   39.1720   19.7910   29.5020 C   0  0  0  0  0  0  0  0  0  0  0  0
   39.5570   18.8960   30.5160 C   0  0  0  0  0  0  0  0  0  0  0  0
   39.1910   19.2240   31.8220 C   0  0  0  0  0  0  0  0  0  0  0  0
   38.4910   20.3750   32.0480 N   0  0  0  0  0  0  0  0  0  0  0  0
   38.1500   21.1950   31.0380 C   0  0  0  0  0  0  0  0  0  0  0  0
   38.4910   20.8970   29.7840 N   0  0  0  0  0  0  0  0  0  0  0  0
   39.4760   19.4990   28.5060 H   0  0  0  0  0  0  0  0  0  0  0  0
   40.1100   17.9750   30.3860 H   0  0  0  0  0  0  0  0  0  0  0  0
   39.3970   18.6680   32.7020 H   0  0  0  0  0  0  0  0  0  0  0  0
  2  1  1  0  0  0  0
  3 23  1  0  0  0  0
  3  2  2  0  0  0  0
  4  3  1  0  0  0  0
  5  4  2  0  0  0  0
  5  6  1  0  0  0  0
  6  7  2  0  0  0  0
  7  2  1  0  0  0  0
  7 12  1  0  0  0  0
  8  4  1  0  0  0  0
  9  5  1  0  0  0  0
 10  6  1  0  0  0  0
 11 22  1  0  0  0  0
 12 11  2  0  0  0  0
 12 13  1  0  0  0  0
 13 15  2  0  0  0  0
 14 13  1  0  0  0  0
 15 21  1  0  0  0  0
 15 16  1  0  0  0  0
 16 17  1  0  0  0  0
 16 18  1  0  0  0  0
 19 20  1  0  0  0  0
 19 18  2  0  0  0  0
 21 19  1  0  0  0  0
 22 21  2  0  0  0  0
 25 24  1  0  0  0  0
 25 30  1  0  0  0  0
 26 25  2  0  0  0  0
 27 26  1  0  0  0  0
 27 28  2  0  0  0  0
 28 29  1  0  0  0  0
 29 30  2  0  0  0  0
 29 33  1  0  0  0  0
 30 23  1  0  0  0  0
 31 27  1  0  0  0  0
 32 28  1  0  0  0  0
 34 39  2  0  0  0  0
 34 35  1  0  0  0  0
 35 36  2  0  0  0  0
 36 37  1  0  0  0  0
 36 42  1  0  0  0  0
 38 26  1  0  0  0  0
 38 37  2  0  0  0  0
 39 38  1  0  0  0  0
 40 34  1  0  0  0  0
 41 35  1  0  0  0  0
M  END
>  <minimizedAffinity>
-6.31685495

$$$$
