
 OpenBabel03272508113D

 37 40  0  0  0  0  0  0  0  0999 V2000
   36.7070   29.4320   44.0510 Cl  0  0  0  0  0  0  0  0  0  0  0  0
   38.3710   29.8170   43.5520 C   0  0  0  0  0  0  0  0  0  0  0  0
   39.3350   30.3170   44.4100 C   0  0  0  0  0  0  0  0  0  0  0  0
   40.5940   30.5740   43.8900 C   0  0  0  0  0  0  0  0  0  0  0  0
   40.8700   30.3410   42.5670 C   0  0  0  0  0  0  0  0  0  0  0  0
   39.9250   29.8470   41.7070 C   0  0  0  0  0  0  0  0  0  0  0  0
   38.6760   29.5870   42.2060 C   0  0  0  0  0  0  0  0  0  0  0  0
   41.2880   30.9610   44.6200 H   0  0  0  0  0  0  0  0  0  0  0  0
   41.8730   30.5640   42.2280 H   0  0  0  0  0  0  0  0  0  0  0  0
   40.2000   29.6830   40.6720 H   0  0  0  0  0  0  0  0  0  0  0  0
   36.9900   30.0200   40.5180 C   0  0  0  0  0  3  0  0  0  0  0  0
   37.7020   29.0600   41.2480 C   0  0  0  0  0  0  0  0  0  0  0  0
   37.3970   27.7440   40.9710 C   0  0  0  0  0  0  0  0  0  0  0  0
   37.9640   27.0320   41.5500 H   0  0  0  0  0  0  0  0  0  0  0  0
   36.4410   27.4500   40.0240 C   0  0  0  0  0  0  0  0  0  0  0  0
   35.9900   26.2530   39.6000 N   0  0  0  0  0  0  0  0  0  0  0  0
   36.3190   25.3240   39.9480 H   0  0  0  0  0  0  0  0  0  0  0  0
   35.0740   26.4350   38.6840 N   0  0  0  0  0  0  0  0  0  0  0  0
   34.8830   27.7640   38.4650 C   0  0  0  0  0  0  0  0  0  0  0  0
   34.2000   28.2440   37.7740 H   0  0  0  0  0  0  0  0  0  0  0  0
   35.7560   28.4170   39.3210 C   0  0  0  0  0  0  0  0  0  0  0  0
   36.0300   29.7440   39.5660 C   0  0  0  0  0  3  0  0  0  0  0  0
   38.8720   30.4790   45.6790 O   0  0  0  0  0  0  0  0  0  0  0  0
   39.4440   32.5430   47.1270 O   0  0  0  0  0  0  0  0  0  0  0  0
   38.3100   31.8590   46.4480 P   0  0  1  0  0  0  0  0  0  0  0  0
   37.7110   32.8450   45.1830 O   0  0  0  0  0  0  0  0  0  0  0  0
   38.4660   33.2120   44.6590 H   0  0  0  0  0  0  0  0  0  0  0  0
   37.0220   31.4530   47.4790 O   0  0  0  0  0  0  0  0  0  0  0  0
   37.6130   30.5200   51.0020 C   0  0  0  0  0  0  0  0  0  0  0  0
   37.7030   31.3100   49.8550 C   0  0  0  0  0  0  0  0  0  0  0  0
   37.0780   30.8760   48.6960 C   0  0  0  0  0  0  0  0  0  0  0  0
   36.3980   29.6780   48.7470 N   0  0  0  0  0  0  0  0  0  0  0  0
   36.3390   28.9470   49.8780 C   0  0  0  0  0  0  0  0  0  0  0  0
   36.9420   29.3670   50.9980 N   0  0  0  0  0  0  0  0  0  0  0  0
   38.1430   30.9670   51.8440 H   0  0  0  0  0  0  0  0  0  0  0  0
   38.2130   32.2500   49.7470 H   0  0  0  0  0  0  0  0  0  0  0  0
   35.8040   28.0060   49.9130 H   0  0  0  0  0  0  0  0  0  0  0  0
  2  1  1  0  0  0  0
  2  3  1  0  0  0  0
  3 23  1  0  0  0  0
  4  3  2  0  0  0  0
  4  8  1  0  0  0  0
  5  4  1  0  0  0  0
  6  7  1  0  0  0  0
  6  5  2  0  0  0  0
  7  2  2  0  0  0  0
  9  5  1  0  0  0  0
 10  6  1  0  0  0  0
 11 12  1  0  0  0  0
 12  7  1  0  0  0  0
 13 12  2  0  0  0  0
 13 14  1  0  0  0  0
 15 13  1  0  0  0  0
 16 17  1  0  0  0  0
 16 15  1  0  0  0  0
 18 16  1  0  0  0  0
 19 18  2  0  0  0  0
 19 21  1  0  0  0  0
 20 19  1  0  0  0  0
 21 22  1  0  0  0  0
 21 15  2  0  0  0  0
 22 11  2  0  0  0  0
 23 25  1  0  0  0  0
 25 24  2  1  0  0  0
 25 28  1  0  0  0  0
 26 25  1  0  0  0  0
 27 26  1  0  0  0  0
 28 31  1  0  0  0  0
 29 35  1  0  0  0  0
 30 29  2  0  0  0  0
 31 32  2  0  0  0  0
 31 30  1  0  0  0  0
 32 33  1  0  0  0  0
 33 37  1  0  0  0  0
 33 34  2  0  0  0  0
 34 29  1  0  0  0  0
 36 30  1  0  0  0  0
M  END
>  <minimizedAffinity>
-4.81478024

>  <minimizedRMSD>
0.808366776

$$$$
