
 OpenBabel03262523523D

 39 42  0  0  1  0  0  0  0  0999 V2000
   38.9030   25.7490   34.3420 N   0  0  0  0  0  0  0  0  0  0  0  0
   40.0890   26.3130   34.8890 C   0  0  0  0  0  0  0  0  0  0  0  0
   40.8170   27.1550   33.9100 C   0  0  0  0  0  0  0  0  0  0  0  0
   40.9360   26.3710   32.6110 C   0  0  0  0  0  0  0  0  0  0  0  0
   39.5630   26.3900   32.0250 C   0  0  0  0  0  0  0  0  0  0  0  0
   38.5230   26.2540   33.0630 C   0  0  2  0  0  0  0  0  0  0  0  0
   40.7670   25.4360   35.1110 H   0  0  0  0  0  0  0  0  0  0  0  0
   39.9540   26.7840   35.8850 H   0  0  0  0  0  0  0  0  0  0  0  0
   41.8830   27.2190   34.2860 H   0  0  0  0  0  0  0  0  0  0  0  0
   40.4950   28.1760   33.7660 H   0  0  0  0  0  0  0  0  0  0  0  0
   41.2600   25.3390   32.9050 H   0  0  0  0  0  0  0  0  0  0  0  0
   41.7200   26.7670   31.9570 H   0  0  0  0  0  0  0  0  0  0  0  0
   39.5480   25.6940   31.1870 H   0  0  0  0  0  0  0  0  0  0  0  0
   39.4290   27.4090   31.5570 H   0  0  0  0  0  0  0  0  0  0  0  0
   37.8880   25.3870   32.6700 H   0  0  0  0  0  0  0  0  0  0  0  0
   36.8680   27.7720   34.2410 C   0  0  0  0  0  3  0  0  0  0  0  0
   37.5190   27.3560   33.0980 C   0  0  0  0  0  0  0  0  0  0  0  0
   37.1530   28.0740   31.9500 C   0  0  0  0  0  0  0  0  0  0  0  0
   37.6540   27.7690   31.0180 H   0  0  0  0  0  0  0  0  0  0  0  0
   36.2310   29.1010   31.9450 C   0  0  0  0  0  0  0  0  0  0  0  0
   35.7620   29.8910   30.9620 N   0  0  0  0  0  0  0  0  0  0  0  0
   36.0450   29.8460   29.9580 H   0  0  0  0  0  0  0  0  0  0  0  0
   34.8830   30.7230   31.5010 N   0  0  0  0  0  0  0  0  0  0  0  0
   34.7760   30.4840   32.8230 C   0  0  0  0  0  0  0  0  0  0  0  0
   34.1700   30.9550   33.5780 H   0  0  0  0  0  0  0  0  0  0  0  0
   35.6270   29.4570   33.1170 C   0  0  0  0  0  0  0  0  0  0  0  0
   35.9410   28.7910   34.2830 C   0  0  0  0  0  3  0  0  0  0  0  0
   38.7470   24.3560   34.5340 C   0  0  0  0  0  0  0  0  0  0  0  0
   37.7740   24.0180   34.1450 H   0  0  0  0  0  0  0  0  0  0  0  0
   39.5690   23.8370   33.9730 H   0  0  0  0  0  0  0  0  0  0  0  0
   38.8330   23.9820   35.9550 C   0  0  0  0  0  0  0  0  0  0  0  0
   37.8620   24.4850   36.8060 C   0  0  0  0  0  0  0  0  0  0  0  0
   37.8780   24.1710   38.1810 C   0  0  0  0  0  0  0  0  0  0  0  0
   38.8920   23.3550   38.6030 N   0  0  0  0  0  0  0  0  0  0  0  0
   39.8180   22.8800   37.7650 C   0  0  0  0  0  0  0  0  0  0  0  0
   39.7800   23.1920   36.4740 N   0  0  0  0  0  0  0  0  0  0  0  0
   37.0640   25.1330   36.4470 H   0  0  0  0  0  0  0  0  0  0  0  0
   37.1100   24.5760   38.8270 H   0  0  0  0  0  0  0  0  0  0  0  0
   40.5780   22.2410   38.2060 H   0  0  0  0  0  0  0  0  0  0  0  0
  1 28  1  0  0  0  0
  1  2  1  0  0  0  0
  2  7  1  0  0  0  0
  2  8  1  0  0  0  0
  3  9  1  0  0  0  0
  3  2  1  0  0  0  0
  4 11  1  0  0  0  0
  4  3  1  0  0  0  0
  5  4  1  0  0  0  0
  5  6  1  0  0  0  0
  6 15  1  6  0  0  0
  6 17  1  0  0  0  0
  6  1  1  0  0  0  0
 10  3  1  0  0  0  0
 12  4  1  0  0  0  0
 13  5  1  0  0  0  0
 14  5  1  0  0  0  0
 16 27  1  0  0  0  0
 17 16  2  0  0  0  0
 18 17  1  0  0  0  0
 19 18  1  0  0  0  0
 20 18  2  0  0  0  0
 20 26  1  0  0  0  0
 21 23  1  0  0  0  0
 21 20  1  0  0  0  0
 22 21  1  0  0  0  0
 23 24  2  0  0  0  0
 24 26  1  0  0  0  0
 24 25  1  0  0  0  0
 26 27  2  0  0  0  0
 28 31  1  0  0  0  0
 29 28  1  0  0  0  0
 30 28  1  0  0  0  0
 31 36  2  0  0  0  0
 31 32  1  0  0  0  0
 32 33  2  0  0  0  0
 33 34  1  0  0  0  0
 33 38  1  0  0  0  0
 35 39  1  0  0  0  0
 35 34  2  0  0  0  0
 36 35  1  0  0  0  0
 37 32  1  0  0  0  0
M  END
>  <minimizedAffinity>
-5.66402912

$$$$

 OpenBabel03262523523D

 39 42  0  0  1  0  0  0  0  0999 V2000
   38.6100   25.4520   33.7790 N   0  0  0  0  0  0  0  0  0  0  0  0
   39.2670   26.7140   33.8130 C   0  0  0  0  0  0  0  0  0  0  0  0
   39.5240   27.1780   35.1970 C   0  0  0  0  0  0  0  0  0  0  0  0
   38.2350   27.0260   35.9920 C   0  0  0  0  0  0  0  0  0  0  0  0
   38.0950   25.5560   36.2160 C   0  0  0  0  0  0  0  0  0  0  0  0
   38.5180   24.7800   35.0330 C   0  0  2  0  0  0  0  0  0  0  0  0
   38.5320   27.4500   33.3690 H   0  0  0  0  0  0  0  0  0  0  0  0
   40.1420   26.7930   33.1350 H   0  0  0  0  0  0  0  0  0  0  0  0
   39.6670   28.3000   35.1280 H   0  0  0  0  0  0  0  0  0  0  0  0
   40.3930   26.8040   35.7150 H   0  0  0  0  0  0  0  0  0  0  0  0
   37.4210   27.4360   35.3400 H   0  0  0  0  0  0  0  0  0  0  0  0
   38.2360   27.6300   36.9050 H   0  0  0  0  0  0  0  0  0  0  0  0
   37.1010   25.3730   36.6230 H   0  0  0  0  0  0  0  0  0  0  0  0
   38.8050   25.2910   37.0530 H   0  0  0  0  0  0  0  0  0  0  0  0
   37.6180   24.0980   34.8460 H   0  0  0  0  0  0  0  0  0  0  0  0
   40.5450   23.4140   34.3580 C   0  0  0  0  0  3  0  0  0  0  0  0
   39.5930   23.7780   35.2870 C   0  0  0  0  0  0  0  0  0  0  0  0
   39.7260   23.1170   36.5170 C   0  0  0  0  0  0  0  0  0  0  0  0
   38.9830   23.3840   37.2840 H   0  0  0  0  0  0  0  0  0  0  0  0
   40.7090   22.1880   36.7890 C   0  0  0  0  0  0  0  0  0  0  0  0
   40.9910   21.4640   37.8880 N   0  0  0  0  0  0  0  0  0  0  0  0
   40.4630   21.4940   38.7880 H   0  0  0  0  0  0  0  0  0  0  0  0
   42.0510   20.7170   37.6160 N   0  0  0  0  0  0  0  0  0  0  0  0
   42.4620   20.9460   36.3530 C   0  0  0  0  0  0  0  0  0  0  0  0
   43.2790   20.5280   35.7900 H   0  0  0  0  0  0  0  0  0  0  0  0
   41.6180   21.8780   35.8170 C   0  0  0  0  0  0  0  0  0  0  0  0
   41.5430   22.4920   34.5860 C   0  0  0  0  0  3  0  0  0  0  0  0
   37.4670   25.3840   32.9480 C   0  0  0  0  0  0  0  0  0  0  0  0
   37.5440   24.5350   32.2520 H   0  0  0  0  0  0  0  0  0  0  0  0
   36.5700   25.2390   33.6090 H   0  0  0  0  0  0  0  0  0  0  0  0
   37.2820   26.6130   32.1600 C   0  0  0  0  0  0  0  0  0  0  0  0
   36.4600   27.5930   32.6930 C   0  0  0  0  0  0  0  0  0  0  0  0
   36.2340   28.7990   31.9960 C   0  0  0  0  0  0  0  0  0  0  0  0
   36.8670   28.9280   30.7900 N   0  0  0  0  0  0  0  0  0  0  0  0
   37.6560   27.9700   30.2950 C   0  0  0  0  0  0  0  0  0  0  0  0
   37.8520   26.8440   30.9720 N   0  0  0  0  0  0  0  0  0  0  0  0
   35.9660   27.4690   33.6550 H   0  0  0  0  0  0  0  0  0  0  0  0
   35.5880   29.5510   32.4310 H   0  0  0  0  0  0  0  0  0  0  0  0
   38.1100   28.1760   29.3290 H   0  0  0  0  0  0  0  0  0  0  0  0
  1  2  1  0  0  0  0
  1  6  1  0  0  0  0
  2  3  1  0  0  0  0
  3 10  1  0  0  0  0
  3  4  1  0  0  0  0
  4  5  1  0  0  0  0
  4 12  1  0  0  0  0
  5 13  1  0  0  0  0
  5 14  1  0  0  0  0
  6 15  1  6  0  0  0
  6 17  1  0  0  0  0
  6  5  1  0  0  0  0
  7  2  1  0  0  0  0
  8  2  1  0  0  0  0
  9  3  1  0  0  0  0
 11  4  1  0  0  0  0
 16 27  2  0  0  0  0
 16 17  1  0  0  0  0
 17 18  2  0  0  0  0
 18 20  1  0  0  0  0
 18 19  1  0  0  0  0
 20 21  1  0  0  0  0
 21 22  1  0  0  0  0
 23 21  1  0  0  0  0
 24 23  2  0  0  0  0
 25 24  1  0  0  0  0
 26 24  1  0  0  0  0
 26 20  2  0  0  0  0
 27 26  1  0  0  0  0
 28 30  1  0  0  0  0
 28  1  1  0  0  0  0
 29 28  1  0  0  0  0
 31 32  1  0  0  0  0
 31 28  1  0  0  0  0
 32 37  1  0  0  0  0
 33 38  1  0  0  0  0
 33 32  2  0  0  0  0
 34 33  1  0  0  0  0
 35 34  2  0  0  0  0
 35 36  1  0  0  0  0
 36 31  2  0  0  0  0
 39 35  1  0  0  0  0
M  END
>  <minimizedAffinity>
-5.56094217

$$$$

 OpenBabel03262523523D

 39 42  0  0  1  0  0  0  0  0999 V2000
   37.8350   22.8740   35.1670 N   0  0  0  0  0  0  0  0  0  0  0  0
   37.4520   22.6160   36.5130 C   0  0  0  0  0  0  0  0  0  0  0  0
   38.2550   23.3940   37.4860 C   0  0  0  0  0  0  0  0  0  0  0  0
   39.7240   23.2330   37.1210 C   0  0  0  0  0  0  0  0  0  0  0  0
   39.9060   24.0590   35.8900 C   0  0  0  0  0  0  0  0  0  0  0  0
   38.7410   23.9610   34.9890 C   0  0  2  0  0  0  0  0  0  0  0  0
   37.7060   21.5300   36.6970 H   0  0  0  0  0  0  0  0  0  0  0  0
   36.3570   22.6530   36.6920 H   0  0  0  0  0  0  0  0  0  0  0  0
   38.1610   22.8490   38.4740 H   0  0  0  0  0  0  0  0  0  0  0  0
   37.9750   24.4170   37.6880 H   0  0  0  0  0  0  0  0  0  0  0  0
   39.8730   22.1390   36.9250 H   0  0  0  0  0  0  0  0  0  0  0  0
   40.3890   23.4930   37.9500 H   0  0  0  0  0  0  0  0  0  0  0  0
   40.8920   23.8380   35.4820 H   0  0  0  0  0  0  0  0  0  0  0  0
   39.9670   25.1330   36.2320 H   0  0  0  0  0  0  0  0  0  0  0  0
   39.2210   23.6800   33.9890 H   0  0  0  0  0  0  0  0  0  0  0  0
   38.1190   26.3740   35.4620 C   0  0  0  0  0  3  0  0  0  0  0  0
   38.0980   25.2620   34.6460 C   0  0  0  0  0  0  0  0  0  0  0  0
   37.4110   25.4640   33.4390 C   0  0  0  0  0  0  0  0  0  0  0  0
   37.3740   24.5980   32.7620 H   0  0  0  0  0  0  0  0  0  0  0  0
   36.8080   26.6540   33.0860 C   0  0  0  0  0  0  0  0  0  0  0  0
   36.1180   27.0290   31.9930 N   0  0  0  0  0  0  0  0  0  0  0  0
   35.9120   26.4250   31.1680 H   0  0  0  0  0  0  0  0  0  0  0  0
   35.7550   28.2920   32.1630 N   0  0  0  0  0  0  0  0  0  0  0  0
   36.2010   28.7430   33.3520 C   0  0  0  0  0  0  0  0  0  0  0  0
   36.1000   29.7050   33.8250 H   0  0  0  0  0  0  0  0  0  0  0  0
   36.8710   27.7120   33.9480 C   0  0  0  0  0  0  0  0  0  0  0  0
   37.5310   27.5810   35.1510 C   0  0  0  0  0  3  0  0  0  0  0  0
   38.0720   21.7270   34.3720 C   0  0  0  0  0  0  0  0  0  0  0  0
   39.0830   21.7610   33.9380 H   0  0  0  0  0  0  0  0  0  0  0  0
   37.9850   20.8250   35.0350 H   0  0  0  0  0  0  0  0  0  0  0  0
   37.1000   21.6050   33.2740 C   0  0  0  0  0  0  0  0  0  0  0  0
   35.9670   20.8430   33.5080 C   0  0  0  0  0  0  0  0  0  0  0  0
   34.9900   20.6790   32.5040 C   0  0  0  0  0  0  0  0  0  0  0  0
   35.2340   21.3100   31.3150 N   0  0  0  0  0  0  0  0  0  0  0  0
   36.3340   22.0400   31.1100 C   0  0  0  0  0  0  0  0  0  0  0  0
   37.2380   22.1790   32.0730 N   0  0  0  0  0  0  0  0  0  0  0  0
   35.7930   20.3500   34.4640 H   0  0  0  0  0  0  0  0  0  0  0  0
   34.1130   20.0790   32.7090 H   0  0  0  0  0  0  0  0  0  0  0  0
   36.4270   22.4980   30.1290 H   0  0  0  0  0  0  0  0  0  0  0  0
  1  2  1  0  0  0  0
  2  8  1  0  0  0  0
  2  7  1  0  0  0  0
  2  3  1  0  0  0  0
  3 10  1  0  0  0  0
  3  9  1  0  0  0  0
  4  3  1  0  0  0  0
  4 12  1  0  0  0  0
  5 14  1  0  0  0  0
  5  4  1  0  0  0  0
  6 15  1  6  0  0  0
  6  1  1  0  0  0  0
  6  5  1  0  0  0  0
 11  4  1  0  0  0  0
 13  5  1  0  0  0  0
 17  6  1  0  0  0  0
 17 16  2  0  0  0  0
 18 17  1  0  0  0  0
 19 18  1  0  0  0  0
 20 18  2  0  0  0  0
 20 26  1  0  0  0  0
 21 23  1  0  0  0  0
 21 20  1  0  0  0  0
 22 21  1  0  0  0  0
 23 24  2  0  0  0  0
 24 25  1  0  0  0  0
 24 26  1  0  0  0  0
 26 27  2  0  0  0  0
 27 16  1  0  0  0  0
 28 30  1  0  0  0  0
 28  1  1  0  0  0  0
 29 28  1  0  0  0  0
 31 32  1  0  0  0  0
 31 28  1  0  0  0  0
 32 37  1  0  0  0  0
 33 38  1  0  0  0  0
 33 32  2  0  0  0  0
 34 33  1  0  0  0  0
 35 34  2  0  0  0  0
 35 36  1  0  0  0  0
 36 31  2  0  0  0  0
 39 35  1  0  0  0  0
M  END
>  <minimizedAffinity>
-5.52352524

$$$$

 OpenBabel03262523523D

 39 42  0  0  1  0  0  0  0  0999 V2000
   39.8260   23.6300   35.3040 N   0  0  0  0  0  0  0  0  0  0  0  0
   40.9780   22.8270   35.5350 C   0  0  0  0  0  0  0  0  0  0  0  0
   40.8040   21.9100   36.6860 C   0  0  0  0  0  0  0  0  0  0  0  0
   40.2530   22.7160   37.8530 C   0  0  0  0  0  0  0  0  0  0  0  0
   38.8290   22.9840   37.4960 C   0  0  0  0  0  0  0  0  0  0  0  0
   38.6700   23.2660   36.0550 C   0  0  2  0  0  0  0  0  0  0  0  0
   41.7950   23.5490   35.8340 H   0  0  0  0  0  0  0  0  0  0  0  0
   41.3890   22.3440   34.6240 H   0  0  0  0  0  0  0  0  0  0  0  0
   41.8480   21.6280   37.0210 H   0  0  0  0  0  0  0  0  0  0  0  0
   40.2850   20.9760   36.5290 H   0  0  0  0  0  0  0  0  0  0  0  0
   40.8660   23.6550   37.8940 H   0  0  0  0  0  0  0  0  0  0  0  0
   40.3980   22.2100   38.8130 H   0  0  0  0  0  0  0  0  0  0  0  0
   38.4360   23.7090   38.2080 H   0  0  0  0  0  0  0  0  0  0  0  0
   38.2610   22.0320   37.7080 H   0  0  0  0  0  0  0  0  0  0  0  0
   38.0940   24.2550   36.0550 H   0  0  0  0  0  0  0  0  0  0  0  0
   36.7150   21.6530   35.9610 C   0  0  0  0  0  3  0  0  0  0  0  0
   37.7140   22.3730   35.3390 C   0  0  0  0  0  0  0  0  0  0  0  0
   37.7520   22.1960   33.9480 C   0  0  0  0  0  0  0  0  0  0  0  0
   38.5360   22.7560   33.4180 H   0  0  0  0  0  0  0  0  0  0  0  0
   36.8810   21.3820   33.2520 C   0  0  0  0  0  0  0  0  0  0  0  0
   36.7650   21.0920   31.9430 N   0  0  0  0  0  0  0  0  0  0  0  0
   37.3690   21.4700   31.1800 H   0  0  0  0  0  0  0  0  0  0  0  0
   35.7530   20.2480   31.8070 N   0  0  0  0  0  0  0  0  0  0  0  0
   35.2100   19.9850   33.0120 C   0  0  0  0  0  0  0  0  0  0  0  0
   34.3830   19.3540   33.2910 H   0  0  0  0  0  0  0  0  0  0  0  0
   35.9170   20.7000   33.9380 C   0  0  0  0  0  0  0  0  0  0  0  0
   35.8250   20.8300   35.3070 C   0  0  0  0  0  3  0  0  0  0  0  0
   40.0700   25.0170   35.1650 C   0  0  0  0  0  0  0  0  0  0  0  0
   40.2750   25.4730   36.1460 H   0  0  0  0  0  0  0  0  0  0  0  0
   40.9680   25.1440   34.5040 H   0  0  0  0  0  0  0  0  0  0  0  0
   38.9290   25.7200   34.5570 C   0  0  0  0  0  0  0  0  0  0  0  0
   38.2570   26.6420   35.3430 C   0  0  0  0  0  0  0  0  0  0  0  0
   37.1540   27.3560   34.8300 C   0  0  0  0  0  0  0  0  0  0  0  0
   36.8040   27.0800   33.5360 N   0  0  0  0  0  0  0  0  0  0  0  0
   37.4660   26.1860   32.7960 C   0  0  0  0  0  0  0  0  0  0  0  0
   38.5020   25.5280   33.3040 N   0  0  0  0  0  0  0  0  0  0  0  0
   38.5540   26.8460   36.3710 H   0  0  0  0  0  0  0  0  0  0  0  0
   36.6440   28.0720   35.4610 H   0  0  0  0  0  0  0  0  0  0  0  0
   37.1040   26.0450   31.7810 H   0  0  0  0  0  0  0  0  0  0  0  0
  1  2  1  0  0  0  0
  1  6  1  0  0  0  0
  2  7  1  0  0  0  0
  2  3  1  0  0  0  0
  3  9  1  0  0  0  0
  3  4  1  0  0  0  0
  4 11  1  0  0  0  0
  4 12  1  0  0  0  0
  5 14  1  0  0  0  0
  5  4  1  0  0  0  0
  5 13  1  0  0  0  0
  6 15  1  1  0  0  0
  6  5  1  0  0  0  0
  8  2  1  0  0  0  0
 10  3  1  0  0  0  0
 17 16  1  0  0  0  0
 17  6  1  0  0  0  0
 18 17  2  0  0  0  0
 19 18  1  0  0  0  0
 20 26  2  0  0  0  0
 20 18  1  0  0  0  0
 21 20  1  0  0  0  0
 22 21  1  0  0  0  0
 23 21  1  0  0  0  0
 23 24  2  0  0  0  0
 24 25  1  0  0  0  0
 24 26  1  0  0  0  0
 26 27  1  0  0  0  0
 27 16  2  0  0  0  0
 28  1  1  0  0  0  0
 28 29  1  0  0  0  0
 30 28  1  0  0  0  0
 31 28  1  0  0  0  0
 31 32  1  0  0  0  0
 32 37  1  0  0  0  0
 33 32  2  0  0  0  0
 33 38  1  0  0  0  0
 34 33  1  0  0  0  0
 35 36  1  0  0  0  0
 35 34  2  0  0  0  0
 36 31  2  0  0  0  0
 39 35  1  0  0  0  0
M  END
>  <minimizedAffinity>
-5.43921328

$$$$

 OpenBabel03262523523D

 39 42  0  0  1  0  0  0  0  0999 V2000
   38.6070   25.3270   33.7760 N   0  0  0  0  0  0  0  0  0  0  0  0
   39.1970   26.6210   33.7720 C   0  0  0  0  0  0  0  0  0  0  0  0
   39.4320   27.1370   35.1420 C   0  0  0  0  0  0  0  0  0  0  0  0
   38.1550   26.9410   35.9450 C   0  0  0  0  0  0  0  0  0  0  0  0
   38.0910   25.4730   36.2110 C   0  0  0  0  0  0  0  0  0  0  0  0
   38.5510   24.6870   35.0490 C   0  0  2  0  0  0  0  0  0  0  0  0
   38.4240   27.3060   33.3100 H   0  0  0  0  0  0  0  0  0  0  0  0
   40.0660   26.7260   33.0900 H   0  0  0  0  0  0  0  0  0  0  0  0
   39.5170   28.2620   35.0400 H   0  0  0  0  0  0  0  0  0  0  0  0
   40.3210   26.8220   35.6680 H   0  0  0  0  0  0  0  0  0  0  0  0
   37.3190   27.2900   35.2840 H   0  0  0  0  0  0  0  0  0  0  0  0
   38.1260   27.5700   36.8400 H   0  0  0  0  0  0  0  0  0  0  0  0
   37.1080   25.2500   36.6260 H   0  0  0  0  0  0  0  0  0  0  0  0
   38.8150   25.2680   37.0530 H   0  0  0  0  0  0  0  0  0  0  0  0
   37.6870   23.9540   34.8840 H   0  0  0  0  0  0  0  0  0  0  0  0
   40.7230   23.5180   34.4590 C   0  0  0  0  0  3  0  0  0  0  0  0
   39.6770   23.7490   35.3280 C   0  0  0  0  0  0  0  0  0  0  0  0
   39.7640   23.0170   36.5210 C   0  0  0  0  0  0  0  0  0  0  0  0
   38.9460   23.1770   37.2390 H   0  0  0  0  0  0  0  0  0  0  0  0
   40.7920   22.1430   36.8150 C   0  0  0  0  0  0  0  0  0  0  0  0
   41.0420   21.3690   37.8870 N   0  0  0  0  0  0  0  0  0  0  0  0
   40.4450   21.2990   38.7400 H   0  0  0  0  0  0  0  0  0  0  0  0
   42.1730   20.7190   37.6560 N   0  0  0  0  0  0  0  0  0  0  0  0
   42.6620   21.0620   36.4480 C   0  0  0  0  0  0  0  0  0  0  0  0
   43.5500   20.7430   35.9290 H   0  0  0  0  0  0  0  0  0  0  0  0
   41.7940   21.9660   35.9040 C   0  0  0  0  0  0  0  0  0  0  0  0
   41.7680   22.6550   34.7110 C   0  0  0  0  0  3  0  0  0  0  0  0
   37.4670   25.1760   32.9510 C   0  0  0  0  0  0  0  0  0  0  0  0
   36.5490   25.1590   33.5600 H   0  0  0  0  0  0  0  0  0  0  0  0
   37.4290   26.0550   32.2520 H   0  0  0  0  0  0  0  0  0  0  0  0
   37.5190   23.9400   32.1560 C   0  0  0  0  0  0  0  0  0  0  0  0
   36.3460   23.2120   32.0310 C   0  0  0  0  0  0  0  0  0  0  0  0
   36.3170   22.0160   31.2850 C   0  0  0  0  0  0  0  0  0  0  0  0
   37.4980   21.6350   30.7080 N   0  0  0  0  0  0  0  0  0  0  0  0
   38.6180   22.3520   30.8400 C   0  0  0  0  0  0  0  0  0  0  0  0
   38.6170   23.4760   31.5490 N   0  0  0  0  0  0  0  0  0  0  0  0
   35.4180   23.5350   32.5000 H   0  0  0  0  0  0  0  0  0  0  0  0
   35.3910   21.4630   31.2020 H   0  0  0  0  0  0  0  0  0  0  0  0
   39.4990   21.9580   30.3390 H   0  0  0  0  0  0  0  0  0  0  0  0
  1  6  1  0  0  0  0
  2  1  1  0  0  0  0
  2  3  1  0  0  0  0
  3 10  1  0  0  0  0
  3  4  1  0  0  0  0
  4  5  1  0  0  0  0
  4 12  1  0  0  0  0
  5 13  1  0  0  0  0
  5 14  1  0  0  0  0
  6 15  1  6  0  0  0
  6 17  1  0  0  0  0
  6  5  1  0  0  0  0
  7  2  1  0  0  0  0
  8  2  1  0  0  0  0
  9  3  1  0  0  0  0
 11  4  1  0  0  0  0
 16 27  2  0  0  0  0
 16 17  1  0  0  0  0
 17 18  2  0  0  0  0
 18 20  1  0  0  0  0
 18 19  1  0  0  0  0
 20 21  1  0  0  0  0
 21 22  1  0  0  0  0
 23 21  1  0  0  0  0
 24 23  2  0  0  0  0
 25 24  1  0  0  0  0
 26 24  1  0  0  0  0
 26 20  2  0  0  0  0
 27 26  1  0  0  0  0
 28 29  1  0  0  0  0
 28  1  1  0  0  0  0
 30 28  1  0  0  0  0
 31 28  1  0  0  0  0
 32 31  1  0  0  0  0
 32 37  1  0  0  0  0
 33 32  2  0  0  0  0
 34 35  2  0  0  0  0
 34 33  1  0  0  0  0
 35 36  1  0  0  0  0
 36 31  2  0  0  0  0
 38 33  1  0  0  0  0
 39 35  1  0  0  0  0
M  END
>  <minimizedAffinity>
-5.410604

$$$$

 OpenBabel03262523523D

 39 42  0  0  1  0  0  0  0  0999 V2000
   36.2310   21.9380   32.3850 N   0  0  0  0  0  0  0  0  0  0  0  0
   35.1660   21.1230   32.8600 C   0  0  0  0  0  0  0  0  0  0  0  0
   35.6020   19.7360   33.1470 C   0  0  0  0  0  0  0  0  0  0  0  0
   36.4000   19.2360   31.9510 C   0  0  0  0  0  0  0  0  0  0  0  0
   37.7050   19.9580   32.0320 C   0  0  0  0  0  0  0  0  0  0  0  0
   37.5300   21.3550   32.4750 C   0  0  2  0  0  0  0  0  0  0  0  0
   34.4350   21.0480   32.0010 H   0  0  0  0  0  0  0  0  0  0  0  0
   34.5610   21.5870   33.6670 H   0  0  0  0  0  0  0  0  0  0  0  0
   34.6630   19.1040   33.1280 H   0  0  0  0  0  0  0  0  0  0  0  0
   36.0760   19.5270   34.0940 H   0  0  0  0  0  0  0  0  0  0  0  0
   35.8090   19.5270   31.0440 H   0  0  0  0  0  0  0  0  0  0  0  0
   36.4800   18.1440   31.9310 H   0  0  0  0  0  0  0  0  0  0  0  0
   38.2460   19.7760   31.1040 H   0  0  0  0  0  0  0  0  0  0  0  0
   38.3100   19.4340   32.8280 H   0  0  0  0  0  0  0  0  0  0  0  0
   38.0860   21.9450   31.6670 H   0  0  0  0  0  0  0  0  0  0  0  0
   39.6790   21.8080   33.7430 C   0  0  0  0  0  3  0  0  0  0  0  0
   38.3030   21.7320   33.6930 C   0  0  0  0  0  0  0  0  0  0  0  0
   37.6770   22.0520   34.9080 C   0  0  0  0  0  0  0  0  0  0  0  0
   36.5780   22.0030   34.9050 H   0  0  0  0  0  0  0  0  0  0  0  0
   38.3590   22.4100   36.0530 C   0  0  0  0  0  0  0  0  0  0  0  0
   37.9400   22.7450   37.2880 N   0  0  0  0  0  0  0  0  0  0  0  0
   36.9460   22.7900   37.6010 H   0  0  0  0  0  0  0  0  0  0  0  0
   39.0150   23.0010   38.0200 N   0  0  0  0  0  0  0  0  0  0  0  0
   40.1260   22.8380   37.2760 C   0  0  0  0  0  0  0  0  0  0  0  0
   41.1670   22.9560   37.5270 H   0  0  0  0  0  0  0  0  0  0  0  0
   39.7240   22.4620   36.0260 C   0  0  0  0  0  0  0  0  0  0  0  0
   40.4000   22.1600   34.8630 C   0  0  0  0  0  3  0  0  0  0  0  0
   35.9560   22.6710   31.2070 C   0  0  0  0  0  0  0  0  0  0  0  0
   36.3300   22.1340   30.3210 H   0  0  0  0  0  0  0  0  0  0  0  0
   34.8420   22.7860   31.1250 H   0  0  0  0  0  0  0  0  0  0  0  0
   36.5700   24.0080   31.2310 C   0  0  0  0  0  0  0  0  0  0  0  0
   37.7730   24.1690   30.5620 C   0  0  0  0  0  0  0  0  0  0  0  0
   38.4230   25.4200   30.5410 C   0  0  0  0  0  0  0  0  0  0  0  0
   37.7980   26.4370   31.2110 N   0  0  0  0  0  0  0  0  0  0  0  0
   36.6380   26.2600   31.8500 C   0  0  0  0  0  0  0  0  0  0  0  0
   36.0470   25.0700   31.8530 N   0  0  0  0  0  0  0  0  0  0  0  0
   38.2520   23.3450   30.0360 H   0  0  0  0  0  0  0  0  0  0  0  0
   39.3620   25.5230   30.0130 H   0  0  0  0  0  0  0  0  0  0  0  0
   36.2290   27.1350   32.3480 H   0  0  0  0  0  0  0  0  0  0  0  0
  1  6  1  0  0  0  0
  1  2  1  0  0  0  0
  2  3  1  0  0  0  0
  2  8  1  0  0  0  0
  3 10  1  0  0  0  0
  4  5  1  0  0  0  0
  4  3  1  0  0  0  0
  5  6  1  0  0  0  0
  5 14  1  0  0  0  0
  6 15  1  6  0  0  0
  6 17  1  0  0  0  0
  7  2  1  0  0  0  0
  9  3  1  0  0  0  0
 11  4  1  0  0  0  0
 12  4  1  0  0  0  0
 13  5  1  0  0  0  0
 16 27  1  0  0  0  0
 17 16  2  0  0  0  0
 17 18  1  0  0  0  0
 18 20  2  0  0  0  0
 19 18  1  0  0  0  0
 20 21  1  0  0  0  0
 21 22  1  0  0  0  0
 21 23  1  0  0  0  0
 24 25  1  0  0  0  0
 24 23  2  0  0  0  0
 26 20  1  0  0  0  0
 26 24  1  0  0  0  0
 27 26  2  0  0  0  0
 28 31  1  0  0  0  0
 28  1  1  0  0  0  0
 29 28  1  0  0  0  0
 30 28  1  0  0  0  0
 31 36  1  0  0  0  0
 32 31  2  0  0  0  0
 33 32  1  0  0  0  0
 33 34  2  0  0  0  0
 34 35  1  0  0  0  0
 35 36  2  0  0  0  0
 35 39  1  0  0  0  0
 37 32  1  0  0  0  0
 38 33  1  0  0  0  0
M  END
>  <minimizedAffinity>
-5.41033602

$$$$

 OpenBabel03262523523D

 39 42  0  0  1  0  0  0  0  0999 V2000
   37.2510   25.3330   31.8650 N   0  0  0  0  0  0  0  0  0  0  0  0
   36.1020   24.5840   31.4860 C   0  0  0  0  0  0  0  0  0  0  0  0
   36.2950   23.1260   31.6680 C   0  0  0  0  0  0  0  0  0  0  0  0
   37.6300   22.7450   31.0430 C   0  0  0  0  0  0  0  0  0  0  0  0
   38.6590   23.2790   31.9840 C   0  0  0  0  0  0  0  0  0  0  0  0
   38.2670   24.5910   32.5360 C   0  0  2  0  0  0  0  0  0  0  0  0
   35.9880   24.7470   30.3730 H   0  0  0  0  0  0  0  0  0  0  0  0
   35.1470   24.9730   31.8960 H   0  0  0  0  0  0  0  0  0  0  0  0
   35.5310   22.6250   30.9990 H   0  0  0  0  0  0  0  0  0  0  0  0
   36.1460   22.7030   32.6500 H   0  0  0  0  0  0  0  0  0  0  0  0
   37.6590   23.2560   30.0460 H   0  0  0  0  0  0  0  0  0  0  0  0
   37.7040   21.6710   30.8430 H   0  0  0  0  0  0  0  0  0  0  0  0
   39.6310   23.1940   31.4990 H   0  0  0  0  0  0  0  0  0  0  0  0
   38.7040   22.5580   32.8520 H   0  0  0  0  0  0  0  0  0  0  0  0
   39.1860   25.2380   32.3180 H   0  0  0  0  0  0  0  0  0  0  0  0
   38.2720   25.8310   34.7470 C   0  0  0  0  0  3  0  0  0  0  0  0
   38.2120   24.6580   34.0250 C   0  0  0  0  0  0  0  0  0  0  0  0
   38.0860   23.5110   34.8220 C   0  0  0  0  0  0  0  0  0  0  0  0
   38.0340   22.5560   34.2790 H   0  0  0  0  0  0  0  0  0  0  0  0
   38.0280   23.5350   36.2010 C   0  0  0  0  0  0  0  0  0  0  0  0
   37.9100   22.5580   37.1190 N   0  0  0  0  0  0  0  0  0  0  0  0
   37.8380   21.5370   36.9140 H   0  0  0  0  0  0  0  0  0  0  0  0
   37.9020   23.1300   38.3140 N   0  0  0  0  0  0  0  0  0  0  0  0
   38.0130   24.4660   38.1850 C   0  0  0  0  0  0  0  0  0  0  0  0
   38.0420   25.2470   38.9260 H   0  0  0  0  0  0  0  0  0  0  0  0
   38.0940   24.7370   36.8480 C   0  0  0  0  0  0  0  0  0  0  0  0
   38.2180   25.9020   36.1230 C   0  0  0  0  0  3  0  0  0  0  0  0
   37.6960   26.2850   30.9170 C   0  0  0  0  0  0  0  0  0  0  0  0
   38.7940   26.3650   30.9360 H   0  0  0  0  0  0  0  0  0  0  0  0
   37.3700   25.9370   29.9000 H   0  0  0  0  0  0  0  0  0  0  0  0
   37.1290   27.6200   31.1660 C   0  0  0  0  0  0  0  0  0  0  0  0
   37.0520   28.4900   30.0910 C   0  0  0  0  0  0  0  0  0  0  0  0
   36.5220   29.7870   30.2510 C   0  0  0  0  0  0  0  0  0  0  0  0
   36.0990   30.1150   31.5110 N   0  0  0  0  0  0  0  0  0  0  0  0
   36.1820   29.2600   32.5340 C   0  0  0  0  0  0  0  0  0  0  0  0
   36.6870   28.0440   32.3550 N   0  0  0  0  0  0  0  0  0  0  0  0
   37.3950   28.2070   29.0970 H   0  0  0  0  0  0  0  0  0  0  0  0
   36.4710   30.4500   29.3980 H   0  0  0  0  0  0  0  0  0  0  0  0
   35.8170   29.6240   33.4910 H   0  0  0  0  0  0  0  0  0  0  0  0
  1  6  1  0  0  0  0
  2  3  1  0  0  0  0
  2  1  1  0  0  0  0
  2  8  1  0  0  0  0
  3 10  1  0  0  0  0
  4  3  1  0  0  0  0
  4  5  1  0  0  0  0
  5  6  1  0  0  0  0
  5 14  1  0  0  0  0
  6 15  1  6  0  0  0
  6 17  1  0  0  0  0
  7  2  1  0  0  0  0
  9  3  1  0  0  0  0
 11  4  1  0  0  0  0
 12  4  1  0  0  0  0
 13  5  1  0  0  0  0
 16 27  1  0  0  0  0
 17 16  2  0  0  0  0
 17 18  1  0  0  0  0
 18 20  2  0  0  0  0
 19 18  1  0  0  0  0
 20 26  1  0  0  0  0
 20 21  1  0  0  0  0
 21 23  1  0  0  0  0
 22 21  1  0  0  0  0
 24 23  2  0  0  0  0
 24 25  1  0  0  0  0
 26 24  1  0  0  0  0
 27 26  2  0  0  0  0
 28 29  1  0  0  0  0
 28 31  1  0  0  0  0
 28  1  1  0  0  0  0
 30 28  1  0  0  0  0
 31 36  1  0  0  0  0
 32 33  1  0  0  0  0
 32 31  2  0  0  0  0
 33 34  2  0  0  0  0
 34 35  1  0  0  0  0
 35 39  1  0  0  0  0
 36 35  2  0  0  0  0
 37 32  1  0  0  0  0
 38 33  1  0  0  0  0
M  END
>  <minimizedAffinity>
-5.40433264

$$$$

 OpenBabel03262523523D

 39 42  0  0  1  0  0  0  0  0999 V2000
   37.9290   25.8290   34.0780 N   0  0  0  0  0  0  0  0  0  0  0  0
   37.0980   26.9820   34.0370 C   0  0  0  0  0  0  0  0  0  0  0  0
   36.8510   27.4500   32.6520 C   0  0  0  0  0  0  0  0  0  0  0  0
   38.1890   27.5130   31.9300 C   0  0  0  0  0  0  0  0  0  0  0  0
   38.5560   26.0870   31.6780 C   0  0  0  0  0  0  0  0  0  0  0  0
   38.1880   25.2200   32.8140 C   0  0  2  0  0  0  0  0  0  0  0  0
   37.6910   27.8020   34.5410 H   0  0  0  0  0  0  0  0  0  0  0  0
   36.1850   26.9110   34.6630 H   0  0  0  0  0  0  0  0  0  0  0  0
   36.5410   28.5360   32.7400 H   0  0  0  0  0  0  0  0  0  0  0  0
   36.0750   26.9700   32.0740 H   0  0  0  0  0  0  0  0  0  0  0  0
   38.8970   28.0150   32.6390 H   0  0  0  0  0  0  0  0  0  0  0  0
   38.1490   28.1410   31.0340 H   0  0  0  0  0  0  0  0  0  0  0  0
   39.5870   26.0640   31.3260 H   0  0  0  0  0  0  0  0  0  0  0  0
   37.9390   25.7500   30.7940 H   0  0  0  0  0  0  0  0  0  0  0  0
   39.1670   24.6700   33.0370 H   0  0  0  0  0  0  0  0  0  0  0  0
   36.3660   24.1050   31.4470 C   0  0  0  0  0  3  0  0  0  0  0  0
   37.2870   24.0800   32.4730 C   0  0  0  0  0  0  0  0  0  0  0  0
   37.3120   22.8690   33.1790 C   0  0  0  0  0  0  0  0  0  0  0  0
   38.0370   22.8130   34.0050 H   0  0  0  0  0  0  0  0  0  0  0  0
   36.4980   21.7920   32.8890 C   0  0  0  0  0  0  0  0  0  0  0  0
   36.3800   20.5720   33.4430 N   0  0  0  0  0  0  0  0  0  0  0  0
   36.9350   20.2150   34.2520 H   0  0  0  0  0  0  0  0  0  0  0  0
   35.4390   19.9180   32.7780 N   0  0  0  0  0  0  0  0  0  0  0  0
   34.9440   20.6990   31.7970 C   0  0  0  0  0  0  0  0  0  0  0  0
   34.1790   20.5100   31.0630 H   0  0  0  0  0  0  0  0  0  0  0  0
   35.6080   21.8920   31.8570 C   0  0  0  0  0  0  0  0  0  0  0  0
   35.5330   23.0550   31.1230 C   0  0  0  0  0  3  0  0  0  0  0  0
   39.0240   25.9000   34.9720 C   0  0  0  0  0  0  0  0  0  0  0  0
   39.9690   25.7050   34.4420 H   0  0  0  0  0  0  0  0  0  0  0  0
   39.0500   26.9370   35.4020 H   0  0  0  0  0  0  0  0  0  0  0  0
   38.9010   24.9330   36.0740 C   0  0  0  0  0  0  0  0  0  0  0  0
   39.6990   23.8020   36.0190 C   0  0  0  0  0  0  0  0  0  0  0  0
   39.6380   22.8280   37.0380 C   0  0  0  0  0  0  0  0  0  0  0  0
   38.7590   23.0740   38.0570 N   0  0  0  0  0  0  0  0  0  0  0  0
   37.9980   24.1720   38.0900 C   0  0  0  0  0  0  0  0  0  0  0  0
   38.0760   25.0730   37.1170 N   0  0  0  0  0  0  0  0  0  0  0  0
   40.3930   23.6260   35.1980 H   0  0  0  0  0  0  0  0  0  0  0  0
   40.2700   21.9520   36.9750 H   0  0  0  0  0  0  0  0  0  0  0  0
   37.3340   24.2680   38.9450 H   0  0  0  0  0  0  0  0  0  0  0  0
  1 28  1  0  0  0  0
  2  1  1  0  0  0  0
  2  7  1  0  0  0  0
  2  8  1  0  0  0  0
  3  9  1  0  0  0  0
  3  2  1  0  0  0  0
  4 11  1  0  0  0  0
  4  3  1  0  0  0  0
  5  4  1  0  0  0  0
  5  6  1  0  0  0  0
  6 15  1  1  0  0  0
  6  1  1  0  0  0  0
 10  3  1  0  0  0  0
 12  4  1  0  0  0  0
 13  5  1  0  0  0  0
 14  5  1  0  0  0  0
 16 17  1  0  0  0  0
 17  6  1  0  0  0  0
 17 18  2  0  0  0  0
 18 19  1  0  0  0  0
 20 18  1  0  0  0  0
 20 21  1  0  0  0  0
 21 22  1  0  0  0  0
 23 21  1  0  0  0  0
 24 26  1  0  0  0  0
 24 23  2  0  0  0  0
 25 24  1  0  0  0  0
 26 20  2  0  0  0  0
 27 16  2  0  0  0  0
 27 26  1  0  0  0  0
 28 30  1  0  0  0  0
 28 31  1  0  0  0  0
 29 28  1  0  0  0  0
 31 36  1  0  0  0  0
 32 31  2  0  0  0  0
 32 33  1  0  0  0  0
 33 34  2  0  0  0  0
 34 35  1  0  0  0  0
 35 39  1  0  0  0  0
 36 35  2  0  0  0  0
 37 32  1  0  0  0  0
 38 33  1  0  0  0  0
M  END
>  <minimizedAffinity>
-5.36708307

$$$$

 OpenBabel03262523523D

 39 42  0  0  1  0  0  0  0  0999 V2000
   36.5980   27.5940   32.2590 N   0  0  0  0  0  0  0  0  0  0  0  0
   36.2080   26.6130   31.3050 C   0  0  0  0  0  0  0  0  0  0  0  0
   37.3450   25.7690   30.8670 C   0  0  0  0  0  0  0  0  0  0  0  0
   38.5040   26.6880   30.5080 C   0  0  0  0  0  0  0  0  0  0  0  0
   39.0180   27.1860   31.8180 C   0  0  0  0  0  0  0  0  0  0  0  0
   37.9220   27.4530   32.7700 C   0  0  2  0  0  0  0  0  0  0  0  0
   35.8810   27.1930   30.3910 H   0  0  0  0  0  0  0  0  0  0  0  0
   35.2970   26.0430   31.5810 H   0  0  0  0  0  0  0  0  0  0  0  0
   37.0370   25.3220   29.8730 H   0  0  0  0  0  0  0  0  0  0  0  0
   37.6380   24.9340   31.4850 H   0  0  0  0  0  0  0  0  0  0  0  0
   38.0630   27.5090   29.8840 H   0  0  0  0  0  0  0  0  0  0  0  0
   39.2510   26.1900   29.8810 H   0  0  0  0  0  0  0  0  0  0  0  0
   39.7300   27.9860   31.6160 H   0  0  0  0  0  0  0  0  0  0  0  0
   39.6380   26.3500   32.2570 H   0  0  0  0  0  0  0  0  0  0  0  0
   38.1380   28.5250   33.1070 H   0  0  0  0  0  0  0  0  0  0  0  0
   38.1450   27.3310   35.2930 C   0  0  0  0  0  3  0  0  0  0  0  0
   38.0170   26.7180   34.0650 C   0  0  0  0  0  0  0  0  0  0  0  0
   37.9780   25.3170   34.1360 C   0  0  0  0  0  0  0  0  0  0  0  0
   37.8760   24.7940   33.1740 H   0  0  0  0  0  0  0  0  0  0  0  0
   38.0600   24.6040   35.3150 C   0  0  0  0  0  0  0  0  0  0  0  0
   38.0400   23.2840   35.5770 N   0  0  0  0  0  0  0  0  0  0  0  0
   37.9530   22.5240   34.8670 H   0  0  0  0  0  0  0  0  0  0  0  0
   38.1510   23.1340   36.8890 N   0  0  0  0  0  0  0  0  0  0  0  0
   38.2420   24.3400   37.4830 C   0  0  0  0  0  0  0  0  0  0  0  0
   38.3420   24.6100   38.5200 H   0  0  0  0  0  0  0  0  0  0  0  0
   38.1850   25.2820   36.4940 C   0  0  0  0  0  0  0  0  0  0  0  0
   38.2300   26.6600   36.4940 C   0  0  0  0  0  3  0  0  0  0  0  0
   36.1750   28.9150   31.9800 C   0  0  0  0  0  0  0  0  0  0  0  0
   37.0230   29.6140   32.0420 H   0  0  0  0  0  0  0  0  0  0  0  0
   35.7600   28.9310   30.9360 H   0  0  0  0  0  0  0  0  0  0  0  0
   35.1310   29.3690   32.9120 C   0  0  0  0  0  0  0  0  0  0  0  0
   35.5410   30.0670   34.0370 C   0  0  0  0  0  0  0  0  0  0  0  0
   34.6000   30.5340   34.9770 C   0  0  0  0  0  0  0  0  0  0  0  0
   33.2870   30.2570   34.7070 N   0  0  0  0  0  0  0  0  0  0  0  0
   32.9130   29.5820   33.6160 C   0  0  0  0  0  0  0  0  0  0  0  0
   33.8210   29.1530   32.7460 N   0  0  0  0  0  0  0  0  0  0  0  0
   36.5920   30.2770   34.2310 H   0  0  0  0  0  0  0  0  0  0  0  0
   34.9420   31.0770   35.8480 H   0  0  0  0  0  0  0  0  0  0  0  0
   31.8450   29.4170   33.4990 H   0  0  0  0  0  0  0  0  0  0  0  0
  1  6  1  0  0  0  0
  2  8  1  0  0  0  0
  2  1  1  0  0  0  0
  3  2  1  0  0  0  0
  3 10  1  0  0  0  0
  4  3  1  0  0  0  0
  4  5  1  0  0  0  0
  5 14  1  0  0  0  0
  5  6  1  0  0  0  0
  6 15  1  1  0  0  0
  6 17  1  0  0  0  0
  7  2  1  0  0  0  0
  9  3  1  0  0  0  0
 11  4  1  0  0  0  0
 12  4  1  0  0  0  0
 13  5  1  0  0  0  0
 16 27  1  0  0  0  0
 17 18  1  0  0  0  0
 17 16  2  0  0  0  0
 18 20  2  0  0  0  0
 19 18  1  0  0  0  0
 20 21  1  0  0  0  0
 20 26  1  0  0  0  0
 21 23  1  0  0  0  0
 22 21  1  0  0  0  0
 23 24  2  0  0  0  0
 24 25  1  0  0  0  0
 26 24  1  0  0  0  0
 27 26  2  0  0  0  0
 28 29  1  0  0  0  0
 28  1  1  0  0  0  0
 28 31  1  0  0  0  0
 30 28  1  0  0  0  0
 31 32  1  0  0  0  0
 32 37  1  0  0  0  0
 32 33  2  0  0  0  0
 33 38  1  0  0  0  0
 34 33  1  0  0  0  0
 35 34  2  0  0  0  0
 36 31  2  0  0  0  0
 36 35  1  0  0  0  0
 39 35  1  0  0  0  0
M  END
>  <minimizedAffinity>
-5.34600592

$$$$
