
 OpenBabel03272509013D

 34 37  0  0  0  0  0  0  0  0999 V2000
   39.3140   31.5340   50.6380 Cl  0  0  0  0  0  0  0  0  0  0  0  0
   37.7910   31.0240   49.9780 C   0  0  0  0  0  0  0  0  0  0  0  0
   37.4360   31.4120   48.6900 C   0  0  0  0  0  0  0  0  0  0  0  0
   36.2410   31.0420   48.1300 C   0  0  0  0  0  0  0  0  0  0  0  0
   35.3430   30.2670   48.8320 C   0  0  0  0  0  0  0  0  0  0  0  0
   35.6530   29.8610   50.1100 C   0  0  0  0  0  0  0  0  0  0  0  0
   34.6070   28.8800   51.1180 Cl  0  0  0  0  0  0  0  0  0  0  0  0
   36.8790   30.2550   50.6480 C   0  0  0  0  0  0  0  0  0  0  0  0
   35.9790   31.3510   47.1240 H   0  0  0  0  0  0  0  0  0  0  0  0
   34.3880   29.9480   48.4360 H   0  0  0  0  0  0  0  0  0  0  0  0
   39.8220   34.0390   47.7530 C   0  0  0  0  0  0  0  0  0  0  0  0
   40.1090   33.7500   46.4120 C   0  0  0  0  0  0  0  0  0  0  0  0
   39.4630   32.6310   45.8560 C   0  0  0  0  0  0  0  0  0  0  0  0
   38.6150   31.9150   46.6400 N   0  0  0  0  0  0  0  0  0  0  0  0
   38.3600   32.2210   47.9260 C   0  0  0  0  0  0  0  0  0  0  0  0
   38.9770   33.2780   48.4380 N   0  0  0  0  0  0  0  0  0  0  0  0
   40.2230   34.8540   48.3370 H   0  0  0  0  0  0  0  0  0  0  0  0
   40.8070   34.4270   45.9430 H   0  0  0  0  0  0  0  0  0  0  0  0
   39.7060   32.4430   44.8380 H   0  0  0  0  0  0  0  0  0  0  0  0
   37.2560   29.8060   52.0160 C   0  0  0  0  0  0  0  0  0  0  0  0
   36.3200   29.5840   52.5700 H   0  0  0  0  0  0  0  0  0  0  0  0
   37.8740   30.5840   52.5180 H   0  0  0  0  0  0  0  0  0  0  0  0
   38.2440   28.0150   50.6150 C   0  0  0  0  0  3  0  0  0  0  0  0
   38.0370   28.5550   51.8880 C   0  0  0  0  0  0  0  0  0  0  0  0
   38.5860   27.8720   52.9450 C   0  0  0  0  0  0  0  0  0  0  0  0
   38.4030   28.3200   53.9040 H   0  0  0  0  0  0  0  0  0  0  0  0
   39.3240   26.7020   52.8500 C   0  0  0  0  0  0  0  0  0  0  0  0
   39.9390   25.8870   53.7360 N   0  0  0  0  0  0  0  0  0  0  0  0
   39.9460   26.0530   54.7810 H   0  0  0  0  0  0  0  0  0  0  0  0
   40.5000   24.8950   53.0660 N   0  0  0  0  0  0  0  0  0  0  0  0
   40.2520   25.0580   51.7380 C   0  0  0  0  0  0  0  0  0  0  0  0
   40.6100   24.3670   50.9850 H   0  0  0  0  0  0  0  0  0  0  0  0
   39.5030   26.2000   51.5560 C   0  0  0  0  0  0  0  0  0  0  0  0
   38.9760   26.8390   50.4550 C   0  0  0  0  0  3  0  0  0  0  0  0
  2  1  1  0  0  0  0
  2  8  1  0  0  0  0
  3  2  2  0  0  0  0
  4  3  1  0  0  0  0
  4  5  2  0  0  0  0
  5  6  1  0  0  0  0
  6  8  2  0  0  0  0
  6  7  1  0  0  0  0
  8 20  1  0  0  0  0
  9  4  1  0  0  0  0
 10  5  1  0  0  0  0
 11 17  1  0  0  0  0
 11 16  1  0  0  0  0
 12 11  2  0  0  0  0
 13 12  1  0  0  0  0
 13 14  2  0  0  0  0
 14 15  1  0  0  0  0
 15 16  2  0  0  0  0
 15  3  1  0  0  0  0
 18 12  1  0  0  0  0
 19 13  1  0  0  0  0
 20 22  1  0  0  0  0
 20 21  1  0  0  0  0
 23 24  1  0  0  0  0
 24 20  1  0  0  0  0
 24 25  2  0  0  0  0
 25 26  1  0  0  0  0
 27 25  1  0  0  0  0
 27 28  1  0  0  0  0
 28 29  1  0  0  0  0
 30 28  1  0  0  0  0
 31 30  2  0  0  0  0
 32 31  1  0  0  0  0
 33 31  1  0  0  0  0
 33 27  2  0  0  0  0
 34 23  2  0  0  0  0
 34 33  1  0  0  0  0
M  END
>  <minimizedAffinity>
0.135256067

>  <minimizedRMSD>
1.52169013

$$$$
