
 OpenBabel03272508113D

 37 40  0  0  0  0  0  0  0  0999 V2000
   36.6480   29.4390   44.0210 Cl  0  0  0  0  0  0  0  0  0  0  0  0
   38.3040   29.8200   43.4920 C   0  0  0  0  0  0  0  0  0  0  0  0
   39.2890   30.3040   44.3350 C   0  0  0  0  0  0  0  0  0  0  0  0
   40.5380   30.5600   43.7930 C   0  0  0  0  0  0  0  0  0  0  0  0
   40.7860   30.3410   42.4630 C   0  0  0  0  0  0  0  0  0  0  0  0
   39.8210   29.8620   41.6160 C   0  0  0  0  0  0  0  0  0  0  0  0
   38.5800   29.6030   42.1380 C   0  0  0  0  0  0  0  0  0  0  0  0
   41.2490   30.9350   44.5130 H   0  0  0  0  0  0  0  0  0  0  0  0
   41.7830   30.5620   42.1050 H   0  0  0  0  0  0  0  0  0  0  0  0
   40.0730   29.7080   40.5740 H   0  0  0  0  0  0  0  0  0  0  0  0
   37.5670   27.7040   41.0250 C   0  0  0  0  0  3  0  0  0  0  0  0
   37.5840   29.0930   41.1940 C   0  0  0  0  0  0  0  0  0  0  0  0
   36.6610   29.8030   40.4540 C   0  0  0  0  0  0  0  0  0  0  0  0
   36.7030   30.8700   40.6090 H   0  0  0  0  0  0  0  0  0  0  0  0
   35.8010   29.1330   39.6130 C   0  0  0  0  0  0  0  0  0  0  0  0
   34.8360   29.6180   38.8080 N   0  0  0  0  0  0  0  0  0  0  0  0
   34.5870   30.6270   38.6980 H   0  0  0  0  0  0  0  0  0  0  0  0
   34.2550   28.6250   38.1820 N   0  0  0  0  0  0  0  0  0  0  0  0
   34.8180   27.4420   38.5500 C   0  0  0  0  0  0  0  0  0  0  0  0
   34.5680   26.4420   38.2170 H   0  0  0  0  0  0  0  0  0  0  0  0
   35.8060   27.7640   39.4660 C   0  0  0  0  0  0  0  0  0  0  0  0
   36.7110   27.0170   40.1870 C   0  0  0  0  0  3  0  0  0  0  0  0
   38.8520   30.4550   45.6160 O   0  0  0  0  0  0  0  0  0  0  0  0
   39.4490   32.4920   47.0930 O   0  0  0  0  0  0  0  0  0  0  0  0
   38.3050   31.8270   46.4080 P   0  0  1  0  0  0  0  0  0  0  0  0
   37.7080   32.8380   45.1630 O   0  0  0  0  0  0  0  0  0  0  0  0
   38.4640   33.2070   44.6410 H   0  0  0  0  0  0  0  0  0  0  0  0
   37.0190   31.4160   47.4400 O   0  0  0  0  0  0  0  0  0  0  0  0
   37.6200   30.5310   50.9730 C   0  0  0  0  0  0  0  0  0  0  0  0
   37.7070   31.3050   49.8160 C   0  0  0  0  0  0  0  0  0  0  0  0
   37.0780   30.8560   48.6640 C   0  0  0  0  0  0  0  0  0  0  0  0
   36.3980   29.6580   48.7330 N   0  0  0  0  0  0  0  0  0  0  0  0
   36.3410   28.9440   49.8750 C   0  0  0  0  0  0  0  0  0  0  0  0
   36.9490   29.3780   50.9870 N   0  0  0  0  0  0  0  0  0  0  0  0
   38.1530   30.9890   51.8080 H   0  0  0  0  0  0  0  0  0  0  0  0
   38.2180   32.2430   49.6930 H   0  0  0  0  0  0  0  0  0  0  0  0
   35.8060   28.0040   49.9240 H   0  0  0  0  0  0  0  0  0  0  0  0
  2  1  1  0  0  0  0
  2  3  1  0  0  0  0
  3 23  1  0  0  0  0
  4  3  2  0  0  0  0
  4  8  1  0  0  0  0
  5  4  1  0  0  0  0
  6  7  1  0  0  0  0
  6  5  2  0  0  0  0
  7  2  2  0  0  0  0
  9  5  1  0  0  0  0
 10  6  1  0  0  0  0
 11 12  1  0  0  0  0
 12  7  1  0  0  0  0
 13 14  1  0  0  0  0
 13 12  2  0  0  0  0
 15 13  1  0  0  0  0
 16 15  1  0  0  0  0
 17 16  1  0  0  0  0
 18 19  2  0  0  0  0
 18 16  1  0  0  0  0
 19 21  1  0  0  0  0
 20 19  1  0  0  0  0
 21 15  2  0  0  0  0
 21 22  1  0  0  0  0
 22 11  2  0  0  0  0
 23 25  1  0  0  0  0
 25 24  2  1  0  0  0
 25 28  1  0  0  0  0
 26 25  1  0  0  0  0
 27 26  1  0  0  0  0
 28 31  1  0  0  0  0
 29 34  1  0  0  0  0
 29 35  1  0  0  0  0
 30 29  2  0  0  0  0
 31 32  2  0  0  0  0
 31 30  1  0  0  0  0
 32 33  1  0  0  0  0
 33 37  1  0  0  0  0
 33 34  2  0  0  0  0
 36 30  1  0  0  0  0
M  END
>  <minimizedAffinity>
-4.81041813

>  <minimizedRMSD>
0.182338938

$$$$
