
 OpenBabel03272501203D

 43 47  0  0  0  0  0  0  0  0999 V2000
   37.2220   32.6580   43.4120 Cl  0  0  0  0  0  0  0  0  0  0  0  0
   38.7330   31.9000   43.8160 C   0  0  0  0  0  0  0  0  0  0  0  0
   39.1790   32.0800   45.1170 C   0  0  0  0  0  0  0  0  0  0  0  0
   40.3760   31.4810   45.4460 C   0  0  0  0  0  0  0  0  0  0  0  0
   41.1330   30.7330   44.5720 C   0  0  0  0  0  0  0  0  0  0  0  0
   40.6790   30.5600   43.2760 C   0  0  0  0  0  0  0  0  0  0  0  0
   39.4700   31.1570   42.9250 C   0  0  0  0  0  0  0  0  0  0  0  0
   40.8150   31.5590   46.4330 H   0  0  0  0  0  0  0  0  0  0  0  0
   42.0720   30.2680   44.8420 H   0  0  0  0  0  0  0  0  0  0  0  0
   41.2150   29.9870   42.5340 H   0  0  0  0  0  0  0  0  0  0  0  0
   38.1630   29.9580   41.1540 C   0  0  0  0  0  0  0  0  0  0  0  0
   38.9810   30.9810   41.5620 C   0  0  0  0  0  0  0  0  0  0  0  0
   39.3940   31.9400   40.6340 C   0  0  0  0  0  0  0  0  0  0  0  0
   40.0430   32.7600   40.9360 H   0  0  0  0  0  0  0  0  0  0  0  0
   38.9980   31.8850   39.3010 C   0  0  0  0  0  0  0  0  0  0  0  0
   39.2130   32.6260   38.1980 N   0  0  0  0  0  0  0  0  0  0  0  0
   39.8170   33.4910   38.2180 H   0  0  0  0  0  0  0  0  0  0  0  0
   38.5740   32.1020   37.1660 N   0  0  0  0  0  0  0  0  0  0  0  0
   37.9370   31.0080   37.6080 C   0  0  0  0  0  0  0  0  0  0  0  0
   37.3370   30.3980   36.9460 H   0  0  0  0  0  0  0  0  0  0  0  0
   38.1710   30.8170   38.9740 C   0  0  0  0  0  0  0  0  0  0  0  0
   37.7360   29.8480   39.8470 C   0  0  0  0  0  0  0  0  0  0  0  0
   38.5640   32.7900   46.1260 O   0  0  0  0  0  0  0  0  0  0  0  0
   37.1390   31.3560   47.4440 C   0  0  0  0  0  0  0  0  0  0  0  0
   36.6830   30.7930   48.6290 C   0  0  0  0  0  0  0  0  0  0  0  0
   37.3400   31.2190   49.7710 C   0  0  0  0  0  0  0  0  0  0  0  0
   38.3860   32.1500   49.7040 C   0  0  0  0  0  0  0  0  0  0  0  0
   38.7870   32.6680   48.4900 C   0  0  0  0  0  0  0  0  0  0  0  0
   38.1530   32.2630   47.3430 C   0  0  0  0  0  0  0  0  0  0  0  0
   37.0570   30.8370   50.7530 H   0  0  0  0  0  0  0  0  0  0  0  0
   38.9070   32.4890   50.5970 H   0  0  0  0  0  0  0  0  0  0  0  0
   39.5900   33.3860   48.4020 H   0  0  0  0  0  0  0  0  0  0  0  0
   34.4710   30.0070   47.8950 C   0  0  0  0  0  0  0  0  0  0  0  0
   35.6170   29.8480   48.6800 C   0  0  0  0  0  0  0  0  0  0  0  0
   35.6640   28.7150   49.5200 C   0  0  0  0  0  0  0  0  0  0  0  0
   34.6000   27.8620   49.5050 N   0  0  0  0  0  0  0  0  0  0  0  0
   33.5180   28.0640   48.7260 C   0  0  0  0  0  0  0  0  0  0  0  0
   33.4480   29.1490   47.9080 N   0  0  0  0  0  0  0  0  0  0  0  0
   34.4320   30.8750   47.2500 H   0  0  0  0  0  0  0  0  0  0  0  0
   36.5310   28.5640   50.1350 H   0  0  0  0  0  0  0  0  0  0  0  0
   32.7170   27.3390   48.7750 H   0  0  0  0  0  0  0  0  0  0  0  0
   36.5320   30.9850   46.2280 O   0  0  0  0  0  0  0  0  0  0  0  0
   36.1610   30.0330   46.1890 H   0  0  0  0  0  0  0  0  0  0  0  0
  1  2  1  0  0  0  0
  2  3  1  0  0  0  0
  3  4  2  0  0  0  0
  3 23  1  0  0  0  0
  4  8  1  0  0  0  0
  5  9  1  0  0  0  0
  5  4  1  0  0  0  0
  6  5  2  0  0  0  0
  7  6  1  0  0  0  0
  7  2  2  0  0  0  0
 10  6  1  0  0  0  0
 11 12  1  0  0  0  0
 12  7  1  0  0  0  0
 13 14  1  0  0  0  0
 13 12  2  0  0  0  0
 15 13  1  0  0  0  0
 16 17  1  0  0  0  0
 16 15  1  0  0  0  0
 18 19  2  0  0  0  0
 18 16  1  0  0  0  0
 19 21  1  0  0  0  0
 20 19  1  0  0  0  0
 21 15  2  0  0  0  0
 21 22  1  0  0  0  0
 22 11  2  0  0  0  0
 23 29  1  0  0  0  0
 24 25  1  0  0  0  0
 25 34  1  0  0  0  0
 25 26  2  0  0  0  0
 26 30  1  0  0  0  0
 27 26  1  0  0  0  0
 27 31  1  0  0  0  0
 28 27  2  0  0  0  0
 29 24  2  0  0  0  0
 29 28  1  0  0  0  0
 32 28  1  0  0  0  0
 33 38  2  0  0  0  0
 33 34  1  0  0  0  0
 34 35  2  0  0  0  0
 35 40  1  0  0  0  0
 36 35  1  0  0  0  0
 37 41  1  0  0  0  0
 37 36  2  0  0  0  0
 38 37  1  0  0  0  0
 39 33  1  0  0  0  0
 42 24  1  0  0  0  0
 43 42  1  0  0  0  0
M  END
>  <minimizedAffinity>
-6.21613312

>  <minimizedRMSD>
2.32753444

$$$$
