
 OpenBabel03262521403D

 46 51  0  0  0  0  0  0  0  0999 V2000
   38.5260   31.4390   46.4470 C   0  0  0  0  0  0  0  0  0  0  0  0
   39.0990   31.3950   45.2080 N   0  0  0  0  0  0  0  0  0  0  0  0
   40.0410   32.3090   44.8720 C   0  0  0  0  0  0  0  0  0  0  0  0
   40.4530   33.2790   45.7050 N   0  0  0  0  0  0  0  0  0  0  0  0
   39.9240   33.3660   46.9280 C   0  0  0  0  0  0  0  0  0  0  0  0
   40.3420   34.3710   47.7740 C   0  0  0  0  0  0  0  0  0  0  0  0
   39.7940   34.4770   49.0360 C   0  0  0  0  0  0  0  0  0  0  0  0
   38.8170   33.5600   49.4480 C   0  0  0  0  0  0  0  0  0  0  0  0
   38.4380   32.5700   48.5500 C   0  0  0  0  0  0  0  0  0  0  0  0
   38.9610   32.4470   47.3020 C   0  0  0  0  0  0  0  0  0  0  0  0
   40.4350   32.1870   43.8680 H   0  0  0  0  0  0  0  0  0  0  0  0
   41.0970   35.0510   47.4110 H   0  0  0  0  0  0  0  0  0  0  0  0
   40.1790   35.2920   49.6300 H   0  0  0  0  0  0  0  0  0  0  0  0
   38.4680   33.7480   50.4500 H   0  0  0  0  0  0  0  0  0  0  0  0
   38.1430   30.7380   49.9970 C   0  0  0  0  0  0  0  0  0  0  0  0
   37.4850   31.6940   49.2150 C   0  0  0  0  0  0  0  0  0  0  0  0
   36.0830   31.6210   49.1600 C   0  0  0  0  0  0  0  0  0  0  0  0
   35.6970   32.4060   48.5250 H   0  0  0  0  0  0  0  0  0  0  0  0
   35.4200   30.6370   49.8600 C   0  0  0  0  0  0  0  0  0  0  0  0
   34.0870   30.4560   49.8950 N   0  0  0  0  0  0  0  0  0  0  0  0
   33.3350   31.0040   49.4170 H   0  0  0  0  0  0  0  0  0  0  0  0
   33.8830   29.4100   50.6780 N   0  0  0  0  0  0  0  0  0  0  0  0
   35.0730   28.9270   51.1410 C   0  0  0  0  0  0  0  0  0  0  0  0
   35.2530   28.0790   51.8030 H   0  0  0  0  0  0  0  0  0  0  0  0
   36.0890   29.7060   50.6240 C   0  0  0  0  0  0  0  0  0  0  0  0
   37.4620   29.7590   50.6920 C   0  0  0  0  0  0  0  0  0  0  0  0
   37.2680   30.3570   47.0270 S   0  0  0  0  0  0  0  0  0  0  0  0
   34.8000   28.8490   47.4430 F   0  0  0  0  0  0  0  0  0  0  0  0
   34.8240   29.4230   46.2030 C   0  0  0  0  0  0  0  0  0  0  0  0
   33.7700   29.2620   45.3120 C   0  0  0  0  0  0  0  0  0  0  0  0
   33.8420   29.8700   44.0540 C   0  0  0  0  0  0  0  0  0  0  0  0
   34.9530   30.6300   43.6910 C   0  0  0  0  0  0  0  0  0  0  0  0
   35.9630   30.7490   44.6250 C   0  0  0  0  0  0  0  0  0  0  0  0
   35.9260   30.1650   45.8680 C   0  0  0  0  0  0  0  0  0  0  0  0
   33.0180   29.7450   43.3580 H   0  0  0  0  0  0  0  0  0  0  0  0
   34.9840   31.0890   42.7140 H   0  0  0  0  0  0  0  0  0  0  0  0
   36.7860   31.3430   44.2900 H   0  0  0  0  0  0  0  0  0  0  0  0
   32.7570   27.1320   45.4450 C   0  0  0  0  0  0  0  0  0  0  0  0
   32.6690   28.4750   45.7460 C   0  0  0  0  0  0  0  0  0  0  0  0
   31.5310   28.8960   46.4300 C   0  0  0  0  0  0  0  0  0  0  0  0
   30.5800   27.9710   46.7580 N   0  0  0  0  0  0  0  0  0  0  0  0
   30.7120   26.6930   46.4460 C   0  0  0  0  0  0  0  0  0  0  0  0
   31.7880   26.2460   45.7910 N   0  0  0  0  0  0  0  0  0  0  0  0
   33.5910   26.6850   44.9190 H   0  0  0  0  0  0  0  0  0  0  0  0
   31.5150   29.9590   46.6400 H   0  0  0  0  0  0  0  0  0  0  0  0
   29.8790   26.0680   46.7690 H   0  0  0  0  0  0  0  0  0  0  0  0
  1 27  1  0  0  0  0
  1 10  1  0  0  0  0
  2  1  2  0  0  0  0
  3  2  1  0  0  0  0
  3  4  2  0  0  0  0
  4  5  1  0  0  0  0
  5 10  2  0  0  0  0
  5  6  1  0  0  0  0
  6  7  2  0  0  0  0
  7  8  1  0  0  0  0
  7 13  1  0  0  0  0
  8 14  1  0  0  0  0
  9 16  1  0  0  0  0
  9  8  2  0  0  0  0
 10  9  1  0  0  0  0
 11  3  1  0  0  0  0
 12  6  1  0  0  0  0
 15 26  1  0  0  0  0
 16 15  2  0  0  0  0
 17 16  1  0  0  0  0
 17 19  2  0  0  0  0
 18 17  1  0  0  0  0
 19 20  1  0  0  0  0
 19 25  1  0  0  0  0
 20 22  1  0  0  0  0
 21 20  1  0  0  0  0
 22 23  2  0  0  0  0
 23 24  1  0  0  0  0
 25 26  2  0  0  0  0
 25 23  1  0  0  0  0
 29 28  1  0  0  0  0
 30 39  1  0  0  0  0
 30 29  2  0  0  0  0
 31 30  1  0  0  0  0
 32 31  2  0  0  0  0
 32 33  1  0  0  0  0
 33 34  2  0  0  0  0
 34 29  1  0  0  0  0
 34 27  1  0  0  0  0
 35 31  1  0  0  0  0
 36 32  1  0  0  0  0
 37 33  1  0  0  0  0
 38 39  2  0  0  0  0
 38 43  1  0  0  0  0
 39 40  1  0  0  0  0
 40 45  1  0  0  0  0
 40 41  2  0  0  0  0
 42 41  1  0  0  0  0
 42 46  1  0  0  0  0
 43 42  2  0  0  0  0
 44 38  1  0  0  0  0
M  END
>  <minimizedAffinity>
-7.31406212

>  <minimizedRMSD>
1.52702749

$$$$
