
 OpenBabel03272509073D

 47 52  0  0  1  0  0  0  0  0999 V2000
   33.5540   26.9070   46.9720 C   0  0  0  0  0  0  0  0  0  0  0  0
   33.6360   25.6340   47.5350 C   0  0  0  0  0  0  0  0  0  0  0  0
   34.0250   24.5280   46.7930 C   0  0  0  0  0  0  0  0  0  0  0  0
   34.3470   24.6710   45.4470 C   0  0  0  0  0  0  0  0  0  0  0  0
   34.2640   25.9220   44.9070 C   0  0  0  0  0  0  0  0  0  0  0  0
   33.8800   27.0270   45.6300 C   0  0  0  0  0  0  0  0  0  0  0  0
   33.3710   25.5780   48.5940 H   0  0  0  0  0  0  0  0  0  0  0  0
   34.0450   23.6050   47.3490 H   0  0  0  0  0  0  0  0  0  0  0  0
   34.6450   23.7850   44.9070 H   0  0  0  0  0  0  0  0  0  0  0  0
   34.5250   25.9930   43.8440 H   0  0  0  0  0  0  0  0  0  0  0  0
   33.1500   28.1000   47.7500 C   0  0  0  0  0  0  0  0  0  0  0  0
   32.4800   28.7880   47.2190 H   0  0  0  0  0  0  0  0  0  0  0  0
   32.5330   27.7030   48.6120 H   0  0  0  0  0  0  0  0  0  0  0  0
   34.9530   28.4340   49.4550 C   0  0  0  0  0  3  0  0  0  0  0  0
   34.2880   28.8000   48.3930 C   0  0  0  0  0  3  0  0  0  0  0  0
   37.3960   30.1410   51.5620 C   0  0  0  0  0  0  0  0  0  0  0  0
   38.1020   30.9080   50.6180 C   0  0  0  0  0  0  0  0  0  0  0  0
   37.7130   30.8170   49.2620 C   0  0  0  0  0  0  0  0  0  0  0  0
   36.6660   29.9830   48.9390 N   0  0  0  0  0  0  0  0  0  0  0  0
   36.0380   29.2760   49.9120 C   0  0  0  0  0  0  0  0  0  0  0  0
   36.3890   29.3480   51.1980 N   0  0  0  0  0  0  0  0  0  0  0  0
   37.7780   30.2910   52.5550 H   0  0  0  0  0  0  0  0  0  0  0  0
   38.9140   31.5760   50.7520 H   0  0  0  0  0  0  0  0  0  0  0  0
   38.3740   31.5690   48.1960 C   0  0  0  0  0  0  0  0  0  0  0  0
   38.5980   31.0310   46.9420 C   0  0  0  0  0  0  0  0  0  0  0  0
   39.2450   32.0110   46.1770 C   0  0  0  0  0  0  0  0  0  0  0  0
   39.3840   33.0900   46.9930 N   0  0  0  0  0  0  0  0  0  0  0  0
   38.8630   32.8150   48.1910 N   0  0  0  0  0  0  0  0  0  0  0  0
   38.3730   30.0690   46.5060 H   0  0  0  0  0  0  0  0  0  0  0  0
   39.5700   31.9380   45.1530 H   0  0  0  0  0  0  0  0  0  0  0  0
   39.8410   33.9670   46.6590 H   0  0  0  0  0  0  0  0  0  0  0  0
   33.8820   28.2950   44.9310 C   0  0  0  0  0  2  0  0  0  0  0  0
   32.6830   29.0970   44.8190 C   0  0  0  0  0  0  0  0  0  0  0  0
   31.4210   28.7750   44.5470 C   0  0  0  0  0  0  0  0  0  0  0  0
   30.3300   29.6830   44.4570 N   0  0  0  0  0  0  0  0  0  0  0  0
   28.9660   30.0280   44.5760 C   0  0  1  0  0  0  0  0  0  0  0  0
   27.9040   29.3750   44.7530 O   0  0  0  0  0  1  0  0  0  0  0  0
   29.1750   31.4680   44.4210 C   0  0  0  0  0  3  0  0  0  0  0  0
   28.5670   31.9600   43.6350 H   0  0  0  0  0  0  0  0  0  0  0  0
   30.5520   31.0530   44.0230 C   0  0  2  0  0  0  0  0  0  0  0  0
   31.7790   31.6990   45.1930 S   0  0  0  0  0  0  0  0  0  0  0  0
   33.0720   30.4820   45.0840 C   0  0  0  0  0  3  0  0  0  0  0  0
   33.7880   30.5390   45.9440 H   0  0  0  0  0  0  0  0  0  0  0  0
   31.1060   27.3680   44.3010 C   0  0  0  0  0  2  0  0  0  0  0  0
   30.4700   27.0350   43.2620 O   0  0  0  0  0  0  0  0  0  0  0  0
   30.8110   26.0360   44.0720 O   0  0  0  0  0  0  0  0  0  0  0  0
   31.4340   25.2780   44.4080 H   0  0  0  0  0  0  0  0  0  0  0  0
  1  2  1  0  0  0  0
  1 11  1  0  0  0  0
  2  7  1  0  0  0  0
  3  8  1  0  0  0  0
  3  2  2  0  0  0  0
  4  3  1  0  0  0  0
  5  4  2  0  0  0  0
  5  6  1  0  0  0  0
  6  1  2  0  0  0  0
  9  4  1  0  0  0  0
 10  5  1  0  0  0  0
 11 15  1  0  0  0  0
 11 13  1  0  0  0  0
 12 11  1  0  0  0  0
 14 20  1  0  0  0  0
 15 14  2  0  0  0  0
 16 22  1  0  0  0  0
 17 23  1  0  0  0  0
 17 16  2  0  0  0  0
 18 17  1  0  0  0  0
 19 18  2  0  0  0  0
 19 20  1  0  0  0  0
 20 21  2  0  0  0  0
 21 16  1  0  0  0  0
 24 18  1  0  0  0  0
 25 24  1  0  0  0  0
 26 25  2  0  0  0  0
 26 27  1  0  0  0  0
 27 28  1  0  0  0  0
 28 24  2  0  0  0  0
 29 25  1  0  0  0  0
 30 26  1  0  0  0  0
 31 27  1  0  0  0  0
 32  6  1  0  0  0  0
 33 32  1  0  0  0  0
 33 42  1  0  0  0  0
 34 33  2  0  0  0  0
 35 34  1  0  0  0  0
 35 36  1  0  0  0  0
 36 37  1  6  0  0  0
 38 36  1  0  0  0  0
 39 38  1  0  0  0  0
 40 38  1  6  0  0  0
 40 35  1  0  0  0  0
 40 36  1  0  0  0  0
 40 41  1  0  0  0  0
 42 41  1  0  0  0  0
 42 43  1  0  0  0  0
 44 34  1  0  0  0  0
 45 46  1  0  0  0  0
 45 44  1  0  0  0  0
 46 47  1  0  0  0  0
M  END
>  <minimizedAffinity>
-6.22375107

>  <minimizedRMSD>
0.823970199

$$$$
