
 OpenBabel03262521233D

 54 58  0  0  1  0  0  0  0  0999 V2000
   39.8840   25.1470   53.3960 C   0  0  0  0  0  0  0  0  0  0  0  0
   39.6060   26.1490   52.4740 C   0  0  0  0  0  0  0  0  0  0  0  0
   40.1680   25.9630   51.1950 C   0  0  0  0  0  0  0  0  0  0  0  0
   40.9320   24.8890   50.8560 C   0  0  0  0  0  0  0  0  0  0  0  0
   41.5700   24.4750   49.7690 N   0  0  0  0  0  0  0  0  0  0  0  0
   42.2150   23.2750   49.9910 C   0  0  0  0  0  0  0  0  0  0  0  0
   41.9470   22.9280   51.3310 C   0  0  0  0  0  0  0  0  0  0  0  0
   41.1660   23.9380   51.8140 C   0  0  0  0  0  0  0  0  0  0  0  0
   40.6510   24.0670   53.0580 C   0  0  0  0  0  0  0  0  0  0  0  0
   39.4100   25.3820   54.3430 H   0  0  0  0  0  0  0  0  0  0  0  0
   40.0150   26.6940   50.3840 H   0  0  0  0  0  0  0  0  0  0  0  0
   41.5750   25.0010   48.8610 H   0  0  0  0  0  0  0  0  0  0  0  0
   42.7920   22.7410   49.2760 H   0  0  0  0  0  0  0  0  0  0  0  0
   42.3630   22.0180   51.7240 H   0  0  0  0  0  0  0  0  0  0  0  0
   38.6530   27.6180   52.6740 S   0  0  0  0  0  0  0  0  0  0  0  0
   37.9870   28.2990   51.1740 C   0  0  0  0  0  0  0  0  0  0  0  0
   38.8460   28.7410   50.5960 H   0  0  0  0  0  0  0  0  0  0  0  0
   37.5860   27.4890   50.5260 H   0  0  0  0  0  0  0  0  0  0  0  0
   36.9620   29.3940   51.3870 C   0  0  0  0  0  0  0  0  0  0  0  0
   35.9910   28.9710   51.0430 H   0  0  0  0  0  0  0  0  0  0  0  0
   36.8330   29.4450   52.5100 H   0  0  0  0  0  0  0  0  0  0  0  0
   37.3160   30.5930   50.8490 C   0  0  0  0  0  0  0  0  0  0  0  0
   38.3320   30.9600   51.1820 H   0  0  0  0  0  0  0  0  0  0  0  0
   36.5880   31.4240   50.9580 H   0  0  0  0  0  0  0  0  0  0  0  0
   37.3980   30.2110   49.5340 O   0  0  0  0  0  0  0  0  0  0  0  0
   38.0540   31.0340   48.6660 C   0  0  0  0  0  0  0  0  0  0  0  0
   38.3180   32.2770   49.1880 C   0  0  0  0  0  0  0  0  0  0  0  0
   38.9910   33.2240   48.3940 C   0  0  0  0  0  0  0  0  0  0  0  0
   39.3470   32.8410   47.1370 N   0  0  0  0  0  0  0  0  0  0  0  0
   39.0710   31.5920   46.6410 C   0  0  0  0  0  0  0  0  0  0  0  0
   38.4240   30.7040   47.4240 N   0  0  0  0  0  0  0  0  0  0  0  0
   40.1120   32.3710   44.6390 C   0  0  0  0  0  0  0  0  0  0  0  0
   40.3190   33.5220   45.1070 O   0  0  0  0  0  0  0  0  0  0  0  0
   39.4840   31.2970   45.3200 N   0  0  0  0  0  0  0  0  0  0  0  0
   38.0880   32.6920   50.1590 H   0  0  0  0  0  0  0  0  0  0  0  0
   39.2400   34.2120   48.7100 H   0  0  0  0  0  0  0  0  0  0  0  0
   40.4760   32.2650   43.6110 H   0  0  0  0  0  0  0  0  0  0  0  0
   39.3440   30.3820   44.8850 H   0  0  0  0  0  0  0  0  0  0  0  0
   40.7600   23.1380   54.2150 C   0  0  0  0  0  2  0  0  0  0  0  0
   42.0000   23.2920   55.0130 C   0  0  0  0  0  0  0  0  0  0  0  0
   42.7720   22.2110   55.1330 C   0  0  0  0  0  0  0  0  0  0  0  0
   43.9880   22.0390   55.8130 N   0  0  0  0  0  0  0  0  0  0  0  0
   44.9820   21.2380   56.4360 C   0  0  0  0  0  0  0  0  0  0  0  0
   45.3690   20.0520   56.1820 O   0  0  0  0  0  0  0  0  0  0  0  0
   45.2340   22.3770   57.3620 C   0  0  0  0  0  3  0  0  0  0  0  0
   46.2780   22.5450   57.6630 H   0  0  0  0  0  0  0  0  0  0  0  0
   44.7880   23.1760   56.1310 C   0  0  2  0  0  3  0  0  0  0  0  0
   43.7790   24.5580   56.6720 S   0  0  0  0  0  0  0  0  0  0  0  0
   42.3060   24.6060   55.6210 C   0  0  0  0  0  3  0  0  0  0  0  0
   42.4960   25.2930   54.7550 H   0  0  0  0  0  0  0  0  0  0  0  0
   42.2860   20.9880   54.4450 C   0  0  0  0  0  0  0  0  0  0  0  0
   43.0070   20.3810   53.5760 O   0  0  0  0  0  0  0  0  0  0  0  0
   41.6010   19.8900   53.9650 O   0  0  0  0  0  0  0  0  0  0  0  0
   40.6410   19.9490   53.6520 H   0  0  0  0  0  0  0  0  0  0  0  0
  1 10  1  0  0  0  0
  2 15  1  0  0  0  0
  2  1  2  0  0  0  0
  3  2  1  0  0  0  0
  4  3  2  0  0  0  0
  4  8  1  0  0  0  0
  5  6  1  0  0  0  0
  5  4  1  0  0  0  0
  6  7  2  0  0  0  0
  7 14  1  0  0  0  0
  7  8  1  0  0  0  0
  8  9  2  0  0  0  0
  9  1  1  0  0  0  0
  9 39  1  0  0  0  0
 11  3  1  0  0  0  0
 12  5  1  0  0  0  0
 13  6  1  0  0  0  0
 16 19  1  0  0  0  0
 16 15  1  0  0  0  0
 17 16  1  0  0  0  0
 18 16  1  0  0  0  0
 19 21  1  0  0  0  0
 20 19  1  0  0  0  0
 22 24  1  0  0  0  0
 22 23  1  0  0  0  0
 22 19  1  0  0  0  0
 25 22  1  0  0  0  0
 26 27  1  0  0  0  0
 26 25  1  0  0  0  0
 27 35  1  0  0  0  0
 28 36  1  0  0  0  0
 28 27  2  0  0  0  0
 29 28  1  0  0  0  0
 30 29  2  0  0  0  0
 30 31  1  0  0  0  0
 31 26  2  0  0  0  0
 32 33  2  0  0  0  0
 32 34  1  0  0  0  0
 34 30  1  0  0  0  0
 37 32  1  0  0  0  0
 38 34  1  0  0  0  0
 39 40  1  0  0  0  0
 40 41  2  0  0  0  0
 40 49  1  0  0  0  0
 41 42  1  0  0  0  0
 42 47  1  0  0  0  0
 42 43  1  0  0  0  0
 43 45  1  0  0  0  0
 44 43  2  0  0  0  0
 45 46  1  0  0  0  0
 47 48  1  1  0  0  0
 47 45  1  0  0  0  0
 49 48  1  0  0  0  0
 50 49  1  0  0  0  0
 51 41  1  0  0  0  0
 52 51  2  0  0  0  0
 53 51  1  0  0  0  0
 54 53  1  0  0  0  0
M  END
>  <minimizedAffinity>
-4.31196642

>  <minimizedRMSD>
0.939581513

$$$$
