
 OpenBabel03272507423D

 48 52  0  0  1  0  0  0  0  0999 V2000
   36.6190   30.6260   49.3110 C   0  0  0  0  0  0  0  0  0  0  0  0
   35.4590   29.9530   49.6770 C   0  0  0  0  0  0  0  0  0  0  0  0
   35.3430   29.3650   50.9230 C   0  0  0  0  0  0  0  0  0  0  0  0
   36.3990   29.4650   51.7750 N   0  0  0  0  0  0  0  0  0  0  0  0
   37.5330   30.1320   51.3920 C   0  0  0  0  0  0  0  0  0  0  0  0
   37.6140   30.6840   50.1960 N   0  0  0  0  0  0  0  0  0  0  0  0
   34.4830   28.8250   51.2920 H   0  0  0  0  0  0  0  0  0  0  0  0
   38.3690   30.2030   52.0830 H   0  0  0  0  0  0  0  0  0  0  0  0
   33.8950   28.4910   48.4640 C   0  0  0  0  0  0  0  0  0  0  0  0
   34.4560   27.3320   48.5550 O   0  0  0  0  0  0  0  0  0  0  0  0
   34.3120   29.7710   48.8980 N   0  0  0  0  0  0  0  0  0  0  0  0
   33.8420   30.6720   48.7000 H   0  0  0  0  0  0  0  0  0  0  0  0
   29.2400   27.0060   46.3220 C   0  0  0  0  0  0  0  0  0  0  0  0
   30.4460   26.7700   45.8420 C   0  0  0  0  0  0  0  0  0  0  0  0
   31.5930   27.2870   46.4570 N   0  0  0  0  0  0  0  0  0  0  0  0
   32.8660   27.9630   46.3700 C   0  0  0  0  0  0  0  0  0  0  0  0
   33.7180   28.0240   45.4460 O   0  0  0  0  0  0  0  0  0  0  0  0
   32.5730   28.4320   47.7760 C   0  0  1  0  0  3  0  0  0  0  0  0
   31.7680   27.1900   47.9180 C   0  0  1  0  0  3  0  0  0  0  0  0
   30.2110   27.4920   48.7720 S   0  0  0  0  0  0  0  0  0  0  0  0
   28.9600   27.8290   47.5200 C   0  0  0  0  0  3  0  0  0  0  0  0
   28.9950   28.8910   47.1720 H   0  0  0  0  0  0  0  0  0  0  0  0
   28.1220   26.4030   45.5860 C   0  0  0  0  0  2  0  0  0  0  0  0
   27.9500   27.0410   44.6910 H   0  0  0  0  0  0  0  0  0  0  0  0
   30.5720   25.9490   44.6460 C   0  0  0  0  0  0  0  0  0  0  0  0
   31.5020   25.1520   44.3820 O   0  0  0  0  0  0  0  0  0  0  0  0
   30.4160   25.3120   43.4320 O   0  0  0  0  0  0  0  0  0  0  0  0
   29.6850   25.5840   42.7620 H   0  0  0  0  0  0  0  0  0  0  0  0
   36.5430   31.1330   48.0590 O   0  0  0  0  0  0  0  0  0  0  0  0
   37.9190   31.5330   46.0400 C   0  0  0  0  0  0  0  0  0  0  0  0
   37.6090   31.7000   47.3730 C   0  0  0  0  0  0  0  0  0  0  0  0
   38.3980   32.5050   48.1790 C   0  0  0  0  0  0  0  0  0  0  0  0
   39.5090   33.1430   47.6250 C   0  0  0  0  0  0  0  0  0  0  0  0
   39.8100   32.9690   46.2910 C   0  0  0  0  0  0  0  0  0  0  0  0
   39.0010   32.1640   45.5290 C   0  0  0  0  0  0  0  0  0  0  0  0
   38.2190   32.6830   49.2310 H   0  0  0  0  0  0  0  0  0  0  0  0
   40.1260   33.7710   48.2530 H   0  0  0  0  0  0  0  0  0  0  0  0
   40.6670   33.4530   45.8340 H   0  0  0  0  0  0  0  0  0  0  0  0
   39.3360   31.9840   44.0950 C   0  0  0  0  0  0  0  0  0  0  0  0
   40.1780   31.0870   43.5010 C   0  0  0  0  0  0  0  0  0  0  0  0
   40.1500   31.3220   42.1280 C   0  0  0  0  0  0  0  0  0  0  0  0
   39.2730   32.3710   41.9750 C   0  0  0  0  0  0  0  0  0  0  0  0
   38.7990   32.7520   43.1520 O   0  0  0  0  0  0  0  0  0  0  0  0
   40.7240   30.3600   44.0890 H   0  0  0  0  0  0  0  0  0  0  0  0
   40.7350   30.7400   41.4420 H   0  0  0  0  0  0  0  0  0  0  0  0
   39.0300   32.7990   41.0100 H   0  0  0  0  0  0  0  0  0  0  0  0
   36.3490   30.0220   44.6650 N   0  0  0  0  0  0  0  0  0  0  0  0
   37.0510   30.6880   45.2850 C   0  0  0  0  0  0  0  0  0  0  0  0
  1  2  2  0  0  0  0
  1  6  1  0  0  0  0
  2  3  1  0  0  0  0
  3  7  1  0  0  0  0
  3  4  2  0  0  0  0
  5  4  1  0  0  0  0
  5  8  1  0  0  0  0
  6  5  2  0  0  0  0
  9 10  2  0  0  0  0
  9 11  1  0  0  0  0
 11  2  1  0  0  0  0
 12 11  1  0  0  0  0
 13 21  1  0  0  0  0
 14 13  2  0  0  0  0
 14 15  1  0  0  0  0
 15 19  1  0  0  0  0
 16 15  1  0  0  0  0
 16 18  1  0  0  0  0
 17 16  2  0  0  0  0
 18 19  1  0  0  0  0
 18  9  1  1  0  0  0
 19 20  1  1  0  0  0
 21 20  1  0  0  0  0
 22 21  1  0  0  0  0
 23 13  1  0  0  0  0
 24 23  1  0  0  0  0
 25 14  1  0  0  0  0
 26 25  2  0  0  0  0
 27 25  1  0  0  0  0
 28 27  1  0  0  0  0
 29  1  1  0  0  0  0
 30 31  1  0  0  0  0
 31 29  1  0  0  0  0
 31 32  2  0  0  0  0
 32 36  1  0  0  0  0
 33 32  1  0  0  0  0
 33 37  1  0  0  0  0
 34 33  2  0  0  0  0
 35 30  2  0  0  0  0
 35 34  1  0  0  0  0
 38 34  1  0  0  0  0
 39 35  1  0  0  0  0
 40 44  1  0  0  0  0
 40 39  2  0  0  0  0
 41 40  1  0  0  0  0
 42 41  2  0  0  0  0
 42 43  1  0  0  0  0
 43 39  1  0  0  0  0
 45 41  1  0  0  0  0
 46 42  1  0  0  0  0
 47 48  3  0  0  0  0
 48 30  1  0  0  0  0
M  END
>  <minimizedAffinity>
-6.46377039

>  <minimizedRMSD>
1.84846652

$$$$
