
 OpenBabel03272505563D

 41 44  0  0  1  0  0  0  0  0999 V2000
   33.2190   31.3860   35.4450 C   0  0  2  0  0  0  0  0  0  0  0  0
   34.1460   31.2260   34.2790 C   0  0  0  0  0  0  0  0  0  0  0  0
   35.5900   30.9950   34.6740 C   0  0  1  0  0  0  0  0  0  0  0  0
   36.1030   32.0350   35.5990 C   0  0  0  0  0  0  0  0  0  0  0  0
   35.1520   32.3970   36.7030 C   0  0  0  0  0  0  0  0  0  0  0  0
   33.9190   31.5420   36.7460 C   0  0  0  0  0  0  0  0  0  0  0  0
   32.5130   32.2510   35.2710 H   0  0  0  0  0  0  0  0  0  0  0  0
   34.1200   32.1880   33.6990 H   0  0  0  0  0  0  0  0  0  0  0  0
   33.8590   30.4040   33.6280 H   0  0  0  0  0  0  0  0  0  0  0  0
   36.1370   31.2120   33.6860 H   0  0  0  0  0  0  0  0  0  0  0  0
   37.0690   31.7310   36.0240 H   0  0  0  0  0  0  0  0  0  0  0  0
   36.3520   32.9870   35.0190 H   0  0  0  0  0  0  0  0  0  0  0  0
   34.8090   33.4410   36.5330 H   0  0  0  0  0  0  0  0  0  0  0  0
   35.6290   32.3810   37.7030 H   0  0  0  0  0  0  0  0  0  0  0  0
   34.0280   30.6090   37.3410 H   0  0  0  0  0  0  0  0  0  0  0  0
   33.1930   32.1430   37.3960 H   0  0  0  0  0  0  0  0  0  0  0  0
   32.3140   30.2050   35.5420 C   0  0  0  0  0  0  0  0  0  0  0  0
   31.9640   29.7870   36.8380 C   0  0  0  0  0  0  0  0  0  0  0  0
   31.1260   28.6700   36.9360 C   0  0  0  0  0  0  0  0  0  0  0  0
   30.6950   28.0520   35.7880 N   0  0  0  0  0  0  0  0  0  0  0  0
   31.0590   28.4910   34.5520 C   0  0  0  0  0  0  0  0  0  0  0  0
   31.8630   29.5620   34.4490 N   0  0  0  0  0  0  0  0  0  0  0  0
   32.2670   30.2230   37.7590 H   0  0  0  0  0  0  0  0  0  0  0  0
   30.8210   28.2990   37.8900 H   0  0  0  0  0  0  0  0  0  0  0  0
   30.6670   27.9370   33.7100 H   0  0  0  0  0  0  0  0  0  0  0  0
   35.9060   29.5760   34.9470 C   0  0  0  0  0  2  0  0  0  0  0  0
   35.9590   28.6610   33.7960 C   0  0  0  0  0  0  0  0  0  0  0  0
   36.8570   27.6840   33.9500 C   0  0  0  0  0  0  0  0  0  0  0  0
   37.0840   26.7060   32.9570 N   0  0  0  0  0  0  0  0  0  0  0  0
   37.1900   25.3360   32.5620 C   0  0  0  0  0  0  0  0  0  0  0  0
   37.5100   24.2860   33.2170 O   0  0  0  0  0  0  0  0  0  0  0  0
   36.7870   25.6770   31.1570 C   0  0  0  0  0  3  0  0  0  0  0  0
   35.7080   25.6930   30.9620 H   0  0  0  0  0  0  0  0  0  0  0  0
   37.3820   27.0200   31.5510 C   0  0  1  0  0  3  0  0  0  0  0  0
   36.3920   28.4640   31.1120 S   0  0  0  0  0  0  0  0  0  0  0  0
   35.2120   28.6620   32.5150 C   0  0  0  0  0  3  0  0  0  0  0  0
   34.5060   27.8390   32.4010 H   0  0  0  0  0  0  0  0  0  0  0  0
   37.6760   27.5920   35.1840 C   0  0  0  0  0  0  0  0  0  0  0  0
   37.8560   26.5680   35.9260 O   0  0  0  0  0  0  0  0  0  0  0  0
   38.5070   27.9330   36.2300 O   0  0  0  0  0  0  0  0  0  0  0  0
   38.3070   28.7750   36.7960 H   0  0  0  0  0  0  0  0  0  0  0  0
  1  7  1  6  0  0  0
  1 17  1  0  0  0  0
  1  6  1  0  0  0  0
  2  3  1  0  0  0  0
  2  1  1  0  0  0  0
  3 10  1  6  0  0  0
  3 26  1  0  0  0  0
  3  4  1  0  0  0  0
  4 11  1  0  0  0  0
  4  5  1  0  0  0  0
  5  6  1  0  0  0  0
  5 14  1  0  0  0  0
  6 15  1  0  0  0  0
  6 16  1  0  0  0  0
  8  2  1  0  0  0  0
  9  2  1  0  0  0  0
 12  4  1  0  0  0  0
 13  5  1  0  0  0  0
 17 18  1  0  0  0  0
 18 19  2  0  0  0  0
 18 23  1  0  0  0  0
 19 24  1  0  0  0  0
 20 19  1  0  0  0  0
 21 20  2  0  0  0  0
 22 21  1  0  0  0  0
 22 17  2  0  0  0  0
 25 21  1  0  0  0  0
 27 28  2  0  0  0  0
 27 26  1  0  0  0  0
 28 38  1  0  0  0  0
 29 28  1  0  0  0  0
 30 29  1  0  0  0  0
 30 31  2  0  0  0  0
 32 34  1  0  0  0  0
 32 30  1  0  0  0  0
 33 32  1  0  0  0  0
 34 35  1  6  0  0  0
 34 29  1  0  0  0  0
 35 36  1  0  0  0  0
 36 27  1  0  0  0  0
 37 36  1  0  0  0  0
 38 39  2  0  0  0  0
 38 40  1  0  0  0  0
 40 41  1  0  0  0  0
M  END
>  <minimizedAffinity>
-6.31958675

$$$$

 OpenBabel03272505563D

 41 44  0  0  1  0  0  0  0  0999 V2000
   38.3140   27.0180   32.7940 C   0  0  2  0  0  0  0  0  0  0  0  0
   39.6420   27.0020   33.4880 C   0  0  0  0  0  0  0  0  0  0  0  0
   39.5680   26.5740   34.9390 C   0  0  1  0  0  0  0  0  0  0  0  0
   38.5890   27.3700   35.7200 C   0  0  0  0  0  0  0  0  0  0  0  0
   37.2830   27.5980   35.0170 C   0  0  0  0  0  0  0  0  0  0  0  0
   37.1590   26.8610   33.7140 C   0  0  0  0  0  0  0  0  0  0  0  0
   38.2030   27.9590   32.1780 H   0  0  0  0  0  0  0  0  0  0  0  0
   40.0330   28.0560   33.4810 H   0  0  0  0  0  0  0  0  0  0  0  0
   40.3600   26.3480   32.9990 H   0  0  0  0  0  0  0  0  0  0  0  0
   40.5880   26.9260   35.3360 H   0  0  0  0  0  0  0  0  0  0  0  0
   38.4100   26.9070   36.7000 H   0  0  0  0  0  0  0  0  0  0  0  0
   39.0340   28.3890   35.9820 H   0  0  0  0  0  0  0  0  0  0  0  0
   37.2040   28.6810   34.7780 H   0  0  0  0  0  0  0  0  0  0  0  0
   36.4060   27.3490   35.6490 H   0  0  0  0  0  0  0  0  0  0  0  0
   36.7630   25.8260   33.8080 H   0  0  0  0  0  0  0  0  0  0  0  0
   36.2920   27.3890   33.1850 H   0  0  0  0  0  0  0  0  0  0  0  0
   38.2550   25.9240   31.7820 C   0  0  0  0  0  0  0  0  0  0  0  0
   37.1970   25.0060   31.9120 C   0  0  0  0  0  0  0  0  0  0  0  0
   37.1450   23.9690   30.9730 C   0  0  0  0  0  0  0  0  0  0  0  0
   38.1050   23.9010   29.9940 N   0  0  0  0  0  0  0  0  0  0  0  0
   39.1120   24.8120   29.9060 C   0  0  0  0  0  0  0  0  0  0  0  0
   39.1710   25.8110   30.8030 N   0  0  0  0  0  0  0  0  0  0  0  0
   36.4300   25.0070   32.6470 H   0  0  0  0  0  0  0  0  0  0  0  0
   36.3680   23.2370   31.0120 H   0  0  0  0  0  0  0  0  0  0  0  0
   39.8190   24.6720   29.1000 H   0  0  0  0  0  0  0  0  0  0  0  0
   39.6060   25.1070   35.1230 C   0  0  0  0  0  2  0  0  0  0  0  0
   40.9290   24.4650   35.1740 C   0  0  0  0  0  0  0  0  0  0  0  0
   40.9750   23.4340   36.0230 C   0  0  0  0  0  0  0  0  0  0  0  0
   42.1530   22.6880   36.2390 N   0  0  0  0  0  0  0  0  0  0  0  0
   42.8390   21.4350   36.2980 C   0  0  0  0  0  0  0  0  0  0  0  0
   42.4240   20.2520   36.5500 O   0  0  0  0  0  0  0  0  0  0  0  0
   44.1420   22.0960   35.9570 C   0  0  0  0  0  3  0  0  0  0  0  0
   44.3530   22.2080   34.8860 H   0  0  0  0  0  0  0  0  0  0  0  0
   43.4480   23.2880   36.5960 C   0  0  1  0  0  3  0  0  0  0  0  0
   43.5800   24.8410   35.6860 S   0  0  0  0  0  0  0  0  0  0  0  0
   42.1950   24.7840   34.4700 C   0  0  0  0  0  3  0  0  0  0  0  0
   42.5030   24.0430   33.7320 H   0  0  0  0  0  0  0  0  0  0  0  0
   39.7730   23.0330   36.7960 C   0  0  0  0  0  0  0  0  0  0  0  0
   39.6480   22.9730   38.0650 O   0  0  0  0  0  0  0  0  0  0  0  0
   38.4960   22.6160   37.1040 O   0  0  0  0  0  0  0  0  0  0  0  0
   38.1020   21.7750   36.6480 H   0  0  0  0  0  0  0  0  0  0  0  0
  1  7  1  6  0  0  0
  1  2  1  0  0  0  0
  1  6  1  0  0  0  0
  2  3  1  0  0  0  0
  3 26  1  0  0  0  0
  3 10  1  1  0  0  0
  3  4  1  0  0  0  0
  4 12  1  0  0  0  0
  4 11  1  0  0  0  0
  5 14  1  0  0  0  0
  5  4  1  0  0  0  0
  6 15  1  0  0  0  0
  6  5  1  0  0  0  0
  8  2  1  0  0  0  0
  9  2  1  0  0  0  0
 13  5  1  0  0  0  0
 16  6  1  0  0  0  0
 17 18  1  0  0  0  0
 17  1  1  0  0  0  0
 18 23  1  0  0  0  0
 19 24  1  0  0  0  0
 19 18  2  0  0  0  0
 20 19  1  0  0  0  0
 21 20  2  0  0  0  0
 21 22  1  0  0  0  0
 22 17  2  0  0  0  0
 25 21  1  0  0  0  0
 26 27  1  0  0  0  0
 27 28  2  0  0  0  0
 28 29  1  0  0  0  0
 28 38  1  0  0  0  0
 29 30  1  0  0  0  0
 29 34  1  0  0  0  0
 30 31  2  0  0  0  0
 32 30  1  0  0  0  0
 32 34  1  0  0  0  0
 33 32  1  0  0  0  0
 34 35  1  6  0  0  0
 36 27  1  0  0  0  0
 36 35  1  0  0  0  0
 37 36  1  0  0  0  0
 38 40  1  0  0  0  0
 38 39  2  0  0  0  0
 41 40  1  0  0  0  0
M  END
>  <minimizedAffinity>
-5.90231752

$$$$

 OpenBabel03272505563D

 41 44  0  0  1  0  0  0  0  0999 V2000
   34.7990   30.6100   32.6200 C   0  0  2  0  0  0  0  0  0  0  0  0
   34.5020   29.1490   32.4690 C   0  0  0  0  0  0  0  0  0  0  0  0
   35.6810   28.3330   31.9800 C   0  0  1  0  0  0  0  0  0  0  0  0
   36.2670   28.8710   30.7270 C   0  0  0  0  0  0  0  0  0  0  0  0
   36.4280   30.3630   30.7160 C   0  0  0  0  0  0  0  0  0  0  0  0
   36.0970   31.0190   32.0260 C   0  0  0  0  0  0  0  0  0  0  0  0
   33.9550   31.2290   32.1920 H   0  0  0  0  0  0  0  0  0  0  0  0
   33.6970   29.0520   31.6920 H   0  0  0  0  0  0  0  0  0  0  0  0
   34.1640   28.6940   33.3980 H   0  0  0  0  0  0  0  0  0  0  0  0
   35.1670   27.3600   31.6470 H   0  0  0  0  0  0  0  0  0  0  0  0
   37.2310   28.3910   30.5140 H   0  0  0  0  0  0  0  0  0  0  0  0
   35.6170   28.5780   29.8350 H   0  0  0  0  0  0  0  0  0  0  0  0
   35.7220   30.7810   29.9650 H   0  0  0  0  0  0  0  0  0  0  0  0
   37.4440   30.6830   30.4070 H   0  0  0  0  0  0  0  0  0  0  0  0
   36.9490   31.0760   32.7390 H   0  0  0  0  0  0  0  0  0  0  0  0
   35.9560   32.1210   31.7510 H   0  0  0  0  0  0  0  0  0  0  0  0
   34.8100   30.9810   34.0640 C   0  0  0  0  0  0  0  0  0  0  0  0
   33.5800   30.9060   34.7410 C   0  0  0  0  0  0  0  0  0  0  0  0
   33.5820   31.2670   36.0940 C   0  0  0  0  0  0  0  0  0  0  0  0
   34.7570   31.6670   36.6800 N   0  0  0  0  0  0  0  0  0  0  0  0
   35.9260   31.7250   35.9860 C   0  0  0  0  0  0  0  0  0  0  0  0
   35.9350   31.3800   34.6880 N   0  0  0  0  0  0  0  0  0  0  0  0
   32.6420   30.6070   34.3410 H   0  0  0  0  0  0  0  0  0  0  0  0
   32.6820   31.2330   36.6680 H   0  0  0  0  0  0  0  0  0  0  0  0
   36.7980   32.0520   36.5380 H   0  0  0  0  0  0  0  0  0  0  0  0
   36.5880   27.9000   33.0650 C   0  0  0  0  0  2  0  0  0  0  0  0
   36.9530   26.4750   33.1130 C   0  0  0  0  0  0  0  0  0  0  0  0
   37.6530   26.1540   34.2050 C   0  0  0  0  0  0  0  0  0  0  0  0
   38.1200   24.8440   34.4420 N   0  0  0  0  0  0  0  0  0  0  0  0
   38.2340   23.6980   35.2900 C   0  0  0  0  0  0  0  0  0  0  0  0
   38.2140   23.5780   36.5630 O   0  0  0  0  0  0  0  0  0  0  0  0
   38.3720   22.7930   34.1010 C   0  0  0  0  0  3  0  0  0  0  0  0
   37.4320   22.4300   33.6670 H   0  0  0  0  0  0  0  0  0  0  0  0
   38.9110   24.0680   33.4740 C   0  0  1  0  0  3  0  0  0  0  0  0
   38.2660   24.4580   31.8330 S   0  0  0  0  0  0  0  0  0  0  0  0
   36.6970   25.3710   32.1570 C   0  0  0  0  0  3  0  0  0  0  0  0
   36.0030   24.6110   32.5170 H   0  0  0  0  0  0  0  0  0  0  0  0
   37.9850   27.1810   35.2230 C   0  0  0  0  0  0  0  0  0  0  0  0
   39.0170   27.2290   35.9740 O   0  0  0  0  0  0  0  0  0  0  0  0
   37.9070   28.2990   36.0270 O   0  0  0  0  0  0  0  0  0  0  0  0
   37.0430   28.4910   36.5630 H   0  0  0  0  0  0  0  0  0  0  0  0
  1  7  1  6  0  0  0
  1 17  1  0  0  0  0
  2  1  1  0  0  0  0
  2  9  1  0  0  0  0
  3 10  1  6  0  0  0
  3  2  1  0  0  0  0
  3 26  1  0  0  0  0
  4  3  1  0  0  0  0
  5  4  1  0  0  0  0
  5  6  1  0  0  0  0
  6  1  1  0  0  0  0
  6 15  1  0  0  0  0
  8  2  1  0  0  0  0
 11  4  1  0  0  0  0
 12  4  1  0  0  0  0
 13  5  1  0  0  0  0
 14  5  1  0  0  0  0
 16  6  1  0  0  0  0
 17 22  2  0  0  0  0
 17 18  1  0  0  0  0
 18 19  2  0  0  0  0
 19 24  1  0  0  0  0
 19 20  1  0  0  0  0
 21 25  1  0  0  0  0
 21 20  2  0  0  0  0
 22 21  1  0  0  0  0
 23 18  1  0  0  0  0
 26 27  1  0  0  0  0
 27 28  2  0  0  0  0
 28 29  1  0  0  0  0
 28 38  1  0  0  0  0
 29 30  1  0  0  0  0
 30 31  2  0  0  0  0
 32 30  1  0  0  0  0
 33 32  1  0  0  0  0
 34 35  1  6  0  0  0
 34 32  1  0  0  0  0
 34 29  1  0  0  0  0
 35 36  1  0  0  0  0
 36 37  1  0  0  0  0
 36 27  1  0  0  0  0
 38 39  2  0  0  0  0
 38 40  1  0  0  0  0
 40 41  1  0  0  0  0
M  END
>  <minimizedAffinity>
-5.73833942

$$$$

 OpenBabel03272505563D

 41 44  0  0  1  0  0  0  0  0999 V2000
   35.7400   28.7980   31.2400 C   0  0  2  0  0  0  0  0  0  0  0  0
   35.8880   27.3070   31.2230 C   0  0  0  0  0  0  0  0  0  0  0  0
   37.3200   26.8340   31.3720 C   0  0  1  0  0  0  0  0  0  0  0  0
   38.2320   27.4540   30.3790 C   0  0  0  0  0  0  0  0  0  0  0  0
   38.0250   28.9280   30.1910 C   0  0  0  0  0  0  0  0  0  0  0  0
   37.0300   29.5270   31.1430 C   0  0  0  0  0  0  0  0  0  0  0  0
   35.0340   29.1330   30.4220 H   0  0  0  0  0  0  0  0  0  0  0  0
   35.5320   26.9490   30.2190 H   0  0  0  0  0  0  0  0  0  0  0  0
   35.3100   26.8220   32.0060 H   0  0  0  0  0  0  0  0  0  0  0  0
   37.2390   25.7410   31.0270 H   0  0  0  0  0  0  0  0  0  0  0  0
   39.2800   27.2550   30.6410 H   0  0  0  0  0  0  0  0  0  0  0  0
   38.1070   26.9460   29.3640 H   0  0  0  0  0  0  0  0  0  0  0  0
   37.6240   29.0930   29.1680 H   0  0  0  0  0  0  0  0  0  0  0  0
   38.9690   29.5060   30.2570 H   0  0  0  0  0  0  0  0  0  0  0  0
   37.4630   29.8570   32.1130 H   0  0  0  0  0  0  0  0  0  0  0  0
   36.7610   30.5300   30.6610 H   0  0  0  0  0  0  0  0  0  0  0  0
   35.0550   29.2280   32.4930 C   0  0  0  0  0  0  0  0  0  0  0  0
   35.8790   29.7210   33.5210 C   0  0  0  0  0  0  0  0  0  0  0  0
   35.2430   30.1130   34.7050 C   0  0  0  0  0  0  0  0  0  0  0  0
   33.8790   29.9990   34.8030 N   0  0  0  0  0  0  0  0  0  0  0  0
   33.1200   29.5150   33.7830 C   0  0  0  0  0  0  0  0  0  0  0  0
   33.7200   29.1370   32.6420 N   0  0  0  0  0  0  0  0  0  0  0  0
   36.9360   29.8290   33.5030 H   0  0  0  0  0  0  0  0  0  0  0  0
   35.8080   30.4970   35.5260 H   0  0  0  0  0  0  0  0  0  0  0  0
   32.0530   29.4650   33.9580 H   0  0  0  0  0  0  0  0  0  0  0  0
   37.7610   26.7280   32.7800 C   0  0  0  0  0  2  0  0  0  0  0  0
   37.7260   25.3950   33.4010 C   0  0  0  0  0  0  0  0  0  0  0  0
   38.1140   25.4060   34.6800 C   0  0  0  0  0  0  0  0  0  0  0  0
   38.1720   24.2310   35.4600 N   0  0  0  0  0  0  0  0  0  0  0  0
   37.8300   23.5060   36.6440 C   0  0  0  0  0  0  0  0  0  0  0  0
   37.5570   23.8980   37.8300 O   0  0  0  0  0  0  0  0  0  0  0  0
   37.9320   22.2000   35.9120 C   0  0  0  0  0  3  0  0  0  0  0  0
   37.0210   21.8710   35.3980 H   0  0  0  0  0  0  0  0  0  0  0  0
   38.8880   23.0130   35.0530 C   0  0  1  0  0  3  0  0  0  0  0  0
   38.6660   22.8390   33.2700 S   0  0  0  0  0  0  0  0  0  0  0  0
   37.3600   24.0700   32.8440 C   0  0  0  0  0  3  0  0  0  0  0  0
   36.4390   23.6470   33.2470 H   0  0  0  0  0  0  0  0  0  0  0  0
   38.5200   26.6720   35.3390 C   0  0  0  0  0  0  0  0  0  0  0  0
   39.7050   27.1130   35.5170 O   0  0  0  0  0  0  0  0  0  0  0  0
   38.4570   27.8850   35.9920 O   0  0  0  0  0  0  0  0  0  0  0  0
   37.8880   27.9820   36.8500 H   0  0  0  0  0  0  0  0  0  0  0  0
  1  7  1  6  0  0  0
  1 17  1  0  0  0  0
  2  1  1  0  0  0  0
  2  3  1  0  0  0  0
  2  9  1  0  0  0  0
  3 10  1  6  0  0  0
  3 26  1  0  0  0  0
  4 11  1  0  0  0  0
  4  3  1  0  0  0  0
  5 14  1  0  0  0  0
  5  4  1  0  0  0  0
  5  6  1  0  0  0  0
  6  1  1  0  0  0  0
  6 15  1  0  0  0  0
  8  2  1  0  0  0  0
 12  4  1  0  0  0  0
 13  5  1  0  0  0  0
 16  6  1  0  0  0  0
 17 22  2  0  0  0  0
 17 18  1  0  0  0  0
 18 19  2  0  0  0  0
 19 20  1  0  0  0  0
 19 24  1  0  0  0  0
 21 25  1  0  0  0  0
 21 20  2  0  0  0  0
 22 21  1  0  0  0  0
 23 18  1  0  0  0  0
 26 27  1  0  0  0  0
 27 28  2  0  0  0  0
 28 38  1  0  0  0  0
 28 29  1  0  0  0  0
 29 30  1  0  0  0  0
 30 31  2  0  0  0  0
 32 30  1  0  0  0  0
 33 32  1  0  0  0  0
 34 35  1  6  0  0  0
 34 29  1  0  0  0  0
 34 32  1  0  0  0  0
 36 37  1  0  0  0  0
 36 35  1  0  0  0  0
 36 27  1  0  0  0  0
 38 39  2  0  0  0  0
 38 40  1  0  0  0  0
 40 41  1  0  0  0  0
M  END
>  <minimizedAffinity>
-5.56622887

$$$$

 OpenBabel03272505563D

 41 44  0  0  1  0  0  0  0  0999 V2000
   40.1560   26.7540   34.6590 C   0  0  2  0  0  0  0  0  0  0  0  0
   40.2880   25.2720   34.8340 C   0  0  0  0  0  0  0  0  0  0  0  0
   38.9730   24.5690   35.1000 C   0  0  1  0  0  0  0  0  0  0  0  0
   38.2310   25.1580   36.2420 C   0  0  0  0  0  0  0  0  0  0  0  0
   38.2070   26.6580   36.2500 C   0  0  0  0  0  0  0  0  0  0  0  0
   38.8180   27.2810   35.0280 C   0  0  0  0  0  0  0  0  0  0  0  0
   40.9650   27.2930   35.2370 H   0  0  0  0  0  0  0  0  0  0  0  0
   40.9350   25.1010   35.7370 H   0  0  0  0  0  0  0  0  0  0  0  0
   40.7380   24.7890   33.9710 H   0  0  0  0  0  0  0  0  0  0  0  0
   39.3310   23.5520   35.5000 H   0  0  0  0  0  0  0  0  0  0  0  0
   37.2050   24.7680   36.2780 H   0  0  0  0  0  0  0  0  0  0  0  0
   38.6870   24.8040   37.2280 H   0  0  0  0  0  0  0  0  0  0  0  0
   38.8070   27.0080   37.1190 H   0  0  0  0  0  0  0  0  0  0  0  0
   37.1860   27.0700   36.3860 H   0  0  0  0  0  0  0  0  0  0  0  0
   38.1100   27.4180   34.1800 H   0  0  0  0  0  0  0  0  0  0  0  0
   39.0080   28.3650   35.3420 H   0  0  0  0  0  0  0  0  0  0  0  0
   40.4280   27.1260   33.2410 C   0  0  0  0  0  0  0  0  0  0  0  0
   41.7500   27.4890   32.9300 C   0  0  0  0  0  0  0  0  0  0  0  0
   42.0090   27.8530   31.6030 C   0  0  0  0  0  0  0  0  0  0  0  0
   40.9830   27.8380   30.6910 N   0  0  0  0  0  0  0  0  0  0  0  0
   39.7160   27.4800   31.0360 C   0  0  0  0  0  0  0  0  0  0  0  0
   39.4580   27.1290   32.3070 N   0  0  0  0  0  0  0  0  0  0  0  0
   42.5820   27.5210   33.5910 H   0  0  0  0  0  0  0  0  0  0  0  0
   42.9920   28.1390   31.2980 H   0  0  0  0  0  0  0  0  0  0  0  0
   38.9780   27.5010   30.2460 H   0  0  0  0  0  0  0  0  0  0  0  0
   38.2320   24.2220   33.8680 C   0  0  0  0  0  2  0  0  0  0  0  0
   37.6730   22.8640   33.7740 C   0  0  0  0  0  0  0  0  0  0  0  0
   37.0280   22.6450   32.6250 C   0  0  0  0  0  0  0  0  0  0  0  0
   36.4010   21.4140   32.3360 N   0  0  0  0  0  0  0  0  0  0  0  0
   36.1970   20.2950   31.4690 C   0  0  0  0  0  0  0  0  0  0  0  0
   36.3060   20.1730   30.2010 O   0  0  0  0  0  0  0  0  0  0  0  0
   35.8320   19.4200   32.6320 C   0  0  0  0  0  3  0  0  0  0  0  0
   36.6720   18.9280   33.1380 H   0  0  0  0  0  0  0  0  0  0  0  0
   35.4300   20.7610   33.2270 C   0  0  1  0  0  3  0  0  0  0  0  0
   35.9840   21.0560   34.9190 S   0  0  0  0  0  0  0  0  0  0  0  0
   37.6890   21.7350   34.7360 C   0  0  0  0  0  3  0  0  0  0  0  0
   38.2950   20.8840   34.4270 H   0  0  0  0  0  0  0  0  0  0  0  0
   36.9320   23.7080   31.5940 C   0  0  0  0  0  0  0  0  0  0  0  0
   35.8960   24.3720   31.2530 O   0  0  0  0  0  0  0  0  0  0  0  0
   37.2740   24.5990   30.5980 O   0  0  0  0  0  0  0  0  0  0  0  0
   37.8000   24.2720   29.7700 H   0  0  0  0  0  0  0  0  0  0  0  0
  1  2  1  0  0  0  0
  1  6  1  0  0  0  0
  1  7  1  1  0  0  0
  2  3  1  0  0  0  0
  2  8  1  0  0  0  0
  3 10  1  1  0  0  0
  3  4  1  0  0  0  0
  4  5  1  0  0  0  0
  4 11  1  0  0  0  0
  4 12  1  0  0  0  0
  5 14  1  0  0  0  0
  5 13  1  0  0  0  0
  6 16  1  0  0  0  0
  6  5  1  0  0  0  0
  9  2  1  0  0  0  0
 15  6  1  0  0  0  0
 17  1  1  0  0  0  0
 18 17  1  0  0  0  0
 18 23  1  0  0  0  0
 19 18  2  0  0  0  0
 20 21  2  0  0  0  0
 20 19  1  0  0  0  0
 21 22  1  0  0  0  0
 22 17  2  0  0  0  0
 24 19  1  0  0  0  0
 25 21  1  0  0  0  0
 26  3  1  0  0  0  0
 27 26  1  0  0  0  0
 27 36  1  0  0  0  0
 28 27  2  0  0  0  0
 29 28  1  0  0  0  0
 29 34  1  0  0  0  0
 30 29  1  0  0  0  0
 30 32  1  0  0  0  0
 31 30  2  0  0  0  0
 32 33  1  0  0  0  0
 34 32  1  6  0  0  0
 34 35  1  0  0  0  0
 36 35  1  0  0  0  0
 37 36  1  0  0  0  0
 38 28  1  0  0  0  0
 39 38  2  0  0  0  0
 40 38  1  0  0  0  0
 41 40  1  0  0  0  0
M  END
>  <minimizedAffinity>
-5.554883

$$$$

 OpenBabel03272505563D

 41 44  0  0  1  0  0  0  0  0999 V2000
   33.1950   30.7870   34.4070 C   0  0  2  0  0  0  0  0  0  0  0  0
   33.3910   30.5100   32.9480 C   0  0  0  0  0  0  0  0  0  0  0  0
   34.7940   30.0630   32.5940 C   0  0  1  0  0  0  0  0  0  0  0  0
   35.8330   31.0030   33.0820 C   0  0  0  0  0  0  0  0  0  0  0  0
   35.6130   31.4850   34.4860 C   0  0  0  0  0  0  0  0  0  0  0  0
   34.4610   30.8200   35.1830 C   0  0  0  0  0  0  0  0  0  0  0  0
   32.6190   31.7500   34.5510 H   0  0  0  0  0  0  0  0  0  0  0  0
   33.2100   31.4740   32.3990 H   0  0  0  0  0  0  0  0  0  0  0  0
   32.7110   29.7480   32.5740 H   0  0  0  0  0  0  0  0  0  0  0  0
   34.8030   30.2110   31.4540 H   0  0  0  0  0  0  0  0  0  0  0  0
   36.8320   30.5550   32.9940 H   0  0  0  0  0  0  0  0  0  0  0  0
   35.8870   31.9160   32.3970 H   0  0  0  0  0  0  0  0  0  0  0  0
   35.3750   32.5710   34.4450 H   0  0  0  0  0  0  0  0  0  0  0  0
   36.5170   31.3850   35.1210 H   0  0  0  0  0  0  0  0  0  0  0  0
   34.7250   29.8720   35.7020 H   0  0  0  0  0  0  0  0  0  0  0  0
   34.2430   31.5120   36.0680 H   0  0  0  0  0  0  0  0  0  0  0  0
   32.3080   29.7510   35.0090 C   0  0  0  0  0  0  0  0  0  0  0  0
   31.5620   28.9660   34.1110 C   0  0  0  0  0  0  0  0  0  0  0  0
   30.7160   28.0010   34.6710 C   0  0  0  0  0  0  0  0  0  0  0  0
   30.6570   27.8710   36.0360 N   0  0  0  0  0  0  0  0  0  0  0  0
   31.3970   28.6530   36.8680 C   0  0  0  0  0  0  0  0  0  0  0  0
   32.2120   29.5820   36.3410 N   0  0  0  0  0  0  0  0  0  0  0  0
   31.5650   29.0230   33.0500 H   0  0  0  0  0  0  0  0  0  0  0  0
   30.1210   27.3700   34.0470 H   0  0  0  0  0  0  0  0  0  0  0  0
   31.2800   28.4730   37.9290 H   0  0  0  0  0  0  0  0  0  0  0  0
   35.0090   28.6100   32.7620 C   0  0  0  0  0  2  0  0  0  0  0  0
   36.3050   28.1750   33.3080 C   0  0  0  0  0  0  0  0  0  0  0  0
   37.1460   27.7380   32.3670 C   0  0  0  0  0  0  0  0  0  0  0  0
   38.4370   27.2580   32.6760 N   0  0  0  0  0  0  0  0  0  0  0  0
   39.8530   27.2760   32.4740 C   0  0  0  0  0  0  0  0  0  0  0  0
   40.5610   27.5920   31.4570 O   0  0  0  0  0  0  0  0  0  0  0  0
   40.0910   26.8000   33.8770 C   0  0  0  0  0  3  0  0  0  0  0  0
   40.1480   27.5850   34.6420 H   0  0  0  0  0  0  0  0  0  0  0  0
   38.7050   26.2110   33.6740 C   0  0  1  0  0  3  0  0  0  0  0  0
   37.5460   26.4690   35.0340 S   0  0  0  0  0  0  0  0  0  0  0  0
   36.8050   28.1250   34.7030 C   0  0  0  0  0  3  0  0  0  0  0  0
   37.6030   28.8340   34.9250 H   0  0  0  0  0  0  0  0  0  0  0  0
   36.7480   27.7250   30.9380 C   0  0  0  0  0  0  0  0  0  0  0  0
   37.0930   28.5500   30.0260 O   0  0  0  0  0  0  0  0  0  0  0  0
   36.1570   27.3550   29.7490 O   0  0  0  0  0  0  0  0  0  0  0  0
   35.1430   27.1590   29.7130 H   0  0  0  0  0  0  0  0  0  0  0  0
  1  7  1  1  0  0  0
  1 17  1  0  0  0  0
  1  6  1  0  0  0  0
  2  1  1  0  0  0  0
  3 10  1  6  0  0  0
  3 26  1  0  0  0  0
  3  2  1  0  0  0  0
  3  4  1  0  0  0  0
  4  5  1  0  0  0  0
  5 14  1  0  0  0  0
  5  6  1  0  0  0  0
  6 15  1  0  0  0  0
  6 16  1  0  0  0  0
  8  2  1  0  0  0  0
  9  2  1  0  0  0  0
 11  4  1  0  0  0  0
 12  4  1  0  0  0  0
 13  5  1  0  0  0  0
 17 22  1  0  0  0  0
 18 19  1  0  0  0  0
 18 17  2  0  0  0  0
 19 20  2  0  0  0  0
 20 21  1  0  0  0  0
 21 25  1  0  0  0  0
 22 21  2  0  0  0  0
 23 18  1  0  0  0  0
 24 19  1  0  0  0  0
 26 27  1  0  0  0  0
 27 36  1  0  0  0  0
 28 29  1  0  0  0  0
 28 27  2  0  0  0  0
 29 34  1  0  0  0  0
 30 29  1  0  0  0  0
 30 32  1  0  0  0  0
 31 30  2  0  0  0  0
 32 33  1  0  0  0  0
 34 32  1  1  0  0  0
 34 35  1  0  0  0  0
 36 37  1  0  0  0  0
 36 35  1  0  0  0  0
 38 28  1  0  0  0  0
 39 38  2  0  0  0  0
 40 38  1  0  0  0  0
 41 40  1  0  0  0  0
M  END
>  <minimizedAffinity>
-5.30483675

$$$$

 OpenBabel03272505563D

 41 44  0  0  1  0  0  0  0  0999 V2000
   35.4800   29.7570   32.1560 C   0  0  2  0  0  0  0  0  0  0  0  0
   35.4650   28.3320   32.6180 C   0  0  0  0  0  0  0  0  0  0  0  0
   36.6480   27.5190   32.1310 C   0  0  1  0  0  0  0  0  0  0  0  0
   36.8150   27.5810   30.6580 C   0  0  0  0  0  0  0  0  0  0  0  0
   36.6580   28.9560   30.0790 C   0  0  0  0  0  0  0  0  0  0  0  0
   36.4990   30.0340   31.1120 C   0  0  0  0  0  0  0  0  0  0  0  0
   34.4530   30.0650   31.7960 H   0  0  0  0  0  0  0  0  0  0  0  0
   34.5450   27.8520   32.1880 H   0  0  0  0  0  0  0  0  0  0  0  0
   35.4450   28.2450   33.7020 H   0  0  0  0  0  0  0  0  0  0  0  0
   36.2850   26.4460   32.3220 H   0  0  0  0  0  0  0  0  0  0  0  0
   37.7850   27.1600   30.3620 H   0  0  0  0  0  0  0  0  0  0  0  0
   36.0580   26.8930   30.1500 H   0  0  0  0  0  0  0  0  0  0  0  0
   35.7320   28.9670   29.4640 H   0  0  0  0  0  0  0  0  0  0  0  0
   37.4910   29.2350   29.4020 H   0  0  0  0  0  0  0  0  0  0  0  0
   37.4580   30.4570   31.4850 H   0  0  0  0  0  0  0  0  0  0  0  0
   36.0760   30.9180   30.5200 H   0  0  0  0  0  0  0  0  0  0  0  0
   35.7370   30.6640   33.3100 C   0  0  0  0  0  0  0  0  0  0  0  0
   35.6690   30.0860   34.5900 C   0  0  0  0  0  0  0  0  0  0  0  0
   35.8950   30.9370   35.6790 C   0  0  0  0  0  0  0  0  0  0  0  0
   36.1660   32.2630   35.4500 N   0  0  0  0  0  0  0  0  0  0  0  0
   36.2210   32.7810   34.1930 C   0  0  0  0  0  0  0  0  0  0  0  0
   36.0060   31.9730   33.1410 N   0  0  0  0  0  0  0  0  0  0  0  0
   35.4620   29.0710   34.8280 H   0  0  0  0  0  0  0  0  0  0  0  0
   35.8590   30.5640   36.6790 H   0  0  0  0  0  0  0  0  0  0  0  0
   36.4420   33.8380   34.1170 H   0  0  0  0  0  0  0  0  0  0  0  0
   37.8440   27.6460   32.9920 C   0  0  0  0  0  2  0  0  0  0  0  0
   38.8440   26.5690   32.9240 C   0  0  0  0  0  0  0  0  0  0  0  0
   39.3260   26.2300   34.1230 C   0  0  0  0  0  0  0  0  0  0  0  0
   40.3100   25.2310   34.2850 N   0  0  0  0  0  0  0  0  0  0  0  0
   40.7710   24.0270   34.9050 C   0  0  0  0  0  0  0  0  0  0  0  0
   40.5090   23.5040   36.0420 O   0  0  0  0  0  0  0  0  0  0  0  0
   41.6190   23.7010   33.7110 C   0  0  0  0  0  3  0  0  0  0  0  0
   41.1180   23.1450   32.9090 H   0  0  0  0  0  0  0  0  0  0  0  0
   41.5860   25.2120   33.5530 C   0  0  1  0  0  3  0  0  0  0  0  0
   41.2460   25.8100   31.8840 S   0  0  0  0  0  0  0  0  0  0  0  0
   39.4070   25.8340   31.7660 C   0  0  0  0  0  3  0  0  0  0  0  0
   39.1190   24.7840   31.7110 H   0  0  0  0  0  0  0  0  0  0  0  0
   38.8500   26.9100   35.3530 C   0  0  0  0  0  0  0  0  0  0  0  0
   38.2470   26.3860   36.3500 O   0  0  0  0  0  0  0  0  0  0  0  0
   38.5840   27.8900   36.2860 O   0  0  0  0  0  0  0  0  0  0  0  0
   38.1300   28.7720   35.9940 H   0  0  0  0  0  0  0  0  0  0  0  0
  1  7  1  6  0  0  0
  1  2  1  0  0  0  0
  1 17  1  0  0  0  0
  2  9  1  0  0  0  0
  3 10  1  1  0  0  0
  3  2  1  0  0  0  0
  3 26  1  0  0  0  0
  4  3  1  0  0  0  0
  5  4  1  0  0  0  0
  5  6  1  0  0  0  0
  6 15  1  0  0  0  0
  6  1  1  0  0  0  0
  8  2  1  0  0  0  0
 11  4  1  0  0  0  0
 12  4  1  0  0  0  0
 13  5  1  0  0  0  0
 14  5  1  0  0  0  0
 16  6  1  0  0  0  0
 17 18  1  0  0  0  0
 18 23  1  0  0  0  0
 18 19  2  0  0  0  0
 19 24  1  0  0  0  0
 20 19  1  0  0  0  0
 21 20  2  0  0  0  0
 22 17  2  0  0  0  0
 22 21  1  0  0  0  0
 25 21  1  0  0  0  0
 27 26  1  0  0  0  0
 27 28  2  0  0  0  0
 28 29  1  0  0  0  0
 28 38  1  0  0  0  0
 29 30  1  0  0  0  0
 30 31  2  0  0  0  0
 32 30  1  0  0  0  0
 33 32  1  0  0  0  0
 34 35  1  6  0  0  0
 34 32  1  0  0  0  0
 34 29  1  0  0  0  0
 36 35  1  0  0  0  0
 36 27  1  0  0  0  0
 37 36  1  0  0  0  0
 38 40  1  0  0  0  0
 38 39  2  0  0  0  0
 41 40  1  0  0  0  0
M  END
>  <minimizedAffinity>
-5.29566336

$$$$

 OpenBabel03272505563D

 41 44  0  0  1  0  0  0  0  0999 V2000
   36.4040   22.5060   30.9720 C   0  0  2  0  0  0  0  0  0  0  0  0
   37.8800   22.7600   31.0060 C   0  0  0  0  0  0  0  0  0  0  0  0
   38.2940   23.8230   32.0030 C   0  0  1  0  0  0  0  0  0  0  0  0
   37.5580   25.0970   31.8180 C   0  0  0  0  0  0  0  0  0  0  0  0
   36.0840   24.9270   31.5870 C   0  0  0  0  0  0  0  0  0  0  0  0
   35.6090   23.5090   31.7250 C   0  0  0  0  0  0  0  0  0  0  0  0
   36.0410   22.4370   29.9030 H   0  0  0  0  0  0  0  0  0  0  0  0
   38.1760   23.1370   29.9900 H   0  0  0  0  0  0  0  0  0  0  0  0
   38.4520   21.8650   31.2400 H   0  0  0  0  0  0  0  0  0  0  0  0
   39.3600   24.0680   31.6500 H   0  0  0  0  0  0  0  0  0  0  0  0
   37.7260   25.7680   32.6710 H   0  0  0  0  0  0  0  0  0  0  0  0
   37.9910   25.6740   30.9330 H   0  0  0  0  0  0  0  0  0  0  0  0
   35.8610   25.2360   30.5430 H   0  0  0  0  0  0  0  0  0  0  0  0
   35.4690   25.5720   32.2460 H   0  0  0  0  0  0  0  0  0  0  0  0
   35.3340   23.2160   32.7620 H   0  0  0  0  0  0  0  0  0  0  0  0
   34.5860   23.5140   31.2120 H   0  0  0  0  0  0  0  0  0  0  0  0
   36.1050   21.1580   31.5340 C   0  0  0  0  0  0  0  0  0  0  0  0
   35.6230   21.1210   32.8540 C   0  0  0  0  0  0  0  0  0  0  0  0
   35.3540   19.8570   33.3920 C   0  0  0  0  0  0  0  0  0  0  0  0
   35.5690   18.7410   32.6230 N   0  0  0  0  0  0  0  0  0  0  0  0
   36.0380   18.8230   31.3480 C   0  0  0  0  0  0  0  0  0  0  0  0
   36.2990   20.0310   30.8230 N   0  0  0  0  0  0  0  0  0  0  0  0
   35.4400   21.9480   33.4960 H   0  0  0  0  0  0  0  0  0  0  0  0
   34.9850   19.7560   34.3890 H   0  0  0  0  0  0  0  0  0  0  0  0
   36.1740   17.8860   30.8240 H   0  0  0  0  0  0  0  0  0  0  0  0
   38.4880   23.3010   33.3730 C   0  0  0  0  0  2  0  0  0  0  0  0
   39.8650   23.2480   33.8890 C   0  0  0  0  0  0  0  0  0  0  0  0
   39.9280   22.8510   35.1630 C   0  0  0  0  0  0  0  0  0  0  0  0
   41.1510   22.7480   35.8600 N   0  0  0  0  0  0  0  0  0  0  0  0
   42.0690   21.9950   36.6580 C   0  0  0  0  0  0  0  0  0  0  0  0
   41.8880   21.0290   37.4760 O   0  0  0  0  0  0  0  0  0  0  0  0
   43.2270   22.7920   36.1340 C   0  0  0  0  0  3  0  0  0  0  0  0
   43.6730   22.4260   35.2010 H   0  0  0  0  0  0  0  0  0  0  0  0
   42.1370   23.8360   35.9500 C   0  0  1  0  0  3  0  0  0  0  0  0
   42.1350   24.6820   34.3560 S   0  0  0  0  0  0  0  0  0  0  0  0
   41.1590   23.5790   33.2460 C   0  0  0  0  0  3  0  0  0  0  0  0
   41.8090   22.7230   33.0660 H   0  0  0  0  0  0  0  0  0  0  0  0
   38.6950   22.5090   35.9140 C   0  0  0  0  0  0  0  0  0  0  0  0
   38.1200   23.1980   36.8230 O   0  0  0  0  0  0  0  0  0  0  0  0
   37.5760   21.8330   36.3530 O   0  0  0  0  0  0  0  0  0  0  0  0
   37.6460   20.8380   36.6250 H   0  0  0  0  0  0  0  0  0  0  0  0
  1  7  1  6  0  0  0
  1  2  1  0  0  0  0
  1 17  1  0  0  0  0
  1  6  1  0  0  0  0
  2  9  1  0  0  0  0
  2  3  1  0  0  0  0
  3 10  1  6  0  0  0
  3 26  1  0  0  0  0
  4  3  1  0  0  0  0
  4 11  1  0  0  0  0
  5  6  1  0  0  0  0
  5  4  1  0  0  0  0
  5 14  1  0  0  0  0
  6 15  1  0  0  0  0
  8  2  1  0  0  0  0
 12  4  1  0  0  0  0
 13  5  1  0  0  0  0
 16  6  1  0  0  0  0
 17 18  1  0  0  0  0
 18 19  2  0  0  0  0
 18 23  1  0  0  0  0
 19 24  1  0  0  0  0
 20 19  1  0  0  0  0
 21 20  2  0  0  0  0
 22 21  1  0  0  0  0
 22 17  2  0  0  0  0
 25 21  1  0  0  0  0
 26 27  1  0  0  0  0
 27 28  2  0  0  0  0
 28 29  1  0  0  0  0
 28 38  1  0  0  0  0
 29 34  1  0  0  0  0
 29 30  1  0  0  0  0
 30 31  2  0  0  0  0
 32 30  1  0  0  0  0
 33 32  1  0  0  0  0
 34 35  1  6  0  0  0
 34 32  1  0  0  0  0
 36 27  1  0  0  0  0
 36 35  1  0  0  0  0
 37 36  1  0  0  0  0
 38 40  1  0  0  0  0
 38 39  2  0  0  0  0
 40 41  1  0  0  0  0
M  END
>  <minimizedAffinity>
-5.28586864

$$$$

 OpenBabel03272505563D

 41 44  0  0  1  0  0  0  0  0999 V2000
   39.9650   22.1480   36.6130 C   0  0  2  0  0  0  0  0  0  0  0  0
   38.8730   22.5960   35.6890 C   0  0  0  0  0  0  0  0  0  0  0  0
   38.2420   23.9150   36.0850 C   0  0  1  0  0  0  0  0  0  0  0  0
   37.7630   23.9200   37.4890 C   0  0  0  0  0  0  0  0  0  0  0  0
   38.7240   23.3120   38.4680 C   0  0  0  0  0  0  0  0  0  0  0  0
   40.0480   22.9390   37.8660 C   0  0  0  0  0  0  0  0  0  0  0  0
   39.8550   21.0470   36.8470 H   0  0  0  0  0  0  0  0  0  0  0  0
   38.0600   21.8220   35.7360 H   0  0  0  0  0  0  0  0  0  0  0  0
   39.2140   22.7010   34.6620 H   0  0  0  0  0  0  0  0  0  0  0  0
   37.2750   23.9040   35.4640 H   0  0  0  0  0  0  0  0  0  0  0  0
   37.5050   24.9400   37.8050 H   0  0  0  0  0  0  0  0  0  0  0  0
   36.7730   23.3560   37.5660 H   0  0  0  0  0  0  0  0  0  0  0  0
   38.2750   22.3720   38.8540 H   0  0  0  0  0  0  0  0  0  0  0  0
   38.9070   23.9600   39.3500 H   0  0  0  0  0  0  0  0  0  0  0  0
   40.7980   23.7610   37.8600 H   0  0  0  0  0  0  0  0  0  0  0  0
   40.5040   22.2220   38.6330 H   0  0  0  0  0  0  0  0  0  0  0  0
   41.2830   22.2300   35.9210 C   0  0  0  0  0  0  0  0  0  0  0  0
   42.3120   22.8980   36.6090 C   0  0  0  0  0  0  0  0  0  0  0  0
   43.5490   22.9920   35.9580 C   0  0  0  0  0  0  0  0  0  0  0  0
   43.6930   22.4390   34.7100 N   0  0  0  0  0  0  0  0  0  0  0  0
   42.6690   21.8010   34.0800 C   0  0  0  0  0  0  0  0  0  0  0  0
   41.4790   21.7060   34.6970 N   0  0  0  0  0  0  0  0  0  0  0  0
   42.2580   23.3460   37.5720 H   0  0  0  0  0  0  0  0  0  0  0  0
   44.3730   23.4850   36.4240 H   0  0  0  0  0  0  0  0  0  0  0  0
   42.8830   21.3990   33.0990 H   0  0  0  0  0  0  0  0  0  0  0  0
   38.9750   25.0940   35.5750 C   0  0  0  0  0  2  0  0  0  0  0  0
   38.6650   25.5450   34.2080 C   0  0  0  0  0  0  0  0  0  0  0  0
   39.7410   25.9800   33.5480 C   0  0  0  0  0  0  0  0  0  0  0  0
   39.6660   26.4740   32.2280 N   0  0  0  0  0  0  0  0  0  0  0  0
   40.1100   26.4660   30.8680 C   0  0  0  0  0  0  0  0  0  0  0  0
   41.2320   26.1460   30.3450 O   0  0  0  0  0  0  0  0  0  0  0  0
   38.7740   26.9570   30.3950 C   0  0  0  0  0  3  0  0  0  0  0  0
   38.0240   26.1810   30.1980 H   0  0  0  0  0  0  0  0  0  0  0  0
   38.7380   27.5330   31.8010 C   0  0  1  0  0  3  0  0  0  0  0  0
   37.1950   27.2780   32.7040 S   0  0  0  0  0  0  0  0  0  0  0  0
   37.3780   25.6130   33.4740 C   0  0  0  0  0  3  0  0  0  0  0  0
   37.2930   24.9130   32.6430 H   0  0  0  0  0  0  0  0  0  0  0  0
   41.0790   25.9750   34.1880 C   0  0  0  0  0  0  0  0  0  0  0  0
   42.1220   25.3430   33.8100 O   0  0  0  0  0  0  0  0  0  0  0  0
   42.1120   26.2440   35.0620 O   0  0  0  0  0  0  0  0  0  0  0  0
   41.9650   26.1500   36.0810 H   0  0  0  0  0  0  0  0  0  0  0  0
  1  7  1  1  0  0  0
  1  6  1  0  0  0  0
  2  8  1  0  0  0  0
  2  3  1  0  0  0  0
  2  1  1  0  0  0  0
  3 10  1  6  0  0  0
  3  4  1  0  0  0  0
  4 12  1  0  0  0  0
  4 11  1  0  0  0  0
  4  5  1  0  0  0  0
  5 13  1  0  0  0  0
  5 14  1  0  0  0  0
  6  5  1  0  0  0  0
  6 16  1  0  0  0  0
  9  2  1  0  0  0  0
 15  6  1  0  0  0  0
 17 18  1  0  0  0  0
 17  1  1  0  0  0  0
 18 23  1  0  0  0  0
 19 24  1  0  0  0  0
 19 18  2  0  0  0  0
 20 19  1  0  0  0  0
 21 22  1  0  0  0  0
 21 20  2  0  0  0  0
 22 17  2  0  0  0  0
 25 21  1  0  0  0  0
 26  3  1  0  0  0  0
 27 26  1  0  0  0  0
 28 38  1  0  0  0  0
 28 27  2  0  0  0  0
 29 28  1  0  0  0  0
 30 29  1  0  0  0  0
 31 30  2  0  0  0  0
 32 30  1  0  0  0  0
 33 32  1  0  0  0  0
 34 32  1  6  0  0  0
 34 29  1  0  0  0  0
 34 35  1  0  0  0  0
 35 36  1  0  0  0  0
 36 27  1  0  0  0  0
 37 36  1  0  0  0  0
 38 40  1  0  0  0  0
 39 38  2  0  0  0  0
 40 41  1  0  0  0  0
M  END
>  <minimizedAffinity>
-5.2261548

$$$$
