
 OpenBabel03272502583D

 41 44  0  0  1  0  0  0  0  0999 V2000
   35.7690   29.6250   48.7080 N   0  0  0  0  0  0  0  0  0  0  0  0
   36.6490   28.8800   49.5690 C   0  0  0  0  0  0  0  0  0  0  0  0
   37.2390   29.5700   50.7230 C   0  0  0  0  0  0  0  0  0  0  0  0
   37.4050   31.0400   50.6500 C   0  0  0  0  0  0  0  0  0  0  0  0
   36.5030   31.7250   49.6490 C   0  0  0  0  0  0  0  0  0  0  0  0
   36.4220   30.8640   48.3830 C   0  0  1  0  0  0  0  0  0  0  0  0
   37.4500   28.4380   48.9300 H   0  0  0  0  0  0  0  0  0  0  0  0
   36.0570   27.9960   49.9250 H   0  0  0  0  0  0  0  0  0  0  0  0
   36.6180   29.3540   51.6360 H   0  0  0  0  0  0  0  0  0  0  0  0
   38.2350   29.1260   50.9380 H   0  0  0  0  0  0  0  0  0  0  0  0
   37.2250   31.5460   51.6220 H   0  0  0  0  0  0  0  0  0  0  0  0
   38.4560   31.3150   50.3730 H   0  0  0  0  0  0  0  0  0  0  0  0
   36.9670   32.6760   49.3280 H   0  0  0  0  0  0  0  0  0  0  0  0
   35.5040   31.9360   50.0520 H   0  0  0  0  0  0  0  0  0  0  0  0
   35.9410   31.4120   47.5610 H   0  0  0  0  0  0  0  0  0  0  0  0
   34.4850   29.1980   48.2640 C   0  0  0  0  0  0  0  0  0  0  0  0
   33.8610   29.6560   47.1000 C   0  0  0  0  0  0  0  0  0  0  0  0
   32.6100   29.1570   46.7870 C   0  0  0  0  0  0  0  0  0  0  0  0
   32.0510   28.2440   47.6310 N   0  0  0  0  0  0  0  0  0  0  0  0
   32.6830   27.8340   48.7370 C   0  0  0  0  0  0  0  0  0  0  0  0
   33.9060   28.3080   49.0630 N   0  0  0  0  0  0  0  0  0  0  0  0
   34.3880   30.3760   46.5030 H   0  0  0  0  0  0  0  0  0  0  0  0
   32.1910   29.5510   45.8810 H   0  0  0  0  0  0  0  0  0  0  0  0
   32.1490   27.1060   49.3390 H   0  0  0  0  0  0  0  0  0  0  0  0
   37.7550   30.6810   48.0040 O   0  0  0  0  0  0  0  0  0  0  0  0
   38.1560   31.6400   47.0760 C   0  0  0  0  0  2  0  0  0  0  0  0
   38.1510   31.0170   45.7360 C   0  0  0  0  0  0  0  0  0  0  0  0
   39.2420   30.9200   44.9880 C   0  0  0  0  0  0  0  0  0  0  0  0
   39.1130   30.3010   43.7150 N   0  0  0  0  0  0  0  0  0  0  0  0
   39.5630   29.3380   42.7370 C   0  0  0  0  0  0  0  0  0  0  0  0
   40.7310   28.9270   42.4500 O   0  0  0  0  0  0  0  0  0  0  0  0
   38.1270   29.1840   42.3800 C   0  0  0  0  0  3  0  0  0  0  0  0
   37.9290   28.9690   41.3160 H   0  0  0  0  0  0  0  0  0  0  0  0
   38.0850   30.6530   42.7430 C   0  0  1  0  0  3  0  0  0  0  0  0
   36.5140   31.0020   43.6210 S   0  0  0  0  0  0  0  0  0  0  0  0
   36.8220   30.5060   45.3410 C   0  0  0  0  0  3  0  0  0  0  0  0
   36.0400   31.0090   45.9360 H   0  0  0  0  0  0  0  0  0  0  0  0
   40.5770   31.4120   45.3930 C   0  0  0  0  0  0  0  0  0  0  0  0
   41.2530   32.4640   45.4290 O   0  0  0  0  0  0  0  0  0  0  0  0
   41.5910   30.6690   45.9360 O   0  0  0  0  0  0  0  0  0  0  0  0
   42.4970   30.4880   45.5490 H   0  0  0  0  0  0  0  0  0  0  0  0
  1  2  1  0  0  0  0
  2  8  1  0  0  0  0
  2  3  1  0  0  0  0
  3 10  1  0  0  0  0
  3  9  1  0  0  0  0
  4  3  1  0  0  0  0
  4 11  1  0  0  0  0
  5 14  1  0  0  0  0
  5  4  1  0  0  0  0
  6 15  1  6  0  0  0
  6  1  1  0  0  0  0
  6  5  1  0  0  0  0
  7  2  1  0  0  0  0
 12  4  1  0  0  0  0
 13  5  1  0  0  0  0
 16  1  1  0  0  0  0
 16 21  1  0  0  0  0
 17 16  2  0  0  0  0
 18 17  1  0  0  0  0
 18 19  2  0  0  0  0
 19 20  1  0  0  0  0
 20 21  2  0  0  0  0
 20 24  1  0  0  0  0
 22 17  1  0  0  0  0
 23 18  1  0  0  0  0
 25  6  1  0  0  0  0
 26 25  1  0  0  0  0
 27 26  1  0  0  0  0
 28 38  1  0  0  0  0
 28 27  2  0  0  0  0
 29 28  1  0  0  0  0
 30 29  1  0  0  0  0
 31 30  2  0  0  0  0
 32 30  1  0  0  0  0
 33 32  1  0  0  0  0
 34 32  1  6  0  0  0
 34 35  1  0  0  0  0
 34 29  1  0  0  0  0
 35 36  1  0  0  0  0
 36 27  1  0  0  0  0
 36 37  1  0  0  0  0
 38 39  2  0  0  0  0
 38 40  1  0  0  0  0
 41 40  1  0  0  0  0
M  END
>  <minimizedAffinity>
-6.32609606

>  <minimizedRMSD>
1.74144721

$$$$
