
 OpenBabel03262521243D

 54 58  0  0  1  0  0  0  0  0999 V2000
   39.8850   25.1470   53.3960 C   0  0  0  0  0  0  0  0  0  0  0  0
   39.6080   26.1480   52.4740 C   0  0  0  0  0  0  0  0  0  0  0  0
   40.1700   25.9620   51.1950 C   0  0  0  0  0  0  0  0  0  0  0  0
   40.9340   24.8890   50.8570 C   0  0  0  0  0  0  0  0  0  0  0  0
   41.5730   24.4750   49.7700 N   0  0  0  0  0  0  0  0  0  0  0  0
   42.2190   23.2750   49.9920 C   0  0  0  0  0  0  0  0  0  0  0  0
   41.9500   22.9280   51.3330 C   0  0  0  0  0  0  0  0  0  0  0  0
   41.1680   23.9380   51.8140 C   0  0  0  0  0  0  0  0  0  0  0  0
   40.6520   24.0660   53.0590 C   0  0  0  0  0  0  0  0  0  0  0  0
   39.4110   25.3810   54.3430 H   0  0  0  0  0  0  0  0  0  0  0  0
   40.0170   26.6930   50.3840 H   0  0  0  0  0  0  0  0  0  0  0  0
   41.5790   25.0010   48.8620 H   0  0  0  0  0  0  0  0  0  0  0  0
   42.7960   22.7410   49.2770 H   0  0  0  0  0  0  0  0  0  0  0  0
   42.3650   22.0180   51.7250 H   0  0  0  0  0  0  0  0  0  0  0  0
   38.6530   27.6160   52.6730 S   0  0  0  0  0  0  0  0  0  0  0  0
   37.9830   28.2940   51.1730 C   0  0  0  0  0  0  0  0  0  0  0  0
   38.8410   28.7280   50.5890 H   0  0  0  0  0  0  0  0  0  0  0  0
   37.5740   27.4830   50.5320 H   0  0  0  0  0  0  0  0  0  0  0  0
   36.9650   29.3950   51.3870 C   0  0  0  0  0  0  0  0  0  0  0  0
   35.9910   28.9780   51.0410 H   0  0  0  0  0  0  0  0  0  0  0  0
   36.8350   29.4450   52.5100 H   0  0  0  0  0  0  0  0  0  0  0  0
   37.3270   30.5920   50.8510 C   0  0  0  0  0  0  0  0  0  0  0  0
   38.3470   30.9500   51.1820 H   0  0  0  0  0  0  0  0  0  0  0  0
   36.6060   31.4290   50.9650 H   0  0  0  0  0  0  0  0  0  0  0  0
   37.4010   30.2140   49.5350 O   0  0  0  0  0  0  0  0  0  0  0  0
   38.0570   31.0360   48.6660 C   0  0  0  0  0  0  0  0  0  0  0  0
   38.3210   32.2800   49.1870 C   0  0  0  0  0  0  0  0  0  0  0  0
   38.9930   33.2260   48.3930 C   0  0  0  0  0  0  0  0  0  0  0  0
   39.3470   32.8430   47.1360 N   0  0  0  0  0  0  0  0  0  0  0  0
   39.0710   31.5950   46.6400 C   0  0  0  0  0  0  0  0  0  0  0  0
   38.4250   30.7070   47.4240 N   0  0  0  0  0  0  0  0  0  0  0  0
   40.1100   32.3730   44.6370 C   0  0  0  0  0  0  0  0  0  0  0  0
   40.3180   33.5250   45.1050 O   0  0  0  0  0  0  0  0  0  0  0  0
   39.4830   31.2990   45.3180 N   0  0  0  0  0  0  0  0  0  0  0  0
   38.0910   32.6950   50.1590 H   0  0  0  0  0  0  0  0  0  0  0  0
   39.2420   34.2150   48.7080 H   0  0  0  0  0  0  0  0  0  0  0  0
   40.4730   32.2670   43.6080 H   0  0  0  0  0  0  0  0  0  0  0  0
   39.3420   30.3840   44.8840 H   0  0  0  0  0  0  0  0  0  0  0  0
   40.7610   23.1380   54.2160 C   0  0  0  0  0  2  0  0  0  0  0  0
   41.9990   23.2910   55.0150 C   0  0  0  0  0  0  0  0  0  0  0  0
   42.7730   22.2110   55.1350 C   0  0  0  0  0  0  0  0  0  0  0  0
   43.9890   22.0400   55.8150 N   0  0  0  0  0  0  0  0  0  0  0  0
   44.9820   21.2390   56.4390 C   0  0  0  0  0  0  0  0  0  0  0  0
   45.3710   20.0520   56.1840 O   0  0  0  0  0  0  0  0  0  0  0  0
   45.2340   22.3780   57.3640 C   0  0  0  0  0  3  0  0  0  0  0  0
   46.2780   22.5460   57.6660 H   0  0  0  0  0  0  0  0  0  0  0  0
   44.7880   23.1770   56.1330 C   0  0  2  0  0  3  0  0  0  0  0  0
   43.7770   24.5580   56.6750 S   0  0  0  0  0  0  0  0  0  0  0  0
   42.3060   24.6060   55.6230 C   0  0  0  0  0  3  0  0  0  0  0  0
   42.4960   25.2920   54.7580 H   0  0  0  0  0  0  0  0  0  0  0  0
   42.2880   20.9880   54.4470 C   0  0  0  0  0  0  0  0  0  0  0  0
   43.0100   20.3820   53.5790 O   0  0  0  0  0  0  0  0  0  0  0  0
   41.6020   19.8910   53.9650 O   0  0  0  0  0  0  0  0  0  0  0  0
   40.6430   19.9510   53.6500 H   0  0  0  0  0  0  0  0  0  0  0  0
  1 10  1  0  0  0  0
  2 15  1  0  0  0  0
  2  1  2  0  0  0  0
  3  2  1  0  0  0  0
  4  3  2  0  0  0  0
  4  8  1  0  0  0  0
  5  6  1  0  0  0  0
  5  4  1  0  0  0  0
  6  7  2  0  0  0  0
  7 14  1  0  0  0  0
  7  8  1  0  0  0  0
  8  9  2  0  0  0  0
  9  1  1  0  0  0  0
  9 39  1  0  0  0  0
 11  3  1  0  0  0  0
 12  5  1  0  0  0  0
 13  6  1  0  0  0  0
 16 19  1  0  0  0  0
 16 15  1  0  0  0  0
 17 16  1  0  0  0  0
 18 16  1  0  0  0  0
 19 21  1  0  0  0  0
 20 19  1  0  0  0  0
 22 24  1  0  0  0  0
 22 23  1  0  0  0  0
 22 19  1  0  0  0  0
 25 22  1  0  0  0  0
 26 27  1  0  0  0  0
 26 25  1  0  0  0  0
 27 35  1  0  0  0  0
 28 36  1  0  0  0  0
 28 27  2  0  0  0  0
 29 28  1  0  0  0  0
 30 29  2  0  0  0  0
 30 31  1  0  0  0  0
 31 26  2  0  0  0  0
 32 33  2  0  0  0  0
 32 34  1  0  0  0  0
 34 30  1  0  0  0  0
 37 32  1  0  0  0  0
 38 34  1  0  0  0  0
 39 40  1  0  0  0  0
 40 41  2  0  0  0  0
 40 49  1  0  0  0  0
 41 42  1  0  0  0  0
 42 47  1  0  0  0  0
 42 43  1  0  0  0  0
 43 45  1  0  0  0  0
 44 43  2  0  0  0  0
 45 46  1  0  0  0  0
 47 48  1  1  0  0  0
 47 45  1  0  0  0  0
 49 48  1  0  0  0  0
 50 49  1  0  0  0  0
 51 41  1  0  0  0  0
 52 51  2  0  0  0  0
 53 51  1  0  0  0  0
 54 53  1  0  0  0  0
M  END
>  <minimizedAffinity>
-4.31447268

>  <minimizedRMSD>
0.958806336

$$$$
