
 OpenBabel03272506503D

 41 45  0  0  1  0  0  0  0  0999 V2000
   34.1090   29.5800   48.4640 C   0  0  1  0  0  0  0  0  0  0  0  0
   33.9570   29.7490   47.0210 C   0  0  0  0  0  0  0  0  0  0  0  0
   34.0610   28.5050   46.1700 C   0  0  0  0  0  0  0  0  0  0  0  0
   33.4950   27.2870   46.7320 C   0  0  2  0  0  0  0  0  0  0  0  0
   33.6070   27.1040   48.2170 C   0  0  0  0  0  0  0  0  0  0  0  0
   33.4050   28.3590   48.9880 C   0  0  0  0  0  0  0  0  0  0  0  0
   33.5620   30.4360   48.9780 H   0  0  0  0  0  0  0  0  0  0  0  0
   34.5200   30.5280   46.5350 H   0  0  0  0  0  0  0  0  0  0  0  0
   32.8740   30.0640   46.8580 H   0  0  0  0  0  0  0  0  0  0  0  0
   33.6280   28.7680   45.1940 H   0  0  0  0  0  0  0  0  0  0  0  0
   35.1620   28.3560   46.0090 H   0  0  0  0  0  0  0  0  0  0  0  0
   32.3830   27.2850   46.5180 H   0  0  0  0  0  0  0  0  0  0  0  0
   34.5730   26.5970   48.4660 H   0  0  0  0  0  0  0  0  0  0  0  0
   32.8230   26.3880   48.5360 H   0  0  0  0  0  0  0  0  0  0  0  0
   33.5200   28.1590   50.0430 H   0  0  0  0  0  0  0  0  0  0  0  0
   32.2970   28.6010   48.8710 H   0  0  0  0  0  0  0  0  0  0  0  0
   36.5390   30.2970   48.2410 C   0  0  0  0  0  0  0  0  0  0  0  0
   35.4850   29.7260   48.9980 C   0  0  0  0  0  0  0  0  0  0  0  0
   35.7870   29.3050   50.2800 C   0  0  0  0  0  0  0  0  0  0  0  0
   37.0560   29.4490   50.7630 N   0  0  0  0  0  0  0  0  0  0  0  0
   38.0310   30.0030   49.9960 C   0  0  0  0  0  0  0  0  0  0  0  0
   37.7650   30.4250   48.7360 N   0  0  0  0  0  0  0  0  0  0  0  0
   36.3790   30.6480   47.2350 H   0  0  0  0  0  0  0  0  0  0  0  0
   35.1160   28.8580   50.9900 H   0  0  0  0  0  0  0  0  0  0  0  0
   39.0310   30.1010   50.4130 H   0  0  0  0  0  0  0  0  0  0  0  0
   34.1030   26.0490   46.1300 C   0  0  0  0  0  0  0  0  0  0  0  0
   33.2640   25.2480   45.2520 C   0  0  0  0  0  0  0  0  0  0  0  0
   33.0080   24.0370   45.7520 C   0  0  0  0  0  0  0  0  0  0  0  0
   32.2550   23.0020   45.1700 N   0  0  0  0  0  0  0  0  0  0  0  0
   31.7610   21.6600   45.0890 C   0  0  2  0  0  0  0  0  0  0  0  0
   31.5650   20.7550   45.9380 O   0  0  0  0  0  0  0  0  0  0  0  0
   31.5690   21.7530   43.6110 C   0  0  0  0  0  0  0  0  0  0  0  0
   30.6150   21.3580   43.2300 H   0  0  0  0  0  0  0  0  0  0  0  0
   31.4750   23.2040   43.9640 C   0  0  1  0  0  0  0  0  0  0  0  0
   32.5460   24.1980   42.8650 S   0  0  0  0  0  0  0  0  0  0  0  0
   32.7450   25.6660   43.9550 C   0  0  0  0  0  0  0  0  0  0  0  0
   31.6870   26.0410   44.0740 H   0  0  0  0  0  0  0  0  0  0  0  0
   33.5550   23.6310   47.0700 C   0  0  0  0  0  0  0  0  0  0  0  0
   32.8490   23.3170   48.0880 O   0  0  0  0  0  0  0  0  0  0  0  0
   34.3910   23.3180   48.0950 O   0  0  0  0  0  0  0  0  0  0  0  0
   35.1420   23.9660   48.3540 H   0  0  0  0  0  0  0  0  0  0  0  0
  1  7  1  1  0  0  0
  1  6  1  0  0  0  0
  1 18  1  0  0  0  0
  2  1  1  0  0  0  0
  3  4  1  0  0  0  0
  3  2  1  0  0  0  0
  4 12  1  6  0  0  0
  4  5  1  0  0  0  0
  5 13  1  0  0  0  0
  5 14  1  0  0  0  0
  5  6  1  0  0  0  0
  6 15  1  0  0  0  0
  8  2  1  0  0  0  0
  9  2  1  0  0  0  0
 10  3  1  0  0  0  0
 11  3  1  0  0  0  0
 16  6  1  0  0  0  0
 17 22  2  0  0  0  0
 17 18  1  0  0  0  0
 18 19  2  0  0  0  0
 19 20  1  0  0  0  0
 19 24  1  0  0  0  0
 21 25  1  0  0  0  0
 21 20  2  0  0  0  0
 22 21  1  0  0  0  0
 23 17  1  0  0  0  0
 26  4  1  0  0  0  0
 27 28  2  0  0  0  0
 27 26  1  0  0  0  0
 28 38  1  0  0  0  0
 29 28  1  0  0  0  0
 30 29  1  0  0  0  0
 30 31  1  1  0  0  0
 32 34  1  0  0  0  0
 32 30  1  0  0  0  0
 33 32  1  0  0  0  0
 34 35  1  1  0  0  0
 34 30  1  0  0  0  0
 34 29  1  0  0  0  0
 35 36  1  0  0  0  0
 36 37  1  0  0  0  0
 36 27  1  0  0  0  0
 38 39  2  0  0  0  0
 38 40  1  0  0  0  0
 40 41  1  0  0  0  0
M  END
>  <minimizedAffinity>
-4.1699152

>  <minimizedRMSD>
1.09845185

$$$$
