
 OpenBabel03272509403D

 42 45  0  0  1  0  0  0  0  0999 V2000
   36.9830   30.9460   49.1000 C   0  0  0  0  0  0  0  0  0  0  0  0
   36.6720   31.8530   50.1110 C   0  0  0  0  0  0  0  0  0  0  0  0
   37.2500   33.1160   50.1970 C   0  0  0  0  0  0  0  0  0  0  0  0
   38.1880   33.5010   49.2300 C   0  0  0  0  0  0  0  0  0  0  0  0
   38.4840   32.6010   48.2450 C   0  0  0  0  0  0  0  0  0  0  0  0
   37.8890   31.3570   48.1930 C   0  0  0  0  0  0  0  0  0  0  0  0
   35.9460   31.6120   50.8940 H   0  0  0  0  0  0  0  0  0  0  0  0
   36.9740   33.7840   51.0010 H   0  0  0  0  0  0  0  0  0  0  0  0
   38.6240   34.4870   49.3180 H   0  0  0  0  0  0  0  0  0  0  0  0
   39.2190   32.9850   47.5430 H   0  0  0  0  0  0  0  0  0  0  0  0
   36.3270   29.6610   49.0990 C   0  0  0  0  0  0  0  0  0  0  0  0
   36.8750   28.7850   49.8600 O   0  0  0  0  0  0  0  0  0  0  0  0
   33.6150   30.1400   46.7410 C   0  0  0  0  0  0  0  0  0  0  0  0
   32.9240   28.9390   46.7550 C   0  0  0  0  0  0  0  0  0  0  0  0
   33.3900   27.9480   47.5830 C   0  0  0  0  0  0  0  0  0  0  0  0
   34.4930   28.1710   48.3480 N   0  0  0  0  0  0  0  0  0  0  0  0
   35.1330   29.3260   48.3140 C   0  0  0  0  0  0  0  0  0  0  0  0
   34.6850   30.3120   47.5040 N   0  0  0  0  0  0  0  0  0  0  0  0
   33.3000   30.9790   46.1030 H   0  0  0  0  0  0  0  0  0  0  0  0
   32.0650   28.8980   46.0980 H   0  0  0  0  0  0  0  0  0  0  0  0
   32.8540   27.0260   47.5910 H   0  0  0  0  0  0  0  0  0  0  0  0
   38.3240   30.5290   47.0830 C   0  0  0  0  0  3  0  0  0  0  0  0
   39.0560   30.9050   46.0430 C   0  0  0  0  0  3  0  0  0  0  0  0
   39.5600   30.1750   44.8810 C   0  0  0  0  0  0  0  0  0  0  0  0
   40.5790   30.5180   44.6210 H   0  0  0  0  0  0  0  0  0  0  0  0
   39.6940   29.0920   45.1630 H   0  0  0  0  0  0  0  0  0  0  0  0
   37.4360   27.7950   40.5350 C   0  0  0  0  0  0  0  0  0  0  0  0
   38.6460   28.2500   40.8120 C   0  0  0  0  0  0  0  0  0  0  0  0
   38.8040   29.1340   41.9430 N   0  0  0  0  0  0  0  0  0  0  0  0
   39.4340   30.3410   42.4210 C   0  0  0  0  0  0  0  0  0  0  0  0
   40.2940   31.1840   41.9920 O   0  0  0  0  0  0  0  0  0  0  0  0
   38.6540   30.2180   43.6700 C   0  0  1  0  0  3  0  0  0  0  0  0
   38.1370   28.8830   43.2300 C   0  0  1  0  0  3  0  0  0  0  0  0
   36.3900   28.7780   42.8820 S   0  0  0  0  0  0  0  0  0  0  0  0
   36.1610   28.0790   41.2310 C   0  0  0  0  0  3  0  0  0  0  0  0
   35.4940   28.7370   40.6110 H   0  0  0  0  0  0  0  0  0  0  0  0
   37.2950   26.8950   39.3910 C   0  0  0  0  0  2  0  0  0  0  0  0
   37.9390   26.0070   39.5570 H   0  0  0  0  0  0  0  0  0  0  0  0
   39.8310   27.8980   40.0350 C   0  0  0  0  0  0  0  0  0  0  0  0
   40.5880   26.9300   40.2200 O   0  0  0  0  0  0  0  0  0  0  0  0
   40.2850   28.6080   38.9630 O   0  0  0  0  0  0  0  0  0  0  0  0
   40.5960   28.1640   38.1260 H   0  0  0  0  0  0  0  0  0  0  0  0
  1  2  1  0  0  0  0
  2  3  2  0  0  0  0
  2  7  1  0  0  0  0
  3  8  1  0  0  0  0
  4  9  1  0  0  0  0
  4  3  1  0  0  0  0
  5  4  2  0  0  0  0
  6  5  1  0  0  0  0
  6  1  2  0  0  0  0
 10  5  1  0  0  0  0
 11  1  1  0  0  0  0
 11 12  2  0  0  0  0
 13 14  2  0  0  0  0
 13 18  1  0  0  0  0
 14 15  1  0  0  0  0
 15 21  1  0  0  0  0
 15 16  2  0  0  0  0
 17 16  1  0  0  0  0
 17 11  1  0  0  0  0
 18 17  2  0  0  0  0
 19 13  1  0  0  0  0
 20 14  1  0  0  0  0
 22  6  1  0  0  0  0
 23 22  2  0  0  0  0
 24 26  1  0  0  0  0
 24 23  1  0  0  0  0
 25 24  1  0  0  0  0
 27 28  2  0  0  0  0
 27 35  1  0  0  0  0
 28 29  1  0  0  0  0
 29 30  1  0  0  0  0
 29 33  1  0  0  0  0
 30 32  1  0  0  0  0
 31 30  2  0  0  0  0
 32 24  1  1  0  0  0
 33 34  1  6  0  0  0
 33 32  1  0  0  0  0
 35 34  1  0  0  0  0
 36 35  1  0  0  0  0
 37 38  1  0  0  0  0
 37 27  1  0  0  0  0
 39 40  2  0  0  0  0
 39 28  1  0  0  0  0
 41 39  1  0  0  0  0
 42 41  1  0  0  0  0
M  END
>  <minimizedAffinity>
-5.96976948

>  <minimizedRMSD>
1.20947516

$$$$
