
 OpenBabel03272507423D

 48 52  0  0  1  0  0  0  0  0999 V2000
   36.5870   31.0120   49.9870 C   0  0  0  0  0  0  0  0  0  0  0  0
   35.4350   30.2340   49.9810 C   0  0  0  0  0  0  0  0  0  0  0  0
   35.2640   29.2130   50.8970 C   0  0  0  0  0  0  0  0  0  0  0  0
   36.2580   28.9950   51.8000 N   0  0  0  0  0  0  0  0  0  0  0  0
   37.3850   29.7730   51.7860 C   0  0  0  0  0  0  0  0  0  0  0  0
   37.5200   30.7420   50.8990 N   0  0  0  0  0  0  0  0  0  0  0  0
   34.4050   28.5610   50.9670 H   0  0  0  0  0  0  0  0  0  0  0  0
   38.1720   29.5870   52.5130 H   0  0  0  0  0  0  0  0  0  0  0  0
   34.0470   29.3480   48.1520 C   0  0  0  0  0  0  0  0  0  0  0  0
   34.6810   28.2800   47.8010 O   0  0  0  0  0  0  0  0  0  0  0  0
   34.3490   30.3480   49.1070 N   0  0  0  0  0  0  0  0  0  0  0  0
   33.8300   31.2300   49.2610 H   0  0  0  0  0  0  0  0  0  0  0  0
   29.6820   28.7300   45.1470 C   0  0  0  0  0  0  0  0  0  0  0  0
   30.9300   28.8340   44.7250 C   0  0  0  0  0  0  0  0  0  0  0  0
   31.9840   29.0770   45.6130 N   0  0  0  0  0  0  0  0  0  0  0  0
   33.1820   29.8010   45.9680 C   0  0  0  0  0  0  0  0  0  0  0  0
   34.0660   30.3520   45.2620 O   0  0  0  0  0  0  0  0  0  0  0  0
   32.7730   29.5290   47.3970 C   0  0  1  0  0  3  0  0  0  0  0  0
   32.0970   28.3130   46.8700 C   0  0  1  0  0  3  0  0  0  0  0  0
   30.4780   28.0670   47.6200 S   0  0  0  0  0  0  0  0  0  0  0  0
   29.2610   28.8660   46.5580 C   0  0  0  0  0  3  0  0  0  0  0  0
   29.2010   29.9650   46.7500 H   0  0  0  0  0  0  0  0  0  0  0  0
   28.6710   28.4680   44.1150 C   0  0  0  0  0  2  0  0  0  0  0  0
   28.4760   29.4390   43.6090 H   0  0  0  0  0  0  0  0  0  0  0  0
   31.1980   28.6860   43.3020 C   0  0  0  0  0  0  0  0  0  0  0  0
   32.2700   28.3000   42.7800 O   0  0  0  0  0  0  0  0  0  0  0  0
   31.1510   28.6480   41.9230 O   0  0  0  0  0  0  0  0  0  0  0  0
   30.3630   29.0390   41.3930 H   0  0  0  0  0  0  0  0  0  0  0  0
   36.5710   31.9570   49.0190 O   0  0  0  0  0  0  0  0  0  0  0  0
   38.1570   32.0160   47.1190 C   0  0  0  0  0  0  0  0  0  0  0  0
   37.6970   32.4230   48.3540 C   0  0  0  0  0  0  0  0  0  0  0  0
   38.3780   33.3960   49.0680 C   0  0  0  0  0  0  0  0  0  0  0  0
   39.5330   33.9580   48.5210 C   0  0  0  0  0  0  0  0  0  0  0  0
   39.9840   33.5450   47.2870 C   0  0  0  0  0  0  0  0  0  0  0  0
   39.2790   32.5780   46.6140 C   0  0  0  0  0  0  0  0  0  0  0  0
   38.0790   33.7660   50.0400 H   0  0  0  0  0  0  0  0  0  0  0  0
   40.0650   34.7170   49.0780 H   0  0  0  0  0  0  0  0  0  0  0  0
   40.8790   33.9640   46.8380 H   0  0  0  0  0  0  0  0  0  0  0  0
   39.7750   32.1410   45.2860 C   0  0  0  0  0  0  0  0  0  0  0  0
   40.6710   31.1600   44.9690 C   0  0  0  0  0  0  0  0  0  0  0  0
   40.8050   31.1360   43.5820 C   0  0  0  0  0  0  0  0  0  0  0  0
   39.9610   32.1280   43.1380 C   0  0  0  0  0  0  0  0  0  0  0  0
   39.3580   32.7140   44.1610 O   0  0  0  0  0  0  0  0  0  0  0  0
   41.1390   30.5610   45.7400 H   0  0  0  0  0  0  0  0  0  0  0  0
   41.4590   30.4440   43.0870 H   0  0  0  0  0  0  0  0  0  0  0  0
   39.8350   32.3680   42.0890 H   0  0  0  0  0  0  0  0  0  0  0  0
   36.7790   30.2100   45.9030 N   0  0  0  0  0  0  0  0  0  0  0  0
   37.3930   31.0100   46.4550 C   0  0  0  0  0  0  0  0  0  0  0  0
  1  6  1  0  0  0  0
  2  1  2  0  0  0  0
  2  3  1  0  0  0  0
  3  7  1  0  0  0  0
  3  4  2  0  0  0  0
  5  4  1  0  0  0  0
  5  8  1  0  0  0  0
  6  5  2  0  0  0  0
  9 11  1  0  0  0  0
 10  9  2  0  0  0  0
 11 12  1  0  0  0  0
 11  2  1  0  0  0  0
 13 21  1  0  0  0  0
 14 13  2  0  0  0  0
 14 15  1  0  0  0  0
 15 16  1  0  0  0  0
 15 19  1  0  0  0  0
 16 18  1  0  0  0  0
 17 16  2  0  0  0  0
 18  9  1  1  0  0  0
 19 18  1  0  0  0  0
 19 20  1  1  0  0  0
 21 22  1  0  0  0  0
 21 20  1  0  0  0  0
 23 13  1  0  0  0  0
 24 23  1  0  0  0  0
 25 14  1  0  0  0  0
 26 25  2  0  0  0  0
 27 25  1  0  0  0  0
 28 27  1  0  0  0  0
 29  1  1  0  0  0  0
 30 31  1  0  0  0  0
 31 29  1  0  0  0  0
 31 32  2  0  0  0  0
 32 36  1  0  0  0  0
 33 32  1  0  0  0  0
 33 37  1  0  0  0  0
 34 33  2  0  0  0  0
 35 30  2  0  0  0  0
 35 34  1  0  0  0  0
 38 34  1  0  0  0  0
 39 35  1  0  0  0  0
 40 39  2  0  0  0  0
 40 44  1  0  0  0  0
 41 40  1  0  0  0  0
 42 41  2  0  0  0  0
 42 43  1  0  0  0  0
 43 39  1  0  0  0  0
 45 41  1  0  0  0  0
 46 42  1  0  0  0  0
 47 48  3  0  0  0  0
 48 30  1  0  0  0  0
M  END
>  <minimizedAffinity>
-5.65541124

>  <minimizedRMSD>
0.851294637

$$$$
