
 OpenBabel03272509403D

 42 45  0  0  1  0  0  0  0  0999 V2000
   37.1070   30.9570   48.9870 C   0  0  0  0  0  0  0  0  0  0  0  0
   36.8990   31.9350   49.9570 C   0  0  0  0  0  0  0  0  0  0  0  0
   37.5440   33.1670   49.9400 C   0  0  0  0  0  0  0  0  0  0  0  0
   38.4470   33.4470   48.9060 C   0  0  0  0  0  0  0  0  0  0  0  0
   38.6430   32.4790   47.9610 C   0  0  0  0  0  0  0  0  0  0  0  0
   37.9830   31.2680   48.0110 C   0  0  0  0  0  0  0  0  0  0  0  0
   36.2050   31.7770   50.7900 H   0  0  0  0  0  0  0  0  0  0  0  0
   37.3460   33.8930   50.7170 H   0  0  0  0  0  0  0  0  0  0  0  0
   38.9360   34.4120   48.9130 H   0  0  0  0  0  0  0  0  0  0  0  0
   39.3570   32.7830   47.2010 H   0  0  0  0  0  0  0  0  0  0  0  0
   36.3880   29.7120   49.0940 C   0  0  0  0  0  0  0  0  0  0  0  0
   36.8940   28.8770   49.9260 O   0  0  0  0  0  0  0  0  0  0  0  0
   33.6140   30.1810   46.8080 C   0  0  0  0  0  0  0  0  0  0  0  0
   32.9280   28.9770   46.8390 C   0  0  0  0  0  0  0  0  0  0  0  0
   33.4200   27.9870   47.6540 C   0  0  0  0  0  0  0  0  0  0  0  0
   34.5410   28.2140   48.3910 N   0  0  0  0  0  0  0  0  0  0  0  0
   35.1750   29.3720   48.3400 C   0  0  0  0  0  0  0  0  0  0  0  0
   34.7030   30.3560   47.5420 N   0  0  0  0  0  0  0  0  0  0  0  0
   33.2790   31.0190   46.1790 H   0  0  0  0  0  0  0  0  0  0  0  0
   32.0530   28.9330   46.2040 H   0  0  0  0  0  0  0  0  0  0  0  0
   32.8880   27.0640   47.6750 H   0  0  0  0  0  0  0  0  0  0  0  0
   38.3150   30.3570   46.9310 C   0  0  0  0  0  3  0  0  0  0  0  0
   38.8030   30.6740   45.7400 C   0  0  0  0  0  3  0  0  0  0  0  0
   39.1810   29.8600   44.5850 C   0  0  0  0  0  0  0  0  0  0  0  0
   40.2370   29.5410   44.6660 H   0  0  0  0  0  0  0  0  0  0  0  0
   38.5960   28.8970   44.6130 H   0  0  0  0  0  0  0  0  0  0  0  0
   36.4850   33.4080   41.5510 C   0  0  0  0  0  0  0  0  0  0  0  0
   36.1430   32.2620   42.1160 C   0  0  0  0  0  0  0  0  0  0  0  0
   37.1920   31.3890   42.5850 N   0  0  0  0  0  0  0  0  0  0  0  0
   37.6550   30.0230   42.6520 C   0  0  0  0  0  0  0  0  0  0  0  0
   37.2050   28.8670   42.3460 O   0  0  0  0  0  0  0  0  0  0  0  0
   38.9170   30.5110   43.2440 C   0  0  1  0  0  3  0  0  0  0  0  0
   38.3610   31.8980   43.3230 C   0  0  1  0  0  3  0  0  0  0  0  0
   39.1240   33.1260   42.2760 S   0  0  0  0  0  0  0  0  0  0  0  0
   37.8400   33.9470   41.3040 C   0  0  0  0  0  3  0  0  0  0  0  0
   38.0960   33.9230   40.2080 H   0  0  0  0  0  0  0  0  0  0  0  0
   35.4070   34.2830   41.0870 C   0  0  0  0  0  2  0  0  0  0  0  0
   34.7590   34.5340   41.9500 H   0  0  0  0  0  0  0  0  0  0  0  0
   34.7570   31.8400   42.2940 C   0  0  0  0  0  0  0  0  0  0  0  0
   34.0260   32.0540   43.2750 O   0  0  0  0  0  0  0  0  0  0  0  0
   34.0480   31.1250   41.3730 O   0  0  0  0  0  0  0  0  0  0  0  0
   33.1040   31.3460   41.1440 H   0  0  0  0  0  0  0  0  0  0  0  0
  1 11  1  0  0  0  0
  1  2  1  0  0  0  0
  2  7  1  0  0  0  0
  3  2  2  0  0  0  0
  3  8  1  0  0  0  0
  4  9  1  0  0  0  0
  4  3  1  0  0  0  0
  5  6  1  0  0  0  0
  5  4  2  0  0  0  0
  6  1  2  0  0  0  0
 10  5  1  0  0  0  0
 11 12  2  0  0  0  0
 13 14  2  0  0  0  0
 13 18  1  0  0  0  0
 14 15  1  0  0  0  0
 15 21  1  0  0  0  0
 15 16  2  0  0  0  0
 17 16  1  0  0  0  0
 17 11  1  0  0  0  0
 18 17  2  0  0  0  0
 19 13  1  0  0  0  0
 20 14  1  0  0  0  0
 22  6  1  0  0  0  0
 23 22  2  0  0  0  0
 24 26  1  0  0  0  0
 24 25  1  0  0  0  0
 24 23  1  0  0  0  0
 27 28  2  0  0  0  0
 28 39  1  0  0  0  0
 28 29  1  0  0  0  0
 29 30  1  0  0  0  0
 29 33  1  0  0  0  0
 30 32  1  0  0  0  0
 31 30  2  0  0  0  0
 32 33  1  0  0  0  0
 32 24  1  1  0  0  0
 33 34  1  6  0  0  0
 35 27  1  0  0  0  0
 35 34  1  0  0  0  0
 36 35  1  0  0  0  0
 37 27  1  0  0  0  0
 37 38  1  0  0  0  0
 39 40  2  0  0  0  0
 41 39  1  0  0  0  0
 42 41  1  0  0  0  0
M  END
>  <minimizedAffinity>
-6.21124983

>  <minimizedRMSD>
1.22730625

$$$$
