
 OpenBabel03272507333D

 43 48  0  0  1  0  0  0  0  0999 V2000
   34.0870   25.6940   47.3460 C   0  0  1  0  0  0  0  0  0  0  0  0
   32.7480   24.8560   47.3000 C   0  0  0  0  0  0  0  0  0  0  0  0
   33.7360   24.8580   46.1950 C   0  0  2  0  0  0  0  0  0  0  0  0
   34.6280   25.3880   48.2670 H   0  0  0  0  0  0  0  0  0  0  0  0
   31.8190   25.3960   47.1530 H   0  0  0  0  0  0  0  0  0  0  0  0
   32.6990   23.9740   47.9500 H   0  0  0  0  0  0  0  0  0  0  0  0
   33.5050   25.4560   45.2750 H   0  0  0  0  0  0  0  0  0  0  0  0
   33.7570   27.1600   47.3230 C   0  0  0  0  0  0  0  0  0  0  0  0
   33.0890   27.6760   46.3680 O   0  0  0  0  0  0  0  0  0  0  0  0
   35.5230   29.2060   49.6670 C   0  0  0  0  0  0  0  0  0  0  0  0
   34.2500   29.3300   50.1950 C   0  0  0  0  0  0  0  0  0  0  0  0
   33.3860   28.5750   49.3860 C   0  0  0  0  0  0  0  0  0  0  0  0
   34.1950   28.0350   48.4090 C   0  0  0  0  0  0  0  0  0  0  0  0
   35.4320   28.4340   48.6170 O   0  0  0  0  0  0  0  0  0  0  0  0
   33.8360   29.8650   51.0570 H   0  0  0  0  0  0  0  0  0  0  0  0
   32.3150   28.4450   49.5040 H   0  0  0  0  0  0  0  0  0  0  0  0
   36.6680   29.8640   50.2640 C   0  0  0  0  0  0  0  0  0  0  0  0
   36.9930   29.5820   51.4270 O   0  0  0  0  0  0  0  0  0  0  0  0
   37.3690   30.8200   49.4520 C   0  0  0  0  0  0  0  0  0  0  0  0
   37.4060   32.1270   49.9060 C   0  0  0  0  0  0  0  0  0  0  0  0
   38.0770   33.0810   49.1360 C   0  0  0  0  0  0  0  0  0  0  0  0
   38.6680   32.6710   47.9620 N   0  0  0  0  0  0  0  0  0  0  0  0
   38.6100   31.3970   47.5570 C   0  0  0  0  0  0  0  0  0  0  0  0
   37.9700   30.4760   48.2870 N   0  0  0  0  0  0  0  0  0  0  0  0
   36.9420   32.4420   50.8250 H   0  0  0  0  0  0  0  0  0  0  0  0
   38.1220   34.1200   49.4710 H   0  0  0  0  0  0  0  0  0  0  0  0
   39.0860   31.1050   46.6250 H   0  0  0  0  0  0  0  0  0  0  0  0
   34.3970   23.5420   45.9180 C   0  0  0  0  0  2  0  0  0  0  0  0
   35.7920   23.6550   45.4820 C   0  0  0  0  0  0  0  0  0  0  0  0
   36.8410   23.0710   46.0410 C   0  0  0  0  0  0  0  0  0  0  0  0
   38.1510   23.2700   45.5270 N   0  0  0  0  0  0  0  0  0  0  0  0
   39.5270   22.9310   45.6160 C   0  0  1  0  0  0  0  0  0  0  0  0
   40.3470   22.6000   46.5240 O   0  0  0  0  0  1  0  0  0  0  0  0
   39.6410   23.1220   44.1520 C   0  0  0  0  0  3  0  0  0  0  0  0
   39.3410   22.2830   43.5160 H   0  0  0  0  0  0  0  0  0  0  0  0
   38.5580   24.1350   44.4570 C   0  0  1  0  0  0  0  0  0  0  0  0
   37.2640   24.2560   43.2280 S   0  0  0  0  0  0  0  0  0  0  0  0
   35.8450   24.5440   44.3140 C   0  0  0  0  0  3  0  0  0  0  0  0
   35.9080   25.6150   44.6480 H   0  0  0  0  0  0  0  0  0  0  0  0
   36.7160   22.1920   47.2270 C   0  0  0  0  0  0  0  0  0  0  0  0
   35.8960   21.3370   47.5610 O   0  0  0  0  0  0  0  0  0  0  0  0
   37.6200   22.2080   48.2600 O   0  0  0  0  0  0  0  0  0  0  0  0
   37.9730   21.3800   48.6820 H   0  0  0  0  0  0  0  0  0  0  0  0
  1  4  1  1  0  0  0
  2  1  1  0  0  0  0
  2  6  1  0  0  0  0
  3  7  1  6  0  0  0
  3  2  1  0  0  0  0
  3  1  1  0  0  0  0
  5  2  1  0  0  0  0
  8  1  1  0  0  0  0
  8 13  1  0  0  0  0
  9  8  2  0  0  0  0
 10 11  2  0  0  0  0
 10 17  1  0  0  0  0
 11 15  1  0  0  0  0
 12 16  1  0  0  0  0
 12 11  1  0  0  0  0
 13 14  1  0  0  0  0
 13 12  2  0  0  0  0
 14 10  1  0  0  0  0
 17 18  2  0  0  0  0
 19 20  1  0  0  0  0
 19 17  1  0  0  0  0
 20 25  1  0  0  0  0
 21 26  1  0  0  0  0
 21 20  2  0  0  0  0
 22 21  1  0  0  0  0
 23 22  2  0  0  0  0
 23 24  1  0  0  0  0
 24 19  2  0  0  0  0
 27 23  1  0  0  0  0
 28  3  1  0  0  0  0
 29 28  1  0  0  0  0
 29 30  2  0  0  0  0
 30 40  1  0  0  0  0
 31 32  1  0  0  0  0
 31 30  1  0  0  0  0
 32 33  1  1  0  0  0
 34 36  1  0  0  0  0
 34 32  1  0  0  0  0
 35 34  1  0  0  0  0
 36 37  1  6  0  0  0
 36 31  1  0  0  0  0
 36 32  1  0  0  0  0
 37 38  1  0  0  0  0
 38 39  1  0  0  0  0
 38 29  1  0  0  0  0
 40 41  2  0  0  0  0
 40 42  1  0  0  0  0
 42 43  1  0  0  0  0
M  END
>  <minimizedAffinity>
-5.52152252

>  <minimizedRMSD>
3.52124858

$$$$
