
 OpenBabel03272503003D

 41 44  0  0  1  0  0  0  0  0999 V2000
   37.4070   27.5050   33.4830 N   0  0  0  0  0  0  0  0  0  0  0  0
   37.2450   27.2760   34.8950 C   0  0  0  0  0  0  0  0  0  0  0  0
   38.4460   27.2770   35.7390 C   0  0  0  0  0  0  0  0  0  0  0  0
   39.7430   26.9290   35.1150 C   0  0  0  0  0  0  0  0  0  0  0  0
   39.7860   27.1140   33.6150 C   0  0  0  0  0  0  0  0  0  0  0  0
   38.4560   26.6410   33.0170 C   0  0  1  0  0  0  0  0  0  0  0  0
   36.6850   26.3180   35.0170 H   0  0  0  0  0  0  0  0  0  0  0  0
   36.5330   28.0630   35.2560 H   0  0  0  0  0  0  0  0  0  0  0  0
   38.5670   28.2950   36.2030 H   0  0  0  0  0  0  0  0  0  0  0  0
   38.2850   26.5860   36.5950 H   0  0  0  0  0  0  0  0  0  0  0  0
   40.5920   27.5180   35.5210 H   0  0  0  0  0  0  0  0  0  0  0  0
   40.0130   25.8590   35.3120 H   0  0  0  0  0  0  0  0  0  0  0  0
   40.5550   26.4460   33.1860 H   0  0  0  0  0  0  0  0  0  0  0  0
   40.0100   28.1480   33.3200 H   0  0  0  0  0  0  0  0  0  0  0  0
   38.5160   26.5730   31.9220 H   0  0  0  0  0  0  0  0  0  0  0  0
   36.6530   28.4270   32.7010 C   0  0  0  0  0  0  0  0  0  0  0  0
   35.5170   29.1020   33.1570 C   0  0  0  0  0  0  0  0  0  0  0  0
   34.8780   29.9710   32.2910 C   0  0  0  0  0  0  0  0  0  0  0  0
   35.3920   30.1230   31.0370 N   0  0  0  0  0  0  0  0  0  0  0  0
   36.4830   29.4550   30.6410 C   0  0  0  0  0  0  0  0  0  0  0  0
   37.1230   28.6020   31.4700 N   0  0  0  0  0  0  0  0  0  0  0  0
   35.1950   28.9110   34.1630 H   0  0  0  0  0  0  0  0  0  0  0  0
   34.0150   30.4540   32.7060 H   0  0  0  0  0  0  0  0  0  0  0  0
   36.8070   29.6500   29.6240 H   0  0  0  0  0  0  0  0  0  0  0  0
   38.3150   25.3310   33.4830 O   0  0  0  0  0  0  0  0  0  0  0  0
   38.6890   24.4030   32.5150 C   0  0  0  0  0  2  0  0  0  0  0  0
   37.7800   23.2420   32.6100 C   0  0  0  0  0  0  0  0  0  0  0  0
   37.6790   22.5010   33.7050 C   0  0  0  0  0  0  0  0  0  0  0  0
   36.7690   21.4080   33.6770 N   0  0  0  0  0  0  0  0  0  0  0  0
   35.6870   20.6630   34.2750 C   0  0  0  0  0  0  0  0  0  0  0  0
   35.4020   20.4380   35.4930 O   0  0  0  0  0  0  0  0  0  0  0  0
   35.2360   20.3990   32.8810 C   0  0  0  0  0  3  0  0  0  0  0  0
   34.7500   19.4210   32.7220 H   0  0  0  0  0  0  0  0  0  0  0  0
   36.7240   20.4160   32.6080 C   0  0  1  0  0  3  0  0  0  0  0  0
   37.0230   21.2450   30.9990 S   0  0  0  0  0  0  0  0  0  0  0  0
   36.9920   23.0210   31.3780 C   0  0  0  0  0  3  0  0  0  0  0  0
   37.4950   23.5100   30.5250 H   0  0  0  0  0  0  0  0  0  0  0  0
   38.4500   22.7350   34.9450 C   0  0  0  0  0  0  0  0  0  0  0  0
   39.4560   22.3120   35.5550 O   0  0  0  0  0  0  0  0  0  0  0  0
   38.1790   23.6660   35.9110 O   0  0  0  0  0  0  0  0  0  0  0  0
   37.9360   23.5060   36.8700 H   0  0  0  0  0  0  0  0  0  0  0  0
  1  2  1  0  0  0  0
  2  7  1  0  0  0  0
  2  8  1  0  0  0  0
  2  3  1  0  0  0  0
  3  9  1  0  0  0  0
  3 10  1  0  0  0  0
  4 12  1  0  0  0  0
  4 11  1  0  0  0  0
  4  3  1  0  0  0  0
  5  4  1  0  0  0  0
  6 15  1  6  0  0  0
  6 25  1  0  0  0  0
  6  1  1  0  0  0  0
  6  5  1  0  0  0  0
 13  5  1  0  0  0  0
 14  5  1  0  0  0  0
 16 17  1  0  0  0  0
 16  1  1  0  0  0  0
 17 22  1  0  0  0  0
 18 23  1  0  0  0  0
 18 17  2  0  0  0  0
 19 18  1  0  0  0  0
 20 19  2  0  0  0  0
 20 21  1  0  0  0  0
 21 16  2  0  0  0  0
 24 20  1  0  0  0  0
 26 27  1  0  0  0  0
 26 25  1  0  0  0  0
 27 28  2  0  0  0  0
 28 38  1  0  0  0  0
 29 28  1  0  0  0  0
 29 30  1  0  0  0  0
 30 31  2  0  0  0  0
 32 30  1  0  0  0  0
 33 32  1  0  0  0  0
 34 35  1  6  0  0  0
 34 32  1  0  0  0  0
 34 29  1  0  0  0  0
 35 36  1  0  0  0  0
 36 27  1  0  0  0  0
 37 36  1  0  0  0  0
 38 39  2  0  0  0  0
 38 40  1  0  0  0  0
 40 41  1  0  0  0  0
M  END
>  <minimizedAffinity>
-5.77339077

$$$$

 OpenBabel03272503003D

 41 44  0  0  1  0  0  0  0  0999 V2000
   38.2090   26.9300   32.8300 N   0  0  0  0  0  0  0  0  0  0  0  0
   37.2060   26.8010   33.8540 C   0  0  0  0  0  0  0  0  0  0  0  0
   37.5550   27.2040   35.2210 C   0  0  0  0  0  0  0  0  0  0  0  0
   38.9800   27.1590   35.6230 C   0  0  0  0  0  0  0  0  0  0  0  0
   39.9580   27.2050   34.4720 C   0  0  0  0  0  0  0  0  0  0  0  0
   39.4200   26.3380   33.3280 C   0  0  1  0  0  0  0  0  0  0  0  0
   36.8470   25.7440   33.8400 H   0  0  0  0  0  0  0  0  0  0  0  0
   36.3260   27.3990   33.5000 H   0  0  0  0  0  0  0  0  0  0  0  0
   37.1970   28.2560   35.3960 H   0  0  0  0  0  0  0  0  0  0  0  0
   36.9800   26.5790   35.9390 H   0  0  0  0  0  0  0  0  0  0  0  0
   39.2650   27.9890   36.3020 H   0  0  0  0  0  0  0  0  0  0  0  0
   39.2080   26.2240   36.1990 H   0  0  0  0  0  0  0  0  0  0  0  0
   40.9080   26.7300   34.7790 H   0  0  0  0  0  0  0  0  0  0  0  0
   40.1670   28.2290   34.1330 H   0  0  0  0  0  0  0  0  0  0  0  0
   40.1850   26.1850   32.5530 H   0  0  0  0  0  0  0  0  0  0  0  0
   38.0200   27.5380   31.5550 C   0  0  0  0  0  0  0  0  0  0  0  0
   37.0060   28.4560   31.2630 C   0  0  0  0  0  0  0  0  0  0  0  0
   36.9360   28.9690   29.9800 C   0  0  0  0  0  0  0  0  0  0  0  0
   37.8600   28.5520   29.0690 N   0  0  0  0  0  0  0  0  0  0  0  0
   38.8140   27.6700   29.3920 C   0  0  0  0  0  0  0  0  0  0  0  0
   38.9020   27.1550   30.6380 N   0  0  0  0  0  0  0  0  0  0  0  0
   36.3290   28.7170   32.0530 H   0  0  0  0  0  0  0  0  0  0  0  0
   36.1360   29.6670   29.8270 H   0  0  0  0  0  0  0  0  0  0  0  0
   39.4980   27.4060   28.5910 H   0  0  0  0  0  0  0  0  0  0  0  0
   39.2020   25.0890   33.9140 O   0  0  0  0  0  0  0  0  0  0  0  0
   39.5390   24.0530   33.0460 C   0  0  0  0  0  2  0  0  0  0  0  0
   38.3970   23.1180   32.9780 C   0  0  0  0  0  0  0  0  0  0  0  0
   38.1130   22.2630   33.9500 C   0  0  0  0  0  0  0  0  0  0  0  0
   36.9880   21.4110   33.7700 N   0  0  0  0  0  0  0  0  0  0  0  0
   35.7570   20.8400   34.2620 C   0  0  0  0  0  0  0  0  0  0  0  0
   35.4030   20.5060   35.4360 O   0  0  0  0  0  0  0  0  0  0  0  0
   35.2910   20.8890   32.8490 C   0  0  0  0  0  3  0  0  0  0  0  0
   34.6090   20.0750   32.5510 H   0  0  0  0  0  0  0  0  0  0  0  0
   36.7530   20.6210   32.5660 C   0  0  1  0  0  3  0  0  0  0  0  0
   37.2610   21.5930   31.0950 S   0  0  0  0  0  0  0  0  0  0  0  0
   37.6080   23.2570   31.7340 C   0  0  0  0  0  3  0  0  0  0  0  0
   38.2240   23.7450   30.9580 H   0  0  0  0  0  0  0  0  0  0  0  0
   38.8880   22.1380   35.2040 C   0  0  0  0  0  0  0  0  0  0  0  0
   40.0650   22.0120   35.6070 O   0  0  0  0  0  0  0  0  0  0  0  0
   38.3860   22.1310   36.4780 O   0  0  0  0  0  0  0  0  0  0  0  0
   38.4230   21.3890   37.1500 H   0  0  0  0  0  0  0  0  0  0  0  0
  1  6  1  0  0  0  0
  1  2  1  0  0  0  0
  2  3  1  0  0  0  0
  3  9  1  0  0  0  0
  3  4  1  0  0  0  0
  3 10  1  0  0  0  0
  4 12  1  0  0  0  0
  4 11  1  0  0  0  0
  5 13  1  0  0  0  0
  5  4  1  0  0  0  0
  6 15  1  6  0  0  0
  6 25  1  0  0  0  0
  6  5  1  0  0  0  0
  7  2  1  0  0  0  0
  8  2  1  0  0  0  0
 14  5  1  0  0  0  0
 16  1  1  0  0  0  0
 17 16  1  0  0  0  0
 17 22  1  0  0  0  0
 18 17  2  0  0  0  0
 19 20  2  0  0  0  0
 19 18  1  0  0  0  0
 20 21  1  0  0  0  0
 21 16  2  0  0  0  0
 23 18  1  0  0  0  0
 24 20  1  0  0  0  0
 26 25  1  0  0  0  0
 27 26  1  0  0  0  0
 27 28  2  0  0  0  0
 28 38  1  0  0  0  0
 29 28  1  0  0  0  0
 29 30  1  0  0  0  0
 30 31  2  0  0  0  0
 32 30  1  0  0  0  0
 33 32  1  0  0  0  0
 34 35  1  6  0  0  0
 34 32  1  0  0  0  0
 34 29  1  0  0  0  0
 35 36  1  0  0  0  0
 36 27  1  0  0  0  0
 37 36  1  0  0  0  0
 38 39  2  0  0  0  0
 38 40  1  0  0  0  0
 40 41  1  0  0  0  0
M  END
>  <minimizedAffinity>
-5.58961391

$$$$

 OpenBabel03272503003D

 41 44  0  0  1  0  0  0  0  0999 V2000
   38.3110   22.6950   35.7090 N   0  0  0  0  0  0  0  0  0  0  0  0
   39.6270   22.3010   36.1370 C   0  0  0  0  0  0  0  0  0  0  0  0
   39.9570   22.4160   37.5620 C   0  0  0  0  0  0  0  0  0  0  0  0
   39.2250   23.4170   38.3720 C   0  0  0  0  0  0  0  0  0  0  0  0
   37.8940   23.8400   37.7940 C   0  0  0  0  0  0  0  0  0  0  0  0
   38.0370   23.9870   36.2740 C   0  0  1  0  0  0  0  0  0  0  0  0
   40.3650   22.8690   35.5210 H   0  0  0  0  0  0  0  0  0  0  0  0
   39.7520   21.2360   35.8090 H   0  0  0  0  0  0  0  0  0  0  0  0
   39.8020   21.4170   38.0560 H   0  0  0  0  0  0  0  0  0  0  0  0
   41.0440   22.6250   37.6660 H   0  0  0  0  0  0  0  0  0  0  0  0
   39.0130   23.0690   39.4050 H   0  0  0  0  0  0  0  0  0  0  0  0
   39.8280   24.3530   38.5010 H   0  0  0  0  0  0  0  0  0  0  0  0
   37.6370   24.8500   38.1640 H   0  0  0  0  0  0  0  0  0  0  0  0
   37.0790   23.1500   38.0520 H   0  0  0  0  0  0  0  0  0  0  0  0
   37.1550   24.4790   35.8390 H   0  0  0  0  0  0  0  0  0  0  0  0
   37.4470   21.9310   34.8730 C   0  0  0  0  0  0  0  0  0  0  0  0
   36.3500   21.1980   35.3340 C   0  0  0  0  0  0  0  0  0  0  0  0
   35.5940   20.4980   34.4120 C   0  0  0  0  0  0  0  0  0  0  0  0
   35.9590   20.5600   33.1000 N   0  0  0  0  0  0  0  0  0  0  0  0
   37.0190   21.2740   32.7010 C   0  0  0  0  0  0  0  0  0  0  0  0
   37.7720   21.9660   33.5850 N   0  0  0  0  0  0  0  0  0  0  0  0
   36.1480   21.2150   36.3880 H   0  0  0  0  0  0  0  0  0  0  0  0
   34.7680   19.9590   34.8350 H   0  0  0  0  0  0  0  0  0  0  0  0
   37.2220   21.2560   31.6350 H   0  0  0  0  0  0  0  0  0  0  0  0
   39.1010   24.8780   36.1130 O   0  0  0  0  0  0  0  0  0  0  0  0
   38.6530   26.1500   35.7630 C   0  0  0  0  0  2  0  0  0  0  0  0
   38.7120   26.2730   34.2920 C   0  0  0  0  0  0  0  0  0  0  0  0
   39.8520   26.4260   33.6320 C   0  0  0  0  0  0  0  0  0  0  0  0
   39.7810   26.5350   32.2160 N   0  0  0  0  0  0  0  0  0  0  0  0
   40.2300   26.1320   30.9040 C   0  0  0  0  0  0  0  0  0  0  0  0
   41.3780   25.7790   30.4880 O   0  0  0  0  0  0  0  0  0  0  0  0
   38.8230   26.3470   30.4700 C   0  0  0  0  0  3  0  0  0  0  0  0
   38.7010   26.7070   29.4340 H   0  0  0  0  0  0  0  0  0  0  0  0
   38.8770   27.4400   31.5150 C   0  0  1  0  0  3  0  0  0  0  0  0
   37.2700   27.4960   32.3990 S   0  0  0  0  0  0  0  0  0  0  0  0
   37.3830   26.1850   33.6500 C   0  0  0  0  0  3  0  0  0  0  0  0
   36.5980   26.4200   34.3910 H   0  0  0  0  0  0  0  0  0  0  0  0
   41.1830   26.4920   34.2710 C   0  0  0  0  0  0  0  0  0  0  0  0
   41.9480   25.8130   34.9910 O   0  0  0  0  0  0  0  0  0  0  0  0
   42.0700   27.5340   34.2060 O   0  0  0  0  0  0  0  0  0  0  0  0
   42.4050   28.1050   34.9570 H   0  0  0  0  0  0  0  0  0  0  0  0
  1  2  1  0  0  0  0
  1  6  1  0  0  0  0
  2  3  1  0  0  0  0
  3 10  1  0  0  0  0
  3  9  1  0  0  0  0
  3  4  1  0  0  0  0
  4 12  1  0  0  0  0
  4 11  1  0  0  0  0
  5 14  1  0  0  0  0
  5 13  1  0  0  0  0
  5  4  1  0  0  0  0
  6 15  1  6  0  0  0
  6  5  1  0  0  0  0
  7  2  1  0  0  0  0
  8  2  1  0  0  0  0
 16 17  1  0  0  0  0
 16  1  1  0  0  0  0
 17 22  1  0  0  0  0
 18 23  1  0  0  0  0
 18 17  2  0  0  0  0
 19 18  1  0  0  0  0
 20 19  2  0  0  0  0
 20 21  1  0  0  0  0
 21 16  2  0  0  0  0
 24 20  1  0  0  0  0
 25  6  1  0  0  0  0
 26 25  1  0  0  0  0
 27 26  1  0  0  0  0
 28 38  1  0  0  0  0
 28 27  2  0  0  0  0
 29 28  1  0  0  0  0
 30 29  1  0  0  0  0
 31 30  2  0  0  0  0
 32 30  1  0  0  0  0
 33 32  1  0  0  0  0
 34 32  1  6  0  0  0
 34 29  1  0  0  0  0
 34 35  1  0  0  0  0
 35 36  1  0  0  0  0
 36 27  1  0  0  0  0
 36 37  1  0  0  0  0
 38 39  2  0  0  0  0
 40 38  1  0  0  0  0
 40 41  1  0  0  0  0
M  END
>  <minimizedAffinity>
-5.56746244

$$$$

 OpenBabel03272503003D

 41 44  0  0  1  0  0  0  0  0999 V2000
   37.5650   26.1720   33.2500 N   0  0  0  0  0  0  0  0  0  0  0  0
   38.8810   26.7380   33.1100 C   0  0  0  0  0  0  0  0  0  0  0  0
   39.6530   27.0070   34.3290 C   0  0  0  0  0  0  0  0  0  0  0  0
   38.9130   27.2510   35.5880 C   0  0  0  0  0  0  0  0  0  0  0  0
   37.5050   26.7010   35.6050 C   0  0  0  0  0  0  0  0  0  0  0  0
   36.8600   26.9440   34.2350 C   0  0  1  0  0  0  0  0  0  0  0  0
   38.7840   27.6670   32.4990 H   0  0  0  0  0  0  0  0  0  0  0  0
   39.4530   26.0310   32.4530 H   0  0  0  0  0  0  0  0  0  0  0  0
   40.3500   26.1440   34.5200 H   0  0  0  0  0  0  0  0  0  0  0  0
   40.3170   27.8800   34.1500 H   0  0  0  0  0  0  0  0  0  0  0  0
   39.4200   26.8250   36.4790 H   0  0  0  0  0  0  0  0  0  0  0  0
   38.8290   28.3490   35.8010 H   0  0  0  0  0  0  0  0  0  0  0  0
   36.8950   27.2780   36.3240 H   0  0  0  0  0  0  0  0  0  0  0  0
   37.4670   25.6390   35.8810 H   0  0  0  0  0  0  0  0  0  0  0  0
   35.7810   26.7400   34.2640 H   0  0  0  0  0  0  0  0  0  0  0  0
   37.0650   25.0480   32.5310 C   0  0  0  0  0  0  0  0  0  0  0  0
   37.6250   23.7680   32.5820 C   0  0  0  0  0  0  0  0  0  0  0  0
   37.0380   22.7660   31.8310 C   0  0  0  0  0  0  0  0  0  0  0  0
   35.9440   23.0800   31.0810 N   0  0  0  0  0  0  0  0  0  0  0  0
   35.4410   24.3210   31.0600 C   0  0  0  0  0  0  0  0  0  0  0  0
   35.9980   25.3160   31.7860 N   0  0  0  0  0  0  0  0  0  0  0  0
   38.4870   23.6260   33.2050 H   0  0  0  0  0  0  0  0  0  0  0  0
   37.5180   21.8100   31.9170 H   0  0  0  0  0  0  0  0  0  0  0  0
   34.5690   24.4620   30.4300 H   0  0  0  0  0  0  0  0  0  0  0  0
   36.9930   28.3200   34.0310 O   0  0  0  0  0  0  0  0  0  0  0  0
   35.8390   28.8650   33.4720 C   0  0  0  0  0  2  0  0  0  0  0  0
   35.2270   29.7700   34.4660 C   0  0  0  0  0  0  0  0  0  0  0  0
   33.9420   30.0980   34.4390 C   0  0  0  0  0  0  0  0  0  0  0  0
   33.4680   30.9790   35.4500 N   0  0  0  0  0  0  0  0  0  0  0  0
   32.5060   31.3090   36.4750 C   0  0  0  0  0  0  0  0  0  0  0  0
   31.2570   31.0850   36.5500 O   0  0  0  0  0  0  0  0  0  0  0  0
   33.6480   31.9260   37.2030 C   0  0  0  0  0  3  0  0  0  0  0  0
   33.3950   32.8110   37.8110 H   0  0  0  0  0  0  0  0  0  0  0  0
   34.1160   32.2390   35.7990 C   0  0  1  0  0  3  0  0  0  0  0  0
   35.9360   32.0260   35.7180 S   0  0  0  0  0  0  0  0  0  0  0  0
   36.1860   30.2420   35.4880 C   0  0  0  0  0  3  0  0  0  0  0  0
   37.2160   30.1380   35.1040 H   0  0  0  0  0  0  0  0  0  0  0  0
   32.9770   29.6100   33.4310 C   0  0  0  0  0  0  0  0  0  0  0  0
   32.1350   28.7030   33.2550 O   0  0  0  0  0  0  0  0  0  0  0  0
   32.7360   30.1580   32.1990 O   0  0  0  0  0  0  0  0  0  0  0  0
   32.8860   29.7420   31.3000 H   0  0  0  0  0  0  0  0  0  0  0  0
  1  6  1  0  0  0  0
  2  1  1  0  0  0  0
  2  3  1  0  0  0  0
  3  9  1  0  0  0  0
  3  4  1  0  0  0  0
  4  5  1  0  0  0  0
  4 12  1  0  0  0  0
  4 11  1  0  0  0  0
  5 14  1  0  0  0  0
  5 13  1  0  0  0  0
  6 15  1  1  0  0  0
  6  5  1  0  0  0  0
  7  2  1  0  0  0  0
  8  2  1  0  0  0  0
 10  3  1  0  0  0  0
 16 17  1  0  0  0  0
 16  1  1  0  0  0  0
 17 22  1  0  0  0  0
 18 23  1  0  0  0  0
 18 17  2  0  0  0  0
 19 18  1  0  0  0  0
 20 19  2  0  0  0  0
 20 21  1  0  0  0  0
 21 16  2  0  0  0  0
 24 20  1  0  0  0  0
 25  6  1  0  0  0  0
 26 25  1  0  0  0  0
 26 27  1  0  0  0  0
 27 36  1  0  0  0  0
 28 27  2  0  0  0  0
 28 29  1  0  0  0  0
 29 34  1  0  0  0  0
 29 30  1  0  0  0  0
 30 31  2  0  0  0  0
 30 32  1  0  0  0  0
 32 33  1  0  0  0  0
 34 35  1  1  0  0  0
 34 32  1  0  0  0  0
 36 35  1  0  0  0  0
 37 36  1  0  0  0  0
 38 28  1  0  0  0  0
 39 38  2  0  0  0  0
 40 38  1  0  0  0  0
 41 40  1  0  0  0  0
M  END
>  <minimizedAffinity>
-5.51145458

$$$$

 OpenBabel03272503003D

 41 44  0  0  1  0  0  0  0  0999 V2000
   38.0890   27.0150   32.9600 N   0  0  0  0  0  0  0  0  0  0  0  0
   37.1070   27.1860   33.9990 C   0  0  0  0  0  0  0  0  0  0  0  0
   37.5720   27.5890   35.3320 C   0  0  0  0  0  0  0  0  0  0  0  0
   38.9590   27.2480   35.7230 C   0  0  0  0  0  0  0  0  0  0  0  0
   39.8940   26.9940   34.5630 C   0  0  0  0  0  0  0  0  0  0  0  0
   39.1460   26.1980   33.4870 C   0  0  1  0  0  0  0  0  0  0  0  0
   36.5180   26.2400   34.0630 H   0  0  0  0  0  0  0  0  0  0  0  0
   36.3770   27.9430   33.6120 H   0  0  0  0  0  0  0  0  0  0  0  0
   37.4660   28.7040   35.4350 H   0  0  0  0  0  0  0  0  0  0  0  0
   36.8880   27.1610   36.0960 H   0  0  0  0  0  0  0  0  0  0  0  0
   39.4410   28.0350   36.3400 H   0  0  0  0  0  0  0  0  0  0  0  0
   38.9840   26.3260   36.3610 H   0  0  0  0  0  0  0  0  0  0  0  0
   40.7190   26.3370   34.8940 H   0  0  0  0  0  0  0  0  0  0  0  0
   40.3210   27.9190   34.1510 H   0  0  0  0  0  0  0  0  0  0  0  0
   39.8380   25.8240   32.7190 H   0  0  0  0  0  0  0  0  0  0  0  0
   38.0100   27.5640   31.6470 C   0  0  0  0  0  0  0  0  0  0  0  0
   39.0400   27.5010   30.7040 C   0  0  0  0  0  0  0  0  0  0  0  0
   38.8310   28.0770   29.4640 C   0  0  0  0  0  0  0  0  0  0  0  0
   37.6290   28.6760   29.2280 N   0  0  0  0  0  0  0  0  0  0  0  0
   36.6700   28.7150   30.1610 C   0  0  0  0  0  0  0  0  0  0  0  0
   36.8520   28.1580   31.3790 N   0  0  0  0  0  0  0  0  0  0  0  0
   39.9480   27.0060   30.9910 H   0  0  0  0  0  0  0  0  0  0  0  0
   39.6620   27.9920   28.7910 H   0  0  0  0  0  0  0  0  0  0  0  0
   35.7530   29.2160   29.8680 H   0  0  0  0  0  0  0  0  0  0  0  0
   38.6660   25.0730   34.1620 O   0  0  0  0  0  0  0  0  0  0  0  0
   39.1510   23.8950   33.5990 C   0  0  0  0  0  2  0  0  0  0  0  0
   40.3630   23.4930   34.3410 C   0  0  0  0  0  0  0  0  0  0  0  0
   40.3170   22.9920   35.5680 C   0  0  0  0  0  0  0  0  0  0  0  0
   41.5520   22.6420   36.1820 N   0  0  0  0  0  0  0  0  0  0  0  0
   42.3710   21.6930   36.8970 C   0  0  0  0  0  0  0  0  0  0  0  0
   42.0690   20.8290   37.7800 O   0  0  0  0  0  0  0  0  0  0  0  0
   43.5120   22.2480   36.1200 C   0  0  0  0  0  3  0  0  0  0  0  0
   44.4790   22.2620   36.6510 H   0  0  0  0  0  0  0  0  0  0  0  0
   42.7110   23.5270   36.2360 C   0  0  1  0  0  3  0  0  0  0  0  0
   42.8400   24.4530   34.6590 S   0  0  0  0  0  0  0  0  0  0  0  0
   41.6080   23.6870   33.5670 C   0  0  0  0  0  3  0  0  0  0  0  0
   41.4320   24.4240   32.7620 H   0  0  0  0  0  0  0  0  0  0  0  0
   39.0720   22.7770   36.3350 C   0  0  0  0  0  0  0  0  0  0  0  0
   38.3950   23.2950   37.2500 O   0  0  0  0  0  0  0  0  0  0  0  0
   38.1890   21.7410   36.1860 O   0  0  0  0  0  0  0  0  0  0  0  0
   37.9490   21.0350   36.8540 H   0  0  0  0  0  0  0  0  0  0  0  0
  1  6  1  0  0  0  0
  1  2  1  0  0  0  0
  2  7  1  0  0  0  0
  2  3  1  0  0  0  0
  3  9  1  0  0  0  0
  3  4  1  0  0  0  0
  3 10  1  0  0  0  0
  4 11  1  0  0  0  0
  4 12  1  0  0  0  0
  5 13  1  0  0  0  0
  5  4  1  0  0  0  0
  6 15  1  6  0  0  0
  6 25  1  0  0  0  0
  6  5  1  0  0  0  0
  8  2  1  0  0  0  0
 14  5  1  0  0  0  0
 16  1  1  0  0  0  0
 17 22  1  0  0  0  0
 17 16  2  0  0  0  0
 18 17  1  0  0  0  0
 19 18  2  0  0  0  0
 19 20  1  0  0  0  0
 20 21  2  0  0  0  0
 21 16  1  0  0  0  0
 23 18  1  0  0  0  0
 24 20  1  0  0  0  0
 26 25  1  0  0  0  0
 26 27  1  0  0  0  0
 27 28  2  0  0  0  0
 28 29  1  0  0  0  0
 28 38  1  0  0  0  0
 29 34  1  0  0  0  0
 29 30  1  0  0  0  0
 30 31  2  0  0  0  0
 32 34  1  0  0  0  0
 32 33  1  0  0  0  0
 32 30  1  0  0  0  0
 34 35  1  6  0  0  0
 36 27  1  0  0  0  0
 36 35  1  0  0  0  0
 37 36  1  0  0  0  0
 38 39  2  0  0  0  0
 40 38  1  0  0  0  0
 40 41  1  0  0  0  0
M  END
>  <minimizedAffinity>
-5.4492774

$$$$

 OpenBabel03272503003D

 41 44  0  0  1  0  0  0  0  0999 V2000
   38.1560   22.7950   35.8430 N   0  0  0  0  0  0  0  0  0  0  0  0
   39.5730   22.7250   36.0850 C   0  0  0  0  0  0  0  0  0  0  0  0
   40.0390   22.7130   37.4770 C   0  0  0  0  0  0  0  0  0  0  0  0
   39.1790   23.3370   38.5090 C   0  0  0  0  0  0  0  0  0  0  0  0
   37.7210   23.4520   38.1260 C   0  0  0  0  0  0  0  0  0  0  0  0
   37.6270   23.8590   36.6500 C   0  0  1  0  0  0  0  0  0  0  0  0
   40.0510   23.5620   35.5230 H   0  0  0  0  0  0  0  0  0  0  0  0
   39.9300   21.7990   35.5630 H   0  0  0  0  0  0  0  0  0  0  0  0
   40.2150   21.6480   37.7960 H   0  0  0  0  0  0  0  0  0  0  0  0
   41.0370   23.2000   37.5270 H   0  0  0  0  0  0  0  0  0  0  0  0
   39.2000   22.7930   39.4770 H   0  0  0  0  0  0  0  0  0  0  0  0
   39.5280   24.3740   38.7530 H   0  0  0  0  0  0  0  0  0  0  0  0
   37.2590   24.2830   38.6900 H   0  0  0  0  0  0  0  0  0  0  0  0
   37.1560   22.5310   38.3230 H   0  0  0  0  0  0  0  0  0  0  0  0
   36.5990   24.1440   36.3840 H   0  0  0  0  0  0  0  0  0  0  0  0
   37.4230   21.9530   34.9570 C   0  0  0  0  0  0  0  0  0  0  0  0
   36.2900   21.2210   35.3230 C   0  0  0  0  0  0  0  0  0  0  0  0
   35.6740   20.4410   34.3610 C   0  0  0  0  0  0  0  0  0  0  0  0
   36.2060   20.4270   33.1060 N   0  0  0  0  0  0  0  0  0  0  0  0
   37.2950   21.1440   32.7990 C   0  0  0  0  0  0  0  0  0  0  0  0
   37.9130   21.9130   33.7230 N   0  0  0  0  0  0  0  0  0  0  0  0
   35.9520   21.3010   36.3380 H   0  0  0  0  0  0  0  0  0  0  0  0
   34.8110   19.9070   34.7100 H   0  0  0  0  0  0  0  0  0  0  0  0
   37.6360   21.0610   31.7720 H   0  0  0  0  0  0  0  0  0  0  0  0
   38.3910   25.0250   36.5640 O   0  0  0  0  0  0  0  0  0  0  0  0
   37.8350   25.9340   35.6670 C   0  0  0  0  0  2  0  0  0  0  0  0
   38.8550   26.2650   34.6510 C   0  0  0  0  0  0  0  0  0  0  0  0
   38.6090   26.2180   33.3490 C   0  0  0  0  0  0  0  0  0  0  0  0
   39.6720   26.5580   32.4670 N   0  0  0  0  0  0  0  0  0  0  0  0
   40.1730   27.3020   31.3360 C   0  0  0  0  0  0  0  0  0  0  0  0
   39.6050   27.6590   30.2560 O   0  0  0  0  0  0  0  0  0  0  0  0
   41.4620   27.3620   32.0770 C   0  0  0  0  0  3  0  0  0  0  0  0
   42.3670   27.3510   31.4460 H   0  0  0  0  0  0  0  0  0  0  0  0
   41.0170   26.0000   32.5630 C   0  0  1  0  0  3  0  0  0  0  0  0
   41.4740   25.8230   34.3310 S   0  0  0  0  0  0  0  0  0  0  0  0
   40.1500   26.6690   35.2410 C   0  0  0  0  0  3  0  0  0  0  0  0
   40.2180   26.2890   36.2760 H   0  0  0  0  0  0  0  0  0  0  0  0
   37.3090   25.8360   32.7590 C   0  0  0  0  0  0  0  0  0  0  0  0
   36.2660   26.3490   32.2950 O   0  0  0  0  0  0  0  0  0  0  0  0
   36.8530   24.5630   32.5380 O   0  0  0  0  0  0  0  0  0  0  0  0
   36.0580   24.1140   32.9490 H   0  0  0  0  0  0  0  0  0  0  0  0
  1  2  1  0  0  0  0
  1  6  1  0  0  0  0
  2  3  1  0  0  0  0
  3 10  1  0  0  0  0
  3  9  1  0  0  0  0
  3  4  1  0  0  0  0
  4 12  1  0  0  0  0
  4 11  1  0  0  0  0
  5 14  1  0  0  0  0
  5  4  1  0  0  0  0
  5 13  1  0  0  0  0
  6 15  1  6  0  0  0
  6  5  1  0  0  0  0
  7  2  1  0  0  0  0
  8  2  1  0  0  0  0
 16 17  1  0  0  0  0
 16  1  1  0  0  0  0
 17 22  1  0  0  0  0
 18 23  1  0  0  0  0
 18 17  2  0  0  0  0
 19 18  1  0  0  0  0
 20 19  2  0  0  0  0
 20 21  1  0  0  0  0
 21 16  2  0  0  0  0
 24 20  1  0  0  0  0
 25  6  1  0  0  0  0
 26 25  1  0  0  0  0
 27 36  1  0  0  0  0
 27 26  1  0  0  0  0
 28 27  2  0  0  0  0
 29 34  1  0  0  0  0
 29 28  1  0  0  0  0
 30 32  1  0  0  0  0
 30 29  1  0  0  0  0
 31 30  2  0  0  0  0
 33 32  1  0  0  0  0
 34 32  1  6  0  0  0
 34 35  1  0  0  0  0
 35 36  1  0  0  0  0
 36 37  1  0  0  0  0
 38 28  1  0  0  0  0
 39 38  2  0  0  0  0
 40 38  1  0  0  0  0
 40 41  1  0  0  0  0
M  END
>  <minimizedAffinity>
-5.38970757

$$$$

 OpenBabel03272503003D

 41 44  0  0  1  0  0  0  0  0999 V2000
   37.3520   25.5000   31.8470 N   0  0  0  0  0  0  0  0  0  0  0  0
   36.5070   26.6620   31.9390 C   0  0  0  0  0  0  0  0  0  0  0  0
   36.6700   27.7190   30.9330 C   0  0  0  0  0  0  0  0  0  0  0  0
   37.9870   27.8560   30.2680 C   0  0  0  0  0  0  0  0  0  0  0  0
   38.8420   26.6110   30.3050 C   0  0  0  0  0  0  0  0  0  0  0  0
   38.7050   25.9550   31.6850 C   0  0  1  0  0  0  0  0  0  0  0  0
   36.6250   27.0830   32.9660 H   0  0  0  0  0  0  0  0  0  0  0  0
   35.4530   26.2800   31.9130 H   0  0  0  0  0  0  0  0  0  0  0  0
   35.9060   27.5720   30.1210 H   0  0  0  0  0  0  0  0  0  0  0  0
   36.4190   28.6980   31.3950 H   0  0  0  0  0  0  0  0  0  0  0  0
   37.9050   28.1410   29.1980 H   0  0  0  0  0  0  0  0  0  0  0  0
   38.5930   28.6740   30.7380 H   0  0  0  0  0  0  0  0  0  0  0  0
   39.9070   26.8950   30.2200 H   0  0  0  0  0  0  0  0  0  0  0  0
   38.5980   25.9030   29.5020 H   0  0  0  0  0  0  0  0  0  0  0  0
   39.4550   25.1630   31.8230 H   0  0  0  0  0  0  0  0  0  0  0  0
   36.9100   24.1470   31.9100 C   0  0  0  0  0  0  0  0  0  0  0  0
   35.9160   23.6040   31.0900 C   0  0  0  0  0  0  0  0  0  0  0  0
   35.5830   22.2720   31.2580 C   0  0  0  0  0  0  0  0  0  0  0  0
   36.2420   21.5590   32.2150 N   0  0  0  0  0  0  0  0  0  0  0  0
   37.1870   22.1200   32.9790 C   0  0  0  0  0  0  0  0  0  0  0  0
   37.5290   23.4190   32.8330 N   0  0  0  0  0  0  0  0  0  0  0  0
   35.4590   24.2520   30.3670 H   0  0  0  0  0  0  0  0  0  0  0  0
   34.8140   21.9220   30.5970 H   0  0  0  0  0  0  0  0  0  0  0  0
   37.6490   21.4630   33.7100 H   0  0  0  0  0  0  0  0  0  0  0  0
   39.0380   26.9710   32.5840 O   0  0  0  0  0  0  0  0  0  0  0  0
   40.2520   26.7120   33.2180 C   0  0  0  0  0  2  0  0  0  0  0  0
   40.0860   25.5110   34.0620 C   0  0  0  0  0  0  0  0  0  0  0  0
   39.2590   25.4730   35.0980 C   0  0  0  0  0  0  0  0  0  0  0  0
   39.1850   24.2600   35.8360 N   0  0  0  0  0  0  0  0  0  0  0  0
   38.4050   23.2090   36.4460 C   0  0  0  0  0  0  0  0  0  0  0  0
   37.2690   23.2370   37.0160 O   0  0  0  0  0  0  0  0  0  0  0  0
   39.5210   22.3020   36.0640 C   0  0  0  0  0  3  0  0  0  0  0  0
   39.7060   21.4660   36.7600 H   0  0  0  0  0  0  0  0  0  0  0  0
   40.3530   23.5370   36.3290 C   0  0  1  0  0  3  0  0  0  0  0  0
   41.6930   23.6290   35.0790 S   0  0  0  0  0  0  0  0  0  0  0  0
   40.9140   24.3700   33.6160 C   0  0  0  0  0  3  0  0  0  0  0  0
   41.7500   24.7410   32.9960 H   0  0  0  0  0  0  0  0  0  0  0  0
   38.4130   26.6060   35.5320 C   0  0  0  0  0  0  0  0  0  0  0  0
   37.2540   27.0560   35.4020 O   0  0  0  0  0  0  0  0  0  0  0  0
   38.7880   27.6390   36.3490 O   0  0  0  0  0  0  0  0  0  0  0  0
   38.8390   28.6140   36.1250 H   0  0  0  0  0  0  0  0  0  0  0  0
  1 16  1  0  0  0  0
  1  2  1  0  0  0  0
  2  7  1  0  0  0  0
  3 10  1  0  0  0  0
  3  2  1  0  0  0  0
  4  5  1  0  0  0  0
  4 12  1  0  0  0  0
  4  3  1  0  0  0  0
  5  6  1  0  0  0  0
  6 15  1  1  0  0  0
  6  1  1  0  0  0  0
  6 25  1  0  0  0  0
  8  2  1  0  0  0  0
  9  3  1  0  0  0  0
 11  4  1  0  0  0  0
 13  5  1  0  0  0  0
 14  5  1  0  0  0  0
 16 21  1  0  0  0  0
 17 18  1  0  0  0  0
 17 16  2  0  0  0  0
 18 19  2  0  0  0  0
 19 20  1  0  0  0  0
 20 24  1  0  0  0  0
 21 20  2  0  0  0  0
 22 17  1  0  0  0  0
 23 18  1  0  0  0  0
 25 26  1  0  0  0  0
 26 27  1  0  0  0  0
 27 28  2  0  0  0  0
 28 38  1  0  0  0  0
 28 29  1  0  0  0  0
 29 34  1  0  0  0  0
 29 30  1  0  0  0  0
 30 31  2  0  0  0  0
 32 34  1  0  0  0  0
 32 30  1  0  0  0  0
 32 33  1  0  0  0  0
 34 35  1  6  0  0  0
 36 27  1  0  0  0  0
 36 35  1  0  0  0  0
 37 36  1  0  0  0  0
 38 40  1  0  0  0  0
 39 38  2  0  0  0  0
 41 40  1  0  0  0  0
M  END
>  <minimizedAffinity>
-5.37480593

$$$$

 OpenBabel03272503003D

 41 44  0  0  1  0  0  0  0  0999 V2000
   36.5550   27.3290   32.9840 N   0  0  0  0  0  0  0  0  0  0  0  0
   36.0230   26.5520   31.8960 C   0  0  0  0  0  0  0  0  0  0  0  0
   36.2890   27.0050   30.5250 C   0  0  0  0  0  0  0  0  0  0  0  0
   36.5440   28.4470   30.3010 C   0  0  0  0  0  0  0  0  0  0  0  0
   37.0100   29.2000   31.5260 C   0  0  0  0  0  0  0  0  0  0  0  0
   36.2190   28.7060   32.7430 C   0  0  1  0  0  0  0  0  0  0  0  0
   34.9240   26.4470   32.0640 H   0  0  0  0  0  0  0  0  0  0  0  0
   36.4260   25.5140   32.0320 H   0  0  0  0  0  0  0  0  0  0  0  0
   37.1780   26.4470   30.1200 H   0  0  0  0  0  0  0  0  0  0  0  0
   35.4380   26.7060   29.8750 H   0  0  0  0  0  0  0  0  0  0  0  0
   37.3070   28.6350   29.5160 H   0  0  0  0  0  0  0  0  0  0  0  0
   35.6210   28.9690   29.9370 H   0  0  0  0  0  0  0  0  0  0  0  0
   36.7490   30.2690   31.4200 H   0  0  0  0  0  0  0  0  0  0  0  0
   38.0920   29.1140   31.6920 H   0  0  0  0  0  0  0  0  0  0  0  0
   36.3830   29.3570   33.6130 H   0  0  0  0  0  0  0  0  0  0  0  0
   37.2810   26.8120   34.0950 C   0  0  0  0  0  0  0  0  0  0  0  0
   37.6750   27.5710   35.2010 C   0  0  0  0  0  0  0  0  0  0  0  0
   38.3780   26.9410   36.2120 C   0  0  0  0  0  0  0  0  0  0  0  0
   38.6480   25.6120   36.0770 N   0  0  0  0  0  0  0  0  0  0  0  0
   38.2530   24.9230   34.9990 C   0  0  0  0  0  0  0  0  0  0  0  0
   37.5650   25.5180   33.9990 N   0  0  0  0  0  0  0  0  0  0  0  0
   37.4110   28.6110   35.2100 H   0  0  0  0  0  0  0  0  0  0  0  0
   38.6470   27.5830   37.0290 H   0  0  0  0  0  0  0  0  0  0  0  0
   38.5210   23.8710   34.9920 H   0  0  0  0  0  0  0  0  0  0  0  0
   34.8810   28.8720   32.3760 O   0  0  0  0  0  0  0  0  0  0  0  0
   34.5090   30.2140   32.4050 C   0  0  0  0  0  2  0  0  0  0  0  0
   33.9820   30.5200   33.7510 C   0  0  0  0  0  0  0  0  0  0  0  0
   32.7750   30.1430   34.1490 C   0  0  0  0  0  0  0  0  0  0  0  0
   32.3780   30.4960   35.4680 N   0  0  0  0  0  0  0  0  0  0  0  0
   31.8250   30.1310   36.7510 C   0  0  0  0  0  0  0  0  0  0  0  0
   30.9230   29.2910   37.0610 O   0  0  0  0  0  0  0  0  0  0  0  0
   32.7650   31.1310   37.3250 C   0  0  0  0  0  3  0  0  0  0  0  0
   32.3990   31.6600   38.2210 H   0  0  0  0  0  0  0  0  0  0  0  0
   32.4940   31.8430   36.0180 C   0  0  1  0  0  3  0  0  0  0  0  0
   34.0520   32.6070   35.4230 S   0  0  0  0  0  0  0  0  0  0  0  0
   34.9450   31.2590   34.5950 C   0  0  0  0  0  3  0  0  0  0  0  0
   35.6940   31.7560   33.9530 H   0  0  0  0  0  0  0  0  0  0  0  0
   31.8200   29.3840   33.3130 C   0  0  0  0  0  0  0  0  0  0  0  0
   31.4490   28.2120   33.0860 O   0  0  0  0  0  0  0  0  0  0  0  0
   30.9360   29.9040   32.4040 O   0  0  0  0  0  0  0  0  0  0  0  0
   30.9120   29.7550   31.4140 H   0  0  0  0  0  0  0  0  0  0  0  0
  1 16  1  0  0  0  0
  2  8  1  0  0  0  0
  2  7  1  0  0  0  0
  2  1  1  0  0  0  0
  3  2  1  0  0  0  0
  4  3  1  0  0  0  0
  4  5  1  0  0  0  0
  5 14  1  0  0  0  0
  5  6  1  0  0  0  0
  6  1  1  0  0  0  0
  6 15  1  1  0  0  0
  9  3  1  0  0  0  0
 10  3  1  0  0  0  0
 11  4  1  0  0  0  0
 12  4  1  0  0  0  0
 13  5  1  0  0  0  0
 16 17  1  0  0  0  0
 17 22  1  0  0  0  0
 17 18  2  0  0  0  0
 18 23  1  0  0  0  0
 19 18  1  0  0  0  0
 20 19  2  0  0  0  0
 21 16  2  0  0  0  0
 21 20  1  0  0  0  0
 24 20  1  0  0  0  0
 25 26  1  0  0  0  0
 25  6  1  0  0  0  0
 26 27  1  0  0  0  0
 27 28  2  0  0  0  0
 27 36  1  0  0  0  0
 28 29  1  0  0  0  0
 29 34  1  0  0  0  0
 29 30  1  0  0  0  0
 30 31  2  0  0  0  0
 30 32  1  0  0  0  0
 32 33  1  0  0  0  0
 34 35  1  6  0  0  0
 34 32  1  0  0  0  0
 36 35  1  0  0  0  0
 37 36  1  0  0  0  0
 38 28  1  0  0  0  0
 39 38  2  0  0  0  0
 40 38  1  0  0  0  0
 41 40  1  0  0  0  0
M  END
>  <minimizedAffinity>
-5.31332445

$$$$

 OpenBabel03272503003D

 41 44  0  0  1  0  0  0  0  0999 V2000
   37.9470   27.2240   32.8640 N   0  0  0  0  0  0  0  0  0  0  0  0
   37.1220   27.2280   34.0430 C   0  0  0  0  0  0  0  0  0  0  0  0
   37.7690   27.4460   35.3430 C   0  0  0  0  0  0  0  0  0  0  0  0
   39.1970   27.0790   35.4840 C   0  0  0  0  0  0  0  0  0  0  0  0
   39.9600   27.0090   34.1810 C   0  0  0  0  0  0  0  0  0  0  0  0
   39.0670   26.3600   33.1170 C   0  0  1  0  0  0  0  0  0  0  0  0
   36.5460   26.2710   34.0530 H   0  0  0  0  0  0  0  0  0  0  0  0
   36.3450   28.0190   33.8750 H   0  0  0  0  0  0  0  0  0  0  0  0
   37.6810   28.5340   35.6180 H   0  0  0  0  0  0  0  0  0  0  0  0
   37.1990   26.9010   36.1260 H   0  0  0  0  0  0  0  0  0  0  0  0
   39.7630   27.7790   36.1340 H   0  0  0  0  0  0  0  0  0  0  0  0
   39.3100   26.0760   35.9740 H   0  0  0  0  0  0  0  0  0  0  0  0
   40.8220   26.3270   34.2970 H   0  0  0  0  0  0  0  0  0  0  0  0
   40.3260   27.9900   33.8500 H   0  0  0  0  0  0  0  0  0  0  0  0
   39.6430   26.1110   32.2150 H   0  0  0  0  0  0  0  0  0  0  0  0
   37.6860   27.9520   31.6670 C   0  0  0  0  0  0  0  0  0  0  0  0
   38.4550   27.8550   30.5040 C   0  0  0  0  0  0  0  0  0  0  0  0
   38.0890   28.6210   29.4110 C   0  0  0  0  0  0  0  0  0  0  0  0
   36.9970   29.4290   29.5280 N   0  0  0  0  0  0  0  0  0  0  0  0
   36.2900   29.4910   30.6630 C   0  0  0  0  0  0  0  0  0  0  0  0
   36.6280   28.7520   31.7420 N   0  0  0  0  0  0  0  0  0  0  0  0
   39.2950   27.1890   30.5160 H   0  0  0  0  0  0  0  0  0  0  0  0
   38.7220   28.4980   28.5540 H   0  0  0  0  0  0  0  0  0  0  0  0
   35.4400   30.1660   30.6480 H   0  0  0  0  0  0  0  0  0  0  0  0
   38.6830   25.1420   33.6850 O   0  0  0  0  0  0  0  0  0  0  0  0
   39.4320   24.0840   33.1740 C   0  0  0  0  0  2  0  0  0  0  0  0
   38.5360   22.9210   33.0080 C   0  0  0  0  0  0  0  0  0  0  0  0
   37.8150   22.7250   31.9130 C   0  0  0  0  0  0  0  0  0  0  0  0
   36.9880   21.5680   31.8690 N   0  0  0  0  0  0  0  0  0  0  0  0
   36.5240   20.3850   31.1850 C   0  0  0  0  0  0  0  0  0  0  0  0
   36.3450   20.1520   29.9480 O   0  0  0  0  0  0  0  0  0  0  0  0
   36.4190   19.7710   32.5370 C   0  0  0  0  0  3  0  0  0  0  0  0
   35.5990   19.0430   32.6600 H   0  0  0  0  0  0  0  0  0  0  0  0
   36.0670   21.1880   32.9350 C   0  0  1  0  0  3  0  0  0  0  0  0
   36.8370   21.5560   34.5590 S   0  0  0  0  0  0  0  0  0  0  0  0
   38.5530   22.0070   34.1700 C   0  0  0  0  0  3  0  0  0  0  0  0
   38.9220   22.5460   35.0600 H   0  0  0  0  0  0  0  0  0  0  0  0
   37.8150   23.6270   30.7410 C   0  0  0  0  0  0  0  0  0  0  0  0
   38.4700   23.8690   29.7040 O   0  0  0  0  0  0  0  0  0  0  0  0
   36.9020   24.6110   30.4680 O   0  0  0  0  0  0  0  0  0  0  0  0
   37.0610   25.5980   30.4050 H   0  0  0  0  0  0  0  0  0  0  0  0
  1  6  1  0  0  0  0
  1  2  1  0  0  0  0
  2  7  1  0  0  0  0
  2  3  1  0  0  0  0
  3  4  1  0  0  0  0
  3  9  1  0  0  0  0
  3 10  1  0  0  0  0
  4 12  1  0  0  0  0
  4 11  1  0  0  0  0
  5 13  1  0  0  0  0
  5  4  1  0  0  0  0
  6 15  1  6  0  0  0
  6 25  1  0  0  0  0
  6  5  1  0  0  0  0
  8  2  1  0  0  0  0
 14  5  1  0  0  0  0
 16 21  1  0  0  0  0
 16  1  1  0  0  0  0
 17 22  1  0  0  0  0
 17 16  2  0  0  0  0
 18 19  2  0  0  0  0
 18 17  1  0  0  0  0
 19 20  1  0  0  0  0
 20 21  2  0  0  0  0
 23 18  1  0  0  0  0
 24 20  1  0  0  0  0
 26 25  1  0  0  0  0
 27 26  1  0  0  0  0
 27 36  1  0  0  0  0
 28 27  2  0  0  0  0
 29 28  1  0  0  0  0
 29 34  1  0  0  0  0
 30 29  1  0  0  0  0
 30 32  1  0  0  0  0
 31 30  2  0  0  0  0
 32 33  1  0  0  0  0
 34 32  1  1  0  0  0
 34 35  1  0  0  0  0
 36 35  1  0  0  0  0
 36 37  1  0  0  0  0
 38 28  1  0  0  0  0
 39 38  2  0  0  0  0
 40 38  1  0  0  0  0
 41 40  1  0  0  0  0
M  END
>  <minimizedAffinity>
-5.16888475

$$$$
