
 OpenBabel03272507323D

 43 48  0  0  1  0  0  0  0  0999 V2000
   33.6240   26.7520   46.9150 C   0  0  1  0  0  0  0  0  0  0  0  0
   33.7860   25.2820   47.4700 C   0  0  0  0  0  0  0  0  0  0  0  0
   32.8170   25.6400   46.4080 C   0  0  2  0  0  0  0  0  0  0  0  0
   34.6260   27.0780   46.5640 H   0  0  0  0  0  0  0  0  0  0  0  0
   33.4000   25.0710   48.4610 H   0  0  0  0  0  0  0  0  0  0  0  0
   34.6980   24.7460   47.1810 H   0  0  0  0  0  0  0  0  0  0  0  0
   31.7320   25.7260   46.6820 H   0  0  0  0  0  0  0  0  0  0  0  0
   33.0690   27.6340   47.9970 C   0  0  0  0  0  0  0  0  0  0  0  0
   31.8140   27.7700   48.1660 O   0  0  0  0  0  0  0  0  0  0  0  0
   35.8140   29.1520   49.7190 C   0  0  0  0  0  0  0  0  0  0  0  0
   34.7860   29.5760   50.5440 C   0  0  0  0  0  0  0  0  0  0  0  0
   33.5900   29.0670   50.0150 C   0  0  0  0  0  0  0  0  0  0  0  0
   33.9680   28.3600   48.8950 C   0  0  0  0  0  0  0  0  0  0  0  0
   35.2750   28.4400   48.7650 O   0  0  0  0  0  0  0  0  0  0  0  0
   34.7480   30.1840   51.4550 H   0  0  0  0  0  0  0  0  0  0  0  0
   32.5850   29.2020   50.4060 H   0  0  0  0  0  0  0  0  0  0  0  0
   37.1970   29.5010   49.9760 C   0  0  0  0  0  0  0  0  0  0  0  0
   37.8250   28.8900   50.8540 O   0  0  0  0  0  0  0  0  0  0  0  0
   37.7640   30.5540   49.1800 C   0  0  0  0  0  0  0  0  0  0  0  0
   38.0800   31.7360   49.8290 C   0  0  0  0  0  0  0  0  0  0  0  0
   38.6290   32.7800   49.0800 C   0  0  0  0  0  0  0  0  0  0  0  0
   38.8290   32.5800   47.7330 N   0  0  0  0  0  0  0  0  0  0  0  0
   38.5100   31.4230   47.1430 C   0  0  0  0  0  0  0  0  0  0  0  0
   37.9830   30.4160   47.8500 N   0  0  0  0  0  0  0  0  0  0  0  0
   37.9220   31.8860   50.8830 H   0  0  0  0  0  0  0  0  0  0  0  0
   38.8880   33.7230   49.5670 H   0  0  0  0  0  0  0  0  0  0  0  0
   38.6790   31.2960   46.0770 H   0  0  0  0  0  0  0  0  0  0  0  0
   33.0600   25.0060   45.0720 C   0  0  0  0  0  2  0  0  0  0  0  0
   33.9120   23.8150   45.1220 C   0  0  0  0  0  0  0  0  0  0  0  0
   33.5380   22.5940   45.4690 C   0  0  0  0  0  0  0  0  0  0  0  0
   34.4710   21.5190   45.4870 N   0  0  0  0  0  0  0  0  0  0  0  0
   34.6770   20.1280   45.6850 C   0  0  1  0  0  0  0  0  0  0  0  0
   34.1810   19.2060   46.4000 O   0  0  0  0  0  1  0  0  0  0  0  0
   35.7560   20.1730   44.6730 C   0  0  0  0  0  3  0  0  0  0  0  0
   35.4550   20.1110   43.6210 H   0  0  0  0  0  0  0  0  0  0  0  0
   35.8820   21.5700   45.2390 C   0  0  1  0  0  0  0  0  0  0  0  0
   36.2580   22.8460   44.0410 S   0  0  0  0  0  0  0  0  0  0  0  0
   35.2740   24.2000   44.7260 C   0  0  0  0  0  3  0  0  0  0  0  0
   35.8380   24.5880   45.6170 H   0  0  0  0  0  0  0  0  0  0  0  0
   32.1480   22.2750   45.8670 C   0  0  0  0  0  0  0  0  0  0  0  0
   31.1250   22.0180   45.2280 O   0  0  0  0  0  0  0  0  0  0  0  0
   31.7470   22.2120   47.1770 O   0  0  0  0  0  0  0  0  0  0  0  0
   31.1610   21.4890   47.5280 H   0  0  0  0  0  0  0  0  0  0  0  0
  1  4  1  6  0  0  0
  1  2  1  0  0  0  0
  1  8  1  0  0  0  0
  2  5  1  0  0  0  0
  3  7  1  1  0  0  0
  3  1  1  0  0  0  0
  3  2  1  0  0  0  0
  6  2  1  0  0  0  0
  8  9  2  0  0  0  0
  8 13  1  0  0  0  0
 10 17  1  0  0  0  0
 10 11  2  0  0  0  0
 11 15  1  0  0  0  0
 12 16  1  0  0  0  0
 12 11  1  0  0  0  0
 13 12  2  0  0  0  0
 14 13  1  0  0  0  0
 14 10  1  0  0  0  0
 17 18  2  0  0  0  0
 19 20  1  0  0  0  0
 19 17  1  0  0  0  0
 20 25  1  0  0  0  0
 21 26  1  0  0  0  0
 21 20  2  0  0  0  0
 22 21  1  0  0  0  0
 23 22  2  0  0  0  0
 23 24  1  0  0  0  0
 24 19  2  0  0  0  0
 27 23  1  0  0  0  0
 28 29  1  0  0  0  0
 28  3  1  0  0  0  0
 29 30  2  0  0  0  0
 30 31  1  0  0  0  0
 30 40  1  0  0  0  0
 31 32  1  0  0  0  0
 32 33  1  1  0  0  0
 34 36  1  0  0  0  0
 34 32  1  0  0  0  0
 35 34  1  0  0  0  0
 36 37  1  1  0  0  0
 36 31  1  0  0  0  0
 36 32  1  0  0  0  0
 37 38  1  0  0  0  0
 38 29  1  0  0  0  0
 38 39  1  0  0  0  0
 40 42  1  0  0  0  0
 41 40  2  0  0  0  0
 42 43  1  0  0  0  0
M  END
>  <minimizedAffinity>
-4.88547754

>  <minimizedRMSD>
1.26967502

$$$$
