
 OpenBabel03272509533D

 50 54  0  0  1  0  0  0  0  0999 V2000
   33.5100   27.5420   47.8770 C   0  0  0  0  0  0  0  0  0  0  0  0
   33.3700   26.7660   48.6680 H   0  0  0  0  0  0  0  0  0  0  0  0
   33.9160   26.9970   46.9910 H   0  0  0  0  0  0  0  0  0  0  0  0
   32.1960   28.0830   47.4690 C   0  0  0  0  0  0  0  0  0  0  0  0
   31.0680   27.7250   48.2040 C   0  0  0  0  0  0  0  0  0  0  0  0
   29.8130   28.1660   47.9150 C   0  0  0  0  0  0  0  0  0  0  0  0
   29.6560   28.9810   46.8790 N   0  0  0  0  0  0  0  0  0  0  0  0
   30.7520   29.3420   46.1470 C   0  0  0  0  0  0  0  0  0  0  0  0
   32.0140   28.9120   46.4200 N   0  0  0  0  0  0  0  0  0  0  0  0
   31.1880   27.0580   49.0540 H   0  0  0  0  0  0  0  0  0  0  0  0
   28.9710   27.8570   48.5180 H   0  0  0  0  0  0  0  0  0  0  0  0
   30.5720   30.2680   44.9710 C   0  0  0  0  0  2  0  0  0  0  0  0
   31.8060   30.4970   44.2170 C   0  0  0  0  0  0  0  0  0  0  0  0
   32.2470   31.7180   43.9770 C   0  0  0  0  0  0  0  0  0  0  0  0
   33.4430   31.9260   43.2470 N   0  0  0  0  0  0  0  0  0  0  0  0
   34.1040   32.7040   42.2640 C   0  0  0  0  0  0  0  0  0  0  0  0
   33.9520   33.7410   41.5950 O   0  0  0  0  0  0  0  0  0  0  0  0
   35.2400   31.7550   42.2590 C   0  0  0  0  0  3  0  0  0  0  0  0
   36.1840   32.2850   42.4380 H   0  0  0  0  0  0  0  0  0  0  0  0
   34.6180   31.0630   43.4540 C   0  0  2  0  0  3  0  0  0  0  0  0
   34.0870   29.3820   43.1450 S   0  0  0  0  0  0  0  0  0  0  0  0
   32.4140   29.2160   43.8050 C   0  0  0  0  0  3  0  0  0  0  0  0
   31.7910   28.6660   43.0710 H   0  0  0  0  0  0  0  0  0  0  0  0
   31.5220   32.8860   44.4540 C   0  0  0  0  0  0  0  0  0  0  0  0
   32.0240   34.0270   44.5610 O   0  0  0  0  0  0  0  0  0  0  0  0
   30.5520   33.7210   44.9300 O   0  0  0  0  0  0  0  0  0  0  0  0
   29.9310   33.3980   45.6830 H   0  0  0  0  0  0  0  0  0  0  0  0
   34.4850   28.6140   48.2560 C   0  0  0  0  0  0  0  0  0  0  0  0
   35.3650   28.6160   47.5750 H   0  0  0  0  0  0  0  0  0  0  0  0
   34.0430   29.6290   48.1840 H   0  0  0  0  0  0  0  0  0  0  0  0
   35.0030   28.3770   49.5630 O   0  0  0  0  0  0  0  0  0  0  0  0
   37.3840   30.1940   51.5630 C   0  0  0  0  0  0  0  0  0  0  0  0
   38.1020   30.8830   50.5490 C   0  0  0  0  0  0  0  0  0  0  0  0
   37.7130   30.6700   49.2460 C   0  0  0  0  0  0  0  0  0  0  0  0
   36.6590   29.8070   49.0430 N   0  0  0  0  0  0  0  0  0  0  0  0
   36.0030   29.1720   50.0230 C   0  0  0  0  0  0  0  0  0  0  0  0
   36.3820   29.3800   51.2910 N   0  0  0  0  0  0  0  0  0  0  0  0
   37.7550   30.4180   52.5500 H   0  0  0  0  0  0  0  0  0  0  0  0
   38.9170   31.5520   50.6910 H   0  0  0  0  0  0  0  0  0  0  0  0
   38.9840   33.2600   49.0260 F   0  0  0  0  0  0  0  0  0  0  0  0
   38.9120   32.4820   47.9550 C   0  0  0  0  0  0  0  0  0  0  0  0
   38.3110   31.2730   48.0810 C   0  0  0  0  0  0  0  0  0  0  0  0
   38.2920   30.5380   46.8900 C   0  0  0  0  0  0  0  0  0  0  0  0
   38.8270   30.9960   45.7140 C   0  0  0  0  0  0  0  0  0  0  0  0
   39.4250   32.2330   45.6430 C   0  0  0  0  0  0  0  0  0  0  0  0
   39.4610   32.9780   46.7930 C   0  0  0  0  0  0  0  0  0  0  0  0
   37.8380   29.5430   46.8450 H   0  0  0  0  0  0  0  0  0  0  0  0
   38.8030   30.4140   44.8020 H   0  0  0  0  0  0  0  0  0  0  0  0
   39.8470   32.6000   44.7280 H   0  0  0  0  0  0  0  0  0  0  0  0
   39.9250   33.9540   46.7630 H   0  0  0  0  0  0  0  0  0  0  0  0
  1 28  1  0  0  0  0
  1  2  1  0  0  0  0
  3  1  1  0  0  0  0
  4  1  1  0  0  0  0
  4  5  1  0  0  0  0
  5 10  1  0  0  0  0
  6  5  2  0  0  0  0
  6 11  1  0  0  0  0
  7  6  1  0  0  0  0
  8  9  1  0  0  0  0
  8  7  2  0  0  0  0
  9  4  2  0  0  0  0
 12  8  1  0  0  0  0
 13 12  1  0  0  0  0
 14 13  2  0  0  0  0
 14 24  1  0  0  0  0
 15 20  1  0  0  0  0
 15 14  1  0  0  0  0
 16 15  1  0  0  0  0
 17 16  2  0  0  0  0
 18 16  1  0  0  0  0
 18 19  1  0  0  0  0
 20 18  1  6  0  0  0
 21 20  1  0  0  0  0
 21 22  1  0  0  0  0
 22 13  1  0  0  0  0
 23 22  1  0  0  0  0
 24 25  2  0  0  0  0
 24 26  1  0  0  0  0
 26 27  1  0  0  0  0
 28 31  1  0  0  0  0
 29 28  1  0  0  0  0
 30 28  1  0  0  0  0
 31 36  1  0  0  0  0
 32 38  1  0  0  0  0
 33 39  1  0  0  0  0
 33 32  2  0  0  0  0
 34 33  1  0  0  0  0
 35 34  2  0  0  0  0
 35 36  1  0  0  0  0
 36 37  2  0  0  0  0
 37 32  1  0  0  0  0
 41 42  1  0  0  0  0
 41 40  1  0  0  0  0
 42 34  1  0  0  0  0
 43 42  2  0  0  0  0
 44 43  1  0  0  0  0
 45 44  2  0  0  0  0
 45 46  1  0  0  0  0
 46 41  2  0  0  0  0
 47 43  1  0  0  0  0
 48 44  1  0  0  0  0
 49 45  1  0  0  0  0
 50 46  1  0  0  0  0
M  END
>  <minimizedAffinity>
-7.00953627

>  <minimizedRMSD>
1.18975806

$$$$
