
 OpenBabel03272507093D

 34 37  0  0  1  0  0  0  0  0999 V2000
   35.8810   29.1780   49.8180 C   0  0  0  0  0  0  0  0  0  0  0  0
   34.9180   29.6060   50.7010 C   0  0  0  0  0  0  0  0  0  0  0  0
   33.6970   29.1070   50.2130 C   0  0  0  0  0  0  0  0  0  0  0  0
   34.0070   28.4080   49.0610 C   0  0  0  0  0  0  0  0  0  0  0  0
   35.2970   28.4870   48.8840 O   0  0  0  0  0  0  0  0  0  0  0  0
   35.0540   30.2110   51.6050 H   0  0  0  0  0  0  0  0  0  0  0  0
   32.7140   29.2580   50.6740 H   0  0  0  0  0  0  0  0  0  0  0  0
   37.2810   29.5090   50.0050 C   0  0  0  0  0  0  0  0  0  0  0  0
   37.9500   28.8730   50.8510 O   0  0  0  0  0  0  0  0  0  0  0  0
   37.8340   30.5710   49.1950 C   0  0  0  0  0  0  0  0  0  0  0  0
   38.1700   31.7570   49.8320 C   0  0  0  0  0  0  0  0  0  0  0  0
   38.7040   32.7970   49.0840 C   0  0  0  0  0  0  0  0  0  0  0  0
   38.8740   32.5940   47.7420 N   0  0  0  0  0  0  0  0  0  0  0  0
   38.5400   31.4330   47.1420 C   0  0  0  0  0  0  0  0  0  0  0  0
   38.0260   30.4330   47.8610 N   0  0  0  0  0  0  0  0  0  0  0  0
   38.0380   31.9230   50.8880 H   0  0  0  0  0  0  0  0  0  0  0  0
   38.9750   33.7340   49.5530 H   0  0  0  0  0  0  0  0  0  0  0  0
   38.6980   31.3220   46.0590 H   0  0  0  0  0  0  0  0  0  0  0  0
   32.9460   27.7290   48.2580 C   0  0  0  0  0  2  0  0  0  0  0  0
   33.3040   27.9060   46.8390 C   0  0  0  0  0  0  0  0  0  0  0  0
   33.6630   26.9330   46.0350 C   0  0  0  0  0  0  0  0  0  0  0  0
   33.9720   27.2390   44.6880 N   0  0  0  0  0  0  0  0  0  0  0  0
   34.8440   27.0100   43.5640 C   0  0  0  0  0  0  0  0  0  0  0  0
   35.7570   26.1780   43.2440 O   0  0  0  0  0  0  0  0  0  0  0  0
   34.3030   28.1540   42.8090 C   0  0  0  0  0  3  0  0  0  0  0  0
   33.9790   27.9260   41.7690 H   0  0  0  0  0  0  0  0  0  0  0  0
   33.2260   28.1690   43.8440 C   0  0  2  0  0  3  0  0  0  0  0  0
   33.1810   29.7330   44.7810 S   0  0  0  0  0  0  0  0  0  0  0  0
   33.1850   29.3530   46.5540 C   0  0  0  0  0  3  0  0  0  0  0  0
   32.2150   29.7860   46.9370 H   0  0  0  0  0  0  0  0  0  0  0  0
   33.7550   25.5210   46.4630 C   0  0  0  0  0  0  0  0  0  0  0  0
   33.0010   24.7240   47.0460 O   0  0  0  0  0  0  0  0  0  0  0  0
   34.8620   24.7370   46.2520 O   0  0  0  0  0  0  0  0  0  0  0  0
   35.2950   24.2130   47.0010 H   0  0  0  0  0  0  0  0  0  0  0  0
  1  8  1  0  0  0  0
  1  2  2  0  0  0  0
  2  6  1  0  0  0  0
  3  7  1  0  0  0  0
  3  2  1  0  0  0  0
  4  3  2  0  0  0  0
  5  4  1  0  0  0  0
  5  1  1  0  0  0  0
  8  9  2  0  0  0  0
 10 11  1  0  0  0  0
 10  8  1  0  0  0  0
 11 16  1  0  0  0  0
 12 17  1  0  0  0  0
 12 11  2  0  0  0  0
 13 12  1  0  0  0  0
 14 13  2  0  0  0  0
 14 15  1  0  0  0  0
 15 10  2  0  0  0  0
 18 14  1  0  0  0  0
 19  4  1  0  0  0  0
 20 19  1  0  0  0  0
 21 31  1  0  0  0  0
 21 20  2  0  0  0  0
 22 21  1  0  0  0  0
 23 22  1  0  0  0  0
 24 23  2  0  0  0  0
 25 23  1  0  0  0  0
 26 25  1  0  0  0  0
 27 25  1  6  0  0  0
 27 22  1  0  0  0  0
 27 28  1  0  0  0  0
 28 29  1  0  0  0  0
 29 20  1  0  0  0  0
 29 30  1  0  0  0  0
 31 32  2  0  0  0  0
 33 31  1  0  0  0  0
 33 34  1  0  0  0  0
M  END
>  <minimizedAffinity>
-5.1062727

>  <minimizedRMSD>
1.32270455

$$$$
