
 OpenBabel03272507333D

 43 48  0  0  1  0  0  0  0  0999 V2000
   33.3910   26.9990   47.1670 C   0  0  1  0  0  0  0  0  0  0  0  0
   33.8530   25.5450   47.5760 C   0  0  0  0  0  0  0  0  0  0  0  0
   32.6350   25.8060   46.7740 C   0  0  2  0  0  0  0  0  0  0  0  0
   34.2420   27.4690   46.6300 H   0  0  0  0  0  0  0  0  0  0  0  0
   33.7270   25.2470   48.6110 H   0  0  0  0  0  0  0  0  0  0  0  0
   34.7380   25.1480   47.0620 H   0  0  0  0  0  0  0  0  0  0  0  0
   31.6370   25.7350   47.2810 H   0  0  0  0  0  0  0  0  0  0  0  0
   32.9860   27.7570   48.3980 C   0  0  0  0  0  0  0  0  0  0  0  0
   31.7810   27.7610   48.8110 O   0  0  0  0  0  0  0  0  0  0  0  0
   35.9120   29.2830   49.7810 C   0  0  0  0  0  0  0  0  0  0  0  0
   34.9680   29.8200   50.6390 C   0  0  0  0  0  0  0  0  0  0  0  0
   33.7150   29.3250   50.2440 C   0  0  0  0  0  0  0  0  0  0  0  0
   33.9790   28.5120   49.1630 C   0  0  0  0  0  0  0  0  0  0  0  0
   35.2740   28.5210   48.9320 O   0  0  0  0  0  0  0  0  0  0  0  0
   35.0230   30.5010   51.4960 H   0  0  0  0  0  0  0  0  0  0  0  0
   32.7500   29.5370   50.6940 H   0  0  0  0  0  0  0  0  0  0  0  0
   37.3240   29.5880   49.9070 C   0  0  0  0  0  0  0  0  0  0  0  0
   38.0070   28.9710   50.7370 O   0  0  0  0  0  0  0  0  0  0  0  0
   37.8510   30.6070   49.0420 C   0  0  0  0  0  0  0  0  0  0  0  0
   38.1950   31.8140   49.6260 C   0  0  0  0  0  0  0  0  0  0  0  0
   38.7070   32.8270   48.8100 C   0  0  0  0  0  0  0  0  0  0  0  0
   38.8440   32.5710   47.4640 N   0  0  0  0  0  0  0  0  0  0  0  0
   38.5000   31.3900   46.9380 C   0  0  0  0  0  0  0  0  0  0  0  0
   38.0080   30.4140   47.7100 N   0  0  0  0  0  0  0  0  0  0  0  0
   38.0860   32.0090   50.6790 H   0  0  0  0  0  0  0  0  0  0  0  0
   38.9860   33.7890   49.2440 H   0  0  0  0  0  0  0  0  0  0  0  0
   38.6190   31.2190   45.8710 H   0  0  0  0  0  0  0  0  0  0  0  0
   32.6510   25.2600   45.3780 C   0  0  0  0  0  2  0  0  0  0  0  0
   33.5420   24.1100   45.1970 C   0  0  0  0  0  0  0  0  0  0  0  0
   33.3000   22.8630   45.5680 C   0  0  0  0  0  0  0  0  0  0  0  0
   34.2560   21.8340   45.3430 N   0  0  0  0  0  0  0  0  0  0  0  0
   34.5550   20.4490   45.4370 C   0  0  1  0  0  0  0  0  0  0  0  0
   34.2630   19.4830   46.2030 O   0  0  0  0  0  1  0  0  0  0  0  0
   35.3890   20.5740   44.2190 C   0  0  0  0  0  3  0  0  0  0  0  0
   34.8700   20.5310   43.2540 H   0  0  0  0  0  0  0  0  0  0  0  0
   35.5770   21.9590   44.8000 C   0  0  1  0  0  0  0  0  0  0  0  0
   35.6360   23.2870   43.6010 S   0  0  0  0  0  0  0  0  0  0  0  0
   34.7690   24.5710   44.5350 C   0  0  0  0  0  3  0  0  0  0  0  0
   35.4960   24.9580   45.2990 H   0  0  0  0  0  0  0  0  0  0  0  0
   32.0420   22.4670   46.2410 C   0  0  0  0  0  0  0  0  0  0  0  0
   30.8900   22.2880   45.8390 O   0  0  0  0  0  0  0  0  0  0  0  0
   31.9690   22.2130   47.5860 O   0  0  0  0  0  0  0  0  0  0  0  0
   31.4720   21.4360   47.9630 H   0  0  0  0  0  0  0  0  0  0  0  0
  1  4  1  6  0  0  0
  1  2  1  0  0  0  0
  1  8  1  0  0  0  0
  2  5  1  0  0  0  0
  3  1  1  0  0  0  0
  3  7  1  1  0  0  0
  3  2  1  0  0  0  0
  6  2  1  0  0  0  0
  8  9  2  0  0  0  0
  8 13  1  0  0  0  0
 10 17  1  0  0  0  0
 10 11  2  0  0  0  0
 11 15  1  0  0  0  0
 12 11  1  0  0  0  0
 12 16  1  0  0  0  0
 13 12  2  0  0  0  0
 14 13  1  0  0  0  0
 14 10  1  0  0  0  0
 17 18  2  0  0  0  0
 19 20  1  0  0  0  0
 19 17  1  0  0  0  0
 20 25  1  0  0  0  0
 21 26  1  0  0  0  0
 21 20  2  0  0  0  0
 22 21  1  0  0  0  0
 23 22  2  0  0  0  0
 23 24  1  0  0  0  0
 24 19  2  0  0  0  0
 27 23  1  0  0  0  0
 28  3  1  0  0  0  0
 29 28  1  0  0  0  0
 29 30  2  0  0  0  0
 30 40  1  0  0  0  0
 31 32  1  0  0  0  0
 31 30  1  0  0  0  0
 32 33  1  1  0  0  0
 34 36  1  0  0  0  0
 34 32  1  0  0  0  0
 35 34  1  0  0  0  0
 36 37  1  1  0  0  0
 36 31  1  0  0  0  0
 36 32  1  0  0  0  0
 37 38  1  0  0  0  0
 38 29  1  0  0  0  0
 38 39  1  0  0  0  0
 40 42  1  0  0  0  0
 41 40  2  0  0  0  0
 42 43  1  0  0  0  0
M  END
>  <minimizedAffinity>
-4.87638521

>  <minimizedRMSD>
1.37985563

$$$$
