
 OpenBabel03272509533D

 50 54  0  0  1  0  0  0  0  0999 V2000
   33.7980   27.3950   47.7160 C   0  0  0  0  0  0  0  0  0  0  0  0
   33.9350   26.5150   48.3900 H   0  0  0  0  0  0  0  0  0  0  0  0
   34.2690   27.1060   46.7450 H   0  0  0  0  0  0  0  0  0  0  0  0
   32.3590   27.5940   47.4390 C   0  0  0  0  0  0  0  0  0  0  0  0
   31.4740   27.6540   48.5140 C   0  0  0  0  0  0  0  0  0  0  0  0
   30.1320   27.8340   48.3710 C   0  0  0  0  0  0  0  0  0  0  0  0
   29.6420   27.9600   47.1430 N   0  0  0  0  0  0  0  0  0  0  0  0
   30.4960   27.9030   46.0790 C   0  0  0  0  0  0  0  0  0  0  0  0
   31.8390   27.7240   46.2010 N   0  0  0  0  0  0  0  0  0  0  0  0
   31.8680   27.5520   49.5220 H   0  0  0  0  0  0  0  0  0  0  0  0
   29.4890   27.8730   49.2390 H   0  0  0  0  0  0  0  0  0  0  0  0
   29.9380   28.0470   44.6860 C   0  0  0  0  0  2  0  0  0  0  0  0
   29.1780   29.2820   44.4890 C   0  0  0  0  0  0  0  0  0  0  0  0
   27.8640   29.2650   44.3530 C   0  0  0  0  0  0  0  0  0  0  0  0
   27.1410   30.4670   44.1630 N   0  0  0  0  0  0  0  0  0  0  0  0
   26.0770   31.1090   43.4790 C   0  0  0  0  0  0  0  0  0  0  0  0
   25.1240   30.8500   42.7250 O   0  0  0  0  0  0  0  0  0  0  0  0
   26.5050   32.4190   44.0190 C   0  0  0  0  0  3  0  0  0  0  0  0
   25.6690   32.9180   44.5250 H   0  0  0  0  0  0  0  0  0  0  0  0
   27.4930   31.6900   44.9050 C   0  0  2  0  0  3  0  0  0  0  0  0
   29.2120   32.0380   44.5420 S   0  0  0  0  0  0  0  0  0  0  0  0
   30.0760   30.4540   44.4680 C   0  0  0  0  0  3  0  0  0  0  0  0
   30.7540   30.4550   43.5890 H   0  0  0  0  0  0  0  0  0  0  0  0
   27.1200   28.0150   44.3940 C   0  0  0  0  0  0  0  0  0  0  0  0
   26.0570   27.8540   45.0310 O   0  0  0  0  0  0  0  0  0  0  0  0
   26.7160   26.7250   44.2000 O   0  0  0  0  0  0  0  0  0  0  0  0
   27.4110   25.9680   44.2280 H   0  0  0  0  0  0  0  0  0  0  0  0
   34.4690   28.6390   48.2100 C   0  0  0  0  0  0  0  0  0  0  0  0
   35.4010   28.8470   47.6400 H   0  0  0  0  0  0  0  0  0  0  0  0
   33.8310   29.5380   48.0890 H   0  0  0  0  0  0  0  0  0  0  0  0
   34.8710   28.4810   49.5700 O   0  0  0  0  0  0  0  0  0  0  0  0
   37.3400   30.1650   51.5800 C   0  0  0  0  0  0  0  0  0  0  0  0
   38.0800   30.8380   50.5720 C   0  0  0  0  0  0  0  0  0  0  0  0
   37.6730   30.6630   49.2680 C   0  0  0  0  0  0  0  0  0  0  0  0
   36.5830   29.8480   49.0600 N   0  0  0  0  0  0  0  0  0  0  0  0
   35.9060   29.2270   50.0340 C   0  0  0  0  0  0  0  0  0  0  0  0
   36.3030   29.3980   51.3020 N   0  0  0  0  0  0  0  0  0  0  0  0
   37.7270   30.3570   52.5670 H   0  0  0  0  0  0  0  0  0  0  0  0
   38.9230   31.4700   50.7180 H   0  0  0  0  0  0  0  0  0  0  0  0
   38.9470   33.2520   49.0510 F   0  0  0  0  0  0  0  0  0  0  0  0
   38.8910   32.4670   47.9840 C   0  0  0  0  0  0  0  0  0  0  0  0
   38.2880   31.2590   48.1090 C   0  0  0  0  0  0  0  0  0  0  0  0
   38.2870   30.5160   46.9220 C   0  0  0  0  0  0  0  0  0  0  0  0
   38.8390   30.9670   45.7510 C   0  0  0  0  0  0  0  0  0  0  0  0
   39.4380   32.2040   45.6810 C   0  0  0  0  0  0  0  0  0  0  0  0
   39.4570   32.9560   46.8260 C   0  0  0  0  0  0  0  0  0  0  0  0
   37.8340   29.5210   46.8770 H   0  0  0  0  0  0  0  0  0  0  0  0
   38.8290   30.3790   44.8430 H   0  0  0  0  0  0  0  0  0  0  0  0
   39.8730   32.5650   44.7700 H   0  0  0  0  0  0  0  0  0  0  0  0
   39.9210   33.9310   46.7970 H   0  0  0  0  0  0  0  0  0  0  0  0
  1 28  1  0  0  0  0
  1  2  1  0  0  0  0
  3  1  1  0  0  0  0
  4  1  1  0  0  0  0
  4  5  1  0  0  0  0
  5 10  1  0  0  0  0
  6  5  2  0  0  0  0
  6 11  1  0  0  0  0
  7  6  1  0  0  0  0
  8  9  1  0  0  0  0
  8  7  2  0  0  0  0
  9  4  2  0  0  0  0
 12  8  1  0  0  0  0
 13 12  1  0  0  0  0
 14 24  1  0  0  0  0
 14 13  2  0  0  0  0
 15 14  1  0  0  0  0
 15 20  1  0  0  0  0
 16 18  1  0  0  0  0
 16 15  1  0  0  0  0
 17 16  2  0  0  0  0
 18 19  1  0  0  0  0
 20 18  1  6  0  0  0
 21 20  1  0  0  0  0
 22 13  1  0  0  0  0
 22 21  1  0  0  0  0
 23 22  1  0  0  0  0
 24 25  2  0  0  0  0
 26 27  1  0  0  0  0
 26 24  1  0  0  0  0
 28 31  1  0  0  0  0
 29 28  1  0  0  0  0
 30 28  1  0  0  0  0
 31 36  1  0  0  0  0
 32 38  1  0  0  0  0
 33 39  1  0  0  0  0
 33 32  2  0  0  0  0
 34 33  1  0  0  0  0
 35 34  2  0  0  0  0
 35 36  1  0  0  0  0
 36 37  2  0  0  0  0
 37 32  1  0  0  0  0
 41 42  1  0  0  0  0
 41 40  1  0  0  0  0
 42 34  1  0  0  0  0
 43 42  2  0  0  0  0
 44 43  1  0  0  0  0
 45 44  2  0  0  0  0
 45 46  1  0  0  0  0
 46 41  2  0  0  0  0
 47 43  1  0  0  0  0
 48 44  1  0  0  0  0
 49 45  1  0  0  0  0
 50 46  1  0  0  0  0
M  END
>  <minimizedAffinity>
-6.78104591

>  <minimizedRMSD>
1.56073725

$$$$
