
 OpenBabel03272507003D

 42 46  0  0  1  0  0  0  0  0999 V2000
   36.4950   27.2850   31.8590 C   0  0  0  0  0  0  0  0  0  0  0  0
   36.4830   27.8420   30.6000 C   0  0  0  0  0  0  0  0  0  0  0  0
   36.2590   29.1860   30.6930 N   0  0  0  0  0  0  0  0  0  0  0  0
   36.1330   29.4430   32.0320 C   0  0  0  0  0  0  0  0  0  0  0  0
   36.2780   28.2870   32.7230 N   0  0  0  0  0  0  0  0  0  0  0  0
   36.6150   27.4240   29.5930 H   0  0  0  0  0  0  0  0  0  0  0  0
   36.1930   29.9000   29.9140 H   0  0  0  0  0  0  0  0  0  0  0  0
   37.5900   24.1920   33.3640 C   0  0  0  0  0  0  0  0  0  0  0  0
   37.2430   23.3070   32.3520 C   0  0  0  0  0  0  0  0  0  0  0  0
   36.6510   23.6360   31.1560 C   0  0  0  0  0  0  0  0  0  0  0  0
   36.3910   24.9560   30.9660 N   0  0  0  0  0  0  0  0  0  0  0  0
   36.7210   25.8560   31.9420 C   0  0  0  0  0  0  0  0  0  0  0  0
   37.3020   25.4640   33.1000 N   0  0  0  0  0  0  0  0  0  0  0  0
   37.4420   22.2470   32.4840 H   0  0  0  0  0  0  0  0  0  0  0  0
   36.4050   22.9110   30.4130 H   0  0  0  0  0  0  0  0  0  0  0  0
   38.5130   24.0580   36.8630 C   0  0  0  0  0  0  0  0  0  0  0  0
   39.3390   22.9140   36.9730 C   0  0  0  0  0  0  0  0  0  0  0  0
   39.5580   22.2030   35.7970 C   0  0  0  0  0  0  0  0  0  0  0  0
   38.9890   22.6270   34.6520 N   0  0  0  0  0  0  0  0  0  0  0  0
   38.2160   23.7110   34.5910 C   0  0  0  0  0  0  0  0  0  0  0  0
   37.9440   24.4740   35.6920 N   0  0  0  0  0  0  0  0  0  0  0  0
   38.3500   24.6030   37.7820 H   0  0  0  0  0  0  0  0  0  0  0  0
   40.1840   21.3170   35.8250 H   0  0  0  0  0  0  0  0  0  0  0  0
   39.8920   22.5490   38.2150 N   0  0  0  0  0  0  0  0  0  0  0  0
   39.3390   22.1640   39.0120 H   0  0  0  0  0  0  0  0  0  0  0  0
   40.9350   22.6680   38.3580 H   0  0  0  0  0  0  0  0  0  0  0  0
   35.8800   30.8200   32.5340 C   0  0  0  0  0  2  0  0  0  0  0  0
   34.6390   30.8920   33.3200 C   0  0  0  0  0  0  0  0  0  0  0  0
   34.5570   31.3120   34.5610 C   0  0  0  0  0  0  0  0  0  0  0  0
   33.2900   31.3260   35.1810 N   0  0  0  0  0  0  0  0  0  0  0  0
   32.5460   31.1160   36.3980 C   0  0  0  0  0  0  0  0  0  0  0  0
   32.7640   30.9320   37.6420 O   0  0  0  0  0  0  0  0  0  0  0  0
   31.2400   31.1800   35.6850 C   0  0  0  0  0  3  0  0  0  0  0  0
   30.5370   31.9390   36.0820 H   0  0  0  0  0  0  0  0  0  0  0  0
   32.0260   31.6700   34.5140 C   0  0  2  0  0  3  0  0  0  0  0  0
   31.9170   30.4810   33.1320 S   0  0  0  0  0  0  0  0  0  0  0  0
   33.5740   30.4130   32.4360 C   0  0  0  0  0  3  0  0  0  0  0  0
   33.7700   29.3710   32.0580 H   0  0  0  0  0  0  0  0  0  0  0  0
   35.7040   31.7830   35.3660 C   0  0  0  0  0  0  0  0  0  0  0  0
   36.2480   32.9040   35.5140 O   0  0  0  0  0  0  0  0  0  0  0  0
   36.4380   30.9790   36.1690 O   0  0  0  0  0  0  0  0  0  0  0  0
   37.4480   30.9800   36.1680 H   0  0  0  0  0  0  0  0  0  0  0  0
  1 12  1  0  0  0  0
  1  5  1  0  0  0  0
  2  3  1  0  0  0  0
  2  1  2  0  0  0  0
  3  4  1  0  0  0  0
  4 27  1  0  0  0  0
  4  5  2  0  0  0  0
  6  2  1  0  0  0  0
  7  3  1  0  0  0  0
  8 20  1  0  0  0  0
  9 14  1  0  0  0  0
  9  8  2  0  0  0  0
 10  9  1  0  0  0  0
 11 10  2  0  0  0  0
 11 12  1  0  0  0  0
 12 13  2  0  0  0  0
 13  8  1  0  0  0  0
 15 10  1  0  0  0  0
 16 17  1  0  0  0  0
 16 22  1  0  0  0  0
 17 24  1  0  0  0  0
 18 23  1  0  0  0  0
 18 17  2  0  0  0  0
 19 18  1  0  0  0  0
 20 19  2  0  0  0  0
 20 21  1  0  0  0  0
 21 16  2  0  0  0  0
 24 26  1  0  0  0  0
 24 25  1  0  0  0  0
 27 28  1  0  0  0  0
 28 29  2  0  0  0  0
 29 30  1  0  0  0  0
 29 39  1  0  0  0  0
 30 31  1  0  0  0  0
 31 32  2  0  0  0  0
 33 34  1  0  0  0  0
 33 31  1  0  0  0  0
 35 36  1  6  0  0  0
 35 30  1  0  0  0  0
 35 33  1  0  0  0  0
 37 36  1  0  0  0  0
 37 28  1  0  0  0  0
 38 37  1  0  0  0  0
 39 40  2  0  0  0  0
 39 41  1  0  0  0  0
 42 41  1  0  0  0  0
M  END
>  <minimizedAffinity>
-6.62054157

$$$$

 OpenBabel03272507003D

 42 46  0  0  1  0  0  0  0  0999 V2000
   36.4060   27.5060   31.7540 C   0  0  0  0  0  0  0  0  0  0  0  0
   37.3520   28.3540   31.2240 C   0  0  0  0  0  0  0  0  0  0  0  0
   36.8520   29.6240   31.1680 N   0  0  0  0  0  0  0  0  0  0  0  0
   35.5820   29.5380   31.6720 C   0  0  0  0  0  0  0  0  0  0  0  0
   35.3270   28.2540   32.0220 N   0  0  0  0  0  0  0  0  0  0  0  0
   38.3780   28.2020   30.8610 H   0  0  0  0  0  0  0  0  0  0  0  0
   37.3230   30.5040   30.8160 H   0  0  0  0  0  0  0  0  0  0  0  0
   37.5780   24.5390   33.4450 C   0  0  0  0  0  0  0  0  0  0  0  0
   37.5090   23.6330   32.3950 C   0  0  0  0  0  0  0  0  0  0  0  0
   37.0920   23.9060   31.1140 C   0  0  0  0  0  0  0  0  0  0  0  0
   36.7200   25.1900   30.8740 N   0  0  0  0  0  0  0  0  0  0  0  0
   36.7760   26.1100   31.8850 C   0  0  0  0  0  0  0  0  0  0  0  0
   37.1970   25.7740   33.1270 N   0  0  0  0  0  0  0  0  0  0  0  0
   37.8020   22.6000   32.5670 H   0  0  0  0  0  0  0  0  0  0  0  0
   37.0580   23.1670   30.3460 H   0  0  0  0  0  0  0  0  0  0  0  0
   39.1400   22.4840   35.9850 C   0  0  0  0  0  0  0  0  0  0  0  0
   38.9640   23.2060   37.1890 C   0  0  0  0  0  0  0  0  0  0  0  0
   38.2890   24.4180   37.0830 C   0  0  0  0  0  0  0  0  0  0  0  0
   37.8540   24.8290   35.8750 N   0  0  0  0  0  0  0  0  0  0  0  0
   38.0410   24.1180   34.7630 C   0  0  0  0  0  0  0  0  0  0  0  0
   38.6910   22.9160   34.7680 N   0  0  0  0  0  0  0  0  0  0  0  0
   39.6650   21.5440   36.0790 H   0  0  0  0  0  0  0  0  0  0  0  0
   38.1270   25.0120   37.9760 H   0  0  0  0  0  0  0  0  0  0  0  0
   39.4530   22.6950   38.4060 N   0  0  0  0  0  0  0  0  0  0  0  0
   40.4660   22.6320   38.6500 H   0  0  0  0  0  0  0  0  0  0  0  0
   38.7560   22.3500   39.1260 H   0  0  0  0  0  0  0  0  0  0  0  0
   34.7090   30.7380   31.7740 C   0  0  0  0  0  2  0  0  0  0  0  0
   34.3690   31.0430   33.1720 C   0  0  0  0  0  0  0  0  0  0  0  0
   33.2360   30.7300   33.7580 C   0  0  0  0  0  0  0  0  0  0  0  0
   33.0600   31.0890   35.1110 N   0  0  0  0  0  0  0  0  0  0  0  0
   32.1430   31.5580   36.1190 C   0  0  0  0  0  0  0  0  0  0  0  0
   30.8890   31.7460   36.2700 O   0  0  0  0  0  0  0  0  0  0  0  0
   33.2410   31.8040   37.0940 C   0  0  0  0  0  3  0  0  0  0  0  0
   33.1180   31.2830   38.0640 H   0  0  0  0  0  0  0  0  0  0  0  0
   34.1110   31.0570   36.1380 C   0  0  2  0  0  3  0  0  0  0  0  0
   35.4130   32.1530   35.4740 S   0  0  0  0  0  0  0  0  0  0  0  0
   35.5330   31.7390   33.7270 C   0  0  0  0  0  3  0  0  0  0  0  0
   35.7910   32.6680   33.1470 H   0  0  0  0  0  0  0  0  0  0  0  0
   32.1210   30.0170   33.1010 C   0  0  0  0  0  0  0  0  0  0  0  0
   30.9660   30.3630   32.7510 O   0  0  0  0  0  0  0  0  0  0  0  0
   32.1770   28.7180   32.7270 O   0  0  0  0  0  0  0  0  0  0  0  0
   31.4410   28.0580   32.9310 H   0  0  0  0  0  0  0  0  0  0  0  0
  1 12  1  0  0  0  0
  1  5  1  0  0  0  0
  2  1  2  0  0  0  0
  3  2  1  0  0  0  0
  3  4  1  0  0  0  0
  4 27  1  0  0  0  0
  4  5  2  0  0  0  0
  6  2  1  0  0  0  0
  7  3  1  0  0  0  0
  8 20  1  0  0  0  0
  9 14  1  0  0  0  0
  9  8  2  0  0  0  0
 10  9  1  0  0  0  0
 11 10  2  0  0  0  0
 11 12  1  0  0  0  0
 12 13  2  0  0  0  0
 13  8  1  0  0  0  0
 15 10  1  0  0  0  0
 16 22  1  0  0  0  0
 16 17  1  0  0  0  0
 17 24  1  0  0  0  0
 18 17  2  0  0  0  0
 18 23  1  0  0  0  0
 19 18  1  0  0  0  0
 20 21  1  0  0  0  0
 20 19  2  0  0  0  0
 21 16  2  0  0  0  0
 24 25  1  0  0  0  0
 24 26  1  0  0  0  0
 27 28  1  0  0  0  0
 28 37  1  0  0  0  0
 28 29  2  0  0  0  0
 29 30  1  0  0  0  0
 30 31  1  0  0  0  0
 30 35  1  0  0  0  0
 31 32  2  0  0  0  0
 31 33  1  0  0  0  0
 33 34  1  0  0  0  0
 35 36  1  6  0  0  0
 35 33  1  0  0  0  0
 37 36  1  0  0  0  0
 38 37  1  0  0  0  0
 39 29  1  0  0  0  0
 40 39  2  0  0  0  0
 41 42  1  0  0  0  0
 41 39  1  0  0  0  0
M  END
>  <minimizedAffinity>
-6.26586771

$$$$

 OpenBabel03272507003D

 42 46  0  0  1  0  0  0  0  0999 V2000
   36.6680   27.2200   32.0970 C   0  0  0  0  0  0  0  0  0  0  0  0
   36.9150   27.7280   30.8420 C   0  0  0  0  0  0  0  0  0  0  0  0
   36.1560   28.8450   30.6390 N   0  0  0  0  0  0  0  0  0  0  0  0
   35.4390   29.0120   31.7920 C   0  0  0  0  0  0  0  0  0  0  0  0
   35.7570   28.0250   32.6630 N   0  0  0  0  0  0  0  0  0  0  0  0
   37.5770   27.4150   30.0220 H   0  0  0  0  0  0  0  0  0  0  0  0
   36.1130   29.4680   29.7840 H   0  0  0  0  0  0  0  0  0  0  0  0
   37.2100   23.6790   32.5440 C   0  0  0  0  0  0  0  0  0  0  0  0
   38.4910   23.7080   33.0800 C   0  0  0  0  0  0  0  0  0  0  0  0
   39.2420   24.8330   33.3250 C   0  0  0  0  0  0  0  0  0  0  0  0
   38.6570   26.0160   33.0070 N   0  0  0  0  0  0  0  0  0  0  0  0
   37.3960   26.0260   32.4770 C   0  0  0  0  0  0  0  0  0  0  0  0
   36.7100   24.8790   32.2600 N   0  0  0  0  0  0  0  0  0  0  0  0
   38.9770   22.7710   33.3420 H   0  0  0  0  0  0  0  0  0  0  0  0
   40.2240   24.7940   33.7400 H   0  0  0  0  0  0  0  0  0  0  0  0
   35.8840   20.3880   33.2680 C   0  0  0  0  0  0  0  0  0  0  0  0
   35.2500   19.9850   32.0680 C   0  0  0  0  0  0  0  0  0  0  0  0
   35.3030   20.8910   31.0140 C   0  0  0  0  0  0  0  0  0  0  0  0
   35.9340   22.0690   31.1850 N   0  0  0  0  0  0  0  0  0  0  0  0
   36.5190   22.4110   32.3330 C   0  0  0  0  0  0  0  0  0  0  0  0
   36.5200   21.5880   33.4230 N   0  0  0  0  0  0  0  0  0  0  0  0
   35.8370   19.6770   34.0800 H   0  0  0  0  0  0  0  0  0  0  0  0
   34.8330   20.6310   30.0710 H   0  0  0  0  0  0  0  0  0  0  0  0
   34.6160   18.7310   31.9830 N   0  0  0  0  0  0  0  0  0  0  0  0
   33.7280   18.4890   32.4750 H   0  0  0  0  0  0  0  0  0  0  0  0
   35.0610   17.9800   31.3840 H   0  0  0  0  0  0  0  0  0  0  0  0
   34.4860   30.1430   31.9520 C   0  0  0  0  0  2  0  0  0  0  0  0
   34.6160   30.7800   33.2710 C   0  0  0  0  0  0  0  0  0  0  0  0
   33.8720   30.5050   34.3170 C   0  0  0  0  0  0  0  0  0  0  0  0
   34.1230   31.2000   35.5190 N   0  0  0  0  0  0  0  0  0  0  0  0
   33.5530   31.8130   36.6930 C   0  0  0  0  0  0  0  0  0  0  0  0
   32.4310   31.8810   37.2980 O   0  0  0  0  0  0  0  0  0  0  0  0
   34.8460   32.4530   37.0640 C   0  0  0  0  0  3  0  0  0  0  0  0
   35.2020   32.2100   38.0850 H   0  0  0  0  0  0  0  0  0  0  0  0
   35.4530   31.5830   36.0140 C   0  0  2  0  0  3  0  0  0  0  0  0
   36.1490   32.6030   34.6670 S   0  0  0  0  0  0  0  0  0  0  0  0
   35.7170   31.7390   33.1490 C   0  0  0  0  0  3  0  0  0  0  0  0
   35.5350   32.4960   32.3360 H   0  0  0  0  0  0  0  0  0  0  0  0
   32.7820   29.5070   34.3330 C   0  0  0  0  0  0  0  0  0  0  0  0
   31.9560   29.1220   33.4700 O   0  0  0  0  0  0  0  0  0  0  0  0
   32.4660   28.7580   35.4140 O   0  0  0  0  0  0  0  0  0  0  0  0
   31.5170   28.6390   35.7380 H   0  0  0  0  0  0  0  0  0  0  0  0
  1 12  1  0  0  0  0
  1  5  1  0  0  0  0
  2  1  2  0  0  0  0
  3  2  1  0  0  0  0
  3  4  1  0  0  0  0
  4 27  1  0  0  0  0
  4  5  2  0  0  0  0
  6  2  1  0  0  0  0
  7  3  1  0  0  0  0
  8  9  1  0  0  0  0
  9 10  2  0  0  0  0
  9 14  1  0  0  0  0
 10 15  1  0  0  0  0
 11 10  1  0  0  0  0
 12 11  2  0  0  0  0
 13 12  1  0  0  0  0
 13  8  2  0  0  0  0
 16 21  1  0  0  0  0
 16 22  1  0  0  0  0
 17 16  2  0  0  0  0
 18 19  2  0  0  0  0
 18 17  1  0  0  0  0
 19 20  1  0  0  0  0
 20  8  1  0  0  0  0
 20 21  2  0  0  0  0
 23 18  1  0  0  0  0
 24 17  1  0  0  0  0
 24 25  1  0  0  0  0
 26 24  1  0  0  0  0
 27 28  1  0  0  0  0
 28 29  2  0  0  0  0
 29 39  1  0  0  0  0
 29 30  1  0  0  0  0
 30 35  1  0  0  0  0
 30 31  1  0  0  0  0
 31 33  1  0  0  0  0
 31 32  2  0  0  0  0
 33 34  1  0  0  0  0
 35 36  1  6  0  0  0
 35 33  1  0  0  0  0
 37 28  1  0  0  0  0
 37 36  1  0  0  0  0
 38 37  1  0  0  0  0
 39 41  1  0  0  0  0
 40 39  2  0  0  0  0
 41 42  1  0  0  0  0
M  END
>  <minimizedAffinity>
-6.23104143

$$$$

 OpenBabel03272507003D

 42 46  0  0  1  0  0  0  0  0999 V2000
   36.5870   26.1870   31.8740 C   0  0  0  0  0  0  0  0  0  0  0  0
   36.3920   25.4870   30.7040 C   0  0  0  0  0  0  0  0  0  0  0  0
   36.5590   24.1510   30.9340 N   0  0  0  0  0  0  0  0  0  0  0  0
   36.8620   24.0450   32.2640 C   0  0  0  0  0  0  0  0  0  0  0  0
   36.8740   25.2810   32.8190 N   0  0  0  0  0  0  0  0  0  0  0  0
   36.1380   25.7920   29.6790 H   0  0  0  0  0  0  0  0  0  0  0  0
   36.4780   23.3480   30.2480 H   0  0  0  0  0  0  0  0  0  0  0  0
   35.6770   29.4780   33.0440 C   0  0  0  0  0  0  0  0  0  0  0  0
   36.0760   30.2310   31.9480 C   0  0  0  0  0  0  0  0  0  0  0  0
   36.6470   29.7460   30.7960 C   0  0  0  0  0  0  0  0  0  0  0  0
   36.8270   28.4010   30.7450 N   0  0  0  0  0  0  0  0  0  0  0  0
   36.4460   27.6280   31.8070 C   0  0  0  0  0  0  0  0  0  0  0  0
   35.8890   28.1710   32.9150 N   0  0  0  0  0  0  0  0  0  0  0  0
   35.9400   31.3090   31.9690 H   0  0  0  0  0  0  0  0  0  0  0  0
   36.9340   30.3740   29.9830 H   0  0  0  0  0  0  0  0  0  0  0  0
   35.4410   31.4840   36.0500 C   0  0  0  0  0  0  0  0  0  0  0  0
   34.0850   31.3830   36.4430 C   0  0  0  0  0  0  0  0  0  0  0  0
   33.2700   30.6000   35.6320 C   0  0  0  0  0  0  0  0  0  0  0  0
   33.7970   29.9990   34.5470 N   0  0  0  0  0  0  0  0  0  0  0  0
   35.0810   30.1200   34.2120 C   0  0  0  0  0  0  0  0  0  0  0  0
   35.9590   30.8660   34.9460 N   0  0  0  0  0  0  0  0  0  0  0  0
   36.0650   32.0940   36.6870 H   0  0  0  0  0  0  0  0  0  0  0  0
   32.2210   30.4890   35.8880 H   0  0  0  0  0  0  0  0  0  0  0  0
   33.6240   32.0480   37.5950 N   0  0  0  0  0  0  0  0  0  0  0  0
   33.5170   33.0830   37.6710 H   0  0  0  0  0  0  0  0  0  0  0  0
   33.3670   31.4680   38.4440 H   0  0  0  0  0  0  0  0  0  0  0  0
   37.1150   22.7220   32.8950 C   0  0  0  0  0  2  0  0  0  0  0  0
   38.3010   22.7530   33.7640 C   0  0  0  0  0  0  0  0  0  0  0  0
   38.3210   22.3910   35.0260 C   0  0  0  0  0  0  0  0  0  0  0  0
   39.5420   22.4750   35.7280 N   0  0  0  0  0  0  0  0  0  0  0  0
   40.1890   22.7770   36.9800 C   0  0  0  0  0  0  0  0  0  0  0  0
   39.8770   23.0000   38.1970 O   0  0  0  0  0  0  0  0  0  0  0  0
   41.5420   22.7570   36.3580 C   0  0  0  0  0  3  0  0  0  0  0  0
   42.2560   22.0560   36.8350 H   0  0  0  0  0  0  0  0  0  0  0  0
   40.8650   22.1740   35.1620 C   0  0  2  0  0  3  0  0  0  0  0  0
   41.0050   23.3080   33.7360 S   0  0  0  0  0  0  0  0  0  0  0  0
   39.3970   23.2540   32.9310 C   0  0  0  0  0  3  0  0  0  0  0  0
   39.1720   24.2670   32.4940 H   0  0  0  0  0  0  0  0  0  0  0  0
   37.1480   21.8910   35.7740 C   0  0  0  0  0  0  0  0  0  0  0  0
   36.2040   21.1190   35.4770 O   0  0  0  0  0  0  0  0  0  0  0  0
   36.8760   22.2270   37.0560 O   0  0  0  0  0  0  0  0  0  0  0  0
   35.9600   22.5190   37.3620 H   0  0  0  0  0  0  0  0  0  0  0  0
  1  5  1  0  0  0  0
  2  3  1  0  0  0  0
  2  1  2  0  0  0  0
  3  4  1  0  0  0  0
  4  5  2  0  0  0  0
  4 27  1  0  0  0  0
  6  2  1  0  0  0  0
  7  3  1  0  0  0  0
  8 20  1  0  0  0  0
  9 14  1  0  0  0  0
  9  8  2  0  0  0  0
 10  9  1  0  0  0  0
 11 10  2  0  0  0  0
 11 12  1  0  0  0  0
 12  1  1  0  0  0  0
 12 13  2  0  0  0  0
 13  8  1  0  0  0  0
 15 10  1  0  0  0  0
 16 17  1  0  0  0  0
 16 22  1  0  0  0  0
 17 24  1  0  0  0  0
 18 23  1  0  0  0  0
 18 17  2  0  0  0  0
 19 18  1  0  0  0  0
 20 19  2  0  0  0  0
 20 21  1  0  0  0  0
 21 16  2  0  0  0  0
 24 25  1  0  0  0  0
 24 26  1  0  0  0  0
 27 28  1  0  0  0  0
 28 29  2  0  0  0  0
 29 30  1  0  0  0  0
 29 39  1  0  0  0  0
 30 31  1  0  0  0  0
 31 32  2  0  0  0  0
 33 34  1  0  0  0  0
 33 31  1  0  0  0  0
 35 36  1  6  0  0  0
 35 30  1  0  0  0  0
 35 33  1  0  0  0  0
 37 36  1  0  0  0  0
 37 28  1  0  0  0  0
 38 37  1  0  0  0  0
 39 41  1  0  0  0  0
 40 39  2  0  0  0  0
 41 42  1  0  0  0  0
M  END
>  <minimizedAffinity>
-6.23063946

$$$$

 OpenBabel03272507003D

 42 46  0  0  1  0  0  0  0  0999 V2000
   37.3870   26.1160   34.0270 C   0  0  0  0  0  0  0  0  0  0  0  0
   37.6750   26.1320   35.3730 C   0  0  0  0  0  0  0  0  0  0  0  0
   38.1400   24.9070   35.7590 N   0  0  0  0  0  0  0  0  0  0  0  0
   38.1300   24.1400   34.6260 C   0  0  0  0  0  0  0  0  0  0  0  0
   37.6740   24.8820   33.5890 N   0  0  0  0  0  0  0  0  0  0  0  0
   37.6030   26.9090   36.1470 H   0  0  0  0  0  0  0  0  0  0  0  0
   38.4490   24.5910   36.7220 H   0  0  0  0  0  0  0  0  0  0  0  0
   35.7730   29.3450   34.0160 C   0  0  0  0  0  0  0  0  0  0  0  0
   35.8730   29.6480   32.6650 C   0  0  0  0  0  0  0  0  0  0  0  0
   36.4480   28.8590   31.6980 C   0  0  0  0  0  0  0  0  0  0  0  0
   36.9600   27.6760   32.1250 N   0  0  0  0  0  0  0  0  0  0  0  0
   36.8790   27.3450   33.4500 C   0  0  0  0  0  0  0  0  0  0  0  0
   36.2980   28.1690   34.3530 N   0  0  0  0  0  0  0  0  0  0  0  0
   35.4690   30.5900   32.3020 H   0  0  0  0  0  0  0  0  0  0  0  0
   36.4970   29.1450   30.6710 H   0  0  0  0  0  0  0  0  0  0  0  0
   35.4500   31.9730   36.4870 C   0  0  0  0  0  0  0  0  0  0  0  0
   34.0580   32.0740   36.7240 C   0  0  0  0  0  0  0  0  0  0  0  0
   33.2500   31.2030   36.0000 C   0  0  0  0  0  0  0  0  0  0  0  0
   33.8170   30.3370   35.1370 N   0  0  0  0  0  0  0  0  0  0  0  0
   35.1340   30.2740   34.9430 C   0  0  0  0  0  0  0  0  0  0  0  0
   36.0080   31.0870   35.6070 N   0  0  0  0  0  0  0  0  0  0  0  0
   36.0680   32.6540   37.0540 H   0  0  0  0  0  0  0  0  0  0  0  0
   32.1750   31.2380   36.1440 H   0  0  0  0  0  0  0  0  0  0  0  0
   33.5580   33.0100   37.6480 N   0  0  0  0  0  0  0  0  0  0  0  0
   33.5550   34.0430   37.4930 H   0  0  0  0  0  0  0  0  0  0  0  0
   33.1550   32.6540   38.5610 H   0  0  0  0  0  0  0  0  0  0  0  0
   38.5780   22.7220   34.6500 C   0  0  0  0  0  2  0  0  0  0  0  0
   40.0420   22.6130   34.5590 C   0  0  0  0  0  0  0  0  0  0  0  0
   40.8530   22.4800   35.5830 C   0  0  0  0  0  0  0  0  0  0  0  0
   42.2380   22.3850   35.3330 N   0  0  0  0  0  0  0  0  0  0  0  0
   43.5650   22.7320   35.7750 C   0  0  0  0  0  0  0  0  0  0  0  0
   44.1400   23.2310   36.8000 O   0  0  0  0  0  0  0  0  0  0  0  0
   44.1790   22.2770   34.4980 C   0  0  0  0  0  3  0  0  0  0  0  0
   44.9770   21.5170   34.6170 H   0  0  0  0  0  0  0  0  0  0  0  0
   42.8450   21.6790   34.1950 C   0  0  2  0  0  3  0  0  0  0  0  0
   42.1050   22.4810   32.7300 S   0  0  0  0  0  0  0  0  0  0  0  0
   40.3630   22.6810   33.1310 C   0  0  0  0  0  3  0  0  0  0  0  0
   39.9840   23.6270   32.6540 H   0  0  0  0  0  0  0  0  0  0  0  0
   40.4190   22.4170   36.9950 C   0  0  0  0  0  0  0  0  0  0  0  0
   39.6750   23.1420   37.6990 O   0  0  0  0  0  0  0  0  0  0  0  0
   40.8030   21.4460   37.8550 O   0  0  0  0  0  0  0  0  0  0  0  0
   41.1380   21.6420   38.7870 H   0  0  0  0  0  0  0  0  0  0  0  0
  1  2  2  0  0  0  0
  2  3  1  0  0  0  0
  2  6  1  0  0  0  0
  3  7  1  0  0  0  0
  4 27  1  0  0  0  0
  4  3  1  0  0  0  0
  5  1  1  0  0  0  0
  5  4  2  0  0  0  0
  8 13  1  0  0  0  0
  8 20  1  0  0  0  0
  9  8  2  0  0  0  0
 10 11  2  0  0  0  0
 10  9  1  0  0  0  0
 11 12  1  0  0  0  0
 12  1  1  0  0  0  0
 12 13  2  0  0  0  0
 14  9  1  0  0  0  0
 15 10  1  0  0  0  0
 16 17  1  0  0  0  0
 16 22  1  0  0  0  0
 17 24  1  0  0  0  0
 18 23  1  0  0  0  0
 18 17  2  0  0  0  0
 19 18  1  0  0  0  0
 20 19  2  0  0  0  0
 20 21  1  0  0  0  0
 21 16  2  0  0  0  0
 24 26  1  0  0  0  0
 25 24  1  0  0  0  0
 28 27  1  0  0  0  0
 28 29  2  0  0  0  0
 29 39  1  0  0  0  0
 30 29  1  0  0  0  0
 30 31  1  0  0  0  0
 31 32  2  0  0  0  0
 33 34  1  0  0  0  0
 33 31  1  0  0  0  0
 35 36  1  6  0  0  0
 35 33  1  0  0  0  0
 35 30  1  0  0  0  0
 36 37  1  0  0  0  0
 37 28  1  0  0  0  0
 38 37  1  0  0  0  0
 39 40  2  0  0  0  0
 39 41  1  0  0  0  0
 41 42  1  0  0  0  0
M  END
>  <minimizedAffinity>
-6.1608882

$$$$

 OpenBabel03272507003D

 42 46  0  0  1  0  0  0  0  0999 V2000
   37.1580   26.6890   32.4980 C   0  0  0  0  0  0  0  0  0  0  0  0
   37.1260   27.0670   33.8220 C   0  0  0  0  0  0  0  0  0  0  0  0
   36.4270   28.2320   33.9510 N   0  0  0  0  0  0  0  0  0  0  0  0
   36.0320   28.5630   32.6840 C   0  0  0  0  0  0  0  0  0  0  0  0
   36.4800   27.6230   31.8170 N   0  0  0  0  0  0  0  0  0  0  0  0
   37.5370   26.6230   34.7400 H   0  0  0  0  0  0  0  0  0  0  0  0
   36.2180   28.7830   34.8310 H   0  0  0  0  0  0  0  0  0  0  0  0
   37.5650   23.1350   32.0130 C   0  0  0  0  0  0  0  0  0  0  0  0
   38.9060   23.1030   31.6570 C   0  0  0  0  0  0  0  0  0  0  0  0
   39.7430   24.1880   31.5520 C   0  0  0  0  0  0  0  0  0  0  0  0
   39.1860   25.3950   31.8270 N   0  0  0  0  0  0  0  0  0  0  0  0
   37.8660   25.4640   32.1820 C   0  0  0  0  0  0  0  0  0  0  0  0
   37.0960   24.3540   32.2670 N   0  0  0  0  0  0  0  0  0  0  0  0
   39.3720   22.1460   31.4330 H   0  0  0  0  0  0  0  0  0  0  0  0
   40.7700   24.1030   31.2720 H   0  0  0  0  0  0  0  0  0  0  0  0
   35.9800   20.0630   30.9350 C   0  0  0  0  0  0  0  0  0  0  0  0
   35.3380   19.5640   32.0940 C   0  0  0  0  0  0  0  0  0  0  0  0
   35.4770   20.3290   33.2470 C   0  0  0  0  0  0  0  0  0  0  0  0
   36.1950   21.4690   33.2020 N   0  0  0  0  0  0  0  0  0  0  0  0
   36.7840   21.9040   32.0890 C   0  0  0  0  0  0  0  0  0  0  0  0
   36.7030   21.2220   30.9080 N   0  0  0  0  0  0  0  0  0  0  0  0
   35.8650   19.4610   30.0450 H   0  0  0  0  0  0  0  0  0  0  0  0
   35.0050   19.9920   34.1650 H   0  0  0  0  0  0  0  0  0  0  0  0
   34.6080   18.3620   32.0440 N   0  0  0  0  0  0  0  0  0  0  0  0
   35.0400   17.4170   31.9370 H   0  0  0  0  0  0  0  0  0  0  0  0
   33.5520   18.4090   32.1180 H   0  0  0  0  0  0  0  0  0  0  0  0
   35.2330   29.7900   32.4190 C   0  0  0  0  0  2  0  0  0  0  0  0
   34.0900   29.9020   33.3380 C   0  0  0  0  0  0  0  0  0  0  0  0
   34.0740   30.6220   34.4350 C   0  0  0  0  0  0  0  0  0  0  0  0
   32.8970   30.6320   35.2130 N   0  0  0  0  0  0  0  0  0  0  0  0
   32.3350   30.6550   36.5400 C   0  0  0  0  0  0  0  0  0  0  0  0
   32.7140   30.8390   37.7450 O   0  0  0  0  0  0  0  0  0  0  0  0
   30.9670   30.3540   36.0350 C   0  0  0  0  0  3  0  0  0  0  0  0
   30.1950   31.0910   36.3320 H   0  0  0  0  0  0  0  0  0  0  0  0
   31.5290   30.6160   34.6760 C   0  0  2  0  0  3  0  0  0  0  0  0
   31.4700   29.0990   33.6600 S   0  0  0  0  0  0  0  0  0  0  0  0
   33.0300   29.0690   32.7660 C   0  0  0  0  0  3  0  0  0  0  0  0
   33.3550   28.0000   32.6310 H   0  0  0  0  0  0  0  0  0  0  0  0
   35.2080   31.4380   34.9210 C   0  0  0  0  0  0  0  0  0  0  0  0
   35.5250   32.6430   34.7740 O   0  0  0  0  0  0  0  0  0  0  0  0
   36.2030   30.9520   35.6980 O   0  0  0  0  0  0  0  0  0  0  0  0
   37.1790   31.1280   35.5090 H   0  0  0  0  0  0  0  0  0  0  0  0
  1  2  2  0  0  0  0
  2  3  1  0  0  0  0
  2  6  1  0  0  0  0
  3  7  1  0  0  0  0
  4  3  1  0  0  0  0
  5  1  1  0  0  0  0
  5  4  2  0  0  0  0
  8 20  1  0  0  0  0
  8 13  1  0  0  0  0
  9  8  2  0  0  0  0
 10  9  1  0  0  0  0
 10 11  2  0  0  0  0
 11 12  1  0  0  0  0
 12 13  2  0  0  0  0
 12  1  1  0  0  0  0
 14  9  1  0  0  0  0
 15 10  1  0  0  0  0
 16 17  1  0  0  0  0
 17 18  2  0  0  0  0
 18 23  1  0  0  0  0
 19 18  1  0  0  0  0
 20 19  2  0  0  0  0
 21 16  2  0  0  0  0
 21 20  1  0  0  0  0
 22 16  1  0  0  0  0
 24 17  1  0  0  0  0
 24 26  1  0  0  0  0
 25 24  1  0  0  0  0
 27  4  1  0  0  0  0
 27 28  1  0  0  0  0
 28 29  2  0  0  0  0
 29 39  1  0  0  0  0
 29 30  1  0  0  0  0
 30 31  1  0  0  0  0
 31 32  2  0  0  0  0
 33 34  1  0  0  0  0
 33 31  1  0  0  0  0
 35 36  1  6  0  0  0
 35 30  1  0  0  0  0
 35 33  1  0  0  0  0
 37 28  1  0  0  0  0
 37 36  1  0  0  0  0
 38 37  1  0  0  0  0
 39 41  1  0  0  0  0
 40 39  2  0  0  0  0
 42 41  1  0  0  0  0
M  END
>  <minimizedAffinity>
-6.11444283

$$$$

 OpenBabel03272507003D

 42 46  0  0  1  0  0  0  0  0999 V2000
   36.9990   27.7240   33.2170 C   0  0  0  0  0  0  0  0  0  0  0  0
   36.8330   27.8850   34.5740 C   0  0  0  0  0  0  0  0  0  0  0  0
   36.0140   28.9500   34.8150 N   0  0  0  0  0  0  0  0  0  0  0  0
   35.6810   29.4410   33.5820 C   0  0  0  0  0  0  0  0  0  0  0  0
   36.2820   28.6910   32.6260 N   0  0  0  0  0  0  0  0  0  0  0  0
   37.2190   27.3400   35.4470 H   0  0  0  0  0  0  0  0  0  0  0  0
   35.6890   29.3360   35.7460 H   0  0  0  0  0  0  0  0  0  0  0  0
   39.0640   24.7890   33.6000 C   0  0  0  0  0  0  0  0  0  0  0  0
   39.4010   24.5690   32.2710 C   0  0  0  0  0  0  0  0  0  0  0  0
   38.9990   25.3260   31.1970 C   0  0  0  0  0  0  0  0  0  0  0  0
   38.1980   26.3840   31.4850 N   0  0  0  0  0  0  0  0  0  0  0  0
   37.8460   26.6310   32.7830 C   0  0  0  0  0  0  0  0  0  0  0  0
   38.2770   25.8440   33.7960 N   0  0  0  0  0  0  0  0  0  0  0  0
   40.0420   23.7270   32.0190 H   0  0  0  0  0  0  0  0  0  0  0  0
   39.2900   25.1080   30.1940 H   0  0  0  0  0  0  0  0  0  0  0  0
   39.3750   23.2610   36.8690 C   0  0  0  0  0  0  0  0  0  0  0  0
   40.4060   22.3010   36.7190 C   0  0  0  0  0  0  0  0  0  0  0  0
   40.9780   22.2100   35.4550 C   0  0  0  0  0  0  0  0  0  0  0  0
   40.5340   23.0140   34.4680 N   0  0  0  0  0  0  0  0  0  0  0  0
   39.5610   23.9050   34.6500 C   0  0  0  0  0  0  0  0  0  0  0  0
   38.9390   24.0680   35.8560 N   0  0  0  0  0  0  0  0  0  0  0  0
   38.9380   23.3230   37.8540 H   0  0  0  0  0  0  0  0  0  0  0  0
   41.7730   21.4900   35.2860 H   0  0  0  0  0  0  0  0  0  0  0  0
   40.8030   21.5050   37.8100 N   0  0  0  0  0  0  0  0  0  0  0  0
   40.2210   20.7430   38.2230 H   0  0  0  0  0  0  0  0  0  0  0  0
   41.7520   21.6850   38.2470 H   0  0  0  0  0  0  0  0  0  0  0  0
   34.7860   30.6200   33.4350 C   0  0  0  0  0  2  0  0  0  0  0  0
   35.4670   31.8680   33.8100 C   0  0  0  0  0  0  0  0  0  0  0  0
   35.4000   32.4370   34.9920 C   0  0  0  0  0  0  0  0  0  0  0  0
   36.1160   33.6350   35.2000 N   0  0  0  0  0  0  0  0  0  0  0  0
   36.1310   34.9300   35.8320 C   0  0  0  0  0  0  0  0  0  0  0  0
   35.4700   35.5840   36.7060 O   0  0  0  0  0  0  0  0  0  0  0  0
   37.3240   35.3660   35.0560 C   0  0  0  0  0  3  0  0  0  0  0  0
   38.1770   35.7060   35.6760 H   0  0  0  0  0  0  0  0  0  0  0  0
   37.4410   33.9370   34.6400 C   0  0  2  0  0  3  0  0  0  0  0  0
   37.2050   33.7770   32.8350 S   0  0  0  0  0  0  0  0  0  0  0  0
   36.2010   32.3010   32.6190 C   0  0  0  0  0  3  0  0  0  0  0  0
   35.5260   32.4440   31.7310 H   0  0  0  0  0  0  0  0  0  0  0  0
   34.6270   31.9080   36.1360 C   0  0  0  0  0  0  0  0  0  0  0  0
   33.5310   31.3050   36.2260 O   0  0  0  0  0  0  0  0  0  0  0  0
   35.0310   32.0040   37.4230 O   0  0  0  0  0  0  0  0  0  0  0  0
   34.4210   32.3130   38.1660 H   0  0  0  0  0  0  0  0  0  0  0  0
  1  2  2  0  0  0  0
  2  3  1  0  0  0  0
  2  6  1  0  0  0  0
  3  7  1  0  0  0  0
  4  3  1  0  0  0  0
  5  1  1  0  0  0  0
  5  4  2  0  0  0  0
  8 13  1  0  0  0  0
  8 20  1  0  0  0  0
  9  8  2  0  0  0  0
 10 11  2  0  0  0  0
 10  9  1  0  0  0  0
 11 12  1  0  0  0  0
 12  1  1  0  0  0  0
 12 13  2  0  0  0  0
 14  9  1  0  0  0  0
 15 10  1  0  0  0  0
 16 22  1  0  0  0  0
 17 16  1  0  0  0  0
 17 24  1  0  0  0  0
 18 17  2  0  0  0  0
 19 20  2  0  0  0  0
 19 18  1  0  0  0  0
 20 21  1  0  0  0  0
 21 16  2  0  0  0  0
 23 18  1  0  0  0  0
 24 25  1  0  0  0  0
 24 26  1  0  0  0  0
 27  4  1  0  0  0  0
 27 28  1  0  0  0  0
 28 29  2  0  0  0  0
 29 30  1  0  0  0  0
 29 39  1  0  0  0  0
 30 31  1  0  0  0  0
 31 32  2  0  0  0  0
 33 34  1  0  0  0  0
 33 31  1  0  0  0  0
 35 36  1  6  0  0  0
 35 33  1  0  0  0  0
 35 30  1  0  0  0  0
 37 36  1  0  0  0  0
 37 28  1  0  0  0  0
 38 37  1  0  0  0  0
 39 40  2  0  0  0  0
 39 41  1  0  0  0  0
 41 42  1  0  0  0  0
M  END
>  <minimizedAffinity>
-6.07924318

$$$$

 OpenBabel03272507003D

 42 46  0  0  1  0  0  0  0  0999 V2000
   36.6710   26.9040   32.5760 C   0  0  0  0  0  0  0  0  0  0  0  0
   37.2260   27.1230   33.8170 C   0  0  0  0  0  0  0  0  0  0  0  0
   36.5940   28.1700   34.4250 N   0  0  0  0  0  0  0  0  0  0  0  0
   35.6430   28.5890   33.5350 C   0  0  0  0  0  0  0  0  0  0  0  0
   35.7010   27.8160   32.4240 N   0  0  0  0  0  0  0  0  0  0  0  0
   38.0380   26.6350   34.3740 H   0  0  0  0  0  0  0  0  0  0  0  0
   36.7790   28.5880   35.3810 H   0  0  0  0  0  0  0  0  0  0  0  0
   36.9740   23.5220   31.3510 C   0  0  0  0  0  0  0  0  0  0  0  0
   38.0450   23.6860   30.4820 C   0  0  0  0  0  0  0  0  0  0  0  0
   38.7190   24.8590   30.2400 C   0  0  0  0  0  0  0  0  0  0  0  0
   38.2820   25.9460   30.9260 N   0  0  0  0  0  0  0  0  0  0  0  0
   37.2290   25.8210   31.7910 C   0  0  0  0  0  0  0  0  0  0  0  0
   36.6080   24.6340   31.9830 N   0  0  0  0  0  0  0  0  0  0  0  0
   38.4110   22.8280   29.9240 H   0  0  0  0  0  0  0  0  0  0  0  0
   39.5380   24.9260   29.5580 H   0  0  0  0  0  0  0  0  0  0  0  0
   36.4020   19.9670   30.9610 C   0  0  0  0  0  0  0  0  0  0  0  0
   35.2540   19.7000   31.7460 C   0  0  0  0  0  0  0  0  0  0  0  0
   34.6970   20.7910   32.4050 C   0  0  0  0  0  0  0  0  0  0  0  0
   35.2620   22.0070   32.2680 N   0  0  0  0  0  0  0  0  0  0  0  0
   36.3440   22.2160   31.5180 C   0  0  0  0  0  0  0  0  0  0  0  0
   36.9610   21.2080   30.8330 N   0  0  0  0  0  0  0  0  0  0  0  0
   36.8270   19.1130   30.4540 H   0  0  0  0  0  0  0  0  0  0  0  0
   33.8160   20.6420   33.0210 H   0  0  0  0  0  0  0  0  0  0  0  0
   34.7340   18.3950   31.8290 N   0  0  0  0  0  0  0  0  0  0  0  0
   35.2010   17.6090   32.3330 H   0  0  0  0  0  0  0  0  0  0  0  0
   33.8110   18.1880   31.3520 H   0  0  0  0  0  0  0  0  0  0  0  0
   34.7380   29.7270   33.8490 C   0  0  0  0  0  2  0  0  0  0  0  0
   35.4300   31.0190   33.7280 C   0  0  0  0  0  0  0  0  0  0  0  0
   35.6860   31.6340   32.5960 C   0  0  0  0  0  0  0  0  0  0  0  0
   36.3570   32.8740   32.6440 N   0  0  0  0  0  0  0  0  0  0  0  0
   37.3290   33.7380   32.0230 C   0  0  0  0  0  0  0  0  0  0  0  0
   37.9930   33.8180   30.9360 O   0  0  0  0  0  0  0  0  0  0  0  0
   37.3480   34.6620   33.1910 C   0  0  0  0  0  3  0  0  0  0  0  0
   37.1230   35.7180   32.9450 H   0  0  0  0  0  0  0  0  0  0  0  0
   36.1530   33.9070   33.6700 C   0  0  2  0  0  3  0  0  0  0  0  0
   36.5270   33.0510   35.2400 S   0  0  0  0  0  0  0  0  0  0  0  0
   35.7460   31.4370   35.0960 C   0  0  0  0  0  3  0  0  0  0  0  0
   36.3720   30.6770   35.6400 H   0  0  0  0  0  0  0  0  0  0  0  0
   35.3160   31.1210   31.2600 C   0  0  0  0  0  0  0  0  0  0  0  0
   35.9530   30.5150   30.3650 O   0  0  0  0  0  0  0  0  0  0  0  0
   34.0780   31.2390   30.7280 O   0  0  0  0  0  0  0  0  0  0  0  0
   33.9170   31.5580   29.7830 H   0  0  0  0  0  0  0  0  0  0  0  0
  1  2  2  0  0  0  0
  2  6  1  0  0  0  0
  2  3  1  0  0  0  0
  3  7  1  0  0  0  0
  4 27  1  0  0  0  0
  4  3  1  0  0  0  0
  5  1  1  0  0  0  0
  5  4  2  0  0  0  0
  8 20  1  0  0  0  0
  8 13  1  0  0  0  0
  9  8  2  0  0  0  0
 10  9  1  0  0  0  0
 10 11  2  0  0  0  0
 11 12  1  0  0  0  0
 12 13  2  0  0  0  0
 12  1  1  0  0  0  0
 14  9  1  0  0  0  0
 15 10  1  0  0  0  0
 16 17  1  0  0  0  0
 17 24  1  0  0  0  0
 17 18  2  0  0  0  0
 18 23  1  0  0  0  0
 19 18  1  0  0  0  0
 20 19  2  0  0  0  0
 21 16  2  0  0  0  0
 21 20  1  0  0  0  0
 22 16  1  0  0  0  0
 24 25  1  0  0  0  0
 26 24  1  0  0  0  0
 28 27  1  0  0  0  0
 28 37  1  0  0  0  0
 29 30  1  0  0  0  0
 29 28  2  0  0  0  0
 30 35  1  0  0  0  0
 31 30  1  0  0  0  0
 31 33  1  0  0  0  0
 32 31  2  0  0  0  0
 34 33  1  0  0  0  0
 35 33  1  6  0  0  0
 35 36  1  0  0  0  0
 37 36  1  0  0  0  0
 37 38  1  0  0  0  0
 39 29  1  0  0  0  0
 40 39  2  0  0  0  0
 41 39  1  0  0  0  0
 42 41  1  0  0  0  0
M  END
>  <minimizedAffinity>
-6.07251644

$$$$

 OpenBabel03272507003D

 42 46  0  0  1  0  0  0  0  0999 V2000
   36.2970   27.1990   31.9900 C   0  0  0  0  0  0  0  0  0  0  0  0
   37.2160   28.2240   32.0020 C   0  0  0  0  0  0  0  0  0  0  0  0
   36.5660   29.4250   32.0160 N   0  0  0  0  0  0  0  0  0  0  0  0
   35.2320   29.1170   32.0120 C   0  0  0  0  0  0  0  0  0  0  0  0
   35.0850   27.7710   31.9960 N   0  0  0  0  0  0  0  0  0  0  0  0
   38.3150   28.2480   32.0040 H   0  0  0  0  0  0  0  0  0  0  0  0
   36.9790   30.4000   32.0290 H   0  0  0  0  0  0  0  0  0  0  0  0
   37.8580   24.2410   33.3480 C   0  0  0  0  0  0  0  0  0  0  0  0
   37.8400   23.4310   32.2200 C   0  0  0  0  0  0  0  0  0  0  0  0
   37.3380   23.7720   30.9860 C   0  0  0  0  0  0  0  0  0  0  0  0
   36.8190   25.0230   30.8830 N   0  0  0  0  0  0  0  0  0  0  0  0
   36.8210   25.8480   31.9740 C   0  0  0  0  0  0  0  0  0  0  0  0
   37.3310   25.4480   33.1630 N   0  0  0  0  0  0  0  0  0  0  0  0
   38.2510   22.4270   32.2820 H   0  0  0  0  0  0  0  0  0  0  0  0
   37.3500   23.1060   30.1520 H   0  0  0  0  0  0  0  0  0  0  0  0
   39.8950   22.2720   35.6040 C   0  0  0  0  0  0  0  0  0  0  0  0
   39.5640   22.7480   36.8950 C   0  0  0  0  0  0  0  0  0  0  0  0
   38.6180   23.7670   36.9470 C   0  0  0  0  0  0  0  0  0  0  0  0
   38.0830   24.2320   35.8000 N   0  0  0  0  0  0  0  0  0  0  0  0
   38.4230   23.7560   34.6030 C   0  0  0  0  0  0  0  0  0  0  0  0
   39.3420   22.7560   34.4520 N   0  0  0  0  0  0  0  0  0  0  0  0
   40.6310   21.4810   35.5750 H   0  0  0  0  0  0  0  0  0  0  0  0
   38.3270   24.1690   37.9120 H   0  0  0  0  0  0  0  0  0  0  0  0
   40.1750   22.1980   38.0380 N   0  0  0  0  0  0  0  0  0  0  0  0
   41.1760   22.3440   38.2950 H   0  0  0  0  0  0  0  0  0  0  0  0
   39.5890   21.5960   38.6830 H   0  0  0  0  0  0  0  0  0  0  0  0
   34.1940   30.1830   32.0260 C   0  0  0  0  0  2  0  0  0  0  0  0
   33.7750   30.5130   33.3960 C   0  0  0  0  0  0  0  0  0  0  0  0
   34.1810   31.5610   34.0760 C   0  0  0  0  0  0  0  0  0  0  0  0
   33.6830   31.7440   35.3840 N   0  0  0  0  0  0  0  0  0  0  0  0
   33.9720   32.1750   36.7290 C   0  0  0  0  0  0  0  0  0  0  0  0
   34.8910   32.7860   37.3700 O   0  0  0  0  0  0  0  0  0  0  0  0
   32.6930   31.6160   37.2500 C   0  0  0  0  0  3  0  0  0  0  0  0
   32.0550   32.3490   37.7810 H   0  0  0  0  0  0  0  0  0  0  0  0
   32.3110   31.4420   35.8170 C   0  0  2  0  0  3  0  0  0  0  0  0
   32.1030   29.6700   35.4240 S   0  0  0  0  0  0  0  0  0  0  0  0
   32.8430   29.4570   33.7990 C   0  0  0  0  0  3  0  0  0  0  0  0
   33.3080   28.4330   33.7400 H   0  0  0  0  0  0  0  0  0  0  0  0
   35.1270   32.5770   33.5680 C   0  0  0  0  0  0  0  0  0  0  0  0
   35.0080   33.5390   32.7720 O   0  0  0  0  0  0  0  0  0  0  0  0
   36.4300   32.6350   33.9270 O   0  0  0  0  0  0  0  0  0  0  0  0
   37.1770   32.7440   33.2560 H   0  0  0  0  0  0  0  0  0  0  0  0
  1  5  1  0  0  0  0
  1  2  2  0  0  0  0
  2  6  1  0  0  0  0
  2  3  1  0  0  0  0
  3  7  1  0  0  0  0
  4  3  1  0  0  0  0
  4 27  1  0  0  0  0
  5  4  2  0  0  0  0
  8 20  1  0  0  0  0
  9 14  1  0  0  0  0
  9  8  2  0  0  0  0
 10  9  1  0  0  0  0
 11 10  2  0  0  0  0
 11 12  1  0  0  0  0
 12  1  1  0  0  0  0
 12 13  2  0  0  0  0
 13  8  1  0  0  0  0
 15 10  1  0  0  0  0
 16 17  1  0  0  0  0
 17 18  2  0  0  0  0
 17 24  1  0  0  0  0
 18 23  1  0  0  0  0
 19 18  1  0  0  0  0
 20 19  2  0  0  0  0
 21 20  1  0  0  0  0
 21 16  2  0  0  0  0
 22 16  1  0  0  0  0
 24 25  1  0  0  0  0
 24 26  1  0  0  0  0
 27 28  1  0  0  0  0
 28 37  1  0  0  0  0
 28 29  2  0  0  0  0
 29 30  1  0  0  0  0
 30 35  1  0  0  0  0
 30 31  1  0  0  0  0
 31 33  1  0  0  0  0
 31 32  2  0  0  0  0
 33 34  1  0  0  0  0
 35 36  1  1  0  0  0
 35 33  1  0  0  0  0
 37 36  1  0  0  0  0
 38 37  1  0  0  0  0
 39 41  1  0  0  0  0
 39 29  1  0  0  0  0
 40 39  2  0  0  0  0
 42 41  1  0  0  0  0
M  END
>  <minimizedAffinity>
-6.02829313

$$$$
