
 OpenBabel03272509533D

 50 54  0  0  1  0  0  0  0  0999 V2000
   33.5790   27.5170   47.7410 C   0  0  0  0  0  0  0  0  0  0  0  0
   33.7310   26.5720   48.3150 H   0  0  0  0  0  0  0  0  0  0  0  0
   33.8410   27.2710   46.6830 H   0  0  0  0  0  0  0  0  0  0  0  0
   32.1460   27.8800   47.7430 C   0  0  0  0  0  0  0  0  0  0  0  0
   31.3500   27.4540   48.8030 C   0  0  0  0  0  0  0  0  0  0  0  0
   30.0210   27.7320   48.9030 C   0  0  0  0  0  0  0  0  0  0  0  0
   29.4550   28.4490   47.9400 N   0  0  0  0  0  0  0  0  0  0  0  0
   30.2210   28.8750   46.8920 C   0  0  0  0  0  0  0  0  0  0  0  0
   31.5500   28.6070   46.7750 N   0  0  0  0  0  0  0  0  0  0  0  0
   31.8060   26.8660   49.5960 H   0  0  0  0  0  0  0  0  0  0  0  0
   29.4490   27.3760   49.7490 H   0  0  0  0  0  0  0  0  0  0  0  0
   29.5760   29.6900   45.8000 C   0  0  0  0  0  2  0  0  0  0  0  0
   28.6270   28.9260   44.9890 C   0  0  0  0  0  0  0  0  0  0  0  0
   29.0400   28.1110   44.0350 C   0  0  0  0  0  0  0  0  0  0  0  0
   28.1100   27.3770   43.2590 N   0  0  0  0  0  0  0  0  0  0  0  0
   27.7690   26.9000   41.9680 C   0  0  0  0  0  0  0  0  0  0  0  0
   28.2360   26.8120   40.8200 O   0  0  0  0  0  0  0  0  0  0  0  0
   26.4500   26.4520   42.4700 C   0  0  0  0  0  3  0  0  0  0  0  0
   26.2890   25.3920   42.2350 H   0  0  0  0  0  0  0  0  0  0  0  0
   26.9180   26.7710   43.8740 C   0  0  2  0  0  3  0  0  0  0  0  0
   26.0170   28.0960   44.6730 S   0  0  0  0  0  0  0  0  0  0  0  0
   27.2360   29.2140   45.3980 C   0  0  0  0  0  3  0  0  0  0  0  0
   26.9380   30.2610   45.1820 H   0  0  0  0  0  0  0  0  0  0  0  0
   30.4570   27.9390   43.7540 C   0  0  0  0  0  0  0  0  0  0  0  0
   30.9870   26.8430   43.4700 O   0  0  0  0  0  0  0  0  0  0  0  0
   31.7880   28.1660   43.5540 O   0  0  0  0  0  0  0  0  0  0  0  0
   32.2950   28.7930   44.1930 H   0  0  0  0  0  0  0  0  0  0  0  0
   34.4600   28.6400   48.1930 C   0  0  0  0  0  0  0  0  0  0  0  0
   35.3370   28.7610   47.5180 H   0  0  0  0  0  0  0  0  0  0  0  0
   33.9350   29.6170   48.1860 H   0  0  0  0  0  0  0  0  0  0  0  0
   34.9990   28.3630   49.4840 O   0  0  0  0  0  0  0  0  0  0  0  0
   37.3420   30.1780   51.5290 C   0  0  0  0  0  0  0  0  0  0  0  0
   38.0760   30.8700   50.5300 C   0  0  0  0  0  0  0  0  0  0  0  0
   37.7100   30.6610   49.2200 C   0  0  0  0  0  0  0  0  0  0  0  0
   36.6610   29.7970   48.9970 N   0  0  0  0  0  0  0  0  0  0  0  0
   35.9890   29.1580   49.9630 C   0  0  0  0  0  0  0  0  0  0  0  0
   36.3470   29.3630   51.2380 N   0  0  0  0  0  0  0  0  0  0  0  0
   37.6950   30.3990   52.5230 H   0  0  0  0  0  0  0  0  0  0  0  0
   38.8880   31.5400   50.6880 H   0  0  0  0  0  0  0  0  0  0  0  0
   38.9550   33.2650   49.0220 F   0  0  0  0  0  0  0  0  0  0  0  0
   38.9160   32.4840   47.9520 C   0  0  0  0  0  0  0  0  0  0  0  0
   38.3270   31.2680   48.0680 C   0  0  0  0  0  0  0  0  0  0  0  0
   38.3440   30.5300   46.8790 C   0  0  0  0  0  0  0  0  0  0  0  0
   38.9000   30.9920   45.7130 C   0  0  0  0  0  0  0  0  0  0  0  0
   39.4850   32.2360   45.6530 C   0  0  0  0  0  0  0  0  0  0  0  0
   39.4850   32.9840   46.8000 C   0  0  0  0  0  0  0  0  0  0  0  0
   37.9040   29.5290   46.8260 H   0  0  0  0  0  0  0  0  0  0  0  0
   38.9040   30.4070   44.8030 H   0  0  0  0  0  0  0  0  0  0  0  0
   39.9220   32.6050   44.7460 H   0  0  0  0  0  0  0  0  0  0  0  0
   39.9380   33.9650   46.7790 H   0  0  0  0  0  0  0  0  0  0  0  0
  1  4  1  0  0  0  0
  1 28  1  0  0  0  0
  1  2  1  0  0  0  0
  3  1  1  0  0  0  0
  4  5  1  0  0  0  0
  5  6  2  0  0  0  0
  5 10  1  0  0  0  0
  6 11  1  0  0  0  0
  7  6  1  0  0  0  0
  8  7  2  0  0  0  0
  9  8  1  0  0  0  0
  9  4  2  0  0  0  0
 12  8  1  0  0  0  0
 13 22  1  0  0  0  0
 13 12  1  0  0  0  0
 14 13  2  0  0  0  0
 15 20  1  0  0  0  0
 15 14  1  0  0  0  0
 16 18  1  0  0  0  0
 16 15  1  0  0  0  0
 17 16  2  0  0  0  0
 19 18  1  0  0  0  0
 20 18  1  6  0  0  0
 20 21  1  0  0  0  0
 21 22  1  0  0  0  0
 23 22  1  0  0  0  0
 24 14  1  0  0  0  0
 25 24  2  0  0  0  0
 26 24  1  0  0  0  0
 26 27  1  0  0  0  0
 28 31  1  0  0  0  0
 29 28  1  0  0  0  0
 30 28  1  0  0  0  0
 31 36  1  0  0  0  0
 32 38  1  0  0  0  0
 33 39  1  0  0  0  0
 33 32  2  0  0  0  0
 34 33  1  0  0  0  0
 35 34  2  0  0  0  0
 35 36  1  0  0  0  0
 36 37  2  0  0  0  0
 37 32  1  0  0  0  0
 41 42  1  0  0  0  0
 41 40  1  0  0  0  0
 42 34  1  0  0  0  0
 43 42  2  0  0  0  0
 44 43  1  0  0  0  0
 45 44  2  0  0  0  0
 45 46  1  0  0  0  0
 46 41  2  0  0  0  0
 47 43  1  0  0  0  0
 48 44  1  0  0  0  0
 49 45  1  0  0  0  0
 50 46  1  0  0  0  0
M  END
>  <minimizedAffinity>
-6.46565199

>  <minimizedRMSD>
0.855661154

$$$$
