
 OpenBabel03272509533D

 50 54  0  0  1  0  0  0  0  0999 V2000
   33.5830   27.5110   47.7480 C   0  0  0  0  0  0  0  0  0  0  0  0
   33.7340   26.5660   48.3240 H   0  0  0  0  0  0  0  0  0  0  0  0
   33.8440   27.2610   46.6910 H   0  0  0  0  0  0  0  0  0  0  0  0
   32.1490   27.8740   47.7480 C   0  0  0  0  0  0  0  0  0  0  0  0
   31.3520   27.4470   48.8080 C   0  0  0  0  0  0  0  0  0  0  0  0
   30.0230   27.7260   48.9070 C   0  0  0  0  0  0  0  0  0  0  0  0
   29.4590   28.4440   47.9440 N   0  0  0  0  0  0  0  0  0  0  0  0
   30.2250   28.8710   46.8970 C   0  0  0  0  0  0  0  0  0  0  0  0
   31.5550   28.6020   46.7800 N   0  0  0  0  0  0  0  0  0  0  0  0
   31.8080   26.8590   49.6010 H   0  0  0  0  0  0  0  0  0  0  0  0
   29.4500   27.3690   49.7510 H   0  0  0  0  0  0  0  0  0  0  0  0
   29.5830   29.6860   45.8040 C   0  0  0  0  0  2  0  0  0  0  0  0
   28.6320   28.9240   44.9940 C   0  0  0  0  0  0  0  0  0  0  0  0
   29.0430   28.1100   44.0390 C   0  0  0  0  0  0  0  0  0  0  0  0
   28.1120   27.3790   43.2620 N   0  0  0  0  0  0  0  0  0  0  0  0
   27.7690   26.9030   41.9710 C   0  0  0  0  0  0  0  0  0  0  0  0
   28.2360   26.8160   40.8220 O   0  0  0  0  0  0  0  0  0  0  0  0
   26.4500   26.4560   42.4740 C   0  0  0  0  0  3  0  0  0  0  0  0
   26.2890   25.3970   42.2370 H   0  0  0  0  0  0  0  0  0  0  0  0
   26.9190   26.7730   43.8780 C   0  0  2  0  0  3  0  0  0  0  0  0
   26.0210   28.0970   44.6790 S   0  0  0  0  0  0  0  0  0  0  0  0
   27.2430   29.2130   45.4040 C   0  0  0  0  0  3  0  0  0  0  0  0
   26.9440   30.2600   45.1890 H   0  0  0  0  0  0  0  0  0  0  0  0
   30.4590   27.9390   43.7560 C   0  0  0  0  0  0  0  0  0  0  0  0
   30.9890   26.8420   43.4720 O   0  0  0  0  0  0  0  0  0  0  0  0
   31.7910   28.1650   43.5570 O   0  0  0  0  0  0  0  0  0  0  0  0
   32.2990   28.7910   44.1940 H   0  0  0  0  0  0  0  0  0  0  0  0
   34.4650   28.6340   48.1960 C   0  0  0  0  0  0  0  0  0  0  0  0
   35.3440   28.7490   47.5240 H   0  0  0  0  0  0  0  0  0  0  0  0
   33.9410   29.6120   48.1810 H   0  0  0  0  0  0  0  0  0  0  0  0
   34.9970   28.3640   49.4920 O   0  0  0  0  0  0  0  0  0  0  0  0
   37.3440   30.1780   51.5330 C   0  0  0  0  0  0  0  0  0  0  0  0
   38.0770   30.8700   50.5330 C   0  0  0  0  0  0  0  0  0  0  0  0
   37.7080   30.6610   49.2230 C   0  0  0  0  0  0  0  0  0  0  0  0
   36.6590   29.7970   49.0010 N   0  0  0  0  0  0  0  0  0  0  0  0
   35.9880   29.1590   49.9690 C   0  0  0  0  0  0  0  0  0  0  0  0
   36.3480   29.3630   51.2430 N   0  0  0  0  0  0  0  0  0  0  0  0
   37.6990   30.3990   52.5260 H   0  0  0  0  0  0  0  0  0  0  0  0
   38.8890   31.5400   50.6890 H   0  0  0  0  0  0  0  0  0  0  0  0
   38.9570   33.2630   49.0240 F   0  0  0  0  0  0  0  0  0  0  0  0
   38.9150   32.4830   47.9530 C   0  0  0  0  0  0  0  0  0  0  0  0
   38.3240   31.2680   48.0700 C   0  0  0  0  0  0  0  0  0  0  0  0
   38.3370   30.5300   46.8800 C   0  0  0  0  0  0  0  0  0  0  0  0
   38.8920   30.9920   45.7140 C   0  0  0  0  0  0  0  0  0  0  0  0
   39.4780   32.2350   45.6530 C   0  0  0  0  0  0  0  0  0  0  0  0
   39.4830   32.9820   46.8010 C   0  0  0  0  0  0  0  0  0  0  0  0
   37.8950   29.5300   46.8280 H   0  0  0  0  0  0  0  0  0  0  0  0
   38.8920   30.4080   44.8030 H   0  0  0  0  0  0  0  0  0  0  0  0
   39.9140   32.6040   44.7460 H   0  0  0  0  0  0  0  0  0  0  0  0
   39.9370   33.9620   46.7790 H   0  0  0  0  0  0  0  0  0  0  0  0
  1 28  1  0  0  0  0
  1  2  1  0  0  0  0
  3  1  1  0  0  0  0
  4  1  1  0  0  0  0
  4  5  1  0  0  0  0
  5  6  2  0  0  0  0
  5 10  1  0  0  0  0
  6 11  1  0  0  0  0
  7  6  1  0  0  0  0
  8  7  2  0  0  0  0
  9  8  1  0  0  0  0
  9  4  2  0  0  0  0
 12  8  1  0  0  0  0
 13 22  1  0  0  0  0
 13 12  1  0  0  0  0
 14 13  2  0  0  0  0
 15 20  1  0  0  0  0
 15 14  1  0  0  0  0
 16 18  1  0  0  0  0
 16 15  1  0  0  0  0
 17 16  2  0  0  0  0
 19 18  1  0  0  0  0
 20 18  1  6  0  0  0
 20 21  1  0  0  0  0
 21 22  1  0  0  0  0
 23 22  1  0  0  0  0
 24 14  1  0  0  0  0
 25 24  2  0  0  0  0
 26 24  1  0  0  0  0
 26 27  1  0  0  0  0
 28 31  1  0  0  0  0
 29 28  1  0  0  0  0
 30 28  1  0  0  0  0
 31 36  1  0  0  0  0
 32 38  1  0  0  0  0
 33 39  1  0  0  0  0
 33 32  2  0  0  0  0
 34 33  1  0  0  0  0
 35 34  2  0  0  0  0
 35 36  1  0  0  0  0
 36 37  2  0  0  0  0
 37 32  1  0  0  0  0
 41 42  1  0  0  0  0
 41 40  1  0  0  0  0
 42 34  1  0  0  0  0
 43 42  2  0  0  0  0
 44 43  1  0  0  0  0
 45 44  2  0  0  0  0
 45 46  1  0  0  0  0
 46 41  2  0  0  0  0
 47 43  1  0  0  0  0
 48 44  1  0  0  0  0
 49 45  1  0  0  0  0
 50 46  1  0  0  0  0
M  END
>  <minimizedAffinity>
-6.46535015

>  <minimizedRMSD>
1.52624118

$$$$
