
 OpenBabel03272509073D

 47 52  0  0  1  0  0  0  0  0999 V2000
   33.5600   26.8850   46.9940 C   0  0  0  0  0  0  0  0  0  0  0  0
   33.6490   25.6260   47.5870 C   0  0  0  0  0  0  0  0  0  0  0  0
   34.0320   24.5030   46.8680 C   0  0  0  0  0  0  0  0  0  0  0  0
   34.3390   24.6130   45.5150 C   0  0  0  0  0  0  0  0  0  0  0  0
   34.2490   25.8510   44.9460 C   0  0  0  0  0  0  0  0  0  0  0  0
   33.8710   26.9730   45.6460 C   0  0  0  0  0  0  0  0  0  0  0  0
   33.3960   25.5960   48.6500 H   0  0  0  0  0  0  0  0  0  0  0  0
   34.0600   23.5940   47.4460 H   0  0  0  0  0  0  0  0  0  0  0  0
   34.6330   23.7150   44.9930 H   0  0  0  0  0  0  0  0  0  0  0  0
   34.4980   25.8960   43.8780 H   0  0  0  0  0  0  0  0  0  0  0  0
   33.1620   28.0960   47.7470 C   0  0  0  0  0  0  0  0  0  0  0  0
   32.5070   28.7830   47.1970 H   0  0  0  0  0  0  0  0  0  0  0  0
   32.5320   27.7220   48.6090 H   0  0  0  0  0  0  0  0  0  0  0  0
   34.9330   28.4530   49.4810 C   0  0  0  0  0  3  0  0  0  0  0  0
   34.3020   28.7930   48.3890 C   0  0  0  0  0  3  0  0  0  0  0  0
   37.4060   30.1380   51.5710 C   0  0  0  0  0  0  0  0  0  0  0  0
   38.1090   30.9020   50.6230 C   0  0  0  0  0  0  0  0  0  0  0  0
   37.7090   30.8160   49.2700 C   0  0  0  0  0  0  0  0  0  0  0  0
   36.6540   29.9910   48.9540 N   0  0  0  0  0  0  0  0  0  0  0  0
   36.0270   29.2860   49.9300 C   0  0  0  0  0  0  0  0  0  0  0  0
   36.3890   29.3530   51.2140 N   0  0  0  0  0  0  0  0  0  0  0  0
   37.7960   30.2830   52.5620 H   0  0  0  0  0  0  0  0  0  0  0  0
   38.9280   31.5630   50.7530 H   0  0  0  0  0  0  0  0  0  0  0  0
   38.3680   31.5650   48.2010 C   0  0  0  0  0  0  0  0  0  0  0  0
   38.5810   31.0270   46.9450 C   0  0  0  0  0  0  0  0  0  0  0  0
   39.2280   32.0030   46.1770 C   0  0  0  0  0  0  0  0  0  0  0  0
   39.3780   33.0810   46.9920 N   0  0  0  0  0  0  0  0  0  0  0  0
   38.8630   32.8090   48.1940 N   0  0  0  0  0  0  0  0  0  0  0  0
   38.3480   30.0660   46.5100 H   0  0  0  0  0  0  0  0  0  0  0  0
   39.5460   31.9300   45.1510 H   0  0  0  0  0  0  0  0  0  0  0  0
   39.8380   33.9560   46.6560 H   0  0  0  0  0  0  0  0  0  0  0  0
   33.8630   28.2240   44.9160 C   0  0  0  0  0  2  0  0  0  0  0  0
   32.6680   29.0330   44.8190 C   0  0  0  0  0  0  0  0  0  0  0  0
   31.4010   28.7180   44.5660 C   0  0  0  0  0  0  0  0  0  0  0  0
   30.3140   29.6340   44.4880 N   0  0  0  0  0  0  0  0  0  0  0  0
   28.9550   29.9890   44.6250 C   0  0  1  0  0  0  0  0  0  0  0  0
   27.8910   29.3450   44.8200 O   0  0  0  0  0  1  0  0  0  0  0  0
   29.1710   31.4270   44.4610 C   0  0  0  0  0  3  0  0  0  0  0  0
   28.5550   31.9200   43.6810 H   0  0  0  0  0  0  0  0  0  0  0  0
   30.5400   31.0010   44.0440 C   0  0  2  0  0  0  0  0  0  0  0  0
   31.7880   31.6430   45.1920 S   0  0  0  0  0  0  0  0  0  0  0  0
   33.0690   30.4180   45.0710 C   0  0  0  0  0  3  0  0  0  0  0  0
   33.8000   30.4730   45.9190 H   0  0  0  0  0  0  0  0  0  0  0  0
   31.0720   27.3130   44.3310 C   0  0  0  0  0  2  0  0  0  0  0  0
   30.4220   26.9790   43.3010 O   0  0  0  0  0  0  0  0  0  0  0  0
   30.7630   25.9810   44.1130 O   0  0  0  0  0  0  0  0  0  0  0  0
   31.3830   25.2210   44.4470 H   0  0  0  0  0  0  0  0  0  0  0  0
  1  2  1  0  0  0  0
  1 11  1  0  0  0  0
  2  7  1  0  0  0  0
  3  8  1  0  0  0  0
  3  2  2  0  0  0  0
  4  3  1  0  0  0  0
  5  4  2  0  0  0  0
  5  6  1  0  0  0  0
  6  1  2  0  0  0  0
  9  4  1  0  0  0  0
 10  5  1  0  0  0  0
 11 15  1  0  0  0  0
 11 13  1  0  0  0  0
 12 11  1  0  0  0  0
 14 20  1  0  0  0  0
 15 14  2  0  0  0  0
 16 22  1  0  0  0  0
 17 23  1  0  0  0  0
 17 16  2  0  0  0  0
 18 17  1  0  0  0  0
 19 18  2  0  0  0  0
 19 20  1  0  0  0  0
 20 21  2  0  0  0  0
 21 16  1  0  0  0  0
 24 18  1  0  0  0  0
 25 24  1  0  0  0  0
 26 25  2  0  0  0  0
 26 27  1  0  0  0  0
 27 28  1  0  0  0  0
 28 24  2  0  0  0  0
 29 25  1  0  0  0  0
 30 26  1  0  0  0  0
 31 27  1  0  0  0  0
 32  6  1  0  0  0  0
 33 32  1  0  0  0  0
 33 42  1  0  0  0  0
 34 33  2  0  0  0  0
 35 34  1  0  0  0  0
 35 36  1  0  0  0  0
 36 37  1  6  0  0  0
 38 36  1  0  0  0  0
 39 38  1  0  0  0  0
 40 38  1  6  0  0  0
 40 35  1  0  0  0  0
 40 36  1  0  0  0  0
 40 41  1  0  0  0  0
 42 41  1  0  0  0  0
 42 43  1  0  0  0  0
 44 34  1  0  0  0  0
 45 46  1  0  0  0  0
 45 44  1  0  0  0  0
 46 47  1  0  0  0  0
M  END
>  <minimizedAffinity>
-6.22712088

>  <minimizedRMSD>
1.28703964

$$$$
