
 OpenBabel03272507333D

 43 48  0  0  1  0  0  0  0  0999 V2000
   32.8440   28.3460   46.4100 C   0  0  1  0  0  0  0  0  0  0  0  0
   33.9420   27.9880   45.3320 C   0  0  0  0  0  0  0  0  0  0  0  0
   32.5400   27.5180   45.2390 C   0  0  2  0  0  0  0  0  0  0  0  0
   32.8120   29.4540   46.4830 H   0  0  0  0  0  0  0  0  0  0  0  0
   34.7040   27.2670   45.6080 H   0  0  0  0  0  0  0  0  0  0  0  0
   34.2620   28.8010   44.6690 H   0  0  0  0  0  0  0  0  0  0  0  0
   32.3170   26.4520   45.5050 H   0  0  0  0  0  0  0  0  0  0  0  0
   33.1910   27.6850   47.7130 C   0  0  0  0  0  0  0  0  0  0  0  0
   32.7670   26.5180   48.0000 O   0  0  0  0  0  0  0  0  0  0  0  0
   35.8260   29.1700   49.6240 C   0  0  0  0  0  0  0  0  0  0  0  0
   34.7630   29.4780   50.4540 C   0  0  0  0  0  0  0  0  0  0  0  0
   33.6020   28.9640   49.8560 C   0  0  0  0  0  0  0  0  0  0  0  0
   34.0360   28.3710   48.6900 C   0  0  0  0  0  0  0  0  0  0  0  0
   35.3410   28.5190   48.6000 O   0  0  0  0  0  0  0  0  0  0  0  0
   34.6770   30.0050   51.4110 H   0  0  0  0  0  0  0  0  0  0  0  0
   32.5840   29.0210   50.2300 H   0  0  0  0  0  0  0  0  0  0  0  0
   37.1860   29.5560   49.9430 C   0  0  0  0  0  0  0  0  0  0  0  0
   37.7800   28.9790   50.8660 O   0  0  0  0  0  0  0  0  0  0  0  0
   37.7700   30.6040   49.1530 C   0  0  0  0  0  0  0  0  0  0  0  0
   38.0340   31.8040   49.7930 C   0  0  0  0  0  0  0  0  0  0  0  0
   38.5990   32.8440   49.0490 C   0  0  0  0  0  0  0  0  0  0  0  0
   38.8650   32.6220   47.7170 N   0  0  0  0  0  0  0  0  0  0  0  0
   38.5960   31.4470   47.1360 C   0  0  0  0  0  0  0  0  0  0  0  0
   38.0550   30.4450   47.8380 N   0  0  0  0  0  0  0  0  0  0  0  0
   37.8240   31.9720   50.8350 H   0  0  0  0  0  0  0  0  0  0  0  0
   38.8170   33.8010   49.5280 H   0  0  0  0  0  0  0  0  0  0  0  0
   38.8170   31.3030   46.0820 H   0  0  0  0  0  0  0  0  0  0  0  0
   31.7640   28.0300   44.0640 C   0  0  0  0  0  2  0  0  0  0  0  0
   30.3870   28.4210   44.3830 C   0  0  0  0  0  0  0  0  0  0  0  0
   29.9280   29.6570   44.5030 C   0  0  0  0  0  0  0  0  0  0  0  0
   28.5660   29.9040   44.8280 N   0  0  0  0  0  0  0  0  0  0  0  0
   27.5490   30.8760   45.0240 C   0  0  1  0  0  0  0  0  0  0  0  0
   27.4690   32.0670   45.4500 O   0  0  0  0  0  1  0  0  0  0  0  0
   26.5580   29.9020   44.5090 C   0  0  0  0  0  3  0  0  0  0  0  0
   26.4570   29.8260   43.4200 H   0  0  0  0  0  0  0  0  0  0  0  0
   27.5460   28.9480   45.1430 C   0  0  1  0  0  0  0  0  0  0  0  0
   27.8180   27.4240   44.2440 S   0  0  0  0  0  0  0  0  0  0  0  0
   29.5860   27.2020   44.5600 C   0  0  0  0  0  3  0  0  0  0  0  0
   29.6790   26.8320   45.6170 H   0  0  0  0  0  0  0  0  0  0  0  0
   30.7960   30.8430   44.3200 C   0  0  0  0  0  0  0  0  0  0  0  0
   31.0580   31.5550   43.3490 O   0  0  0  0  0  0  0  0  0  0  0  0
   31.5300   31.3900   45.3430 O   0  0  0  0  0  0  0  0  0  0  0  0
   31.5870   32.3690   45.5010 H   0  0  0  0  0  0  0  0  0  0  0  0
  1  4  1  1  0  0  0
  1  8  1  0  0  0  0
  2  5  1  0  0  0  0
  2  1  1  0  0  0  0
  3  2  1  0  0  0  0
  3  7  1  1  0  0  0
  3  1  1  0  0  0  0
  6  2  1  0  0  0  0
  8  9  2  0  0  0  0
  8 13  1  0  0  0  0
 10 17  1  0  0  0  0
 10 11  2  0  0  0  0
 11 15  1  0  0  0  0
 12 16  1  0  0  0  0
 12 11  1  0  0  0  0
 13 12  2  0  0  0  0
 14 13  1  0  0  0  0
 14 10  1  0  0  0  0
 17 18  2  0  0  0  0
 19 20  1  0  0  0  0
 19 17  1  0  0  0  0
 20 25  1  0  0  0  0
 21 26  1  0  0  0  0
 21 20  2  0  0  0  0
 22 21  1  0  0  0  0
 23 22  2  0  0  0  0
 23 24  1  0  0  0  0
 24 19  2  0  0  0  0
 27 23  1  0  0  0  0
 28 29  1  0  0  0  0
 28  3  1  0  0  0  0
 29 30  2  0  0  0  0
 29 38  1  0  0  0  0
 30 31  1  0  0  0  0
 31 32  1  0  0  0  0
 31 36  1  0  0  0  0
 32 36  1  0  0  0  0
 32 33  1  1  0  0  0
 34 32  1  0  0  0  0
 34 36  1  0  0  0  0
 35 34  1  0  0  0  0
 36 37  1  1  0  0  0
 37 38  1  0  0  0  0
 38 39  1  0  0  0  0
 40 30  1  0  0  0  0
 40 42  1  0  0  0  0
 41 40  2  0  0  0  0
 42 43  1  0  0  0  0
M  END
>  <minimizedAffinity>
-5.30644846

>  <minimizedRMSD>
3.14469647

$$$$
