
 OpenBabel03272509403D

 42 45  0  0  1  0  0  0  0  0999 V2000
   37.0980   31.0820   49.1310 C   0  0  0  0  0  0  0  0  0  0  0  0
   36.5910   31.9280   50.1160 C   0  0  0  0  0  0  0  0  0  0  0  0
   37.0300   33.2360   50.2880 C   0  0  0  0  0  0  0  0  0  0  0  0
   38.0270   33.7360   49.4390 C   0  0  0  0  0  0  0  0  0  0  0  0
   38.5150   32.8950   48.4780 C   0  0  0  0  0  0  0  0  0  0  0  0
   38.0540   31.6030   48.3380 C   0  0  0  0  0  0  0  0  0  0  0  0
   35.8110   31.5960   50.8090 H   0  0  0  0  0  0  0  0  0  0  0  0
   36.6040   33.8520   51.0670 H   0  0  0  0  0  0  0  0  0  0  0  0
   38.3520   34.7560   49.5910 H   0  0  0  0  0  0  0  0  0  0  0  0
   39.2820   33.3670   47.8690 H   0  0  0  0  0  0  0  0  0  0  0  0
   36.5750   29.7420   49.0350 C   0  0  0  0  0  0  0  0  0  0  0  0
   37.2320   28.8660   49.7020 O   0  0  0  0  0  0  0  0  0  0  0  0
   34.0330   29.9550   46.4580 C   0  0  0  0  0  0  0  0  0  0  0  0
   33.2370   28.8390   46.6590 C   0  0  0  0  0  0  0  0  0  0  0  0
   33.5720   27.9980   47.6920 C   0  0  0  0  0  0  0  0  0  0  0  0
   34.6520   28.2810   48.4690 N   0  0  0  0  0  0  0  0  0  0  0  0
   35.3940   29.3530   48.2540 C   0  0  0  0  0  0  0  0  0  0  0  0
   35.0760   30.1900   47.2410 N   0  0  0  0  0  0  0  0  0  0  0  0
   33.8260   30.6730   45.6510 H   0  0  0  0  0  0  0  0  0  0  0  0
   32.4110   28.7360   45.9680 H   0  0  0  0  0  0  0  0  0  0  0  0
   32.9560   27.1410   47.8420 H   0  0  0  0  0  0  0  0  0  0  0  0
   38.6870   30.8510   47.2700 C   0  0  0  0  0  3  0  0  0  0  0  0
   39.5330   31.3130   46.3600 C   0  0  0  0  0  3  0  0  0  0  0  0
   40.2360   30.6650   45.2540 C   0  0  0  0  0  0  0  0  0  0  0  0
   41.2200   31.1420   45.0890 H   0  0  0  0  0  0  0  0  0  0  0  0
   40.4850   29.6070   45.5520 H   0  0  0  0  0  0  0  0  0  0  0  0
   37.0070   27.9780   41.8740 C   0  0  0  0  0  0  0  0  0  0  0  0
   38.2820   27.8460   42.1990 C   0  0  0  0  0  0  0  0  0  0  0  0
   38.9320   28.9350   42.8870 N   0  0  0  0  0  0  0  0  0  0  0  0
   40.1280   29.7400   42.9680 C   0  0  0  0  0  0  0  0  0  0  0  0
   41.2880   29.7480   42.4330 O   0  0  0  0  0  0  0  0  0  0  0  0
   39.4490   30.5960   43.9620 C   0  0  1  0  0  3  0  0  0  0  0  0
   38.2820   29.6590   43.9930 C   0  0  1  0  0  3  0  0  0  0  0  0
   36.7380   30.2850   43.3490 S   0  0  0  0  0  0  0  0  0  0  0  0
   36.1100   29.1320   42.1080 C   0  0  0  0  0  3  0  0  0  0  0  0
   35.8770   29.6690   41.1490 H   0  0  0  0  0  0  0  0  0  0  0  0
   36.3640   26.8600   41.1830 C   0  0  0  0  0  2  0  0  0  0  0  0
   36.4370   25.9590   41.8230 H   0  0  0  0  0  0  0  0  0  0  0  0
   39.0640   26.6490   41.9000 C   0  0  0  0  0  0  0  0  0  0  0  0
   39.1710   25.6290   42.6020 O   0  0  0  0  0  0  0  0  0  0  0  0
   39.8100   26.4810   40.7710 O   0  0  0  0  0  0  0  0  0  0  0  0
   39.8090   25.6260   40.2580 H   0  0  0  0  0  0  0  0  0  0  0  0
  1  2  1  0  0  0  0
  2  3  2  0  0  0  0
  2  7  1  0  0  0  0
  3  8  1  0  0  0  0
  4  9  1  0  0  0  0
  4  3  1  0  0  0  0
  5  4  2  0  0  0  0
  6  5  1  0  0  0  0
  6  1  2  0  0  0  0
 10  5  1  0  0  0  0
 11  1  1  0  0  0  0
 11 12  2  0  0  0  0
 13 14  2  0  0  0  0
 13 18  1  0  0  0  0
 14 15  1  0  0  0  0
 15 21  1  0  0  0  0
 15 16  2  0  0  0  0
 17 16  1  0  0  0  0
 17 11  1  0  0  0  0
 18 17  2  0  0  0  0
 19 13  1  0  0  0  0
 20 14  1  0  0  0  0
 22  6  1  0  0  0  0
 23 22  2  0  0  0  0
 24 26  1  0  0  0  0
 24 23  1  0  0  0  0
 25 24  1  0  0  0  0
 27 35  1  0  0  0  0
 27 28  2  0  0  0  0
 28 29  1  0  0  0  0
 29 30  1  0  0  0  0
 29 33  1  0  0  0  0
 30 32  1  0  0  0  0
 31 30  2  0  0  0  0
 32 33  1  0  0  0  0
 32 24  1  1  0  0  0
 33 34  1  6  0  0  0
 35 34  1  0  0  0  0
 36 35  1  0  0  0  0
 37 38  1  0  0  0  0
 37 27  1  0  0  0  0
 39 28  1  0  0  0  0
 39 40  2  0  0  0  0
 41 39  1  0  0  0  0
 42 41  1  0  0  0  0
M  END
>  <minimizedAffinity>
-5.8082571

>  <minimizedRMSD>
1.31091988

$$$$
