
 OpenBabel03272507093D

 34 37  0  0  1  0  0  0  0  0999 V2000
   36.1110   29.6280   49.9520 C   0  0  0  0  0  0  0  0  0  0  0  0
   34.9560   29.6470   50.6990 C   0  0  0  0  0  0  0  0  0  0  0  0
   34.0430   28.8220   50.0180 C   0  0  0  0  0  0  0  0  0  0  0  0
   34.7120   28.3580   48.9010 C   0  0  0  0  0  0  0  0  0  0  0  0
   35.9140   28.8640   48.9190 O   0  0  0  0  0  0  0  0  0  0  0  0
   34.7660   30.1880   51.6330 H   0  0  0  0  0  0  0  0  0  0  0  0
   33.0150   28.6080   50.3340 H   0  0  0  0  0  0  0  0  0  0  0  0
   37.2850   30.3780   50.3550 C   0  0  0  0  0  0  0  0  0  0  0  0
   37.6970   30.2780   51.5340 O   0  0  0  0  0  0  0  0  0  0  0  0
   37.9230   31.2120   49.3630 C   0  0  0  0  0  0  0  0  0  0  0  0
   38.3100   32.4890   49.7470 C   0  0  0  0  0  0  0  0  0  0  0  0
   38.9250   33.3150   48.8180 C   0  0  0  0  0  0  0  0  0  0  0  0
   39.1210   32.8220   47.5570 N   0  0  0  0  0  0  0  0  0  0  0  0
   38.7370   31.5780   47.2040 C   0  0  0  0  0  0  0  0  0  0  0  0
   38.1450   30.7830   48.0960 N   0  0  0  0  0  0  0  0  0  0  0  0
   38.1580   32.8830   50.7380 H   0  0  0  0  0  0  0  0  0  0  0  0
   39.2380   34.3160   49.0880 H   0  0  0  0  0  0  0  0  0  0  0  0
   38.9190   31.2310   46.1760 H   0  0  0  0  0  0  0  0  0  0  0  0
   34.0480   27.4400   47.9270 C   0  0  0  0  0  2  0  0  0  0  0  0
   32.9790   28.2130   47.2700 C   0  0  0  0  0  0  0  0  0  0  0  0
   33.1790   29.1490   46.3710 C   0  0  0  0  0  0  0  0  0  0  0  0
   32.0620   29.8100   45.8110 N   0  0  0  0  0  0  0  0  0  0  0  0
   31.4830   31.0570   45.3770 C   0  0  0  0  0  0  0  0  0  0  0  0
   31.8880   32.2460   45.1530 O   0  0  0  0  0  0  0  0  0  0  0  0
   30.1320   30.4790   45.2540 C   0  0  0  0  0  3  0  0  0  0  0  0
   29.6270   30.6590   44.2790 H   0  0  0  0  0  0  0  0  0  0  0  0
   30.8160   29.1600   45.4070 C   0  0  2  0  0  3  0  0  0  0  0  0
   30.2520   28.2500   46.8820 S   0  0  0  0  0  0  0  0  0  0  0  0
   31.7020   27.7280   47.8370 C   0  0  0  0  0  3  0  0  0  0  0  0
   31.6400   26.6000   47.8500 H   0  0  0  0  0  0  0  0  0  0  0  0
   34.5250   29.5470   45.9030 C   0  0  0  0  0  0  0  0  0  0  0  0
   35.2690   29.2100   44.9680 O   0  0  0  0  0  0  0  0  0  0  0  0
   35.2900   30.5020   46.5240 O   0  0  0  0  0  0  0  0  0  0  0  0
   36.2500   30.3290   46.7870 H   0  0  0  0  0  0  0  0  0  0  0  0
  1  8  1  0  0  0  0
  1  2  2  0  0  0  0
  2  6  1  0  0  0  0
  3  7  1  0  0  0  0
  3  2  1  0  0  0  0
  4  5  1  0  0  0  0
  4  3  2  0  0  0  0
  5  1  1  0  0  0  0
  8  9  2  0  0  0  0
 10 11  1  0  0  0  0
 10  8  1  0  0  0  0
 11 16  1  0  0  0  0
 12 17  1  0  0  0  0
 12 11  2  0  0  0  0
 13 12  1  0  0  0  0
 14 13  2  0  0  0  0
 14 15  1  0  0  0  0
 15 10  2  0  0  0  0
 18 14  1  0  0  0  0
 19  4  1  0  0  0  0
 20 29  1  0  0  0  0
 20 19  1  0  0  0  0
 21 20  2  0  0  0  0
 22 21  1  0  0  0  0
 23 22  1  0  0  0  0
 24 23  2  0  0  0  0
 25 23  1  0  0  0  0
 26 25  1  0  0  0  0
 27 25  1  1  0  0  0
 27 22  1  0  0  0  0
 27 28  1  0  0  0  0
 28 29  1  0  0  0  0
 29 30  1  0  0  0  0
 31 21  1  0  0  0  0
 31 33  1  0  0  0  0
 32 31  2  0  0  0  0
 33 34  1  0  0  0  0
M  END
>  <minimizedAffinity>
-6.10238504

>  <minimizedRMSD>
3.03697205

$$$$
