
 OpenBabel03272509403D

 42 45  0  0  1  0  0  0  0  0999 V2000
   37.0980   30.9530   48.9800 C   0  0  0  0  0  0  0  0  0  0  0  0
   36.9000   31.9290   49.9550 C   0  0  0  0  0  0  0  0  0  0  0  0
   37.5480   33.1600   49.9340 C   0  0  0  0  0  0  0  0  0  0  0  0
   38.4400   33.4420   48.8920 C   0  0  0  0  0  0  0  0  0  0  0  0
   38.6250   32.4750   47.9430 C   0  0  0  0  0  0  0  0  0  0  0  0
   37.9640   31.2650   47.9960 C   0  0  0  0  0  0  0  0  0  0  0  0
   36.2150   31.7700   50.7940 H   0  0  0  0  0  0  0  0  0  0  0  0
   37.3590   33.8840   50.7150 H   0  0  0  0  0  0  0  0  0  0  0  0
   38.9310   34.4050   48.8960 H   0  0  0  0  0  0  0  0  0  0  0  0
   39.3320   32.7810   47.1760 H   0  0  0  0  0  0  0  0  0  0  0  0
   36.3780   29.7090   49.0910 C   0  0  0  0  0  0  0  0  0  0  0  0
   36.8820   28.8770   49.9270 O   0  0  0  0  0  0  0  0  0  0  0  0
   33.5930   30.1790   46.8160 C   0  0  0  0  0  0  0  0  0  0  0  0
   32.9170   28.9690   46.8370 C   0  0  0  0  0  0  0  0  0  0  0  0
   33.4190   27.9760   47.6410 C   0  0  0  0  0  0  0  0  0  0  0  0
   34.5400   28.2040   48.3770 N   0  0  0  0  0  0  0  0  0  0  0  0
   35.1650   29.3670   48.3370 C   0  0  0  0  0  0  0  0  0  0  0  0
   34.6830   30.3560   47.5500 N   0  0  0  0  0  0  0  0  0  0  0  0
   33.2500   31.0200   46.1970 H   0  0  0  0  0  0  0  0  0  0  0  0
   32.0410   28.9240   46.2040 H   0  0  0  0  0  0  0  0  0  0  0  0
   32.8950   27.0480   47.6540 H   0  0  0  0  0  0  0  0  0  0  0  0
   38.2840   30.3570   46.9100 C   0  0  0  0  0  3  0  0  0  0  0  0
   38.8790   30.6580   45.7650 C   0  0  0  0  0  3  0  0  0  0  0  0
   39.2590   29.8440   44.6110 C   0  0  0  0  0  0  0  0  0  0  0  0
   40.3200   29.5440   44.6830 H   0  0  0  0  0  0  0  0  0  0  0  0
   38.6910   28.8710   44.6510 H   0  0  0  0  0  0  0  0  0  0  0  0
   36.4480   33.3020   41.5770 C   0  0  0  0  0  0  0  0  0  0  0  0
   36.1410   32.1500   42.1490 C   0  0  0  0  0  0  0  0  0  0  0  0
   37.2170   31.3080   42.6170 N   0  0  0  0  0  0  0  0  0  0  0  0
   37.7180   29.9560   42.6860 C   0  0  0  0  0  0  0  0  0  0  0  0
   37.3000   28.7860   42.3860 O   0  0  0  0  0  0  0  0  0  0  0  0
   38.9690   30.4810   43.2690 C   0  0  1  0  0  3  0  0  0  0  0  0
   38.3740   31.8530   43.3460 C   0  0  1  0  0  3  0  0  0  0  0  0
   39.0960   33.0980   42.2890 S   0  0  0  0  0  0  0  0  0  0  0  0
   37.7860   33.8790   41.3210 C   0  0  0  0  0  3  0  0  0  0  0  0
   38.0360   33.8580   40.2250 H   0  0  0  0  0  0  0  0  0  0  0  0
   35.3440   34.1440   41.1160 C   0  0  0  0  0  2  0  0  0  0  0  0
   34.6930   34.3820   41.9820 H   0  0  0  0  0  0  0  0  0  0  0  0
   34.7680   31.6890   42.3360 C   0  0  0  0  0  0  0  0  0  0  0  0
   34.0400   31.8800   43.3260 O   0  0  0  0  0  0  0  0  0  0  0  0
   34.0720   30.9570   41.4190 O   0  0  0  0  0  0  0  0  0  0  0  0
   33.1200   31.1530   41.1980 H   0  0  0  0  0  0  0  0  0  0  0  0
  1 11  1  0  0  0  0
  1  2  1  0  0  0  0
  2  7  1  0  0  0  0
  3  2  2  0  0  0  0
  3  8  1  0  0  0  0
  4  9  1  0  0  0  0
  4  3  1  0  0  0  0
  5  6  1  0  0  0  0
  5  4  2  0  0  0  0
  6  1  2  0  0  0  0
 10  5  1  0  0  0  0
 11 12  2  0  0  0  0
 13 14  2  0  0  0  0
 13 18  1  0  0  0  0
 14 15  1  0  0  0  0
 15 21  1  0  0  0  0
 15 16  2  0  0  0  0
 17 16  1  0  0  0  0
 17 11  1  0  0  0  0
 18 17  2  0  0  0  0
 19 13  1  0  0  0  0
 20 14  1  0  0  0  0
 22  6  1  0  0  0  0
 23 22  2  0  0  0  0
 24 26  1  0  0  0  0
 24 25  1  0  0  0  0
 24 23  1  0  0  0  0
 27 28  2  0  0  0  0
 28 39  1  0  0  0  0
 28 29  1  0  0  0  0
 29 30  1  0  0  0  0
 29 33  1  0  0  0  0
 30 32  1  0  0  0  0
 31 30  2  0  0  0  0
 32 33  1  0  0  0  0
 32 24  1  1  0  0  0
 33 34  1  6  0  0  0
 35 27  1  0  0  0  0
 35 34  1  0  0  0  0
 36 35  1  0  0  0  0
 37 27  1  0  0  0  0
 37 38  1  0  0  0  0
 39 40  2  0  0  0  0
 41 39  1  0  0  0  0
 42 41  1  0  0  0  0
M  END
>  <minimizedAffinity>
-6.19387054

>  <minimizedRMSD>
2.1421864

$$$$
