
 OpenBabel03272509403D

 42 45  0  0  1  0  0  0  0  0999 V2000
   36.9870   30.9620   49.1080 C   0  0  0  0  0  0  0  0  0  0  0  0
   36.6500   31.8610   50.1180 C   0  0  0  0  0  0  0  0  0  0  0  0
   37.2120   33.1300   50.2190 C   0  0  0  0  0  0  0  0  0  0  0  0
   38.1600   33.5310   49.2680 C   0  0  0  0  0  0  0  0  0  0  0  0
   38.4810   32.6390   48.2840 C   0  0  0  0  0  0  0  0  0  0  0  0
   37.9020   31.3890   48.2160 C   0  0  0  0  0  0  0  0  0  0  0  0
   35.9150   31.6070   50.8890 H   0  0  0  0  0  0  0  0  0  0  0  0
   36.9160   33.7900   51.0220 H   0  0  0  0  0  0  0  0  0  0  0  0
   38.5820   34.5220   49.3670 H   0  0  0  0  0  0  0  0  0  0  0  0
   39.2220   33.0350   47.5940 H   0  0  0  0  0  0  0  0  0  0  0  0
   36.3460   29.6700   49.0910 C   0  0  0  0  0  0  0  0  0  0  0  0
   36.9080   28.7890   49.8350 O   0  0  0  0  0  0  0  0  0  0  0  0
   33.6430   30.1360   46.7190 C   0  0  0  0  0  0  0  0  0  0  0  0
   32.9440   28.9390   46.7480 C   0  0  0  0  0  0  0  0  0  0  0  0
   33.4010   27.9570   47.5910 C   0  0  0  0  0  0  0  0  0  0  0  0
   34.5040   28.1820   48.3550 N   0  0  0  0  0  0  0  0  0  0  0  0
   35.1520   29.3320   48.3080 C   0  0  0  0  0  0  0  0  0  0  0  0
   34.7130   30.3100   47.4830 N   0  0  0  0  0  0  0  0  0  0  0  0
   33.3360   30.9680   46.0700 H   0  0  0  0  0  0  0  0  0  0  0  0
   32.0870   28.8950   46.0890 H   0  0  0  0  0  0  0  0  0  0  0  0
   32.8590   27.0390   47.6090 H   0  0  0  0  0  0  0  0  0  0  0  0
   38.3630   30.5710   47.1090 C   0  0  0  0  0  3  0  0  0  0  0  0
   39.1610   30.9440   46.1190 C   0  0  0  0  0  3  0  0  0  0  0  0
   39.6980   30.2230   44.9650 C   0  0  0  0  0  0  0  0  0  0  0  0
   40.7260   30.5630   44.7410 H   0  0  0  0  0  0  0  0  0  0  0  0
   39.8180   29.1360   45.2400 H   0  0  0  0  0  0  0  0  0  0  0  0
   38.8090   28.9420   39.8040 C   0  0  0  0  0  0  0  0  0  0  0  0
   39.6520   29.7720   40.3940 C   0  0  0  0  0  0  0  0  0  0  0  0
   39.4110   30.1310   41.7710 N   0  0  0  0  0  0  0  0  0  0  0  0
   39.3900   31.2150   42.7260 C   0  0  0  0  0  0  0  0  0  0  0  0
   39.7060   32.4530   42.7440 O   0  0  0  0  0  0  0  0  0  0  0  0
   38.8300   30.2820   43.7260 C   0  0  1  0  0  3  0  0  0  0  0  0
   39.0140   29.1360   42.7810 C   0  0  1  0  0  3  0  0  0  0  0  0
   37.5270   28.3610   42.1690 S   0  0  0  0  0  0  0  0  0  0  0  0
   37.5920   28.3100   40.3630 C   0  0  0  0  0  3  0  0  0  0  0  0
   36.6590   28.7550   39.9210 H   0  0  0  0  0  0  0  0  0  0  0  0
   39.0730   28.5830   38.4110 C   0  0  0  0  0  2  0  0  0  0  0  0
   40.0750   28.1150   38.3500 H   0  0  0  0  0  0  0  0  0  0  0  0
   40.8190   30.3370   39.7240 C   0  0  0  0  0  0  0  0  0  0  0  0
   41.9910   29.9280   39.7860 O   0  0  0  0  0  0  0  0  0  0  0  0
   40.7830   31.4300   38.9090 O   0  0  0  0  0  0  0  0  0  0  0  0
   41.2780   31.4630   38.0440 H   0  0  0  0  0  0  0  0  0  0  0  0
  1  2  1  0  0  0  0
  2  3  2  0  0  0  0
  2  7  1  0  0  0  0
  3  8  1  0  0  0  0
  4  9  1  0  0  0  0
  4  3  1  0  0  0  0
  5  4  2  0  0  0  0
  6  5  1  0  0  0  0
  6  1  2  0  0  0  0
 10  5  1  0  0  0  0
 11  1  1  0  0  0  0
 11 12  2  0  0  0  0
 13 14  2  0  0  0  0
 13 18  1  0  0  0  0
 14 15  1  0  0  0  0
 15 21  1  0  0  0  0
 15 16  2  0  0  0  0
 17 16  1  0  0  0  0
 17 11  1  0  0  0  0
 18 17  2  0  0  0  0
 19 13  1  0  0  0  0
 20 14  1  0  0  0  0
 22  6  1  0  0  0  0
 23 22  2  0  0  0  0
 24 26  1  0  0  0  0
 24 23  1  0  0  0  0
 25 24  1  0  0  0  0
 27 35  1  0  0  0  0
 27 28  2  0  0  0  0
 28 29  1  0  0  0  0
 29 30  1  0  0  0  0
 29 33  1  0  0  0  0
 30 31  2  0  0  0  0
 30 32  1  0  0  0  0
 32 24  1  1  0  0  0
 33 34  1  6  0  0  0
 33 32  1  0  0  0  0
 35 34  1  0  0  0  0
 36 35  1  0  0  0  0
 37 27  1  0  0  0  0
 38 37  1  0  0  0  0
 39 40  2  0  0  0  0
 39 28  1  0  0  0  0
 41 39  1  0  0  0  0
 42 41  1  0  0  0  0
M  END
>  <minimizedAffinity>
-5.99350405

>  <minimizedRMSD>
0.666356206

$$$$
