
 OpenBabel03272509073D

 47 52  0  0  1  0  0  0  0  0999 V2000
   33.5520   26.8860   47.0010 C   0  0  0  0  0  0  0  0  0  0  0  0
   33.6390   25.6270   47.5940 C   0  0  0  0  0  0  0  0  0  0  0  0
   34.0220   24.5040   46.8760 C   0  0  0  0  0  0  0  0  0  0  0  0
   34.3340   24.6140   45.5240 C   0  0  0  0  0  0  0  0  0  0  0  0
   34.2460   25.8510   44.9540 C   0  0  0  0  0  0  0  0  0  0  0  0
   33.8670   26.9740   45.6540 C   0  0  0  0  0  0  0  0  0  0  0  0
   33.3830   25.5980   48.6560 H   0  0  0  0  0  0  0  0  0  0  0  0
   34.0480   23.5950   47.4540 H   0  0  0  0  0  0  0  0  0  0  0  0
   34.6280   23.7160   45.0030 H   0  0  0  0  0  0  0  0  0  0  0  0
   34.4980   25.8970   43.8880 H   0  0  0  0  0  0  0  0  0  0  0  0
   33.1530   28.0980   47.7530 C   0  0  0  0  0  0  0  0  0  0  0  0
   32.4970   28.7840   47.2030 H   0  0  0  0  0  0  0  0  0  0  0  0
   32.5240   27.7240   48.6150 H   0  0  0  0  0  0  0  0  0  0  0  0
   34.9450   28.4400   49.4680 C   0  0  0  0  0  3  0  0  0  0  0  0
   34.2930   28.7960   48.3950 C   0  0  0  0  0  3  0  0  0  0  0  0
   37.4020   30.1380   51.5670 C   0  0  0  0  0  0  0  0  0  0  0  0
   38.1060   30.9040   50.6210 C   0  0  0  0  0  0  0  0  0  0  0  0
   37.7110   30.8150   49.2660 C   0  0  0  0  0  0  0  0  0  0  0  0
   36.6610   29.9850   48.9460 N   0  0  0  0  0  0  0  0  0  0  0  0
   36.0340   29.2780   49.9210 C   0  0  0  0  0  0  0  0  0  0  0  0
   36.3910   29.3480   51.2060 N   0  0  0  0  0  0  0  0  0  0  0  0
   37.7880   30.2850   52.5590 H   0  0  0  0  0  0  0  0  0  0  0  0
   38.9210   31.5690   50.7530 H   0  0  0  0  0  0  0  0  0  0  0  0
   38.3710   31.5670   48.1990 C   0  0  0  0  0  0  0  0  0  0  0  0
   38.5860   31.0310   46.9420 C   0  0  0  0  0  0  0  0  0  0  0  0
   39.2330   32.0090   46.1760 C   0  0  0  0  0  0  0  0  0  0  0  0
   39.3810   33.0860   46.9940 N   0  0  0  0  0  0  0  0  0  0  0  0
   38.8650   32.8110   48.1940 N   0  0  0  0  0  0  0  0  0  0  0  0
   38.3540   30.0700   46.5060 H   0  0  0  0  0  0  0  0  0  0  0  0
   39.5520   31.9370   45.1510 H   0  0  0  0  0  0  0  0  0  0  0  0
   39.8400   33.9610   46.6600 H   0  0  0  0  0  0  0  0  0  0  0  0
   33.8630   28.2250   44.9240 C   0  0  0  0  0  2  0  0  0  0  0  0
   32.6670   29.0350   44.8220 C   0  0  0  0  0  0  0  0  0  0  0  0
   31.4020   28.7200   44.5660 C   0  0  0  0  0  0  0  0  0  0  0  0
   30.3160   29.6350   44.4850 N   0  0  0  0  0  0  0  0  0  0  0  0
   28.9560   29.9910   44.6180 C   0  0  1  0  0  0  0  0  0  0  0  0
   27.8910   29.3480   44.8110 O   0  0  0  0  0  1  0  0  0  0  0  0
   29.1730   31.4290   44.4540 C   0  0  0  0  0  3  0  0  0  0  0  0
   28.5600   31.9220   43.6720 H   0  0  0  0  0  0  0  0  0  0  0  0
   30.5430   31.0020   44.0410 C   0  0  2  0  0  0  0  0  0  0  0  0
   31.7870   31.6450   45.1930 S   0  0  0  0  0  0  0  0  0  0  0  0
   33.0700   30.4190   45.0750 C   0  0  0  0  0  3  0  0  0  0  0  0
   33.7980   30.4750   45.9250 H   0  0  0  0  0  0  0  0  0  0  0  0
   31.0740   27.3150   44.3320 C   0  0  0  0  0  2  0  0  0  0  0  0
   30.4300   26.9800   43.2960 O   0  0  0  0  0  0  0  0  0  0  0  0
   30.7650   25.9830   44.1130 O   0  0  0  0  0  0  0  0  0  0  0  0
   31.3830   25.2230   44.4520 H   0  0  0  0  0  0  0  0  0  0  0  0
  1  2  1  0  0  0  0
  1 11  1  0  0  0  0
  2  7  1  0  0  0  0
  3  8  1  0  0  0  0
  3  2  2  0  0  0  0
  4  3  1  0  0  0  0
  5  4  2  0  0  0  0
  5  6  1  0  0  0  0
  6  1  2  0  0  0  0
  9  4  1  0  0  0  0
 10  5  1  0  0  0  0
 11 15  1  0  0  0  0
 11 13  1  0  0  0  0
 12 11  1  0  0  0  0
 14 20  1  0  0  0  0
 15 14  2  0  0  0  0
 16 22  1  0  0  0  0
 17 23  1  0  0  0  0
 17 16  2  0  0  0  0
 18 17  1  0  0  0  0
 19 18  2  0  0  0  0
 19 20  1  0  0  0  0
 20 21  2  0  0  0  0
 21 16  1  0  0  0  0
 24 18  1  0  0  0  0
 25 24  1  0  0  0  0
 26 25  2  0  0  0  0
 26 27  1  0  0  0  0
 27 28  1  0  0  0  0
 28 24  2  0  0  0  0
 29 25  1  0  0  0  0
 30 26  1  0  0  0  0
 31 27  1  0  0  0  0
 32  6  1  0  0  0  0
 33 32  1  0  0  0  0
 33 42  1  0  0  0  0
 34 33  2  0  0  0  0
 35 34  1  0  0  0  0
 35 36  1  0  0  0  0
 36 37  1  6  0  0  0
 38 36  1  0  0  0  0
 39 38  1  0  0  0  0
 40 38  1  6  0  0  0
 40 35  1  0  0  0  0
 40 36  1  0  0  0  0
 40 41  1  0  0  0  0
 42 41  1  0  0  0  0
 42 43  1  0  0  0  0
 44 34  1  0  0  0  0
 45 46  1  0  0  0  0
 45 44  1  0  0  0  0
 46 47  1  0  0  0  0
M  END
>  <minimizedAffinity>
-6.22783947

>  <minimizedRMSD>
1.23812616

$$$$
