
 OpenBabel03272507333D

 43 48  0  0  1  0  0  0  0  0999 V2000
   33.1420   27.0070   47.2660 C   0  0  1  0  0  0  0  0  0  0  0  0
   33.7800   25.6080   47.6300 C   0  0  0  0  0  0  0  0  0  0  0  0
   32.4570   25.7440   46.9770 C   0  0  2  0  0  0  0  0  0  0  0  0
   33.8770   27.5410   46.6270 H   0  0  0  0  0  0  0  0  0  0  0  0
   33.8060   25.3210   48.6750 H   0  0  0  0  0  0  0  0  0  0  0  0
   34.6300   25.2820   47.0170 H   0  0  0  0  0  0  0  0  0  0  0  0
   31.5370   25.5930   47.6010 H   0  0  0  0  0  0  0  0  0  0  0  0
   32.8190   27.7500   48.5310 C   0  0  0  0  0  0  0  0  0  0  0  0
   31.6430   27.7500   49.0210 O   0  0  0  0  0  0  0  0  0  0  0  0
   35.8390   29.1990   49.7880 C   0  0  0  0  0  0  0  0  0  0  0  0
   34.9370   29.8260   50.6300 C   0  0  0  0  0  0  0  0  0  0  0  0
   33.6560   29.3740   50.2800 C   0  0  0  0  0  0  0  0  0  0  0  0
   33.8600   28.4930   49.2400 C   0  0  0  0  0  0  0  0  0  0  0  0
   35.1500   28.4260   48.9900 O   0  0  0  0  0  0  0  0  0  0  0  0
   35.0410   30.5470   51.4480 H   0  0  0  0  0  0  0  0  0  0  0  0
   32.7090   29.6560   50.7320 H   0  0  0  0  0  0  0  0  0  0  0  0
   37.2660   29.4400   49.8760 C   0  0  0  0  0  0  0  0  0  0  0  0
   37.9590   28.7210   50.6110 O   0  0  0  0  0  0  0  0  0  0  0  0
   37.7960   30.5180   49.0880 C   0  0  0  0  0  0  0  0  0  0  0  0
   38.1410   31.6790   49.7590 C   0  0  0  0  0  0  0  0  0  0  0  0
   38.6560   32.7480   49.0200 C   0  0  0  0  0  0  0  0  0  0  0  0
   38.7950   32.5900   47.6590 N   0  0  0  0  0  0  0  0  0  0  0  0
   38.4490   31.4510   47.0480 C   0  0  0  0  0  0  0  0  0  0  0  0
   37.9550   30.4230   47.7460 N   0  0  0  0  0  0  0  0  0  0  0  0
   38.0310   31.7970   50.8240 H   0  0  0  0  0  0  0  0  0  0  0  0
   38.9360   33.6750   49.5240 H   0  0  0  0  0  0  0  0  0  0  0  0
   38.5700   31.3590   45.9720 H   0  0  0  0  0  0  0  0  0  0  0  0
   32.3570   25.1740   45.5940 C   0  0  0  0  0  2  0  0  0  0  0  0
   31.0830   24.5060   45.3160 C   0  0  0  0  0  0  0  0  0  0  0  0
   30.0980   24.9720   44.5650 C   0  0  0  0  0  0  0  0  0  0  0  0
   28.9000   24.2270   44.3810 N   0  0  0  0  0  0  0  0  0  0  0  0
   27.6390   24.1440   43.7320 C   0  0  1  0  0  0  0  0  0  0  0  0
   26.7490   24.9480   43.3240 O   0  0  0  0  0  1  0  0  0  0  0  0
   27.7750   22.6700   43.7160 C   0  0  0  0  0  3  0  0  0  0  0  0
   28.3680   22.2330   42.9030 H   0  0  0  0  0  0  0  0  0  0  0  0
   28.5340   22.9800   44.9870 C   0  0  1  0  0  0  0  0  0  0  0  0
   29.9870   21.9740   45.2720 S   0  0  0  0  0  0  0  0  0  0  0  0
   31.0700   23.2160   46.0200 C   0  0  0  0  0  3  0  0  0  0  0  0
   30.7130   23.3580   47.0760 H   0  0  0  0  0  0  0  0  0  0  0  0
   30.1730   26.2880   43.8890 C   0  0  0  0  0  0  0  0  0  0  0  0
   31.0370   27.1660   43.8480 O   0  0  0  0  0  0  0  0  0  0  0  0
   29.1570   26.7820   43.1120 O   0  0  0  0  0  0  0  0  0  0  0  0
   29.3140   27.2220   42.2340 H   0  0  0  0  0  0  0  0  0  0  0  0
  1  4  1  6  0  0  0
  1  2  1  0  0  0  0
  1  8  1  0  0  0  0
  2  5  1  0  0  0  0
  3  1  1  0  0  0  0
  3  7  1  1  0  0  0
  3  2  1  0  0  0  0
  6  2  1  0  0  0  0
  8  9  2  0  0  0  0
  8 13  1  0  0  0  0
 10 17  1  0  0  0  0
 10 11  2  0  0  0  0
 11 15  1  0  0  0  0
 12 11  1  0  0  0  0
 12 16  1  0  0  0  0
 13 12  2  0  0  0  0
 14 13  1  0  0  0  0
 14 10  1  0  0  0  0
 17 18  2  0  0  0  0
 19 20  1  0  0  0  0
 19 17  1  0  0  0  0
 20 25  1  0  0  0  0
 21 26  1  0  0  0  0
 21 20  2  0  0  0  0
 22 21  1  0  0  0  0
 23 22  2  0  0  0  0
 23 24  1  0  0  0  0
 24 19  2  0  0  0  0
 27 23  1  0  0  0  0
 28  3  1  0  0  0  0
 29 28  1  0  0  0  0
 29 38  1  0  0  0  0
 30 29  2  0  0  0  0
 31 30  1  0  0  0  0
 31 36  1  0  0  0  0
 32 33  1  1  0  0  0
 32 31  1  0  0  0  0
 32 36  1  0  0  0  0
 34 32  1  0  0  0  0
 35 34  1  0  0  0  0
 36 34  1  6  0  0  0
 36 37  1  0  0  0  0
 37 38  1  0  0  0  0
 38 39  1  0  0  0  0
 40 30  1  0  0  0  0
 41 40  2  0  0  0  0
 42 40  1  0  0  0  0
 43 42  1  0  0  0  0
M  END
>  <minimizedAffinity>
-5.21947289

>  <minimizedRMSD>
1.29045916

$$$$
