
 OpenBabel03272507423D

 48 52  0  0  1  0  0  0  0  0999 V2000
   36.6310   31.0730   49.6850 C   0  0  0  0  0  0  0  0  0  0  0  0
   35.6870   30.0720   49.4840 C   0  0  0  0  0  0  0  0  0  0  0  0
   35.5300   29.0510   50.4020 C   0  0  0  0  0  0  0  0  0  0  0  0
   36.3280   29.0570   51.5030 N   0  0  0  0  0  0  0  0  0  0  0  0
   37.2530   30.0530   51.6800 C   0  0  0  0  0  0  0  0  0  0  0  0
   37.3790   31.0160   50.7860 N   0  0  0  0  0  0  0  0  0  0  0  0
   34.8250   28.2360   50.3290 H   0  0  0  0  0  0  0  0  0  0  0  0
   37.8850   30.0450   52.5650 H   0  0  0  0  0  0  0  0  0  0  0  0
   34.3730   28.6850   47.9330 C   0  0  0  0  0  0  0  0  0  0  0  0
   34.7130   27.4840   48.2650 O   0  0  0  0  0  0  0  0  0  0  0  0
   34.8160   29.9460   48.3970 N   0  0  0  0  0  0  0  0  0  0  0  0
   34.5590   30.8700   48.0080 H   0  0  0  0  0  0  0  0  0  0  0  0
   30.3540   29.9490   44.6600 C   0  0  0  0  0  0  0  0  0  0  0  0
   30.2630   29.5650   45.9210 C   0  0  0  0  0  0  0  0  0  0  0  0
   31.3920   29.1790   46.6520 N   0  0  0  0  0  0  0  0  0  0  0  0
   32.0530   28.2560   47.5450 C   0  0  0  0  0  0  0  0  0  0  0  0
   31.6030   27.4880   48.4350 O   0  0  0  0  0  0  0  0  0  0  0  0
   33.3270   28.7090   46.8710 C   0  0  1  0  0  3  0  0  0  0  0  0
   32.6200   29.9950   46.6190 C   0  0  1  0  0  3  0  0  0  0  0  0
   32.9330   30.6170   44.9580 S   0  0  0  0  0  0  0  0  0  0  0  0
   31.6170   30.0050   43.8920 C   0  0  0  0  0  3  0  0  0  0  0  0
   31.8110   28.9570   43.5530 H   0  0  0  0  0  0  0  0  0  0  0  0
   29.0960   30.3320   44.0090 C   0  0  0  0  0  2  0  0  0  0  0  0
   28.5770   29.3860   43.7380 H   0  0  0  0  0  0  0  0  0  0  0  0
   28.9500   29.5500   46.5510 C   0  0  0  0  0  0  0  0  0  0  0  0
   28.7050   29.3600   47.7650 O   0  0  0  0  0  0  0  0  0  0  0  0
   27.6030   29.5930   46.8500 O   0  0  0  0  0  0  0  0  0  0  0  0
   26.8820   29.6300   46.1190 H   0  0  0  0  0  0  0  0  0  0  0  0
   36.6350   31.9810   48.6820 O   0  0  0  0  0  0  0  0  0  0  0  0
   38.1350   31.9710   46.7120 C   0  0  0  0  0  0  0  0  0  0  0  0
   37.7670   32.3730   47.9790 C   0  0  0  0  0  0  0  0  0  0  0  0
   38.5590   33.2610   48.6880 C   0  0  0  0  0  0  0  0  0  0  0  0
   39.7320   33.7410   48.1060 C   0  0  0  0  0  0  0  0  0  0  0  0
   40.0910   33.3340   46.8400 C   0  0  0  0  0  0  0  0  0  0  0  0
   39.2780   32.4530   46.1720 C   0  0  0  0  0  0  0  0  0  0  0  0
   38.3360   33.6210   49.6840 H   0  0  0  0  0  0  0  0  0  0  0  0
   40.3520   34.4340   48.6590 H   0  0  0  0  0  0  0  0  0  0  0  0
   40.9980   33.6910   46.3620 H   0  0  0  0  0  0  0  0  0  0  0  0
   39.6750   32.0200   44.8100 C   0  0  0  0  0  0  0  0  0  0  0  0
   40.5170   31.0160   44.4240 C   0  0  0  0  0  0  0  0  0  0  0  0
   40.5630   31.0100   43.0310 C   0  0  0  0  0  0  0  0  0  0  0  0
   39.7270   32.0360   42.6550 C   0  0  0  0  0  0  0  0  0  0  0  0
   39.2090   32.6250   43.7210 O   0  0  0  0  0  0  0  0  0  0  0  0
   41.0110   30.3900   45.1560 H   0  0  0  0  0  0  0  0  0  0  0  0
   41.1620   30.3050   42.4870 H   0  0  0  0  0  0  0  0  0  0  0  0
   39.5440   32.2960   41.6180 H   0  0  0  0  0  0  0  0  0  0  0  0
   36.5530   30.3300   45.5100 N   0  0  0  0  0  0  0  0  0  0  0  0
   37.2590   31.0550   46.0540 C   0  0  0  0  0  0  0  0  0  0  0  0
  1  6  1  0  0  0  0
  2  1  2  0  0  0  0
  2  3  1  0  0  0  0
  3  4  2  0  0  0  0
  4  5  1  0  0  0  0
  5  8  1  0  0  0  0
  6  5  2  0  0  0  0
  7  3  1  0  0  0  0
  9 10  2  0  0  0  0
  9 11  1  0  0  0  0
 11  2  1  0  0  0  0
 12 11  1  0  0  0  0
 13 14  2  0  0  0  0
 14 25  1  0  0  0  0
 14 15  1  0  0  0  0
 15 16  1  0  0  0  0
 16 17  2  0  0  0  0
 18 16  1  0  0  0  0
 18  9  1  1  0  0  0
 19 20  1  6  0  0  0
 19 15  1  0  0  0  0
 19 18  1  0  0  0  0
 21 13  1  0  0  0  0
 21 20  1  0  0  0  0
 22 21  1  0  0  0  0
 23 13  1  0  0  0  0
 24 23  1  0  0  0  0
 25 27  1  0  0  0  0
 25 26  2  0  0  0  0
 28 27  1  0  0  0  0
 29  1  1  0  0  0  0
 30 31  1  0  0  0  0
 31 29  1  0  0  0  0
 31 32  2  0  0  0  0
 32 36  1  0  0  0  0
 33 37  1  0  0  0  0
 33 32  1  0  0  0  0
 34 33  2  0  0  0  0
 35 30  2  0  0  0  0
 35 34  1  0  0  0  0
 38 34  1  0  0  0  0
 39 35  1  0  0  0  0
 40 39  2  0  0  0  0
 40 44  1  0  0  0  0
 41 40  1  0  0  0  0
 42 41  2  0  0  0  0
 42 43  1  0  0  0  0
 43 39  1  0  0  0  0
 45 41  1  0  0  0  0
 46 42  1  0  0  0  0
 47 48  3  0  0  0  0
 48 30  1  0  0  0  0
M  END
>  <minimizedAffinity>
-6.16079807

>  <minimizedRMSD>
1.39916551

$$$$
