
 OpenBabel03272503293D

 41 44  0  0  1  0  0  0  0  0999 V2000
   35.4880   29.6490   47.9080 C   0  0  0  0  0  0  0  0  0  0  0  0
   35.4890   30.1020   46.5760 C   0  0  0  0  0  0  0  0  0  0  0  0
   34.3760   29.7770   45.7950 C   0  0  0  0  0  0  0  0  0  0  0  0
   33.3790   29.0490   46.3850 N   0  0  0  0  0  0  0  0  0  0  0  0
   33.4150   28.6370   47.6510 C   0  0  0  0  0  0  0  0  0  0  0  0
   34.4780   28.9380   48.4270 N   0  0  0  0  0  0  0  0  0  0  0  0
   36.2680   30.6670   46.1280 H   0  0  0  0  0  0  0  0  0  0  0  0
   34.3030   30.0890   44.7610 H   0  0  0  0  0  0  0  0  0  0  0  0
   36.6380   29.9910   48.6940 N   0  0  0  0  0  0  0  0  0  0  0  0
   37.7930   30.7210   48.2880 C   0  0  0  0  0  0  0  0  0  0  0  0
   38.2690   31.3720   49.5760 C   0  0  2  0  0  0  0  0  0  0  0  0
   37.2230   31.0160   50.6260 C   0  0  0  0  0  0  0  0  0  0  0  0
   36.8430   29.6450   50.0890 C   0  0  0  0  0  0  0  0  0  0  0  0
   37.5760   31.4940   47.5300 H   0  0  0  0  0  0  0  0  0  0  0  0
   38.5560   29.9880   47.9440 H   0  0  0  0  0  0  0  0  0  0  0  0
   39.2330   30.9110   49.9230 H   0  0  0  0  0  0  0  0  0  0  0  0
   36.3500   31.6830   50.5720 H   0  0  0  0  0  0  0  0  0  0  0  0
   37.6760   30.9470   51.6340 H   0  0  0  0  0  0  0  0  0  0  0  0
   35.9190   29.3200   50.5740 H   0  0  0  0  0  0  0  0  0  0  0  0
   37.6680   28.9410   50.2230 H   0  0  0  0  0  0  0  0  0  0  0  0
   38.4780   32.8400   49.4490 C   0  0  0  0  0  0  0  0  0  0  0  0
   37.2520   33.4440   49.7260 F   0  0  0  0  0  0  0  0  0  0  0  0
   38.7170   33.1100   48.1130 F   0  0  0  0  0  0  0  0  0  0  0  0
   39.4890   33.3280   50.2160 F   0  0  0  0  0  0  0  0  0  0  0  0
   32.0940   27.6900   48.3770 S   0  0  0  0  0  0  0  0  0  0  0  0
   30.5610   28.1470   47.4890 C   0  0  0  0  0  2  0  0  0  0  0  0
   29.4010   28.1370   48.3700 C   0  0  0  0  0  0  0  0  0  0  0  0
   28.0910   28.0860   48.2000 C   0  0  0  0  0  0  0  0  0  0  0  0
   27.1370   28.0720   49.2350 N   0  0  0  0  0  0  0  0  0  0  0  0
   25.9610   28.6180   49.8210 C   0  0  0  0  0  0  0  0  0  0  0  0
   24.9580   29.2200   49.3180 O   0  0  0  0  0  0  0  0  0  0  0  0
   26.5190   28.1440   51.1400 C   0  0  0  0  0  3  0  0  0  0  0  0
   27.1710   28.8910   51.5970 H   0  0  0  0  0  0  0  0  0  0  0  0
   27.2340   27.0850   50.3290 C   0  0  2  0  0  3  0  0  0  0  0  0
   29.0000   26.8820   50.7140 S   0  0  0  0  0  0  0  0  0  0  0  0
   29.8370   28.2250   49.7740 C   0  0  0  0  0  3  0  0  0  0  0  0
   29.4370   29.1620   50.2250 H   0  0  0  0  0  0  0  0  0  0  0  0
   27.6220   28.0240   46.7990 C   0  0  0  0  0  0  0  0  0  0  0  0
   28.1040   28.2790   45.6890 O   0  0  0  0  0  0  0  0  0  0  0  0
   26.6430   27.7430   45.8950 O   0  0  0  0  0  0  0  0  0  0  0  0
   25.7530   28.2170   45.8640 H   0  0  0  0  0  0  0  0  0  0  0  0
  1  6  1  0  0  0  0
  1  9  1  0  0  0  0
  2  1  2  0  0  0  0
  3  4  2  0  0  0  0
  3  2  1  0  0  0  0
  4  5  1  0  0  0  0
  5 25  1  0  0  0  0
  5  6  2  0  0  0  0
  7  2  1  0  0  0  0
  8  3  1  0  0  0  0
  9 13  1  0  0  0  0
 10  9  1  0  0  0  0
 10 11  1  0  0  0  0
 11 16  1  1  0  0  0
 11 12  1  0  0  0  0
 12 18  1  0  0  0  0
 13 20  1  0  0  0  0
 13 19  1  0  0  0  0
 13 12  1  0  0  0  0
 14 10  1  0  0  0  0
 15 10  1  0  0  0  0
 17 12  1  0  0  0  0
 21 11  1  0  0  0  0
 21 22  1  0  0  0  0
 21 24  1  0  0  0  0
 23 21  1  0  0  0  0
 26 27  1  0  0  0  0
 26 25  1  0  0  0  0
 27 36  1  0  0  0  0
 28 27  2  0  0  0  0
 28 29  1  0  0  0  0
 29 30  1  0  0  0  0
 29 34  1  0  0  0  0
 30 32  1  0  0  0  0
 31 30  2  0  0  0  0
 32 33  1  0  0  0  0
 34 35  1  1  0  0  0
 34 32  1  0  0  0  0
 36 37  1  0  0  0  0
 36 35  1  0  0  0  0
 38 28  1  0  0  0  0
 39 38  2  0  0  0  0
 40 38  1  0  0  0  0
 41 40  1  0  0  0  0
M  END
>  <minimizedAffinity>
-7.24728584

>  <minimizedRMSD>
1.49917531

$$$$
