
 OpenBabel03272507523D

 39 42  0  0  1  0  0  0  0  0999 V2000
   36.5250   31.1480   48.7600 N   0  0  0  0  0  0  0  0  0  0  0  0
   36.6080   32.2190   49.5580 C   0  0  0  0  0  0  0  0  0  0  0  0
   37.7080   33.0740   49.4260 C   0  0  0  0  0  0  0  0  0  0  0  0
   38.6070   32.7110   48.4660 C   0  0  0  0  0  0  0  0  0  0  0  0
   39.5840   33.5260   48.3940 O   0  0  0  0  0  0  0  0  0  0  0  0
   38.5500   31.6410   47.6490 N   0  0  0  0  0  0  0  0  0  0  0  0
   37.4690   30.8600   47.8280 C   0  0  0  0  0  0  0  0  0  0  0  0
   37.3930   29.8440   47.0750 O   0  0  0  0  0  0  0  0  0  0  0  0
   35.8060   32.3600   50.2670 H   0  0  0  0  0  0  0  0  0  0  0  0
   37.7730   33.9220   50.0570 H   0  0  0  0  0  0  0  0  0  0  0  0
   35.2520   29.5270   50.0610 C   0  0  0  0  0  0  0  0  0  0  0  0
   35.4350   30.2310   48.8380 C   0  0  0  0  0  0  0  0  0  0  0  0
   34.5340   29.9750   47.7910 C   0  0  0  0  0  0  0  0  0  0  0  0
   33.5430   29.0740   47.9970 N   0  0  0  0  0  0  0  0  0  0  0  0
   33.3840   28.4240   49.1360 C   0  0  0  0  0  0  0  0  0  0  0  0
   34.2310   28.6470   50.1580 N   0  0  0  0  0  0  0  0  0  0  0  0
   34.6940   30.5200   46.8830 H   0  0  0  0  0  0  0  0  0  0  0  0
   32.5980   27.6970   49.3210 H   0  0  0  0  0  0  0  0  0  0  0  0
   37.4120   29.2670   51.4920 C   0  0  0  0  0  0  0  0  0  0  0  0
   38.1050   28.6370   50.6670 O   0  0  0  0  0  0  0  0  0  0  0  0
   36.0790   29.7070   51.1900 N   0  0  0  0  0  0  0  0  0  0  0  0
   37.8910   29.4500   52.4380 H   0  0  0  0  0  0  0  0  0  0  0  0
   35.6940   30.2700   51.9980 H   0  0  0  0  0  0  0  0  0  0  0  0
   39.6330   31.4160   46.7000 C   0  0  0  0  0  2  0  0  0  0  0  0
   39.2440   31.2720   45.3160 C   0  0  0  0  0  0  0  0  0  0  0  0
   39.3840   32.2670   44.4240 C   0  0  0  0  0  0  0  0  0  0  0  0
   39.0040   32.0580   43.0460 N   0  0  0  0  0  0  0  0  0  0  0  0
   38.1880   32.5740   41.9700 C   0  0  0  0  0  0  0  0  0  0  0  0
   37.6660   33.6890   41.6650 O   0  0  0  0  0  0  0  0  0  0  0  0
   38.2610   31.1790   41.4080 C   0  0  0  0  0  3  0  0  0  0  0  0
   37.4070   30.5360   41.6430 H   0  0  0  0  0  0  0  0  0  0  0  0
   39.5260   30.9540   42.2100 C   0  0  2  0  0  3  0  0  0  0  0  0
   39.5590   29.5140   43.2730 S   0  0  0  0  0  0  0  0  0  0  0  0
   38.6540   30.0420   44.7860 C   0  0  0  0  0  3  0  0  0  0  0  0
   38.5580   29.2030   45.4470 H   0  0  0  0  0  0  0  0  0  0  0  0
   39.9440   33.5900   44.7870 C   0  0  0  0  0  0  0  0  0  0  0  0
   40.3440   34.2210   45.7710 O   0  0  0  0  0  0  0  0  0  0  0  0
   40.2110   34.6560   43.9630 O   0  0  0  0  0  0  0  0  0  0  0  0
   39.7330   35.5350   43.9440 H   0  0  0  0  0  0  0  0  0  0  0  0
  1 12  1  0  0  0  0
  1  2  1  0  0  0  0
  2  9  1  0  0  0  0
  3  2  2  0  0  0  0
  3 10  1  0  0  0  0
  4  3  1  0  0  0  0
  5  4  2  0  0  0  0
  6  7  1  0  0  0  0
  6  4  1  0  0  0  0
  7  1  1  0  0  0  0
  8  7  2  0  0  0  0
 11 16  1  0  0  0  0
 11 21  1  0  0  0  0
 12 11  2  0  0  0  0
 13 14  2  0  0  0  0
 13 12  1  0  0  0  0
 14 15  1  0  0  0  0
 15 18  1  0  0  0  0
 15 16  2  0  0  0  0
 17 13  1  0  0  0  0
 19 22  1  0  0  0  0
 20 19  2  0  0  0  0
 21 19  1  0  0  0  0
 21 23  1  0  0  0  0
 24  6  1  0  0  0  0
 25 24  1  0  0  0  0
 26 36  1  0  0  0  0
 26 25  2  0  0  0  0
 27 26  1  0  0  0  0
 28 27  1  0  0  0  0
 29 28  2  0  0  0  0
 30 31  1  0  0  0  0
 30 28  1  0  0  0  0
 32 30  1  6  0  0  0
 32 27  1  0  0  0  0
 32 33  1  0  0  0  0
 33 34  1  0  0  0  0
 34 25  1  0  0  0  0
 34 35  1  0  0  0  0
 36 37  2  0  0  0  0
 38 36  1  0  0  0  0
 39 38  1  0  0  0  0
M  END
>  <minimizedAffinity>
-5.44122219

>  <minimizedRMSD>
1.09464741

$$$$
