
 OpenBabel03272503293D

 41 44  0  0  1  0  0  0  0  0999 V2000
   35.1800   29.4970   47.8470 C   0  0  0  0  0  0  0  0  0  0  0  0
   35.1440   29.9900   46.5290 C   0  0  0  0  0  0  0  0  0  0  0  0
   34.0100   29.6910   45.7710 C   0  0  0  0  0  0  0  0  0  0  0  0
   33.0280   28.9460   46.3650 N   0  0  0  0  0  0  0  0  0  0  0  0
   33.0980   28.4960   47.6170 C   0  0  0  0  0  0  0  0  0  0  0  0
   34.1830   28.7710   48.3710 N   0  0  0  0  0  0  0  0  0  0  0  0
   35.9120   30.5680   46.0770 H   0  0  0  0  0  0  0  0  0  0  0  0
   33.9080   30.0340   44.7490 H   0  0  0  0  0  0  0  0  0  0  0  0
   36.3520   29.8130   48.6100 N   0  0  0  0  0  0  0  0  0  0  0  0
   37.4860   30.5750   48.2030 C   0  0  0  0  0  0  0  0  0  0  0  0
   37.9980   31.1670   49.5040 C   0  0  2  0  0  0  0  0  0  0  0  0
   36.9910   30.7490   50.5690 C   0  0  0  0  0  0  0  0  0  0  0  0
   36.6070   29.4010   49.9790 C   0  0  0  0  0  0  0  0  0  0  0  0
   37.2360   31.3810   47.4910 H   0  0  0  0  0  0  0  0  0  0  0  0
   38.2440   29.8680   47.7980 H   0  0  0  0  0  0  0  0  0  0  0  0
   38.9780   30.7010   49.7960 H   0  0  0  0  0  0  0  0  0  0  0  0
   36.1110   31.4080   50.5770 H   0  0  0  0  0  0  0  0  0  0  0  0
   37.4790   30.6370   51.5570 H   0  0  0  0  0  0  0  0  0  0  0  0
   35.7030   29.0430   50.4780 H   0  0  0  0  0  0  0  0  0  0  0  0
   37.4430   28.7010   50.0510 H   0  0  0  0  0  0  0  0  0  0  0  0
   38.1890   32.6420   49.4420 C   0  0  0  0  0  0  0  0  0  0  0  0
   37.0280   33.2180   49.9560 F   0  0  0  0  0  0  0  0  0  0  0  0
   38.2070   33.0020   48.1060 F   0  0  0  0  0  0  0  0  0  0  0  0
   39.3140   33.0860   50.0640 F   0  0  0  0  0  0  0  0  0  0  0  0
   31.7960   27.5280   48.3510 S   0  0  0  0  0  0  0  0  0  0  0  0
   30.2340   28.0430   47.5480 C   0  0  0  0  0  2  0  0  0  0  0  0
   29.1170   28.0340   48.4820 C   0  0  0  0  0  0  0  0  0  0  0  0
   27.8060   27.8930   48.3810 C   0  0  0  0  0  0  0  0  0  0  0  0
   26.9010   27.9030   49.4580 N   0  0  0  0  0  0  0  0  0  0  0  0
   25.7200   28.4230   50.0590 C   0  0  0  0  0  0  0  0  0  0  0  0
   24.6600   28.9240   49.5600 O   0  0  0  0  0  0  0  0  0  0  0  0
   26.3640   28.0880   51.3800 C   0  0  0  0  0  3  0  0  0  0  0  0
   26.9870   28.9060   51.7480 H   0  0  0  0  0  0  0  0  0  0  0  0
   27.1080   27.0120   50.6170 C   0  0  2  0  0  3  0  0  0  0  0  0
   28.8980   26.9450   50.9320 S   0  0  0  0  0  0  0  0  0  0  0  0
   29.6070   28.2580   49.8540 C   0  0  0  0  0  3  0  0  0  0  0  0
   29.1700   29.2020   50.2520 H   0  0  0  0  0  0  0  0  0  0  0  0
   27.2810   27.6940   47.0130 C   0  0  0  0  0  0  0  0  0  0  0  0
   27.5980   27.0130   46.0310 O   0  0  0  0  0  0  0  0  0  0  0  0
   26.3630   27.9790   46.0500 O   0  0  0  0  0  0  0  0  0  0  0  0
   26.2320   28.8980   45.6510 H   0  0  0  0  0  0  0  0  0  0  0  0
  1  6  1  0  0  0  0
  1  9  1  0  0  0  0
  2  1  2  0  0  0  0
  3  4  2  0  0  0  0
  3  2  1  0  0  0  0
  4  5  1  0  0  0  0
  5 25  1  0  0  0  0
  5  6  2  0  0  0  0
  7  2  1  0  0  0  0
  8  3  1  0  0  0  0
  9 13  1  0  0  0  0
 10  9  1  0  0  0  0
 10 11  1  0  0  0  0
 11 16  1  1  0  0  0
 11 12  1  0  0  0  0
 12 17  1  0  0  0  0
 12 18  1  0  0  0  0
 13 20  1  0  0  0  0
 13 19  1  0  0  0  0
 13 12  1  0  0  0  0
 14 10  1  0  0  0  0
 15 10  1  0  0  0  0
 21 11  1  0  0  0  0
 21 22  1  0  0  0  0
 21 24  1  0  0  0  0
 23 21  1  0  0  0  0
 26 25  1  0  0  0  0
 26 27  1  0  0  0  0
 27 36  1  0  0  0  0
 28 27  2  0  0  0  0
 28 29  1  0  0  0  0
 29 30  1  0  0  0  0
 29 34  1  0  0  0  0
 30 32  1  0  0  0  0
 31 30  2  0  0  0  0
 32 33  1  0  0  0  0
 34 35  1  1  0  0  0
 34 32  1  0  0  0  0
 36 37  1  0  0  0  0
 36 35  1  0  0  0  0
 38 28  1  0  0  0  0
 39 38  2  0  0  0  0
 40 38  1  0  0  0  0
 41 40  1  0  0  0  0
M  END
>  <minimizedAffinity>
-7.42986965

>  <minimizedRMSD>
1.53923666

$$$$
