
 OpenBabel03272506373D

 41 44  0  0  1  0  0  0  0  0999 V2000
   34.4080   28.4460   49.9290 O   0  0  0  0  0  0  0  0  0  0  0  0
   34.1800   28.8430   48.7690 C   0  0  0  0  0  0  0  0  0  0  0  0
   34.9190   29.9590   48.1680 C   0  0  2  0  0  0  0  0  0  0  0  0
   34.4040   29.9240   46.7190 C   0  0  0  0  0  0  0  0  0  0  0  0
   33.0240   29.3290   46.8790 C   0  0  0  0  0  0  0  0  0  0  0  0
   33.2000   28.2800   47.8980 N   0  0  0  0  0  0  0  0  0  0  0  0
   34.6360   30.9250   48.6320 H   0  0  0  0  0  0  0  0  0  0  0  0
   35.0670   29.3700   46.0500 H   0  0  0  0  0  0  0  0  0  0  0  0
   34.2620   30.9780   46.3940 H   0  0  0  0  0  0  0  0  0  0  0  0
   32.6450   28.8940   45.9470 H   0  0  0  0  0  0  0  0  0  0  0  0
   32.3470   30.0700   47.3040 H   0  0  0  0  0  0  0  0  0  0  0  0
   36.3280   29.7680   48.1600 O   0  0  0  0  0  0  0  0  0  0  0  0
   37.1390   30.8850   48.1890 C   0  0  0  0  0  0  0  0  0  0  0  0
   37.2330   31.4730   49.4550 C   0  0  0  0  0  0  0  0  0  0  0  0
   38.0250   32.6110   49.6060 C   0  0  0  0  0  0  0  0  0  0  0  0
   38.6710   33.0930   48.5060 N   0  0  0  0  0  0  0  0  0  0  0  0
   38.5650   32.5070   47.2920 C   0  0  0  0  0  0  0  0  0  0  0  0
   37.8130   31.4340   47.1640 N   0  0  0  0  0  0  0  0  0  0  0  0
   40.1760   32.1110   45.5940 C   0  0  0  0  0  0  0  0  0  0  0  0
   40.4130   30.9200   45.9490 O   0  0  0  0  0  0  0  0  0  0  0  0
   39.2610   33.0530   46.1740 N   0  0  0  0  0  0  0  0  0  0  0  0
   36.7400   31.1270   50.3550 H   0  0  0  0  0  0  0  0  0  0  0  0
   38.1120   33.0840   50.5810 H   0  0  0  0  0  0  0  0  0  0  0  0
   40.7810   32.3780   44.7330 H   0  0  0  0  0  0  0  0  0  0  0  0
   39.1620   34.0300   45.7690 H   0  0  0  0  0  0  0  0  0  0  0  0
   32.5350   26.9920   47.9810 C   0  0  0  0  0  2  0  0  0  0  0  0
   31.2180   26.9400   47.3640 C   0  0  0  0  0  0  0  0  0  0  0  0
   30.1050   27.1690   48.0430 C   0  0  0  0  0  0  0  0  0  0  0  0
   28.8550   27.0760   47.3290 N   0  0  0  0  0  0  0  0  0  0  0  0
   27.5940   27.7040   47.0220 C   0  0  0  0  0  0  0  0  0  0  0  0
   26.8400   28.5340   47.6210 O   0  0  0  0  0  0  0  0  0  0  0  0
   27.6290   26.9320   45.7260 C   0  0  0  0  0  3  0  0  0  0  0  0
   26.6390   26.5560   45.4170 H   0  0  0  0  0  0  0  0  0  0  0  0
   28.4940   25.9290   46.4830 C   0  0  1  0  0  3  0  0  0  0  0  0
   29.9490   25.3630   45.5800 S   0  0  0  0  0  0  0  0  0  0  0  0
   31.2370   26.6250   45.9340 C   0  0  0  0  0  3  0  0  0  0  0  0
   32.1720   26.1910   45.6010 H   0  0  0  0  0  0  0  0  0  0  0  0
   30.0560   27.5040   49.4870 C   0  0  0  0  0  0  0  0  0  0  0  0
   30.5200   28.3840   50.2300 O   0  0  0  0  0  0  0  0  0  0  0  0
   29.3870   26.8030   50.4530 O   0  0  0  0  0  0  0  0  0  0  0  0
   28.6580   27.2280   50.9990 H   0  0  0  0  0  0  0  0  0  0  0  0
  2  1  2  0  0  0  0
  3  7  1  1  0  0  0
  3  2  1  0  0  0  0
  4  5  1  0  0  0  0
  4  3  1  0  0  0  0
  5 11  1  0  0  0  0
  5  6  1  0  0  0  0
  6 26  1  0  0  0  0
  6  2  1  0  0  0  0
  8  4  1  0  0  0  0
  9  4  1  0  0  0  0
 10  5  1  0  0  0  0
 12  3  1  0  0  0  0
 12 13  1  0  0  0  0
 13 14  1  0  0  0  0
 14 15  2  0  0  0  0
 14 22  1  0  0  0  0
 15 23  1  0  0  0  0
 16 15  1  0  0  0  0
 17 16  2  0  0  0  0
 18 17  1  0  0  0  0
 18 13  2  0  0  0  0
 19 20  2  0  0  0  0
 19 21  1  0  0  0  0
 21 17  1  0  0  0  0
 24 19  1  0  0  0  0
 25 21  1  0  0  0  0
 27 26  1  0  0  0  0
 27 28  2  0  0  0  0
 28 38  1  0  0  0  0
 29 28  1  0  0  0  0
 30 29  1  0  0  0  0
 30 31  2  0  0  0  0
 32 34  1  0  0  0  0
 32 30  1  0  0  0  0
 33 32  1  0  0  0  0
 34 35  1  6  0  0  0
 34 29  1  0  0  0  0
 35 36  1  0  0  0  0
 36 27  1  0  0  0  0
 37 36  1  0  0  0  0
 38 39  2  0  0  0  0
 38 40  1  0  0  0  0
 40 41  1  0  0  0  0
M  END
>  <minimizedAffinity>
-6.63523102

>  <minimizedRMSD>
3.78403163

$$$$
