
 OpenBabel03272506373D

 41 44  0  0  1  0  0  0  0  0999 V2000
   38.5170   25.6040   32.1540 O   0  0  0  0  0  0  0  0  0  0  0  0
   38.1380   26.0410   33.2590 C   0  0  0  0  0  0  0  0  0  0  0  0
   37.6000   27.3970   33.4180 C   0  0  2  0  0  0  0  0  0  0  0  0
   37.1250   27.3700   34.8800 C   0  0  0  0  0  0  0  0  0  0  0  0
   38.0510   26.3510   35.5050 C   0  0  0  0  0  0  0  0  0  0  0  0
   38.1750   25.3010   34.4780 N   0  0  0  0  0  0  0  0  0  0  0  0
   38.3950   28.1610   33.3070 H   0  0  0  0  0  0  0  0  0  0  0  0
   36.0600   27.1380   34.9730 H   0  0  0  0  0  0  0  0  0  0  0  0
   37.3830   28.3540   35.3290 H   0  0  0  0  0  0  0  0  0  0  0  0
   37.6460   25.9300   36.4320 H   0  0  0  0  0  0  0  0  0  0  0  0
   39.0430   26.7830   35.6340 H   0  0  0  0  0  0  0  0  0  0  0  0
   36.4850   27.6670   32.5770 O   0  0  0  0  0  0  0  0  0  0  0  0
   36.6810   28.4730   31.4730 C   0  0  0  0  0  0  0  0  0  0  0  0
   36.3030   29.8040   31.6810 C   0  0  0  0  0  0  0  0  0  0  0  0
   36.4550   30.7130   30.6340 C   0  0  0  0  0  0  0  0  0  0  0  0
   36.9660   30.2540   29.4560 N   0  0  0  0  0  0  0  0  0  0  0  0
   37.3240   28.9620   29.2780 C   0  0  0  0  0  0  0  0  0  0  0  0
   37.1750   28.1150   30.2760 N   0  0  0  0  0  0  0  0  0  0  0  0
   39.1730   27.9850   28.1550 C   0  0  0  0  0  0  0  0  0  0  0  0
   39.8720   27.8480   29.2010 O   0  0  0  0  0  0  0  0  0  0  0  0
   37.8530   28.5340   28.0250 N   0  0  0  0  0  0  0  0  0  0  0  0
   35.8940   30.2140   32.5960 H   0  0  0  0  0  0  0  0  0  0  0  0
   36.1680   31.7520   30.7730 H   0  0  0  0  0  0  0  0  0  0  0  0
   39.7110   27.6150   27.2880 H   0  0  0  0  0  0  0  0  0  0  0  0
   37.3810   28.5880   27.0750 H   0  0  0  0  0  0  0  0  0  0  0  0
   38.2990   23.8680   34.6750 C   0  0  0  0  0  2  0  0  0  0  0  0
   39.6320   23.4120   35.0390 C   0  0  0  0  0  0  0  0  0  0  0  0
   39.9460   23.0450   36.2710 C   0  0  0  0  0  0  0  0  0  0  0  0
   41.3040   22.6230   36.5180 N   0  0  0  0  0  0  0  0  0  0  0  0
   42.1680   21.6180   37.0850 C   0  0  0  0  0  0  0  0  0  0  0  0
   42.0560   20.7710   38.0270 O   0  0  0  0  0  0  0  0  0  0  0  0
   43.1910   22.0540   36.0660 C   0  0  0  0  0  3  0  0  0  0  0  0
   44.2220   22.0610   36.4590 H   0  0  0  0  0  0  0  0  0  0  0  0
   42.4780   23.4020   36.0990 C   0  0  1  0  0  3  0  0  0  0  0  0
   42.1730   24.1270   34.4750 S   0  0  0  0  0  0  0  0  0  0  0  0
   40.5830   23.3860   33.9260 C   0  0  0  0  0  3  0  0  0  0  0  0
   40.2650   23.9730   33.0740 H   0  0  0  0  0  0  0  0  0  0  0  0
   39.0010   23.0470   37.4150 C   0  0  0  0  0  0  0  0  0  0  0  0
   37.8190   23.3680   37.6130 O   0  0  0  0  0  0  0  0  0  0  0  0
   39.2790   22.6330   38.6890 O   0  0  0  0  0  0  0  0  0  0  0  0
   38.7730   21.8790   39.1180 H   0  0  0  0  0  0  0  0  0  0  0  0
  1  2  2  0  0  0  0
  2  3  1  0  0  0  0
  2  6  1  0  0  0  0
  3  7  1  6  0  0  0
  3  4  1  0  0  0  0
  4  8  1  0  0  0  0
  4  9  1  0  0  0  0
  4  5  1  0  0  0  0
  5 11  1  0  0  0  0
  5 10  1  0  0  0  0
  6 26  1  0  0  0  0
  6  5  1  0  0  0  0
 12  3  1  0  0  0  0
 13 14  1  0  0  0  0
 13 12  1  0  0  0  0
 14 22  1  0  0  0  0
 15 23  1  0  0  0  0
 15 14  2  0  0  0  0
 16 15  1  0  0  0  0
 17 16  2  0  0  0  0
 17 18  1  0  0  0  0
 18 13  2  0  0  0  0
 19 20  2  0  0  0  0
 21 19  1  0  0  0  0
 21 17  1  0  0  0  0
 24 19  1  0  0  0  0
 25 21  1  0  0  0  0
 26 27  1  0  0  0  0
 27 28  2  0  0  0  0
 28 29  1  0  0  0  0
 28 38  1  0  0  0  0
 29 30  1  0  0  0  0
 30 31  2  0  0  0  0
 32 34  1  0  0  0  0
 32 33  1  0  0  0  0
 32 30  1  0  0  0  0
 34 35  1  6  0  0  0
 34 29  1  0  0  0  0
 36 35  1  0  0  0  0
 36 27  1  0  0  0  0
 37 36  1  0  0  0  0
 38 39  2  0  0  0  0
 38 40  1  0  0  0  0
 40 41  1  0  0  0  0
M  END
>  <minimizedAffinity>
-6.24616003

$$$$

 OpenBabel03272506373D

 41 44  0  0  1  0  0  0  0  0999 V2000
   36.4710   28.2190   35.0150 O   0  0  0  0  0  0  0  0  0  0  0  0
   36.1620   28.4950   33.8380 C   0  0  0  0  0  0  0  0  0  0  0  0
   35.1500   29.5060   33.5150 C   0  0  2  0  0  0  0  0  0  0  0  0
   35.2780   29.5910   31.9840 C   0  0  0  0  0  0  0  0  0  0  0  0
   35.7710   28.2080   31.6220 C   0  0  0  0  0  0  0  0  0  0  0  0
   36.7360   27.8800   32.6850 N   0  0  0  0  0  0  0  0  0  0  0  0
   34.1320   29.1560   33.7760 H   0  0  0  0  0  0  0  0  0  0  0  0
   35.9290   30.4080   31.6600 H   0  0  0  0  0  0  0  0  0  0  0  0
   34.2500   29.6820   31.5710 H   0  0  0  0  0  0  0  0  0  0  0  0
   36.2600   28.1820   30.6420 H   0  0  0  0  0  0  0  0  0  0  0  0
   34.9550   27.4910   31.7060 H   0  0  0  0  0  0  0  0  0  0  0  0
   35.4290   30.7850   34.0700 O   0  0  0  0  0  0  0  0  0  0  0  0
   34.7350   31.1720   35.2000 C   0  0  0  0  0  0  0  0  0  0  0  0
   35.3630   32.1950   35.9180 C   0  0  0  0  0  0  0  0  0  0  0  0
   34.7540   32.6670   37.0790 C   0  0  0  0  0  0  0  0  0  0  0  0
   33.5710   32.1050   37.4570 N   0  0  0  0  0  0  0  0  0  0  0  0
   32.9820   31.1160   36.7470 C   0  0  0  0  0  0  0  0  0  0  0  0
   33.5690   30.6800   35.6520 N   0  0  0  0  0  0  0  0  0  0  0  0
   30.7050   30.7120   36.2070 C   0  0  0  0  0  0  0  0  0  0  0  0
   30.7710   31.2510   35.0640 O   0  0  0  0  0  0  0  0  0  0  0  0
   31.7440   30.5620   37.1870 N   0  0  0  0  0  0  0  0  0  0  0  0
   36.3010   32.6720   35.6580 H   0  0  0  0  0  0  0  0  0  0  0  0
   35.2250   33.4630   37.6530 H   0  0  0  0  0  0  0  0  0  0  0  0
   29.7030   30.3400   36.3950 H   0  0  0  0  0  0  0  0  0  0  0  0
   31.5470   30.0840   38.1150 H   0  0  0  0  0  0  0  0  0  0  0  0
   37.9680   27.1210   32.5720 C   0  0  0  0  0  2  0  0  0  0  0  0
   37.9520   25.8230   33.2290 C   0  0  0  0  0  0  0  0  0  0  0  0
   38.6390   25.5760   34.3330 C   0  0  0  0  0  0  0  0  0  0  0  0
   38.5580   24.2470   34.8890 N   0  0  0  0  0  0  0  0  0  0  0  0
   38.3290   23.4460   36.0660 C   0  0  0  0  0  0  0  0  0  0  0  0
   38.4780   23.6310   37.3150 O   0  0  0  0  0  0  0  0  0  0  0  0
   37.8570   22.3650   35.1260 C   0  0  0  0  0  3  0  0  0  0  0  0
   38.1650   21.3520   35.4380 H   0  0  0  0  0  0  0  0  0  0  0  0
   38.7640   23.0280   34.0950 C   0  0  1  0  0  3  0  0  0  0  0  0
   38.0190   23.2350   32.4650 S   0  0  0  0  0  0  0  0  0  0  0  0
   37.1040   24.8270   32.5710 C   0  0  0  0  0  3  0  0  0  0  0  0
   36.8480   25.0850   31.5510 H   0  0  0  0  0  0  0  0  0  0  0  0
   39.4940   26.5680   35.0300 C   0  0  0  0  0  0  0  0  0  0  0  0
   40.6880   26.9090   35.0100 O   0  0  0  0  0  0  0  0  0  0  0  0
   39.0820   27.4520   35.9900 O   0  0  0  0  0  0  0  0  0  0  0  0
   39.1670   28.4450   35.8600 H   0  0  0  0  0  0  0  0  0  0  0  0
  2  1  2  0  0  0  0
  3  7  1  1  0  0  0
  3  2  1  0  0  0  0
  3 12  1  0  0  0  0
  4  3  1  0  0  0  0
  5 11  1  0  0  0  0
  5  4  1  0  0  0  0
  5  6  1  0  0  0  0
  6  2  1  0  0  0  0
  8  4  1  0  0  0  0
  9  4  1  0  0  0  0
 10  5  1  0  0  0  0
 12 13  1  0  0  0  0
 13 18  2  0  0  0  0
 13 14  1  0  0  0  0
 14 15  2  0  0  0  0
 15 16  1  0  0  0  0
 15 23  1  0  0  0  0
 17 21  1  0  0  0  0
 17 16  2  0  0  0  0
 18 17  1  0  0  0  0
 19 24  1  0  0  0  0
 19 21  1  0  0  0  0
 20 19  2  0  0  0  0
 21 25  1  0  0  0  0
 22 14  1  0  0  0  0
 26  6  1  0  0  0  0
 26 27  1  0  0  0  0
 27 28  2  0  0  0  0
 28 29  1  0  0  0  0
 28 38  1  0  0  0  0
 29 30  1  0  0  0  0
 30 31  2  0  0  0  0
 32 33  1  0  0  0  0
 32 30  1  0  0  0  0
 34 35  1  6  0  0  0
 34 29  1  0  0  0  0
 34 32  1  0  0  0  0
 35 36  1  0  0  0  0
 36 27  1  0  0  0  0
 37 36  1  0  0  0  0
 38 40  1  0  0  0  0
 39 38  2  0  0  0  0
 41 40  1  0  0  0  0
M  END
>  <minimizedAffinity>
-6.22906065

$$$$

 OpenBabel03272506373D

 41 44  0  0  1  0  0  0  0  0999 V2000
   37.0250   28.0900   35.0870 O   0  0  0  0  0  0  0  0  0  0  0  0
   36.4530   28.2370   33.9880 C   0  0  0  0  0  0  0  0  0  0  0  0
   35.2890   29.1150   33.8260 C   0  0  2  0  0  0  0  0  0  0  0  0
   35.0900   29.0850   32.3020 C   0  0  0  0  0  0  0  0  0  0  0  0
   35.6500   27.7320   31.9270 C   0  0  0  0  0  0  0  0  0  0  0  0
   36.8430   27.5880   32.7780 N   0  0  0  0  0  0  0  0  0  0  0  0
   34.3920   28.6910   34.3190 H   0  0  0  0  0  0  0  0  0  0  0  0
   35.5650   29.9320   31.7980 H   0  0  0  0  0  0  0  0  0  0  0  0
   33.9960   29.0430   32.1120 H   0  0  0  0  0  0  0  0  0  0  0  0
   35.9280   27.6720   30.8690 H   0  0  0  0  0  0  0  0  0  0  0  0
   34.9540   26.9480   32.2260 H   0  0  0  0  0  0  0  0  0  0  0  0
   35.5310   30.4570   34.2320 O   0  0  0  0  0  0  0  0  0  0  0  0
   34.8010   30.9610   35.2900 C   0  0  0  0  0  0  0  0  0  0  0  0
   35.4520   31.9910   35.9770 C   0  0  0  0  0  0  0  0  0  0  0  0
   34.8100   32.5770   37.0670 C   0  0  0  0  0  0  0  0  0  0  0  0
   33.5740   32.1150   37.4080 N   0  0  0  0  0  0  0  0  0  0  0  0
   32.9630   31.1170   36.7280 C   0  0  0  0  0  0  0  0  0  0  0  0
   33.5820   30.5720   35.7020 N   0  0  0  0  0  0  0  0  0  0  0  0
   30.7000   30.8160   36.0790 C   0  0  0  0  0  0  0  0  0  0  0  0
   30.8640   31.2700   34.9100 O   0  0  0  0  0  0  0  0  0  0  0  0
   31.6700   30.6700   37.1280 N   0  0  0  0  0  0  0  0  0  0  0  0
   36.4310   32.3910   35.7440 H   0  0  0  0  0  0  0  0  0  0  0  0
   35.2980   33.3800   37.6150 H   0  0  0  0  0  0  0  0  0  0  0  0
   29.6670   30.5190   36.2300 H   0  0  0  0  0  0  0  0  0  0  0  0
   31.3900   30.2690   38.0710 H   0  0  0  0  0  0  0  0  0  0  0  0
   38.1030   26.9440   32.4520 C   0  0  0  0  0  2  0  0  0  0  0  0
   38.3590   25.7000   33.1610 C   0  0  0  0  0  0  0  0  0  0  0  0
   37.7680   24.5610   32.8340 C   0  0  0  0  0  0  0  0  0  0  0  0
   38.0880   23.3920   33.6180 N   0  0  0  0  0  0  0  0  0  0  0  0
   38.4940   22.0090   33.6060 C   0  0  0  0  0  0  0  0  0  0  0  0
   38.3700   21.0490   32.7820 O   0  0  0  0  0  0  0  0  0  0  0  0
   39.0950   22.2690   34.9650 C   0  0  0  0  0  3  0  0  0  0  0  0
   38.9690   21.4260   35.6650 H   0  0  0  0  0  0  0  0  0  0  0  0
   38.0490   23.3720   35.0870 C   0  0  1  0  0  3  0  0  0  0  0  0
   38.6810   24.9350   35.7290 S   0  0  0  0  0  0  0  0  0  0  0  0
   39.3280   25.8180   34.2520 C   0  0  0  0  0  3  0  0  0  0  0  0
   39.4950   26.8390   34.5710 H   0  0  0  0  0  0  0  0  0  0  0  0
   36.7930   24.4080   31.7260 C   0  0  0  0  0  0  0  0  0  0  0  0
   35.5730   24.2110   31.6130 O   0  0  0  0  0  0  0  0  0  0  0  0
   37.0810   24.4580   30.3900 O   0  0  0  0  0  0  0  0  0  0  0  0
   36.6630   25.1460   29.7890 H   0  0  0  0  0  0  0  0  0  0  0  0
  2  1  2  0  0  0  0
  3  2  1  0  0  0  0
  3 12  1  0  0  0  0
  3  7  1  1  0  0  0
  4  3  1  0  0  0  0
  5 11  1  0  0  0  0
  5  4  1  0  0  0  0
  5  6  1  0  0  0  0
  6  2  1  0  0  0  0
  8  4  1  0  0  0  0
  9  4  1  0  0  0  0
 10  5  1  0  0  0  0
 12 13  1  0  0  0  0
 13 18  2  0  0  0  0
 13 14  1  0  0  0  0
 14 15  2  0  0  0  0
 15 16  1  0  0  0  0
 15 23  1  0  0  0  0
 17 21  1  0  0  0  0
 17 16  2  0  0  0  0
 18 17  1  0  0  0  0
 19 24  1  0  0  0  0
 19 21  1  0  0  0  0
 20 19  2  0  0  0  0
 21 25  1  0  0  0  0
 22 14  1  0  0  0  0
 26  6  1  0  0  0  0
 26 27  1  0  0  0  0
 27 36  1  0  0  0  0
 28 27  2  0  0  0  0
 28 29  1  0  0  0  0
 29 34  1  0  0  0  0
 30 29  1  0  0  0  0
 30 32  1  0  0  0  0
 31 30  2  0  0  0  0
 32 33  1  0  0  0  0
 34 32  1  1  0  0  0
 34 35  1  0  0  0  0
 36 37  1  0  0  0  0
 36 35  1  0  0  0  0
 38 28  1  0  0  0  0
 39 38  2  0  0  0  0
 40 38  1  0  0  0  0
 41 40  1  0  0  0  0
M  END
>  <minimizedAffinity>
-6.02614927

$$$$

 OpenBabel03272506373D

 41 44  0  0  1  0  0  0  0  0999 V2000
   36.6160   28.1490   34.6820 O   0  0  0  0  0  0  0  0  0  0  0  0
   37.0340   27.2050   33.9810 C   0  0  0  0  0  0  0  0  0  0  0  0
   37.9580   26.1940   34.5070 C   0  0  2  0  0  0  0  0  0  0  0  0
   38.0120   25.1910   33.3420 C   0  0  0  0  0  0  0  0  0  0  0  0
   37.7280   26.0680   32.1440 C   0  0  0  0  0  0  0  0  0  0  0  0
   36.6810   26.9920   32.6150 N   0  0  0  0  0  0  0  0  0  0  0  0
   38.9690   26.6170   34.6700 H   0  0  0  0  0  0  0  0  0  0  0  0
   37.3180   24.3560   33.4730 H   0  0  0  0  0  0  0  0  0  0  0  0
   39.0660   24.8520   33.2470 H   0  0  0  0  0  0  0  0  0  0  0  0
   37.3690   25.4960   31.2820 H   0  0  0  0  0  0  0  0  0  0  0  0
   38.6030   26.6750   31.9140 H   0  0  0  0  0  0  0  0  0  0  0  0
   37.4690   25.5270   35.6640 O   0  0  0  0  0  0  0  0  0  0  0  0
   38.3050   24.6320   36.3040 C   0  0  0  0  0  0  0  0  0  0  0  0
   37.8590   24.2650   37.5780 C   0  0  0  0  0  0  0  0  0  0  0  0
   38.6230   23.3650   38.3190 C   0  0  0  0  0  0  0  0  0  0  0  0
   39.7710   22.8870   37.7610 N   0  0  0  0  0  0  0  0  0  0  0  0
   40.1830   23.2570   36.5270 C   0  0  0  0  0  0  0  0  0  0  0  0
   39.4510   24.1070   35.8380 N   0  0  0  0  0  0  0  0  0  0  0  0
   41.1740   22.0130   34.7640 C   0  0  0  0  0  0  0  0  0  0  0  0
   40.0860   21.8190   34.1480 O   0  0  0  0  0  0  0  0  0  0  0  0
   41.3930   22.7270   35.9910 N   0  0  0  0  0  0  0  0  0  0  0  0
   36.9560   24.6170   38.0620 H   0  0  0  0  0  0  0  0  0  0  0  0
   38.2950   23.0650   39.3120 H   0  0  0  0  0  0  0  0  0  0  0  0
   41.9990   21.5500   34.2320 H   0  0  0  0  0  0  0  0  0  0  0  0
   42.3700   22.8130   36.3990 H   0  0  0  0  0  0  0  0  0  0  0  0
   35.5660   27.5400   31.8630 C   0  0  0  0  0  2  0  0  0  0  0  0
   35.6160   28.9790   31.6530 C   0  0  0  0  0  0  0  0  0  0  0  0
   36.4190   29.5400   30.7620 C   0  0  0  0  0  0  0  0  0  0  0  0
   36.3930   30.9780   30.6500 N   0  0  0  0  0  0  0  0  0  0  0  0
   36.2890   32.1150   29.7700 C   0  0  0  0  0  0  0  0  0  0  0  0
   36.5750   32.3290   28.5490 O   0  0  0  0  0  0  0  0  0  0  0  0
   35.7140   32.8590   30.9490 C   0  0  0  0  0  3  0  0  0  0  0  0
   36.0500   33.9080   31.0080 H   0  0  0  0  0  0  0  0  0  0  0  0
   36.5060   31.8780   31.8060 C   0  0  1  0  0  3  0  0  0  0  0  0
   35.5890   31.1900   33.1990 S   0  0  0  0  0  0  0  0  0  0  0  0
   34.6980   29.7420   32.5000 C   0  0  0  0  0  3  0  0  0  0  0  0
   34.3340   29.1830   33.3530 H   0  0  0  0  0  0  0  0  0  0  0  0
   37.3480   28.7920   29.8800 C   0  0  0  0  0  0  0  0  0  0  0  0
   38.5640   28.5400   29.8500 O   0  0  0  0  0  0  0  0  0  0  0  0
   37.0080   28.1200   28.7380 O   0  0  0  0  0  0  0  0  0  0  0  0
   37.1650   27.1320   28.6440 H   0  0  0  0  0  0  0  0  0  0  0  0
  2  3  1  0  0  0  0
  2  1  2  0  0  0  0
  3  7  1  1  0  0  0
  3 12  1  0  0  0  0
  4  8  1  0  0  0  0
  4  3  1  0  0  0  0
  5  6  1  0  0  0  0
  5  4  1  0  0  0  0
  6  2  1  0  0  0  0
  9  4  1  0  0  0  0
 10  5  1  0  0  0  0
 11  5  1  0  0  0  0
 12 13  1  0  0  0  0
 13 14  1  0  0  0  0
 14 22  1  0  0  0  0
 14 15  2  0  0  0  0
 15 23  1  0  0  0  0
 16 15  1  0  0  0  0
 17 16  2  0  0  0  0
 18 13  2  0  0  0  0
 18 17  1  0  0  0  0
 19 21  1  0  0  0  0
 20 19  2  0  0  0  0
 21 25  1  0  0  0  0
 21 17  1  0  0  0  0
 24 19  1  0  0  0  0
 26  6  1  0  0  0  0
 27 26  1  0  0  0  0
 27 36  1  0  0  0  0
 28 27  2  0  0  0  0
 29 28  1  0  0  0  0
 29 34  1  0  0  0  0
 30 29  1  0  0  0  0
 30 32  1  0  0  0  0
 31 30  2  0  0  0  0
 32 33  1  0  0  0  0
 34 32  1  6  0  0  0
 34 35  1  0  0  0  0
 36 35  1  0  0  0  0
 36 37  1  0  0  0  0
 38 28  1  0  0  0  0
 39 38  2  0  0  0  0
 40 38  1  0  0  0  0
 41 40  1  0  0  0  0
M  END
>  <minimizedAffinity>
-5.87609148

$$$$

 OpenBabel03272506373D

 41 44  0  0  1  0  0  0  0  0999 V2000
   38.4910   25.5830   32.0820 O   0  0  0  0  0  0  0  0  0  0  0  0
   38.0640   26.0310   33.1650 C   0  0  0  0  0  0  0  0  0  0  0  0
   37.4960   27.3790   33.2810 C   0  0  2  0  0  0  0  0  0  0  0  0
   36.9700   27.3670   34.7260 C   0  0  0  0  0  0  0  0  0  0  0  0
   37.8910   26.3770   35.4010 C   0  0  0  0  0  0  0  0  0  0  0  0
   38.0710   25.3120   34.3980 N   0  0  0  0  0  0  0  0  0  0  0  0
   38.2810   28.1560   33.1860 H   0  0  0  0  0  0  0  0  0  0  0  0
   35.9070   27.1170   34.7860 H   0  0  0  0  0  0  0  0  0  0  0  0
   37.1930   28.3630   35.1670 H   0  0  0  0  0  0  0  0  0  0  0  0
   37.4620   25.9640   36.3200 H   0  0  0  0  0  0  0  0  0  0  0  0
   38.8700   26.8300   35.5580 H   0  0  0  0  0  0  0  0  0  0  0  0
   36.4070   27.6140   32.3980 O   0  0  0  0  0  0  0  0  0  0  0  0
   36.5300   28.6240   31.4640 C   0  0  0  0  0  0  0  0  0  0  0  0
   37.1840   28.2260   30.2930 C   0  0  0  0  0  0  0  0  0  0  0  0
   37.3670   29.1630   29.2780 C   0  0  0  0  0  0  0  0  0  0  0  0
   36.8960   30.4270   29.4800 N   0  0  0  0  0  0  0  0  0  0  0  0
   36.2670   30.7900   30.6210 C   0  0  0  0  0  0  0  0  0  0  0  0
   36.1010   29.8930   31.5710 N   0  0  0  0  0  0  0  0  0  0  0  0
   34.3760   32.1750   30.9990 C   0  0  0  0  0  0  0  0  0  0  0  0
   33.5530   31.2150   31.0620 O   0  0  0  0  0  0  0  0  0  0  0  0
   35.7940   32.1250   30.7810 N   0  0  0  0  0  0  0  0  0  0  0  0
   37.5740   27.2360   30.0880 H   0  0  0  0  0  0  0  0  0  0  0  0
   37.8720   28.8750   28.3590 H   0  0  0  0  0  0  0  0  0  0  0  0
   33.8660   33.1220   31.1400 H   0  0  0  0  0  0  0  0  0  0  0  0
   36.3680   33.0180   30.7520 H   0  0  0  0  0  0  0  0  0  0  0  0
   38.2140   23.8860   34.6240 C   0  0  0  0  0  2  0  0  0  0  0  0
   39.5600   23.4510   34.9690 C   0  0  0  0  0  0  0  0  0  0  0  0
   39.9010   23.1090   36.2020 C   0  0  0  0  0  0  0  0  0  0  0  0
   41.2680   22.7070   36.4300 N   0  0  0  0  0  0  0  0  0  0  0  0
   42.1550   21.7220   36.9970 C   0  0  0  0  0  0  0  0  0  0  0  0
   42.0710   20.8900   37.9550 O   0  0  0  0  0  0  0  0  0  0  0  0
   43.1530   22.1520   35.9510 C   0  0  0  0  0  3  0  0  0  0  0  0
   44.1910   22.1780   36.3240 H   0  0  0  0  0  0  0  0  0  0  0  0
   42.4250   23.4920   35.9750 C   0  0  1  0  0  3  0  0  0  0  0  0
   42.0800   24.1860   34.3450 S   0  0  0  0  0  0  0  0  0  0  0  0
   40.4890   23.4170   33.8390 C   0  0  0  0  0  3  0  0  0  0  0  0
   40.1480   23.9860   32.9830 H   0  0  0  0  0  0  0  0  0  0  0  0
   38.9780   23.1200   37.3630 C   0  0  0  0  0  0  0  0  0  0  0  0
   37.8490   23.5670   37.6190 O   0  0  0  0  0  0  0  0  0  0  0  0
   39.2170   22.5530   38.5850 O   0  0  0  0  0  0  0  0  0  0  0  0
   38.6230   21.8310   38.9530 H   0  0  0  0  0  0  0  0  0  0  0  0
  1  2  2  0  0  0  0
  2  3  1  0  0  0  0
  2  6  1  0  0  0  0
  3  7  1  6  0  0  0
  3  4  1  0  0  0  0
  4  8  1  0  0  0  0
  4  9  1  0  0  0  0
  4  5  1  0  0  0  0
  5 11  1  0  0  0  0
  5 10  1  0  0  0  0
  6 26  1  0  0  0  0
  6  5  1  0  0  0  0
 12  3  1  0  0  0  0
 13 18  1  0  0  0  0
 13 12  1  0  0  0  0
 14 13  2  0  0  0  0
 15 16  2  0  0  0  0
 15 14  1  0  0  0  0
 16 17  1  0  0  0  0
 17 21  1  0  0  0  0
 17 18  2  0  0  0  0
 19 20  2  0  0  0  0
 19 24  1  0  0  0  0
 21 19  1  0  0  0  0
 22 14  1  0  0  0  0
 23 15  1  0  0  0  0
 25 21  1  0  0  0  0
 26 27  1  0  0  0  0
 27 28  2  0  0  0  0
 28 29  1  0  0  0  0
 28 38  1  0  0  0  0
 29 30  1  0  0  0  0
 30 31  2  0  0  0  0
 32 34  1  0  0  0  0
 32 33  1  0  0  0  0
 32 30  1  0  0  0  0
 34 35  1  6  0  0  0
 34 29  1  0  0  0  0
 36 35  1  0  0  0  0
 36 27  1  0  0  0  0
 37 36  1  0  0  0  0
 38 39  2  0  0  0  0
 38 40  1  0  0  0  0
 40 41  1  0  0  0  0
M  END
>  <minimizedAffinity>
-5.82526112

$$$$

 OpenBabel03272506373D

 41 44  0  0  1  0  0  0  0  0999 V2000
   38.0140   27.0320   32.3570 O   0  0  0  0  0  0  0  0  0  0  0  0
   38.2160   26.7650   33.5590 C   0  0  0  0  0  0  0  0  0  0  0  0
   37.7070   27.6140   34.6410 C   0  0  2  0  0  0  0  0  0  0  0  0
   38.0570   26.7750   35.8820 C   0  0  0  0  0  0  0  0  0  0  0  0
   39.2670   25.9970   35.4170 C   0  0  0  0  0  0  0  0  0  0  0  0
   38.9480   25.6330   34.0250 N   0  0  0  0  0  0  0  0  0  0  0  0
   38.2530   28.5780   34.6880 H   0  0  0  0  0  0  0  0  0  0  0  0
   37.2200   26.1590   36.2240 H   0  0  0  0  0  0  0  0  0  0  0  0
   38.4110   27.4780   36.6670 H   0  0  0  0  0  0  0  0  0  0  0  0
   39.4410   25.0960   36.0160 H   0  0  0  0  0  0  0  0  0  0  0  0
   40.1370   26.6530   35.3790 H   0  0  0  0  0  0  0  0  0  0  0  0
   36.2980   27.8050   34.5980 O   0  0  0  0  0  0  0  0  0  0  0  0
   35.8180   29.0350   34.1930 C   0  0  0  0  0  0  0  0  0  0  0  0
   35.0210   28.9720   33.0440 C   0  0  0  0  0  0  0  0  0  0  0  0
   34.4800   30.1540   32.5410 C   0  0  0  0  0  0  0  0  0  0  0  0
   34.7560   31.3160   33.1980 N   0  0  0  0  0  0  0  0  0  0  0  0
   35.5290   31.3530   34.3080 C   0  0  0  0  0  0  0  0  0  0  0  0
   36.0340   30.2280   34.7710 N   0  0  0  0  0  0  0  0  0  0  0  0
   35.3330   32.6000   36.3180 C   0  0  0  0  0  0  0  0  0  0  0  0
   34.7640   31.6720   36.9630 O   0  0  0  0  0  0  0  0  0  0  0  0
   35.7870   32.5960   34.9560 N   0  0  0  0  0  0  0  0  0  0  0  0
   34.7750   28.0740   32.4900 H   0  0  0  0  0  0  0  0  0  0  0  0
   33.8580   30.1280   31.6500 H   0  0  0  0  0  0  0  0  0  0  0  0
   35.4580   33.4770   36.9460 H   0  0  0  0  0  0  0  0  0  0  0  0
   36.2540   33.4540   34.5390 H   0  0  0  0  0  0  0  0  0  0  0  0
   39.2950   24.4140   33.3180 C   0  0  0  0  0  2  0  0  0  0  0  0
   38.2320   23.4230   33.2430 C   0  0  0  0  0  0  0  0  0  0  0  0
   38.0720   22.4820   34.1600 C   0  0  0  0  0  0  0  0  0  0  0  0
   36.9910   21.5440   33.9740 N   0  0  0  0  0  0  0  0  0  0  0  0
   35.8500   20.8910   34.5640 C   0  0  0  0  0  0  0  0  0  0  0  0
   35.5140   20.5770   35.7500 O   0  0  0  0  0  0  0  0  0  0  0  0
   35.3030   20.7820   33.1630 C   0  0  0  0  0  3  0  0  0  0  0  0
   34.7790   19.8300   32.9720 H   0  0  0  0  0  0  0  0  0  0  0  0
   36.7600   20.8200   32.7160 C   0  0  1  0  0  3  0  0  0  0  0  0
   37.0870   21.9150   31.3200 S   0  0  0  0  0  0  0  0  0  0  0  0
   37.3570   23.5680   32.0790 C   0  0  0  0  0  3  0  0  0  0  0  0
   37.7800   24.1830   31.2950 H   0  0  0  0  0  0  0  0  0  0  0  0
   38.9340   22.3190   35.3570 C   0  0  0  0  0  0  0  0  0  0  0  0
   40.1300   22.0790   35.5860 O   0  0  0  0  0  0  0  0  0  0  0  0
   38.5270   22.4140   36.6590 O   0  0  0  0  0  0  0  0  0  0  0  0
   38.9150   23.1010   37.2810 H   0  0  0  0  0  0  0  0  0  0  0  0
  1  2  2  0  0  0  0
  2  6  1  0  0  0  0
  2  3  1  0  0  0  0
  3  7  1  1  0  0  0
  3  4  1  0  0  0  0
  4  8  1  0  0  0  0
  4  9  1  0  0  0  0
  5  4  1  0  0  0  0
  5 10  1  0  0  0  0
  6  5  1  0  0  0  0
 11  5  1  0  0  0  0
 12  3  1  0  0  0  0
 13 12  1  0  0  0  0
 13 18  1  0  0  0  0
 14 13  2  0  0  0  0
 15 14  1  0  0  0  0
 15 16  2  0  0  0  0
 16 17  1  0  0  0  0
 17 18  2  0  0  0  0
 17 21  1  0  0  0  0
 19 24  1  0  0  0  0
 19 20  2  0  0  0  0
 21 19  1  0  0  0  0
 22 14  1  0  0  0  0
 23 15  1  0  0  0  0
 25 21  1  0  0  0  0
 26  6  1  0  0  0  0
 27 26  1  0  0  0  0
 27 28  2  0  0  0  0
 28 38  1  0  0  0  0
 29 28  1  0  0  0  0
 29 30  1  0  0  0  0
 30 31  2  0  0  0  0
 32 30  1  0  0  0  0
 33 32  1  0  0  0  0
 34 35  1  6  0  0  0
 34 32  1  0  0  0  0
 34 29  1  0  0  0  0
 35 36  1  0  0  0  0
 36 27  1  0  0  0  0
 37 36  1  0  0  0  0
 38 39  2  0  0  0  0
 38 40  1  0  0  0  0
 40 41  1  0  0  0  0
M  END
>  <minimizedAffinity>
-5.80330038

$$$$

 OpenBabel03272506373D

 41 44  0  0  1  0  0  0  0  0999 V2000
   36.6540   27.5560   34.8350 O   0  0  0  0  0  0  0  0  0  0  0  0
   37.8270   27.1940   34.6110 C   0  0  0  0  0  0  0  0  0  0  0  0
   38.7580   26.8560   35.6940 C   0  0  2  0  0  0  0  0  0  0  0  0
   39.9630   26.3150   34.9060 C   0  0  0  0  0  0  0  0  0  0  0  0
   39.8470   27.0490   33.5900 C   0  0  0  0  0  0  0  0  0  0  0  0
   38.4000   27.0640   33.3110 N   0  0  0  0  0  0  0  0  0  0  0  0
   39.0670   27.7600   36.2560 H   0  0  0  0  0  0  0  0  0  0  0  0
   39.9570   25.2240   34.8240 H   0  0  0  0  0  0  0  0  0  0  0  0
   40.8810   26.6940   35.4040 H   0  0  0  0  0  0  0  0  0  0  0  0
   40.3850   26.5440   32.7800 H   0  0  0  0  0  0  0  0  0  0  0  0
   40.1540   28.0870   33.7170 H   0  0  0  0  0  0  0  0  0  0  0  0
   38.2770   25.8340   36.5580 O   0  0  0  0  0  0  0  0  0  0  0  0
   38.5430   24.5200   36.2260 C   0  0  0  0  0  0  0  0  0  0  0  0
   37.8130   24.0650   35.1230 C   0  0  0  0  0  0  0  0  0  0  0  0
   37.9980   22.7510   34.6950 C   0  0  0  0  0  0  0  0  0  0  0  0
   38.8870   21.9740   35.3780 N   0  0  0  0  0  0  0  0  0  0  0  0
   39.5820   22.4360   36.4410 C   0  0  0  0  0  0  0  0  0  0  0  0
   39.3970   23.6790   36.8340 N   0  0  0  0  0  0  0  0  0  0  0  0
   41.8370   22.1040   37.1090 C   0  0  0  0  0  0  0  0  0  0  0  0
   42.2590   23.1800   36.5920 O   0  0  0  0  0  0  0  0  0  0  0  0
   40.4990   21.5810   37.1200 N   0  0  0  0  0  0  0  0  0  0  0  0
   37.0970   24.6430   34.5510 H   0  0  0  0  0  0  0  0  0  0  0  0
   37.4410   22.3760   33.8400 H   0  0  0  0  0  0  0  0  0  0  0  0
   42.6500   21.5670   37.5850 H   0  0  0  0  0  0  0  0  0  0  0  0
   40.2850   20.6560   37.5960 H   0  0  0  0  0  0  0  0  0  0  0  0
   37.7360   26.9650   32.0250 C   0  0  0  0  0  2  0  0  0  0  0  0
   37.8710   28.1370   31.1720 C   0  0  0  0  0  0  0  0  0  0  0  0
   37.0350   29.1610   31.2330 C   0  0  0  0  0  0  0  0  0  0  0  0
   37.2590   30.2620   30.3290 N   0  0  0  0  0  0  0  0  0  0  0  0
   37.3950   31.6900   30.1810 C   0  0  0  0  0  0  0  0  0  0  0  0
   36.9610   32.7000   30.8210 O   0  0  0  0  0  0  0  0  0  0  0  0
   38.2510   31.3910   28.9750 C   0  0  0  0  0  3  0  0  0  0  0  0
   38.0890   32.0960   28.1420 H   0  0  0  0  0  0  0  0  0  0  0  0
   37.4610   30.0900   28.8840 C   0  0  1  0  0  3  0  0  0  0  0  0
   38.4680   28.6230   28.5860 S   0  0  0  0  0  0  0  0  0  0  0  0
   39.0130   28.0850   30.2580 C   0  0  0  0  0  3  0  0  0  0  0  0
   39.4160   27.0890   30.1270 H   0  0  0  0  0  0  0  0  0  0  0  0
   35.8780   29.2470   32.1590 C   0  0  0  0  0  0  0  0  0  0  0  0
   34.7460   28.7460   32.2440 O   0  0  0  0  0  0  0  0  0  0  0  0
   35.8070   30.0180   33.2870 O   0  0  0  0  0  0  0  0  0  0  0  0
   35.6660   29.6090   34.1940 H   0  0  0  0  0  0  0  0  0  0  0  0
  2  1  2  0  0  0  0
  2  3  1  0  0  0  0
  3  7  1  1  0  0  0
  3 12  1  0  0  0  0
  4  9  1  0  0  0  0
  4  3  1  0  0  0  0
  5 11  1  0  0  0  0
  5  4  1  0  0  0  0
  6  5  1  0  0  0  0
  6  2  1  0  0  0  0
  8  4  1  0  0  0  0
 10  5  1  0  0  0  0
 13 12  1  0  0  0  0
 13 18  1  0  0  0  0
 14 13  2  0  0  0  0
 15 14  1  0  0  0  0
 15 16  2  0  0  0  0
 16 17  1  0  0  0  0
 17 18  2  0  0  0  0
 17 21  1  0  0  0  0
 19 21  1  0  0  0  0
 19 24  1  0  0  0  0
 20 19  2  0  0  0  0
 21 25  1  0  0  0  0
 22 14  1  0  0  0  0
 23 15  1  0  0  0  0
 26  6  1  0  0  0  0
 27 28  2  0  0  0  0
 27 26  1  0  0  0  0
 28 38  1  0  0  0  0
 29 28  1  0  0  0  0
 30 29  1  0  0  0  0
 30 31  2  0  0  0  0
 32 30  1  0  0  0  0
 33 32  1  0  0  0  0
 34 35  1  1  0  0  0
 34 32  1  0  0  0  0
 34 29  1  0  0  0  0
 35 36  1  0  0  0  0
 36 27  1  0  0  0  0
 37 36  1  0  0  0  0
 38 39  2  0  0  0  0
 38 40  1  0  0  0  0
 40 41  1  0  0  0  0
M  END
>  <minimizedAffinity>
-5.7802496

$$$$

 OpenBabel03272506373D

 41 44  0  0  1  0  0  0  0  0999 V2000
   39.5450   27.0280   31.2570 O   0  0  0  0  0  0  0  0  0  0  0  0
   38.5450   27.0230   32.0020 C   0  0  0  0  0  0  0  0  0  0  0  0
   37.4650   28.0060   31.8640 C   0  0  2  0  0  0  0  0  0  0  0  0
   36.4270   27.4650   32.8610 C   0  0  0  0  0  0  0  0  0  0  0  0
   37.2910   26.7470   33.8720 C   0  0  0  0  0  0  0  0  0  0  0  0
   38.3260   26.0880   33.0570 N   0  0  0  0  0  0  0  0  0  0  0  0
   37.7930   29.0140   32.1890 H   0  0  0  0  0  0  0  0  0  0  0  0
   35.6670   26.8410   32.3830 H   0  0  0  0  0  0  0  0  0  0  0  0
   35.9840   28.3410   33.3840 H   0  0  0  0  0  0  0  0  0  0  0  0
   36.7300   26.0030   34.4490 H   0  0  0  0  0  0  0  0  0  0  0  0
   37.8030   27.4730   34.5040 H   0  0  0  0  0  0  0  0  0  0  0  0
   36.8850   28.0320   30.5660 O   0  0  0  0  0  0  0  0  0  0  0  0
   37.0710   29.1590   29.7890 C   0  0  0  0  0  0  0  0  0  0  0  0
   36.5390   30.3210   30.3570 C   0  0  0  0  0  0  0  0  0  0  0  0
   36.6660   31.5230   29.6620 C   0  0  0  0  0  0  0  0  0  0  0  0
   37.3070   31.5030   28.4590 N   0  0  0  0  0  0  0  0  0  0  0  0
   37.8140   30.3660   27.9300 C   0  0  0  0  0  0  0  0  0  0  0  0
   37.6860   29.2390   28.5970 N   0  0  0  0  0  0  0  0  0  0  0  0
   39.8340   29.9460   26.7550 C   0  0  0  0  0  0  0  0  0  0  0  0
   40.4660   29.5410   27.7740 O   0  0  0  0  0  0  0  0  0  0  0  0
   38.4750   30.4010   26.6670 N   0  0  0  0  0  0  0  0  0  0  0  0
   36.0230   30.3860   31.3080 H   0  0  0  0  0  0  0  0  0  0  0  0
   36.2600   32.4390   30.0850 H   0  0  0  0  0  0  0  0  0  0  0  0
   40.4700   29.9130   25.8760 H   0  0  0  0  0  0  0  0  0  0  0  0
   38.0690   30.7150   25.7370 H   0  0  0  0  0  0  0  0  0  0  0  0
   38.9570   24.8000   33.2820 C   0  0  0  0  0  2  0  0  0  0  0  0
   38.0550   23.6580   33.2350 C   0  0  0  0  0  0  0  0  0  0  0  0
   37.9380   22.8020   34.2380 C   0  0  0  0  0  0  0  0  0  0  0  0
   37.0230   21.6990   34.0730 N   0  0  0  0  0  0  0  0  0  0  0  0
   35.9310   20.9460   34.6390 C   0  0  0  0  0  0  0  0  0  0  0  0
   35.5280   20.7080   35.8210 O   0  0  0  0  0  0  0  0  0  0  0  0
   35.5450   20.6150   33.2190 C   0  0  0  0  0  3  0  0  0  0  0  0
   35.1810   19.5810   33.0970 H   0  0  0  0  0  0  0  0  0  0  0  0
   37.0200   20.8240   32.8920 C   0  0  1  0  0  3  0  0  0  0  0  0
   37.3260   21.8080   31.4110 S   0  0  0  0  0  0  0  0  0  0  0  0
   37.2860   23.5510   31.9940 C   0  0  0  0  0  3  0  0  0  0  0  0
   37.6940   24.1400   31.1820 H   0  0  0  0  0  0  0  0  0  0  0  0
   38.6930   22.8930   35.5120 C   0  0  0  0  0  0  0  0  0  0  0  0
   39.2600   23.7820   36.1680 O   0  0  0  0  0  0  0  0  0  0  0  0
   38.9640   21.8560   36.3620 O   0  0  0  0  0  0  0  0  0  0  0  0
   38.6390   21.8590   37.3130 H   0  0  0  0  0  0  0  0  0  0  0  0
  1  2  2  0  0  0  0
  2  6  1  0  0  0  0
  3  2  1  0  0  0  0
  3  7  1  1  0  0  0
  3  4  1  0  0  0  0
  4  9  1  0  0  0  0
  4  5  1  0  0  0  0
  5 10  1  0  0  0  0
  5 11  1  0  0  0  0
  6 26  1  0  0  0  0
  6  5  1  0  0  0  0
  8  4  1  0  0  0  0
 12  3  1  0  0  0  0
 13 14  1  0  0  0  0
 13 12  1  0  0  0  0
 14 22  1  0  0  0  0
 15 23  1  0  0  0  0
 15 14  2  0  0  0  0
 16 15  1  0  0  0  0
 17 16  2  0  0  0  0
 17 18  1  0  0  0  0
 18 13  2  0  0  0  0
 19 20  2  0  0  0  0
 21 19  1  0  0  0  0
 21 17  1  0  0  0  0
 24 19  1  0  0  0  0
 25 21  1  0  0  0  0
 27 26  1  0  0  0  0
 27 28  2  0  0  0  0
 28 38  1  0  0  0  0
 29 28  1  0  0  0  0
 29 30  1  0  0  0  0
 30 31  2  0  0  0  0
 32 30  1  0  0  0  0
 33 32  1  0  0  0  0
 34 35  1  6  0  0  0
 34 32  1  0  0  0  0
 34 29  1  0  0  0  0
 35 36  1  0  0  0  0
 36 27  1  0  0  0  0
 37 36  1  0  0  0  0
 38 39  2  0  0  0  0
 38 40  1  0  0  0  0
 40 41  1  0  0  0  0
M  END
>  <minimizedAffinity>
-5.74660301

$$$$

 OpenBabel03272506373D

 41 44  0  0  1  0  0  0  0  0999 V2000
   36.8890   25.9390   32.6740 O   0  0  0  0  0  0  0  0  0  0  0  0
   37.4650   26.3690   33.6940 C   0  0  0  0  0  0  0  0  0  0  0  0
   37.3420   27.7660   34.1270 C   0  0  2  0  0  0  0  0  0  0  0  0
   38.0640   27.7310   35.4850 C   0  0  0  0  0  0  0  0  0  0  0  0
   39.0500   26.6010   35.3000 C   0  0  0  0  0  0  0  0  0  0  0  0
   38.2950   25.5840   34.5480 N   0  0  0  0  0  0  0  0  0  0  0  0
   37.8840   28.4490   33.4430 H   0  0  0  0  0  0  0  0  0  0  0  0
   37.3750   27.6050   36.3250 H   0  0  0  0  0  0  0  0  0  0  0  0
   38.6600   28.6660   35.5650 H   0  0  0  0  0  0  0  0  0  0  0  0
   39.3980   26.1890   36.2540 H   0  0  0  0  0  0  0  0  0  0  0  0
   39.8690   26.9250   34.6570 H   0  0  0  0  0  0  0  0  0  0  0  0
   35.9970   28.1790   34.3330 O   0  0  0  0  0  0  0  0  0  0  0  0
   35.5890   29.3750   33.7750 C   0  0  0  0  0  0  0  0  0  0  0  0
   35.2270   30.3380   34.7230 C   0  0  0  0  0  0  0  0  0  0  0  0
   34.7980   31.5870   34.2760 C   0  0  0  0  0  0  0  0  0  0  0  0
   34.7520   31.8060   32.9310 N   0  0  0  0  0  0  0  0  0  0  0  0
   35.1070   30.8590   32.0330 C   0  0  0  0  0  0  0  0  0  0  0  0
   35.5110   29.6840   32.4690 N   0  0  0  0  0  0  0  0  0  0  0  0
   36.3170   31.0020   29.9950 C   0  0  0  0  0  0  0  0  0  0  0  0
   37.4270   30.6760   30.5090 O   0  0  0  0  0  0  0  0  0  0  0  0
   35.0400   31.1400   30.6370 N   0  0  0  0  0  0  0  0  0  0  0  0
   35.2470   30.2110   35.7980 H   0  0  0  0  0  0  0  0  0  0  0  0
   34.5120   32.3510   34.9960 H   0  0  0  0  0  0  0  0  0  0  0  0
   36.4300   31.1830   28.9310 H   0  0  0  0  0  0  0  0  0  0  0  0
   34.1820   31.4230   30.0780 H   0  0  0  0  0  0  0  0  0  0  0  0
   38.3830   24.1390   34.6610 C   0  0  0  0  0  2  0  0  0  0  0  0
   39.6950   23.6310   35.0310 C   0  0  0  0  0  0  0  0  0  0  0  0
   39.9690   23.1870   36.2480 C   0  0  0  0  0  0  0  0  0  0  0  0
   41.3100   22.7190   36.5040 N   0  0  0  0  0  0  0  0  0  0  0  0
   42.1360   21.6630   37.0330 C   0  0  0  0  0  0  0  0  0  0  0  0
   41.9790   20.7670   37.9220 O   0  0  0  0  0  0  0  0  0  0  0  0
   43.1940   22.1310   36.0660 C   0  0  0  0  0  3  0  0  0  0  0  0
   44.2140   22.0900   36.4830 H   0  0  0  0  0  0  0  0  0  0  0  0
   42.5110   23.4910   36.1580 C   0  0  1  0  0  3  0  0  0  0  0  0
   42.2650   24.3140   34.5710 S   0  0  0  0  0  0  0  0  0  0  0  0
   40.6730   23.6440   33.9420 C   0  0  0  0  0  3  0  0  0  0  0  0
   40.3910   24.2860   33.1170 H   0  0  0  0  0  0  0  0  0  0  0  0
   38.9950   23.1480   37.3670 C   0  0  0  0  0  0  0  0  0  0  0  0
   38.8660   23.6920   38.4750 O   0  0  0  0  0  0  0  0  0  0  0  0
   37.8600   22.3860   37.4190 O   0  0  0  0  0  0  0  0  0  0  0  0
   36.9510   22.8050   37.5070 H   0  0  0  0  0  0  0  0  0  0  0  0
  1  2  2  0  0  0  0
  2  3  1  0  0  0  0
  2  6  1  0  0  0  0
  3  7  1  6  0  0  0
  3 12  1  0  0  0  0
  3  4  1  0  0  0  0
  4  9  1  0  0  0  0
  4  8  1  0  0  0  0
  5  4  1  0  0  0  0
  5 10  1  0  0  0  0
  6 26  1  0  0  0  0
  6  5  1  0  0  0  0
 11  5  1  0  0  0  0
 13 12  1  0  0  0  0
 13 14  1  0  0  0  0
 14 22  1  0  0  0  0
 15 14  2  0  0  0  0
 15 23  1  0  0  0  0
 16 15  1  0  0  0  0
 17 18  1  0  0  0  0
 17 16  2  0  0  0  0
 18 13  2  0  0  0  0
 19 20  2  0  0  0  0
 19 21  1  0  0  0  0
 21 17  1  0  0  0  0
 24 19  1  0  0  0  0
 25 21  1  0  0  0  0
 26 27  1  0  0  0  0
 27 28  2  0  0  0  0
 28 29  1  0  0  0  0
 28 38  1  0  0  0  0
 29 30  1  0  0  0  0
 30 31  2  0  0  0  0
 32 34  1  0  0  0  0
 32 33  1  0  0  0  0
 32 30  1  0  0  0  0
 34 35  1  6  0  0  0
 34 29  1  0  0  0  0
 36 35  1  0  0  0  0
 36 27  1  0  0  0  0
 37 36  1  0  0  0  0
 38 40  1  0  0  0  0
 38 39  2  0  0  0  0
 40 41  1  0  0  0  0
M  END
>  <minimizedAffinity>
-5.7375164

$$$$
