
 OpenBabel03262522153D

 52 56  0  0  1  0  0  0  0  0999 V2000
   39.1000   29.7940   42.7140 C   0  0  1  0  0  0  0  0  0  0  0  0
   39.1300   31.2740   42.3720 C   0  0  0  0  0  0  0  0  0  0  0  0
   40.0900   31.8030   43.4000 C   0  0  2  0  0  0  0  0  0  0  0  0
   40.3680   30.7880   44.2850 O   0  0  0  0  0  0  0  0  0  0  0  0
   39.3410   29.8530   44.2030 C   0  0  0  0  0  0  0  0  0  0  0  0
   39.8920   29.2520   42.1830 H   0  0  0  0  0  0  0  0  0  0  0  0
   38.1160   31.7290   42.4370 H   0  0  0  0  0  0  0  0  0  0  0  0
   39.4860   31.3520   41.3310 H   0  0  0  0  0  0  0  0  0  0  0  0
   40.9890   32.1410   42.8340 H   0  0  0  0  0  0  0  0  0  0  0  0
   38.4350   30.2090   44.6950 H   0  0  0  0  0  0  0  0  0  0  0  0
   39.7020   28.8740   44.5810 H   0  0  0  0  0  0  0  0  0  0  0  0
   39.5460   33.0350   44.0850 C   0  0  0  0  0  0  0  0  0  0  0  0
   38.4890   32.8720   44.3000 H   0  0  0  0  0  0  0  0  0  0  0  0
   39.6060   33.9320   43.4110 H   0  0  0  0  0  0  0  0  0  0  0  0
   40.5670   33.3490   45.5530 S   0  0  0  0  0  0  0  0  0  0  0  0
   37.7180   31.8370   47.8670 C   0  0  0  0  0  0  0  0  0  0  0  0
   37.8440   32.5650   49.0710 C   0  0  0  0  0  0  0  0  0  0  0  0
   38.8000   33.5360   49.2100 C   0  0  0  0  0  0  0  0  0  0  0  0
   39.6160   33.7560   48.1260 C   0  0  0  0  0  0  0  0  0  0  0  0
   39.4880   33.0510   46.9720 C   0  0  0  0  0  0  0  0  0  0  0  0
   38.5420   32.0840   46.8200 N   0  0  0  0  0  0  0  0  0  0  0  0
   37.1790   32.3600   49.9030 H   0  0  0  0  0  0  0  0  0  0  0  0
   38.9590   34.1280   50.0820 H   0  0  0  0  0  0  0  0  0  0  0  0
   40.4030   34.5060   48.1410 H   0  0  0  0  0  0  0  0  0  0  0  0
   36.6940   30.8390   47.8010 C   0  0  0  0  0  0  0  0  0  0  0  0
   36.2810   30.4220   46.7120 O   0  0  0  0  0  0  0  0  0  0  0  0
   36.9150   29.6250   49.9290 C   0  0  0  0  0  0  0  0  0  0  0  0
   36.0780   30.2550   49.0020 C   0  0  0  0  0  0  0  0  0  0  0  0
   34.7070   30.3030   49.2470 C   0  0  0  0  0  0  0  0  0  0  0  0
   34.2230   29.7300   50.3960 N   0  0  0  0  0  0  0  0  0  0  0  0
   35.0500   29.1320   51.2690 C   0  0  0  0  0  0  0  0  0  0  0  0
   36.3690   29.0780   51.0440 N   0  0  0  0  0  0  0  0  0  0  0  0
   37.9870   29.5520   49.7970 H   0  0  0  0  0  0  0  0  0  0  0  0
   34.0660   30.7950   48.5200 H   0  0  0  0  0  0  0  0  0  0  0  0
   34.6940   28.6730   52.1810 H   0  0  0  0  0  0  0  0  0  0  0  0
   37.8640   29.2340   42.4030 O   0  0  0  0  0  0  0  0  0  0  0  0
   38.0350   28.4300   41.2440 C   0  0  0  0  0  2  0  0  0  0  0  0
   37.5850   29.1690   40.0580 C   0  0  0  0  0  0  0  0  0  0  0  0
   38.3960   29.4420   39.0500 C   0  0  0  0  0  0  0  0  0  0  0  0
   37.8520   30.1840   37.9390 N   0  0  0  0  0  0  0  0  0  0  0  0
   38.1040   31.1120   36.9120 C   0  0  0  0  0  0  0  0  0  0  0  0
   39.0780   31.5220   36.2220 O   0  0  0  0  0  0  0  0  0  0  0  0
   36.6880   31.5070   36.8910 C   0  0  0  0  0  3  0  0  0  0  0  0
   36.4240   32.3370   37.6050 H   0  0  0  0  0  0  0  0  0  0  0  0
   36.4800   30.1290   37.4780 C   0  0  2  0  0  3  0  0  0  0  0  0
   35.3200   30.2190   38.8620 S   0  0  0  0  0  0  0  0  0  0  0  0
   36.1780   29.4970   40.2560 C   0  0  0  0  0  3  0  0  0  0  0  0
   35.6310   28.5300   40.4780 H   0  0  0  0  0  0  0  0  0  0  0  0
   39.8100   29.0680   38.9590 C   0  0  0  0  0  0  0  0  0  0  0  0
   40.6950   28.7890   39.7700 O   0  0  0  0  0  0  0  0  0  0  0  0
   40.4670   28.9580   37.7580 O   0  0  0  0  0  0  0  0  0  0  0  0
   41.0810   28.1860   37.5310 H   0  0  0  0  0  0  0  0  0  0  0  0
  1  6  1  6  0  0  0
  1  5  1  0  0  0  0
  2  7  1  0  0  0  0
  2  1  1  0  0  0  0
  2  3  1  0  0  0  0
  3  9  1  6  0  0  0
  3 12  1  0  0  0  0
  3  4  1  0  0  0  0
  5  4  1  0  0  0  0
  5 11  1  0  0  0  0
  5 10  1  0  0  0  0
  8  2  1  0  0  0  0
 12 13  1  0  0  0  0
 12 15  1  0  0  0  0
 14 12  1  0  0  0  0
 15 20  1  0  0  0  0
 16 17  1  0  0  0  0
 17 18  2  0  0  0  0
 17 22  1  0  0  0  0
 18 23  1  0  0  0  0
 19 24  1  0  0  0  0
 19 18  1  0  0  0  0
 20 19  2  0  0  0  0
 21 20  1  0  0  0  0
 21 16  2  0  0  0  0
 25 16  1  0  0  0  0
 25 28  1  0  0  0  0
 26 25  2  0  0  0  0
 27 32  1  0  0  0  0
 28 29  1  0  0  0  0
 28 27  2  0  0  0  0
 29 30  2  0  0  0  0
 30 31  1  0  0  0  0
 31 35  1  0  0  0  0
 32 31  2  0  0  0  0
 33 27  1  0  0  0  0
 34 29  1  0  0  0  0
 36  1  1  0  0  0  0
 37 36  1  0  0  0  0
 38 47  1  0  0  0  0
 38 37  1  0  0  0  0
 39 38  2  0  0  0  0
 40 39  1  0  0  0  0
 41 40  1  0  0  0  0
 42 41  2  0  0  0  0
 43 41  1  0  0  0  0
 43 44  1  0  0  0  0
 45 43  1  6  0  0  0
 45 40  1  0  0  0  0
 45 46  1  0  0  0  0
 46 47  1  0  0  0  0
 47 48  1  0  0  0  0
 49 39  1  0  0  0  0
 49 50  2  0  0  0  0
 51 49  1  0  0  0  0
 52 51  1  0  0  0  0
M  END
>  <minimizedAffinity>
-4.83336163

>  <minimizedRMSD>
2.20598459

$$$$
