
 OpenBabel03262522153D

 52 56  0  0  1  0  0  0  0  0999 V2000
   38.6210   30.1720   42.1180 C   0  0  1  0  0  0  0  0  0  0  0  0
   38.9180   31.6540   41.9670 C   0  0  0  0  0  0  0  0  0  0  0  0
   39.9010   31.8800   43.0820 C   0  0  2  0  0  0  0  0  0  0  0  0
   39.9570   30.7340   43.8380 O   0  0  0  0  0  0  0  0  0  0  0  0
   38.7920   30.0090   43.6080 C   0  0  0  0  0  0  0  0  0  0  0  0
   39.3350   29.5670   41.5460 H   0  0  0  0  0  0  0  0  0  0  0  0
   37.9940   32.2690   42.0600 H   0  0  0  0  0  0  0  0  0  0  0  0
   39.3350   31.7930   40.9550 H   0  0  0  0  0  0  0  0  0  0  0  0
   40.8710   32.1220   42.5900 H   0  0  0  0  0  0  0  0  0  0  0  0
   37.9360   30.4560   44.1150 H   0  0  0  0  0  0  0  0  0  0  0  0
   38.9620   28.9440   43.8690 H   0  0  0  0  0  0  0  0  0  0  0  0
   39.5390   33.0970   43.9020 C   0  0  0  0  0  0  0  0  0  0  0  0
   38.4760   33.0470   44.1420 H   0  0  0  0  0  0  0  0  0  0  0  0
   39.6960   34.0410   43.3130 H   0  0  0  0  0  0  0  0  0  0  0  0
   40.6320   33.1330   45.3510 S   0  0  0  0  0  0  0  0  0  0  0  0
   37.7560   31.7790   47.7280 C   0  0  0  0  0  0  0  0  0  0  0  0
   37.9060   32.5470   48.9050 C   0  0  0  0  0  0  0  0  0  0  0  0
   38.8870   33.4970   49.0040 C   0  0  0  0  0  0  0  0  0  0  0  0
   39.7040   33.6570   47.9110 C   0  0  0  0  0  0  0  0  0  0  0  0
   39.5520   32.9140   46.7840 C   0  0  0  0  0  0  0  0  0  0  0  0
   38.5820   31.9660   46.6700 N   0  0  0  0  0  0  0  0  0  0  0  0
   37.2390   32.3880   49.7460 H   0  0  0  0  0  0  0  0  0  0  0  0
   39.0650   34.1160   49.8540 H   0  0  0  0  0  0  0  0  0  0  0  0
   40.5090   34.3870   47.8960 H   0  0  0  0  0  0  0  0  0  0  0  0
   36.7080   30.8050   47.7030 C   0  0  0  0  0  0  0  0  0  0  0  0
   36.2450   30.3970   46.6300 O   0  0  0  0  0  0  0  0  0  0  0  0
   36.9830   29.6200   49.8400 C   0  0  0  0  0  0  0  0  0  0  0  0
   36.1220   30.2370   48.9260 C   0  0  0  0  0  0  0  0  0  0  0  0
   34.7580   30.2890   49.2060 C   0  0  0  0  0  0  0  0  0  0  0  0
   34.3040   29.7320   50.3740 N   0  0  0  0  0  0  0  0  0  0  0  0
   35.1530   29.1450   51.2340 C   0  0  0  0  0  0  0  0  0  0  0  0
   36.4660   29.0880   50.9760 N   0  0  0  0  0  0  0  0  0  0  0  0
   38.0510   29.5460   49.6810 H   0  0  0  0  0  0  0  0  0  0  0  0
   34.0990   30.7710   48.4880 H   0  0  0  0  0  0  0  0  0  0  0  0
   34.8210   28.6980   52.1600 H   0  0  0  0  0  0  0  0  0  0  0  0
   37.3240   29.8770   41.7020 O   0  0  0  0  0  0  0  0  0  0  0  0
   37.1450   28.4720   41.8170 C   0  0  0  0  0  2  0  0  0  0  0  0
   37.6810   27.8050   40.6250 C   0  0  0  0  0  0  0  0  0  0  0  0
   38.6020   26.8590   40.7050 C   0  0  0  0  0  0  0  0  0  0  0  0
   39.0670   26.2780   39.4680 N   0  0  0  0  0  0  0  0  0  0  0  0
   40.1450   25.6910   38.7800 C   0  0  0  0  0  0  0  0  0  0  0  0
   41.2020   25.0520   39.0420 O   0  0  0  0  0  0  0  0  0  0  0  0
   39.5800   26.1120   37.4910 C   0  0  0  0  0  3  0  0  0  0  0  0
   39.8970   27.1390   37.1530 H   0  0  0  0  0  0  0  0  0  0  0  0
   38.2800   26.1150   38.2630 C   0  0  2  0  0  3  0  0  0  0  0  0
   37.3420   27.6120   37.8850 S   0  0  0  0  0  0  0  0  0  0  0  0
   37.0240   28.3920   39.4640 C   0  0  0  0  0  3  0  0  0  0  0  0
   35.9070   28.3030   39.6240 H   0  0  0  0  0  0  0  0  0  0  0  0
   39.2060   26.3470   41.9370 C   0  0  0  0  0  0  0  0  0  0  0  0
   39.7610   26.8540   42.9130 O   0  0  0  0  0  0  0  0  0  0  0  0
   39.2530   25.0070   42.2350 O   0  0  0  0  0  0  0  0  0  0  0  0
   39.0240   24.6360   43.1470 H   0  0  0  0  0  0  0  0  0  0  0  0
  1  6  1  6  0  0  0
  1  5  1  0  0  0  0
  2  7  1  0  0  0  0
  2  1  1  0  0  0  0
  2  3  1  0  0  0  0
  3  9  1  6  0  0  0
  3  4  1  0  0  0  0
  3 12  1  0  0  0  0
  5  4  1  0  0  0  0
  5 11  1  0  0  0  0
  5 10  1  0  0  0  0
  8  2  1  0  0  0  0
 12 13  1  0  0  0  0
 12 15  1  0  0  0  0
 14 12  1  0  0  0  0
 15 20  1  0  0  0  0
 16 17  1  0  0  0  0
 17 18  2  0  0  0  0
 17 22  1  0  0  0  0
 18 23  1  0  0  0  0
 19 18  1  0  0  0  0
 20 19  2  0  0  0  0
 21 20  1  0  0  0  0
 21 16  2  0  0  0  0
 24 19  1  0  0  0  0
 25 16  1  0  0  0  0
 25 28  1  0  0  0  0
 26 25  2  0  0  0  0
 27 32  1  0  0  0  0
 28 29  1  0  0  0  0
 28 27  2  0  0  0  0
 29 30  2  0  0  0  0
 30 31  1  0  0  0  0
 31 35  1  0  0  0  0
 32 31  2  0  0  0  0
 33 27  1  0  0  0  0
 34 29  1  0  0  0  0
 36 37  1  0  0  0  0
 36  1  1  0  0  0  0
 38 39  2  0  0  0  0
 38 37  1  0  0  0  0
 39 49  1  0  0  0  0
 40 39  1  0  0  0  0
 41 42  2  0  0  0  0
 41 40  1  0  0  0  0
 43 41  1  0  0  0  0
 44 43  1  0  0  0  0
 45 43  1  6  0  0  0
 45 40  1  0  0  0  0
 46 45  1  0  0  0  0
 46 47  1  0  0  0  0
 47 48  1  0  0  0  0
 47 38  1  0  0  0  0
 49 51  1  0  0  0  0
 49 50  2  0  0  0  0
 51 52  1  0  0  0  0
M  END
>  <minimizedAffinity>
-5.34322977

>  <minimizedRMSD>
1.52735901

$$$$
