
 OpenBabel03262522153D

 52 56  0  0  1  0  0  0  0  0999 V2000
   38.7110   30.1800   42.4600 C   0  0  1  0  0  0  0  0  0  0  0  0
   38.8830   31.6740   42.2520 C   0  0  0  0  0  0  0  0  0  0  0  0
   39.9710   31.9950   43.2380 C   0  0  2  0  0  0  0  0  0  0  0  0
   40.1970   30.8730   44.0010 O   0  0  0  0  0  0  0  0  0  0  0  0
   39.0680   30.0650   43.9220 C   0  0  0  0  0  0  0  0  0  0  0  0
   39.3940   29.6120   41.8170 H   0  0  0  0  0  0  0  0  0  0  0  0
   37.9340   32.2260   42.4440 H   0  0  0  0  0  0  0  0  0  0  0  0
   39.1660   31.8180   41.1960 H   0  0  0  0  0  0  0  0  0  0  0  0
   40.8570   32.2900   42.6310 H   0  0  0  0  0  0  0  0  0  0  0  0
   38.2470   30.4640   44.5200 H   0  0  0  0  0  0  0  0  0  0  0  0
   39.3420   29.0210   44.1780 H   0  0  0  0  0  0  0  0  0  0  0  0
   39.6230   33.2030   44.0760 C   0  0  0  0  0  0  0  0  0  0  0  0
   38.5520   33.1810   44.2860 H   0  0  0  0  0  0  0  0  0  0  0  0
   39.8250   34.1550   43.5150 H   0  0  0  0  0  0  0  0  0  0  0  0
   40.6740   33.1720   45.5560 S   0  0  0  0  0  0  0  0  0  0  0  0
   37.7290   31.8120   47.8430 C   0  0  0  0  0  0  0  0  0  0  0  0
   37.8320   32.5910   49.0180 C   0  0  0  0  0  0  0  0  0  0  0  0
   38.8000   33.5510   49.1440 C   0  0  0  0  0  0  0  0  0  0  0  0
   39.6530   33.7090   48.0780 C   0  0  0  0  0  0  0  0  0  0  0  0
   39.5470   32.9550   46.9530 C   0  0  0  0  0  0  0  0  0  0  0  0
   38.5900   31.9980   46.8130 N   0  0  0  0  0  0  0  0  0  0  0  0
   37.1370   32.4330   49.8370 H   0  0  0  0  0  0  0  0  0  0  0  0
   38.9430   34.1780   49.9930 H   0  0  0  0  0  0  0  0  0  0  0  0
   40.4520   34.4460   48.0850 H   0  0  0  0  0  0  0  0  0  0  0  0
   36.6900   30.8290   47.7900 C   0  0  0  0  0  0  0  0  0  0  0  0
   36.2560   30.4200   46.7060 O   0  0  0  0  0  0  0  0  0  0  0  0
   36.9260   29.6260   49.9220 C   0  0  0  0  0  0  0  0  0  0  0  0
   36.0820   30.2510   48.9970 C   0  0  0  0  0  0  0  0  0  0  0  0
   34.7130   30.2990   49.2510 C   0  0  0  0  0  0  0  0  0  0  0  0
   34.2370   29.7320   50.4060 N   0  0  0  0  0  0  0  0  0  0  0  0
   35.0700   29.1390   51.2770 C   0  0  0  0  0  0  0  0  0  0  0  0
   36.3870   29.0850   51.0440 N   0  0  0  0  0  0  0  0  0  0  0  0
   37.9970   29.5540   49.7840 H   0  0  0  0  0  0  0  0  0  0  0  0
   34.0670   30.7870   48.5250 H   0  0  0  0  0  0  0  0  0  0  0  0
   34.7200   28.6850   52.1930 H   0  0  0  0  0  0  0  0  0  0  0  0
   37.3990   29.7870   42.2070 O   0  0  0  0  0  0  0  0  0  0  0  0
   37.4460   28.5190   41.5660 C   0  0  0  0  0  2  0  0  0  0  0  0
   37.8490   28.6880   40.1640 C   0  0  0  0  0  0  0  0  0  0  0  0
   38.9460   28.1330   39.6770 C   0  0  0  0  0  0  0  0  0  0  0  0
   39.2530   28.3720   38.2880 N   0  0  0  0  0  0  0  0  0  0  0  0
   40.2620   28.5260   37.3190 C   0  0  0  0  0  0  0  0  0  0  0  0
   41.4610   28.1800   37.1360 O   0  0  0  0  0  0  0  0  0  0  0  0
   39.3600   29.3230   36.4750 C   0  0  0  0  0  3  0  0  0  0  0  0
   39.3710   30.4280   36.6910 H   0  0  0  0  0  0  0  0  0  0  0  0
   38.2830   28.5800   37.2330 C   0  0  2  0  0  3  0  0  0  0  0  0
   36.9870   29.7290   37.7480 S   0  0  0  0  0  0  0  0  0  0  0  0
   36.8520   29.5360   39.5230 C   0  0  0  0  0  3  0  0  0  0  0  0
   35.8380   29.0600   39.6950 H   0  0  0  0  0  0  0  0  0  0  0  0
   39.8910   27.2990   40.4230 C   0  0  0  0  0  0  0  0  0  0  0  0
   40.1830   27.1570   41.6110 O   0  0  0  0  0  0  0  0  0  0  0  0
   40.7320   26.4050   39.8060 O   0  0  0  0  0  0  0  0  0  0  0  0
   40.8810   25.4620   40.1420 H   0  0  0  0  0  0  0  0  0  0  0  0
  1  6  1  6  0  0  0
  1  5  1  0  0  0  0
  2  7  1  0  0  0  0
  2  1  1  0  0  0  0
  2  3  1  0  0  0  0
  3  9  1  6  0  0  0
  3  4  1  0  0  0  0
  3 12  1  0  0  0  0
  5  4  1  0  0  0  0
  5 11  1  0  0  0  0
  5 10  1  0  0  0  0
  8  2  1  0  0  0  0
 12 13  1  0  0  0  0
 12 15  1  0  0  0  0
 14 12  1  0  0  0  0
 15 20  1  0  0  0  0
 16 17  1  0  0  0  0
 17 18  2  0  0  0  0
 17 22  1  0  0  0  0
 18 23  1  0  0  0  0
 19 24  1  0  0  0  0
 19 18  1  0  0  0  0
 20 19  2  0  0  0  0
 21 20  1  0  0  0  0
 21 16  2  0  0  0  0
 25 16  1  0  0  0  0
 25 28  1  0  0  0  0
 26 25  2  0  0  0  0
 27 32  1  0  0  0  0
 28 29  1  0  0  0  0
 28 27  2  0  0  0  0
 29 30  2  0  0  0  0
 30 31  1  0  0  0  0
 31 35  1  0  0  0  0
 32 31  2  0  0  0  0
 33 27  1  0  0  0  0
 34 29  1  0  0  0  0
 36  1  1  0  0  0  0
 37 36  1  0  0  0  0
 38 37  1  0  0  0  0
 39 38  2  0  0  0  0
 39 49  1  0  0  0  0
 40 39  1  0  0  0  0
 41 40  1  0  0  0  0
 42 41  2  0  0  0  0
 43 44  1  0  0  0  0
 43 41  1  0  0  0  0
 45 43  1  6  0  0  0
 45 46  1  0  0  0  0
 45 40  1  0  0  0  0
 46 47  1  0  0  0  0
 47 48  1  0  0  0  0
 47 38  1  0  0  0  0
 49 50  2  0  0  0  0
 51 52  1  0  0  0  0
 51 49  1  0  0  0  0
M  END
>  <minimizedAffinity>
-5.08981466

>  <minimizedRMSD>
1.65370297

$$$$
