
 OpenBabel03262522143D

 52 56  0  0  1  0  0  0  0  0999 V2000
   38.8740   29.7350   42.4170 C   0  0  1  0  0  0  0  0  0  0  0  0
   38.9270   31.2230   42.1160 C   0  0  0  0  0  0  0  0  0  0  0  0
   40.0190   31.6800   43.0410 C   0  0  2  0  0  0  0  0  0  0  0  0
   40.3530   30.6260   43.8590 O   0  0  0  0  0  0  0  0  0  0  0  0
   39.2860   29.7350   43.8690 C   0  0  0  0  0  0  0  0  0  0  0  0
   39.5760   29.1810   41.7830 H   0  0  0  0  0  0  0  0  0  0  0  0
   37.9470   31.7150   42.3110 H   0  0  0  0  0  0  0  0  0  0  0  0
   39.1650   31.3220   41.0440 H   0  0  0  0  0  0  0  0  0  0  0  0
   40.8610   32.0020   42.3850 H   0  0  0  0  0  0  0  0  0  0  0  0
   38.4570   30.1090   44.4720 H   0  0  0  0  0  0  0  0  0  0  0  0
   39.6460   28.7310   44.1750 H   0  0  0  0  0  0  0  0  0  0  0  0
   39.6090   32.9080   43.8200 C   0  0  0  0  0  0  0  0  0  0  0  0
   38.5460   32.8310   44.0530 H   0  0  0  0  0  0  0  0  0  0  0  0
   39.7400   33.8390   43.2040 H   0  0  0  0  0  0  0  0  0  0  0  0
   40.6870   33.0260   45.2770 S   0  0  0  0  0  0  0  0  0  0  0  0
   37.7810   31.7610   47.6660 C   0  0  0  0  0  0  0  0  0  0  0  0
   37.9330   32.5540   48.8260 C   0  0  0  0  0  0  0  0  0  0  0  0
   38.9250   33.4950   48.9100 C   0  0  0  0  0  0  0  0  0  0  0  0
   39.7500   33.6200   47.8180 C   0  0  0  0  0  0  0  0  0  0  0  0
   39.5960   32.8530   46.7080 C   0  0  0  0  0  0  0  0  0  0  0  0
   38.6150   31.9150   46.6090 N   0  0  0  0  0  0  0  0  0  0  0  0
   37.2590   32.4230   49.6660 H   0  0  0  0  0  0  0  0  0  0  0  0
   39.1050   34.1300   49.7470 H   0  0  0  0  0  0  0  0  0  0  0  0
   40.5640   34.3390   47.7920 H   0  0  0  0  0  0  0  0  0  0  0  0
   36.7200   30.8010   47.6560 C   0  0  0  0  0  0  0  0  0  0  0  0
   36.2360   30.3980   46.5910 O   0  0  0  0  0  0  0  0  0  0  0  0
   37.0190   29.6370   49.8020 C   0  0  0  0  0  0  0  0  0  0  0  0
   36.1470   30.2380   48.8880 C   0  0  0  0  0  0  0  0  0  0  0  0
   34.7840   30.2800   49.1750 C   0  0  0  0  0  0  0  0  0  0  0  0
   34.3410   29.7290   50.3510 N   0  0  0  0  0  0  0  0  0  0  0  0
   35.2010   29.1580   51.2110 C   0  0  0  0  0  0  0  0  0  0  0  0
   36.5130   29.1110   50.9460 N   0  0  0  0  0  0  0  0  0  0  0  0
   38.0860   29.5710   49.6380 H   0  0  0  0  0  0  0  0  0  0  0  0
   34.1160   30.7490   48.4570 H   0  0  0  0  0  0  0  0  0  0  0  0
   34.8780   28.7170   52.1430 H   0  0  0  0  0  0  0  0  0  0  0  0
   37.5880   29.2330   42.2350 O   0  0  0  0  0  0  0  0  0  0  0  0
   37.6220   28.3590   41.1150 C   0  0  0  0  0  2  0  0  0  0  0  0
   37.0310   29.0240   39.9480 C   0  0  0  0  0  0  0  0  0  0  0  0
   37.7570   29.3870   38.9040 C   0  0  0  0  0  0  0  0  0  0  0  0
   37.0750   30.0460   37.8160 N   0  0  0  0  0  0  0  0  0  0  0  0
   37.1630   30.9880   36.7750 C   0  0  0  0  0  0  0  0  0  0  0  0
   38.0480   31.5090   36.0410 O   0  0  0  0  0  0  0  0  0  0  0  0
   35.7100   31.2030   36.8160 C   0  0  0  0  0  3  0  0  0  0  0  0
   35.3750   32.0000   37.5370 H   0  0  0  0  0  0  0  0  0  0  0  0
   35.7020   29.8140   37.4180 C   0  0  2  0  0  3  0  0  0  0  0  0
   34.6010   29.7720   38.8510 S   0  0  0  0  0  0  0  0  0  0  0  0
   35.6040   29.1760   40.2080 C   0  0  0  0  0  3  0  0  0  0  0  0
   35.1930   28.1510   40.4580 H   0  0  0  0  0  0  0  0  0  0  0  0
   39.2000   29.1920   38.7520 C   0  0  0  0  0  0  0  0  0  0  0  0
   40.2050   29.8410   39.0460 O   0  0  0  0  0  0  0  0  0  0  0  0
   39.7350   28.0740   38.1600 O   0  0  0  0  0  0  0  0  0  0  0  0
   40.5210   27.5670   38.5430 H   0  0  0  0  0  0  0  0  0  0  0  0
  1  6  1  6  0  0  0
  1  5  1  0  0  0  0
  2  7  1  0  0  0  0
  2  1  1  0  0  0  0
  2  3  1  0  0  0  0
  3  9  1  6  0  0  0
  3 12  1  0  0  0  0
  3  4  1  0  0  0  0
  4  5  1  0  0  0  0
  5 11  1  0  0  0  0
  5 10  1  0  0  0  0
  8  2  1  0  0  0  0
 12 13  1  0  0  0  0
 12 15  1  0  0  0  0
 14 12  1  0  0  0  0
 15 20  1  0  0  0  0
 16 17  1  0  0  0  0
 17 18  2  0  0  0  0
 17 22  1  0  0  0  0
 18 23  1  0  0  0  0
 19 18  1  0  0  0  0
 20 19  2  0  0  0  0
 21 20  1  0  0  0  0
 21 16  2  0  0  0  0
 24 19  1  0  0  0  0
 25 16  1  0  0  0  0
 25 28  1  0  0  0  0
 26 25  2  0  0  0  0
 27 32  1  0  0  0  0
 28 29  1  0  0  0  0
 28 27  2  0  0  0  0
 29 30  2  0  0  0  0
 30 31  1  0  0  0  0
 31 35  1  0  0  0  0
 32 31  2  0  0  0  0
 33 27  1  0  0  0  0
 34 29  1  0  0  0  0
 36  1  1  0  0  0  0
 37 36  1  0  0  0  0
 38 47  1  0  0  0  0
 38 37  1  0  0  0  0
 39 38  2  0  0  0  0
 40 39  1  0  0  0  0
 41 43  1  0  0  0  0
 41 40  1  0  0  0  0
 42 41  2  0  0  0  0
 43 44  1  0  0  0  0
 45 43  1  6  0  0  0
 45 40  1  0  0  0  0
 45 46  1  0  0  0  0
 46 47  1  0  0  0  0
 47 48  1  0  0  0  0
 49 39  1  0  0  0  0
 49 50  2  0  0  0  0
 51 52  1  0  0  0  0
 51 49  1  0  0  0  0
M  END
>  <minimizedAffinity>
-4.75671482

>  <minimizedRMSD>
0.833258152

$$$$
