
 OpenBabel03262522143D

 52 56  0  0  1  0  0  0  0  0999 V2000
   38.9260   29.6060   42.3800 C   0  0  1  0  0  0  0  0  0  0  0  0
   38.6030   31.0590   42.0780 C   0  0  0  0  0  0  0  0  0  0  0  0
   39.7870   31.7640   42.6790 C   0  0  2  0  0  0  0  0  0  0  0  0
   40.5250   30.8370   43.3770 O   0  0  0  0  0  0  0  0  0  0  0  0
   39.6950   29.7590   43.6700 C   0  0  0  0  0  0  0  0  0  0  0  0
   39.5330   29.1640   41.5820 H   0  0  0  0  0  0  0  0  0  0  0  0
   37.6310   31.3650   42.5280 H   0  0  0  0  0  0  0  0  0  0  0  0
   38.5280   31.1460   40.9810 H   0  0  0  0  0  0  0  0  0  0  0  0
   40.3470   32.2060   41.8230 H   0  0  0  0  0  0  0  0  0  0  0  0
   38.9960   29.9990   44.4730 H   0  0  0  0  0  0  0  0  0  0  0  0
   40.3130   28.8600   43.8680 H   0  0  0  0  0  0  0  0  0  0  0  0
   39.3610   32.9300   43.5400 C   0  0  0  0  0  0  0  0  0  0  0  0
   38.3200   32.7800   43.8330 H   0  0  0  0  0  0  0  0  0  0  0  0
   39.4010   33.8940   42.9640 H   0  0  0  0  0  0  0  0  0  0  0  0
   40.5200   33.0430   44.9330 S   0  0  0  0  0  0  0  0  0  0  0  0
   37.7530   31.7010   47.4430 C   0  0  0  0  0  0  0  0  0  0  0  0
   37.9920   32.4350   48.6260 C   0  0  0  0  0  0  0  0  0  0  0  0
   39.0020   33.3580   48.6910 C   0  0  0  0  0  0  0  0  0  0  0  0
   39.7570   33.5250   47.5550 C   0  0  0  0  0  0  0  0  0  0  0  0
   39.5200   32.8150   46.4220 C   0  0  0  0  0  0  0  0  0  0  0  0
   38.5200   31.8940   46.3430 N   0  0  0  0  0  0  0  0  0  0  0  0
   37.3710   32.2720   49.5010 H   0  0  0  0  0  0  0  0  0  0  0  0
   39.2450   33.9500   49.5430 H   0  0  0  0  0  0  0  0  0  0  0  0
   40.5790   34.2340   47.5100 H   0  0  0  0  0  0  0  0  0  0  0  0
   36.6790   30.7550   47.4560 C   0  0  0  0  0  0  0  0  0  0  0  0
   36.1730   30.3520   46.4010 O   0  0  0  0  0  0  0  0  0  0  0  0
   36.9910   29.5950   49.6020 C   0  0  0  0  0  0  0  0  0  0  0  0
   36.1160   30.2110   48.7000 C   0  0  0  0  0  0  0  0  0  0  0  0
   34.7600   30.2820   49.0110 C   0  0  0  0  0  0  0  0  0  0  0  0
   34.3270   29.7460   50.1970 N   0  0  0  0  0  0  0  0  0  0  0  0
   35.1900   29.1610   51.0450 C   0  0  0  0  0  0  0  0  0  0  0  0
   36.4950   29.0850   50.7570 N   0  0  0  0  0  0  0  0  0  0  0  0
   38.0550   29.5060   49.4190 H   0  0  0  0  0  0  0  0  0  0  0  0
   34.0890   30.7620   48.3030 H   0  0  0  0  0  0  0  0  0  0  0  0
   34.8740   28.7310   51.9850 H   0  0  0  0  0  0  0  0  0  0  0  0
   37.7620   28.8590   42.5480 O   0  0  0  0  0  0  0  0  0  0  0  0
   37.9060   27.6640   41.7920 C   0  0  0  0  0  2  0  0  0  0  0  0
   37.6730   26.5020   42.6570 C   0  0  0  0  0  0  0  0  0  0  0  0
   36.4580   26.0310   42.8880 C   0  0  0  0  0  0  0  0  0  0  0  0
   36.3430   24.8890   43.7620 N   0  0  0  0  0  0  0  0  0  0  0  0
   35.5560   24.2150   44.7140 C   0  0  0  0  0  0  0  0  0  0  0  0
   34.3400   24.1150   45.0390 O   0  0  0  0  0  0  0  0  0  0  0  0
   36.7510   23.5810   45.2860 C   0  0  0  0  0  3  0  0  0  0  0  0
   37.2560   24.1780   46.0970 H   0  0  0  0  0  0  0  0  0  0  0  0
   37.3270   23.8370   43.9120 C   0  0  2  0  0  3  0  0  0  0  0  0
   38.9960   24.5160   44.0600 S   0  0  0  0  0  0  0  0  0  0  0  0
   38.9700   26.0550   43.1470 C   0  0  0  0  0  3  0  0  0  0  0  0
   39.6330   25.8800   42.2470 H   0  0  0  0  0  0  0  0  0  0  0  0
   35.2100   26.5690   42.3430 C   0  0  0  0  0  0  0  0  0  0  0  0
   34.8490   27.6590   41.8980 O   0  0  0  0  0  0  0  0  0  0  0  0
   34.0680   25.8130   42.2300 O   0  0  0  0  0  0  0  0  0  0  0  0
   33.4850   25.8090   41.4040 H   0  0  0  0  0  0  0  0  0  0  0  0
  1  6  1  6  0  0  0
  1 36  1  0  0  0  0
  1  5  1  0  0  0  0
  2  1  1  0  0  0  0
  2  7  1  0  0  0  0
  2  3  1  0  0  0  0
  3  9  1  6  0  0  0
  3  4  1  0  0  0  0
  3 12  1  0  0  0  0
  4  5  1  0  0  0  0
  5 11  1  0  0  0  0
  5 10  1  0  0  0  0
  8  2  1  0  0  0  0
 12 13  1  0  0  0  0
 12 15  1  0  0  0  0
 14 12  1  0  0  0  0
 15 20  1  0  0  0  0
 16 25  1  0  0  0  0
 16 17  1  0  0  0  0
 17 18  2  0  0  0  0
 17 22  1  0  0  0  0
 18 23  1  0  0  0  0
 19 18  1  0  0  0  0
 20 19  2  0  0  0  0
 21 20  1  0  0  0  0
 21 16  2  0  0  0  0
 24 19  1  0  0  0  0
 25 28  1  0  0  0  0
 26 25  2  0  0  0  0
 27 32  1  0  0  0  0
 28 29  1  0  0  0  0
 28 27  2  0  0  0  0
 29 30  2  0  0  0  0
 30 31  1  0  0  0  0
 31 35  1  0  0  0  0
 32 31  2  0  0  0  0
 33 27  1  0  0  0  0
 34 29  1  0  0  0  0
 37 36  1  0  0  0  0
 37 38  1  0  0  0  0
 38 39  2  0  0  0  0
 38 47  1  0  0  0  0
 39 40  1  0  0  0  0
 40 45  1  0  0  0  0
 40 41  1  0  0  0  0
 41 42  2  0  0  0  0
 41 43  1  0  0  0  0
 43 44  1  0  0  0  0
 45 46  1  1  0  0  0
 45 43  1  0  0  0  0
 47 46  1  0  0  0  0
 48 47  1  0  0  0  0
 49 39  1  0  0  0  0
 50 49  2  0  0  0  0
 51 49  1  0  0  0  0
 52 51  1  0  0  0  0
M  END
>  <minimizedAffinity>
-5.54999065

>  <minimizedRMSD>
2.15747118

$$$$
