
 OpenBabel03262522153D

 52 56  0  0  1  0  0  0  0  0999 V2000
   38.8740   29.7810   42.2670 C   0  0  1  0  0  0  0  0  0  0  0  0
   39.0610   31.2670   42.0160 C   0  0  0  0  0  0  0  0  0  0  0  0
   40.0650   31.6290   43.0740 C   0  0  2  0  0  0  0  0  0  0  0  0
   40.2300   30.5390   43.8950 O   0  0  0  0  0  0  0  0  0  0  0  0
   39.1110   29.7240   43.7570 C   0  0  0  0  0  0  0  0  0  0  0  0
   39.6070   29.1910   41.7040 H   0  0  0  0  0  0  0  0  0  0  0  0
   38.1000   31.8220   42.1090 H   0  0  0  0  0  0  0  0  0  0  0  0
   39.4290   31.3700   40.9810 H   0  0  0  0  0  0  0  0  0  0  0  0
   40.9980   31.9040   42.5290 H   0  0  0  0  0  0  0  0  0  0  0  0
   38.2440   30.1420   44.2700 H   0  0  0  0  0  0  0  0  0  0  0  0
   39.3650   28.6910   44.0740 H   0  0  0  0  0  0  0  0  0  0  0  0
   39.6500   32.8670   43.8330 C   0  0  0  0  0  0  0  0  0  0  0  0
   38.5850   32.7930   44.0570 H   0  0  0  0  0  0  0  0  0  0  0  0
   39.7870   33.7900   43.2060 H   0  0  0  0  0  0  0  0  0  0  0  0
   40.7140   33.0020   45.2980 S   0  0  0  0  0  0  0  0  0  0  0  0
   37.7870   31.7600   47.6740 C   0  0  0  0  0  0  0  0  0  0  0  0
   37.9300   32.5640   48.8270 C   0  0  0  0  0  0  0  0  0  0  0  0
   38.9210   33.5050   48.9110 C   0  0  0  0  0  0  0  0  0  0  0  0
   39.7550   33.6200   47.8250 C   0  0  0  0  0  0  0  0  0  0  0  0
   39.6110   32.8430   46.7210 C   0  0  0  0  0  0  0  0  0  0  0  0
   38.6310   31.9030   46.6230 N   0  0  0  0  0  0  0  0  0  0  0  0
   37.2490   32.4400   49.6630 H   0  0  0  0  0  0  0  0  0  0  0  0
   39.0940   34.1480   49.7430 H   0  0  0  0  0  0  0  0  0  0  0  0
   40.5700   34.3390   47.7990 H   0  0  0  0  0  0  0  0  0  0  0  0
   36.7270   30.7990   47.6640 C   0  0  0  0  0  0  0  0  0  0  0  0
   36.2440   30.3960   46.5980 O   0  0  0  0  0  0  0  0  0  0  0  0
   37.0220   29.6290   49.8070 C   0  0  0  0  0  0  0  0  0  0  0  0
   36.1520   30.2380   48.8960 C   0  0  0  0  0  0  0  0  0  0  0  0
   34.7910   30.2890   49.1860 C   0  0  0  0  0  0  0  0  0  0  0  0
   34.3470   29.7380   50.3610 N   0  0  0  0  0  0  0  0  0  0  0  0
   35.2050   29.1590   51.2190 C   0  0  0  0  0  0  0  0  0  0  0  0
   36.5160   29.1050   50.9500 N   0  0  0  0  0  0  0  0  0  0  0  0
   38.0890   29.5570   49.6400 H   0  0  0  0  0  0  0  0  0  0  0  0
   34.1240   30.7640   48.4700 H   0  0  0  0  0  0  0  0  0  0  0  0
   34.8810   28.7190   52.1510 H   0  0  0  0  0  0  0  0  0  0  0  0
   37.5870   29.3730   41.9240 O   0  0  0  0  0  0  0  0  0  0  0  0
   37.7030   28.1720   41.1730 C   0  0  0  0  0  2  0  0  0  0  0  0
   37.9280   28.4930   39.7590 C   0  0  0  0  0  0  0  0  0  0  0  0
   39.0310   28.1290   39.1240 C   0  0  0  0  0  0  0  0  0  0  0  0
   39.1550   28.5060   37.7360 N   0  0  0  0  0  0  0  0  0  0  0  0
   40.0260   28.8660   36.6910 C   0  0  0  0  0  0  0  0  0  0  0  0
   41.2340   28.7010   36.3660 O   0  0  0  0  0  0  0  0  0  0  0  0
   38.9440   29.5870   36.0070 C   0  0  0  0  0  3  0  0  0  0  0  0
   38.8340   30.6660   36.3140 H   0  0  0  0  0  0  0  0  0  0  0  0
   38.0600   28.6510   36.8000 C   0  0  2  0  0  3  0  0  0  0  0  0
   36.6870   29.5710   37.5310 S   0  0  0  0  0  0  0  0  0  0  0  0
   36.7670   29.2370   39.2880 C   0  0  0  0  0  3  0  0  0  0  0  0
   35.8490   28.6150   39.5160 H   0  0  0  0  0  0  0  0  0  0  0  0
   40.1510   27.3840   39.7030 C   0  0  0  0  0  0  0  0  0  0  0  0
   40.4070   26.9150   40.8140 O   0  0  0  0  0  0  0  0  0  0  0  0
   41.2640   27.0430   38.9750 O   0  0  0  0  0  0  0  0  0  0  0  0
   41.6860   26.1240   39.0080 H   0  0  0  0  0  0  0  0  0  0  0  0
  1  6  1  6  0  0  0
  1  5  1  0  0  0  0
  2  7  1  0  0  0  0
  2  1  1  0  0  0  0
  2  3  1  0  0  0  0
  3  9  1  6  0  0  0
  3 12  1  0  0  0  0
  3  4  1  0  0  0  0
  5  4  1  0  0  0  0
  5 11  1  0  0  0  0
  5 10  1  0  0  0  0
  8  2  1  0  0  0  0
 12 13  1  0  0  0  0
 12 15  1  0  0  0  0
 14 12  1  0  0  0  0
 15 20  1  0  0  0  0
 16 17  1  0  0  0  0
 17 18  2  0  0  0  0
 17 22  1  0  0  0  0
 18 23  1  0  0  0  0
 19 18  1  0  0  0  0
 20 19  2  0  0  0  0
 21 20  1  0  0  0  0
 21 16  2  0  0  0  0
 24 19  1  0  0  0  0
 25 16  1  0  0  0  0
 25 28  1  0  0  0  0
 26 25  2  0  0  0  0
 27 32  1  0  0  0  0
 28 29  1  0  0  0  0
 28 27  2  0  0  0  0
 29 30  2  0  0  0  0
 30 31  1  0  0  0  0
 31 35  1  0  0  0  0
 32 31  2  0  0  0  0
 33 27  1  0  0  0  0
 34 29  1  0  0  0  0
 36  1  1  0  0  0  0
 37 36  1  0  0  0  0
 38 37  1  0  0  0  0
 39 49  1  0  0  0  0
 39 38  2  0  0  0  0
 40 39  1  0  0  0  0
 41 40  1  0  0  0  0
 42 41  2  0  0  0  0
 43 44  1  0  0  0  0
 43 41  1  0  0  0  0
 45 43  1  6  0  0  0
 45 46  1  0  0  0  0
 45 40  1  0  0  0  0
 46 47  1  0  0  0  0
 47 48  1  0  0  0  0
 47 38  1  0  0  0  0
 49 50  2  0  0  0  0
 51 52  1  0  0  0  0
 51 49  1  0  0  0  0
M  END
>  <minimizedAffinity>
-5.00176191

>  <minimizedRMSD>
0.941139579

$$$$
