
 OpenBabel03272502263D

 47 51  0  0  1  0  0  0  0  0999 V2000
   33.6280   26.8420   45.8520 N   0  0  0  0  0  0  0  0  0  0  0  0
   33.9400   27.2880   47.0910 C   0  0  0  0  0  0  0  0  0  0  0  0
   33.5790   28.5820   47.4420 C   0  0  0  0  0  0  0  0  0  0  0  0
   32.9160   29.3760   46.5210 C   0  0  0  0  0  0  0  0  0  0  0  0
   32.5060   30.5580   46.6470 O   0  0  0  0  0  0  0  0  0  0  0  0
   32.6260   28.8960   45.2950 N   0  0  0  0  0  0  0  0  0  0  0  0
   32.9790   27.6200   44.9500 C   0  0  0  0  0  0  0  0  0  0  0  0
   32.7450   27.0930   43.8340 O   0  0  0  0  0  0  0  0  0  0  0  0
   33.9160   25.8650   45.6290 H   0  0  0  0  0  0  0  0  0  0  0  0
   34.4510   26.7300   47.8540 H   0  0  0  0  0  0  0  0  0  0  0  0
   33.8040   29.2200   48.6470 O   0  0  0  0  0  0  0  0  0  0  0  0
   36.7680   30.4830   50.3100 C   0  0  0  0  0  0  0  0  0  0  0  0
   37.5590   30.8510   49.2140 C   0  0  0  0  0  0  0  0  0  0  0  0
   37.0330   30.6470   47.9590 C   0  0  0  0  0  0  0  0  0  0  0  0
   35.8100   30.1130   47.8620 N   0  0  0  0  0  0  0  0  0  0  0  0
   35.0590   29.7630   48.9130 C   0  0  0  0  0  0  0  0  0  0  0  0
   35.5460   29.9510   50.1470 N   0  0  0  0  0  0  0  0  0  0  0  0
   37.2080   30.6560   51.2670 H   0  0  0  0  0  0  0  0  0  0  0  0
   38.5350   31.2770   49.3140 H   0  0  0  0  0  0  0  0  0  0  0  0
   37.7420   30.9940   46.7360 C   0  0  0  0  0  0  0  0  0  0  0  0
   37.4200   30.3820   45.5250 C   0  0  0  0  0  0  0  0  0  0  0  0
   38.0570   30.6840   44.3460 C   0  0  0  0  0  0  0  0  0  0  0  0
   39.0440   31.6130   44.3510 N   0  0  0  0  0  0  0  0  0  0  0  0
   39.3390   32.1890   45.5210 C   0  0  0  0  0  0  0  0  0  0  0  0
   38.7300   31.9120   46.6910 N   0  0  0  0  0  0  0  0  0  0  0  0
   36.6470   29.6370   45.4570 H   0  0  0  0  0  0  0  0  0  0  0  0
   37.8010   30.2050   43.4100 H   0  0  0  0  0  0  0  0  0  0  0  0
   40.4160   33.2120   45.5560 C   0  0  0  0  0  0  0  0  0  0  0  0
   40.3010   33.9030   46.7850 F   0  0  0  0  0  0  0  0  0  0  0  0
   41.6480   32.6510   45.4240 F   0  0  0  0  0  0  0  0  0  0  0  0
   40.2310   34.1830   44.5850 F   0  0  0  0  0  0  0  0  0  0  0  0
   31.9910   29.6470   44.2370 C   0  0  0  0  0  2  0  0  0  0  0  0
   32.6710   30.7610   43.6460 C   0  0  0  0  0  0  0  0  0  0  0  0
   33.8270   30.9390   43.0090 C   0  0  0  0  0  0  0  0  0  0  0  0
   34.2200   32.2260   42.5000 N   0  0  0  0  0  0  0  0  0  0  0  0
   35.2830   33.1820   42.5070 C   0  0  0  0  0  0  0  0  0  0  0  0
   36.5280   33.1410   42.6930 O   0  0  0  0  0  0  0  0  0  0  0  0
   34.2020   34.1970   42.1970 C   0  0  0  0  0  3  0  0  0  0  0  0
   33.7720   34.6950   43.0690 H   0  0  0  0  0  0  0  0  0  0  0  0
   33.3770   33.0710   41.6140 C   0  0  2  0  0  3  0  0  0  0  0  0
   31.7000   32.8870   42.2410 S   0  0  0  0  0  0  0  0  0  0  0  0
   31.8690   32.0020   43.8380 C   0  0  0  0  0  3  0  0  0  0  0  0
   30.8980   31.8740   44.3130 H   0  0  0  0  0  0  0  0  0  0  0  0
   34.6510   29.7470   42.8440 C   0  0  0  0  0  0  0  0  0  0  0  0
   35.4870   29.7660   41.9100 O   0  0  0  0  0  0  0  0  0  0  0  0
   35.4230   28.6410   42.6840 O   0  0  0  0  0  0  0  0  0  0  0  0
   35.7150   28.0880   43.4780 H   0  0  0  0  0  0  0  0  0  0  0  0
  1  2  1  0  0  0  0
  2  3  2  0  0  0  0
  2 10  1  0  0  0  0
  3 11  1  0  0  0  0
  4  5  2  0  0  0  0
  4  3  1  0  0  0  0
  6  4  1  0  0  0  0
  7  6  1  0  0  0  0
  7  1  1  0  0  0  0
  8  7  2  0  0  0  0
  9  1  1  0  0  0  0
 11 16  1  0  0  0  0
 12 18  1  0  0  0  0
 13 19  1  0  0  0  0
 13 12  2  0  0  0  0
 14 13  1  0  0  0  0
 15 14  2  0  0  0  0
 15 16  1  0  0  0  0
 16 17  2  0  0  0  0
 17 12  1  0  0  0  0
 20 14  1  0  0  0  0
 21 20  2  0  0  0  0
 22 23  2  0  0  0  0
 22 21  1  0  0  0  0
 23 24  1  0  0  0  0
 24 28  1  0  0  0  0
 24 25  2  0  0  0  0
 25 20  1  0  0  0  0
 26 21  1  0  0  0  0
 27 22  1  0  0  0  0
 28 29  1  0  0  0  0
 30 28  1  0  0  0  0
 31 28  1  0  0  0  0
 32  6  1  0  0  0  0
 33 42  1  0  0  0  0
 33 32  1  0  0  0  0
 34 33  2  0  0  0  0
 35 36  1  0  0  0  0
 35 34  1  0  0  0  0
 36 37  2  0  0  0  0
 38 36  1  0  0  0  0
 38 39  1  0  0  0  0
 40 38  1  1  0  0  0
 40 41  1  0  0  0  0
 40 35  1  0  0  0  0
 41 42  1  0  0  0  0
 42 43  1  0  0  0  0
 44 34  1  0  0  0  0
 45 44  2  0  0  0  0
 46 44  1  0  0  0  0
 46 47  1  0  0  0  0
M  END
>  <minimizedAffinity>
-5.94213247

>  <minimizedRMSD>
1.80775237

$$$$
