
 OpenBabel03272502263D

 47 51  0  0  1  0  0  0  0  0999 V2000
   33.5220   26.9430   45.4760 N   0  0  0  0  0  0  0  0  0  0  0  0
   33.7740   27.3620   46.7380 C   0  0  0  0  0  0  0  0  0  0  0  0
   33.3650   28.6360   47.1100 C   0  0  0  0  0  0  0  0  0  0  0  0
   32.7170   29.4370   46.1860 C   0  0  0  0  0  0  0  0  0  0  0  0
   32.2700   30.6040   46.3270 O   0  0  0  0  0  0  0  0  0  0  0  0
   32.4860   28.9850   44.9360 N   0  0  0  0  0  0  0  0  0  0  0  0
   32.8870   27.7290   44.5710 C   0  0  0  0  0  0  0  0  0  0  0  0
   32.7100   27.2280   43.4330 O   0  0  0  0  0  0  0  0  0  0  0  0
   33.8440   25.9800   45.2380 H   0  0  0  0  0  0  0  0  0  0  0  0
   34.2710   26.7960   47.5050 H   0  0  0  0  0  0  0  0  0  0  0  0
   33.5260   29.2440   48.3390 O   0  0  0  0  0  0  0  0  0  0  0  0
   36.3510   30.6500   50.1250 C   0  0  0  0  0  0  0  0  0  0  0  0
   37.1890   31.0170   49.0650 C   0  0  0  0  0  0  0  0  0  0  0  0
   36.7410   30.7620   47.7890 C   0  0  0  0  0  0  0  0  0  0  0  0
   35.5430   30.1850   47.6400 N   0  0  0  0  0  0  0  0  0  0  0  0
   34.7460   29.8370   48.6580 C   0  0  0  0  0  0  0  0  0  0  0  0
   35.1580   30.0730   49.9110 N   0  0  0  0  0  0  0  0  0  0  0  0
   36.7320   30.8620   51.0990 H   0  0  0  0  0  0  0  0  0  0  0  0
   38.1440   31.4780   49.2050 H   0  0  0  0  0  0  0  0  0  0  0  0
   37.5040   31.1010   46.5970 C   0  0  0  0  0  0  0  0  0  0  0  0
   37.1890   30.5360   45.3610 C   0  0  0  0  0  0  0  0  0  0  0  0
   37.8770   30.8320   44.2110 C   0  0  0  0  0  0  0  0  0  0  0  0
   38.9100   31.7090   44.2680 N   0  0  0  0  0  0  0  0  0  0  0  0
   39.1970   32.2410   45.4620 C   0  0  0  0  0  0  0  0  0  0  0  0
   38.5380   31.9680   46.6040 N   0  0  0  0  0  0  0  0  0  0  0  0
   36.3820   29.8340   45.2510 H   0  0  0  0  0  0  0  0  0  0  0  0
   37.6270   30.3900   43.2550 H   0  0  0  0  0  0  0  0  0  0  0  0
   40.3230   33.2060   45.5550 C   0  0  0  0  0  0  0  0  0  0  0  0
   40.2380   33.8320   46.8210 F   0  0  0  0  0  0  0  0  0  0  0  0
   41.5270   32.5930   45.3930 F   0  0  0  0  0  0  0  0  0  0  0  0
   40.1900   34.2380   44.6400 F   0  0  0  0  0  0  0  0  0  0  0  0
   31.8730   29.7490   43.8760 C   0  0  0  0  0  2  0  0  0  0  0  0
   32.5560   30.8800   43.3220 C   0  0  0  0  0  0  0  0  0  0  0  0
   33.7220   31.0780   42.7100 C   0  0  0  0  0  0  0  0  0  0  0  0
   34.1170   32.3780   42.2370 N   0  0  0  0  0  0  0  0  0  0  0  0
   35.1740   33.3390   42.2850 C   0  0  0  0  0  0  0  0  0  0  0  0
   36.4170   33.3010   42.4910 O   0  0  0  0  0  0  0  0  0  0  0  0
   34.0940   34.3550   41.9790 C   0  0  0  0  0  3  0  0  0  0  0  0
   33.6460   34.8310   42.8540 H   0  0  0  0  0  0  0  0  0  0  0  0
   33.2860   33.2380   41.3550 C   0  0  2  0  0  3  0  0  0  0  0  0
   31.5990   33.0320   41.9490 S   0  0  0  0  0  0  0  0  0  0  0  0
   31.7440   32.1120   43.5280 C   0  0  0  0  0  3  0  0  0  0  0  0
   30.7660   31.9670   43.9830 H   0  0  0  0  0  0  0  0  0  0  0  0
   34.5570   29.8960   42.5320 C   0  0  0  0  0  0  0  0  0  0  0  0
   35.3920   29.9290   41.5980 O   0  0  0  0  0  0  0  0  0  0  0  0
   35.3370   28.7960   42.3610 O   0  0  0  0  0  0  0  0  0  0  0  0
   35.6350   28.2380   43.1490 H   0  0  0  0  0  0  0  0  0  0  0  0
  1  2  1  0  0  0  0
  2  3  2  0  0  0  0
  2 10  1  0  0  0  0
  3 11  1  0  0  0  0
  4  5  2  0  0  0  0
  4  3  1  0  0  0  0
  6  4  1  0  0  0  0
  7  6  1  0  0  0  0
  7  1  1  0  0  0  0
  8  7  2  0  0  0  0
  9  1  1  0  0  0  0
 11 16  1  0  0  0  0
 12 18  1  0  0  0  0
 13 19  1  0  0  0  0
 13 12  2  0  0  0  0
 14 13  1  0  0  0  0
 15 14  2  0  0  0  0
 15 16  1  0  0  0  0
 16 17  2  0  0  0  0
 17 12  1  0  0  0  0
 20 25  1  0  0  0  0
 20 14  1  0  0  0  0
 21 20  2  0  0  0  0
 22 23  2  0  0  0  0
 22 21  1  0  0  0  0
 23 24  1  0  0  0  0
 24 28  1  0  0  0  0
 24 25  2  0  0  0  0
 26 21  1  0  0  0  0
 27 22  1  0  0  0  0
 28 29  1  0  0  0  0
 30 28  1  0  0  0  0
 31 28  1  0  0  0  0
 32  6  1  0  0  0  0
 33 42  1  0  0  0  0
 33 32  1  0  0  0  0
 34 33  2  0  0  0  0
 35 36  1  0  0  0  0
 35 34  1  0  0  0  0
 36 37  2  0  0  0  0
 38 36  1  0  0  0  0
 38 39  1  0  0  0  0
 40 41  1  1  0  0  0
 40 38  1  0  0  0  0
 40 35  1  0  0  0  0
 41 42  1  0  0  0  0
 42 43  1  0  0  0  0
 44 34  1  0  0  0  0
 45 44  2  0  0  0  0
 46 44  1  0  0  0  0
 46 47  1  0  0  0  0
M  END
>  <minimizedAffinity>
-5.94844103

>  <minimizedRMSD>
2.08181596

$$$$
