
 OpenBabel03262522143D

 52 56  0  0  1  0  0  0  0  0999 V2000
   38.7050   30.0830   42.1960 C   0  0  1  0  0  0  0  0  0  0  0  0
   38.7390   31.5930   42.0350 C   0  0  0  0  0  0  0  0  0  0  0  0
   39.9120   31.9620   42.8980 C   0  0  2  0  0  0  0  0  0  0  0  0
   40.3120   30.8360   43.5780 O   0  0  0  0  0  0  0  0  0  0  0  0
   39.2440   29.9450   43.5980 C   0  0  0  0  0  0  0  0  0  0  0  0
   39.3440   29.5930   41.4510 H   0  0  0  0  0  0  0  0  0  0  0  0
   37.7830   32.0610   42.3630 H   0  0  0  0  0  0  0  0  0  0  0  0
   38.8800   31.7950   40.9600 H   0  0  0  0  0  0  0  0  0  0  0  0
   40.6940   32.3480   42.2030 H   0  0  0  0  0  0  0  0  0  0  0  0
   38.4760   30.2570   44.3070 H   0  0  0  0  0  0  0  0  0  0  0  0
   39.6250   28.9170   43.7730 H   0  0  0  0  0  0  0  0  0  0  0  0
   39.5810   33.1090   43.8250 C   0  0  0  0  0  0  0  0  0  0  0  0
   38.5180   33.0630   44.0650 H   0  0  0  0  0  0  0  0  0  0  0  0
   39.7570   34.0980   43.3220 H   0  0  0  0  0  0  0  0  0  0  0  0
   40.6790   32.9920   45.2660 S   0  0  0  0  0  0  0  0  0  0  0  0
   37.7720   31.7410   47.6620 C   0  0  0  0  0  0  0  0  0  0  0  0
   37.9270   32.5370   48.8200 C   0  0  0  0  0  0  0  0  0  0  0  0
   38.9210   33.4750   48.9000 C   0  0  0  0  0  0  0  0  0  0  0  0
   39.7450   33.5950   47.8070 C   0  0  0  0  0  0  0  0  0  0  0  0
   39.5880   32.8260   46.6990 C   0  0  0  0  0  0  0  0  0  0  0  0
   38.6050   31.8890   46.6040 N   0  0  0  0  0  0  0  0  0  0  0  0
   37.2540   32.4100   49.6610 H   0  0  0  0  0  0  0  0  0  0  0  0
   39.1040   34.1130   49.7340 H   0  0  0  0  0  0  0  0  0  0  0  0
   40.5620   34.3130   47.7780 H   0  0  0  0  0  0  0  0  0  0  0  0
   36.7090   30.7830   47.6560 C   0  0  0  0  0  0  0  0  0  0  0  0
   36.2210   30.3800   46.5930 O   0  0  0  0  0  0  0  0  0  0  0  0
   37.0090   29.6140   49.7990 C   0  0  0  0  0  0  0  0  0  0  0  0
   36.1370   30.2240   48.8900 C   0  0  0  0  0  0  0  0  0  0  0  0
   34.7770   30.2770   49.1850 C   0  0  0  0  0  0  0  0  0  0  0  0
   34.3350   29.7290   50.3620 N   0  0  0  0  0  0  0  0  0  0  0  0
   35.1950   29.1490   51.2170 C   0  0  0  0  0  0  0  0  0  0  0  0
   36.5040   29.0910   50.9450 N   0  0  0  0  0  0  0  0  0  0  0  0
   38.0750   29.5390   49.6300 H   0  0  0  0  0  0  0  0  0  0  0  0
   34.1090   30.7540   48.4710 H   0  0  0  0  0  0  0  0  0  0  0  0
   34.8730   28.7090   52.1510 H   0  0  0  0  0  0  0  0  0  0  0  0
   37.4040   29.5970   42.0830 O   0  0  0  0  0  0  0  0  0  0  0  0
   37.1940   28.6800   43.1480 C   0  0  0  0  0  2  0  0  0  0  0  0
   36.6350   27.4290   42.6220 C   0  0  0  0  0  0  0  0  0  0  0  0
   37.3860   26.3650   42.3950 C   0  0  0  0  0  0  0  0  0  0  0  0
   36.7350   25.1910   41.8650 N   0  0  0  0  0  0  0  0  0  0  0  0
   36.8570   24.0470   41.0570 C   0  0  0  0  0  0  0  0  0  0  0  0
   37.7630   23.2740   40.6370 O   0  0  0  0  0  0  0  0  0  0  0  0
   35.4060   24.0300   40.8220 C   0  0  0  0  0  3  0  0  0  0  0  0
   35.0670   24.6440   39.9400 H   0  0  0  0  0  0  0  0  0  0  0  0
   35.3670   24.7950   42.1260 C   0  0  2  0  0  3  0  0  0  0  0  0
   34.2390   26.1980   41.9840 S   0  0  0  0  0  0  0  0  0  0  0  0
   35.2060   27.6390   42.4230 C   0  0  0  0  0  3  0  0  0  0  0  0
   34.7760   28.0010   43.4060 H   0  0  0  0  0  0  0  0  0  0  0  0
   38.8290   26.2670   42.6230 C   0  0  0  0  0  0  0  0  0  0  0  0
   39.8270   26.8220   42.1580 O   0  0  0  0  0  0  0  0  0  0  0  0
   39.3750   25.4010   43.5380 O   0  0  0  0  0  0  0  0  0  0  0  0
   40.1060   25.6650   44.1860 H   0  0  0  0  0  0  0  0  0  0  0  0
  1  6  1  6  0  0  0
  1  5  1  0  0  0  0
  2  1  1  0  0  0  0
  2  7  1  0  0  0  0
  2  3  1  0  0  0  0
  3  9  1  6  0  0  0
  3  4  1  0  0  0  0
  3 12  1  0  0  0  0
  4  5  1  0  0  0  0
  5 11  1  0  0  0  0
  5 10  1  0  0  0  0
  8  2  1  0  0  0  0
 12 13  1  0  0  0  0
 12 15  1  0  0  0  0
 14 12  1  0  0  0  0
 15 20  1  0  0  0  0
 16 17  1  0  0  0  0
 17 18  2  0  0  0  0
 17 22  1  0  0  0  0
 18 23  1  0  0  0  0
 19 18  1  0  0  0  0
 20 19  2  0  0  0  0
 21 20  1  0  0  0  0
 21 16  2  0  0  0  0
 24 19  1  0  0  0  0
 25 16  1  0  0  0  0
 25 28  1  0  0  0  0
 26 25  2  0  0  0  0
 27 32  1  0  0  0  0
 28 29  1  0  0  0  0
 28 27  2  0  0  0  0
 29 30  2  0  0  0  0
 30 31  1  0  0  0  0
 31 35  1  0  0  0  0
 32 31  2  0  0  0  0
 33 27  1  0  0  0  0
 34 29  1  0  0  0  0
 36  1  1  0  0  0  0
 36 37  1  0  0  0  0
 38 37  1  0  0  0  0
 39 38  2  0  0  0  0
 39 49  1  0  0  0  0
 40 45  1  0  0  0  0
 40 39  1  0  0  0  0
 41 40  1  0  0  0  0
 42 41  2  0  0  0  0
 43 41  1  0  0  0  0
 44 43  1  0  0  0  0
 45 43  1  6  0  0  0
 46 45  1  0  0  0  0
 46 47  1  0  0  0  0
 47 38  1  0  0  0  0
 47 48  1  0  0  0  0
 49 51  1  0  0  0  0
 50 49  2  0  0  0  0
 51 52  1  0  0  0  0
M  END
>  <minimizedAffinity>
-5.42366219

>  <minimizedRMSD>
3.39544177

$$$$
