
 OpenBabel03262522143D

 52 56  0  0  1  0  0  0  0  0999 V2000
   38.9150   29.6210   42.3770 C   0  0  1  0  0  0  0  0  0  0  0  0
   38.5830   31.0730   42.0820 C   0  0  0  0  0  0  0  0  0  0  0  0
   39.7710   31.7810   42.6710 C   0  0  2  0  0  0  0  0  0  0  0  0
   40.5210   30.8540   43.3570 O   0  0  0  0  0  0  0  0  0  0  0  0
   39.6990   29.7730   43.6580 C   0  0  0  0  0  0  0  0  0  0  0  0
   39.5150   29.1830   41.5690 H   0  0  0  0  0  0  0  0  0  0  0  0
   37.6150   31.3730   42.5440 H   0  0  0  0  0  0  0  0  0  0  0  0
   38.4940   31.1630   40.9870 H   0  0  0  0  0  0  0  0  0  0  0  0
   40.3190   32.2280   41.8100 H   0  0  0  0  0  0  0  0  0  0  0  0
   39.0090   30.0080   44.4690 H   0  0  0  0  0  0  0  0  0  0  0  0
   40.3230   28.8750   43.8450 H   0  0  0  0  0  0  0  0  0  0  0  0
   39.3500   32.9420   43.5410 C   0  0  0  0  0  0  0  0  0  0  0  0
   38.3100   32.7940   43.8350 H   0  0  0  0  0  0  0  0  0  0  0  0
   39.3920   33.9100   42.9700 H   0  0  0  0  0  0  0  0  0  0  0  0
   40.5140   33.0440   44.9310 S   0  0  0  0  0  0  0  0  0  0  0  0
   37.7500   31.6990   47.4440 C   0  0  0  0  0  0  0  0  0  0  0  0
   37.9910   32.4320   48.6280 C   0  0  0  0  0  0  0  0  0  0  0  0
   39.0010   33.3550   48.6920 C   0  0  0  0  0  0  0  0  0  0  0  0
   39.7540   33.5230   47.5550 C   0  0  0  0  0  0  0  0  0  0  0  0
   39.5160   32.8140   46.4210 C   0  0  0  0  0  0  0  0  0  0  0  0
   38.5160   31.8940   46.3430 N   0  0  0  0  0  0  0  0  0  0  0  0
   37.3720   32.2680   49.5040 H   0  0  0  0  0  0  0  0  0  0  0  0
   39.2460   33.9460   49.5440 H   0  0  0  0  0  0  0  0  0  0  0  0
   40.5770   34.2320   47.5100 H   0  0  0  0  0  0  0  0  0  0  0  0
   36.6760   30.7530   47.4580 C   0  0  0  0  0  0  0  0  0  0  0  0
   36.1700   30.3500   46.4040 O   0  0  0  0  0  0  0  0  0  0  0  0
   36.9900   29.5960   49.6050 C   0  0  0  0  0  0  0  0  0  0  0  0
   36.1140   30.2090   48.7030 C   0  0  0  0  0  0  0  0  0  0  0  0
   34.7580   30.2790   49.0140 C   0  0  0  0  0  0  0  0  0  0  0  0
   34.3260   29.7440   50.2010 N   0  0  0  0  0  0  0  0  0  0  0  0
   35.1890   29.1600   51.0490 C   0  0  0  0  0  0  0  0  0  0  0  0
   36.4950   29.0860   50.7610 N   0  0  0  0  0  0  0  0  0  0  0  0
   38.0530   29.5080   49.4230 H   0  0  0  0  0  0  0  0  0  0  0  0
   34.0870   30.7580   48.3050 H   0  0  0  0  0  0  0  0  0  0  0  0
   34.8740   28.7310   51.9890 H   0  0  0  0  0  0  0  0  0  0  0  0
   37.7570   28.8680   42.5560 O   0  0  0  0  0  0  0  0  0  0  0  0
   37.8970   27.6750   41.7960 C   0  0  0  0  0  2  0  0  0  0  0  0
   37.6670   26.5100   42.6580 C   0  0  0  0  0  0  0  0  0  0  0  0
   36.4530   26.0380   42.8910 C   0  0  0  0  0  0  0  0  0  0  0  0
   36.3400   24.8940   43.7630 N   0  0  0  0  0  0  0  0  0  0  0  0
   35.5570   24.2160   44.7150 C   0  0  0  0  0  0  0  0  0  0  0  0
   34.3420   24.1150   45.0430 O   0  0  0  0  0  0  0  0  0  0  0  0
   36.7540   23.5810   45.2830 C   0  0  0  0  0  3  0  0  0  0  0  0
   37.2600   24.1780   46.0940 H   0  0  0  0  0  0  0  0  0  0  0  0
   37.3260   23.8420   43.9070 C   0  0  2  0  0  3  0  0  0  0  0  0
   38.9950   24.5220   44.0540 S   0  0  0  0  0  0  0  0  0  0  0  0
   38.9650   26.0640   43.1450 C   0  0  0  0  0  3  0  0  0  0  0  0
   39.6270   25.8920   42.2410 H   0  0  0  0  0  0  0  0  0  0  0  0
   35.2020   26.5750   42.3520 C   0  0  0  0  0  0  0  0  0  0  0  0
   34.8390   27.6680   41.9120 O   0  0  0  0  0  0  0  0  0  0  0  0
   34.0620   25.8180   42.2390 O   0  0  0  0  0  0  0  0  0  0  0  0
   33.4770   25.8180   41.4140 H   0  0  0  0  0  0  0  0  0  0  0  0
  1  6  1  6  0  0  0
  1 36  1  0  0  0  0
  1  5  1  0  0  0  0
  2  1  1  0  0  0  0
  2  7  1  0  0  0  0
  2  3  1  0  0  0  0
  3  9  1  6  0  0  0
  3  4  1  0  0  0  0
  3 12  1  0  0  0  0
  4  5  1  0  0  0  0
  5 11  1  0  0  0  0
  5 10  1  0  0  0  0
  8  2  1  0  0  0  0
 12 13  1  0  0  0  0
 12 15  1  0  0  0  0
 14 12  1  0  0  0  0
 15 20  1  0  0  0  0
 16 25  1  0  0  0  0
 16 17  1  0  0  0  0
 17 18  2  0  0  0  0
 17 22  1  0  0  0  0
 18 23  1  0  0  0  0
 19 18  1  0  0  0  0
 20 19  2  0  0  0  0
 21 20  1  0  0  0  0
 21 16  2  0  0  0  0
 24 19  1  0  0  0  0
 25 28  1  0  0  0  0
 26 25  2  0  0  0  0
 27 32  1  0  0  0  0
 28 29  1  0  0  0  0
 28 27  2  0  0  0  0
 29 30  2  0  0  0  0
 30 31  1  0  0  0  0
 31 35  1  0  0  0  0
 32 31  2  0  0  0  0
 33 27  1  0  0  0  0
 34 29  1  0  0  0  0
 37 36  1  0  0  0  0
 37 38  1  0  0  0  0
 38 39  2  0  0  0  0
 38 47  1  0  0  0  0
 39 40  1  0  0  0  0
 40 45  1  0  0  0  0
 40 41  1  0  0  0  0
 41 42  2  0  0  0  0
 41 43  1  0  0  0  0
 43 44  1  0  0  0  0
 45 46  1  1  0  0  0
 45 43  1  0  0  0  0
 47 46  1  0  0  0  0
 48 47  1  0  0  0  0
 49 39  1  0  0  0  0
 50 49  2  0  0  0  0
 51 49  1  0  0  0  0
 52 51  1  0  0  0  0
M  END
>  <minimizedAffinity>
-5.55268764

>  <minimizedRMSD>
2.65576434

$$$$
