
 OpenBabel03262522113D

 37 41  0  0  1  0  0  0  0  0999 V2000
   37.7070   31.4390   47.2890 C   0  0  0  0  0  0  0  0  0  0  0  0
   38.0000   32.4240   48.2410 C   0  0  0  0  0  0  0  0  0  0  0  0
   39.0850   33.2510   48.0500 C   0  0  0  0  0  0  0  0  0  0  0  0
   39.8270   33.0450   46.9070 C   0  0  0  0  0  0  0  0  0  0  0  0
   39.5320   32.0840   45.9870 C   0  0  0  0  0  0  0  0  0  0  0  0
   38.4550   31.2660   46.1800 N   0  0  0  0  0  0  0  0  0  0  0  0
   37.3910   32.5430   49.1140 H   0  0  0  0  0  0  0  0  0  0  0  0
   39.3630   34.0270   48.7470 H   0  0  0  0  0  0  0  0  0  0  0  0
   40.6990   33.6300   46.6490 H   0  0  0  0  0  0  0  0  0  0  0  0
   36.5560   30.6150   47.5590 C   0  0  0  0  0  0  0  0  0  0  0  0
   35.7820   30.2730   46.6380 O   0  0  0  0  0  0  0  0  0  0  0  0
   37.2350   29.7140   49.7520 C   0  0  0  0  0  0  0  0  0  0  0  0
   36.2230   30.1320   48.9000 C   0  0  0  0  0  0  0  0  0  0  0  0
   34.9100   30.0670   49.3810 C   0  0  0  0  0  0  0  0  0  0  0  0
   34.6780   29.6080   50.6390 N   0  0  0  0  0  0  0  0  0  0  0  0
   35.7100   29.2100   51.4340 C   0  0  0  0  0  0  0  0  0  0  0  0
   36.9480   29.2650   50.9990 N   0  0  0  0  0  0  0  0  0  0  0  0
   38.2770   29.7490   49.4110 H   0  0  0  0  0  0  0  0  0  0  0  0
   34.1330   30.3970   48.7040 H   0  0  0  0  0  0  0  0  0  0  0  0
   35.3510   28.8700   52.4110 H   0  0  0  0  0  0  0  0  0  0  0  0
   40.4920   31.8060   44.4910 S   0  0  0  0  0  0  0  0  0  0  0  0
   39.7110   32.8340   43.1800 C   0  0  0  0  0  2  0  0  0  0  0  0
   38.6430   32.0090   42.5760 C   0  0  0  0  0  0  0  0  0  0  0  0
   38.8680   31.0140   41.7700 C   0  0  0  0  0  0  0  0  0  0  0  0
   37.8270   30.2390   41.2140 N   0  0  0  0  0  0  0  0  0  0  0  0
   37.3300   29.2480   40.3200 C   0  0  1  0  0  0  0  0  0  0  0  0
   37.5760   28.9270   39.1260 O   0  0  0  0  0  1  0  0  0  0  0  0
   36.4430   28.8390   41.4790 C   0  0  0  0  0  3  0  0  0  0  0  0
   35.5060   28.3340   41.1760 H   0  0  0  0  0  0  0  0  0  0  0  0
   36.4130   30.3180   41.6140 C   0  0  1  0  0  0  0  0  0  0  0  0
   36.2720   31.0200   43.2690 S   0  0  0  0  0  0  0  0  0  0  0  0
   37.3400   32.5040   43.0340 C   0  0  0  0  0  3  0  0  0  0  0  0
   37.3670   33.0870   43.9460 H   0  0  0  0  0  0  0  0  0  0  0  0
   40.2190   30.5760   41.3510 C   0  0  0  0  0  0  0  0  0  0  0  0
   41.0590   30.9150   40.4990 O   0  0  0  0  0  0  0  0  0  0  0  0
   40.9110   29.5330   41.9220 O   0  0  0  0  0  0  0  0  0  0  0  0
   41.4430   28.8070   41.4600 H   0  0  0  0  0  0  0  0  0  0  0  0
  1 10  1  0  0  0  0
  1  2  1  0  0  0  0
  2  7  1  0  0  0  0
  3  2  2  0  0  0  0
  3  8  1  0  0  0  0
  4  3  1  0  0  0  0
  5  6  1  0  0  0  0
  5  4  2  0  0  0  0
  6  1  2  0  0  0  0
  9  4  1  0  0  0  0
 10 13  1  0  0  0  0
 11 10  2  0  0  0  0
 12 17  1  0  0  0  0
 13 14  1  0  0  0  0
 13 12  2  0  0  0  0
 14 15  2  0  0  0  0
 15 16  1  0  0  0  0
 16 20  1  0  0  0  0
 17 16  2  0  0  0  0
 18 12  1  0  0  0  0
 19 14  1  0  0  0  0
 21  5  1  0  0  0  0
 22 21  1  0  0  0  0
 23 32  1  0  0  0  0
 23 22  1  0  0  0  0
 24 23  2  0  0  0  0
 25 30  1  0  0  0  0
 25 24  1  0  0  0  0
 26 27  1  6  0  0  0
 26 25  1  0  0  0  0
 26 28  1  0  0  0  0
 26 30  1  0  0  0  0
 29 28  1  0  0  0  0
 30 28  1  1  0  0  0
 30 31  1  0  0  0  0
 32 31  1  0  0  0  0
 32 33  1  0  0  0  0
 34 24  1  0  0  0  0
 34 36  1  0  0  0  0
 35 34  2  0  0  0  0
 37 36  1  0  0  0  0
M  END
>  <minimizedAffinity>
-5.21474457

>  <minimizedRMSD>
2.93025637

$$$$
