
 OpenBabel03272502303D

 31 33  0  0  1  0  0  0  0  0999 V2000
   36.1980   30.8740   41.5600 C   0  0  0  0  0  2  0  0  0  0  0  0
   37.4840   30.9820   40.8580 C   0  0  0  0  0  0  0  0  0  0  0  0
   38.4650   30.1240   40.7750 C   0  0  0  0  0  0  0  0  0  0  0  0
   39.6510   30.4270   40.0080 N   0  0  0  0  0  0  0  0  0  0  0  0
   41.0690   30.3390   39.9450 C   0  0  0  0  0  0  0  0  0  0  0  0
   42.0020   29.7980   40.6280 O   0  0  0  0  0  0  0  0  0  0  0  0
   41.0820   31.1610   38.7110 C   0  0  0  0  0  3  0  0  0  0  0  0
   41.4630   30.5900   37.8190 H   0  0  0  0  0  0  0  0  0  0  0  0
   39.5710   31.1160   38.7110 C   0  0  2  0  0  3  0  0  0  0  0  0
   38.7570   32.6860   39.0820 S   0  0  0  0  0  0  0  0  0  0  0  0
   37.4290   32.3380   40.2410 C   0  0  0  0  0  3  0  0  0  0  0  0
   37.4050   33.0810   41.0790 H   0  0  0  0  0  0  0  0  0  0  0  0
   38.4660   28.7820   41.4070 C   0  0  0  0  0  0  0  0  0  0  0  0
   37.9410   27.7620   41.9130 O   0  0  0  0  0  0  0  0  0  0  0  0
   39.5640   28.0360   41.7110 O   0  0  0  0  0  0  0  0  0  0  0  0
   39.9420   27.8960   42.6690 H   0  0  0  0  0  0  0  0  0  0  0  0
   36.1570   31.1050   43.3190 S   0  0  0  0  0  0  0  0  0  0  0  0
   34.4270   30.7780   43.8890 C   0  0  0  0  0  0  0  0  0  0  0  0
   34.4270   30.8570   44.9990 H   0  0  0  0  0  0  0  0  0  0  0  0
   33.7120   31.4410   43.4050 H   0  0  0  0  0  0  0  0  0  0  0  0
   34.8360   28.3660   44.0240 C   0  0  0  0  0  3  0  0  0  0  0  0
   34.1070   29.3540   43.5770 C   0  0  0  0  0  3  0  0  0  0  0  0
   32.9320   25.2300   43.3950 C   0  0  0  0  0  0  0  0  0  0  0  0
   33.2080   26.5840   43.6690 C   0  0  0  0  0  0  0  0  0  0  0  0
   34.5380   26.9950   43.7420 C   0  0  0  0  0  0  0  0  0  0  0  0
   35.5370   26.0950   43.5470 N   0  0  0  0  0  0  0  0  0  0  0  0
   35.2270   24.8030   43.2860 C   0  0  0  0  0  0  0  0  0  0  0  0
   33.9410   24.3660   43.2090 N   0  0  0  0  0  0  0  0  0  0  0  0
   31.8730   25.0320   43.3650 H   0  0  0  0  0  0  0  0  0  0  0  0
   32.4390   27.3190   43.8270 H   0  0  0  0  0  0  0  0  0  0  0  0
   36.0340   24.0910   43.1320 H   0  0  0  0  0  0  0  0  0  0  0  0
  1 17  1  0  0  0  0
  2  1  1  0  0  0  0
  3  2  2  0  0  0  0
  3 13  1  0  0  0  0
  4  3  1  0  0  0  0
  5  4  1  0  0  0  0
  5  6  2  0  0  0  0
  7  5  1  0  0  0  0
  8  7  1  0  0  0  0
  9  7  1  1  0  0  0
  9 10  1  0  0  0  0
  9  4  1  0  0  0  0
 10 11  1  0  0  0  0
 11  2  1  0  0  0  0
 11 12  1  0  0  0  0
 13 15  1  0  0  0  0
 13 14  2  0  0  0  0
 15 16  1  0  0  0  0
 17 18  1  0  0  0  0
 18 19  1  0  0  0  0
 20 18  1  0  0  0  0
 22 18  1  0  0  0  0
 22 21  2  0  0  0  0
 23 24  1  0  0  0  0
 24 25  2  0  0  0  0
 24 30  1  0  0  0  0
 25 21  1  0  0  0  0
 26 25  1  0  0  0  0
 27 26  2  0  0  0  0
 28 27  1  0  0  0  0
 28 23  2  0  0  0  0
 29 23  1  0  0  0  0
 31 27  1  0  0  0  0
M  END
>  <minimizedAffinity>
-1.74874723

>  <minimizedRMSD>
6.99218321

$$$$
