
 OpenBabel03272502303D

 31 33  0  0  1  0  0  0  0  0999 V2000
   39.7420   30.1440   43.7160 C   0  0  0  0  0  0  0  0  0  0  0  0
   39.9400   29.7560   42.3130 C   0  0  0  0  0  0  0  0  0  0  0  0
   39.8680   28.5770   41.7530 C   0  0  0  0  0  0  0  0  0  0  0  0
   40.0820   28.4140   40.3340 N   0  0  0  0  0  0  0  0  0  0  0  0
   40.6650   27.6140   39.3130 C   0  0  0  0  0  0  0  0  0  0  0  0
   41.2660   26.4900   39.2380 O   0  0  0  0  0  0  0  0  0  0  0  0
   40.2990   28.6230   38.2900 C   0  0  0  0  0  0  0  0  0  0  0  0
   39.5560   28.2260   37.5430 H   0  0  0  0  0  0  0  0  0  0  0  0
   39.5540   29.3860   39.3630 C   0  0  2  0  0  0  0  0  0  0  0  0
   40.3030   30.9590   39.8430 S   0  0  0  0  0  0  0  0  0  0  0  0
   40.2590   31.0450   41.6370 C   0  0  0  0  0  0  0  0  0  0  0  0
   41.2330   31.4060   42.0580 H   0  0  0  0  0  0  0  0  0  0  0  0
   39.5400   27.3220   42.4740 C   0  0  0  0  0  0  0  0  0  0  0  0
   39.1410   26.6390   43.4470 O   0  0  0  0  0  0  0  0  0  0  0  0
   39.6750   26.0570   41.9890 O   0  0  0  0  0  0  0  0  0  0  0  0
   40.4210   25.3890   42.2670 H   0  0  0  0  0  0  0  0  0  0  0  0
   40.4820   31.6460   44.3050 S   0  0  0  0  0  0  0  0  0  0  0  0
   39.1140   32.8350   44.6840 C   0  0  0  0  0  0  0  0  0  0  0  0
   39.5860   33.7610   45.0820 H   0  0  0  0  0  0  0  0  0  0  0  0
   38.4790   33.0070   43.8170 H   0  0  0  0  0  0  0  0  0  0  0  0
   38.7560   32.2510   47.0360 C   0  0  0  0  0  0  0  0  0  0  0  0
   38.3140   32.2630   45.8070 C   0  0  0  0  0  0  0  0  0  0  0  0
   36.9260   29.8480   49.2120 C   0  0  0  0  0  0  0  0  0  0  0  0
   37.6770   30.3590   48.1350 C   0  0  0  0  0  0  0  0  0  0  0  0
   37.9980   31.7150   48.1250 C   0  0  0  0  0  0  0  0  0  0  0  0
   37.5880   32.5150   49.1450 N   0  0  0  0  0  0  0  0  0  0  0  0
   36.8690   31.9820   50.1600 C   0  0  0  0  0  0  0  0  0  0  0  0
   36.5360   30.6640   50.2020 N   0  0  0  0  0  0  0  0  0  0  0  0
   36.7400   28.7910   49.1090 H   0  0  0  0  0  0  0  0  0  0  0  0
   38.0150   29.7500   47.3160 H   0  0  0  0  0  0  0  0  0  0  0  0
   36.5460   32.6320   50.9700 H   0  0  0  0  0  0  0  0  0  0  0  0
  1 17  1  0  0  0  0
  2  1  1  0  0  0  0
  3  2  2  0  0  0  0
  3 13  1  0  0  0  0
  4  3  1  0  0  0  0
  5  4  1  0  0  0  0
  6  5  2  0  0  0  0
  7  5  1  0  0  0  0
  8  7  1  0  0  0  0
  9  7  1  6  0  0  0
  9 10  1  0  0  0  0
  9  4  1  0  0  0  0
 10 11  1  0  0  0  0
 11 12  1  0  0  0  0
 11  2  1  0  0  0  0
 13 14  2  0  0  0  0
 15 16  1  0  0  0  0
 15 13  1  0  0  0  0
 17 18  1  0  0  0  0
 18 19  1  0  0  0  0
 18 22  1  0  0  0  0
 20 18  1  0  0  0  0
 21 25  1  0  0  0  0
 22 21  2  0  0  0  0
 23 28  1  0  0  0  0
 24 23  2  0  0  0  0
 25 24  1  0  0  0  0
 25 26  2  0  0  0  0
 26 27  1  0  0  0  0
 27 28  2  0  0  0  0
 27 31  1  0  0  0  0
 29 23  1  0  0  0  0
 30 24  1  0  0  0  0
M  END
>  <minimizedAffinity>
-4.76836205

>  <minimizedRMSD>
5.65753698

$$$$
