
 OpenBabel03262522113D

 37 41  0  0  1  0  0  0  0  0999 V2000
   37.7690   31.8340   47.8400 C   0  0  0  0  0  0  0  0  0  0  0  0
   37.8150   32.6260   48.9940 C   0  0  0  0  0  0  0  0  0  0  0  0
   38.7910   33.5900   49.1170 C   0  0  0  0  0  0  0  0  0  0  0  0
   39.6780   33.7100   48.0690 C   0  0  0  0  0  0  0  0  0  0  0  0
   39.6230   32.9340   46.9500 C   0  0  0  0  0  0  0  0  0  0  0  0
   38.6530   31.9800   46.8320 N   0  0  0  0  0  0  0  0  0  0  0  0
   37.1010   32.4920   49.7820 H   0  0  0  0  0  0  0  0  0  0  0  0
   38.8800   34.2310   49.9820 H   0  0  0  0  0  0  0  0  0  0  0  0
   40.4850   34.4290   48.0510 H   0  0  0  0  0  0  0  0  0  0  0  0
   36.7180   30.8480   47.7860 C   0  0  0  0  0  0  0  0  0  0  0  0
   36.2740   30.4440   46.6890 O   0  0  0  0  0  0  0  0  0  0  0  0
   36.9190   29.6550   49.9350 C   0  0  0  0  0  0  0  0  0  0  0  0
   36.1140   30.2670   48.9850 C   0  0  0  0  0  0  0  0  0  0  0  0
   34.7360   30.2940   49.2330 C   0  0  0  0  0  0  0  0  0  0  0  0
   34.2460   29.7340   50.3690 N   0  0  0  0  0  0  0  0  0  0  0  0
   35.0840   29.1450   51.2690 C   0  0  0  0  0  0  0  0  0  0  0  0
   36.3790   29.1110   51.0530 N   0  0  0  0  0  0  0  0  0  0  0  0
   38.0030   29.6120   49.7760 H   0  0  0  0  0  0  0  0  0  0  0  0
   34.1220   30.7750   48.4820 H   0  0  0  0  0  0  0  0  0  0  0  0
   34.5300   28.7450   52.1250 H   0  0  0  0  0  0  0  0  0  0  0  0
   40.7740   33.0820   45.5760 S   0  0  0  0  0  0  0  0  0  0  0  0
   39.7460   33.2700   44.0610 C   0  0  0  0  0  2  0  0  0  0  0  0
   39.4270   31.9030   43.5950 C   0  0  0  0  0  0  0  0  0  0  0  0
   38.2850   31.5680   43.0720 C   0  0  0  0  0  0  0  0  0  0  0  0
   38.0110   30.2550   42.6290 N   0  0  0  0  0  0  0  0  0  0  0  0
   37.1320   29.2440   42.1460 C   0  0  1  0  0  0  0  0  0  0  0  0
   35.9450   28.9050   42.4000 O   0  0  0  0  0  1  0  0  0  0  0  0
   38.2920   28.8480   41.2560 C   0  0  0  0  0  3  0  0  0  0  0  0
   38.2790   27.7870   40.9400 H   0  0  0  0  0  0  0  0  0  0  0  0
   39.0080   29.1800   42.5150 C   0  0  1  0  0  0  0  0  0  0  0  0
   40.6670   29.8780   42.3940 S   0  0  0  0  0  0  0  0  0  0  0  0
   40.5860   31.0360   43.8270 C   0  0  0  0  0  3  0  0  0  0  0  0
   41.5300   31.5540   43.9350 H   0  0  0  0  0  0  0  0  0  0  0  0
   37.1550   32.5060   42.8730 C   0  0  0  0  0  0  0  0  0  0  0  0
   36.7120   33.2060   41.9470 O   0  0  0  0  0  0  0  0  0  0  0  0
   36.2350   32.8320   43.8410 O   0  0  0  0  0  0  0  0  0  0  0  0
   35.8630   33.7450   44.0690 H   0  0  0  0  0  0  0  0  0  0  0  0
  1  2  1  0  0  0  0
  2  3  2  0  0  0  0
  2  7  1  0  0  0  0
  3  8  1  0  0  0  0
  4  3  1  0  0  0  0
  5  4  2  0  0  0  0
  6  5  1  0  0  0  0
  6  1  2  0  0  0  0
  9  4  1  0  0  0  0
 10  1  1  0  0  0  0
 10 13  1  0  0  0  0
 11 10  2  0  0  0  0
 12 17  1  0  0  0  0
 13 14  1  0  0  0  0
 13 12  2  0  0  0  0
 14 15  2  0  0  0  0
 15 16  1  0  0  0  0
 16 20  1  0  0  0  0
 17 16  2  0  0  0  0
 18 12  1  0  0  0  0
 19 14  1  0  0  0  0
 21  5  1  0  0  0  0
 22 21  1  0  0  0  0
 23 32  1  0  0  0  0
 23 22  1  0  0  0  0
 24 23  2  0  0  0  0
 25 24  1  0  0  0  0
 26 27  1  1  0  0  0
 26 30  1  0  0  0  0
 26 25  1  0  0  0  0
 28 26  1  0  0  0  0
 29 28  1  0  0  0  0
 30 28  1  6  0  0  0
 30 25  1  0  0  0  0
 31 30  1  0  0  0  0
 31 32  1  0  0  0  0
 32 33  1  0  0  0  0
 34 24  1  0  0  0  0
 34 36  1  0  0  0  0
 35 34  2  0  0  0  0
 36 37  1  0  0  0  0
M  END
>  <minimizedAffinity>
-6.02445984

>  <minimizedRMSD>
2.64611197

$$$$
