
 OpenBabel03272507423D

 42 45  0  0  0  0  0  0  0  0999 V2000
   36.6760   31.2010   49.9420 C   0  0  0  0  0  0  0  0  0  0  0  0
   35.6750   30.2730   49.6630 C   0  0  0  0  0  0  0  0  0  0  0  0
   35.4870   29.1750   50.4740 C   0  0  0  0  0  0  0  0  0  0  0  0
   36.3100   29.0380   51.5480 N   0  0  0  0  0  0  0  0  0  0  0  0
   37.2830   29.9520   51.8090 C   0  0  0  0  0  0  0  0  0  0  0  0
   37.4480   31.0020   51.0150 N   0  0  0  0  0  0  0  0  0  0  0  0
   34.7320   28.4160   50.3170 H   0  0  0  0  0  0  0  0  0  0  0  0
   37.9180   29.7990   52.6830 H   0  0  0  0  0  0  0  0  0  0  0  0
   34.3510   29.1190   47.9520 C   0  0  0  0  0  0  0  0  0  0  0  0
   34.6960   27.8810   48.0890 O   0  0  0  0  0  0  0  0  0  0  0  0
   34.7840   30.3350   48.5810 N   0  0  0  0  0  0  0  0  0  0  0  0
   34.3590   31.1790   48.1320 H   0  0  0  0  0  0  0  0  0  0  0  0
   33.2930   29.0840   46.8990 C   0  0  0  0  0  3  0  0  0  0  0  0
   33.0660   30.4710   46.4120 C   0  0  0  0  0  3  0  0  0  0  0  0
   33.8520   30.7790   45.6600 H   0  0  0  0  0  0  0  0  0  0  0  0
   31.7460   30.6760   45.7180 C   0  0  0  0  0  3  0  0  0  0  0  0
   31.0600   31.2600   46.3750 H   0  0  0  0  0  0  0  0  0  0  0  0
   31.0790   29.4670   45.4950 O   0  0  0  0  0  0  0  0  0  0  0  0
   30.7820   28.9920   46.7900 C   0  0  0  0  0  3  0  0  0  0  0  0
   29.9790   28.2290   46.7600 H   0  0  0  0  0  0  0  0  0  0  0  0
   32.0740   28.3140   47.2580 C   0  0  0  0  0  3  0  0  0  0  0  0
   31.9320   28.0980   48.3290 H   0  0  0  0  0  0  0  0  0  0  0  0
   36.7100   32.2070   49.0400 O   0  0  0  0  0  0  0  0  0  0  0  0
   38.2330   32.1590   47.0800 C   0  0  0  0  0  0  0  0  0  0  0  0
   37.8480   32.5960   48.3350 C   0  0  0  0  0  0  0  0  0  0  0  0
   38.6280   33.5180   49.0190 C   0  0  0  0  0  0  0  0  0  0  0  0
   39.7940   33.9940   48.4320 C   0  0  0  0  0  0  0  0  0  0  0  0
   40.1690   33.5500   47.1790 C   0  0  0  0  0  0  0  0  0  0  0  0
   39.3730   32.6410   46.5380 C   0  0  0  0  0  0  0  0  0  0  0  0
   38.3840   33.9010   50.0010 H   0  0  0  0  0  0  0  0  0  0  0  0
   40.3990   34.7100   48.9660 H   0  0  0  0  0  0  0  0  0  0  0  0
   41.0700   33.8990   46.6940 H   0  0  0  0  0  0  0  0  0  0  0  0
   39.7850   32.1690   45.1910 C   0  0  0  0  0  0  0  0  0  0  0  0
   40.6280   31.1600   44.8450 C   0  0  0  0  0  0  0  0  0  0  0  0
   40.7010   31.0980   43.4590 C   0  0  0  0  0  0  0  0  0  0  0  0
   39.8730   32.1050   43.0390 C   0  0  0  0  0  0  0  0  0  0  0  0
   39.3330   32.7350   44.0810 O   0  0  0  0  0  0  0  0  0  0  0  0
   41.1530   30.5140   45.5380 H   0  0  0  0  0  0  0  0  0  0  0  0
   41.2800   30.4120   42.8330 H   0  0  0  0  0  0  0  0  0  0  0  0
   39.6610   32.3780   41.9960 H   0  0  0  0  0  0  0  0  0  0  0  0
   36.6890   30.4600   45.9220 N   0  0  0  0  0  0  0  0  0  0  0  0
   37.3750   31.2120   46.4460 C   0  0  0  0  0  0  0  0  0  0  0  0
  1  6  1  0  0  0  0
  2  1  2  0  0  0  0
  2  3  1  0  0  0  0
  3  4  2  0  0  0  0
  4  5  1  0  0  0  0
  5  8  1  0  0  0  0
  6  5  2  0  0  0  0
  7  3  1  0  0  0  0
  9 10  2  0  0  0  0
  9 11  1  0  0  0  0
 11  2  1  0  0  0  0
 12 11  1  0  0  0  0
 13 21  1  0  0  0  0
 13  9  1  0  0  0  0
 14 13  1  0  0  0  0
 15 14  1  0  0  0  0
 16 17  1  0  0  0  0
 16 14  1  0  0  0  0
 18 16  1  0  0  0  0
 18 19  1  0  0  0  0
 19 21  1  0  0  0  0
 20 19  1  0  0  0  0
 21 22  1  0  0  0  0
 23  1  1  0  0  0  0
 24 25  1  0  0  0  0
 25 26  2  0  0  0  0
 25 23  1  0  0  0  0
 26 30  1  0  0  0  0
 27 31  1  0  0  0  0
 27 26  1  0  0  0  0
 28 27  2  0  0  0  0
 29 24  2  0  0  0  0
 29 28  1  0  0  0  0
 32 28  1  0  0  0  0
 33 29  1  0  0  0  0
 34 33  2  0  0  0  0
 34 38  1  0  0  0  0
 35 34  1  0  0  0  0
 36 35  2  0  0  0  0
 36 37  1  0  0  0  0
 37 33  1  0  0  0  0
 39 35  1  0  0  0  0
 40 36  1  0  0  0  0
 41 42  3  0  0  0  0
 42 24  1  0  0  0  0
M  END
>  <minimizedAffinity>
-5.98690224

>  <minimizedRMSD>
0.656942904

$$$$
