
 OpenBabel03272509433D

 39 41  0  0  1  0  0  0  0  0999 V2000
   37.7570   31.1500   48.8350 C   0  0  0  0  0  0  0  0  0  0  0  0
   37.7170   32.1570   49.8040 C   0  0  0  0  0  0  0  0  0  0  0  0
   38.3460   33.3790   49.6110 C   0  0  0  0  0  0  0  0  0  0  0  0
   39.0380   33.6190   48.4250 C   0  0  0  0  0  0  0  0  0  0  0  0
   39.0670   32.6220   47.4880 C   0  0  0  0  0  0  0  0  0  0  0  0
   38.4300   31.4120   47.7100 C   0  0  0  0  0  0  0  0  0  0  0  0
   37.1640   31.9310   50.7210 H   0  0  0  0  0  0  0  0  0  0  0  0
   38.2340   34.0610   50.4380 H   0  0  0  0  0  0  0  0  0  0  0  0
   39.5020   34.5920   48.3470 H   0  0  0  0  0  0  0  0  0  0  0  0
   39.6450   32.9520   46.6170 H   0  0  0  0  0  0  0  0  0  0  0  0
   37.1320   29.8640   49.0490 C   0  0  2  0  0  0  0  0  0  0  0  0
   37.5330   29.1880   48.1990 H   0  0  0  0  0  0  0  0  0  0  0  0
   34.0310   30.1660   47.1770 C   0  0  0  0  0  0  0  0  0  0  0  0
   33.3320   29.0190   47.5000 C   0  0  0  0  0  0  0  0  0  0  0  0
   33.8930   28.1520   48.4190 C   0  0  0  0  0  0  0  0  0  0  0  0
   35.1160   28.4550   48.9750 N   0  0  0  0  0  0  0  0  0  0  0  0
   35.7340   29.5640   48.6250 C   0  0  0  0  0  0  0  0  0  0  0  0
   35.2020   30.4230   47.7310 N   0  0  0  0  0  0  0  0  0  0  0  0
   33.6240   30.8800   46.4550 H   0  0  0  0  0  0  0  0  0  0  0  0
   32.3860   28.8850   47.0020 H   0  0  0  0  0  0  0  0  0  0  0  0
   33.3410   27.2560   48.6700 H   0  0  0  0  0  0  0  0  0  0  0  0
   37.6600   29.2110   50.0230 O   0  0  0  0  0  0  0  0  0  0  0  0
   37.5420   29.4590   50.9650 H   0  0  0  0  0  0  0  0  0  0  0  0
   38.5700   30.4400   46.6500 C   0  0  0  0  0  3  0  0  0  0  0  0
   38.9500   30.7480   45.4050 C   0  0  0  0  0  3  0  0  0  0  0  0
   39.1690   29.8330   44.2600 C   0  0  0  0  0  0  0  0  0  0  0  0
   39.6050   28.8890   44.6860 H   0  0  0  0  0  0  0  0  0  0  0  0
   38.2100   29.6100   43.7740 H   0  0  0  0  0  0  0  0  0  0  0  0
   40.4080   30.5230   43.1600 S   0  0  0  0  0  0  0  0  0  0  0  0
   41.2180   29.2570   42.1540 C   0  0  0  0  0  3  0  0  0  0  0  0
   41.4820   29.7870   40.7840 C   0  0  0  0  0  3  0  0  0  0  0  0
   40.6450   30.3780   40.3680 H   0  0  0  0  0  0  0  0  0  0  0  0
   41.8990   28.7650   39.7850 C   0  0  0  0  0  3  0  0  0  0  0  0
   43.0090   28.6180   39.8680 H   0  0  0  0  0  0  0  0  0  0  0  0
   41.2770   27.5450   39.8750 O   0  0  0  0  0  0  0  0  0  0  0  0
   40.1700   27.4970   40.6910 C   0  0  0  0  0  3  0  0  0  0  0  0
   39.9260   26.4020   40.8050 H   0  0  0  0  0  0  0  0  0  0  0  0
   40.3880   28.0190   42.0720 C   0  0  0  0  0  3  0  0  0  0  0  0
   39.3740   28.2310   42.5180 H   0  0  0  0  0  0  0  0  0  0  0  0
  1 11  1  0  0  0  0
  1  2  1  0  0  0  0
  2  7  1  0  0  0  0
  3  2  2  0  0  0  0
  3  8  1  0  0  0  0
  4  3  1  0  0  0  0
  5  6  1  0  0  0  0
  5  4  2  0  0  0  0
  6  1  2  0  0  0  0
  9  4  1  0  0  0  0
 10  5  1  0  0  0  0
 11 12  1  6  0  0  0
 11 22  1  0  0  0  0
 13 14  2  0  0  0  0
 13 18  1  0  0  0  0
 14 15  1  0  0  0  0
 15 21  1  0  0  0  0
 15 16  2  0  0  0  0
 17 16  1  0  0  0  0
 17 11  1  0  0  0  0
 18 17  2  0  0  0  0
 19 13  1  0  0  0  0
 20 14  1  0  0  0  0
 22 23  1  0  0  0  0
 24  6  1  0  0  0  0
 25 24  2  0  0  0  0
 26 27  1  0  0  0  0
 26 25  1  0  0  0  0
 28 26  1  0  0  0  0
 29 26  1  0  0  0  0
 30 29  1  0  0  0  0
 31 30  1  0  0  0  0
 32 31  1  0  0  0  0
 33 34  1  0  0  0  0
 33 35  1  0  0  0  0
 33 31  1  0  0  0  0
 35 36  1  0  0  0  0
 36 37  1  0  0  0  0
 36 38  1  0  0  0  0
 38 30  1  0  0  0  0
 38 39  1  0  0  0  0
M  END
>  <minimizedAffinity>
-6.02979708

>  <minimizedRMSD>
1.24859047

$$$$
