
 OpenBabel03272510143D

 42 45  0  0  0  0  0  0  0  0999 V2000
   35.8520   27.5010   31.5100 C   0  0  0  0  0  0  0  0  0  0  0  0
   36.5960   28.2730   30.6380 C   0  0  0  0  0  0  0  0  0  0  0  0
   36.2570   29.5980   30.8710 C   0  0  0  0  0  0  0  0  0  0  0  0
   35.3390   29.5870   31.8570 N   0  0  0  0  0  0  0  0  0  0  0  0
   35.1050   28.3610   32.2270 N   0  0  0  0  0  0  0  0  0  0  0  0
   37.3310   28.0940   29.8660 H   0  0  0  0  0  0  0  0  0  0  0  0
   36.6040   30.5260   30.4090 H   0  0  0  0  0  0  0  0  0  0  0  0
   34.6960   30.7650   32.4300 C   0  0  0  0  0  0  0  0  0  0  0  0
   34.3800   31.4700   31.6480 H   0  0  0  0  0  0  0  0  0  0  0  0
   33.7460   30.3990   32.8980 H   0  0  0  0  0  0  0  0  0  0  0  0
   35.6440   31.3360   33.4440 C   0  0  0  0  0  0  0  0  0  0  0  0
   35.4940   32.4310   33.4500 H   0  0  0  0  0  0  0  0  0  0  0  0
   36.6690   31.0600   33.1860 H   0  0  0  0  0  0  0  0  0  0  0  0
   35.3240   30.8230   34.8480 C   0  0  0  0  0  3  0  0  0  0  0  0
   33.8600   30.6420   35.0650 C   0  0  0  0  0  3  0  0  0  0  0  0
   33.3470   31.0140   34.1290 H   0  0  0  0  0  0  0  0  0  0  0  0
   33.2690   31.3990   36.2010 C   0  0  0  0  0  3  0  0  0  0  0  0
   32.4640   30.8080   36.6770 H   0  0  0  0  0  0  0  0  0  0  0  0
   34.1630   31.7080   37.2260 O   0  0  0  0  0  0  0  0  0  0  0  0
   35.1070   32.5740   36.6280 C   0  0  0  0  0  3  0  0  0  0  0  0
   35.6880   33.1170   37.3770 H   0  0  0  0  0  0  0  0  0  0  0  0
   36.0350   31.6520   35.8620 C   0  0  0  0  0  3  0  0  0  0  0  0
   36.7700   32.2940   35.3540 H   0  0  0  0  0  0  0  0  0  0  0  0
   36.0810   26.1350   31.3970 O   0  0  0  0  0  0  0  0  0  0  0  0
   38.2730   24.2470   34.4650 C   0  0  0  0  0  0  0  0  0  0  0  0
   37.8430   23.5600   33.3710 C   0  0  0  0  0  0  0  0  0  0  0  0
   37.1240   24.1020   32.3250 C   0  0  0  0  0  0  0  0  0  0  0  0
   36.7940   25.4240   32.3500 C   0  0  0  0  0  0  0  0  0  0  0  0
   37.2280   26.1400   33.4650 C   0  0  0  0  0  0  0  0  0  0  0  0
   37.9280   25.5610   34.4580 N   0  0  0  0  0  0  0  0  0  0  0  0
   38.0560   22.5030   33.2620 H   0  0  0  0  0  0  0  0  0  0  0  0
   36.7880   23.5430   31.4610 H   0  0  0  0  0  0  0  0  0  0  0  0
   37.0520   27.1980   33.6420 H   0  0  0  0  0  0  0  0  0  0  0  0
   40.2950   23.1310   35.4060 C   0  0  0  0  0  0  0  0  0  0  0  0
   39.0140   23.6720   35.5320 C   0  0  0  0  0  0  0  0  0  0  0  0
   38.4640   23.6270   36.7890 C   0  0  0  0  0  0  0  0  0  0  0  0
   39.1550   23.0780   37.8350 N   0  0  0  0  0  0  0  0  0  0  0  0
   40.3960   22.5700   37.6460 C   0  0  0  0  0  0  0  0  0  0  0  0
   40.9930   22.5860   36.4200 N   0  0  0  0  0  0  0  0  0  0  0  0
   40.7680   23.1440   34.4360 H   0  0  0  0  0  0  0  0  0  0  0  0
   37.4810   24.0060   37.0410 H   0  0  0  0  0  0  0  0  0  0  0  0
   40.9870   22.1260   38.4270 H   0  0  0  0  0  0  0  0  0  0  0  0
  1  5  2  0  0  0  0
  2  3  2  0  0  0  0
  2  1  1  0  0  0  0
  3  4  1  0  0  0  0
  4  5  1  0  0  0  0
  4  8  1  0  0  0  0
  6  2  1  0  0  0  0
  7  3  1  0  0  0  0
  8 10  1  0  0  0  0
  8 11  1  0  0  0  0
  9  8  1  0  0  0  0
 11 12  1  0  0  0  0
 11 14  1  0  0  0  0
 13 11  1  0  0  0  0
 14 15  1  0  0  0  0
 14 22  1  0  0  0  0
 15 17  1  0  0  0  0
 16 15  1  0  0  0  0
 17 18  1  0  0  0  0
 17 19  1  0  0  0  0
 20 19  1  0  0  0  0
 20 21  1  0  0  0  0
 22 20  1  0  0  0  0
 23 22  1  0  0  0  0
 24  1  1  0  0  0  0
 24 28  1  0  0  0  0
 25 35  1  0  0  0  0
 26 25  2  0  0  0  0
 27 28  2  0  0  0  0
 27 26  1  0  0  0  0
 28 29  1  0  0  0  0
 29 33  1  0  0  0  0
 29 30  2  0  0  0  0
 30 25  1  0  0  0  0
 31 26  1  0  0  0  0
 32 27  1  0  0  0  0
 34 35  2  0  0  0  0
 34 39  1  0  0  0  0
 35 36  1  0  0  0  0
 36 41  1  0  0  0  0
 36 37  2  0  0  0  0
 38 37  1  0  0  0  0
 38 42  1  0  0  0  0
 39 38  2  0  0  0  0
 40 34  1  0  0  0  0
M  END
>  <minimizedAffinity>
-5.70280266

$$$$

 OpenBabel03272510143D

 42 45  0  0  0  0  0  0  0  0999 V2000
   35.9640   28.9700   33.0870 C   0  0  0  0  0  0  0  0  0  0  0  0
   36.2000   29.8130   32.0180 C   0  0  0  0  0  0  0  0  0  0  0  0
   35.8800   31.0980   32.4310 C   0  0  0  0  0  0  0  0  0  0  0  0
   35.4700   30.9940   33.7110 N   0  0  0  0  0  0  0  0  0  0  0  0
   35.5200   29.7500   34.0900 N   0  0  0  0  0  0  0  0  0  0  0  0
   36.5520   29.7100   31.0020 H   0  0  0  0  0  0  0  0  0  0  0  0
   35.9180   32.0580   31.9090 H   0  0  0  0  0  0  0  0  0  0  0  0
   35.0320   32.1030   34.5530 C   0  0  0  0  0  0  0  0  0  0  0  0
   35.3040   33.0730   34.1130 H   0  0  0  0  0  0  0  0  0  0  0  0
   33.9120   32.0760   34.5370 H   0  0  0  0  0  0  0  0  0  0  0  0
   35.5850   31.8590   35.9270 C   0  0  0  0  0  0  0  0  0  0  0  0
   36.3720   32.6160   36.1010 H   0  0  0  0  0  0  0  0  0  0  0  0
   35.9710   30.8390   35.9930 H   0  0  0  0  0  0  0  0  0  0  0  0
   34.5120   32.0610   36.9960 C   0  0  0  0  0  3  0  0  0  0  0  0
   33.2410   31.3570   36.6640 C   0  0  0  0  0  3  0  0  0  0  0  0
   33.3820   30.9050   35.6380 H   0  0  0  0  0  0  0  0  0  0  0  0
   32.0230   32.2090   36.5870 C   0  0  0  0  0  3  0  0  0  0  0  0
   31.1420   31.6520   36.9580 H   0  0  0  0  0  0  0  0  0  0  0  0
   32.0770   33.3760   37.3490 O   0  0  0  0  0  0  0  0  0  0  0  0
   33.1220   34.1330   36.7710 C   0  0  0  0  0  3  0  0  0  0  0  0
   33.0800   35.1800   37.0810 H   0  0  0  0  0  0  0  0  0  0  0  0
   34.3890   33.5100   37.3200 C   0  0  0  0  0  3  0  0  0  0  0  0
   35.2300   34.0550   36.8670 H   0  0  0  0  0  0  0  0  0  0  0  0
   36.2400   27.6330   32.8270 O   0  0  0  0  0  0  0  0  0  0  0  0
   38.5300   25.0280   35.2260 C   0  0  0  0  0  0  0  0  0  0  0  0
   38.1830   26.2720   35.6570 C   0  0  0  0  0  0  0  0  0  0  0  0
   37.4370   27.1820   34.9360 C   0  0  0  0  0  0  0  0  0  0  0  0
   36.9940   26.8520   33.6900 C   0  0  0  0  0  0  0  0  0  0  0  0
   37.3430   25.5810   33.2360 C   0  0  0  0  0  0  0  0  0  0  0  0
   38.0730   24.7310   33.9820 N   0  0  0  0  0  0  0  0  0  0  0  0
   38.4890   26.6250   36.6350 H   0  0  0  0  0  0  0  0  0  0  0  0
   37.1690   28.1690   35.2920 H   0  0  0  0  0  0  0  0  0  0  0  0
   37.0730   25.1610   32.2710 H   0  0  0  0  0  0  0  0  0  0  0  0
   40.5400   23.5980   35.5920 C   0  0  0  0  0  0  0  0  0  0  0  0
   39.2980   24.1040   35.9830 C   0  0  0  0  0  0  0  0  0  0  0  0
   38.8180   23.6520   37.1870 C   0  0  0  0  0  0  0  0  0  0  0  0
   39.5370   22.7610   37.9370 N   0  0  0  0  0  0  0  0  0  0  0  0
   40.7370   22.3090   37.5010 C   0  0  0  0  0  0  0  0  0  0  0  0
   41.2640   22.7210   36.3130 N   0  0  0  0  0  0  0  0  0  0  0  0
   40.9580   23.9250   34.6520 H   0  0  0  0  0  0  0  0  0  0  0  0
   37.8720   23.9540   37.6210 H   0  0  0  0  0  0  0  0  0  0  0  0
   41.3460   21.6090   38.0440 H   0  0  0  0  0  0  0  0  0  0  0  0
  1  5  2  0  0  0  0
  2  3  2  0  0  0  0
  2  1  1  0  0  0  0
  3  4  1  0  0  0  0
  4  5  1  0  0  0  0
  4  8  1  0  0  0  0
  6  2  1  0  0  0  0
  7  3  1  0  0  0  0
  8 11  1  0  0  0  0
  9  8  1  0  0  0  0
 10  8  1  0  0  0  0
 11 13  1  0  0  0  0
 11 12  1  0  0  0  0
 11 14  1  0  0  0  0
 14 22  1  0  0  0  0
 15 14  1  0  0  0  0
 16 15  1  0  0  0  0
 17 15  1  0  0  0  0
 17 18  1  0  0  0  0
 17 19  1  0  0  0  0
 20 21  1  0  0  0  0
 20 22  1  0  0  0  0
 20 19  1  0  0  0  0
 23 22  1  0  0  0  0
 24  1  1  0  0  0  0
 24 28  1  0  0  0  0
 25 26  1  0  0  0  0
 25 35  1  0  0  0  0
 26 31  1  0  0  0  0
 27 32  1  0  0  0  0
 27 26  2  0  0  0  0
 28 27  1  0  0  0  0
 29 28  2  0  0  0  0
 29 30  1  0  0  0  0
 30 25  2  0  0  0  0
 33 29  1  0  0  0  0
 34 35  2  0  0  0  0
 34 39  1  0  0  0  0
 35 36  1  0  0  0  0
 36 41  1  0  0  0  0
 36 37  2  0  0  0  0
 38 37  1  0  0  0  0
 38 42  1  0  0  0  0
 39 38  2  0  0  0  0
 40 34  1  0  0  0  0
M  END
>  <minimizedAffinity>
-5.6933341

$$$$

 OpenBabel03272510143D

 42 45  0  0  0  0  0  0  0  0999 V2000
   35.1730   28.9830   32.2080 C   0  0  0  0  0  0  0  0  0  0  0  0
   35.1970   30.2020   31.5590 C   0  0  0  0  0  0  0  0  0  0  0  0
   33.9590   30.7980   31.7580 C   0  0  0  0  0  0  0  0  0  0  0  0
   33.2400   29.9370   32.5070 N   0  0  0  0  0  0  0  0  0  0  0  0
   33.9520   28.8790   32.7670 N   0  0  0  0  0  0  0  0  0  0  0  0
   35.9090   30.7620   30.9710 H   0  0  0  0  0  0  0  0  0  0  0  0
   33.5540   31.7560   31.4240 H   0  0  0  0  0  0  0  0  0  0  0  0
   31.8700   30.1490   32.9610 C   0  0  0  0  0  0  0  0  0  0  0  0
   31.8130   30.9660   33.6950 H   0  0  0  0  0  0  0  0  0  0  0  0
   31.3040   30.5180   32.0670 H   0  0  0  0  0  0  0  0  0  0  0  0
   31.3570   28.8270   33.4520 C   0  0  0  0  0  0  0  0  0  0  0  0
   32.2370   28.1790   33.6200 H   0  0  0  0  0  0  0  0  0  0  0  0
   30.6680   28.4050   32.7180 H   0  0  0  0  0  0  0  0  0  0  0  0
   30.6370   28.9780   34.7910 C   0  0  0  0  0  3  0  0  0  0  0  0
   31.3040   29.9670   35.6850 C   0  0  0  0  0  3  0  0  0  0  0  0
   32.2420   30.3030   35.1510 H   0  0  0  0  0  0  0  0  0  0  0  0
   31.7340   29.4590   37.0170 C   0  0  0  0  0  3  0  0  0  0  0  0
   31.6180   30.2490   37.7830 H   0  0  0  0  0  0  0  0  0  0  0  0
   31.0050   28.3680   37.4890 O   0  0  0  0  0  0  0  0  0  0  0  0
   31.2760   27.3300   36.5680 C   0  0  0  0  0  3  0  0  0  0  0  0
   31.0070   26.3520   36.9720 H   0  0  0  0  0  0  0  0  0  0  0  0
   30.3830   27.6330   35.3820 C   0  0  0  0  0  3  0  0  0  0  0  0
   30.5890   26.8610   34.6260 H   0  0  0  0  0  0  0  0  0  0  0  0
   36.3540   28.2580   32.0990 O   0  0  0  0  0  0  0  0  0  0  0  0
   37.8750   25.6640   35.0550 C   0  0  0  0  0  0  0  0  0  0  0  0
   37.5440   26.9530   35.3410 C   0  0  0  0  0  0  0  0  0  0  0  0
   37.0410   27.8640   34.4350 C   0  0  0  0  0  0  0  0  0  0  0  0
   36.8450   27.4850   33.1400 C   0  0  0  0  0  0  0  0  0  0  0  0
   37.1800   26.1670   32.8330 C   0  0  0  0  0  0  0  0  0  0  0  0
   37.6680   25.3200   33.7580 N   0  0  0  0  0  0  0  0  0  0  0  0
   37.6660   27.3470   36.3440 H   0  0  0  0  0  0  0  0  0  0  0  0
   36.7830   28.8870   34.6770 H   0  0  0  0  0  0  0  0  0  0  0  0
   37.0860   25.7060   31.8530 H   0  0  0  0  0  0  0  0  0  0  0  0
   37.7950   24.4490   37.2320 C   0  0  0  0  0  0  0  0  0  0  0  0
   38.3910   24.7400   36.0020 C   0  0  0  0  0  0  0  0  0  0  0  0
   39.5560   24.0690   35.7250 C   0  0  0  0  0  0  0  0  0  0  0  0
   40.0770   23.1730   36.6210 N   0  0  0  0  0  0  0  0  0  0  0  0
   39.4490   22.9350   37.7970 C   0  0  0  0  0  0  0  0  0  0  0  0
   38.2900   23.5730   38.1260 N   0  0  0  0  0  0  0  0  0  0  0  0
   36.8780   24.9530   37.4920 H   0  0  0  0  0  0  0  0  0  0  0  0
   40.1310   24.1890   34.8150 H   0  0  0  0  0  0  0  0  0  0  0  0
   39.8090   22.2450   38.5380 H   0  0  0  0  0  0  0  0  0  0  0  0
  1  5  2  0  0  0  0
  2  3  2  0  0  0  0
  2  1  1  0  0  0  0
  3  4  1  0  0  0  0
  4  5  1  0  0  0  0
  4  8  1  0  0  0  0
  6  2  1  0  0  0  0
  7  3  1  0  0  0  0
  8 11  1  0  0  0  0
  8  9  1  0  0  0  0
 10  8  1  0  0  0  0
 11 12  1  0  0  0  0
 11 14  1  0  0  0  0
 13 11  1  0  0  0  0
 14 22  1  0  0  0  0
 14 15  1  0  0  0  0
 15 17  1  0  0  0  0
 16 15  1  0  0  0  0
 17 19  1  0  0  0  0
 17 18  1  0  0  0  0
 20 21  1  0  0  0  0
 20 19  1  0  0  0  0
 22 20  1  0  0  0  0
 23 22  1  0  0  0  0
 24  1  1  0  0  0  0
 24 28  1  0  0  0  0
 25 26  1  0  0  0  0
 25 35  1  0  0  0  0
 26 31  1  0  0  0  0
 27 32  1  0  0  0  0
 27 26  2  0  0  0  0
 28 27  1  0  0  0  0
 29 28  2  0  0  0  0
 29 30  1  0  0  0  0
 30 25  2  0  0  0  0
 33 29  1  0  0  0  0
 34 40  1  0  0  0  0
 34 39  1  0  0  0  0
 35 34  2  0  0  0  0
 36 35  1  0  0  0  0
 36 37  2  0  0  0  0
 37 38  1  0  0  0  0
 38 39  2  0  0  0  0
 38 42  1  0  0  0  0
 41 36  1  0  0  0  0
M  END
>  <minimizedAffinity>
-5.65451241

$$$$

 OpenBabel03272510143D

 42 45  0  0  0  0  0  0  0  0999 V2000
   36.7150   28.0290   31.4170 C   0  0  0  0  0  0  0  0  0  0  0  0
   36.7280   28.9420   30.3800 C   0  0  0  0  0  0  0  0  0  0  0  0
   35.8900   29.9860   30.7410 C   0  0  0  0  0  0  0  0  0  0  0  0
   35.4070   29.6800   31.9620 N   0  0  0  0  0  0  0  0  0  0  0  0
   35.8910   28.5370   32.3530 N   0  0  0  0  0  0  0  0  0  0  0  0
   37.2070   29.0230   29.4150 H   0  0  0  0  0  0  0  0  0  0  0  0
   35.6130   30.9070   30.2210 H   0  0  0  0  0  0  0  0  0  0  0  0
   34.4800   30.4980   32.7370 C   0  0  0  0  0  0  0  0  0  0  0  0
   33.8580   31.1270   32.0830 H   0  0  0  0  0  0  0  0  0  0  0  0
   33.7680   29.7810   33.2190 H   0  0  0  0  0  0  0  0  0  0  0  0
   35.2950   31.2540   33.7450 C   0  0  0  0  0  0  0  0  0  0  0  0
   35.0070   32.3180   33.6650 H   0  0  0  0  0  0  0  0  0  0  0  0
   36.3580   31.0970   33.5510 H   0  0  0  0  0  0  0  0  0  0  0  0
   34.9710   30.7990   35.1680 C   0  0  0  0  0  3  0  0  0  0  0  0
   33.5070   30.6160   35.3850 C   0  0  0  0  0  3  0  0  0  0  0  0
   32.9970   30.9450   34.4320 H   0  0  0  0  0  0  0  0  0  0  0  0
   32.9040   31.4160   36.4850 C   0  0  0  0  0  3  0  0  0  0  0  0
   32.1010   30.8400   36.9820 H   0  0  0  0  0  0  0  0  0  0  0  0
   33.7910   31.7740   37.5000 O   0  0  0  0  0  0  0  0  0  0  0  0
   34.7320   32.6220   36.8710 C   0  0  0  0  0  3  0  0  0  0  0  0
   35.3050   33.2000   37.6000 H   0  0  0  0  0  0  0  0  0  0  0  0
   35.6700   31.6750   36.1500 C   0  0  0  0  0  3  0  0  0  0  0  0
   36.4030   32.3000   35.6190 H   0  0  0  0  0  0  0  0  0  0  0  0
   37.5150   26.9130   31.2020 O   0  0  0  0  0  0  0  0  0  0  0  0
   36.3560   22.9090   31.8410 C   0  0  0  0  0  0  0  0  0  0  0  0
   35.5200   23.8070   31.2500 C   0  0  0  0  0  0  0  0  0  0  0  0
   35.8220   25.1300   31.0040 C   0  0  0  0  0  0  0  0  0  0  0  0
   37.0410   25.6210   31.3670 C   0  0  0  0  0  0  0  0  0  0  0  0
   37.9070   24.7120   31.9740 C   0  0  0  0  0  0  0  0  0  0  0  0
   37.5610   23.4300   32.1900 N   0  0  0  0  0  0  0  0  0  0  0  0
   34.5290   23.5110   30.9260 H   0  0  0  0  0  0  0  0  0  0  0  0
   35.1470   25.8330   30.5320 H   0  0  0  0  0  0  0  0  0  0  0  0
   38.9110   24.9380   32.3240 H   0  0  0  0  0  0  0  0  0  0  0  0
   35.8980   20.5750   31.0930 C   0  0  0  0  0  0  0  0  0  0  0  0
   36.0280   21.5500   32.0850 C   0  0  0  0  0  0  0  0  0  0  0  0
   35.8160   21.1270   33.3740 C   0  0  0  0  0  0  0  0  0  0  0  0
   35.4980   19.8210   33.6380 N   0  0  0  0  0  0  0  0  0  0  0  0
   35.3870   18.9250   32.6300 C   0  0  0  0  0  0  0  0  0  0  0  0
   35.5860   19.2870   31.3300 N   0  0  0  0  0  0  0  0  0  0  0  0
   36.0550   20.8610   30.0650 H   0  0  0  0  0  0  0  0  0  0  0  0
   35.8810   21.7650   34.2470 H   0  0  0  0  0  0  0  0  0  0  0  0
   35.1400   17.8880   32.7750 H   0  0  0  0  0  0  0  0  0  0  0  0
  1  5  2  0  0  0  0
  2  3  2  0  0  0  0
  2  1  1  0  0  0  0
  3  4  1  0  0  0  0
  4  5  1  0  0  0  0
  4  8  1  0  0  0  0
  6  2  1  0  0  0  0
  7  3  1  0  0  0  0
  8 10  1  0  0  0  0
  8 11  1  0  0  0  0
  9  8  1  0  0  0  0
 11 14  1  0  0  0  0
 12 11  1  0  0  0  0
 13 11  1  0  0  0  0
 14 15  1  0  0  0  0
 14 22  1  0  0  0  0
 15 17  1  0  0  0  0
 16 15  1  0  0  0  0
 17 18  1  0  0  0  0
 17 19  1  0  0  0  0
 20 19  1  0  0  0  0
 20 21  1  0  0  0  0
 22 20  1  0  0  0  0
 23 22  1  0  0  0  0
 24 28  1  0  0  0  0
 24  1  1  0  0  0  0
 25 35  1  0  0  0  0
 25 30  1  0  0  0  0
 26 25  2  0  0  0  0
 27 26  1  0  0  0  0
 27 28  2  0  0  0  0
 28 29  1  0  0  0  0
 29 30  2  0  0  0  0
 29 33  1  0  0  0  0
 31 26  1  0  0  0  0
 32 27  1  0  0  0  0
 34 39  2  0  0  0  0
 34 35  1  0  0  0  0
 35 36  2  0  0  0  0
 36 37  1  0  0  0  0
 36 41  1  0  0  0  0
 38 42  1  0  0  0  0
 38 37  2  0  0  0  0
 39 38  1  0  0  0  0
 40 34  1  0  0  0  0
M  END
>  <minimizedAffinity>
-5.64625072

$$$$

 OpenBabel03272510143D

 42 45  0  0  0  0  0  0  0  0999 V2000
   36.4780   27.9810   31.9040 C   0  0  0  0  0  0  0  0  0  0  0  0
   36.1920   29.1880   31.2940 C   0  0  0  0  0  0  0  0  0  0  0  0
   35.8110   30.0720   32.2930 C   0  0  0  0  0  0  0  0  0  0  0  0
   35.8790   29.3870   33.4520 N   0  0  0  0  0  0  0  0  0  0  0  0
   36.2680   28.1670   33.2210 N   0  0  0  0  0  0  0  0  0  0  0  0
   36.1950   29.5760   30.2860 H   0  0  0  0  0  0  0  0  0  0  0  0
   35.5050   31.1210   32.2550 H   0  0  0  0  0  0  0  0  0  0  0  0
   35.5640   29.9230   34.7730 C   0  0  0  0  0  0  0  0  0  0  0  0
   34.7390   29.3690   35.2440 H   0  0  0  0  0  0  0  0  0  0  0  0
   36.4610   29.7130   35.4100 H   0  0  0  0  0  0  0  0  0  0  0  0
   35.3180   31.3940   34.6060 C   0  0  0  0  0  0  0  0  0  0  0  0
   34.2310   31.5260   34.4490 H   0  0  0  0  0  0  0  0  0  0  0  0
   35.9060   31.7720   33.7670 H   0  0  0  0  0  0  0  0  0  0  0  0
   35.6940   32.1620   35.8720 C   0  0  0  0  0  3  0  0  0  0  0  0
   34.6160   32.1230   36.9010 C   0  0  0  0  0  3  0  0  0  0  0  0
   33.7430   31.5820   36.4320 H   0  0  0  0  0  0  0  0  0  0  0  0
   34.1000   33.4430   37.3570 C   0  0  0  0  0  3  0  0  0  0  0  0
   33.8390   33.4010   38.4310 H   0  0  0  0  0  0  0  0  0  0  0  0
   35.0030   34.4980   37.2320 O   0  0  0  0  0  0  0  0  0  0  0  0
   35.2180   34.6220   35.8400 C   0  0  0  0  0  3  0  0  0  0  0  0
   35.6710   35.5840   35.5860 H   0  0  0  0  0  0  0  0  0  0  0  0
   36.2000   33.5160   35.5080 C   0  0  0  0  0  3  0  0  0  0  0  0
   36.3700   33.5600   34.4230 H   0  0  0  0  0  0  0  0  0  0  0  0
   36.8780   26.9820   31.0250 O   0  0  0  0  0  0  0  0  0  0  0  0
   36.1300   22.8860   31.6990 C   0  0  0  0  0  0  0  0  0  0  0  0
   35.1640   23.7170   31.2190 C   0  0  0  0  0  0  0  0  0  0  0  0
   35.3270   25.0640   30.9710 C   0  0  0  0  0  0  0  0  0  0  0  0
   36.5330   25.6520   31.2120 C   0  0  0  0  0  0  0  0  0  0  0  0
   37.5310   24.8120   31.7050 C   0  0  0  0  0  0  0  0  0  0  0  0
   37.3180   23.5030   31.9290 N   0  0  0  0  0  0  0  0  0  0  0  0
   34.1710   23.3420   30.9970 H   0  0  0  0  0  0  0  0  0  0  0  0
   34.5480   25.7130   30.5890 H   0  0  0  0  0  0  0  0  0  0  0  0
   38.5460   25.1180   31.9500 H   0  0  0  0  0  0  0  0  0  0  0  0
   35.6500   20.9520   33.1990 C   0  0  0  0  0  0  0  0  0  0  0  0
   35.9440   21.5010   31.9480 C   0  0  0  0  0  0  0  0  0  0  0  0
   36.0550   20.6070   30.9120 C   0  0  0  0  0  0  0  0  0  0  0  0
   35.8810   19.2660   31.1230 N   0  0  0  0  0  0  0  0  0  0  0  0
   35.5970   18.7980   32.3620 C   0  0  0  0  0  0  0  0  0  0  0  0
   35.4750   19.6370   33.4290 N   0  0  0  0  0  0  0  0  0  0  0  0
   35.5530   21.6170   34.0430 H   0  0  0  0  0  0  0  0  0  0  0  0
   36.2790   20.8810   29.8880 H   0  0  0  0  0  0  0  0  0  0  0  0
   35.4500   17.7570   32.5890 H   0  0  0  0  0  0  0  0  0  0  0  0
  1  5  2  0  0  0  0
  2  1  1  0  0  0  0
  2  3  2  0  0  0  0
  3  4  1  0  0  0  0
  4  8  1  0  0  0  0
  5  4  1  0  0  0  0
  6  2  1  0  0  0  0
  7  3  1  0  0  0  0
  8  9  1  0  0  0  0
  8 10  1  0  0  0  0
 11  8  1  0  0  0  0
 11 14  1  0  0  0  0
 12 11  1  0  0  0  0
 13 11  1  0  0  0  0
 14 15  1  0  0  0  0
 15 17  1  0  0  0  0
 16 15  1  0  0  0  0
 17 18  1  0  0  0  0
 19 17  1  0  0  0  0
 20 19  1  0  0  0  0
 21 20  1  0  0  0  0
 22 20  1  0  0  0  0
 22 14  1  0  0  0  0
 23 22  1  0  0  0  0
 24 28  1  0  0  0  0
 24  1  1  0  0  0  0
 25 30  1  0  0  0  0
 25 35  1  0  0  0  0
 26 25  2  0  0  0  0
 27 28  2  0  0  0  0
 27 26  1  0  0  0  0
 28 29  1  0  0  0  0
 29 30  2  0  0  0  0
 29 33  1  0  0  0  0
 31 26  1  0  0  0  0
 32 27  1  0  0  0  0
 34 39  1  0  0  0  0
 34 40  1  0  0  0  0
 35 34  2  0  0  0  0
 36 37  2  0  0  0  0
 36 35  1  0  0  0  0
 37 38  1  0  0  0  0
 38 42  1  0  0  0  0
 38 39  2  0  0  0  0
 41 36  1  0  0  0  0
M  END
>  <minimizedAffinity>
-5.61047888

$$$$

 OpenBabel03272510143D

 42 45  0  0  0  0  0  0  0  0999 V2000
   36.3980   26.2820   31.1770 C   0  0  0  0  0  0  0  0  0  0  0  0
   35.1370   25.7880   30.9070 C   0  0  0  0  0  0  0  0  0  0  0  0
   35.1920   24.4110   31.0690 C   0  0  0  0  0  0  0  0  0  0  0  0
   36.4590   24.1210   31.4260 N   0  0  0  0  0  0  0  0  0  0  0  0
   37.1600   25.2160   31.4880 N   0  0  0  0  0  0  0  0  0  0  0  0
   34.1810   26.1980   30.6170 H   0  0  0  0  0  0  0  0  0  0  0  0
   34.4280   23.6360   30.9570 H   0  0  0  0  0  0  0  0  0  0  0  0
   36.9780   22.7860   31.7020 C   0  0  0  0  0  0  0  0  0  0  0  0
   37.4430   22.3440   30.8100 H   0  0  0  0  0  0  0  0  0  0  0  0
   37.8160   22.9270   32.4320 H   0  0  0  0  0  0  0  0  0  0  0  0
   35.8490   21.9850   32.2830 C   0  0  0  0  0  0  0  0  0  0  0  0
   34.9570   22.6380   32.2910 H   0  0  0  0  0  0  0  0  0  0  0  0
   36.1190   21.6410   33.2840 H   0  0  0  0  0  0  0  0  0  0  0  0
   35.5230   20.7760   31.4070 C   0  0  0  0  0  3  0  0  0  0  0  0
   34.8570   19.6840   32.1720 C   0  0  0  0  0  3  0  0  0  0  0  0
   34.8340   20.0150   33.2520 H   0  0  0  0  0  0  0  0  0  0  0  0
   35.5380   18.3600   32.1500 C   0  0  0  0  0  3  0  0  0  0  0  0
   34.7910   17.5450   32.1510 H   0  0  0  0  0  0  0  0  0  0  0  0
   36.3400   18.1350   31.0320 O   0  0  0  0  0  0  0  0  0  0  0  0
   37.3670   19.1020   31.1260 C   0  0  0  0  0  3  0  0  0  0  0  0
   38.2140   18.8540   30.4820 H   0  0  0  0  0  0  0  0  0  0  0  0
   36.7280   20.3820   30.6240 C   0  0  0  0  0  3  0  0  0  0  0  0
   37.4900   21.1700   30.7110 H   0  0  0  0  0  0  0  0  0  0  0  0
   36.5060   27.6620   31.0560 O   0  0  0  0  0  0  0  0  0  0  0  0
   35.0570   30.1260   34.1560 C   0  0  0  0  0  0  0  0  0  0  0  0
   34.7560   30.3720   32.8510 C   0  0  0  0  0  0  0  0  0  0  0  0
   35.1870   29.6170   31.7810 C   0  0  0  0  0  0  0  0  0  0  0  0
   35.9800   28.5300   32.0010 C   0  0  0  0  0  0  0  0  0  0  0  0
   36.2970   28.2670   33.3330 C   0  0  0  0  0  0  0  0  0  0  0  0
   35.8480   29.0380   34.3400 N   0  0  0  0  0  0  0  0  0  0  0  0
   34.1320   31.2150   32.5760 H   0  0  0  0  0  0  0  0  0  0  0  0
   34.9400   29.8250   30.7470 H   0  0  0  0  0  0  0  0  0  0  0  0
   36.9150   27.4440   33.6820 H   0  0  0  0  0  0  0  0  0  0  0  0
   33.2830   30.9480   35.7060 C   0  0  0  0  0  0  0  0  0  0  0  0
   34.6020   30.9150   35.2460 C   0  0  0  0  0  0  0  0  0  0  0  0
   35.4920   31.7150   35.9180 C   0  0  0  0  0  0  0  0  0  0  0  0
   35.0810   32.4870   36.9720 N   0  0  0  0  0  0  0  0  0  0  0  0
   33.7860   32.4730   37.3690 C   0  0  0  0  0  0  0  0  0  0  0  0
   32.8580   31.6980   36.7390 N   0  0  0  0  0  0  0  0  0  0  0  0
   32.5480   30.3350   35.2080 H   0  0  0  0  0  0  0  0  0  0  0  0
   36.5460   31.7960   35.6780 H   0  0  0  0  0  0  0  0  0  0  0  0
   33.4050   33.0560   38.1870 H   0  0  0  0  0  0  0  0  0  0  0  0
  1  5  2  0  0  0  0
  2  3  2  0  0  0  0
  2  1  1  0  0  0  0
  3  4  1  0  0  0  0
  4  5  1  0  0  0  0
  4  8  1  0  0  0  0
  6  2  1  0  0  0  0
  7  3  1  0  0  0  0
  8 11  1  0  0  0  0
  8 10  1  0  0  0  0
  9  8  1  0  0  0  0
 11 12  1  0  0  0  0
 11 13  1  0  0  0  0
 14 15  1  0  0  0  0
 14 11  1  0  0  0  0
 15 16  1  0  0  0  0
 17 18  1  0  0  0  0
 17 15  1  0  0  0  0
 19 20  1  0  0  0  0
 19 17  1  0  0  0  0
 21 20  1  0  0  0  0
 22 23  1  0  0  0  0
 22 20  1  0  0  0  0
 22 14  1  0  0  0  0
 24  1  1  0  0  0  0
 24 28  1  0  0  0  0
 25 30  1  0  0  0  0
 25 35  1  0  0  0  0
 26 25  2  0  0  0  0
 27 28  2  0  0  0  0
 27 26  1  0  0  0  0
 28 29  1  0  0  0  0
 29 33  1  0  0  0  0
 29 30  2  0  0  0  0
 31 26  1  0  0  0  0
 32 27  1  0  0  0  0
 34 39  1  0  0  0  0
 35 34  2  0  0  0  0
 35 36  1  0  0  0  0
 36 37  2  0  0  0  0
 37 38  1  0  0  0  0
 38 42  1  0  0  0  0
 39 38  2  0  0  0  0
 40 34  1  0  0  0  0
 41 36  1  0  0  0  0
M  END
>  <minimizedAffinity>
-5.56113148

$$$$

 OpenBabel03272510143D

 42 45  0  0  0  0  0  0  0  0999 V2000
   36.2080   26.0890   31.2030 C   0  0  0  0  0  0  0  0  0  0  0  0
   35.1150   25.2680   31.0010 C   0  0  0  0  0  0  0  0  0  0  0  0
   35.5550   23.9590   31.1270 C   0  0  0  0  0  0  0  0  0  0  0  0
   36.8740   24.0270   31.3970 N   0  0  0  0  0  0  0  0  0  0  0  0
   37.2520   25.2720   31.4400 N   0  0  0  0  0  0  0  0  0  0  0  0
   34.0650   25.4020   30.7810 H   0  0  0  0  0  0  0  0  0  0  0  0
   35.0270   23.0050   31.0450 H   0  0  0  0  0  0  0  0  0  0  0  0
   37.7560   22.8840   31.6090 C   0  0  0  0  0  0  0  0  0  0  0  0
   37.6740   22.1560   30.7890 H   0  0  0  0  0  0  0  0  0  0  0  0
   38.8000   23.2850   31.5420 H   0  0  0  0  0  0  0  0  0  0  0  0
   37.4460   22.3330   32.9710 C   0  0  0  0  0  0  0  0  0  0  0  0
   36.5870   22.9050   33.3650 H   0  0  0  0  0  0  0  0  0  0  0  0
   38.3280   22.4170   33.6100 H   0  0  0  0  0  0  0  0  0  0  0  0
   37.0220   20.8680   32.8880 C   0  0  0  0  0  3  0  0  0  0  0  0
   37.3540   20.2540   31.5710 C   0  0  0  0  0  3  0  0  0  0  0  0
   37.7790   21.0810   30.9290 H   0  0  0  0  0  0  0  0  0  0  0  0
   36.2110   19.6750   30.8130 C   0  0  0  0  0  3  0  0  0  0  0  0
   36.5360   18.7730   30.2610 H   0  0  0  0  0  0  0  0  0  0  0  0
   35.1360   19.2650   31.6000 O   0  0  0  0  0  0  0  0  0  0  0  0
   34.6500   20.4550   32.1910 C   0  0  0  0  0  3  0  0  0  0  0  0
   33.6440   20.3230   32.5950 H   0  0  0  0  0  0  0  0  0  0  0  0
   35.6060   20.7270   33.3350 C   0  0  0  0  0  3  0  0  0  0  0  0
   35.2800   21.6670   33.8030 H   0  0  0  0  0  0  0  0  0  0  0  0
   35.9250   27.4460   31.1070 O   0  0  0  0  0  0  0  0  0  0  0  0
   34.9070   29.9700   34.3290 C   0  0  0  0  0  0  0  0  0  0  0  0
   35.8990   29.0430   34.4350 C   0  0  0  0  0  0  0  0  0  0  0  0
   36.2940   28.1830   33.4320 C   0  0  0  0  0  0  0  0  0  0  0  0
   35.6670   28.2280   32.2220 C   0  0  0  0  0  0  0  0  0  0  0  0
   34.6480   29.1720   32.0990 C   0  0  0  0  0  0  0  0  0  0  0  0
   34.3040   29.9880   33.1120 N   0  0  0  0  0  0  0  0  0  0  0  0
   36.4560   28.9320   35.3590 H   0  0  0  0  0  0  0  0  0  0  0  0
   37.0850   27.4500   33.5320 H   0  0  0  0  0  0  0  0  0  0  0  0
   34.0490   29.3390   31.2070 H   0  0  0  0  0  0  0  0  0  0  0  0
   35.3770   31.7240   36.0380 C   0  0  0  0  0  0  0  0  0  0  0  0
   34.5160   30.8480   35.3730 C   0  0  0  0  0  0  0  0  0  0  0  0
   33.2060   30.8660   35.7860 C   0  0  0  0  0  0  0  0  0  0  0  0
   32.8020   31.7030   36.7910 N   0  0  0  0  0  0  0  0  0  0  0  0
   33.6890   32.5280   37.3960 C   0  0  0  0  0  0  0  0  0  0  0  0
   35.0010   32.5540   37.0280 N   0  0  0  0  0  0  0  0  0  0  0  0
   36.4160   31.7450   35.7460 H   0  0  0  0  0  0  0  0  0  0  0  0
   32.4230   30.2450   35.3670 H   0  0  0  0  0  0  0  0  0  0  0  0
   33.4300   33.2060   38.1890 H   0  0  0  0  0  0  0  0  0  0  0  0
  1  5  2  0  0  0  0
  2  3  2  0  0  0  0
  2  1  1  0  0  0  0
  3  4  1  0  0  0  0
  4  5  1  0  0  0  0
  4  8  1  0  0  0  0
  6  2  1  0  0  0  0
  7  3  1  0  0  0  0
  8 11  1  0  0  0  0
  9  8  1  0  0  0  0
 10  8  1  0  0  0  0
 11 12  1  0  0  0  0
 11 13  1  0  0  0  0
 14 11  1  0  0  0  0
 14 22  1  0  0  0  0
 15 14  1  0  0  0  0
 16 15  1  0  0  0  0
 17 15  1  0  0  0  0
 17 19  1  0  0  0  0
 18 17  1  0  0  0  0
 19 20  1  0  0  0  0
 20 21  1  0  0  0  0
 20 22  1  0  0  0  0
 22 23  1  0  0  0  0
 24  1  1  0  0  0  0
 24 28  1  0  0  0  0
 25 26  1  0  0  0  0
 25 35  1  0  0  0  0
 26 31  1  0  0  0  0
 27 32  1  0  0  0  0
 27 26  2  0  0  0  0
 28 27  1  0  0  0  0
 29 28  2  0  0  0  0
 29 30  1  0  0  0  0
 30 25  2  0  0  0  0
 33 29  1  0  0  0  0
 34 39  1  0  0  0  0
 35 36  1  0  0  0  0
 35 34  2  0  0  0  0
 36 37  2  0  0  0  0
 37 38  1  0  0  0  0
 38 42  1  0  0  0  0
 39 38  2  0  0  0  0
 40 34  1  0  0  0  0
 41 36  1  0  0  0  0
M  END
>  <minimizedAffinity>
-5.53946161

$$$$

 OpenBabel03272510143D

 42 45  0  0  0  0  0  0  0  0999 V2000
   35.5690   28.5810   31.8850 C   0  0  0  0  0  0  0  0  0  0  0  0
   35.9170   29.7020   31.1570 C   0  0  0  0  0  0  0  0  0  0  0  0
   34.9180   30.6450   31.3540 C   0  0  0  0  0  0  0  0  0  0  0  0
   34.0170   30.0770   32.1790 N   0  0  0  0  0  0  0  0  0  0  0  0
   34.4000   28.8720   32.4870 N   0  0  0  0  0  0  0  0  0  0  0  0
   36.7320   29.9940   30.5100 H   0  0  0  0  0  0  0  0  0  0  0  0
   34.7950   31.6610   30.9690 H   0  0  0  0  0  0  0  0  0  0  0  0
   32.7930   30.7070   32.6610 C   0  0  0  0  0  0  0  0  0  0  0  0
   32.1550   31.0350   31.8270 H   0  0  0  0  0  0  0  0  0  0  0  0
   32.2120   29.8980   33.1740 H   0  0  0  0  0  0  0  0  0  0  0  0
   33.2000   31.8000   33.6060 C   0  0  0  0  0  0  0  0  0  0  0  0
   32.2840   32.3570   33.8740 H   0  0  0  0  0  0  0  0  0  0  0  0
   33.9480   32.4380   33.1300 H   0  0  0  0  0  0  0  0  0  0  0  0
   33.7790   31.2230   34.8970 C   0  0  0  0  0  3  0  0  0  0  0  0
   32.8770   31.4300   36.0660 C   0  0  0  0  0  3  0  0  0  0  0  0
   32.0060   32.0460   35.6940 H   0  0  0  0  0  0  0  0  0  0  0  0
   33.4580   32.1710   37.2180 C   0  0  0  0  0  3  0  0  0  0  0  0
   33.0610   31.7720   38.1700 H   0  0  0  0  0  0  0  0  0  0  0  0
   34.8460   32.0860   37.3260 O   0  0  0  0  0  0  0  0  0  0  0  0
   35.3360   32.7240   36.1630 C   0  0  0  0  0  3  0  0  0  0  0  0
   36.3930   32.9840   36.2610 H   0  0  0  0  0  0  0  0  0  0  0  0
   35.1860   31.6850   35.0700 C   0  0  0  0  0  3  0  0  0  0  0  0
   35.5290   32.1560   34.1380 H   0  0  0  0  0  0  0  0  0  0  0  0
   36.4800   27.5350   31.7880 O   0  0  0  0  0  0  0  0  0  0  0  0
   38.0360   25.2970   35.0060 C   0  0  0  0  0  0  0  0  0  0  0  0
   37.6940   26.6070   35.1490 C   0  0  0  0  0  0  0  0  0  0  0  0
   37.1790   27.4070   34.1510 C   0  0  0  0  0  0  0  0  0  0  0  0
   36.9830   26.8870   32.9060 C   0  0  0  0  0  0  0  0  0  0  0  0
   37.3290   25.5460   32.7450 C   0  0  0  0  0  0  0  0  0  0  0  0
   37.8280   24.8110   33.7550 N   0  0  0  0  0  0  0  0  0  0  0  0
   37.8140   27.1100   36.1020 H   0  0  0  0  0  0  0  0  0  0  0  0
   36.9110   28.4490   34.2790 H   0  0  0  0  0  0  0  0  0  0  0  0
   37.2370   24.9790   31.8220 H   0  0  0  0  0  0  0  0  0  0  0  0
   39.6920   23.6740   35.9240 C   0  0  0  0  0  0  0  0  0  0  0  0
   38.5640   24.4880   36.0470 C   0  0  0  0  0  0  0  0  0  0  0  0
   37.9490   24.4800   37.2740 C   0  0  0  0  0  0  0  0  0  0  0  0
   38.4360   23.7100   38.2960 N   0  0  0  0  0  0  0  0  0  0  0  0
   39.5360   22.9410   38.1100 C   0  0  0  0  0  0  0  0  0  0  0  0
   40.1880   22.9080   36.9140 N   0  0  0  0  0  0  0  0  0  0  0  0
   40.2080   23.6480   34.9760 H   0  0  0  0  0  0  0  0  0  0  0  0
   37.0670   25.0590   37.5210 H   0  0  0  0  0  0  0  0  0  0  0  0
   39.9640   22.3160   38.8730 H   0  0  0  0  0  0  0  0  0  0  0  0
  1  5  2  0  0  0  0
  2  3  2  0  0  0  0
  2  1  1  0  0  0  0
  3  4  1  0  0  0  0
  4  5  1  0  0  0  0
  4  8  1  0  0  0  0
  6  2  1  0  0  0  0
  7  3  1  0  0  0  0
  8 10  1  0  0  0  0
  8 11  1  0  0  0  0
  9  8  1  0  0  0  0
 11 12  1  0  0  0  0
 11 14  1  0  0  0  0
 13 11  1  0  0  0  0
 14 22  1  0  0  0  0
 14 15  1  0  0  0  0
 15 17  1  0  0  0  0
 16 15  1  0  0  0  0
 17 19  1  0  0  0  0
 17 18  1  0  0  0  0
 20 21  1  0  0  0  0
 20 19  1  0  0  0  0
 22 20  1  0  0  0  0
 23 22  1  0  0  0  0
 24  1  1  0  0  0  0
 24 28  1  0  0  0  0
 25 26  1  0  0  0  0
 25 35  1  0  0  0  0
 26 31  1  0  0  0  0
 27 32  1  0  0  0  0
 27 26  2  0  0  0  0
 28 27  1  0  0  0  0
 29 28  2  0  0  0  0
 29 30  1  0  0  0  0
 30 25  2  0  0  0  0
 33 29  1  0  0  0  0
 34 35  2  0  0  0  0
 34 39  1  0  0  0  0
 35 36  1  0  0  0  0
 36 41  1  0  0  0  0
 36 37  2  0  0  0  0
 38 37  1  0  0  0  0
 38 42  1  0  0  0  0
 39 38  2  0  0  0  0
 40 34  1  0  0  0  0
M  END
>  <minimizedAffinity>
-5.5290904

$$$$

 OpenBabel03272510143D

 42 45  0  0  0  0  0  0  0  0999 V2000
   36.0850   27.8900   32.6170 C   0  0  0  0  0  0  0  0  0  0  0  0
   36.3380   28.2730   33.9200 C   0  0  0  0  0  0  0  0  0  0  0  0
   35.3690   29.2020   34.2710 C   0  0  0  0  0  0  0  0  0  0  0  0
   34.5750   29.3470   33.1910 N   0  0  0  0  0  0  0  0  0  0  0  0
   34.9960   28.5800   32.2280 N   0  0  0  0  0  0  0  0  0  0  0  0
   37.0700   28.0330   34.6780 H   0  0  0  0  0  0  0  0  0  0  0  0
   35.1970   29.7550   35.1980 H   0  0  0  0  0  0  0  0  0  0  0  0
   33.4160   30.2300   33.1050 C   0  0  0  0  0  0  0  0  0  0  0  0
   33.4460   31.0080   33.8810 H   0  0  0  0  0  0  0  0  0  0  0  0
   33.5210   30.7790   32.1330 H   0  0  0  0  0  0  0  0  0  0  0  0
   32.1940   29.3590   33.1350 C   0  0  0  0  0  0  0  0  0  0  0  0
   32.5420   28.3120   33.2020 H   0  0  0  0  0  0  0  0  0  0  0  0
   31.5920   29.5390   32.2420 H   0  0  0  0  0  0  0  0  0  0  0  0
   31.3490   29.6400   34.3760 C   0  0  0  0  0  3  0  0  0  0  0  0
   31.9370   30.7080   35.2340 C   0  0  0  0  0  3  0  0  0  0  0  0
   32.9270   30.9880   34.7660 H   0  0  0  0  0  0  0  0  0  0  0  0
   32.2290   30.3280   36.6430 C   0  0  0  0  0  3  0  0  0  0  0  0
   32.0490   31.1880   37.3160 H   0  0  0  0  0  0  0  0  0  0  0  0
   31.4430   29.2900   37.1430 O   0  0  0  0  0  0  0  0  0  0  0  0
   31.7900   28.1680   36.3560 C   0  0  0  0  0  3  0  0  0  0  0  0
   31.4700   27.2330   36.8220 H   0  0  0  0  0  0  0  0  0  0  0  0
   31.0210   28.3590   35.0640 C   0  0  0  0  0  3  0  0  0  0  0  0
   31.2900   27.5180   34.4090 H   0  0  0  0  0  0  0  0  0  0  0  0
   36.9810   26.9530   32.1160 O   0  0  0  0  0  0  0  0  0  0  0  0
   36.2450   22.8020   31.9790 C   0  0  0  0  0  0  0  0  0  0  0  0
   35.4860   23.6840   31.2720 C   0  0  0  0  0  0  0  0  0  0  0  0
   35.6610   25.0520   31.2610 C   0  0  0  0  0  0  0  0  0  0  0  0
   36.6590   25.6090   32.0040 C   0  0  0  0  0  0  0  0  0  0  0  0
   37.4440   24.7170   32.7340 C   0  0  0  0  0  0  0  0  0  0  0  0
   37.2300   23.3890   32.7080 N   0  0  0  0  0  0  0  0  0  0  0  0
   34.6680   23.3360   30.6510 H   0  0  0  0  0  0  0  0  0  0  0  0
   35.0480   25.7410   30.6930 H   0  0  0  0  0  0  0  0  0  0  0  0
   38.2770   24.9930   33.3750 H   0  0  0  0  0  0  0  0  0  0  0  0
   36.2320   20.5720   30.8640 C   0  0  0  0  0  0  0  0  0  0  0  0
   36.0510   21.3960   31.9770 C   0  0  0  0  0  0  0  0  0  0  0  0
   35.6560   20.7670   33.1320 C   0  0  0  0  0  0  0  0  0  0  0  0
   35.4610   19.4120   33.1580 N   0  0  0  0  0  0  0  0  0  0  0  0
   35.6540   18.6690   32.0430 C   0  0  0  0  0  0  0  0  0  0  0  0
   36.0460   19.2390   30.8680 N   0  0  0  0  0  0  0  0  0  0  0  0
   36.5430   21.0220   29.9340 H   0  0  0  0  0  0  0  0  0  0  0  0
   35.4750   21.2710   34.0740 H   0  0  0  0  0  0  0  0  0  0  0  0
   35.5170   17.6030   32.0020 H   0  0  0  0  0  0  0  0  0  0  0  0
  1  2  1  0  0  0  0
  2  3  2  0  0  0  0
  2  6  1  0  0  0  0
  3  7  1  0  0  0  0
  4  3  1  0  0  0  0
  5  1  2  0  0  0  0
  5  4  1  0  0  0  0
  8 11  1  0  0  0  0
  8  4  1  0  0  0  0
  8  9  1  0  0  0  0
 10  8  1  0  0  0  0
 11 12  1  0  0  0  0
 11 14  1  0  0  0  0
 13 11  1  0  0  0  0
 14 22  1  0  0  0  0
 14 15  1  0  0  0  0
 15 17  1  0  0  0  0
 16 15  1  0  0  0  0
 17 19  1  0  0  0  0
 17 18  1  0  0  0  0
 20 21  1  0  0  0  0
 20 19  1  0  0  0  0
 22 20  1  0  0  0  0
 23 22  1  0  0  0  0
 24  1  1  0  0  0  0
 25 30  1  0  0  0  0
 26 25  2  0  0  0  0
 27 26  1  0  0  0  0
 27 28  2  0  0  0  0
 28 24  1  0  0  0  0
 28 29  1  0  0  0  0
 29 33  1  0  0  0  0
 30 29  2  0  0  0  0
 31 26  1  0  0  0  0
 32 27  1  0  0  0  0
 34 39  2  0  0  0  0
 34 35  1  0  0  0  0
 35 25  1  0  0  0  0
 35 36  2  0  0  0  0
 36 37  1  0  0  0  0
 36 41  1  0  0  0  0
 38 37  2  0  0  0  0
 39 38  1  0  0  0  0
 40 34  1  0  0  0  0
 42 38  1  0  0  0  0
M  END
>  <minimizedAffinity>
-5.52720928

$$$$
