
 OpenBabel03272509433D

 39 41  0  0  1  0  0  0  0  0999 V2000
   37.0520   30.9260   49.0690 C   0  0  0  0  0  0  0  0  0  0  0  0
   36.7630   31.8380   50.0880 C   0  0  0  0  0  0  0  0  0  0  0  0
   37.3480   33.0950   50.1280 C   0  0  0  0  0  0  0  0  0  0  0  0
   38.2490   33.4690   49.1300 C   0  0  0  0  0  0  0  0  0  0  0  0
   38.5190   32.5640   48.1410 C   0  0  0  0  0  0  0  0  0  0  0  0
   37.9190   31.3160   48.1290 C   0  0  0  0  0  0  0  0  0  0  0  0
   36.0520   31.5080   50.8530 H   0  0  0  0  0  0  0  0  0  0  0  0
   37.0370   33.6940   50.9680 H   0  0  0  0  0  0  0  0  0  0  0  0
   38.6630   34.4620   49.2290 H   0  0  0  0  0  0  0  0  0  0  0  0
   39.2390   32.9940   47.4360 H   0  0  0  0  0  0  0  0  0  0  0  0
   36.4700   29.6020   49.0460 C   0  0  2  0  0  0  0  0  0  0  0  0
   36.9670   29.0690   48.1470 H   0  0  0  0  0  0  0  0  0  0  0  0
   33.6020   29.9530   46.8400 C   0  0  0  0  0  0  0  0  0  0  0  0
   32.8600   28.8110   47.0720 C   0  0  0  0  0  0  0  0  0  0  0  0
   33.3050   27.9300   48.0410 C   0  0  0  0  0  0  0  0  0  0  0  0
   34.4610   28.2160   48.7330 N   0  0  0  0  0  0  0  0  0  0  0  0
   35.1260   29.3210   48.4640 C   0  0  0  0  0  0  0  0  0  0  0  0
   34.7060   30.1920   47.5250 N   0  0  0  0  0  0  0  0  0  0  0  0
   33.2850   30.6760   46.0840 H   0  0  0  0  0  0  0  0  0  0  0  0
   31.9750   28.6910   46.4700 H   0  0  0  0  0  0  0  0  0  0  0  0
   32.7200   27.0390   48.2200 H   0  0  0  0  0  0  0  0  0  0  0  0
   36.9460   28.8340   49.9610 O   0  0  0  0  0  0  0  0  0  0  0  0
   36.7410   28.9400   50.9140 H   0  0  0  0  0  0  0  0  0  0  0  0
   38.3210   30.4500   47.0440 C   0  0  0  0  0  3  0  0  0  0  0  0
   38.8970   30.8880   45.9190 C   0  0  0  0  0  3  0  0  0  0  0  0
   39.3890   30.0920   44.7700 C   0  0  0  0  0  0  0  0  0  0  0  0
   40.4110   30.4880   44.5220 H   0  0  0  0  0  0  0  0  0  0  0  0
   39.4610   29.0340   45.0560 H   0  0  0  0  0  0  0  0  0  0  0  0
   38.3570   30.3970   43.3340 S   0  0  0  0  0  0  0  0  0  0  0  0
   39.1730   29.9310   41.7880 C   0  0  0  0  0  3  0  0  0  0  0  0
   40.3890   30.7720   41.5820 C   0  0  0  0  0  3  0  0  0  0  0  0
   40.2400   31.8380   41.8320 H   0  0  0  0  0  0  0  0  0  0  0  0
   40.9970   30.6740   40.2250 C   0  0  0  0  0  3  0  0  0  0  0  0
   41.6880   29.7890   40.2080 H   0  0  0  0  0  0  0  0  0  0  0  0
   40.1170   30.5750   39.1770 O   0  0  0  0  0  0  0  0  0  0  0  0
   38.8000   30.8440   39.4730 C   0  0  0  0  0  3  0  0  0  0  0  0
   38.2140   30.5160   38.5670 H   0  0  0  0  0  0  0  0  0  0  0  0
   38.2500   30.0740   40.6250 C   0  0  0  0  0  3  0  0  0  0  0  0
   37.3120   30.6000   40.9680 H   0  0  0  0  0  0  0  0  0  0  0  0
  1  2  1  0  0  0  0
  2  3  2  0  0  0  0
  2  7  1  0  0  0  0
  3  8  1  0  0  0  0
  4  9  1  0  0  0  0
  4  3  1  0  0  0  0
  5  4  2  0  0  0  0
  6  5  1  0  0  0  0
  6  1  2  0  0  0  0
 10  5  1  0  0  0  0
 11 12  1  6  0  0  0
 11  1  1  0  0  0  0
 11 22  1  0  0  0  0
 13 14  2  0  0  0  0
 13 18  1  0  0  0  0
 14 15  1  0  0  0  0
 15 21  1  0  0  0  0
 15 16  2  0  0  0  0
 17 16  1  0  0  0  0
 17 11  1  0  0  0  0
 18 17  2  0  0  0  0
 19 13  1  0  0  0  0
 20 14  1  0  0  0  0
 22 23  1  0  0  0  0
 24  6  1  0  0  0  0
 25 24  2  0  0  0  0
 26 28  1  0  0  0  0
 26 25  1  0  0  0  0
 27 26  1  0  0  0  0
 29 26  1  0  0  0  0
 30 29  1  0  0  0  0
 31 30  1  0  0  0  0
 31 32  1  0  0  0  0
 33 31  1  0  0  0  0
 34 33  1  0  0  0  0
 35 36  1  0  0  0  0
 35 33  1  0  0  0  0
 36 38  1  0  0  0  0
 37 36  1  0  0  0  0
 38 39  1  0  0  0  0
 38 30  1  0  0  0  0
M  END
>  <minimizedAffinity>
-5.50687265

>  <minimizedRMSD>
0.436286479

$$$$
