
 OpenBabel03272508573D

 41 44  0  0  1  0  0  0  0  0999 V2000
   39.1220   31.4900   43.2940 C   0  0  0  0  0  0  0  0  0  0  0  0
   40.1330   30.5690   43.4390 C   0  0  0  0  0  0  0  0  0  0  0  0
   40.8550   30.2260   42.3040 C   0  0  0  0  0  0  0  0  0  0  0  0
   40.5110   30.8320   41.1100 C   0  0  0  0  0  0  0  0  0  0  0  0
   39.4860   31.7630   40.9700 C   0  0  0  0  0  0  0  0  0  0  0  0
   38.8130   32.0640   42.0970 N   0  0  0  0  0  0  0  0  0  0  0  0
   40.3920   30.1030   44.3790 H   0  0  0  0  0  0  0  0  0  0  0  0
   41.6510   29.5120   42.3740 H   0  0  0  0  0  0  0  0  0  0  0  0
   41.0560   30.5860   40.2070 H   0  0  0  0  0  0  0  0  0  0  0  0
   38.3380   31.8900   44.4810 C   0  0  0  0  0  0  0  0  0  0  0  0
   37.2490   32.4630   44.3940 O   0  0  0  0  0  0  0  0  0  0  0  0
   38.9190   31.5740   45.7800 N   0  0  0  0  0  0  0  0  0  0  0  0
   39.8940   31.2730   45.9320 H   0  0  0  0  0  0  0  0  0  0  0  0
   38.4300   31.0720   48.1660 C   0  0  2  0  0  0  0  0  0  0  0  0
   38.6880   32.5340   48.0840 C   0  0  0  0  0  0  0  0  0  0  0  0
   38.0580   31.6950   46.9380 C   0  0  1  0  0  0  0  0  0  0  0  0
   39.3560   30.4640   48.2480 H   0  0  0  0  0  0  0  0  0  0  0  0
   38.0330   33.2500   48.6050 H   0  0  0  0  0  0  0  0  0  0  0  0
   39.7070   32.8960   47.9410 H   0  0  0  0  0  0  0  0  0  0  0  0
   36.9910   31.9620   46.7510 H   0  0  0  0  0  0  0  0  0  0  0  0
   35.0700   30.2320   49.5060 C   0  0  0  0  0  0  0  0  0  0  0  0
   35.4020   29.5490   50.7220 C   0  0  0  0  0  0  0  0  0  0  0  0
   36.7880   29.4020   51.0550 C   0  0  0  0  0  0  0  0  0  0  0  0
   37.7480   29.9110   50.2130 N   0  0  0  0  0  0  0  0  0  0  0  0
   37.3520   30.5440   49.0800 C   0  0  0  0  0  0  0  0  0  0  0  0
   36.0290   30.7240   48.6950 N   0  0  0  0  0  0  0  0  0  0  0  0
   34.0120   30.3150   49.3020 H   0  0  0  0  0  0  0  0  0  0  0  0
   34.6420   29.1540   51.3740 H   0  0  0  0  0  0  0  0  0  0  0  0
   37.0500   28.8890   51.9690 H   0  0  0  0  0  0  0  0  0  0  0  0
   39.1780   32.3590   39.6750 C   0  0  0  0  0  0  0  0  0  0  0  0
   38.8810   33.5760   39.6330 O   0  0  0  0  0  0  0  0  0  0  0  0
   39.1780   31.6770   38.3830 C   0  0  0  0  0  3  0  0  0  0  0  0
   39.0070   32.7610   37.3130 C   0  0  0  0  0  3  0  0  0  0  0  0
   39.8130   33.4900   37.5190 H   0  0  0  0  0  0  0  0  0  0  0  0
   39.0770   32.1650   35.9390 C   0  0  0  0  0  3  0  0  0  0  0  0
   40.1060   31.8380   35.6930 H   0  0  0  0  0  0  0  0  0  0  0  0
   38.1300   31.1660   35.8330 O   0  0  0  0  0  0  0  0  0  0  0  0
   38.2980   30.1390   36.7450 C   0  0  0  0  0  3  0  0  0  0  0  0
   39.3930   29.8730   36.6880 H   0  0  0  0  0  0  0  0  0  0  0  0
   38.0960   30.6740   38.1690 C   0  0  0  0  0  3  0  0  0  0  0  0
   37.0780   31.0700   38.2300 H   0  0  0  0  0  0  0  0  0  0  0  0
  1  2  1  0  0  0  0
  1 10  1  0  0  0  0
  2  7  1  0  0  0  0
  3  8  1  0  0  0  0
  3  2  2  0  0  0  0
  4  3  1  0  0  0  0
  5  4  2  0  0  0  0
  5  6  1  0  0  0  0
  6  1  2  0  0  0  0
  9  4  1  0  0  0  0
 10 12  1  0  0  0  0
 11 10  2  0  0  0  0
 12 13  1  0  0  0  0
 12 16  1  0  0  0  0
 14 17  1  6  0  0  0
 14 25  1  0  0  0  0
 15 14  1  0  0  0  0
 15 18  1  0  0  0  0
 16 20  1  6  0  0  0
 16 15  1  0  0  0  0
 16 14  1  0  0  0  0
 19 15  1  0  0  0  0
 21 22  1  0  0  0  0
 22 23  2  0  0  0  0
 22 28  1  0  0  0  0
 23 29  1  0  0  0  0
 24 23  1  0  0  0  0
 25 24  2  0  0  0  0
 26 25  1  0  0  0  0
 26 21  2  0  0  0  0
 27 21  1  0  0  0  0
 30  5  1  0  0  0  0
 31 30  2  0  0  0  0
 32 30  1  0  0  0  0
 33 34  1  0  0  0  0
 33 32  1  0  0  0  0
 35 33  1  0  0  0  0
 36 35  1  0  0  0  0
 37 35  1  0  0  0  0
 37 38  1  0  0  0  0
 38 40  1  0  0  0  0
 39 38  1  0  0  0  0
 40 41  1  0  0  0  0
 40 32  1  0  0  0  0
M  END
>  <minimizedAffinity>
-4.85828543

>  <minimizedRMSD>
0.25473094

$$$$
