
 OpenBabel03272508583D

 41 44  0  0  1  0  0  0  0  0999 V2000
   39.1160   31.4950   43.2980 C   0  0  0  0  0  0  0  0  0  0  0  0
   40.1120   30.5570   43.4360 C   0  0  0  0  0  0  0  0  0  0  0  0
   40.8340   30.2170   42.3000 C   0  0  0  0  0  0  0  0  0  0  0  0
   40.5030   30.8420   41.1120 C   0  0  0  0  0  0  0  0  0  0  0  0
   39.4930   31.7900   40.9790 C   0  0  0  0  0  0  0  0  0  0  0  0
   38.8210   32.0880   42.1080 N   0  0  0  0  0  0  0  0  0  0  0  0
   40.3600   30.0760   44.3710 H   0  0  0  0  0  0  0  0  0  0  0  0
   41.6180   29.4900   42.3640 H   0  0  0  0  0  0  0  0  0  0  0  0
   41.0470   30.5990   40.2080 H   0  0  0  0  0  0  0  0  0  0  0  0
   38.3340   31.8930   44.4880 C   0  0  0  0  0  0  0  0  0  0  0  0
   37.2440   32.4670   44.4030 O   0  0  0  0  0  0  0  0  0  0  0  0
   38.9160   31.5740   45.7850 N   0  0  0  0  0  0  0  0  0  0  0  0
   39.8910   31.2720   45.9350 H   0  0  0  0  0  0  0  0  0  0  0  0
   38.4300   31.0690   48.1710 C   0  0  2  0  0  0  0  0  0  0  0  0
   38.6880   32.5310   48.0900 C   0  0  0  0  0  0  0  0  0  0  0  0
   38.0570   31.6920   46.9440 C   0  0  1  0  0  0  0  0  0  0  0  0
   39.3570   30.4610   48.2510 H   0  0  0  0  0  0  0  0  0  0  0  0
   38.0320   33.2450   48.6140 H   0  0  0  0  0  0  0  0  0  0  0  0
   39.7060   32.8930   47.9470 H   0  0  0  0  0  0  0  0  0  0  0  0
   36.9890   31.9590   46.7590 H   0  0  0  0  0  0  0  0  0  0  0  0
   35.0730   30.2220   49.5130 C   0  0  0  0  0  0  0  0  0  0  0  0
   35.4060   29.5390   50.7280 C   0  0  0  0  0  0  0  0  0  0  0  0
   36.7930   29.3950   51.0600 C   0  0  0  0  0  0  0  0  0  0  0  0
   37.7510   29.9060   50.2180 N   0  0  0  0  0  0  0  0  0  0  0  0
   37.3540   30.5390   49.0860 C   0  0  0  0  0  0  0  0  0  0  0  0
   36.0300   30.7160   48.7010 N   0  0  0  0  0  0  0  0  0  0  0  0
   34.0140   30.3030   49.3090 H   0  0  0  0  0  0  0  0  0  0  0  0
   34.6470   29.1430   51.3810 H   0  0  0  0  0  0  0  0  0  0  0  0
   37.0560   28.8830   51.9750 H   0  0  0  0  0  0  0  0  0  0  0  0
   39.2000   32.4070   39.6910 C   0  0  0  0  0  0  0  0  0  0  0  0
   38.7740   33.5860   39.6750 O   0  0  0  0  0  0  0  0  0  0  0  0
   39.3510   31.7870   38.3770 C   0  0  0  0  0  3  0  0  0  0  0  0
   40.4770   32.5410   37.6600 C   0  0  0  0  0  3  0  0  0  0  0  0
   41.3330   32.5010   38.3590 H   0  0  0  0  0  0  0  0  0  0  0  0
   40.7630   31.9210   36.3250 C   0  0  0  0  0  3  0  0  0  0  0  0
   41.2560   30.9360   36.4350 H   0  0  0  0  0  0  0  0  0  0  0  0
   39.5970   31.8860   35.5860 O   0  0  0  0  0  0  0  0  0  0  0  0
   38.5830   31.1550   36.1780 C   0  0  0  0  0  3  0  0  0  0  0  0
   39.0680   30.1860   36.4960 H   0  0  0  0  0  0  0  0  0  0  0  0
   38.1550   31.8320   37.4870 C   0  0  0  0  0  3  0  0  0  0  0  0
   37.8010   32.8360   37.2370 H   0  0  0  0  0  0  0  0  0  0  0  0
  1  2  1  0  0  0  0
  1 10  1  0  0  0  0
  2  7  1  0  0  0  0
  3  8  1  0  0  0  0
  3  2  2  0  0  0  0
  4  3  1  0  0  0  0
  5  4  2  0  0  0  0
  5  6  1  0  0  0  0
  6  1  2  0  0  0  0
  9  4  1  0  0  0  0
 10 12  1  0  0  0  0
 11 10  2  0  0  0  0
 12 13  1  0  0  0  0
 12 16  1  0  0  0  0
 14 17  1  6  0  0  0
 14 25  1  0  0  0  0
 15 14  1  0  0  0  0
 15 18  1  0  0  0  0
 16 20  1  6  0  0  0
 16 15  1  0  0  0  0
 16 14  1  0  0  0  0
 19 15  1  0  0  0  0
 21 22  1  0  0  0  0
 22 23  2  0  0  0  0
 22 28  1  0  0  0  0
 23 29  1  0  0  0  0
 24 23  1  0  0  0  0
 25 24  2  0  0  0  0
 26 25  1  0  0  0  0
 26 21  2  0  0  0  0
 27 21  1  0  0  0  0
 30  5  1  0  0  0  0
 31 30  2  0  0  0  0
 32 30  1  0  0  0  0
 33 34  1  0  0  0  0
 33 32  1  0  0  0  0
 35 36  1  0  0  0  0
 35 33  1  0  0  0  0
 37 38  1  0  0  0  0
 37 35  1  0  0  0  0
 38 39  1  0  0  0  0
 38 40  1  0  0  0  0
 40 32  1  0  0  0  0
 41 40  1  0  0  0  0
M  END
>  <minimizedAffinity>
-4.9087286

>  <minimizedRMSD>
0.245582744

$$$$
