
 OpenBabel03272509433D

 39 41  0  0  1  0  0  0  0  0999 V2000
   37.0020   30.8320   48.8340 C   0  0  0  0  0  0  0  0  0  0  0  0
   36.8360   31.7720   49.8550 C   0  0  0  0  0  0  0  0  0  0  0  0
   37.5490   32.9620   49.8720 C   0  0  0  0  0  0  0  0  0  0  0  0
   38.4580   33.2370   48.8500 C   0  0  0  0  0  0  0  0  0  0  0  0
   38.6070   32.3050   47.8590 C   0  0  0  0  0  0  0  0  0  0  0  0
   37.8810   31.1260   47.8700 C   0  0  0  0  0  0  0  0  0  0  0  0
   36.1140   31.5200   50.6390 H   0  0  0  0  0  0  0  0  0  0  0  0
   37.3230   33.5930   50.7160 H   0  0  0  0  0  0  0  0  0  0  0  0
   38.9750   34.1820   48.9320 H   0  0  0  0  0  0  0  0  0  0  0  0
   39.3500   32.6560   47.1330 H   0  0  0  0  0  0  0  0  0  0  0  0
   36.2860   29.5750   48.8340 C   0  0  2  0  0  0  0  0  0  0  0  0
   36.7450   28.9660   47.9640 H   0  0  0  0  0  0  0  0  0  0  0  0
   33.4730   30.2410   46.6290 C   0  0  0  0  0  0  0  0  0  0  0  0
   32.6560   29.1380   46.7870 C   0  0  0  0  0  0  0  0  0  0  0  0
   33.0310   28.1760   47.7060 C   0  0  0  0  0  0  0  0  0  0  0  0
   34.1940   28.3450   48.4230 N   0  0  0  0  0  0  0  0  0  0  0  0
   34.9330   29.4170   48.2250 C   0  0  0  0  0  0  0  0  0  0  0  0
   34.5820   30.3670   47.3350 N   0  0  0  0  0  0  0  0  0  0  0  0
   33.2140   31.0260   45.9130 H   0  0  0  0  0  0  0  0  0  0  0  0
   31.7720   29.1120   46.1710 H   0  0  0  0  0  0  0  0  0  0  0  0
   32.3880   27.3160   47.8280 H   0  0  0  0  0  0  0  0  0  0  0  0
   36.6570   28.7910   49.7830 O   0  0  0  0  0  0  0  0  0  0  0  0
   36.4430   28.9480   50.7260 H   0  0  0  0  0  0  0  0  0  0  0  0
   38.1630   30.2200   46.7800 C   0  0  0  0  0  3  0  0  0  0  0  0
   38.8660   30.5600   45.6940 C   0  0  0  0  0  3  0  0  0  0  0  0
   39.2520   29.7060   44.5470 C   0  0  0  0  0  0  0  0  0  0  0  0
   40.0870   29.0460   44.9080 H   0  0  0  0  0  0  0  0  0  0  0  0
   38.3980   29.0870   44.2410 H   0  0  0  0  0  0  0  0  0  0  0  0
   39.9300   30.7230   43.2330 S   0  0  0  0  0  0  0  0  0  0  0  0
   40.8770   29.7570   42.0330 C   0  0  0  0  0  3  0  0  0  0  0  0
   40.6360   30.2790   40.6560 C   0  0  0  0  0  3  0  0  0  0  0  0
   39.5780   30.5310   40.4570 H   0  0  0  0  0  0  0  0  0  0  0  0
   41.1430   29.4100   39.5570 C   0  0  0  0  0  3  0  0  0  0  0  0
   42.2260   29.6500   39.3850 H   0  0  0  0  0  0  0  0  0  0  0  0
   41.0090   28.0580   39.7480 O   0  0  0  0  0  0  0  0  0  0  0  0
   40.1930   27.6780   40.7900 C   0  0  0  0  0  3  0  0  0  0  0  0
   40.3670   26.5720   40.9220 H   0  0  0  0  0  0  0  0  0  0  0  0
   40.5210   28.3100   42.1020 C   0  0  0  0  0  3  0  0  0  0  0  0
   39.6210   28.1880   42.7700 H   0  0  0  0  0  0  0  0  0  0  0  0
  1  2  1  0  0  0  0
  2  3  2  0  0  0  0
  2  7  1  0  0  0  0
  3  8  1  0  0  0  0
  4  9  1  0  0  0  0
  4  3  1  0  0  0  0
  5  6  1  0  0  0  0
  5  4  2  0  0  0  0
  6  1  2  0  0  0  0
 10  5  1  0  0  0  0
 11 12  1  6  0  0  0
 11  1  1  0  0  0  0
 11 22  1  0  0  0  0
 13 14  2  0  0  0  0
 13 18  1  0  0  0  0
 14 15  1  0  0  0  0
 15 21  1  0  0  0  0
 15 16  2  0  0  0  0
 17 16  1  0  0  0  0
 17 11  1  0  0  0  0
 18 17  2  0  0  0  0
 19 13  1  0  0  0  0
 20 14  1  0  0  0  0
 22 23  1  0  0  0  0
 24  6  1  0  0  0  0
 25 24  2  0  0  0  0
 26 27  1  0  0  0  0
 26 25  1  0  0  0  0
 28 26  1  0  0  0  0
 29 26  1  0  0  0  0
 30 38  1  0  0  0  0
 30 29  1  0  0  0  0
 31 30  1  0  0  0  0
 32 31  1  0  0  0  0
 33 35  1  0  0  0  0
 33 31  1  0  0  0  0
 34 33  1  0  0  0  0
 35 36  1  0  0  0  0
 36 37  1  0  0  0  0
 36 38  1  0  0  0  0
 38 39  1  0  0  0  0
M  END
>  <minimizedAffinity>
-5.6434412

>  <minimizedRMSD>
0.889033735

$$$$
