
 OpenBabel03272503393D

 30 32  0  0  0  0  0  0  0  0999 V2000
   37.1960   27.4760   34.2870 C   0  0  0  0  0  0  0  0  0  0  0  0
   36.7010   27.6140   33.0200 C   0  0  0  0  0  0  0  0  0  0  0  0
   35.9410   28.7800   33.0460 C   0  0  0  0  0  0  0  0  0  0  0  0
   35.9890   29.3050   34.2780 N   0  0  0  0  0  0  0  0  0  0  0  0
   36.7500   28.5100   35.0210 N   0  0  0  0  0  0  0  0  0  0  0  0
   36.8530   26.9650   32.1610 H   0  0  0  0  0  0  0  0  0  0  0  0
   35.4080   29.1610   32.1600 H   0  0  0  0  0  0  0  0  0  0  0  0
   35.3100   30.5100   34.6400 C   0  0  0  0  0  3  0  0  0  0  0  0
   33.8850   30.2320   34.9830 C   0  0  0  0  0  3  0  0  0  0  0  0
   33.2440   30.3000   34.0670 H   0  0  0  0  0  0  0  0  0  0  0  0
   33.4180   31.2160   36.0370 C   0  0  0  0  0  3  0  0  0  0  0  0
   33.5710   30.8110   37.0560 H   0  0  0  0  0  0  0  0  0  0  0  0
   33.9140   32.4970   35.8550 O   0  0  0  0  0  0  0  0  0  0  0  0
   35.2950   32.5830   35.8950 C   0  0  0  0  0  3  0  0  0  0  0  0
   35.6500   33.1850   36.7590 H   0  0  0  0  0  0  0  0  0  0  0  0
   35.9600   31.2300   35.7990 C   0  0  0  0  0  3  0  0  0  0  0  0
   37.0250   31.3950   35.5260 H   0  0  0  0  0  0  0  0  0  0  0  0
   38.4500   24.4530   36.0930 C   0  0  0  0  0  0  0  0  0  0  0  0
   37.6170   25.4730   35.6720 C   0  0  0  0  0  0  0  0  0  0  0  0
   38.0470   26.4030   34.7410 C   0  0  0  0  0  0  0  0  0  0  0  0
   39.2950   26.2730   34.2680 N   0  0  0  0  0  0  0  0  0  0  0  0
   40.1150   25.2660   34.6850 C   0  0  0  0  0  0  0  0  0  0  0  0
   39.7020   24.3680   35.5840 N   0  0  0  0  0  0  0  0  0  0  0  0
   36.6000   25.6200   36.0240 H   0  0  0  0  0  0  0  0  0  0  0  0
   41.1210   25.1380   34.3230 H   0  0  0  0  0  0  0  0  0  0  0  0
   37.8620   23.6090   37.0300 O   0  0  0  0  0  0  0  0  0  0  0  0
   38.2060   23.6070   38.3880 C   0  0  0  0  0  0  0  0  0  0  0  0
   39.5220   23.2600   38.6020 F   0  0  0  0  0  0  0  0  0  0  0  0
   37.3710   22.7360   39.0450 F   0  0  0  0  0  0  0  0  0  0  0  0
   37.9830   24.8740   38.8950 F   0  0  0  0  0  0  0  0  0  0  0  0
  1 20  1  0  0  0  0
  1  5  2  0  0  0  0
  2  3  2  0  0  0  0
  2  1  1  0  0  0  0
  3  4  1  0  0  0  0
  4  8  1  0  0  0  0
  4  5  1  0  0  0  0
  6  2  1  0  0  0  0
  7  3  1  0  0  0  0
  8  9  1  0  0  0  0
  8 16  1  0  0  0  0
  9 11  1  0  0  0  0
 10  9  1  0  0  0  0
 11 12  1  0  0  0  0
 13 14  1  0  0  0  0
 13 11  1  0  0  0  0
 14 15  1  0  0  0  0
 16 14  1  0  0  0  0
 17 16  1  0  0  0  0
 18 26  1  0  0  0  0
 19 24  1  0  0  0  0
 19 18  1  0  0  0  0
 20 19  2  0  0  0  0
 21 22  2  0  0  0  0
 21 20  1  0  0  0  0
 22 23  1  0  0  0  0
 23 18  2  0  0  0  0
 25 22  1  0  0  0  0
 26 27  1  0  0  0  0
 27 28  1  0  0  0  0
 27 30  1  0  0  0  0
 27 29  1  0  0  0  0
M  END
>  <minimizedAffinity>
-5.67689371

$$$$

 OpenBabel03272503393D

 30 32  0  0  0  0  0  0  0  0999 V2000
   36.7360   27.4830   33.7040 C   0  0  0  0  0  0  0  0  0  0  0  0
   36.5380   28.0210   32.4620 C   0  0  0  0  0  0  0  0  0  0  0  0
   35.9720   29.2730   32.6900 C   0  0  0  0  0  0  0  0  0  0  0  0
   35.8450   29.4610   34.0100 N   0  0  0  0  0  0  0  0  0  0  0  0
   36.3100   28.3740   34.6150 N   0  0  0  0  0  0  0  0  0  0  0  0
   36.7630   27.5840   31.4930 H   0  0  0  0  0  0  0  0  0  0  0  0
   35.6950   29.9560   31.8710 H   0  0  0  0  0  0  0  0  0  0  0  0
   35.2950   30.6520   34.5790 C   0  0  0  0  0  3  0  0  0  0  0  0
   33.8850   30.4280   35.0130 C   0  0  0  0  0  3  0  0  0  0  0  0
   33.1790   30.6590   34.1740 H   0  0  0  0  0  0  0  0  0  0  0  0
   33.5840   31.2950   36.2180 C   0  0  0  0  0  3  0  0  0  0  0  0
   33.7860   30.7510   37.1610 H   0  0  0  0  0  0  0  0  0  0  0  0
   34.1630   32.5530   36.1540 O   0  0  0  0  0  0  0  0  0  0  0  0
   35.5450   32.5380   36.0790 C   0  0  0  0  0  3  0  0  0  0  0  0
   36.0150   32.9970   36.9760 H   0  0  0  0  0  0  0  0  0  0  0  0
   36.0910   31.1680   35.7560 C   0  0  0  0  0  3  0  0  0  0  0  0
   37.1400   31.2950   35.4100 H   0  0  0  0  0  0  0  0  0  0  0  0
   38.3980   24.6180   35.4350 C   0  0  0  0  0  0  0  0  0  0  0  0
   37.8570   25.8680   35.2010 C   0  0  0  0  0  0  0  0  0  0  0  0
   37.3060   26.1840   33.9710 C   0  0  0  0  0  0  0  0  0  0  0  0
   37.3170   25.2340   33.0250 N   0  0  0  0  0  0  0  0  0  0  0  0
   37.8510   24.0020   33.2590 C   0  0  0  0  0  0  0  0  0  0  0  0
   38.3850   23.6940   34.4450 N   0  0  0  0  0  0  0  0  0  0  0  0
   37.8240   26.6700   35.9330 H   0  0  0  0  0  0  0  0  0  0  0  0
   37.8740   23.2190   32.5190 H   0  0  0  0  0  0  0  0  0  0  0  0
   38.9090   24.4670   36.7210 O   0  0  0  0  0  0  0  0  0  0  0  0
   38.1940   23.8720   37.7690 C   0  0  0  0  0  0  0  0  0  0  0  0
   37.0520   23.2340   37.3370 F   0  0  0  0  0  0  0  0  0  0  0  0
   37.8790   24.8460   38.6850 F   0  0  0  0  0  0  0  0  0  0  0  0
   39.0190   22.9530   38.3910 F   0  0  0  0  0  0  0  0  0  0  0  0
  1 20  1  0  0  0  0
  1  5  2  0  0  0  0
  2  3  2  0  0  0  0
  2  1  1  0  0  0  0
  3  4  1  0  0  0  0
  4  8  1  0  0  0  0
  4  5  1  0  0  0  0
  6  2  1  0  0  0  0
  7  3  1  0  0  0  0
  8  9  1  0  0  0  0
  8 16  1  0  0  0  0
  9 11  1  0  0  0  0
 10  9  1  0  0  0  0
 11 12  1  0  0  0  0
 13 11  1  0  0  0  0
 14 13  1  0  0  0  0
 14 15  1  0  0  0  0
 16 14  1  0  0  0  0
 17 16  1  0  0  0  0
 18 26  1  0  0  0  0
 19 18  1  0  0  0  0
 19 24  1  0  0  0  0
 20 19  2  0  0  0  0
 21 22  2  0  0  0  0
 21 20  1  0  0  0  0
 22 23  1  0  0  0  0
 23 18  2  0  0  0  0
 25 22  1  0  0  0  0
 26 27  1  0  0  0  0
 27 30  1  0  0  0  0
 27 29  1  0  0  0  0
 28 27  1  0  0  0  0
M  END
>  <minimizedAffinity>
-5.58665609

$$$$

 OpenBabel03272503393D

 30 32  0  0  0  0  0  0  0  0999 V2000
   36.7710   27.4440   33.6670 C   0  0  0  0  0  0  0  0  0  0  0  0
   36.6460   27.9840   32.4170 C   0  0  0  0  0  0  0  0  0  0  0  0
   36.0720   29.2380   32.6130 C   0  0  0  0  0  0  0  0  0  0  0  0
   35.8690   29.4240   33.9240 N   0  0  0  0  0  0  0  0  0  0  0  0
   36.2950   28.3350   34.5530 N   0  0  0  0  0  0  0  0  0  0  0  0
   36.9260   27.5480   31.4610 H   0  0  0  0  0  0  0  0  0  0  0  0
   35.8450   29.9230   31.7810 H   0  0  0  0  0  0  0  0  0  0  0  0
   35.2910   30.6160   34.4620 C   0  0  0  0  0  3  0  0  0  0  0  0
   36.0290   31.0580   35.6820 C   0  0  0  0  0  3  0  0  0  0  0  0
   35.5860   30.5860   36.5970 H   0  0  0  0  0  0  0  0  0  0  0  0
   35.9790   32.5690   35.7820 C   0  0  0  0  0  3  0  0  0  0  0  0
   36.8550   33.0300   35.2870 H   0  0  0  0  0  0  0  0  0  0  0  0
   34.7610   33.1090   35.4010 O   0  0  0  0  0  0  0  0  0  0  0  0
   34.4080   32.8410   34.0900 C   0  0  0  0  0  3  0  0  0  0  0  0
   34.3610   33.7650   33.4740 H   0  0  0  0  0  0  0  0  0  0  0  0
   35.2590   31.7580   33.4720 C   0  0  0  0  0  3  0  0  0  0  0  0
   34.7310   31.3890   32.5660 H   0  0  0  0  0  0  0  0  0  0  0  0
   38.3890   24.5950   35.4650 C   0  0  0  0  0  0  0  0  0  0  0  0
   37.8680   25.8480   35.2010 C   0  0  0  0  0  0  0  0  0  0  0  0
   37.3200   26.1430   33.9650 C   0  0  0  0  0  0  0  0  0  0  0  0
   37.3150   25.1710   33.0420 N   0  0  0  0  0  0  0  0  0  0  0  0
   37.8300   23.9350   33.3040 C   0  0  0  0  0  0  0  0  0  0  0  0
   38.3600   23.6470   34.4970 N   0  0  0  0  0  0  0  0  0  0  0  0
   37.8480   26.6670   35.9140 H   0  0  0  0  0  0  0  0  0  0  0  0
   37.8390   23.1350   32.5830 H   0  0  0  0  0  0  0  0  0  0  0  0
   38.9000   24.4670   36.7530 O   0  0  0  0  0  0  0  0  0  0  0  0
   38.1920   23.8720   37.8060 C   0  0  0  0  0  0  0  0  0  0  0  0
   37.0620   23.2090   37.3790 F   0  0  0  0  0  0  0  0  0  0  0  0
   37.8570   24.8510   38.7100 F   0  0  0  0  0  0  0  0  0  0  0  0
   39.0310   22.9740   38.4420 F   0  0  0  0  0  0  0  0  0  0  0  0
  1 20  1  0  0  0  0
  1  5  2  0  0  0  0
  2  3  2  0  0  0  0
  2  1  1  0  0  0  0
  3  4  1  0  0  0  0
  4  8  1  0  0  0  0
  4  5  1  0  0  0  0
  6  2  1  0  0  0  0
  7  3  1  0  0  0  0
  8  9  1  0  0  0  0
  9 11  1  0  0  0  0
  9 10  1  0  0  0  0
 12 11  1  0  0  0  0
 13 11  1  0  0  0  0
 14 13  1  0  0  0  0
 15 14  1  0  0  0  0
 16 14  1  0  0  0  0
 16  8  1  0  0  0  0
 17 16  1  0  0  0  0
 18 26  1  0  0  0  0
 19 18  1  0  0  0  0
 19 24  1  0  0  0  0
 20 19  2  0  0  0  0
 21 22  2  0  0  0  0
 21 20  1  0  0  0  0
 22 23  1  0  0  0  0
 23 18  2  0  0  0  0
 25 22  1  0  0  0  0
 26 27  1  0  0  0  0
 27 30  1  0  0  0  0
 27 29  1  0  0  0  0
 28 27  1  0  0  0  0
M  END
>  <minimizedAffinity>
-5.45064116

$$$$

 OpenBabel03272503393D

 30 32  0  0  0  0  0  0  0  0999 V2000
   37.0090   27.0030   33.6890 C   0  0  0  0  0  0  0  0  0  0  0  0
   37.2730   26.0470   32.7470 C   0  0  0  0  0  0  0  0  0  0  0  0
   37.9330   25.0290   33.4320 C   0  0  0  0  0  0  0  0  0  0  0  0
   38.0510   25.3750   34.7210 N   0  0  0  0  0  0  0  0  0  0  0  0
   37.4890   26.5690   34.8670 N   0  0  0  0  0  0  0  0  0  0  0  0
   37.0310   26.0560   31.6880 H   0  0  0  0  0  0  0  0  0  0  0  0
   38.2790   24.1080   32.9350 H   0  0  0  0  0  0  0  0  0  0  0  0
   38.6840   24.5440   35.6970 C   0  0  0  0  0  3  0  0  0  0  0  0
   38.1040   24.7820   37.0510 C   0  0  0  0  0  3  0  0  0  0  0  0
   38.6630   25.6000   37.5750 H   0  0  0  0  0  0  0  0  0  0  0  0
   38.1560   23.5000   37.8550 C   0  0  0  0  0  3  0  0  0  0  0  0
   37.2200   22.9180   37.7390 H   0  0  0  0  0  0  0  0  0  0  0  0
   39.3110   22.7630   37.6490 O   0  0  0  0  0  0  0  0  0  0  0  0
   39.4970   22.3540   36.3400 C   0  0  0  0  0  3  0  0  0  0  0  0
   39.4590   21.2480   36.2400 H   0  0  0  0  0  0  0  0  0  0  0  0
   38.5820   23.0700   35.3760 C   0  0  0  0  0  3  0  0  0  0  0  0
   38.9930   22.9300   34.3520 H   0  0  0  0  0  0  0  0  0  0  0  0
   35.1520   30.2040   34.2160 C   0  0  0  0  0  0  0  0  0  0  0  0
   35.7980   29.0090   34.4730 C   0  0  0  0  0  0  0  0  0  0  0  0
   36.3320   28.2530   33.4440 C   0  0  0  0  0  0  0  0  0  0  0  0
   36.1990   28.7260   32.1960 N   0  0  0  0  0  0  0  0  0  0  0  0
   35.5620   29.9050   31.9440 C   0  0  0  0  0  0  0  0  0  0  0  0
   35.0450   30.6370   32.9360 N   0  0  0  0  0  0  0  0  0  0  0  0
   35.9310   28.5840   35.4640 H   0  0  0  0  0  0  0  0  0  0  0  0
   35.4410   30.3100   30.9530 H   0  0  0  0  0  0  0  0  0  0  0  0
   34.6760   30.8340   35.3600 O   0  0  0  0  0  0  0  0  0  0  0  0
   35.3720   31.8530   36.0250 C   0  0  0  0  0  0  0  0  0  0  0  0
   35.2180   33.0820   35.4210 F   0  0  0  0  0  0  0  0  0  0  0  0
   36.7010   31.5090   36.0730 F   0  0  0  0  0  0  0  0  0  0  0  0
   34.9030   31.9250   37.3240 F   0  0  0  0  0  0  0  0  0  0  0  0
  1  5  2  0  0  0  0
  2  3  2  0  0  0  0
  2  1  1  0  0  0  0
  3  4  1  0  0  0  0
  4  5  1  0  0  0  0
  4  8  1  0  0  0  0
  6  2  1  0  0  0  0
  7  3  1  0  0  0  0
  8  9  1  0  0  0  0
  9 10  1  0  0  0  0
  9 11  1  0  0  0  0
 12 11  1  0  0  0  0
 13 11  1  0  0  0  0
 14 13  1  0  0  0  0
 15 14  1  0  0  0  0
 16  8  1  0  0  0  0
 16 14  1  0  0  0  0
 17 16  1  0  0  0  0
 18 19  1  0  0  0  0
 18 26  1  0  0  0  0
 19 24  1  0  0  0  0
 20  1  1  0  0  0  0
 20 19  2  0  0  0  0
 21 20  1  0  0  0  0
 22 21  2  0  0  0  0
 22 23  1  0  0  0  0
 23 18  2  0  0  0  0
 25 22  1  0  0  0  0
 26 27  1  0  0  0  0
 27 29  1  0  0  0  0
 27 30  1  0  0  0  0
 28 27  1  0  0  0  0
M  END
>  <minimizedAffinity>
-5.446033

$$$$

 OpenBabel03272503393D

 30 32  0  0  0  0  0  0  0  0999 V2000
   37.8140   25.4600   35.0030 C   0  0  0  0  0  0  0  0  0  0  0  0
   37.8460   25.0710   33.6920 C   0  0  0  0  0  0  0  0  0  0  0  0
   37.3470   26.1560   32.9750 C   0  0  0  0  0  0  0  0  0  0  0  0
   37.0360   27.1390   33.8290 N   0  0  0  0  0  0  0  0  0  0  0  0
   37.3210   26.7100   35.0530 N   0  0  0  0  0  0  0  0  0  0  0  0
   38.1830   24.1260   33.2760 H   0  0  0  0  0  0  0  0  0  0  0  0
   37.2490   26.1460   31.8770 H   0  0  0  0  0  0  0  0  0  0  0  0
   36.4960   28.3950   33.4110 C   0  0  0  0  0  3  0  0  0  0  0  0
   35.5580   28.2120   32.2650 C   0  0  0  0  0  3  0  0  0  0  0  0
   36.1130   28.2750   31.2940 H   0  0  0  0  0  0  0  0  0  0  0  0
   34.4710   29.2650   32.3280 C   0  0  0  0  0  3  0  0  0  0  0  0
   33.5920   28.8980   32.8920 H   0  0  0  0  0  0  0  0  0  0  0  0
   34.9290   30.5080   32.7370 O   0  0  0  0  0  0  0  0  0  0  0  0
   35.4900   30.5180   34.0020 C   0  0  0  0  0  3  0  0  0  0  0  0
   34.9010   31.1370   34.7130 H   0  0  0  0  0  0  0  0  0  0  0  0
   35.7750   29.1280   34.5180 C   0  0  0  0  0  3  0  0  0  0  0  0
   36.4870   29.2220   35.3660 H   0  0  0  0  0  0  0  0  0  0  0  0
   39.4630   22.8060   37.0540 C   0  0  0  0  0  0  0  0  0  0  0  0
   39.0700   23.5620   35.9650 C   0  0  0  0  0  0  0  0  0  0  0  0
   38.2380   24.6570   36.1240 C   0  0  0  0  0  0  0  0  0  0  0  0
   37.8340   24.9520   37.3680 N   0  0  0  0  0  0  0  0  0  0  0  0
   38.2230   24.2050   38.4400 C   0  0  0  0  0  0  0  0  0  0  0  0
   39.0260   23.1470   38.2900 N   0  0  0  0  0  0  0  0  0  0  0  0
   39.3690   23.3640   34.9400 H   0  0  0  0  0  0  0  0  0  0  0  0
   37.9150   24.4180   39.4500 H   0  0  0  0  0  0  0  0  0  0  0  0
   40.2970   21.7440   36.7190 O   0  0  0  0  0  0  0  0  0  0  0  0
   41.6700   21.7250   36.9970 C   0  0  0  0  0  0  0  0  0  0  0  0
   41.9840   20.9170   38.0680 F   0  0  0  0  0  0  0  0  0  0  0  0
   42.0810   23.0140   37.2350 F   0  0  0  0  0  0  0  0  0  0  0  0
   42.3350   21.2680   35.8740 F   0  0  0  0  0  0  0  0  0  0  0  0
  1  5  2  0  0  0  0
  1 20  1  0  0  0  0
  2  1  1  0  0  0  0
  3  2  2  0  0  0  0
  3  4  1  0  0  0  0
  4  5  1  0  0  0  0
  6  2  1  0  0  0  0
  7  3  1  0  0  0  0
  8  4  1  0  0  0  0
  8 16  1  0  0  0  0
  9 11  1  0  0  0  0
  9  8  1  0  0  0  0
 10  9  1  0  0  0  0
 11 13  1  0  0  0  0
 11 12  1  0  0  0  0
 13 14  1  0  0  0  0
 14 16  1  0  0  0  0
 14 15  1  0  0  0  0
 16 17  1  0  0  0  0
 18 23  1  0  0  0  0
 19 20  1  0  0  0  0
 19 18  2  0  0  0  0
 20 21  2  0  0  0  0
 21 22  1  0  0  0  0
 22 25  1  0  0  0  0
 23 22  2  0  0  0  0
 24 19  1  0  0  0  0
 26 27  1  0  0  0  0
 26 18  1  0  0  0  0
 27 29  1  0  0  0  0
 27 28  1  0  0  0  0
 30 27  1  0  0  0  0
M  END
>  <minimizedAffinity>
-5.27436829

$$$$

 OpenBabel03272503393D

 30 32  0  0  0  0  0  0  0  0999 V2000
   37.0250   27.3720   32.9730 C   0  0  0  0  0  0  0  0  0  0  0  0
   36.2580   28.3680   33.5110 C   0  0  0  0  0  0  0  0  0  0  0  0
   36.0870   29.2960   32.4860 C   0  0  0  0  0  0  0  0  0  0  0  0
   36.7270   28.8610   31.3930 N   0  0  0  0  0  0  0  0  0  0  0  0
   37.2910   27.6980   31.6960 N   0  0  0  0  0  0  0  0  0  0  0  0
   35.8570   28.4420   34.5180 H   0  0  0  0  0  0  0  0  0  0  0  0
   35.5050   30.2220   32.6170 H   0  0  0  0  0  0  0  0  0  0  0  0
   36.7480   29.5870   30.1610 C   0  0  0  0  0  3  0  0  0  0  0  0
   36.3630   31.0120   30.3800 C   0  0  0  0  0  3  0  0  0  0  0  0
   35.2540   31.1340   30.2830 H   0  0  0  0  0  0  0  0  0  0  0  0
   37.0870   31.8890   29.3790 C   0  0  0  0  0  3  0  0  0  0  0  0
   38.0470   32.2570   29.7930 H   0  0  0  0  0  0  0  0  0  0  0  0
   37.1920   31.3220   28.1200 O   0  0  0  0  0  0  0  0  0  0  0  0
   37.8880   30.1260   28.0920 C   0  0  0  0  0  3  0  0  0  0  0  0
   38.8300   30.2050   27.5070 H   0  0  0  0  0  0  0  0  0  0  0  0
   38.0920   29.5450   29.4710 C   0  0  0  0  0  3  0  0  0  0  0  0
   38.3640   28.4740   29.3500 H   0  0  0  0  0  0  0  0  0  0  0  0
   38.0810   25.0240   35.6820 C   0  0  0  0  0  0  0  0  0  0  0  0
   37.6590   26.1720   35.0370 C   0  0  0  0  0  0  0  0  0  0  0  0
   37.4640   26.1860   33.6670 C   0  0  0  0  0  0  0  0  0  0  0  0
   37.6980   25.0490   32.9970 N   0  0  0  0  0  0  0  0  0  0  0  0
   38.1130   23.9170   33.6340 C   0  0  0  0  0  0  0  0  0  0  0  0
   38.3030   23.9000   34.9570 N   0  0  0  0  0  0  0  0  0  0  0  0
   37.4570   27.1150   35.5340 H   0  0  0  0  0  0  0  0  0  0  0  0
   38.3080   22.9900   33.1220 H   0  0  0  0  0  0  0  0  0  0  0  0
   38.2270   25.1810   37.0560 O   0  0  0  0  0  0  0  0  0  0  0  0
   38.0270   24.1430   37.9760 C   0  0  0  0  0  0  0  0  0  0  0  0
   37.0580   23.2520   37.5690 F   0  0  0  0  0  0  0  0  0  0  0  0
   37.6870   24.6980   39.1870 F   0  0  0  0  0  0  0  0  0  0  0  0
   39.2240   23.4690   38.1380 F   0  0  0  0  0  0  0  0  0  0  0  0
  1  2  1  0  0  0  0
  1 20  1  0  0  0  0
  2  6  1  0  0  0  0
  3  7  1  0  0  0  0
  3  2  2  0  0  0  0
  4  5  1  0  0  0  0
  4  3  1  0  0  0  0
  5  1  2  0  0  0  0
  8  9  1  0  0  0  0
  8  4  1  0  0  0  0
 10  9  1  0  0  0  0
 11 12  1  0  0  0  0
 11  9  1  0  0  0  0
 13 11  1  0  0  0  0
 14 13  1  0  0  0  0
 14 16  1  0  0  0  0
 15 14  1  0  0  0  0
 16  8  1  0  0  0  0
 17 16  1  0  0  0  0
 18 26  1  0  0  0  0
 19 24  1  0  0  0  0
 19 18  1  0  0  0  0
 20 19  2  0  0  0  0
 21 22  2  0  0  0  0
 21 20  1  0  0  0  0
 22 23  1  0  0  0  0
 23 18  2  0  0  0  0
 25 22  1  0  0  0  0
 26 27  1  0  0  0  0
 27 30  1  0  0  0  0
 27 29  1  0  0  0  0
 28 27  1  0  0  0  0
M  END
>  <minimizedAffinity>
-5.16434145

$$$$

 OpenBabel03272503393D

 30 32  0  0  0  0  0  0  0  0999 V2000
   37.2210   25.2190   32.6840 C   0  0  0  0  0  0  0  0  0  0  0  0
   36.2030   25.1490   31.7740 C   0  0  0  0  0  0  0  0  0  0  0  0
   36.1100   26.4260   31.2260 C   0  0  0  0  0  0  0  0  0  0  0  0
   37.0360   27.2120   31.7910 N   0  0  0  0  0  0  0  0  0  0  0  0
   37.7030   26.4740   32.6710 N   0  0  0  0  0  0  0  0  0  0  0  0
   35.5840   24.2930   31.5170 H   0  0  0  0  0  0  0  0  0  0  0  0
   35.3710   26.6860   30.4510 H   0  0  0  0  0  0  0  0  0  0  0  0
   37.2050   28.5900   31.4480 C   0  0  0  0  0  3  0  0  0  0  0  0
   37.7650   28.7260   30.0720 C   0  0  0  0  0  3  0  0  0  0  0  0
   38.8850   28.7330   30.1070 H   0  0  0  0  0  0  0  0  0  0  0  0
   37.2440   30.0000   29.4380 C   0  0  0  0  0  3  0  0  0  0  0  0
   36.3170   29.8080   28.8630 H   0  0  0  0  0  0  0  0  0  0  0  0
   37.1520   31.0610   30.3240 O   0  0  0  0  0  0  0  0  0  0  0  0
   36.3020   30.8370   31.3930 C   0  0  0  0  0  3  0  0  0  0  0  0
   35.4250   31.5190   31.3770 H   0  0  0  0  0  0  0  0  0  0  0  0
   35.9210   29.3830   31.5320 C   0  0  0  0  0  3  0  0  0  0  0  0
   35.5130   29.2360   32.5560 H   0  0  0  0  0  0  0  0  0  0  0  0
   38.6760   23.2800   35.5290 C   0  0  0  0  0  0  0  0  0  0  0  0
   38.2360   24.3410   34.7580 C   0  0  0  0  0  0  0  0  0  0  0  0
   37.6850   24.1280   33.5070 C   0  0  0  0  0  0  0  0  0  0  0  0
   37.5940   22.8620   33.0770 N   0  0  0  0  0  0  0  0  0  0  0  0
   38.0270   21.8170   33.8390 C   0  0  0  0  0  0  0  0  0  0  0  0
   38.5610   22.0190   35.0480 N   0  0  0  0  0  0  0  0  0  0  0  0
   38.2880   25.3820   35.0610 H   0  0  0  0  0  0  0  0  0  0  0  0
   37.9660   20.7900   33.5210 H   0  0  0  0  0  0  0  0  0  0  0  0
   39.2020   23.6680   36.7570 O   0  0  0  0  0  0  0  0  0  0  0  0
   38.4210   23.8610   37.9040 C   0  0  0  0  0  0  0  0  0  0  0  0
   38.0110   25.1680   38.0530 F   0  0  0  0  0  0  0  0  0  0  0  0
   39.1520   23.4630   38.9970 F   0  0  0  0  0  0  0  0  0  0  0  0
   37.3090   23.0440   37.8150 F   0  0  0  0  0  0  0  0  0  0  0  0
  1 20  1  0  0  0  0
  2  1  1  0  0  0  0
  3  2  2  0  0  0  0
  3  4  1  0  0  0  0
  4  5  1  0  0  0  0
  5  1  2  0  0  0  0
  6  2  1  0  0  0  0
  7  3  1  0  0  0  0
  8 16  1  0  0  0  0
  8  4  1  0  0  0  0
  9 10  1  0  0  0  0
  9  8  1  0  0  0  0
 11  9  1  0  0  0  0
 11 13  1  0  0  0  0
 12 11  1  0  0  0  0
 13 14  1  0  0  0  0
 14 16  1  0  0  0  0
 15 14  1  0  0  0  0
 16 17  1  0  0  0  0
 18 26  1  0  0  0  0
 19 24  1  0  0  0  0
 19 18  2  0  0  0  0
 20 19  1  0  0  0  0
 21 20  2  0  0  0  0
 21 22  1  0  0  0  0
 22 23  2  0  0  0  0
 23 18  1  0  0  0  0
 25 22  1  0  0  0  0
 26 27  1  0  0  0  0
 27 28  1  0  0  0  0
 27 29  1  0  0  0  0
 30 27  1  0  0  0  0
M  END
>  <minimizedAffinity>
-5.11269522

$$$$

 OpenBabel03272503393D

 30 32  0  0  0  0  0  0  0  0999 V2000
   37.9420   25.8010   35.0400 C   0  0  0  0  0  0  0  0  0  0  0  0
   37.3520   27.0040   35.3140 C   0  0  0  0  0  0  0  0  0  0  0  0
   37.1290   27.5950   34.0730 C   0  0  0  0  0  0  0  0  0  0  0  0
   37.5700   26.7720   33.1120 N   0  0  0  0  0  0  0  0  0  0  0  0
   38.0590   25.6900   33.7060 N   0  0  0  0  0  0  0  0  0  0  0  0
   37.1020   27.4290   36.2830 H   0  0  0  0  0  0  0  0  0  0  0  0
   36.6600   28.5860   33.9640 H   0  0  0  0  0  0  0  0  0  0  0  0
   37.4880   27.0850   31.7190 C   0  0  0  0  0  3  0  0  0  0  0  0
   36.3590   28.0230   31.4530 C   0  0  0  0  0  3  0  0  0  0  0  0
   35.4180   27.4500   31.2460 H   0  0  0  0  0  0  0  0  0  0  0  0
   36.7090   28.9170   30.2810 C   0  0  0  0  0  3  0  0  0  0  0  0
   37.1890   29.8540   30.6240 H   0  0  0  0  0  0  0  0  0  0  0  0
   37.3980   28.2620   29.2730 O   0  0  0  0  0  0  0  0  0  0  0  0
   38.6110   27.7260   29.6700 C   0  0  0  0  0  3  0  0  0  0  0  0
   39.4690   28.2120   29.1570 H   0  0  0  0  0  0  0  0  0  0  0  0
   38.7610   27.6890   31.1720 C   0  0  0  0  0  3  0  0  0  0  0  0
   39.5870   26.9830   31.4120 H   0  0  0  0  0  0  0  0  0  0  0  0
   39.6540   22.9110   36.6810 C   0  0  0  0  0  0  0  0  0  0  0  0
   39.2690   23.8320   35.7240 C   0  0  0  0  0  0  0  0  0  0  0  0
   38.3590   24.8310   36.0230 C   0  0  0  0  0  0  0  0  0  0  0  0
   37.8710   24.8690   37.2720 N   0  0  0  0  0  0  0  0  0  0  0  0
   38.2530   23.9600   38.2150 C   0  0  0  0  0  0  0  0  0  0  0  0
   39.1310   22.9950   37.9280 N   0  0  0  0  0  0  0  0  0  0  0  0
   39.6340   23.8420   34.7010 H   0  0  0  0  0  0  0  0  0  0  0  0
   37.8780   23.9670   39.2250 H   0  0  0  0  0  0  0  0  0  0  0  0
   40.5730   21.9770   36.2140 O   0  0  0  0  0  0  0  0  0  0  0  0
   41.8660   21.8410   36.7370 C   0  0  0  0  0  0  0  0  0  0  0  0
   42.4530   23.0540   37.0240 F   0  0  0  0  0  0  0  0  0  0  0  0
   42.6290   21.1460   35.8300 F   0  0  0  0  0  0  0  0  0  0  0  0
   41.7900   21.0880   37.8950 F   0  0  0  0  0  0  0  0  0  0  0  0
  1  2  1  0  0  0  0
  1 20  1  0  0  0  0
  2  6  1  0  0  0  0
  3  2  2  0  0  0  0
  4  5  1  0  0  0  0
  4  3  1  0  0  0  0
  5  1  2  0  0  0  0
  7  3  1  0  0  0  0
  8  4  1  0  0  0  0
  9  8  1  0  0  0  0
 10  9  1  0  0  0  0
 11 12  1  0  0  0  0
 11  9  1  0  0  0  0
 13 14  1  0  0  0  0
 13 11  1  0  0  0  0
 14 16  1  0  0  0  0
 15 14  1  0  0  0  0
 16 17  1  0  0  0  0
 16  8  1  0  0  0  0
 18 23  1  0  0  0  0
 19 20  1  0  0  0  0
 19 18  2  0  0  0  0
 20 21  2  0  0  0  0
 21 22  1  0  0  0  0
 22 25  1  0  0  0  0
 23 22  2  0  0  0  0
 24 19  1  0  0  0  0
 26 18  1  0  0  0  0
 26 27  1  0  0  0  0
 27 28  1  0  0  0  0
 27 30  1  0  0  0  0
 29 27  1  0  0  0  0
M  END
>  <minimizedAffinity>
-5.07401657

$$$$

 OpenBabel03272503393D

 30 32  0  0  0  0  0  0  0  0999 V2000
   37.7910   25.6200   34.1220 C   0  0  0  0  0  0  0  0  0  0  0  0
   37.5390   26.3970   35.2190 C   0  0  0  0  0  0  0  0  0  0  0  0
   36.8550   27.5080   34.7330 C   0  0  0  0  0  0  0  0  0  0  0  0
   36.7120   27.3880   33.4060 N   0  0  0  0  0  0  0  0  0  0  0  0
   37.2800   26.2430   33.0460 N   0  0  0  0  0  0  0  0  0  0  0  0
   37.8050   26.2090   36.2560 H   0  0  0  0  0  0  0  0  0  0  0  0
   36.5110   28.3260   35.3870 H   0  0  0  0  0  0  0  0  0  0  0  0
   36.0510   28.3660   32.6000 C   0  0  0  0  0  3  0  0  0  0  0  0
   35.5070   29.4680   33.4460 C   0  0  0  0  0  3  0  0  0  0  0  0
   34.4640   29.2260   33.7770 H   0  0  0  0  0  0  0  0  0  0  0  0
   35.5330   30.7650   32.6640 C   0  0  0  0  0  3  0  0  0  0  0  0
   36.4750   31.3190   32.8400 H   0  0  0  0  0  0  0  0  0  0  0  0
   35.2060   30.6100   31.3260 O   0  0  0  0  0  0  0  0  0  0  0  0
   36.0580   29.7720   30.6270 C   0  0  0  0  0  3  0  0  0  0  0  0
   36.6200   30.3150   29.8370 H   0  0  0  0  0  0  0  0  0  0  0  0
   36.9480   28.9630   31.5400 C   0  0  0  0  0  3  0  0  0  0  0  0
   37.3610   28.1180   30.9470 H   0  0  0  0  0  0  0  0  0  0  0  0
   39.4490   22.4860   35.3060 C   0  0  0  0  0  0  0  0  0  0  0  0
   38.7830   23.6970   35.3160 C   0  0  0  0  0  0  0  0  0  0  0  0
   38.4840   24.3540   34.1350 C   0  0  0  0  0  0  0  0  0  0  0  0
   38.8640   23.7710   32.9900 N   0  0  0  0  0  0  0  0  0  0  0  0
   39.5210   22.5760   32.9810 C   0  0  0  0  0  0  0  0  0  0  0  0
   39.8110   21.9390   34.1190 N   0  0  0  0  0  0  0  0  0  0  0  0
   38.4550   24.2090   36.2160 H   0  0  0  0  0  0  0  0  0  0  0  0
   39.8380   22.0840   32.0770 H   0  0  0  0  0  0  0  0  0  0  0  0
   39.6700   21.9630   36.5760 O   0  0  0  0  0  0  0  0  0  0  0  0
   40.6800   22.4200   37.4320 C   0  0  0  0  0  0  0  0  0  0  0  0
   41.5910   23.2330   36.7920 F   0  0  0  0  0  0  0  0  0  0  0  0
   41.3150   21.3280   37.9740 F   0  0  0  0  0  0  0  0  0  0  0  0
   40.0900   23.1250   38.4650 F   0  0  0  0  0  0  0  0  0  0  0  0
  1 20  1  0  0  0  0
  1  2  1  0  0  0  0
  2  6  1  0  0  0  0
  3  2  2  0  0  0  0
  3  7  1  0  0  0  0
  4  3  1  0  0  0  0
  5  4  1  0  0  0  0
  5  1  2  0  0  0  0
  8  4  1  0  0  0  0
  8  9  1  0  0  0  0
  9 10  1  0  0  0  0
 11 12  1  0  0  0  0
 11  9  1  0  0  0  0
 13 11  1  0  0  0  0
 14 13  1  0  0  0  0
 14 16  1  0  0  0  0
 15 14  1  0  0  0  0
 16  8  1  0  0  0  0
 17 16  1  0  0  0  0
 18 19  1  0  0  0  0
 18 26  1  0  0  0  0
 19 24  1  0  0  0  0
 20 19  2  0  0  0  0
 21 20  1  0  0  0  0
 22 21  2  0  0  0  0
 22 23  1  0  0  0  0
 23 18  2  0  0  0  0
 25 22  1  0  0  0  0
 26 27  1  0  0  0  0
 27 29  1  0  0  0  0
 27 30  1  0  0  0  0
 28 27  1  0  0  0  0
M  END
>  <minimizedAffinity>
-5.06504536

$$$$
