
 OpenBabel03272503053D

 33 35  0  0  0  0  0  0  0  0999 V2000
   38.4930   30.4540   47.2970 F   0  0  0  0  0  0  0  0  0  0  0  0
   38.7730   31.6800   47.7820 C   0  0  0  0  0  0  0  0  0  0  0  0
   38.2090   32.0910   48.9680 C   0  0  0  0  0  0  0  0  0  0  0  0
   38.5310   33.3500   49.4150 C   0  0  0  0  0  0  0  0  0  0  0  0
   39.3810   34.1860   48.7230 C   0  0  0  0  0  0  0  0  0  0  0  0
   39.9340   33.7590   47.5420 C   0  0  0  0  0  0  0  0  0  0  0  0
   39.6280   32.4950   47.0670 C   0  0  0  0  0  0  0  0  0  0  0  0
   38.0790   33.6560   50.3500 H   0  0  0  0  0  0  0  0  0  0  0  0
   39.6090   35.1730   49.1110 H   0  0  0  0  0  0  0  0  0  0  0  0
   40.6060   34.4020   46.9800 H   0  0  0  0  0  0  0  0  0  0  0  0
   36.8150   29.5780   51.4370 C   0  0  0  0  0  0  0  0  0  0  0  0
   37.6970   30.4620   50.8000 C   0  0  0  0  0  0  0  0  0  0  0  0
   37.3180   31.1630   49.6560 C   0  0  0  0  0  0  0  0  0  0  0  0
   36.0470   30.9410   49.1940 N   0  0  0  0  0  0  0  0  0  0  0  0
   35.2120   30.0840   49.8230 C   0  0  0  0  0  0  0  0  0  0  0  0
   35.5900   29.4210   50.9170 N   0  0  0  0  0  0  0  0  0  0  0  0
   37.2430   29.1040   52.3120 H   0  0  0  0  0  0  0  0  0  0  0  0
   38.7150   30.6690   51.1320 H   0  0  0  0  0  0  0  0  0  0  0  0
   34.2150   29.9500   49.4090 H   0  0  0  0  0  0  0  0  0  0  0  0
   39.3600   32.2310   44.6870 C   0  0  0  0  0  0  0  0  0  0  0  0
   38.2550   32.8150   44.9380 O   0  0  0  0  0  0  0  0  0  0  0  0
   40.1800   32.0000   45.8350 N   0  0  0  0  0  0  0  0  0  0  0  0
   41.0980   31.5130   45.7760 H   0  0  0  0  0  0  0  0  0  0  0  0
   39.9060   31.7630   43.3870 C   0  0  0  0  0  3  0  0  0  0  0  0
   38.9260   31.9010   42.2600 C   0  0  0  0  0  3  0  0  0  0  0  0
   38.4760   32.8950   42.2490 H   0  0  0  0  0  0  0  0  0  0  0  0
   39.7210   31.5820   40.9900 C   0  0  0  0  0  3  0  0  0  0  0  0
   40.7220   32.0880   41.1080 H   0  0  0  0  0  0  0  0  0  0  0  0
   40.0100   30.2210   41.0490 O   0  0  0  0  0  0  0  0  0  0  0  0
   40.8950   29.9640   42.0740 C   0  0  0  0  0  3  0  0  0  0  0  0
   41.8130   30.6080   41.9660 H   0  0  0  0  0  0  0  0  0  0  0  0
   40.2810   30.2800   43.4240 C   0  0  0  0  0  3  0  0  0  0  0  0
   39.3540   29.6450   43.5150 H   0  0  0  0  0  0  0  0  0  0  0  0
  1  2  1  0  0  0  0
  2  3  1  0  0  0  0
  3  4  2  0  0  0  0
  3 13  1  0  0  0  0
  4  8  1  0  0  0  0
  5  9  1  0  0  0  0
  5  4  1  0  0  0  0
  6  5  2  0  0  0  0
  7  6  1  0  0  0  0
  7  2  2  0  0  0  0
 10  6  1  0  0  0  0
 11 17  1  0  0  0  0
 12 18  1  0  0  0  0
 12 11  2  0  0  0  0
 13 12  1  0  0  0  0
 14 13  2  0  0  0  0
 14 15  1  0  0  0  0
 15 16  2  0  0  0  0
 16 11  1  0  0  0  0
 19 15  1  0  0  0  0
 20 21  2  0  0  0  0
 20 22  1  0  0  0  0
 22  7  1  0  0  0  0
 23 22  1  0  0  0  0
 24 32  1  0  0  0  0
 24 20  1  0  0  0  0
 25 24  1  0  0  0  0
 26 25  1  0  0  0  0
 27 29  1  0  0  0  0
 27 28  1  0  0  0  0
 27 25  1  0  0  0  0
 29 30  1  0  0  0  0
 30 32  1  0  0  0  0
 31 30  1  0  0  0  0
 32 33  1  0  0  0  0
M  END
>  <minimizedAffinity>
-6.60064745

>  <minimizedRMSD>
0.786865175

$$$$
