
 OpenBabel03272510133D

 42 45  0  0  0  0  0  0  0  0999 V2000
   38.3780   31.6170   48.8520 C   0  0  0  0  0  0  0  0  0  0  0  0
   38.5540   32.8780   49.3880 C   0  0  0  0  0  0  0  0  0  0  0  0
   39.1910   33.6480   48.4250 C   0  0  0  0  0  0  0  0  0  0  0  0
   39.3760   32.8450   47.3580 N   0  0  0  0  0  0  0  0  0  0  0  0
   38.9000   31.6600   47.6120 N   0  0  0  0  0  0  0  0  0  0  0  0
   38.3260   33.3710   50.3220 H   0  0  0  0  0  0  0  0  0  0  0  0
   39.5160   34.6920   48.4300 H   0  0  0  0  0  0  0  0  0  0  0  0
   40.0130   33.2340   46.1050 C   0  0  0  0  0  0  0  0  0  0  0  0
   39.2850   33.6670   45.4030 H   0  0  0  0  0  0  0  0  0  0  0  0
   40.7080   34.0740   46.3620 H   0  0  0  0  0  0  0  0  0  0  0  0
   40.7440   32.0300   45.5880 C   0  0  0  0  0  0  0  0  0  0  0  0
   40.5140   31.1910   46.2710 H   0  0  0  0  0  0  0  0  0  0  0  0
   41.8140   32.2420   45.5400 H   0  0  0  0  0  0  0  0  0  0  0  0
   40.2470   31.6380   44.1980 C   0  0  0  0  0  3  0  0  0  0  0  0
   39.4990   32.7420   43.5310 C   0  0  0  0  0  3  0  0  0  0  0  0
   39.4280   33.5820   44.2820 H   0  0  0  0  0  0  0  0  0  0  0  0
   38.1050   32.4290   43.1130 C   0  0  0  0  0  3  0  0  0  0  0  0
   37.8620   32.9520   42.1690 H   0  0  0  0  0  0  0  0  0  0  0  0
   37.8580   31.0800   42.8680 O   0  0  0  0  0  0  0  0  0  0  0  0
   38.0410   30.4490   44.1210 C   0  0  0  0  0  3  0  0  0  0  0  0
   37.6010   29.4490   44.1370 H   0  0  0  0  0  0  0  0  0  0  0  0
   39.5460   30.3240   44.2640 C   0  0  0  0  0  3  0  0  0  0  0  0
   39.7310   29.8640   45.2450 H   0  0  0  0  0  0  0  0  0  0  0  0
   37.7470   30.7200   49.7060 O   0  0  0  0  0  0  0  0  0  0  0  0
   34.1500   28.9410   48.4090 C   0  0  0  0  0  0  0  0  0  0  0  0
   34.9000   28.3890   49.4040 C   0  0  0  0  0  0  0  0  0  0  0  0
   36.0840   28.9070   49.8860 C   0  0  0  0  0  0  0  0  0  0  0  0
   36.5810   30.0590   49.3520 C   0  0  0  0  0  0  0  0  0  0  0  0
   35.8240   30.6340   48.3320 C   0  0  0  0  0  0  0  0  0  0  0  0
   34.6730   30.0860   47.9000 N   0  0  0  0  0  0  0  0  0  0  0  0
   34.5860   27.4720   49.8900 H   0  0  0  0  0  0  0  0  0  0  0  0
   36.6700   28.4570   50.6780 H   0  0  0  0  0  0  0  0  0  0  0  0
   36.0750   31.5490   47.8010 H   0  0  0  0  0  0  0  0  0  0  0  0
   32.0580   27.6110   48.6860 C   0  0  0  0  0  0  0  0  0  0  0  0
   32.9320   28.3930   47.9270 C   0  0  0  0  0  0  0  0  0  0  0  0
   32.5550   28.6260   46.6270 C   0  0  0  0  0  0  0  0  0  0  0  0
   31.3860   28.1100   46.1360 N   0  0  0  0  0  0  0  0  0  0  0  0
   30.5810   27.3590   46.9250 C   0  0  0  0  0  0  0  0  0  0  0  0
   30.9050   27.0940   48.2230 N   0  0  0  0  0  0  0  0  0  0  0  0
   32.3140   27.4020   49.7130 H   0  0  0  0  0  0  0  0  0  0  0  0
   33.1270   29.2130   45.9190 H   0  0  0  0  0  0  0  0  0  0  0  0
   29.6540   26.9280   46.5960 H   0  0  0  0  0  0  0  0  0  0  0  0
  1  2  1  0  0  0  0
  1 24  1  0  0  0  0
  2  6  1  0  0  0  0
  3  7  1  0  0  0  0
  3  2  2  0  0  0  0
  4  5  1  0  0  0  0
  4  3  1  0  0  0  0
  5  1  2  0  0  0  0
  8 10  1  0  0  0  0
  8  4  1  0  0  0  0
  9  8  1  0  0  0  0
 11  8  1  0  0  0  0
 11 12  1  0  0  0  0
 13 11  1  0  0  0  0
 14 22  1  0  0  0  0
 14 11  1  0  0  0  0
 15 14  1  0  0  0  0
 15 16  1  0  0  0  0
 17 15  1  0  0  0  0
 18 17  1  0  0  0  0
 19 17  1  0  0  0  0
 19 20  1  0  0  0  0
 20 21  1  0  0  0  0
 20 22  1  0  0  0  0
 22 23  1  0  0  0  0
 25 26  1  0  0  0  0
 26 27  2  0  0  0  0
 26 31  1  0  0  0  0
 27 32  1  0  0  0  0
 28 24  1  0  0  0  0
 28 27  1  0  0  0  0
 29 28  2  0  0  0  0
 30 29  1  0  0  0  0
 30 25  2  0  0  0  0
 33 29  1  0  0  0  0
 34 40  1  0  0  0  0
 35 25  1  0  0  0  0
 35 34  2  0  0  0  0
 36 35  1  0  0  0  0
 37 36  2  0  0  0  0
 37 38  1  0  0  0  0
 38 39  2  0  0  0  0
 39 34  1  0  0  0  0
 41 36  1  0  0  0  0
 42 38  1  0  0  0  0
M  END
>  <minimizedAffinity>
-6.23925543

>  <minimizedRMSD>
1.35673928

$$$$
