
 OpenBabel03272504413D

 46 48  0  0  0  0  0  0  0  0999 V2000
   34.4390   29.0230   48.6870 C   0  0  0  0  0  0  0  0  0  0  0  0
   33.9160   29.8500   49.2420 H   0  0  0  0  0  0  0  0  0  0  0  0
   35.3410   28.8260   49.3360 H   0  0  0  0  0  0  0  0  0  0  0  0
   37.1930   30.1260   48.6540 Cl  0  0  0  0  0  0  0  0  0  0  0  0
   36.1340   30.0780   47.2350 C   0  0  0  0  0  0  0  0  0  0  0  0
   36.5870   30.5650   46.0590 C   0  0  0  0  0  0  0  0  0  0  0  0
   35.7740   30.5340   44.9490 C   0  0  0  0  0  0  0  0  0  0  0  0
   34.5030   29.9980   45.0780 C   0  0  0  0  0  0  0  0  0  0  0  0
   34.1000   29.5120   46.3270 C   0  0  0  0  0  0  0  0  0  0  0  0
   34.8860   29.5350   47.4220 C   0  0  0  0  0  0  0  0  0  0  0  0
   36.1560   30.9330   44.0070 H   0  0  0  0  0  0  0  0  0  0  0  0
   33.9330   30.0110   44.1670 H   0  0  0  0  0  0  0  0  0  0  0  0
   33.1280   29.1450   46.2510 H   0  0  0  0  0  0  0  0  0  0  0  0
   39.5390   32.7270   46.5030 C   0  0  0  0  0  0  0  0  0  0  0  0
   40.4650   32.1110   45.6100 C   0  0  0  0  0  0  0  0  0  0  0  0
   40.0390   30.9740   44.8870 C   0  0  0  0  0  0  0  0  0  0  0  0
   38.7750   30.5200   45.0750 N   0  0  0  0  0  0  0  0  0  0  0  0
   37.9220   31.1310   45.9330 C   0  0  0  0  0  0  0  0  0  0  0  0
   38.3070   32.2140   46.6300 N   0  0  0  0  0  0  0  0  0  0  0  0
   39.8690   33.5980   47.0560 H   0  0  0  0  0  0  0  0  0  0  0  0
   41.4400   32.5720   45.5540 H   0  0  0  0  0  0  0  0  0  0  0  0
   40.9660   30.3920   44.0200 N   0  0  0  0  0  0  0  0  0  0  0  0
   41.5660   30.9040   43.3670 H   0  0  0  0  0  0  0  0  0  0  0  0
   41.0750   29.3500   44.0180 H   0  0  0  0  0  0  0  0  0  0  0  0
   33.5850   27.8230   48.7210 C   0  0  0  0  0  0  0  0  0  0  0  0
   33.9380   27.0660   49.4610 H   0  0  0  0  0  0  0  0  0  0  0  0
   33.6390   27.3100   47.7290 H   0  0  0  0  0  0  0  0  0  0  0  0
   32.2970   28.1370   49.0670 O   0  0  0  0  0  0  0  0  0  0  0  0
   31.4850   25.7550   48.3080 O   0  0  0  0  0  0  0  0  0  0  0  0
   31.2000   27.2200   48.1870 P   0  0  2  0  0  0  0  0  0  0  0  0
   31.3550   27.7140   46.5420 O   0  0  0  0  0  0  0  0  0  0  0  0
   30.1180   28.1880   46.1110 C   0  0  0  0  0  3  0  0  0  0  0  0
   29.9970   29.6850   46.0450 C   0  0  0  0  0  3  0  0  0  0  0  0
   28.9250   29.9080   45.8040 H   0  0  0  0  0  0  0  0  0  0  0  0
   30.8120   30.2790   44.9330 C   0  0  0  0  0  3  0  0  0  0  0  0
   30.3330   31.2850   44.7120 H   0  0  0  0  0  0  0  0  0  0  0  0
   30.7240   29.5240   43.7620 O   0  0  0  0  0  0  0  0  0  0  0  0
   29.6000   28.7220   43.7520 C   0  0  0  0  0  3  0  0  0  0  0  0
   28.7120   29.3610   43.8980 H   0  0  0  0  0  0  0  0  0  0  0  0
   29.7380   27.6350   44.7800 C   0  0  0  0  0  3  0  0  0  0  0  0
   28.8300   26.9910   44.8360 H   0  0  0  0  0  0  0  0  0  0  0  0
   29.6270   27.5310   48.6150 O   0  0  0  0  0  0  0  0  0  0  0  0
   29.4960   27.7190   49.9740 C   0  0  0  0  0  0  0  0  0  0  0  0
   29.5030   26.5160   50.6820 F   0  0  0  0  0  0  0  0  0  0  0  0
   30.5450   28.4720   50.4820 F   0  0  0  0  0  0  0  0  0  0  0  0
   28.3250   28.3710   50.2640 F   0  0  0  0  0  0  0  0  0  0  0  0
  1 25  1  0  0  0  0
  1  2  1  0  0  0  0
  1  3  1  0  0  0  0
  5 10  1  0  0  0  0
  5  4  1  0  0  0  0
  6  5  2  0  0  0  0
  7  8  2  0  0  0  0
  7  6  1  0  0  0  0
  8  9  1  0  0  0  0
  9 10  2  0  0  0  0
 10  1  1  0  0  0  0
 11  7  1  0  0  0  0
 12  8  1  0  0  0  0
 13  9  1  0  0  0  0
 14 19  1  0  0  0  0
 14 20  1  0  0  0  0
 15 14  2  0  0  0  0
 16 17  2  0  0  0  0
 16 15  1  0  0  0  0
 17 18  1  0  0  0  0
 18  6  1  0  0  0  0
 18 19  2  0  0  0  0
 21 15  1  0  0  0  0
 22 16  1  0  0  0  0
 23 22  1  0  0  0  0
 24 22  1  0  0  0  0
 25 28  1  0  0  0  0
 25 26  1  0  0  0  0
 27 25  1  0  0  0  0
 30 29  2  1  0  0  0
 30 42  1  0  0  0  0
 30 28  1  0  0  0  0
 31 30  1  0  0  0  0
 32 31  1  0  0  0  0
 33 32  1  0  0  0  0
 34 33  1  0  0  0  0
 35 33  1  0  0  0  0
 36 35  1  0  0  0  0
 37 35  1  0  0  0  0
 38 37  1  0  0  0  0
 38 39  1  0  0  0  0
 38 40  1  0  0  0  0
 40 41  1  0  0  0  0
 40 32  1  0  0  0  0
 42 43  1  0  0  0  0
 43 46  1  0  0  0  0
 43 45  1  0  0  0  0
 43 44  1  0  0  0  0
M  END
>  <minimizedAffinity>
-5.55356503

>  <minimizedRMSD>
1.5304023

$$$$
