
 OpenBabel03272509433D

 39 41  0  0  1  0  0  0  0  0999 V2000
   37.1590   30.9550   49.0200 C   0  0  0  0  0  0  0  0  0  0  0  0
   36.9330   31.9170   50.0080 C   0  0  0  0  0  0  0  0  0  0  0  0
   37.5500   33.1590   49.9690 C   0  0  0  0  0  0  0  0  0  0  0  0
   38.4190   33.4660   48.9220 C   0  0  0  0  0  0  0  0  0  0  0  0
   38.6280   32.5120   47.9640 C   0  0  0  0  0  0  0  0  0  0  0  0
   37.9980   31.2800   48.0310 C   0  0  0  0  0  0  0  0  0  0  0  0
   36.2450   31.6390   50.8130 H   0  0  0  0  0  0  0  0  0  0  0  0
   37.2860   33.8020   50.7930 H   0  0  0  0  0  0  0  0  0  0  0  0
   38.8610   34.4510   48.9600 H   0  0  0  0  0  0  0  0  0  0  0  0
   39.3300   32.8920   47.2130 H   0  0  0  0  0  0  0  0  0  0  0  0
   36.5440   29.6470   49.0780 C   0  0  2  0  0  0  0  0  0  0  0  0
   37.0400   29.0420   48.2250 H   0  0  0  0  0  0  0  0  0  0  0  0
   33.6530   30.0160   46.9060 C   0  0  0  0  0  0  0  0  0  0  0  0
   32.9360   28.8520   47.1030 C   0  0  0  0  0  0  0  0  0  0  0  0
   33.4050   27.9470   48.0370 C   0  0  0  0  0  0  0  0  0  0  0  0
   34.5600   28.2320   48.7310 N   0  0  0  0  0  0  0  0  0  0  0  0
   35.2010   29.3580   48.4960 C   0  0  0  0  0  0  0  0  0  0  0  0
   34.7570   30.2540   47.5900 N   0  0  0  0  0  0  0  0  0  0  0  0
   33.3160   30.7590   46.1770 H   0  0  0  0  0  0  0  0  0  0  0  0
   32.0480   28.7350   46.5030 H   0  0  0  0  0  0  0  0  0  0  0  0
   32.8400   27.0390   48.1890 H   0  0  0  0  0  0  0  0  0  0  0  0
   36.9880   28.9320   50.0500 O   0  0  0  0  0  0  0  0  0  0  0  0
   36.7730   29.1080   50.9900 H   0  0  0  0  0  0  0  0  0  0  0  0
   38.3350   30.3590   46.9700 C   0  0  0  0  0  3  0  0  0  0  0  0
   38.8540   30.7350   45.7960 C   0  0  0  0  0  3  0  0  0  0  0  0
   39.2780   29.8780   44.6630 C   0  0  0  0  0  0  0  0  0  0  0  0
   40.0290   29.1520   45.0780 H   0  0  0  0  0  0  0  0  0  0  0  0
   38.4120   29.3290   44.2690 H   0  0  0  0  0  0  0  0  0  0  0  0
   40.1380   30.8700   43.4410 S   0  0  0  0  0  0  0  0  0  0  0  0
   40.2570   30.0370   41.8400 C   0  0  0  0  0  3  0  0  0  0  0  0
   41.4910   29.1980   41.7920 C   0  0  0  0  0  3  0  0  0  0  0  0
   42.3790   29.6890   42.2310 H   0  0  0  0  0  0  0  0  0  0  0  0
   41.8440   28.6760   40.4420 C   0  0  0  0  0  3  0  0  0  0  0  0
   41.2720   27.7250   40.2680 H   0  0  0  0  0  0  0  0  0  0  0  0
   41.6250   29.5290   39.3910 O   0  0  0  0  0  0  0  0  0  0  0  0
   41.3640   30.8390   39.7250 C   0  0  0  0  0  3  0  0  0  0  0  0
   41.0130   31.3300   38.7740 H   0  0  0  0  0  0  0  0  0  0  0  0
   40.2650   31.0220   40.7190 C   0  0  0  0  0  3  0  0  0  0  0  0
   40.3670   32.0600   41.1470 H   0  0  0  0  0  0  0  0  0  0  0  0
  1 11  1  0  0  0  0
  1  2  1  0  0  0  0
  2  7  1  0  0  0  0
  3  2  2  0  0  0  0
  3  8  1  0  0  0  0
  4  9  1  0  0  0  0
  4  3  1  0  0  0  0
  5  6  1  0  0  0  0
  5  4  2  0  0  0  0
  6  1  2  0  0  0  0
 10  5  1  0  0  0  0
 11 12  1  6  0  0  0
 11 22  1  0  0  0  0
 13 14  2  0  0  0  0
 13 18  1  0  0  0  0
 14 15  1  0  0  0  0
 15 21  1  0  0  0  0
 15 16  2  0  0  0  0
 17 16  1  0  0  0  0
 17 11  1  0  0  0  0
 18 17  2  0  0  0  0
 19 13  1  0  0  0  0
 20 14  1  0  0  0  0
 22 23  1  0  0  0  0
 24  6  1  0  0  0  0
 25 24  2  0  0  0  0
 26 27  1  0  0  0  0
 26 25  1  0  0  0  0
 28 26  1  0  0  0  0
 29 26  1  0  0  0  0
 30 29  1  0  0  0  0
 31 30  1  0  0  0  0
 31 32  1  0  0  0  0
 33 31  1  0  0  0  0
 34 33  1  0  0  0  0
 35 36  1  0  0  0  0
 35 33  1  0  0  0  0
 36 38  1  0  0  0  0
 37 36  1  0  0  0  0
 38 39  1  0  0  0  0
 38 30  1  0  0  0  0
M  END
>  <minimizedAffinity>
-5.91209126

>  <minimizedRMSD>
0.346751541

$$$$
