
 OpenBabel03272509433D

 39 41  0  0  1  0  0  0  0  0999 V2000
   37.0090   30.9090   49.0630 C   0  0  0  0  0  0  0  0  0  0  0  0
   36.7070   31.8130   50.0850 C   0  0  0  0  0  0  0  0  0  0  0  0
   37.3000   33.0660   50.1480 C   0  0  0  0  0  0  0  0  0  0  0  0
   38.2220   33.4430   49.1720 C   0  0  0  0  0  0  0  0  0  0  0  0
   38.5060   32.5450   48.1800 C   0  0  0  0  0  0  0  0  0  0  0  0
   37.8980   31.3010   48.1440 C   0  0  0  0  0  0  0  0  0  0  0  0
   35.9780   31.4810   50.8320 H   0  0  0  0  0  0  0  0  0  0  0  0
   36.9750   33.6600   50.9870 H   0  0  0  0  0  0  0  0  0  0  0  0
   38.6410   34.4320   49.2880 H   0  0  0  0  0  0  0  0  0  0  0  0
   39.2430   32.9770   47.4930 H   0  0  0  0  0  0  0  0  0  0  0  0
   36.4180   29.5900   49.0150 C   0  0  2  0  0  0  0  0  0  0  0  0
   36.9450   29.0550   48.1350 H   0  0  0  0  0  0  0  0  0  0  0  0
   33.5760   30.0510   46.7960 C   0  0  0  0  0  0  0  0  0  0  0  0
   32.8720   28.8680   46.9040 C   0  0  0  0  0  0  0  0  0  0  0  0
   33.3320   27.9150   47.7940 C   0  0  0  0  0  0  0  0  0  0  0  0
   34.4650   28.1730   48.5330 N   0  0  0  0  0  0  0  0  0  0  0  0
   35.0950   29.3190   48.3830 C   0  0  0  0  0  0  0  0  0  0  0  0
   34.6600   30.2620   47.5220 N   0  0  0  0  0  0  0  0  0  0  0  0
   33.2470   30.8320   46.1050 H   0  0  0  0  0  0  0  0  0  0  0  0
   32.0020   28.7750   46.2760 H   0  0  0  0  0  0  0  0  0  0  0  0
   32.7770   26.9910   47.8770 H   0  0  0  0  0  0  0  0  0  0  0  0
   36.8540   28.8170   49.9460 O   0  0  0  0  0  0  0  0  0  0  0  0
   36.6140   28.9230   50.8910 H   0  0  0  0  0  0  0  0  0  0  0  0
   38.3150   30.4440   47.0580 C   0  0  0  0  0  3  0  0  0  0  0  0
   38.8050   30.8970   45.8990 C   0  0  0  0  0  3  0  0  0  0  0  0
   39.3040   30.1130   44.7450 C   0  0  0  0  0  0  0  0  0  0  0  0
   39.9490   29.2970   45.1690 H   0  0  0  0  0  0  0  0  0  0  0  0
   38.4570   29.6710   44.2030 H   0  0  0  0  0  0  0  0  0  0  0  0
   40.3710   31.1390   43.7300 S   0  0  0  0  0  0  0  0  0  0  0  0
   40.5260   30.5110   42.0410 C   0  0  0  0  0  3  0  0  0  0  0  0
   39.1740   30.2050   41.4860 C   0  0  0  0  0  3  0  0  0  0  0  0
   38.5010   29.7060   42.2050 H   0  0  0  0  0  0  0  0  0  0  0  0
   39.1790   29.4360   40.2100 C   0  0  0  0  0  3  0  0  0  0  0  0
   39.2910   30.1590   39.3580 H   0  0  0  0  0  0  0  0  0  0  0  0
   40.1370   28.4610   40.0990 O   0  0  0  0  0  0  0  0  0  0  0  0
   40.7960   28.1320   41.2610 C   0  0  0  0  0  3  0  0  0  0  0  0
   41.6650   27.4870   40.9440 H   0  0  0  0  0  0  0  0  0  0  0  0
   41.3850   29.2920   41.9940 C   0  0  0  0  0  3  0  0  0  0  0  0
   41.5950   28.9530   43.0490 H   0  0  0  0  0  0  0  0  0  0  0  0
  1  2  1  0  0  0  0
  2  3  2  0  0  0  0
  2  7  1  0  0  0  0
  3  8  1  0  0  0  0
  4  9  1  0  0  0  0
  4  3  1  0  0  0  0
  5  4  2  0  0  0  0
  6  5  1  0  0  0  0
  6  1  2  0  0  0  0
 10  5  1  0  0  0  0
 11 12  1  6  0  0  0
 11  1  1  0  0  0  0
 11 22  1  0  0  0  0
 13 14  2  0  0  0  0
 13 18  1  0  0  0  0
 14 15  1  0  0  0  0
 15 21  1  0  0  0  0
 15 16  2  0  0  0  0
 17 16  1  0  0  0  0
 17 11  1  0  0  0  0
 18 17  2  0  0  0  0
 19 13  1  0  0  0  0
 20 14  1  0  0  0  0
 22 23  1  0  0  0  0
 24  6  1  0  0  0  0
 25 24  2  0  0  0  0
 26 27  1  0  0  0  0
 26 25  1  0  0  0  0
 28 26  1  0  0  0  0
 29 26  1  0  0  0  0
 30 29  1  0  0  0  0
 31 30  1  0  0  0  0
 31 32  1  0  0  0  0
 33 31  1  0  0  0  0
 34 33  1  0  0  0  0
 35 33  1  0  0  0  0
 35 36  1  0  0  0  0
 36 38  1  0  0  0  0
 37 36  1  0  0  0  0
 38 30  1  0  0  0  0
 38 39  1  0  0  0  0
M  END
>  <minimizedAffinity>
-5.87694693

>  <minimizedRMSD>
0.577568173

$$$$
