
 OpenBabel03272509433D

 39 41  0  0  1  0  0  0  0  0999 V2000
   37.0090   30.9240   49.0950 C   0  0  0  0  0  0  0  0  0  0  0  0
   36.6840   31.8310   50.1070 C   0  0  0  0  0  0  0  0  0  0  0  0
   37.2560   33.0940   50.1650 C   0  0  0  0  0  0  0  0  0  0  0  0
   38.1810   33.4780   49.1930 C   0  0  0  0  0  0  0  0  0  0  0  0
   38.4870   32.5770   48.2100 C   0  0  0  0  0  0  0  0  0  0  0  0
   37.8990   31.3230   48.1800 C   0  0  0  0  0  0  0  0  0  0  0  0
   35.9550   31.4930   50.8510 H   0  0  0  0  0  0  0  0  0  0  0  0
   36.9160   33.6890   50.9970 H   0  0  0  0  0  0  0  0  0  0  0  0
   38.5830   34.4740   49.3040 H   0  0  0  0  0  0  0  0  0  0  0  0
   39.2220   33.0150   47.5260 H   0  0  0  0  0  0  0  0  0  0  0  0
   36.4400   29.5950   49.0540 C   0  0  2  0  0  0  0  0  0  0  0  0
   36.9450   29.0780   48.1500 H   0  0  0  0  0  0  0  0  0  0  0  0
   33.5870   29.9250   46.8250 C   0  0  0  0  0  0  0  0  0  0  0  0
   32.8450   28.7850   47.0600 C   0  0  0  0  0  0  0  0  0  0  0  0
   33.2840   27.9120   48.0390 C   0  0  0  0  0  0  0  0  0  0  0  0
   34.4340   28.2040   48.7370 N   0  0  0  0  0  0  0  0  0  0  0  0
   35.1000   29.3070   48.4650 C   0  0  0  0  0  0  0  0  0  0  0  0
   34.6860   30.1710   47.5150 N   0  0  0  0  0  0  0  0  0  0  0  0
   33.2750   30.6430   46.0610 H   0  0  0  0  0  0  0  0  0  0  0  0
   31.9640   28.6590   46.4530 H   0  0  0  0  0  0  0  0  0  0  0  0
   32.6990   27.0210   48.2210 H   0  0  0  0  0  0  0  0  0  0  0  0
   36.9210   28.8200   49.9610 O   0  0  0  0  0  0  0  0  0  0  0  0
   36.7130   28.9130   50.9140 H   0  0  0  0  0  0  0  0  0  0  0  0
   38.3390   30.4630   47.1050 C   0  0  0  0  0  3  0  0  0  0  0  0
   38.9340   30.9090   45.9930 C   0  0  0  0  0  3  0  0  0  0  0  0
   39.4640   30.1200   44.8560 C   0  0  0  0  0  0  0  0  0  0  0  0
   40.5410   30.4190   44.7360 H   0  0  0  0  0  0  0  0  0  0  0  0
   39.4010   29.0480   45.0890 H   0  0  0  0  0  0  0  0  0  0  0  0
   38.6240   30.5950   43.3440 S   0  0  0  0  0  0  0  0  0  0  0  0
   39.3330   29.7970   41.8840 C   0  0  0  0  0  3  0  0  0  0  0  0
   39.1520   28.3180   41.9730 C   0  0  0  0  0  3  0  0  0  0  0  0
   39.3450   27.9070   42.9810 H   0  0  0  0  0  0  0  0  0  0  0  0
   39.9200   27.5290   40.9710 C   0  0  0  0  0  3  0  0  0  0  0  0
   39.3210   27.4770   40.0230 H   0  0  0  0  0  0  0  0  0  0  0  0
   41.1790   27.9900   40.6800 O   0  0  0  0  0  0  0  0  0  0  0  0
   41.6770   28.9510   41.5300 C   0  0  0  0  0  3  0  0  0  0  0  0
   42.6050   29.3480   41.0280 H   0  0  0  0  0  0  0  0  0  0  0  0
   40.7810   30.1260   41.7370 C   0  0  0  0  0  3  0  0  0  0  0  0
   41.1290   30.6580   42.6680 H   0  0  0  0  0  0  0  0  0  0  0  0
  1  2  1  0  0  0  0
  2  3  2  0  0  0  0
  2  7  1  0  0  0  0
  3  8  1  0  0  0  0
  4  9  1  0  0  0  0
  4  3  1  0  0  0  0
  5  4  2  0  0  0  0
  6  5  1  0  0  0  0
  6  1  2  0  0  0  0
 10  5  1  0  0  0  0
 11 12  1  6  0  0  0
 11  1  1  0  0  0  0
 11 22  1  0  0  0  0
 13 14  2  0  0  0  0
 13 18  1  0  0  0  0
 14 15  1  0  0  0  0
 15 21  1  0  0  0  0
 15 16  2  0  0  0  0
 17 16  1  0  0  0  0
 17 11  1  0  0  0  0
 18 17  2  0  0  0  0
 19 13  1  0  0  0  0
 20 14  1  0  0  0  0
 22 23  1  0  0  0  0
 24  6  1  0  0  0  0
 25 24  2  0  0  0  0
 26 28  1  0  0  0  0
 26 25  1  0  0  0  0
 27 26  1  0  0  0  0
 29 26  1  0  0  0  0
 30 31  1  0  0  0  0
 30 29  1  0  0  0  0
 31 32  1  0  0  0  0
 33 31  1  0  0  0  0
 34 33  1  0  0  0  0
 35 33  1  0  0  0  0
 35 36  1  0  0  0  0
 36 38  1  0  0  0  0
 37 36  1  0  0  0  0
 38 30  1  0  0  0  0
 38 39  1  0  0  0  0
M  END
>  <minimizedAffinity>
-5.77493715

>  <minimizedRMSD>
0.338241547

$$$$
