
 OpenBabel03272507423D

 42 45  0  0  0  0  0  0  0  0999 V2000
   36.6750   31.2010   49.9420 C   0  0  0  0  0  0  0  0  0  0  0  0
   35.6750   30.2730   49.6630 C   0  0  0  0  0  0  0  0  0  0  0  0
   35.4860   29.1750   50.4740 C   0  0  0  0  0  0  0  0  0  0  0  0
   36.3100   29.0370   51.5480 N   0  0  0  0  0  0  0  0  0  0  0  0
   37.2820   29.9510   51.8090 C   0  0  0  0  0  0  0  0  0  0  0  0
   37.4480   31.0010   51.0150 N   0  0  0  0  0  0  0  0  0  0  0  0
   34.7310   28.4170   50.3170 H   0  0  0  0  0  0  0  0  0  0  0  0
   37.9180   29.7980   52.6820 H   0  0  0  0  0  0  0  0  0  0  0  0
   34.3510   29.1200   47.9520 C   0  0  0  0  0  0  0  0  0  0  0  0
   34.6960   27.8820   48.0880 O   0  0  0  0  0  0  0  0  0  0  0  0
   34.7840   30.3350   48.5810 N   0  0  0  0  0  0  0  0  0  0  0  0
   34.3580   31.1790   48.1330 H   0  0  0  0  0  0  0  0  0  0  0  0
   33.2930   29.0850   46.8990 C   0  0  0  0  0  0  0  0  0  0  0  0
   33.0660   30.4710   46.4120 C   0  0  0  0  0  0  0  0  0  0  0  0
   33.8520   30.7780   45.6600 H   0  0  0  0  0  0  0  0  0  0  0  0
   31.7460   30.6770   45.7170 C   0  0  0  0  0  0  0  0  0  0  0  0
   31.0590   31.2610   46.3750 H   0  0  0  0  0  0  0  0  0  0  0  0
   31.0780   29.4680   45.4950 O   0  0  0  0  0  0  0  0  0  0  0  0
   30.7810   28.9930   46.7890 C   0  0  0  0  0  0  0  0  0  0  0  0
   29.9780   28.2310   46.7590 H   0  0  0  0  0  0  0  0  0  0  0  0
   32.0730   28.3150   47.2580 C   0  0  0  0  0  0  0  0  0  0  0  0
   31.9320   28.0990   48.3290 H   0  0  0  0  0  0  0  0  0  0  0  0
   36.7100   32.2070   49.0400 O   0  0  0  0  0  0  0  0  0  0  0  0
   38.2320   32.1580   47.0800 C   0  0  0  0  0  0  0  0  0  0  0  0
   37.8480   32.5960   48.3350 C   0  0  0  0  0  0  0  0  0  0  0  0
   38.6280   33.5180   49.0190 C   0  0  0  0  0  0  0  0  0  0  0  0
   39.7940   33.9940   48.4330 C   0  0  0  0  0  0  0  0  0  0  0  0
   40.1690   33.5500   47.1800 C   0  0  0  0  0  0  0  0  0  0  0  0
   39.3730   32.6410   46.5380 C   0  0  0  0  0  0  0  0  0  0  0  0
   38.3830   33.9000   50.0010 H   0  0  0  0  0  0  0  0  0  0  0  0
   40.3990   34.7100   48.9660 H   0  0  0  0  0  0  0  0  0  0  0  0
   41.0700   33.8990   46.6940 H   0  0  0  0  0  0  0  0  0  0  0  0
   39.7850   32.1690   45.1910 C   0  0  0  0  0  0  0  0  0  0  0  0
   40.6280   31.1600   44.8450 C   0  0  0  0  0  0  0  0  0  0  0  0
   40.7010   31.0980   43.4590 C   0  0  0  0  0  0  0  0  0  0  0  0
   39.8730   32.1050   43.0390 C   0  0  0  0  0  0  0  0  0  0  0  0
   39.3330   32.7350   44.0810 O   0  0  0  0  0  0  0  0  0  0  0  0
   41.1530   30.5140   45.5380 H   0  0  0  0  0  0  0  0  0  0  0  0
   41.2800   30.4120   42.8330 H   0  0  0  0  0  0  0  0  0  0  0  0
   39.6610   32.3790   41.9960 H   0  0  0  0  0  0  0  0  0  0  0  0
   36.6890   30.4600   45.9220 N   0  0  0  0  0  0  0  0  0  0  0  0
   37.3750   31.2110   46.4460 C   0  0  0  0  0  0  0  0  0  0  0  0
  1  6  1  0  0  0  0
  2  1  2  0  0  0  0
  2  3  1  0  0  0  0
  3  4  2  0  0  0  0
  4  5  1  0  0  0  0
  5  8  1  0  0  0  0
  6  5  2  0  0  0  0
  7  3  1  0  0  0  0
  9 10  2  0  0  0  0
  9 11  1  0  0  0  0
 11  2  1  0  0  0  0
 12 11  1  0  0  0  0
 13 21  1  0  0  0  0
 13  9  1  0  0  0  0
 14 13  1  0  0  0  0
 15 14  1  0  0  0  0
 16 17  1  0  0  0  0
 16 14  1  0  0  0  0
 18 16  1  0  0  0  0
 18 19  1  0  0  0  0
 19 21  1  0  0  0  0
 20 19  1  0  0  0  0
 21 22  1  0  0  0  0
 23  1  1  0  0  0  0
 24 25  1  0  0  0  0
 25 26  2  0  0  0  0
 25 23  1  0  0  0  0
 26 30  1  0  0  0  0
 27 31  1  0  0  0  0
 27 26  1  0  0  0  0
 28 27  2  0  0  0  0
 29 24  2  0  0  0  0
 29 28  1  0  0  0  0
 32 28  1  0  0  0  0
 33 29  1  0  0  0  0
 34 33  2  0  0  0  0
 34 38  1  0  0  0  0
 35 34  1  0  0  0  0
 36 35  2  0  0  0  0
 36 37  1  0  0  0  0
 37 33  1  0  0  0  0
 39 35  1  0  0  0  0
 40 36  1  0  0  0  0
 41 42  3  0  0  0  0
 42 24  1  0  0  0  0
M  END
>  <minimizedAffinity>
-5.9872942

>  <minimizedRMSD>
0.657722831

$$$$
