
 OpenBabel03272504423D

 46 48  0  0  0  0  0  0  0  0999 V2000
   34.7970   29.4070   48.8440 C   0  0  0  0  0  0  0  0  0  0  0  0
   34.1640   30.2230   49.2910 H   0  0  0  0  0  0  0  0  0  0  0  0
   35.7200   29.4310   49.4940 H   0  0  0  0  0  0  0  0  0  0  0  0
   37.5510   30.4650   48.5330 Cl  0  0  0  0  0  0  0  0  0  0  0  0
   36.4020   30.3000   47.1940 C   0  0  0  0  0  0  0  0  0  0  0  0
   36.7820   30.6700   45.9520 C   0  0  0  0  0  0  0  0  0  0  0  0
   35.8990   30.5470   44.9040 C   0  0  0  0  0  0  0  0  0  0  0  0
   34.6350   30.0430   45.1630 C   0  0  0  0  0  0  0  0  0  0  0  0
   34.3100   29.6800   46.4750 C   0  0  0  0  0  0  0  0  0  0  0  0
   35.1650   29.7940   47.5110 C   0  0  0  0  0  0  0  0  0  0  0  0
   36.2220   30.8520   43.9060 H   0  0  0  0  0  0  0  0  0  0  0  0
   34.0070   29.9800   44.2920 H   0  0  0  0  0  0  0  0  0  0  0  0
   33.3320   29.3210   46.4950 H   0  0  0  0  0  0  0  0  0  0  0  0
   39.7670   32.8320   45.9880 C   0  0  0  0  0  0  0  0  0  0  0  0
   40.6350   32.1130   45.1160 C   0  0  0  0  0  0  0  0  0  0  0  0
   40.1620   30.9100   44.5460 C   0  0  0  0  0  0  0  0  0  0  0  0
   38.9080   30.4940   44.8550 N   0  0  0  0  0  0  0  0  0  0  0  0
   38.1100   31.2030   45.6890 C   0  0  0  0  0  0  0  0  0  0  0  0
   38.5420   32.3510   46.2410 N   0  0  0  0  0  0  0  0  0  0  0  0
   40.1330   33.7540   46.4240 H   0  0  0  0  0  0  0  0  0  0  0  0
   41.6080   32.5550   44.9540 H   0  0  0  0  0  0  0  0  0  0  0  0
   41.0340   30.2270   43.6960 N   0  0  0  0  0  0  0  0  0  0  0  0
   41.5970   30.6580   42.9570 H   0  0  0  0  0  0  0  0  0  0  0  0
   41.1370   29.1890   43.8000 H   0  0  0  0  0  0  0  0  0  0  0  0
   34.1200   28.1170   49.0620 C   0  0  0  0  0  0  0  0  0  0  0  0
   34.5450   27.5510   49.9260 H   0  0  0  0  0  0  0  0  0  0  0  0
   34.2890   27.4630   48.1720 H   0  0  0  0  0  0  0  0  0  0  0  0
   32.7880   28.2910   49.3270 O   0  0  0  0  0  0  0  0  0  0  0  0
   32.6800   26.5140   47.3930 O   0  0  0  0  0  0  0  0  0  0  0  0
   31.8440   27.4060   48.2570 P   0  0  2  0  0  0  0  0  0  0  0  0
   31.0060   28.5520   47.2770 O   0  0  0  0  0  0  0  0  0  0  0  0
   30.8700   28.0140   45.9990 C   0  0  0  0  0  3  0  0  0  0  0  0
   29.6080   27.2270   45.7710 C   0  0  0  0  0  3  0  0  0  0  0  0
   29.7010   26.7650   44.7540 H   0  0  0  0  0  0  0  0  0  0  0  0
   28.3870   28.0990   45.7270 C   0  0  0  0  0  3  0  0  0  0  0  0
   27.6110   27.5040   45.1500 H   0  0  0  0  0  0  0  0  0  0  0  0
   28.6110   29.2740   45.0090 O   0  0  0  0  0  0  0  0  0  0  0  0
   29.6860   29.1560   44.1500 C   0  0  0  0  0  3  0  0  0  0  0  0
   29.5090   28.2930   43.4850 H   0  0  0  0  0  0  0  0  0  0  0  0
   30.9610   29.0570   44.9390 C   0  0  0  0  0  3  0  0  0  0  0  0
   31.8510   28.9130   44.2830 H   0  0  0  0  0  0  0  0  0  0  0  0
   30.6750   26.5170   49.0290 O   0  0  0  0  0  0  0  0  0  0  0  0
   29.8330   27.3170   49.7710 C   0  0  0  0  0  0  0  0  0  0  0  0
   29.2980   26.6490   50.8750 F   0  0  0  0  0  0  0  0  0  0  0  0
   30.5030   28.4220   50.2770 F   0  0  0  0  0  0  0  0  0  0  0  0
   28.7890   27.7670   49.0050 F   0  0  0  0  0  0  0  0  0  0  0  0
  1 25  1  0  0  0  0
  1  2  1  0  0  0  0
  1  3  1  0  0  0  0
  5 10  1  0  0  0  0
  5  4  1  0  0  0  0
  6  5  2  0  0  0  0
  7  8  2  0  0  0  0
  7  6  1  0  0  0  0
  8  9  1  0  0  0  0
  9 13  1  0  0  0  0
  9 10  2  0  0  0  0
 10  1  1  0  0  0  0
 11  7  1  0  0  0  0
 12  8  1  0  0  0  0
 14 19  1  0  0  0  0
 14 20  1  0  0  0  0
 15 14  2  0  0  0  0
 16 17  2  0  0  0  0
 16 15  1  0  0  0  0
 17 18  1  0  0  0  0
 18  6  1  0  0  0  0
 18 19  2  0  0  0  0
 21 15  1  0  0  0  0
 22 24  1  0  0  0  0
 22 16  1  0  0  0  0
 23 22  1  0  0  0  0
 25 28  1  0  0  0  0
 25 26  1  0  0  0  0
 27 25  1  0  0  0  0
 30 29  2  6  0  0  0
 30 42  1  0  0  0  0
 30 28  1  0  0  0  0
 31 30  1  0  0  0  0
 32 31  1  0  0  0  0
 33 32  1  0  0  0  0
 34 33  1  0  0  0  0
 35 33  1  0  0  0  0
 36 35  1  0  0  0  0
 37 35  1  0  0  0  0
 38 40  1  0  0  0  0
 38 37  1  0  0  0  0
 39 38  1  0  0  0  0
 40 32  1  0  0  0  0
 41 40  1  0  0  0  0
 42 43  1  0  0  0  0
 43 45  1  0  0  0  0
 43 44  1  0  0  0  0
 46 43  1  0  0  0  0
M  END
>  <minimizedAffinity>
-5.75316

>  <minimizedRMSD>
0.665320516

$$$$
