
 OpenBabel03272503213D

 38 41  0  0  0  0  0  0  0  0999 V2000
   35.5860   29.4100   50.5060 C   0  0  0  0  0  0  0  0  0  0  0  0
   36.3490   30.1820   49.6130 C   0  0  0  0  0  0  0  0  0  0  0  0
   36.1010   29.9960   48.2340 C   0  0  0  0  0  0  0  0  0  0  0  0
   35.1750   29.1150   47.8620 N   0  0  0  0  0  0  0  0  0  0  0  0
   34.4640   28.3940   48.7360 C   0  0  0  0  0  0  0  0  0  0  0  0
   34.6700   28.5440   50.0410 N   0  0  0  0  0  0  0  0  0  0  0  0
   35.7990   29.5760   51.5610 H   0  0  0  0  0  0  0  0  0  0  0  0
   37.1040   30.9010   49.8800 H   0  0  0  0  0  0  0  0  0  0  0  0
   36.8590   30.7670   47.2310 C   0  0  0  0  0  0  0  0  0  0  0  0
   37.7920   31.7040   47.3390 C   0  0  0  0  0  0  0  0  0  0  0  0
   38.3230   32.2490   46.2330 C   0  0  0  0  0  0  0  0  0  0  0  0
   37.8700   31.8020   45.0160 C   0  0  0  0  0  0  0  0  0  0  0  0
   36.6260   30.5470   45.5070 S   0  0  0  0  0  0  0  0  0  0  0  0
   38.0940   31.9990   48.3400 H   0  0  0  0  0  0  0  0  0  0  0  0
   39.0860   33.0160   46.1740 H   0  0  0  0  0  0  0  0  0  0  0  0
   40.6720   31.0210   44.1050 Cl  0  0  0  0  0  0  0  0  0  0  0  0
   39.4180   31.8120   43.1680 C   0  0  0  0  0  0  0  0  0  0  0  0
   38.1840   32.1300   43.6450 C   0  0  0  0  0  0  0  0  0  0  0  0
   37.1970   32.7330   42.9670 C   0  0  0  0  0  0  0  0  0  0  0  0
   37.4400   33.0770   41.6290 C   0  0  0  0  0  0  0  0  0  0  0  0
   38.6500   32.7910   41.0810 C   0  0  0  0  0  0  0  0  0  0  0  0
   38.9960   33.2030   39.4160 Cl  0  0  0  0  0  0  0  0  0  0  0  0
   39.6360   32.1620   41.8400 C   0  0  0  0  0  0  0  0  0  0  0  0
   36.2170   32.9780   43.3710 H   0  0  0  0  0  0  0  0  0  0  0  0
   36.6510   33.5740   41.0430 H   0  0  0  0  0  0  0  0  0  0  0  0
   40.5870   31.9570   41.3500 H   0  0  0  0  0  0  0  0  0  0  0  0
   33.4810   27.4650   48.2140 C   0  0  0  0  0  0  0  0  0  0  0  0
   33.8530   26.3230   47.8580 O   0  0  0  0  0  0  0  0  0  0  0  0
   32.0770   27.9190   48.1290 C   0  0  0  0  0  0  0  0  0  0  0  0
   31.6350   28.3670   46.7780 C   0  0  0  0  0  0  0  0  0  0  0  0
   31.6000   27.4940   46.0900 H   0  0  0  0  0  0  0  0  0  0  0  0
   30.2040   28.8840   46.9630 C   0  0  0  0  0  0  0  0  0  0  0  0
   29.8730   29.5270   46.1460 H   0  0  0  0  0  0  0  0  0  0  0  0
   29.3280   27.8620   47.2980 O   0  0  0  0  0  0  0  0  0  0  0  0
   29.9410   26.6760   47.6300 C   0  0  0  0  0  0  0  0  0  0  0  0
   29.1980   26.0470   48.1650 H   0  0  0  0  0  0  0  0  0  0  0  0
   31.1100   26.8320   48.5670 C   0  0  0  0  0  0  0  0  0  0  0  0
   30.8320   26.9040   49.6290 H   0  0  0  0  0  0  0  0  0  0  0  0
  1  7  1  0  0  0  0
  2  8  1  0  0  0  0
  2  1  2  0  0  0  0
  3  2  1  0  0  0  0
  4  3  2  0  0  0  0
  4  5  1  0  0  0  0
  5  6  2  0  0  0  0
  6  1  1  0  0  0  0
  9 10  2  0  0  0  0
  9  3  1  0  0  0  0
 10 14  1  0  0  0  0
 11 10  1  0  0  0  0
 12 13  1  0  0  0  0
 12 11  2  0  0  0  0
 13  9  1  0  0  0  0
 15 11  1  0  0  0  0
 17 18  1  0  0  0  0
 17 16  1  0  0  0  0
 18 12  1  0  0  0  0
 19 24  1  0  0  0  0
 19 18  2  0  0  0  0
 20 19  1  0  0  0  0
 21 20  2  0  0  0  0
 21 23  1  0  0  0  0
 22 21  1  0  0  0  0
 23 17  2  0  0  0  0
 25 20  1  0  0  0  0
 26 23  1  0  0  0  0
 27  5  1  0  0  0  0
 28 27  2  0  0  0  0
 29 27  1  0  0  0  0
 29 37  1  0  0  0  0
 30 32  1  0  0  0  0
 30 29  1  0  0  0  0
 31 30  1  0  0  0  0
 32 34  1  0  0  0  0
 33 32  1  0  0  0  0
 34 35  1  0  0  0  0
 35 36  1  0  0  0  0
 35 37  1  0  0  0  0
 37 38  1  0  0  0  0
M  END
>  <minimizedAffinity>
-5.837502

>  <minimizedRMSD>
2.78438497

$$$$
