
 OpenBabel03272507423D

 42 45  0  0  0  0  0  0  0  0999 V2000
   36.6650   31.1980   50.1080 C   0  0  0  0  0  0  0  0  0  0  0  0
   35.5610   30.3790   49.8830 C   0  0  0  0  0  0  0  0  0  0  0  0
   35.3560   29.2480   50.6440 C   0  0  0  0  0  0  0  0  0  0  0  0
   36.2680   28.9690   51.6140 N   0  0  0  0  0  0  0  0  0  0  0  0
   37.3410   29.7780   51.8230 C   0  0  0  0  0  0  0  0  0  0  0  0
   37.5200   30.8620   51.0780 N   0  0  0  0  0  0  0  0  0  0  0  0
   34.5230   28.5680   50.5240 H   0  0  0  0  0  0  0  0  0  0  0  0
   38.0450   29.5130   52.6130 H   0  0  0  0  0  0  0  0  0  0  0  0
   34.1740   29.5000   48.0620 C   0  0  0  0  0  0  0  0  0  0  0  0
   34.6170   28.2960   47.9000 O   0  0  0  0  0  0  0  0  0  0  0  0
   34.5740   30.5880   48.9070 N   0  0  0  0  0  0  0  0  0  0  0  0
   34.0510   31.4670   48.6860 H   0  0  0  0  0  0  0  0  0  0  0  0
   33.0310   29.5940   47.1060 C   0  0  0  0  0  3  0  0  0  0  0  0
   32.2260   28.3490   47.2080 C   0  0  0  0  0  3  0  0  0  0  0  0
   31.5280   28.3800   48.0980 H   0  0  0  0  0  0  0  0  0  0  0  0
   31.3440   28.0800   46.0180 C   0  0  0  0  0  3  0  0  0  0  0  0
   31.7640   27.2400   45.4170 H   0  0  0  0  0  0  0  0  0  0  0  0
   31.3120   29.1650   45.1360 O   0  0  0  0  0  0  0  0  0  0  0  0
   32.6330   29.2510   44.6460 C   0  0  0  0  0  3  0  0  0  0  0  0
   32.6710   29.8390   43.7080 H   0  0  0  0  0  0  0  0  0  0  0  0
   33.3970   30.0200   45.7290 C   0  0  0  0  0  3  0  0  0  0  0  0
   34.4620   29.9420   45.4620 H   0  0  0  0  0  0  0  0  0  0  0  0
   36.6990   32.2560   49.2670 O   0  0  0  0  0  0  0  0  0  0  0  0
   38.2330   32.2050   47.3160 C   0  0  0  0  0  0  0  0  0  0  0  0
   37.8270   32.6630   48.5570 C   0  0  0  0  0  0  0  0  0  0  0  0
   38.5720   33.6290   49.2190 C   0  0  0  0  0  0  0  0  0  0  0  0
   39.7250   34.1280   48.6250 C   0  0  0  0  0  0  0  0  0  0  0  0
   40.1220   33.6620   47.3860 C   0  0  0  0  0  0  0  0  0  0  0  0
   39.3600   32.7100   46.7660 C   0  0  0  0  0  0  0  0  0  0  0  0
   38.3100   34.0300   50.1890 H   0  0  0  0  0  0  0  0  0  0  0  0
   40.3030   34.8780   49.1410 H   0  0  0  0  0  0  0  0  0  0  0  0
   41.0130   34.0280   46.8950 H   0  0  0  0  0  0  0  0  0  0  0  0
   39.7940   32.2160   45.4340 C   0  0  0  0  0  0  0  0  0  0  0  0
   40.6580   31.2130   45.1210 C   0  0  0  0  0  0  0  0  0  0  0  0
   40.7480   31.1220   43.7370 C   0  0  0  0  0  0  0  0  0  0  0  0
   39.9080   32.1050   43.2860 C   0  0  0  0  0  0  0  0  0  0  0  0
   39.3460   32.7490   44.3070 O   0  0  0  0  0  0  0  0  0  0  0  0
   41.1850   30.5910   45.8340 H   0  0  0  0  0  0  0  0  0  0  0  0
   41.3450   30.4320   43.1330 H   0  0  0  0  0  0  0  0  0  0  0  0
   39.7030   32.3520   42.2350 H   0  0  0  0  0  0  0  0  0  0  0  0
   36.7530   30.4250   46.1990 N   0  0  0  0  0  0  0  0  0  0  0  0
   37.4110   31.2120   46.7050 C   0  0  0  0  0  0  0  0  0  0  0  0
  1  6  1  0  0  0  0
  2  1  2  0  0  0  0
  2  3  1  0  0  0  0
  3  4  2  0  0  0  0
  4  5  1  0  0  0  0
  5  8  1  0  0  0  0
  6  5  2  0  0  0  0
  7  3  1  0  0  0  0
  9 11  1  0  0  0  0
 10  9  2  0  0  0  0
 11  2  1  0  0  0  0
 12 11  1  0  0  0  0
 13 14  1  0  0  0  0
 13  9  1  0  0  0  0
 14 15  1  0  0  0  0
 16 14  1  0  0  0  0
 17 16  1  0  0  0  0
 18 16  1  0  0  0  0
 19 18  1  0  0  0  0
 19 21  1  0  0  0  0
 20 19  1  0  0  0  0
 21 13  1  0  0  0  0
 22 21  1  0  0  0  0
 23  1  1  0  0  0  0
 24 25  1  0  0  0  0
 25 26  2  0  0  0  0
 25 23  1  0  0  0  0
 26 30  1  0  0  0  0
 27 31  1  0  0  0  0
 27 26  1  0  0  0  0
 28 27  2  0  0  0  0
 29 24  2  0  0  0  0
 29 28  1  0  0  0  0
 32 28  1  0  0  0  0
 33 29  1  0  0  0  0
 34 33  2  0  0  0  0
 34 38  1  0  0  0  0
 35 34  1  0  0  0  0
 36 35  2  0  0  0  0
 36 37  1  0  0  0  0
 37 33  1  0  0  0  0
 39 35  1  0  0  0  0
 40 36  1  0  0  0  0
 41 42  3  0  0  0  0
 42 24  1  0  0  0  0
M  END
>  <minimizedAffinity>
-5.95070028

>  <minimizedRMSD>
0.539560497

$$$$
