
 OpenBabel03272504413D

 46 48  0  0  0  0  0  0  0  0999 V2000
   34.8450   29.3760   48.8510 C   0  0  0  0  0  0  0  0  0  0  0  0
   34.2350   30.1950   49.3220 H   0  0  0  0  0  0  0  0  0  0  0  0
   35.7760   29.3680   49.4890 H   0  0  0  0  0  0  0  0  0  0  0  0
   37.6000   30.4300   48.5350 Cl  0  0  0  0  0  0  0  0  0  0  0  0
   36.4400   30.2900   47.2030 C   0  0  0  0  0  0  0  0  0  0  0  0
   36.8110   30.6780   45.9630 C   0  0  0  0  0  0  0  0  0  0  0  0
   35.9190   30.5740   44.9200 C   0  0  0  0  0  0  0  0  0  0  0  0
   34.6550   30.0690   45.1810 C   0  0  0  0  0  0  0  0  0  0  0  0
   34.3400   29.6870   46.4900 C   0  0  0  0  0  0  0  0  0  0  0  0
   35.2040   29.7820   47.5210 C   0  0  0  0  0  0  0  0  0  0  0  0
   36.2350   30.8930   43.9250 H   0  0  0  0  0  0  0  0  0  0  0  0
   34.0210   30.0210   44.3150 H   0  0  0  0  0  0  0  0  0  0  0  0
   33.3610   29.3310   46.5130 H   0  0  0  0  0  0  0  0  0  0  0  0
   39.7960   32.8390   45.9950 C   0  0  0  0  0  0  0  0  0  0  0  0
   40.6620   32.1210   45.1200 C   0  0  0  0  0  0  0  0  0  0  0  0
   40.1880   30.9190   44.5500 C   0  0  0  0  0  0  0  0  0  0  0  0
   38.9350   30.5020   44.8610 N   0  0  0  0  0  0  0  0  0  0  0  0
   38.1390   31.2110   45.6980 C   0  0  0  0  0  0  0  0  0  0  0  0
   38.5710   32.3580   46.2500 N   0  0  0  0  0  0  0  0  0  0  0  0
   40.1630   33.7610   46.4310 H   0  0  0  0  0  0  0  0  0  0  0  0
   41.6350   32.5620   44.9570 H   0  0  0  0  0  0  0  0  0  0  0  0
   41.0580   30.2360   43.6970 N   0  0  0  0  0  0  0  0  0  0  0  0
   41.6200   30.6680   42.9580 H   0  0  0  0  0  0  0  0  0  0  0  0
   41.1610   29.1980   43.8010 H   0  0  0  0  0  0  0  0  0  0  0  0
   34.1450   28.0950   49.0520 C   0  0  0  0  0  0  0  0  0  0  0  0
   34.5650   27.5060   49.9020 H   0  0  0  0  0  0  0  0  0  0  0  0
   34.2930   27.4550   48.1490 H   0  0  0  0  0  0  0  0  0  0  0  0
   32.8180   28.2910   49.3320 O   0  0  0  0  0  0  0  0  0  0  0  0
   32.6610   26.5990   47.3270 O   0  0  0  0  0  0  0  0  0  0  0  0
   31.8480   27.4580   48.2440 P   0  0  2  0  0  0  0  0  0  0  0  0
   30.9970   28.6500   47.3320 O   0  0  0  0  0  0  0  0  0  0  0  0
   30.8780   28.1910   46.0220 C   0  0  0  0  0  3  0  0  0  0  0  0
   29.6210   27.4160   45.7300 C   0  0  0  0  0  3  0  0  0  0  0  0
   29.7280   27.0190   44.6880 H   0  0  0  0  0  0  0  0  0  0  0  0
   28.3980   28.2880   45.7260 C   0  0  0  0  0  3  0  0  0  0  0  0
   27.6320   27.7280   45.1040 H   0  0  0  0  0  0  0  0  0  0  0  0
   28.6280   29.5050   45.0830 O   0  0  0  0  0  0  0  0  0  0  0  0
   29.7140   29.4410   44.2320 C   0  0  0  0  0  3  0  0  0  0  0  0
   29.5470   28.6210   43.5130 H   0  0  0  0  0  0  0  0  0  0  0  0
   30.9790   29.2980   45.0290 C   0  0  0  0  0  3  0  0  0  0  0  0
   31.8770   29.1950   44.3770 H   0  0  0  0  0  0  0  0  0  0  0  0
   30.6890   26.5430   49.0010 O   0  0  0  0  0  0  0  0  0  0  0  0
   29.8370   27.3200   49.7550 C   0  0  0  0  0  0  0  0  0  0  0  0
   29.3090   26.6280   50.8470 F   0  0  0  0  0  0  0  0  0  0  0  0
   30.4930   28.4250   50.2800 F   0  0  0  0  0  0  0  0  0  0  0  0
   28.7890   27.7710   48.9940 F   0  0  0  0  0  0  0  0  0  0  0  0
  1 25  1  0  0  0  0
  1  2  1  0  0  0  0
  1  3  1  0  0  0  0
  5 10  1  0  0  0  0
  5  4  1  0  0  0  0
  6  5  2  0  0  0  0
  7  8  2  0  0  0  0
  7  6  1  0  0  0  0
  8  9  1  0  0  0  0
  9 13  1  0  0  0  0
  9 10  2  0  0  0  0
 10  1  1  0  0  0  0
 11  7  1  0  0  0  0
 12  8  1  0  0  0  0
 14 19  1  0  0  0  0
 14 20  1  0  0  0  0
 15 14  2  0  0  0  0
 16 17  2  0  0  0  0
 16 15  1  0  0  0  0
 17 18  1  0  0  0  0
 18  6  1  0  0  0  0
 18 19  2  0  0  0  0
 21 15  1  0  0  0  0
 22 24  1  0  0  0  0
 22 16  1  0  0  0  0
 23 22  1  0  0  0  0
 25 28  1  0  0  0  0
 25 26  1  0  0  0  0
 27 25  1  0  0  0  0
 30 29  2  6  0  0  0
 30 42  1  0  0  0  0
 30 28  1  0  0  0  0
 31 30  1  0  0  0  0
 32 31  1  0  0  0  0
 33 32  1  0  0  0  0
 34 33  1  0  0  0  0
 35 33  1  0  0  0  0
 36 35  1  0  0  0  0
 37 35  1  0  0  0  0
 38 40  1  0  0  0  0
 38 37  1  0  0  0  0
 39 38  1  0  0  0  0
 40 32  1  0  0  0  0
 41 40  1  0  0  0  0
 42 43  1  0  0  0  0
 43 45  1  0  0  0  0
 43 44  1  0  0  0  0
 46 43  1  0  0  0  0
M  END
>  <minimizedAffinity>
-5.74407864

>  <minimizedRMSD>
1.58705628

$$$$
