
 OpenBabel03272509433D

 39 41  0  0  1  0  0  0  0  0999 V2000
   37.0860   30.9420   49.0510 C   0  0  0  0  0  0  0  0  0  0  0  0
   36.8080   31.8710   50.0560 C   0  0  0  0  0  0  0  0  0  0  0  0
   37.4020   33.1250   50.0740 C   0  0  0  0  0  0  0  0  0  0  0  0
   38.3020   33.4760   49.0670 C   0  0  0  0  0  0  0  0  0  0  0  0
   38.5620   32.5540   48.0910 C   0  0  0  0  0  0  0  0  0  0  0  0
   37.9520   31.3100   48.1010 C   0  0  0  0  0  0  0  0  0  0  0  0
   36.0970   31.5590   50.8280 H   0  0  0  0  0  0  0  0  0  0  0  0
   37.0980   33.7390   50.9060 H   0  0  0  0  0  0  0  0  0  0  0  0
   38.7240   34.4680   49.1490 H   0  0  0  0  0  0  0  0  0  0  0  0
   39.2820   32.9670   47.3770 H   0  0  0  0  0  0  0  0  0  0  0  0
   36.4930   29.6220   49.0500 C   0  0  2  0  0  0  0  0  0  0  0  0
   36.9900   29.0680   48.1640 H   0  0  0  0  0  0  0  0  0  0  0  0
   33.6230   29.9740   46.8480 C   0  0  0  0  0  0  0  0  0  0  0  0
   32.8840   28.8300   47.0760 C   0  0  0  0  0  0  0  0  0  0  0  0
   33.3310   27.9470   48.0420 C   0  0  0  0  0  0  0  0  0  0  0  0
   34.4870   28.2330   48.7340 N   0  0  0  0  0  0  0  0  0  0  0  0
   35.1500   29.3400   48.4690 C   0  0  0  0  0  0  0  0  0  0  0  0
   34.7270   30.2130   47.5320 N   0  0  0  0  0  0  0  0  0  0  0  0
   33.3040   30.6990   46.0940 H   0  0  0  0  0  0  0  0  0  0  0  0
   31.9980   28.7100   46.4750 H   0  0  0  0  0  0  0  0  0  0  0  0
   32.7480   27.0540   48.2190 H   0  0  0  0  0  0  0  0  0  0  0  0
   36.9600   28.8680   49.9820 O   0  0  0  0  0  0  0  0  0  0  0  0
   36.7530   28.9940   50.9320 H   0  0  0  0  0  0  0  0  0  0  0  0
   38.3440   30.4250   47.0280 C   0  0  0  0  0  3  0  0  0  0  0  0
   38.8680   30.8460   45.8720 C   0  0  0  0  0  3  0  0  0  0  0  0
   39.3450   30.0300   44.7300 C   0  0  0  0  0  0  0  0  0  0  0  0
   40.4070   29.7460   44.9630 H   0  0  0  0  0  0  0  0  0  0  0  0
   38.7310   29.1240   44.6400 H   0  0  0  0  0  0  0  0  0  0  0  0
   39.3940   31.0350   43.2450 S   0  0  0  0  0  0  0  0  0  0  0  0
   39.6480   30.0460   41.7520 C   0  0  0  0  0  3  0  0  0  0  0  0
   40.1060   28.6750   42.1210 C   0  0  0  0  0  3  0  0  0  0  0  0
   40.8560   28.6600   42.9330 H   0  0  0  0  0  0  0  0  0  0  0  0
   40.6030   27.8500   40.9850 C   0  0  0  0  0  3  0  0  0  0  0  0
   39.7250   27.3530   40.4940 H   0  0  0  0  0  0  0  0  0  0  0  0
   41.3300   28.5180   40.0310 O   0  0  0  0  0  0  0  0  0  0  0  0
   41.7340   29.7890   40.3670 C   0  0  0  0  0  3  0  0  0  0  0  0
   42.1230   30.2450   39.4120 H   0  0  0  0  0  0  0  0  0  0  0  0
   40.6410   30.6880   40.8410 C   0  0  0  0  0  3  0  0  0  0  0  0
   41.1230   31.5530   41.3800 H   0  0  0  0  0  0  0  0  0  0  0  0
  1  2  1  0  0  0  0
  2  3  2  0  0  0  0
  2  7  1  0  0  0  0
  3  8  1  0  0  0  0
  4  9  1  0  0  0  0
  4  3  1  0  0  0  0
  5  6  1  0  0  0  0
  5  4  2  0  0  0  0
  6  1  2  0  0  0  0
 10  5  1  0  0  0  0
 11 12  1  6  0  0  0
 11  1  1  0  0  0  0
 11 22  1  0  0  0  0
 13 14  2  0  0  0  0
 13 18  1  0  0  0  0
 14 15  1  0  0  0  0
 15 21  1  0  0  0  0
 15 16  2  0  0  0  0
 17 16  1  0  0  0  0
 17 11  1  0  0  0  0
 18 17  2  0  0  0  0
 19 13  1  0  0  0  0
 20 14  1  0  0  0  0
 22 23  1  0  0  0  0
 24  6  1  0  0  0  0
 25 24  2  0  0  0  0
 26 27  1  0  0  0  0
 26 25  1  0  0  0  0
 28 26  1  0  0  0  0
 29 26  1  0  0  0  0
 30 31  1  0  0  0  0
 30 29  1  0  0  0  0
 31 32  1  0  0  0  0
 33 31  1  0  0  0  0
 34 33  1  0  0  0  0
 35 36  1  0  0  0  0
 35 33  1  0  0  0  0
 36 38  1  0  0  0  0
 37 36  1  0  0  0  0
 38 39  1  0  0  0  0
 38 30  1  0  0  0  0
M  END
>  <minimizedAffinity>
-5.74748182

>  <minimizedRMSD>
0.333560497

$$$$
