
 OpenBabel03262523413D

 39 41  0  0  1  0  0  0  0  0999 V2000
   38.4160   26.9110   36.0700 C   0  0  0  0  0  0  0  0  0  0  0  0
   38.0690   27.4650   34.8470 C   0  0  0  0  0  0  0  0  0  0  0  0
   37.7200   26.7070   33.7490 C   0  0  0  0  0  0  0  0  0  0  0  0
   37.7470   25.3740   33.9690 N   0  0  0  0  0  0  0  0  0  0  0  0
   38.0750   24.7860   35.1310 C   0  0  0  0  0  0  0  0  0  0  0  0
   38.4100   25.5670   36.1820 N   0  0  0  0  0  0  0  0  0  0  0  0
   37.3700   27.2810   32.5240 N   0  0  0  0  0  0  0  0  0  0  0  0
   38.3200   27.1680   31.4610 C   0  0  0  0  0  0  0  0  0  0  0  0
   37.8920   27.7650   30.1560 C   0  0  0  0  0  0  0  0  0  0  0  0
   36.5720   28.1260   30.0180 N   0  0  0  0  0  0  0  0  0  0  0  0
   35.8800   28.6710   31.1300 C   0  0  0  0  0  0  0  0  0  0  0  0
   36.0870   27.9360   32.4110 C   0  0  2  0  0  0  0  0  0  0  0  0
   38.6930   27.4770   36.9480 H   0  0  0  0  0  0  0  0  0  0  0  0
   38.1180   28.5390   34.8750 H   0  0  0  0  0  0  0  0  0  0  0  0
   38.0550   23.6930   35.1700 H   0  0  0  0  0  0  0  0  0  0  0  0
   39.3090   27.5380   31.8060 H   0  0  0  0  0  0  0  0  0  0  0  0
   38.4640   26.0590   31.3080 H   0  0  0  0  0  0  0  0  0  0  0  0
   38.1990   27.1080   29.3130 H   0  0  0  0  0  0  0  0  0  0  0  0
   38.5380   28.6840   30.0230 H   0  0  0  0  0  0  0  0  0  0  0  0
   35.9610   27.5390   29.3920 H   0  0  0  0  0  0  0  0  0  0  0  0
   34.8050   28.7140   30.8450 H   0  0  0  0  0  0  0  0  0  0  0  0
   36.2530   29.7080   31.2520 H   0  0  0  0  0  0  0  0  0  0  0  0
   35.3200   27.1080   32.4930 H   0  0  0  0  0  0  0  0  0  0  0  0
   35.7800   28.8950   33.5170 C   0  0  0  0  0  0  0  0  0  0  0  0
   36.5750   28.8850   34.3100 H   0  0  0  0  0  0  0  0  0  0  0  0
   34.7850   28.7320   33.9120 H   0  0  0  0  0  0  0  0  0  0  0  0
   35.8060   30.2880   32.8590 C   0  0  0  0  0  0  0  0  0  0  0  0
   36.7880   30.5810   32.4970 H   0  0  0  0  0  0  0  0  0  0  0  0
   35.0090   30.2840   32.0990 H   0  0  0  0  0  0  0  0  0  0  0  0
   35.3730   31.3070   33.9290 C   0  0  0  0  0  3  0  0  0  0  0  0
   36.0550   32.6330   33.7570 C   0  0  0  0  0  3  0  0  0  0  0  0
   36.8990   32.5100   33.0470 H   0  0  0  0  0  0  0  0  0  0  0  0
   36.6710   33.1260   35.0480 C   0  0  0  0  0  3  0  0  0  0  0  0
   37.6550   32.6260   35.2150 H   0  0  0  0  0  0  0  0  0  0  0  0
   35.8500   33.0060   36.1410 O   0  0  0  0  0  0  0  0  0  0  0  0
   35.3020   31.7600   36.3360 C   0  0  0  0  0  3  0  0  0  0  0  0
   35.4450   31.3260   37.3330 H   0  0  0  0  0  0  0  0  0  0  0  0
   35.7200   30.7600   35.2810 C   0  0  0  0  0  3  0  0  0  0  0  0
   35.0950   29.8460   35.4580 H   0  0  0  0  0  0  0  0  0  0  0  0
  1  6  1  0  0  0  0
  1 13  1  0  0  0  0
  2 14  1  0  0  0  0
  2  1  2  0  0  0  0
  3  4  2  0  0  0  0
  3  2  1  0  0  0  0
  4  5  1  0  0  0  0
  5 15  1  0  0  0  0
  5  6  2  0  0  0  0
  7  3  1  0  0  0  0
  8 16  1  0  0  0  0
  8  7  1  0  0  0  0
  9  8  1  0  0  0  0
 10  9  1  0  0  0  0
 10 11  1  0  0  0  0
 11 22  1  0  0  0  0
 11 12  1  0  0  0  0
 12 23  1  1  0  0  0
 12  7  1  0  0  0  0
 12 24  1  0  0  0  0
 17  8  1  0  0  0  0
 18  9  1  0  0  0  0
 19  9  1  0  0  0  0
 20 10  1  0  0  0  0
 21 11  1  0  0  0  0
 24 26  1  0  0  0  0
 24 25  1  0  0  0  0
 27 24  1  0  0  0  0
 27 30  1  0  0  0  0
 28 27  1  0  0  0  0
 29 27  1  0  0  0  0
 30 38  1  0  0  0  0
 31 30  1  0  0  0  0
 31 33  1  0  0  0  0
 32 31  1  0  0  0  0
 33 34  1  0  0  0  0
 33 35  1  0  0  0  0
 35 36  1  0  0  0  0
 36 37  1  0  0  0  0
 38 39  1  0  0  0  0
 38 36  1  0  0  0  0
M  END
>  <minimizedAffinity>
-5.14994526

$$$$

 OpenBabel03262523413D

 39 41  0  0  1  0  0  0  0  0999 V2000
   37.1050   22.4340   32.5460 C   0  0  0  0  0  0  0  0  0  0  0  0
   37.7740   22.7510   33.7190 C   0  0  0  0  0  0  0  0  0  0  0  0
   37.5220   22.1260   34.9220 C   0  0  0  0  0  0  0  0  0  0  0  0
   36.5620   21.1780   34.8580 N   0  0  0  0  0  0  0  0  0  0  0  0
   35.8840   20.8320   33.7520 C   0  0  0  0  0  0  0  0  0  0  0  0
   36.1640   21.4700   32.5940 N   0  0  0  0  0  0  0  0  0  0  0  0
   38.2080   22.4550   36.0940 N   0  0  0  0  0  0  0  0  0  0  0  0
   37.4810   23.1850   37.0860 C   0  0  0  0  0  0  0  0  0  0  0  0
   38.2400   23.4870   38.3410 C   0  0  0  0  0  0  0  0  0  0  0  0
   39.4380   22.8400   38.5370 N   0  0  0  0  0  0  0  0  0  0  0  0
   40.2820   22.5870   37.4260 C   0  0  0  0  0  0  0  0  0  0  0  0
   39.5840   22.0370   36.2270 C   0  0  2  0  0  0  0  0  0  0  0  0
   37.2800   22.9040   31.5880 H   0  0  0  0  0  0  0  0  0  0  0  0
   38.4910   23.5370   33.5600 H   0  0  0  0  0  0  0  0  0  0  0  0
   35.1310   20.0430   33.8440 H   0  0  0  0  0  0  0  0  0  0  0  0
   37.0260   24.0880   36.6240 H   0  0  0  0  0  0  0  0  0  0  0  0
   36.6050   22.5270   37.3570 H   0  0  0  0  0  0  0  0  0  0  0  0
   37.5840   23.3560   39.2290 H   0  0  0  0  0  0  0  0  0  0  0  0
   38.4280   24.6030   38.3140 H   0  0  0  0  0  0  0  0  0  0  0  0
   39.4790   22.0880   39.2740 H   0  0  0  0  0  0  0  0  0  0  0  0
   41.0860   21.9070   37.7860 H   0  0  0  0  0  0  0  0  0  0  0  0
   40.7400   23.5600   37.1540 H   0  0  0  0  0  0  0  0  0  0  0  0
   39.5480   20.9080   36.3040 H   0  0  0  0  0  0  0  0  0  0  0  0
   40.4450   22.3450   35.0440 C   0  0  0  0  0  0  0  0  0  0  0  0
   39.8320   22.5510   34.1260 H   0  0  0  0  0  0  0  0  0  0  0  0
   41.1900   21.5740   34.8910 H   0  0  0  0  0  0  0  0  0  0  0  0
   41.1800   23.6480   35.4090 C   0  0  0  0  0  0  0  0  0  0  0  0
   40.9380   24.0220   36.4000 H   0  0  0  0  0  0  0  0  0  0  0  0
   42.2500   23.4580   35.2300 H   0  0  0  0  0  0  0  0  0  0  0  0
   40.7580   24.7150   34.3820 C   0  0  0  0  0  3  0  0  0  0  0  0
   41.9250   25.5160   33.8850 C   0  0  0  0  0  3  0  0  0  0  0  0
   42.7950   25.3240   34.5470 H   0  0  0  0  0  0  0  0  0  0  0  0
   41.6680   27.0040   33.9650 C   0  0  0  0  0  3  0  0  0  0  0  0
   41.8460   27.3670   35.0050 H   0  0  0  0  0  0  0  0  0  0  0  0
   40.4340   27.3840   33.5000 O   0  0  0  0  0  0  0  0  0  0  0  0
   39.3650   26.7010   34.0310 C   0  0  0  0  0  3  0  0  0  0  0  0
   38.5660   27.3200   34.4560 H   0  0  0  0  0  0  0  0  0  0  0  0
   39.7790   25.6460   35.0330 C   0  0  0  0  0  3  0  0  0  0  0  0
   38.8500   25.0650   35.2710 H   0  0  0  0  0  0  0  0  0  0  0  0
  1  6  2  0  0  0  0
  1  2  1  0  0  0  0
  2  3  2  0  0  0  0
  3  7  1  0  0  0  0
  4  3  1  0  0  0  0
  5 15  1  0  0  0  0
  5  4  2  0  0  0  0
  6  5  1  0  0  0  0
  7 12  1  0  0  0  0
  7  8  1  0  0  0  0
  8 17  1  0  0  0  0
  8  9  1  0  0  0  0
  9 10  1  0  0  0  0
  9 18  1  0  0  0  0
 10 20  1  0  0  0  0
 11 21  1  0  0  0  0
 11 10  1  0  0  0  0
 12 23  1  1  0  0  0
 12 11  1  0  0  0  0
 13  1  1  0  0  0  0
 14  2  1  0  0  0  0
 16  8  1  0  0  0  0
 19  9  1  0  0  0  0
 22 11  1  0  0  0  0
 24 27  1  0  0  0  0
 24 12  1  0  0  0  0
 25 24  1  0  0  0  0
 26 24  1  0  0  0  0
 27 28  1  0  0  0  0
 29 27  1  0  0  0  0
 30 38  1  0  0  0  0
 30 27  1  0  0  0  0
 31 33  1  0  0  0  0
 31 30  1  0  0  0  0
 31 32  1  0  0  0  0
 33 34  1  0  0  0  0
 35 33  1  0  0  0  0
 35 36  1  0  0  0  0
 36 37  1  0  0  0  0
 36 38  1  0  0  0  0
 38 39  1  0  0  0  0
M  END
>  <minimizedAffinity>
-5.09379816

$$$$

 OpenBabel03262523413D

 39 41  0  0  1  0  0  0  0  0999 V2000
   36.9480   27.7200   33.3600 C   0  0  0  0  0  0  0  0  0  0  0  0
   36.9340   26.3410   33.2130 C   0  0  0  0  0  0  0  0  0  0  0  0
   36.9040   25.7150   31.9850 C   0  0  0  0  0  0  0  0  0  0  0  0
   36.8860   26.5640   30.9350 N   0  0  0  0  0  0  0  0  0  0  0  0
   36.8970   27.9040   31.0200 C   0  0  0  0  0  0  0  0  0  0  0  0
   36.9280   28.4760   32.2440 N   0  0  0  0  0  0  0  0  0  0  0  0
   36.8950   24.3240   31.8550 N   0  0  0  0  0  0  0  0  0  0  0  0
   35.6650   23.7200   31.4430 C   0  0  0  0  0  0  0  0  0  0  0  0
   35.7060   22.2320   31.2810 C   0  0  0  0  0  0  0  0  0  0  0  0
   36.9380   21.6210   31.2870 N   0  0  0  0  0  0  0  0  0  0  0  0
   37.9550   22.1140   32.1440 C   0  0  0  0  0  0  0  0  0  0  0  0
   38.1110   23.5970   32.1340 C   0  0  2  0  0  0  0  0  0  0  0  0
   36.9710   28.2410   34.3070 H   0  0  0  0  0  0  0  0  0  0  0  0
   36.9430   25.8460   34.1680 H   0  0  0  0  0  0  0  0  0  0  0  0
   36.8800   28.4730   30.0850 H   0  0  0  0  0  0  0  0  0  0  0  0
   34.8420   24.0630   32.1060 H   0  0  0  0  0  0  0  0  0  0  0  0
   35.4330   24.1750   30.4360 H   0  0  0  0  0  0  0  0  0  0  0  0
   35.1320   21.9270   30.3790 H   0  0  0  0  0  0  0  0  0  0  0  0
   35.0910   21.8220   32.1370 H   0  0  0  0  0  0  0  0  0  0  0  0
   37.3070   21.2410   30.3760 H   0  0  0  0  0  0  0  0  0  0  0  0
   38.8960   21.5950   31.8510 H   0  0  0  0  0  0  0  0  0  0  0  0
   37.6820   21.7920   33.1700 H   0  0  0  0  0  0  0  0  0  0  0  0
   38.8310   23.8900   31.3110 H   0  0  0  0  0  0  0  0  0  0  0  0
   38.7780   23.9720   33.4190 C   0  0  0  0  0  0  0  0  0  0  0  0
   38.5260   25.0220   33.7280 H   0  0  0  0  0  0  0  0  0  0  0  0
   39.8440   23.7880   33.3760 H   0  0  0  0  0  0  0  0  0  0  0  0
   38.1770   23.0250   34.4750 C   0  0  0  0  0  0  0  0  0  0  0  0
   37.0970   22.9270   34.4090 H   0  0  0  0  0  0  0  0  0  0  0  0
   38.7380   22.0810   34.3960 H   0  0  0  0  0  0  0  0  0  0  0  0
   38.5160   23.6090   35.8590 C   0  0  0  0  0  3  0  0  0  0  0  0
   39.9170   23.2780   36.2850 C   0  0  0  0  0  3  0  0  0  0  0  0
   40.3130   22.4850   35.6190 H   0  0  0  0  0  0  0  0  0  0  0  0
   39.9640   22.7030   37.6830 C   0  0  0  0  0  3  0  0  0  0  0  0
   39.7020   21.6190   37.6580 H   0  0  0  0  0  0  0  0  0  0  0  0
   39.2010   23.3880   38.5960 O   0  0  0  0  0  0  0  0  0  0  0  0
   37.8940   23.6060   38.2290 C   0  0  0  0  0  3  0  0  0  0  0  0
   37.1350   23.2890   38.9550 H   0  0  0  0  0  0  0  0  0  0  0  0
   37.5620   23.0410   36.8670 C   0  0  0  0  0  3  0  0  0  0  0  0
   36.5330   23.4140   36.6200 H   0  0  0  0  0  0  0  0  0  0  0  0
  1 13  1  0  0  0  0
  2  1  1  0  0  0  0
  2 14  1  0  0  0  0
  3  2  2  0  0  0  0
  4  5  2  0  0  0  0
  4  3  1  0  0  0  0
  5  6  1  0  0  0  0
  6  1  2  0  0  0  0
  7  3  1  0  0  0  0
  7 12  1  0  0  0  0
  8  7  1  0  0  0  0
  8 16  1  0  0  0  0
  9 10  1  0  0  0  0
  9  8  1  0  0  0  0
  9 19  1  0  0  0  0
 10 11  1  0  0  0  0
 11 22  1  0  0  0  0
 12 23  1  6  0  0  0
 12 11  1  0  0  0  0
 12 24  1  0  0  0  0
 15  5  1  0  0  0  0
 17  8  1  0  0  0  0
 18  9  1  0  0  0  0
 20 10  1  0  0  0  0
 21 11  1  0  0  0  0
 24 25  1  0  0  0  0
 24 27  1  0  0  0  0
 26 24  1  0  0  0  0
 27 30  1  0  0  0  0
 28 27  1  0  0  0  0
 29 27  1  0  0  0  0
 30 31  1  0  0  0  0
 30 38  1  0  0  0  0
 31 33  1  0  0  0  0
 32 31  1  0  0  0  0
 33 35  1  0  0  0  0
 34 33  1  0  0  0  0
 36 35  1  0  0  0  0
 36 37  1  0  0  0  0
 38 36  1  0  0  0  0
 39 38  1  0  0  0  0
M  END
>  <minimizedAffinity>
-4.8756361

$$$$

 OpenBabel03262523413D

 39 41  0  0  1  0  0  0  0  0999 V2000
   38.9390   22.7790   35.8370 C   0  0  0  0  0  0  0  0  0  0  0  0
   38.1470   23.2710   34.8100 C   0  0  0  0  0  0  0  0  0  0  0  0
   38.5500   24.2870   33.9690 C   0  0  0  0  0  0  0  0  0  0  0  0
   39.7860   24.7630   34.2340 N   0  0  0  0  0  0  0  0  0  0  0  0
   40.5930   24.3240   35.2130 C   0  0  0  0  0  0  0  0  0  0  0  0
   40.1590   23.3260   36.0140 N   0  0  0  0  0  0  0  0  0  0  0  0
   37.7400   24.7690   32.9370 N   0  0  0  0  0  0  0  0  0  0  0  0
   37.1560   26.0610   33.1230 C   0  0  0  0  0  0  0  0  0  0  0  0
   36.3250   26.5570   31.9800 C   0  0  0  0  0  0  0  0  0  0  0  0
   36.4010   25.8730   30.7890 N   0  0  0  0  0  0  0  0  0  0  0  0
   36.5370   24.4620   30.8040 C   0  0  0  0  0  0  0  0  0  0  0  0
   37.5540   23.9460   31.7650 C   0  0  2  0  0  0  0  0  0  0  0  0
   38.6530   21.9850   36.5120 H   0  0  0  0  0  0  0  0  0  0  0  0
   37.1980   22.7670   34.7720 H   0  0  0  0  0  0  0  0  0  0  0  0
   41.5730   24.8010   35.3160 H   0  0  0  0  0  0  0  0  0  0  0  0
   36.6200   26.0910   34.0960 H   0  0  0  0  0  0  0  0  0  0  0  0
   38.0280   26.7660   33.2520 H   0  0  0  0  0  0  0  0  0  0  0  0
   36.5080   27.6400   31.8120 H   0  0  0  0  0  0  0  0  0  0  0  0
   35.2570   26.5240   32.3530 H   0  0  0  0  0  0  0  0  0  0  0  0
   36.9030   26.3330   29.9850 H   0  0  0  0  0  0  0  0  0  0  0  0
   36.7590   24.1530   29.7580 H   0  0  0  0  0  0  0  0  0  0  0  0
   35.5440   24.0550   31.0870 H   0  0  0  0  0  0  0  0  0  0  0  0
   38.5650   23.9170   31.2560 H   0  0  0  0  0  0  0  0  0  0  0  0
   37.1960   22.5230   32.0550 C   0  0  0  0  0  0  0  0  0  0  0  0
   37.2700   22.2900   33.1510 H   0  0  0  0  0  0  0  0  0  0  0  0
   37.7690   21.8410   31.4390 H   0  0  0  0  0  0  0  0  0  0  0  0
   35.7140   22.3920   31.6560 C   0  0  0  0  0  0  0  0  0  0  0  0
   35.0230   22.6440   32.4560 H   0  0  0  0  0  0  0  0  0  0  0  0
   35.5920   22.9780   30.7320 H   0  0  0  0  0  0  0  0  0  0  0  0
   35.4740   20.9220   31.2660 C   0  0  0  0  0  3  0  0  0  0  0  0
   34.7850   20.1530   32.3550 C   0  0  0  0  0  3  0  0  0  0  0  0
   34.8190   20.7500   33.2890 H   0  0  0  0  0  0  0  0  0  0  0  0
   35.4940   18.8550   32.6700 C   0  0  0  0  0  3  0  0  0  0  0  0
   36.3650   19.0490   33.3410 H   0  0  0  0  0  0  0  0  0  0  0  0
   35.8600   18.1340   31.5610 O   0  0  0  0  0  0  0  0  0  0  0  0
   36.5690   18.8310   30.6100 C   0  0  0  0  0  3  0  0  0  0  0  0
   37.5170   18.3780   30.2930 H   0  0  0  0  0  0  0  0  0  0  0  0
   36.7980   20.2770   30.9880 C   0  0  0  0  0  3  0  0  0  0  0  0
   37.2400   20.7670   30.0810 H   0  0  0  0  0  0  0  0  0  0  0  0
  1  6  1  0  0  0  0
  1 13  1  0  0  0  0
  2  1  2  0  0  0  0
  3  4  2  0  0  0  0
  3  2  1  0  0  0  0
  4  5  1  0  0  0  0
  5 15  1  0  0  0  0
  5  6  2  0  0  0  0
  7  8  1  0  0  0  0
  7  3  1  0  0  0  0
  8 17  1  0  0  0  0
  8 16  1  0  0  0  0
  9 19  1  0  0  0  0
  9  8  1  0  0  0  0
 10 11  1  0  0  0  0
 10  9  1  0  0  0  0
 11 22  1  0  0  0  0
 11 12  1  0  0  0  0
 12 23  1  6  0  0  0
 12 24  1  0  0  0  0
 12  7  1  0  0  0  0
 14  2  1  0  0  0  0
 18  9  1  0  0  0  0
 20 10  1  0  0  0  0
 21 11  1  0  0  0  0
 24 25  1  0  0  0  0
 26 24  1  0  0  0  0
 27 24  1  0  0  0  0
 27 28  1  0  0  0  0
 29 27  1  0  0  0  0
 30 27  1  0  0  0  0
 30 31  1  0  0  0  0
 31 33  1  0  0  0  0
 31 32  1  0  0  0  0
 33 34  1  0  0  0  0
 35 33  1  0  0  0  0
 36 38  1  0  0  0  0
 36 35  1  0  0  0  0
 37 36  1  0  0  0  0
 38 30  1  0  0  0  0
 39 38  1  0  0  0  0
M  END
>  <minimizedAffinity>
-4.81947374

$$$$

 OpenBabel03262523413D

 39 41  0  0  1  0  0  0  0  0999 V2000
   37.7980   24.3710   37.2610 C   0  0  0  0  0  0  0  0  0  0  0  0
   38.2670   25.2070   36.2590 C   0  0  0  0  0  0  0  0  0  0  0  0
   39.3290   24.8810   35.4430 C   0  0  0  0  0  0  0  0  0  0  0  0
   39.8760   23.6740   35.7060 N   0  0  0  0  0  0  0  0  0  0  0  0
   39.4630   22.8270   36.6620 C   0  0  0  0  0  0  0  0  0  0  0  0
   38.4170   23.1860   37.4390 N   0  0  0  0  0  0  0  0  0  0  0  0
   39.7880   25.7340   34.4350 N   0  0  0  0  0  0  0  0  0  0  0  0
   41.0340   26.3970   34.6650 C   0  0  0  0  0  0  0  0  0  0  0  0
   41.5070   27.2730   33.5470 C   0  0  0  0  0  0  0  0  0  0  0  0
   40.8630   27.1710   32.3360 N   0  0  0  0  0  0  0  0  0  0  0  0
   39.4630   26.9460   32.3090 C   0  0  0  0  0  0  0  0  0  0  0  0
   38.9870   25.8840   33.2420 C   0  0  2  0  0  0  0  0  0  0  0  0
   36.9690   24.5970   37.9170 H   0  0  0  0  0  0  0  0  0  0  0  0
   37.7040   26.1220   36.2180 H   0  0  0  0  0  0  0  0  0  0  0  0
   39.9980   21.8780   36.7660 H   0  0  0  0  0  0  0  0  0  0  0  0
   41.0020   26.9190   35.6440 H   0  0  0  0  0  0  0  0  0  0  0  0
   41.7900   25.5690   34.8030 H   0  0  0  0  0  0  0  0  0  0  0  0
   42.6050   27.1620   33.4070 H   0  0  0  0  0  0  0  0  0  0  0  0
   41.3960   28.3320   33.9310 H   0  0  0  0  0  0  0  0  0  0  0  0
   41.3770   26.7100   31.5390 H   0  0  0  0  0  0  0  0  0  0  0  0
   39.1980   26.7190   31.2520 H   0  0  0  0  0  0  0  0  0  0  0  0
   38.9870   27.9060   32.5920 H   0  0  0  0  0  0  0  0  0  0  0  0
   39.0370   24.8810   32.7200 H   0  0  0  0  0  0  0  0  0  0  0  0
   37.5370   26.1470   33.4960 C   0  0  0  0  0  0  0  0  0  0  0  0
   37.1910   25.6810   34.4570 H   0  0  0  0  0  0  0  0  0  0  0  0
   36.9320   25.8590   32.6450 H   0  0  0  0  0  0  0  0  0  0  0  0
   37.4280   27.6750   33.6600 C   0  0  0  0  0  0  0  0  0  0  0  0
   37.4630   28.0060   34.6940 H   0  0  0  0  0  0  0  0  0  0  0  0
   38.1970   28.1100   33.0030 H   0  0  0  0  0  0  0  0  0  0  0  0
   36.0710   28.1020   33.0710 C   0  0  0  0  0  3  0  0  0  0  0  0
   36.2020   28.6260   31.6710 C   0  0  0  0  0  3  0  0  0  0  0  0
   37.2750   28.8130   31.4600 H   0  0  0  0  0  0  0  0  0  0  0  0
   35.5080   29.9580   31.4950 C   0  0  0  0  0  3  0  0  0  0  0  0
   36.1600   30.7800   31.8760 H   0  0  0  0  0  0  0  0  0  0  0  0
   34.2510   30.0110   32.0440 O   0  0  0  0  0  0  0  0  0  0  0  0
   34.1630   29.6120   33.3570 C   0  0  0  0  0  3  0  0  0  0  0  0
   33.6750   30.3200   34.0400 H   0  0  0  0  0  0  0  0  0  0  0  0
   35.4930   29.1830   33.9350 C   0  0  0  0  0  3  0  0  0  0  0  0
   35.2650   28.7410   34.9400 H   0  0  0  0  0  0  0  0  0  0  0  0
  1  6  1  0  0  0  0
  1 13  1  0  0  0  0
  2  1  2  0  0  0  0
  3  4  2  0  0  0  0
  3  2  1  0  0  0  0
  4  5  1  0  0  0  0
  5 15  1  0  0  0  0
  5  6  2  0  0  0  0
  7  8  1  0  0  0  0
  7  3  1  0  0  0  0
  8 17  1  0  0  0  0
  8 16  1  0  0  0  0
  9 19  1  0  0  0  0
  9  8  1  0  0  0  0
 10  9  1  0  0  0  0
 11 10  1  0  0  0  0
 11 22  1  0  0  0  0
 11 12  1  0  0  0  0
 12 23  1  6  0  0  0
 12 24  1  0  0  0  0
 12  7  1  0  0  0  0
 14  2  1  0  0  0  0
 18  9  1  0  0  0  0
 20 10  1  0  0  0  0
 21 11  1  0  0  0  0
 24 27  1  0  0  0  0
 24 25  1  0  0  0  0
 26 24  1  0  0  0  0
 27 28  1  0  0  0  0
 29 27  1  0  0  0  0
 30 27  1  0  0  0  0
 30 38  1  0  0  0  0
 31 30  1  0  0  0  0
 32 31  1  0  0  0  0
 33 31  1  0  0  0  0
 33 34  1  0  0  0  0
 33 35  1  0  0  0  0
 35 36  1  0  0  0  0
 36 38  1  0  0  0  0
 36 37  1  0  0  0  0
 38 39  1  0  0  0  0
M  END
>  <minimizedAffinity>
-4.63735485

$$$$

 OpenBabel03262523413D

 39 41  0  0  1  0  0  0  0  0999 V2000
   36.1750   21.0120   33.8920 C   0  0  0  0  0  0  0  0  0  0  0  0
   36.9450   21.8650   33.1160 C   0  0  0  0  0  0  0  0  0  0  0  0
   36.7770   22.0030   31.7540 C   0  0  0  0  0  0  0  0  0  0  0  0
   35.7960   21.2300   31.2400 N   0  0  0  0  0  0  0  0  0  0  0  0
   35.0230   20.3870   31.9430 C   0  0  0  0  0  0  0  0  0  0  0  0
   35.2210   20.2840   33.2760 N   0  0  0  0  0  0  0  0  0  0  0  0
   37.5600   22.8710   30.9880 N   0  0  0  0  0  0  0  0  0  0  0  0
   38.5380   22.2760   30.1320 C   0  0  0  0  0  0  0  0  0  0  0  0
   39.3300   23.2370   29.3010 C   0  0  0  0  0  0  0  0  0  0  0  0
   38.8940   24.5400   29.2380 N   0  0  0  0  0  0  0  0  0  0  0  0
   38.3260   25.1400   30.3910 C   0  0  0  0  0  0  0  0  0  0  0  0
   37.3290   24.2920   31.1050 C   0  0  2  0  0  0  0  0  0  0  0  0
   36.2810   20.8820   34.9590 H   0  0  0  0  0  0  0  0  0  0  0  0
   37.6750   22.3840   33.7120 H   0  0  0  0  0  0  0  0  0  0  0  0
   34.2630   19.8190   31.3970 H   0  0  0  0  0  0  0  0  0  0  0  0
   39.1740   21.5810   30.7200 H   0  0  0  0  0  0  0  0  0  0  0  0
   37.9540   21.6090   29.4320 H   0  0  0  0  0  0  0  0  0  0  0  0
   39.4760   22.8320   28.2760 H   0  0  0  0  0  0  0  0  0  0  0  0
   40.3730   23.2220   29.7420 H   0  0  0  0  0  0  0  0  0  0  0  0
   38.4640   24.8750   28.3370 H   0  0  0  0  0  0  0  0  0  0  0  0
   37.8880   26.1090   30.0610 H   0  0  0  0  0  0  0  0  0  0  0  0
   39.1690   25.3530   31.0800 H   0  0  0  0  0  0  0  0  0  0  0  0
   36.3040   24.4660   30.6570 H   0  0  0  0  0  0  0  0  0  0  0  0
   37.2570   24.7960   32.5110 C   0  0  0  0  0  0  0  0  0  0  0  0
   38.2530   24.7380   33.0260 H   0  0  0  0  0  0  0  0  0  0  0  0
   36.4660   24.3050   33.0640 H   0  0  0  0  0  0  0  0  0  0  0  0
   36.8920   26.2880   32.3860 C   0  0  0  0  0  0  0  0  0  0  0  0
   37.1960   26.7330   31.4430 H   0  0  0  0  0  0  0  0  0  0  0  0
   35.8170   26.3600   32.6120 H   0  0  0  0  0  0  0  0  0  0  0  0
   37.6190   27.0340   33.5190 C   0  0  0  0  0  3  0  0  0  0  0  0
   39.0980   27.1280   33.2770 C   0  0  0  0  0  3  0  0  0  0  0  0
   39.3690   26.4310   32.4580 H   0  0  0  0  0  0  0  0  0  0  0  0
   39.9000   26.6840   34.4790 C   0  0  0  0  0  3  0  0  0  0  0  0
   39.9630   25.5700   34.5050 H   0  0  0  0  0  0  0  0  0  0  0  0
   39.4500   27.1930   35.6710 O   0  0  0  0  0  0  0  0  0  0  0  0
   38.1080   27.0200   35.9200 C   0  0  0  0  0  3  0  0  0  0  0  0
   37.8560   26.5570   36.8820 H   0  0  0  0  0  0  0  0  0  0  0  0
   37.3900   26.2950   34.8040 C   0  0  0  0  0  3  0  0  0  0  0  0
   36.2980   26.3550   35.0490 H   0  0  0  0  0  0  0  0  0  0  0  0
  1 13  1  0  0  0  0
  2 14  1  0  0  0  0
  2  1  2  0  0  0  0
  3  2  1  0  0  0  0
  4  3  2  0  0  0  0
  4  5  1  0  0  0  0
  5  6  2  0  0  0  0
  6  1  1  0  0  0  0
  7 12  1  0  0  0  0
  7  3  1  0  0  0  0
  8 16  1  0  0  0  0
  8  7  1  0  0  0  0
  9 19  1  0  0  0  0
  9  8  1  0  0  0  0
 10  9  1  0  0  0  0
 10 11  1  0  0  0  0
 11 22  1  0  0  0  0
 11 12  1  0  0  0  0
 12 23  1  6  0  0  0
 12 24  1  0  0  0  0
 15  5  1  0  0  0  0
 17  8  1  0  0  0  0
 18  9  1  0  0  0  0
 20 10  1  0  0  0  0
 21 11  1  0  0  0  0
 24 25  1  0  0  0  0
 24 26  1  0  0  0  0
 27 24  1  0  0  0  0
 27 29  1  0  0  0  0
 27 30  1  0  0  0  0
 28 27  1  0  0  0  0
 30 38  1  0  0  0  0
 31 30  1  0  0  0  0
 31 33  1  0  0  0  0
 32 31  1  0  0  0  0
 33 34  1  0  0  0  0
 33 35  1  0  0  0  0
 35 36  1  0  0  0  0
 36 37  1  0  0  0  0
 38 39  1  0  0  0  0
 38 36  1  0  0  0  0
M  END
>  <minimizedAffinity>
-4.60735369

$$$$

 OpenBabel03262523413D

 39 41  0  0  1  0  0  0  0  0999 V2000
   37.6850   24.1240   37.1770 C   0  0  0  0  0  0  0  0  0  0  0  0
   38.0930   24.9150   36.1140 C   0  0  0  0  0  0  0  0  0  0  0  0
   39.3060   24.7550   35.4780 C   0  0  0  0  0  0  0  0  0  0  0  0
   40.0650   23.7580   35.9830 N   0  0  0  0  0  0  0  0  0  0  0  0
   39.7190   22.9630   37.0090 C   0  0  0  0  0  0  0  0  0  0  0  0
   38.5210   23.1550   37.6030 N   0  0  0  0  0  0  0  0  0  0  0  0
   39.7000   25.5590   34.4060 N   0  0  0  0  0  0  0  0  0  0  0  0
   40.7230   26.5260   34.6630 C   0  0  0  0  0  0  0  0  0  0  0  0
   41.1420   27.3430   33.4810 C   0  0  0  0  0  0  0  0  0  0  0  0
   40.7150   26.9380   32.2380 N   0  0  0  0  0  0  0  0  0  0  0  0
   39.4190   26.3800   32.0950 C   0  0  0  0  0  0  0  0  0  0  0  0
   39.0640   25.3610   33.1250 C   0  0  2  0  0  0  0  0  0  0  0  0
   36.7420   24.2240   37.6960 H   0  0  0  0  0  0  0  0  0  0  0  0
   37.3520   25.6560   35.8710 H   0  0  0  0  0  0  0  0  0  0  0  0
   40.4320   22.1910   37.3160 H   0  0  0  0  0  0  0  0  0  0  0  0
   40.4370   27.1440   35.5410 H   0  0  0  0  0  0  0  0  0  0  0  0
   41.6160   25.9280   35.0100 H   0  0  0  0  0  0  0  0  0  0  0  0
   42.2450   27.4820   33.4800 H   0  0  0  0  0  0  0  0  0  0  0  0
   40.7450   28.3830   33.6820 H   0  0  0  0  0  0  0  0  0  0  0  0
   41.4260   26.5170   31.5830 H   0  0  0  0  0  0  0  0  0  0  0  0
   39.3630   25.9660   31.0640 H   0  0  0  0  0  0  0  0  0  0  0  0
   38.7050   27.2260   32.1730 H   0  0  0  0  0  0  0  0  0  0  0  0
   39.4090   24.3420   32.7730 H   0  0  0  0  0  0  0  0  0  0  0  0
   37.5700   25.2980   33.1760 C   0  0  0  0  0  0  0  0  0  0  0  0
   37.1090   26.3210   33.1720 H   0  0  0  0  0  0  0  0  0  0  0  0
   37.2320   24.6850   34.0030 H   0  0  0  0  0  0  0  0  0  0  0  0
   37.1520   24.6000   31.8680 C   0  0  0  0  0  0  0  0  0  0  0  0
   36.2490   25.0100   31.4250 H   0  0  0  0  0  0  0  0  0  0  0  0
   38.0400   24.6110   31.2170 H   0  0  0  0  0  0  0  0  0  0  0  0
   36.8860   23.1210   32.2030 C   0  0  0  0  0  3  0  0  0  0  0  0
   37.9090   22.2090   31.5910 C   0  0  0  0  0  3  0  0  0  0  0  0
   38.4870   22.7800   30.8350 H   0  0  0  0  0  0  0  0  0  0  0  0
   37.2700   21.0620   30.8400 C   0  0  0  0  0  3  0  0  0  0  0  0
   36.9480   21.4020   29.8270 H   0  0  0  0  0  0  0  0  0  0  0  0
   36.2460   20.4510   31.5180 O   0  0  0  0  0  0  0  0  0  0  0  0
   35.2680   21.2920   31.9980 C   0  0  0  0  0  3  0  0  0  0  0  0
   34.2390   21.0350   31.7210 H   0  0  0  0  0  0  0  0  0  0  0  0
   35.5330   22.7460   31.6770 C   0  0  0  0  0  3  0  0  0  0  0  0
   34.7640   23.3320   32.2460 H   0  0  0  0  0  0  0  0  0  0  0  0
  1  6  1  0  0  0  0
  1 13  1  0  0  0  0
  2  1  2  0  0  0  0
  3  4  2  0  0  0  0
  3  2  1  0  0  0  0
  4  5  1  0  0  0  0
  5 15  1  0  0  0  0
  5  6  2  0  0  0  0
  7  8  1  0  0  0  0
  7  3  1  0  0  0  0
  8 17  1  0  0  0  0
  8 16  1  0  0  0  0
  9 19  1  0  0  0  0
  9  8  1  0  0  0  0
 10  9  1  0  0  0  0
 11 22  1  0  0  0  0
 11 10  1  0  0  0  0
 11 12  1  0  0  0  0
 12 23  1  6  0  0  0
 12 24  1  0  0  0  0
 12  7  1  0  0  0  0
 14  2  1  0  0  0  0
 18  9  1  0  0  0  0
 20 10  1  0  0  0  0
 21 11  1  0  0  0  0
 24 26  1  0  0  0  0
 25 24  1  0  0  0  0
 27 30  1  0  0  0  0
 27 24  1  0  0  0  0
 28 27  1  0  0  0  0
 29 27  1  0  0  0  0
 31 30  1  0  0  0  0
 32 31  1  0  0  0  0
 33 35  1  0  0  0  0
 33 31  1  0  0  0  0
 34 33  1  0  0  0  0
 35 36  1  0  0  0  0
 37 36  1  0  0  0  0
 38 36  1  0  0  0  0
 38 30  1  0  0  0  0
 38 39  1  0  0  0  0
M  END
>  <minimizedAffinity>
-4.57963276

$$$$

 OpenBabel03262523413D

 39 41  0  0  1  0  0  0  0  0999 V2000
   37.9430   24.9830   36.2280 C   0  0  0  0  0  0  0  0  0  0  0  0
   38.3720   24.1990   35.1670 C   0  0  0  0  0  0  0  0  0  0  0  0
   38.9500   22.9580   35.3340 C   0  0  0  0  0  0  0  0  0  0  0  0
   39.0650   22.5730   36.6240 N   0  0  0  0  0  0  0  0  0  0  0  0
   38.6670   23.2910   37.6860 C   0  0  0  0  0  0  0  0  0  0  0  0
   38.1040   24.5020   37.4770 N   0  0  0  0  0  0  0  0  0  0  0  0
   39.3750   22.1800   34.2540 N   0  0  0  0  0  0  0  0  0  0  0  0
   40.7860   22.0690   34.0510 C   0  0  0  0  0  0  0  0  0  0  0  0
   41.2000   21.1970   32.9050 C   0  0  0  0  0  0  0  0  0  0  0  0
   40.2400   20.3990   32.3270 N   0  0  0  0  0  0  0  0  0  0  0  0
   38.9140   20.8860   32.2030 C   0  0  0  0  0  0  0  0  0  0  0  0
   38.3750   21.5430   33.4290 C   0  0  2  0  0  0  0  0  0  0  0  0
   37.4860   25.9580   36.1310 H   0  0  0  0  0  0  0  0  0  0  0  0
   38.2010   24.6880   34.2250 H   0  0  0  0  0  0  0  0  0  0  0  0
   38.8200   22.8560   38.6790 H   0  0  0  0  0  0  0  0  0  0  0  0
   41.2370   23.0830   34.0110 H   0  0  0  0  0  0  0  0  0  0  0  0
   41.1880   21.6110   35.0010 H   0  0  0  0  0  0  0  0  0  0  0  0
   42.0860   20.5870   33.1860 H   0  0  0  0  0  0  0  0  0  0  0  0
   41.6050   21.9070   32.1220 H   0  0  0  0  0  0  0  0  0  0  0  0
   40.2900   19.3610   32.4990 H   0  0  0  0  0  0  0  0  0  0  0  0
   38.2870   20.0230   31.8840 H   0  0  0  0  0  0  0  0  0  0  0  0
   38.9300   21.6300   31.3800 H   0  0  0  0  0  0  0  0  0  0  0  0
   37.8970   20.7580   34.0900 H   0  0  0  0  0  0  0  0  0  0  0  0
   37.2670   22.4440   32.9870 C   0  0  0  0  0  0  0  0  0  0  0  0
   37.4370   23.5050   33.3150 H   0  0  0  0  0  0  0  0  0  0  0  0
   36.3020   22.0580   33.2920 H   0  0  0  0  0  0  0  0  0  0  0  0
   37.3200   22.4240   31.4480 C   0  0  0  0  0  0  0  0  0  0  0  0
   38.3160   22.2550   31.0490 H   0  0  0  0  0  0  0  0  0  0  0  0
   36.5570   21.6990   31.1240 H   0  0  0  0  0  0  0  0  0  0  0  0
   36.8390   23.8010   30.9550 C   0  0  0  0  0  3  0  0  0  0  0  0
   37.6060   24.9270   31.5840 C   0  0  0  0  0  3  0  0  0  0  0  0
   38.1840   24.5280   32.4430 H   0  0  0  0  0  0  0  0  0  0  0  0
   36.6920   25.9860   32.1590 C   0  0  0  0  0  3  0  0  0  0  0  0
   36.3190   25.6640   33.1610 H   0  0  0  0  0  0  0  0  0  0  0  0
   35.6620   26.3480   31.3270 O   0  0  0  0  0  0  0  0  0  0  0  0
   34.9110   25.3090   30.8290 C   0  0  0  0  0  3  0  0  0  0  0  0
   33.8270   25.3900   30.9750 H   0  0  0  0  0  0  0  0  0  0  0  0
   35.3880   23.9550   31.3050 C   0  0  0  0  0  3  0  0  0  0  0  0
   34.8070   23.1980   30.7160 H   0  0  0  0  0  0  0  0  0  0  0  0
  1  6  1  0  0  0  0
  2  3  1  0  0  0  0
  2  1  2  0  0  0  0
  3  4  2  0  0  0  0
  4  5  1  0  0  0  0
  5 15  1  0  0  0  0
  6  5  2  0  0  0  0
  7  3  1  0  0  0  0
  8  7  1  0  0  0  0
  8 17  1  0  0  0  0
  9 18  1  0  0  0  0
  9  8  1  0  0  0  0
 10 20  1  0  0  0  0
 10  9  1  0  0  0  0
 11 10  1  0  0  0  0
 11 12  1  0  0  0  0
 12 23  1  1  0  0  0
 12  7  1  0  0  0  0
 13  1  1  0  0  0  0
 14  2  1  0  0  0  0
 16  8  1  0  0  0  0
 19  9  1  0  0  0  0
 21 11  1  0  0  0  0
 22 11  1  0  0  0  0
 24 26  1  0  0  0  0
 24 25  1  0  0  0  0
 24 12  1  0  0  0  0
 27 24  1  0  0  0  0
 28 27  1  0  0  0  0
 29 27  1  0  0  0  0
 30 38  1  0  0  0  0
 30 27  1  0  0  0  0
 30 31  1  0  0  0  0
 31 33  1  0  0  0  0
 31 32  1  0  0  0  0
 33 34  1  0  0  0  0
 35 33  1  0  0  0  0
 36 37  1  0  0  0  0
 36 38  1  0  0  0  0
 36 35  1  0  0  0  0
 39 38  1  0  0  0  0
M  END
>  <minimizedAffinity>
-4.51664591

$$$$

 OpenBabel03262523413D

 39 41  0  0  1  0  0  0  0  0999 V2000
   37.8800   22.0020   31.0750 C   0  0  0  0  0  0  0  0  0  0  0  0
   37.8530   23.3430   31.4280 C   0  0  0  0  0  0  0  0  0  0  0  0
   36.6900   24.0200   31.7260 C   0  0  0  0  0  0  0  0  0  0  0  0
   35.5750   23.2610   31.6410 N   0  0  0  0  0  0  0  0  0  0  0  0
   35.5440   21.9620   31.3040 C   0  0  0  0  0  0  0  0  0  0  0  0
   36.7080   21.3370   31.0210 N   0  0  0  0  0  0  0  0  0  0  0  0
   36.6810   25.3710   32.0840 N   0  0  0  0  0  0  0  0  0  0  0  0
   36.1790   26.2940   31.1130 C   0  0  0  0  0  0  0  0  0  0  0  0
   36.1530   27.7260   31.5480 C   0  0  0  0  0  0  0  0  0  0  0  0
   36.3600   27.9950   32.8810 N   0  0  0  0  0  0  0  0  0  0  0  0
   37.2860   27.2100   33.6140 C   0  0  0  0  0  0  0  0  0  0  0  0
   37.1660   25.7400   33.3920 C   0  0  2  0  0  0  0  0  0  0  0  0
   38.7740   21.4430   30.8370 H   0  0  0  0  0  0  0  0  0  0  0  0
   38.8420   23.7670   31.4280 H   0  0  0  0  0  0  0  0  0  0  0  0
   34.5670   21.4680   31.2750 H   0  0  0  0  0  0  0  0  0  0  0  0
   36.7060   26.1410   30.1470 H   0  0  0  0  0  0  0  0  0  0  0  0
   35.1150   25.9690   30.9160 H   0  0  0  0  0  0  0  0  0  0  0  0
   35.2190   28.2180   31.1990 H   0  0  0  0  0  0  0  0  0  0  0  0
   36.9620   28.2360   30.9430 H   0  0  0  0  0  0  0  0  0  0  0  0
   35.5360   28.3150   33.4550 H   0  0  0  0  0  0  0  0  0  0  0  0
   37.1540   27.4810   34.6850 H   0  0  0  0  0  0  0  0  0  0  0  0
   38.2960   27.5360   33.2900 H   0  0  0  0  0  0  0  0  0  0  0  0
   36.4130   25.3150   34.1220 H   0  0  0  0  0  0  0  0  0  0  0  0
   38.4840   25.1370   33.7600 C   0  0  0  0  0  0  0  0  0  0  0  0
   39.2790   25.9200   33.8900 H   0  0  0  0  0  0  0  0  0  0  0  0
   38.7680   24.3590   33.0610 H   0  0  0  0  0  0  0  0  0  0  0  0
   38.2570   24.4790   35.1340 C   0  0  0  0  0  0  0  0  0  0  0  0
   38.3050   25.1770   35.9640 H   0  0  0  0  0  0  0  0  0  0  0  0
   37.3160   23.9140   35.0510 H   0  0  0  0  0  0  0  0  0  0  0  0
   39.3690   23.4320   35.3290 C   0  0  0  0  0  3  0  0  0  0  0  0
   39.2000   22.6580   36.6040 C   0  0  0  0  0  3  0  0  0  0  0  0
   38.4510   23.1760   37.2380 H   0  0  0  0  0  0  0  0  0  0  0  0
   40.4730   22.6200   37.4190 C   0  0  0  0  0  3  0  0  0  0  0  0
   40.5860   23.5690   37.9950 H   0  0  0  0  0  0  0  0  0  0  0  0
   41.5980   22.3370   36.6850 O   0  0  0  0  0  0  0  0  0  0  0  0
   41.7870   23.1150   35.5670 C   0  0  0  0  0  3  0  0  0  0  0  0
   42.7660   23.6020   35.4830 H   0  0  0  0  0  0  0  0  0  0  0  0
   40.6910   24.1380   35.3680 C   0  0  0  0  0  3  0  0  0  0  0  0
   40.8730   24.5930   34.3600 H   0  0  0  0  0  0  0  0  0  0  0  0
  1  2  1  0  0  0  0
  2 14  1  0  0  0  0
  2  3  2  0  0  0  0
  3  7  1  0  0  0  0
  4  3  1  0  0  0  0
  5  4  2  0  0  0  0
  6  1  2  0  0  0  0
  6  5  1  0  0  0  0
  7 12  1  0  0  0  0
  8  9  1  0  0  0  0
  8  7  1  0  0  0  0
  9 10  1  0  0  0  0
 10 20  1  0  0  0  0
 10 11  1  0  0  0  0
 11 21  1  0  0  0  0
 12 11  1  0  0  0  0
 12 24  1  0  0  0  0
 12 23  1  1  0  0  0
 13  1  1  0  0  0  0
 15  5  1  0  0  0  0
 16  8  1  0  0  0  0
 17  8  1  0  0  0  0
 18  9  1  0  0  0  0
 19  9  1  0  0  0  0
 22 11  1  0  0  0  0
 24 25  1  0  0  0  0
 24 27  1  0  0  0  0
 26 24  1  0  0  0  0
 27 30  1  0  0  0  0
 27 28  1  0  0  0  0
 29 27  1  0  0  0  0
 30 38  1  0  0  0  0
 30 31  1  0  0  0  0
 31 32  1  0  0  0  0
 31 33  1  0  0  0  0
 33 34  1  0  0  0  0
 35 33  1  0  0  0  0
 36 35  1  0  0  0  0
 37 36  1  0  0  0  0
 38 36  1  0  0  0  0
 39 38  1  0  0  0  0
M  END
>  <minimizedAffinity>
-4.51300144

$$$$
