
 OpenBabel03272507423D

 42 45  0  0  0  0  0  0  0  0999 V2000
   36.7010   31.1750   50.1380 C   0  0  0  0  0  0  0  0  0  0  0  0
   35.5940   30.3620   49.9120 C   0  0  0  0  0  0  0  0  0  0  0  0
   35.4010   29.2140   50.6500 C   0  0  0  0  0  0  0  0  0  0  0  0
   36.3280   28.9130   51.6000 N   0  0  0  0  0  0  0  0  0  0  0  0
   37.4040   29.7170   51.8100 C   0  0  0  0  0  0  0  0  0  0  0  0
   37.5720   30.8170   51.0880 N   0  0  0  0  0  0  0  0  0  0  0  0
   34.5660   28.5370   50.5280 H   0  0  0  0  0  0  0  0  0  0  0  0
   38.1210   29.4340   52.5830 H   0  0  0  0  0  0  0  0  0  0  0  0
   34.1790   29.5240   48.0930 C   0  0  0  0  0  0  0  0  0  0  0  0
   34.6200   28.3250   47.8970 O   0  0  0  0  0  0  0  0  0  0  0  0
   34.5920   30.5930   48.9570 N   0  0  0  0  0  0  0  0  0  0  0  0
   34.0660   31.4760   48.7640 H   0  0  0  0  0  0  0  0  0  0  0  0
   33.0210   29.6400   47.1570 C   0  0  0  0  0  3  0  0  0  0  0  0
   32.2780   28.3540   47.1650 C   0  0  0  0  0  3  0  0  0  0  0  0
   31.5910   28.2790   48.0600 H   0  0  0  0  0  0  0  0  0  0  0  0
   31.3950   28.1390   45.9640 C   0  0  0  0  0  3  0  0  0  0  0  0
   31.8480   27.3730   45.2930 H   0  0  0  0  0  0  0  0  0  0  0  0
   31.3010   29.2890   45.1730 O   0  0  0  0  0  0  0  0  0  0  0  0
   32.6100   29.4790   44.6820 C   0  0  0  0  0  3  0  0  0  0  0  0
   32.6100   30.1430   43.7940 H   0  0  0  0  0  0  0  0  0  0  0  0
   33.3500   30.1930   45.8170 C   0  0  0  0  0  3  0  0  0  0  0  0
   34.4140   30.1890   45.5360 H   0  0  0  0  0  0  0  0  0  0  0  0
   36.7230   32.2520   49.3210 O   0  0  0  0  0  0  0  0  0  0  0  0
   38.2320   32.2390   47.3510 C   0  0  0  0  0  0  0  0  0  0  0  0
   37.8400   32.6760   48.6030 C   0  0  0  0  0  0  0  0  0  0  0  0
   38.5900   33.6350   49.2720 C   0  0  0  0  0  0  0  0  0  0  0  0
   39.7330   34.1480   48.6710 C   0  0  0  0  0  0  0  0  0  0  0  0
   40.1160   33.7040   47.4200 C   0  0  0  0  0  0  0  0  0  0  0  0
   39.3500   32.7580   46.7950 C   0  0  0  0  0  0  0  0  0  0  0  0
   38.3380   34.0180   50.2520 H   0  0  0  0  0  0  0  0  0  0  0  0
   40.3140   34.8920   49.1920 H   0  0  0  0  0  0  0  0  0  0  0  0
   41.0000   34.0810   46.9240 H   0  0  0  0  0  0  0  0  0  0  0  0
   39.7700   32.2880   45.4500 C   0  0  0  0  0  0  0  0  0  0  0  0
   40.6210   31.2830   45.1090 C   0  0  0  0  0  0  0  0  0  0  0  0
   40.6990   31.2200   43.7230 C   0  0  0  0  0  0  0  0  0  0  0  0
   39.8660   32.2200   43.2980 C   0  0  0  0  0  0  0  0  0  0  0  0
   39.3190   32.8480   44.3370 O   0  0  0  0  0  0  0  0  0  0  0  0
   41.1480   30.6420   45.8050 H   0  0  0  0  0  0  0  0  0  0  0  0
   41.2850   30.5370   43.1000 H   0  0  0  0  0  0  0  0  0  0  0  0
   39.6560   32.4910   42.2550 H   0  0  0  0  0  0  0  0  0  0  0  0
   36.7460   30.4710   46.2230 N   0  0  0  0  0  0  0  0  0  0  0  0
   37.4070   31.2540   46.7330 C   0  0  0  0  0  0  0  0  0  0  0  0
  1  6  1  0  0  0  0
  2  1  2  0  0  0  0
  2  3  1  0  0  0  0
  3  4  2  0  0  0  0
  4  5  1  0  0  0  0
  5  8  1  0  0  0  0
  6  5  2  0  0  0  0
  7  3  1  0  0  0  0
  9 11  1  0  0  0  0
 10  9  2  0  0  0  0
 11  2  1  0  0  0  0
 12 11  1  0  0  0  0
 13 14  1  0  0  0  0
 13  9  1  0  0  0  0
 14 15  1  0  0  0  0
 16 14  1  0  0  0  0
 17 16  1  0  0  0  0
 18 16  1  0  0  0  0
 19 18  1  0  0  0  0
 19 21  1  0  0  0  0
 20 19  1  0  0  0  0
 21 13  1  0  0  0  0
 22 21  1  0  0  0  0
 23  1  1  0  0  0  0
 24 25  1  0  0  0  0
 25 26  2  0  0  0  0
 25 23  1  0  0  0  0
 26 30  1  0  0  0  0
 27 31  1  0  0  0  0
 27 26  1  0  0  0  0
 28 27  2  0  0  0  0
 29 24  2  0  0  0  0
 29 28  1  0  0  0  0
 32 28  1  0  0  0  0
 33 29  1  0  0  0  0
 34 33  2  0  0  0  0
 34 38  1  0  0  0  0
 35 34  1  0  0  0  0
 36 35  2  0  0  0  0
 36 37  1  0  0  0  0
 37 33  1  0  0  0  0
 39 35  1  0  0  0  0
 40 36  1  0  0  0  0
 41 42  3  0  0  0  0
 42 24  1  0  0  0  0
M  END
>  <minimizedAffinity>
-5.95081902

>  <minimizedRMSD>
0.196495548

$$$$
