
 OpenBabel03262522583D

 26 28  0  0  0  0  0  0  0  0999 V2000
   37.1190   26.6800   33.5370 C   0  0  0  0  0  0  0  0  0  0  0  0
   37.2910   25.4720   32.9010 C   0  0  0  0  0  0  0  0  0  0  0  0
   37.8730   24.5860   33.7490 C   0  0  0  0  0  0  0  0  0  0  0  0
   38.0630   25.2600   34.9310 N   0  0  0  0  0  0  0  0  0  0  0  0
   37.6040   26.5000   34.7670 N   0  0  0  0  0  0  0  0  0  0  0  0
   37.0260   25.2050   31.8850 H   0  0  0  0  0  0  0  0  0  0  0  0
   38.1560   23.5370   33.5820 H   0  0  0  0  0  0  0  0  0  0  0  0
   38.6410   24.7760   36.1450 C   0  0  0  0  0  3  0  0  0  0  0  0
   39.7500   23.7770   35.9580 C   0  0  0  0  0  3  0  0  0  0  0  0
   40.7580   24.2360   36.0830 H   0  0  0  0  0  0  0  0  0  0  0  0
   39.6630   22.6570   36.9740 C   0  0  0  0  0  3  0  0  0  0  0  0
   40.6740   22.1880   37.0220 H   0  0  0  0  0  0  0  0  0  0  0  0
   39.3740   23.0860   38.2520 O   0  0  0  0  0  0  0  0  0  0  0  0
   38.2000   23.8030   38.3670 C   0  0  0  0  0  3  0  0  0  0  0  0
   37.4210   23.3060   38.9650 H   0  0  0  0  0  0  0  0  0  0  0  0
   37.5880   24.1010   37.0010 C   0  0  0  0  0  3  0  0  0  0  0  0
   36.7060   24.7300   37.1710 H   0  0  0  0  0  0  0  0  0  0  0  0
   35.3570   29.8770   33.2220 C   0  0  0  0  0  0  0  0  0  0  0  0
   35.4620   30.1370   31.8290 C   0  0  0  0  0  0  0  0  0  0  0  0
   36.1410   29.2020   31.0210 C   0  0  0  0  0  0  0  0  0  0  0  0
   36.6520   28.1090   31.6330 N   0  0  0  0  0  0  0  0  0  0  0  0
   36.5320   27.8900   32.9780 C   0  0  0  0  0  0  0  0  0  0  0  0
   35.8960   28.7640   33.7440 N   0  0  0  0  0  0  0  0  0  0  0  0
   34.8250   30.6240   33.8080 H   0  0  0  0  0  0  0  0  0  0  0  0
   35.0450   31.0200   31.3560 H   0  0  0  0  0  0  0  0  0  0  0  0
   36.2530   29.3450   29.9550 H   0  0  0  0  0  0  0  0  0  0  0  0
  1  5  2  0  0  0  0
  2  1  1  0  0  0  0
  2  3  2  0  0  0  0
  3  4  1  0  0  0  0
  4  8  1  0  0  0  0
  5  4  1  0  0  0  0
  6  2  1  0  0  0  0
  7  3  1  0  0  0  0
  8 16  1  0  0  0  0
  9 10  1  0  0  0  0
  9  8  1  0  0  0  0
  9 11  1  0  0  0  0
 11 12  1  0  0  0  0
 11 13  1  0  0  0  0
 13 14  1  0  0  0  0
 14 15  1  0  0  0  0
 16 17  1  0  0  0  0
 16 14  1  0  0  0  0
 18 23  1  0  0  0  0
 18 24  1  0  0  0  0
 19 18  2  0  0  0  0
 20 21  2  0  0  0  0
 20 19  1  0  0  0  0
 21 22  1  0  0  0  0
 22  1  1  0  0  0  0
 22 23  2  0  0  0  0
 25 19  1  0  0  0  0
 26 20  1  0  0  0  0
M  END
>  <minimizedAffinity>
-4.57529116

$$$$

 OpenBabel03262522583D

 26 28  0  0  0  0  0  0  0  0999 V2000
   37.0390   24.8880   32.5910 C   0  0  0  0  0  0  0  0  0  0  0  0
   36.1390   25.3980   31.6830 C   0  0  0  0  0  0  0  0  0  0  0  0
   35.5000   24.3800   31.0510 C   0  0  0  0  0  0  0  0  0  0  0  0
   36.0140   23.2210   31.5790 N   0  0  0  0  0  0  0  0  0  0  0  0
   36.9250   23.5620   32.4910 N   0  0  0  0  0  0  0  0  0  0  0  0
   35.9270   26.4360   31.4600 H   0  0  0  0  0  0  0  0  0  0  0  0
   34.7250   24.4140   30.2720 H   0  0  0  0  0  0  0  0  0  0  0  0
   35.6770   21.8720   31.2530 C   0  0  0  0  0  3  0  0  0  0  0  0
   34.9850   21.1130   32.3530 C   0  0  0  0  0  3  0  0  0  0  0  0
   33.8840   21.0470   32.1920 H   0  0  0  0  0  0  0  0  0  0  0  0
   35.4890   19.6870   32.4430 C   0  0  0  0  0  3  0  0  0  0  0  0
   34.7090   19.1060   32.9890 H   0  0  0  0  0  0  0  0  0  0  0  0
   35.6450   19.0730   31.2190 O   0  0  0  0  0  0  0  0  0  0  0  0
   36.4950   19.7280   30.3500 C   0  0  0  0  0  3  0  0  0  0  0  0
   37.4160   19.1740   30.1110 H   0  0  0  0  0  0  0  0  0  0  0  0
   36.9240   21.0850   30.9010 C   0  0  0  0  0  3  0  0  0  0  0  0
   37.5330   21.5700   30.1290 H   0  0  0  0  0  0  0  0  0  0  0  0
   39.7800   26.9900   33.8110 C   0  0  0  0  0  0  0  0  0  0  0  0
   39.5210   27.0350   35.2070 C   0  0  0  0  0  0  0  0  0  0  0  0
   38.4000   26.3370   35.7040 C   0  0  0  0  0  0  0  0  0  0  0  0
   37.6410   25.6650   34.8090 N   0  0  0  0  0  0  0  0  0  0  0  0
   37.9200   25.6430   33.4700 C   0  0  0  0  0  0  0  0  0  0  0  0
   38.9710   26.2970   32.9960 N   0  0  0  0  0  0  0  0  0  0  0  0
   40.6540   27.5420   33.4700 H   0  0  0  0  0  0  0  0  0  0  0  0
   40.1410   27.5800   35.9110 H   0  0  0  0  0  0  0  0  0  0  0  0
   38.1520   26.3340   36.7570 H   0  0  0  0  0  0  0  0  0  0  0  0
  1 22  1  0  0  0  0
  2  1  1  0  0  0  0
  3  4  1  0  0  0  0
  3  2  2  0  0  0  0
  4  5  1  0  0  0  0
  5  1  2  0  0  0  0
  6  2  1  0  0  0  0
  7  3  1  0  0  0  0
  8  4  1  0  0  0  0
  8  9  1  0  0  0  0
  9 11  1  0  0  0  0
 10  9  1  0  0  0  0
 11 12  1  0  0  0  0
 13 11  1  0  0  0  0
 14 16  1  0  0  0  0
 14 13  1  0  0  0  0
 15 14  1  0  0  0  0
 16  8  1  0  0  0  0
 17 16  1  0  0  0  0
 18 19  1  0  0  0  0
 19 20  2  0  0  0  0
 19 25  1  0  0  0  0
 20 26  1  0  0  0  0
 21 20  1  0  0  0  0
 22 21  2  0  0  0  0
 23 22  1  0  0  0  0
 23 18  2  0  0  0  0
 24 18  1  0  0  0  0
M  END
>  <minimizedAffinity>
-4.57236052

$$$$

 OpenBabel03262522583D

 26 28  0  0  0  0  0  0  0  0999 V2000
   38.1020   24.7810   34.6650 C   0  0  0  0  0  0  0  0  0  0  0  0
   38.0000   24.0670   33.4930 C   0  0  0  0  0  0  0  0  0  0  0  0
   37.7010   24.9070   32.4690 C   0  0  0  0  0  0  0  0  0  0  0  0
   37.6190   26.1630   33.0180 N   0  0  0  0  0  0  0  0  0  0  0  0
   37.8610   26.0500   34.3240 N   0  0  0  0  0  0  0  0  0  0  0  0
   38.1260   23.0020   33.3440 H   0  0  0  0  0  0  0  0  0  0  0  0
   37.5470   24.6860   31.4030 H   0  0  0  0  0  0  0  0  0  0  0  0
   37.3280   27.4000   32.3650 C   0  0  0  0  0  3  0  0  0  0  0  0
   36.3350   28.2720   33.0830 C   0  0  0  0  0  3  0  0  0  0  0  0
   36.8280   29.0990   33.6440 H   0  0  0  0  0  0  0  0  0  0  0  0
   35.3730   28.9280   32.1130 C   0  0  0  0  0  3  0  0  0  0  0  0
   34.9360   29.8080   32.6430 H   0  0  0  0  0  0  0  0  0  0  0  0
   35.9770   29.4200   30.9760 O   0  0  0  0  0  0  0  0  0  0  0  0
   36.6790   28.4820   30.2460 C   0  0  0  0  0  3  0  0  0  0  0  0
   36.2590   28.2740   29.2500 H   0  0  0  0  0  0  0  0  0  0  0  0
   36.7630   27.1470   30.9810 C   0  0  0  0  0  3  0  0  0  0  0  0
   37.3920   26.4830   30.3760 H   0  0  0  0  0  0  0  0  0  0  0  0
   37.9810   24.1190   38.2660 C   0  0  0  0  0  0  0  0  0  0  0  0
   39.0630   23.2140   38.4380 C   0  0  0  0  0  0  0  0  0  0  0  0
   39.8170   22.8470   37.3030 C   0  0  0  0  0  0  0  0  0  0  0  0
   39.4550   23.3880   36.1170 N   0  0  0  0  0  0  0  0  0  0  0  0
   38.4070   24.2570   35.9880 C   0  0  0  0  0  0  0  0  0  0  0  0
   37.6930   24.6050   37.0490 N   0  0  0  0  0  0  0  0  0  0  0  0
   37.4260   24.3750   39.1670 H   0  0  0  0  0  0  0  0  0  0  0  0
   39.3380   22.7900   39.3970 H   0  0  0  0  0  0  0  0  0  0  0  0
   40.6520   22.1630   37.3710 H   0  0  0  0  0  0  0  0  0  0  0  0
  1 22  1  0  0  0  0
  2  1  1  0  0  0  0
  3  4  1  0  0  0  0
  3  2  2  0  0  0  0
  4  5  1  0  0  0  0
  5  1  2  0  0  0  0
  6  2  1  0  0  0  0
  7  3  1  0  0  0  0
  8  4  1  0  0  0  0
  8  9  1  0  0  0  0
  9 10  1  0  0  0  0
 11 12  1  0  0  0  0
 11  9  1  0  0  0  0
 13 11  1  0  0  0  0
 14 13  1  0  0  0  0
 14 16  1  0  0  0  0
 15 14  1  0  0  0  0
 16  8  1  0  0  0  0
 17 16  1  0  0  0  0
 18 19  1  0  0  0  0
 18 24  1  0  0  0  0
 19 25  1  0  0  0  0
 20 26  1  0  0  0  0
 20 19  2  0  0  0  0
 21 20  1  0  0  0  0
 22 21  2  0  0  0  0
 22 23  1  0  0  0  0
 23 18  2  0  0  0  0
M  END
>  <minimizedAffinity>
-4.56510067

$$$$

 OpenBabel03262522583D

 26 28  0  0  0  0  0  0  0  0999 V2000
   38.3980   25.7510   35.5030 C   0  0  0  0  0  0  0  0  0  0  0  0
   38.3120   26.9780   36.1200 C   0  0  0  0  0  0  0  0  0  0  0  0
   37.6540   27.8510   35.3140 C   0  0  0  0  0  0  0  0  0  0  0  0
   37.3270   27.1490   34.1790 N   0  0  0  0  0  0  0  0  0  0  0  0
   37.7860   25.9060   34.3270 N   0  0  0  0  0  0  0  0  0  0  0  0
   38.6890   27.2680   37.0930 H   0  0  0  0  0  0  0  0  0  0  0  0
   37.4060   28.9090   35.4800 H   0  0  0  0  0  0  0  0  0  0  0  0
   36.6290   27.6100   33.0210 C   0  0  0  0  0  3  0  0  0  0  0  0
   37.4930   27.8170   31.8070 C   0  0  0  0  0  3  0  0  0  0  0  0
   37.4090   26.9760   31.0810 H   0  0  0  0  0  0  0  0  0  0  0  0
   37.0990   29.0710   31.0550 C   0  0  0  0  0  3  0  0  0  0  0  0
   37.5000   28.9630   30.0200 H   0  0  0  0  0  0  0  0  0  0  0  0
   35.7370   29.2390   30.9280 O   0  0  0  0  0  0  0  0  0  0  0  0
   35.0470   29.2740   32.1240 C   0  0  0  0  0  3  0  0  0  0  0  0
   34.5750   30.2430   32.3480 H   0  0  0  0  0  0  0  0  0  0  0  0
   35.9530   28.9370   33.3040 C   0  0  0  0  0  3  0  0  0  0  0  0
   35.3220   28.9130   34.2010 H   0  0  0  0  0  0  0  0  0  0  0  0
   40.5280   22.7880   35.8350 C   0  0  0  0  0  0  0  0  0  0  0  0
   40.1440   22.2880   37.1090 C   0  0  0  0  0  0  0  0  0  0  0  0
   39.1530   22.9850   37.8320 C   0  0  0  0  0  0  0  0  0  0  0  0
   38.6310   24.0930   37.2590 N   0  0  0  0  0  0  0  0  0  0  0  0
   39.0250   24.5470   36.0300 C   0  0  0  0  0  0  0  0  0  0  0  0
   39.9550   23.8980   35.3450 N   0  0  0  0  0  0  0  0  0  0  0  0
   41.2940   22.2210   35.3120 H   0  0  0  0  0  0  0  0  0  0  0  0
   40.5740   21.3970   37.5530 H   0  0  0  0  0  0  0  0  0  0  0  0
   38.8200   22.6530   38.8060 H   0  0  0  0  0  0  0  0  0  0  0  0
  1 22  1  0  0  0  0
  1  2  1  0  0  0  0
  2  6  1  0  0  0  0
  3  7  1  0  0  0  0
  3  2  2  0  0  0  0
  4  5  1  0  0  0  0
  4  3  1  0  0  0  0
  5  1  2  0  0  0  0
  8 16  1  0  0  0  0
  8  4  1  0  0  0  0
  9  8  1  0  0  0  0
 10  9  1  0  0  0  0
 11  9  1  0  0  0  0
 12 11  1  0  0  0  0
 13 11  1  0  0  0  0
 13 14  1  0  0  0  0
 14 15  1  0  0  0  0
 14 16  1  0  0  0  0
 16 17  1  0  0  0  0
 18 19  1  0  0  0  0
 19 25  1  0  0  0  0
 19 20  2  0  0  0  0
 20 26  1  0  0  0  0
 21 20  1  0  0  0  0
 22 21  2  0  0  0  0
 23 18  2  0  0  0  0
 23 22  1  0  0  0  0
 24 18  1  0  0  0  0
M  END
>  <minimizedAffinity>
-4.54168844

$$$$

 OpenBabel03262522583D

 26 28  0  0  0  0  0  0  0  0999 V2000
   37.9020   25.3460   34.9170 C   0  0  0  0  0  0  0  0  0  0  0  0
   37.9630   24.9240   33.6080 C   0  0  0  0  0  0  0  0  0  0  0  0
   37.5120   25.9070   32.7880 C   0  0  0  0  0  0  0  0  0  0  0  0
   37.1670   26.9560   33.6050 N   0  0  0  0  0  0  0  0  0  0  0  0
   37.4120   26.5860   34.8620 N   0  0  0  0  0  0  0  0  0  0  0  0
   38.3060   23.9700   33.2270 H   0  0  0  0  0  0  0  0  0  0  0  0
   37.4190   25.9190   31.6920 H   0  0  0  0  0  0  0  0  0  0  0  0
   36.6380   28.2300   33.2360 C   0  0  0  0  0  3  0  0  0  0  0  0
   35.7940   28.8900   34.2920 C   0  0  0  0  0  3  0  0  0  0  0  0
   36.3510   29.6830   34.8420 H   0  0  0  0  0  0  0  0  0  0  0  0
   34.5790   29.5640   33.6870 C   0  0  0  0  0  3  0  0  0  0  0  0
   34.2260   30.3150   34.4330 H   0  0  0  0  0  0  0  0  0  0  0  0
   34.8480   30.2630   32.5300 O   0  0  0  0  0  0  0  0  0  0  0  0
   35.4120   29.5090   31.5200 C   0  0  0  0  0  3  0  0  0  0  0  0
   34.7750   29.3910   30.6300 H   0  0  0  0  0  0  0  0  0  0  0  0
   35.7680   28.1050   32.0000 C   0  0  0  0  0  3  0  0  0  0  0  0
   36.2740   27.5970   31.1700 H   0  0  0  0  0  0  0  0  0  0  0  0
   38.0530   24.0840   38.3530 C   0  0  0  0  0  0  0  0  0  0  0  0
   39.0990   23.1260   38.2710 C   0  0  0  0  0  0  0  0  0  0  0  0
   39.7360   22.9320   37.0280 C   0  0  0  0  0  0  0  0  0  0  0  0
   39.3030   23.6790   35.9860 N   0  0  0  0  0  0  0  0  0  0  0  0
   38.2910   24.5930   36.1010 C   0  0  0  0  0  0  0  0  0  0  0  0
   37.6880   24.7800   37.2650 N   0  0  0  0  0  0  0  0  0  0  0  0
   37.5890   24.2010   39.3300 H   0  0  0  0  0  0  0  0  0  0  0  0
   39.4330   22.5360   39.1180 H   0  0  0  0  0  0  0  0  0  0  0  0
   40.5390   22.2180   36.9030 H   0  0  0  0  0  0  0  0  0  0  0  0
  1 22  1  0  0  0  0
  2  1  1  0  0  0  0
  3  4  1  0  0  0  0
  3  2  2  0  0  0  0
  4  5  1  0  0  0  0
  5  1  2  0  0  0  0
  6  2  1  0  0  0  0
  7  3  1  0  0  0  0
  8  4  1  0  0  0  0
  8  9  1  0  0  0  0
  9 10  1  0  0  0  0
 11  9  1  0  0  0  0
 11 12  1  0  0  0  0
 13 11  1  0  0  0  0
 14 16  1  0  0  0  0
 14 13  1  0  0  0  0
 15 14  1  0  0  0  0
 16  8  1  0  0  0  0
 17 16  1  0  0  0  0
 18 24  1  0  0  0  0
 19 18  1  0  0  0  0
 19 25  1  0  0  0  0
 20 19  2  0  0  0  0
 21 22  2  0  0  0  0
 21 20  1  0  0  0  0
 22 23  1  0  0  0  0
 23 18  2  0  0  0  0
 26 20  1  0  0  0  0
M  END
>  <minimizedAffinity>
-4.5193572

$$$$

 OpenBabel03262522583D

 26 28  0  0  0  0  0  0  0  0999 V2000
   36.3400   23.5270   31.8470 C   0  0  0  0  0  0  0  0  0  0  0  0
   35.7910   24.5590   31.1210 C   0  0  0  0  0  0  0  0  0  0  0  0
   36.1620   25.7480   31.6600 C   0  0  0  0  0  0  0  0  0  0  0  0
   36.9570   25.4450   32.7390 N   0  0  0  0  0  0  0  0  0  0  0  0
   37.0390   24.1170   32.8190 N   0  0  0  0  0  0  0  0  0  0  0  0
   35.1540   24.4990   30.2470 H   0  0  0  0  0  0  0  0  0  0  0  0
   35.9120   26.7710   31.3440 H   0  0  0  0  0  0  0  0  0  0  0  0
   37.6020   26.3410   33.6460 C   0  0  0  0  0  3  0  0  0  0  0  0
   38.9770   26.7810   33.2230 C   0  0  0  0  0  3  0  0  0  0  0  0
   38.9750   27.8030   32.7790 H   0  0  0  0  0  0  0  0  0  0  0  0
   39.9280   26.8300   34.4020 C   0  0  0  0  0  3  0  0  0  0  0  0
   40.7740   27.4930   34.1030 H   0  0  0  0  0  0  0  0  0  0  0  0
   39.3800   27.3870   35.5370 O   0  0  0  0  0  0  0  0  0  0  0  0
   38.2360   26.7610   35.9910 C   0  0  0  0  0  3  0  0  0  0  0  0
   38.3450   26.2690   36.9690 H   0  0  0  0  0  0  0  0  0  0  0  0
   37.7510   25.6980   35.0100 C   0  0  0  0  0  3  0  0  0  0  0  0
   36.8070   25.3010   35.4020 H   0  0  0  0  0  0  0  0  0  0  0  0
   36.8950   20.1220   30.6140 C   0  0  0  0  0  0  0  0  0  0  0  0
   35.8060   19.4160   31.1940 C   0  0  0  0  0  0  0  0  0  0  0  0
   34.8970   20.1300   32.0030 C   0  0  0  0  0  0  0  0  0  0  0  0
   35.1260   21.4520   32.1730 N   0  0  0  0  0  0  0  0  0  0  0  0
   36.1860   22.1010   31.6000 C   0  0  0  0  0  0  0  0  0  0  0  0
   37.0430   21.4360   30.8390 N   0  0  0  0  0  0  0  0  0  0  0  0
   37.5710   19.5330   29.9980 H   0  0  0  0  0  0  0  0  0  0  0  0
   35.6390   18.3550   31.0460 H   0  0  0  0  0  0  0  0  0  0  0  0
   34.0500   19.6470   32.4710 H   0  0  0  0  0  0  0  0  0  0  0  0
  1  5  2  0  0  0  0
  2  3  2  0  0  0  0
  2  1  1  0  0  0  0
  3  4  1  0  0  0  0
  4  5  1  0  0  0  0
  4  8  1  0  0  0  0
  6  2  1  0  0  0  0
  7  3  1  0  0  0  0
  8 16  1  0  0  0  0
  9  8  1  0  0  0  0
  9 11  1  0  0  0  0
 10  9  1  0  0  0  0
 11 13  1  0  0  0  0
 12 11  1  0  0  0  0
 13 14  1  0  0  0  0
 14 15  1  0  0  0  0
 16 17  1  0  0  0  0
 16 14  1  0  0  0  0
 18 23  2  0  0  0  0
 18 19  1  0  0  0  0
 19 20  2  0  0  0  0
 20 21  1  0  0  0  0
 20 26  1  0  0  0  0
 22  1  1  0  0  0  0
 22 21  2  0  0  0  0
 23 22  1  0  0  0  0
 24 18  1  0  0  0  0
 25 19  1  0  0  0  0
M  END
>  <minimizedAffinity>
-4.49925566

$$$$

 OpenBabel03262522583D

 26 28  0  0  0  0  0  0  0  0999 V2000
   36.0750   28.4930   32.2080 C   0  0  0  0  0  0  0  0  0  0  0  0
   36.3060   29.4460   31.2420 C   0  0  0  0  0  0  0  0  0  0  0  0
   36.1170   30.6840   31.7640 C   0  0  0  0  0  0  0  0  0  0  0  0
   35.7630   30.4930   33.0780 N   0  0  0  0  0  0  0  0  0  0  0  0
   35.7490   29.1800   33.3050 N   0  0  0  0  0  0  0  0  0  0  0  0
   36.5960   29.2960   30.2090 H   0  0  0  0  0  0  0  0  0  0  0  0
   36.2120   31.6700   31.2860 H   0  0  0  0  0  0  0  0  0  0  0  0
   35.4550   31.4780   34.0660 C   0  0  0  0  0  3  0  0  0  0  0  0
   36.1560   32.7960   33.8790 C   0  0  0  0  0  3  0  0  0  0  0  0
   35.4920   33.5660   33.4220 H   0  0  0  0  0  0  0  0  0  0  0  0
   36.6220   33.3660   35.2030 C   0  0  0  0  0  3  0  0  0  0  0  0
   36.7810   34.4590   35.0430 H   0  0  0  0  0  0  0  0  0  0  0  0
   35.6950   33.2530   36.2160 O   0  0  0  0  0  0  0  0  0  0  0  0
   35.2820   31.9620   36.4770 C   0  0  0  0  0  3  0  0  0  0  0  0
   35.5740   31.5830   37.4680 H   0  0  0  0  0  0  0  0  0  0  0  0
   35.8300   30.9780   35.4470 C   0  0  0  0  0  3  0  0  0  0  0  0
   35.4020   29.9950   35.6770 H   0  0  0  0  0  0  0  0  0  0  0  0
   37.1330   25.0080   32.6020 C   0  0  0  0  0  0  0  0  0  0  0  0
   36.2700   24.3320   31.6970 C   0  0  0  0  0  0  0  0  0  0  0  0
   35.3360   25.0940   30.9650 C   0  0  0  0  0  0  0  0  0  0  0  0
   35.3250   26.4310   31.1760 N   0  0  0  0  0  0  0  0  0  0  0  0
   36.1700   27.0490   32.0560 C   0  0  0  0  0  0  0  0  0  0  0  0
   37.0500   26.3390   32.7470 N   0  0  0  0  0  0  0  0  0  0  0  0
   37.8380   24.3820   33.1460 H   0  0  0  0  0  0  0  0  0  0  0  0
   36.2940   23.2590   31.5410 H   0  0  0  0  0  0  0  0  0  0  0  0
   34.6540   24.6370   30.2610 H   0  0  0  0  0  0  0  0  0  0  0  0
  1  5  2  0  0  0  0
  2  3  2  0  0  0  0
  2  1  1  0  0  0  0
  3  4  1  0  0  0  0
  4  5  1  0  0  0  0
  4  8  1  0  0  0  0
  6  2  1  0  0  0  0
  7  3  1  0  0  0  0
  8 16  1  0  0  0  0
  9  8  1  0  0  0  0
  9 11  1  0  0  0  0
 10  9  1  0  0  0  0
 11 13  1  0  0  0  0
 12 11  1  0  0  0  0
 13 14  1  0  0  0  0
 14 15  1  0  0  0  0
 16 17  1  0  0  0  0
 16 14  1  0  0  0  0
 18 23  1  0  0  0  0
 18 24  1  0  0  0  0
 19 18  2  0  0  0  0
 20 21  2  0  0  0  0
 20 19  1  0  0  0  0
 21 22  1  0  0  0  0
 22  1  1  0  0  0  0
 22 23  2  0  0  0  0
 25 19  1  0  0  0  0
 26 20  1  0  0  0  0
M  END
>  <minimizedAffinity>
-4.48243666

$$$$

 OpenBabel03262522583D

 26 28  0  0  0  0  0  0  0  0999 V2000
   37.9990   22.8950   34.7780 C   0  0  0  0  0  0  0  0  0  0  0  0
   38.1740   23.7820   33.7410 C   0  0  0  0  0  0  0  0  0  0  0  0
   37.6580   23.2600   32.5990 C   0  0  0  0  0  0  0  0  0  0  0  0
   37.1540   22.0280   32.9380 N   0  0  0  0  0  0  0  0  0  0  0  0
   37.3750   21.8450   34.2400 N   0  0  0  0  0  0  0  0  0  0  0  0
   38.6420   24.7580   33.7650 H   0  0  0  0  0  0  0  0  0  0  0  0
   37.6220   23.6860   31.5860 H   0  0  0  0  0  0  0  0  0  0  0  0
   36.5050   21.0730   32.0970 C   0  0  0  0  0  3  0  0  0  0  0  0
   35.7720   19.9830   32.8310 C   0  0  0  0  0  3  0  0  0  0  0  0
   34.6730   20.1640   32.8660 H   0  0  0  0  0  0  0  0  0  0  0  0
   35.9630   18.6390   32.1590 C   0  0  0  0  0  3  0  0  0  0  0  0
   35.1310   17.9840   32.5110 H   0  0  0  0  0  0  0  0  0  0  0  0
   35.8670   18.6840   30.7850 O   0  0  0  0  0  0  0  0  0  0  0  0
   36.7530   19.5490   30.1740 C   0  0  0  0  0  3  0  0  0  0  0  0
   37.5050   19.0560   29.5400 H   0  0  0  0  0  0  0  0  0  0  0  0
   37.5140   20.3880   31.1970 C   0  0  0  0  0  3  0  0  0  0  0  0
   38.1380   21.0940   30.6360 H   0  0  0  0  0  0  0  0  0  0  0  0
   39.9640   22.8230   37.8690 C   0  0  0  0  0  0  0  0  0  0  0  0
   39.0880   23.4560   38.7930 C   0  0  0  0  0  0  0  0  0  0  0  0
   37.8310   23.8980   38.3300 C   0  0  0  0  0  0  0  0  0  0  0  0
   37.5420   23.6870   37.0250 N   0  0  0  0  0  0  0  0  0  0  0  0
   38.4100   23.0740   36.1640 C   0  0  0  0  0  0  0  0  0  0  0  0
   39.5920   22.6560   36.5910 N   0  0  0  0  0  0  0  0  0  0  0  0
   40.9230   22.4970   38.2690 H   0  0  0  0  0  0  0  0  0  0  0  0
   39.3380   23.6170   39.8350 H   0  0  0  0  0  0  0  0  0  0  0  0
   37.1230   24.3870   38.9840 H   0  0  0  0  0  0  0  0  0  0  0  0
  1 22  1  0  0  0  0
  2  6  1  0  0  0  0
  2  1  1  0  0  0  0
  3  4  1  0  0  0  0
  3  2  2  0  0  0  0
  4  5  1  0  0  0  0
  5  1  2  0  0  0  0
  7  3  1  0  0  0  0
  8  9  1  0  0  0  0
  8  4  1  0  0  0  0
  9 10  1  0  0  0  0
 11 12  1  0  0  0  0
 11  9  1  0  0  0  0
 13 11  1  0  0  0  0
 14 13  1  0  0  0  0
 14 16  1  0  0  0  0
 15 14  1  0  0  0  0
 16  8  1  0  0  0  0
 17 16  1  0  0  0  0
 18 24  1  0  0  0  0
 18 19  1  0  0  0  0
 19 25  1  0  0  0  0
 20 19  2  0  0  0  0
 20 26  1  0  0  0  0
 21 20  1  0  0  0  0
 22 23  1  0  0  0  0
 22 21  2  0  0  0  0
 23 18  2  0  0  0  0
M  END
>  <minimizedAffinity>
-4.4712677

$$$$

 OpenBabel03262522583D

 26 28  0  0  0  0  0  0  0  0999 V2000
   37.7030   26.9530   34.0770 C   0  0  0  0  0  0  0  0  0  0  0  0
   37.8860   27.4090   35.3620 C   0  0  0  0  0  0  0  0  0  0  0  0
   38.3260   26.3940   36.1500 C   0  0  0  0  0  0  0  0  0  0  0  0
   38.4170   25.2920   35.3360 N   0  0  0  0  0  0  0  0  0  0  0  0
   38.0380   25.6610   34.1120 N   0  0  0  0  0  0  0  0  0  0  0  0
   37.7230   28.4070   35.7490 H   0  0  0  0  0  0  0  0  0  0  0  0
   38.5740   26.3950   37.2210 H   0  0  0  0  0  0  0  0  0  0  0  0
   38.8310   23.9680   35.6780 C   0  0  0  0  0  3  0  0  0  0  0  0
   38.6680   23.6150   37.1310 C   0  0  0  0  0  3  0  0  0  0  0  0
   37.7620   22.9920   37.3150 H   0  0  0  0  0  0  0  0  0  0  0  0
   39.8480   22.8120   37.6410 C   0  0  0  0  0  3  0  0  0  0  0  0
   39.5030   22.2870   38.5620 H   0  0  0  0  0  0  0  0  0  0  0  0
   40.2720   21.8320   36.7700 O   0  0  0  0  0  0  0  0  0  0  0  0
   40.6290   22.2900   35.5180 C   0  0  0  0  0  3  0  0  0  0  0  0
   41.6980   22.1720   35.2780 H   0  0  0  0  0  0  0  0  0  0  0  0
   40.2960   23.7690   35.3440 C   0  0  0  0  0  3  0  0  0  0  0  0
   40.5390   24.0370   34.3090 H   0  0  0  0  0  0  0  0  0  0  0  0
   35.7330   29.1820   31.9380 C   0  0  0  0  0  0  0  0  0  0  0  0
   36.4550   29.1340   30.7150 C   0  0  0  0  0  0  0  0  0  0  0  0
   37.6130   28.3300   30.6500 C   0  0  0  0  0  0  0  0  0  0  0  0
   37.9610   27.6530   31.7690 N   0  0  0  0  0  0  0  0  0  0  0  0
   37.2420   27.7230   32.9300 C   0  0  0  0  0  0  0  0  0  0  0  0
   36.1530   28.4760   32.9980 N   0  0  0  0  0  0  0  0  0  0  0  0
   34.8470   29.8130   31.9430 H   0  0  0  0  0  0  0  0  0  0  0  0
   36.1610   29.6840   29.8280 H   0  0  0  0  0  0  0  0  0  0  0  0
   38.2040   28.2530   29.7480 H   0  0  0  0  0  0  0  0  0  0  0  0
  1  5  2  0  0  0  0
  1  2  1  0  0  0  0
  2  6  1  0  0  0  0
  2  3  2  0  0  0  0
  3  7  1  0  0  0  0
  4  8  1  0  0  0  0
  4  3  1  0  0  0  0
  5  4  1  0  0  0  0
  8  9  1  0  0  0  0
  9 10  1  0  0  0  0
  9 11  1  0  0  0  0
 11 12  1  0  0  0  0
 13 11  1  0  0  0  0
 14 13  1  0  0  0  0
 15 14  1  0  0  0  0
 16 14  1  0  0  0  0
 16  8  1  0  0  0  0
 17 16  1  0  0  0  0
 18 24  1  0  0  0  0
 18 23  1  0  0  0  0
 19 18  2  0  0  0  0
 20 19  1  0  0  0  0
 20 21  2  0  0  0  0
 21 22  1  0  0  0  0
 22 23  2  0  0  0  0
 22  1  1  0  0  0  0
 25 19  1  0  0  0  0
 26 20  1  0  0  0  0
M  END
>  <minimizedAffinity>
-4.44649124

$$$$
