
 OpenBabel03272509433D

 39 41  0  0  1  0  0  0  0  0999 V2000
   37.0700   30.9310   49.0640 C   0  0  0  0  0  0  0  0  0  0  0  0
   36.7910   31.8530   50.0760 C   0  0  0  0  0  0  0  0  0  0  0  0
   37.3820   33.1080   50.1020 C   0  0  0  0  0  0  0  0  0  0  0  0
   38.2790   33.4690   49.0960 C   0  0  0  0  0  0  0  0  0  0  0  0
   38.5400   32.5540   48.1130 C   0  0  0  0  0  0  0  0  0  0  0  0
   37.9340   31.3090   48.1150 C   0  0  0  0  0  0  0  0  0  0  0  0
   36.0830   31.5330   50.8470 H   0  0  0  0  0  0  0  0  0  0  0  0
   37.0780   33.7160   50.9390 H   0  0  0  0  0  0  0  0  0  0  0  0
   38.6990   34.4610   49.1840 H   0  0  0  0  0  0  0  0  0  0  0  0
   39.2580   32.9750   47.4000 H   0  0  0  0  0  0  0  0  0  0  0  0
   36.4810   29.6100   49.0540 C   0  0  2  0  0  0  0  0  0  0  0  0
   36.9780   29.0640   48.1640 H   0  0  0  0  0  0  0  0  0  0  0  0
   33.6110   29.9630   46.8510 C   0  0  0  0  0  0  0  0  0  0  0  0
   32.8720   28.8190   47.0790 C   0  0  0  0  0  0  0  0  0  0  0  0
   33.3180   27.9360   48.0450 C   0  0  0  0  0  0  0  0  0  0  0  0
   34.4740   28.2220   48.7380 N   0  0  0  0  0  0  0  0  0  0  0  0
   35.1370   29.3280   48.4730 C   0  0  0  0  0  0  0  0  0  0  0  0
   34.7150   30.2020   47.5360 N   0  0  0  0  0  0  0  0  0  0  0  0
   33.2930   30.6890   46.0970 H   0  0  0  0  0  0  0  0  0  0  0  0
   31.9860   28.7000   46.4780 H   0  0  0  0  0  0  0  0  0  0  0  0
   32.7350   27.0430   48.2220 H   0  0  0  0  0  0  0  0  0  0  0  0
   36.9500   28.8510   49.9800 O   0  0  0  0  0  0  0  0  0  0  0  0
   36.7440   28.9700   50.9310 H   0  0  0  0  0  0  0  0  0  0  0  0
   38.3260   30.4320   47.0350 C   0  0  0  0  0  3  0  0  0  0  0  0
   38.8590   30.8620   45.8860 C   0  0  0  0  0  3  0  0  0  0  0  0
   39.3370   30.0550   44.7380 C   0  0  0  0  0  0  0  0  0  0  0  0
   40.4050   29.7860   44.9610 H   0  0  0  0  0  0  0  0  0  0  0  0
   38.7350   29.1400   44.6530 H   0  0  0  0  0  0  0  0  0  0  0  0
   39.3580   31.0630   43.2550 S   0  0  0  0  0  0  0  0  0  0  0  0
   39.8780   30.1300   41.7950 C   0  0  0  0  0  3  0  0  0  0  0  0
   40.4400   31.0600   40.7710 C   0  0  0  0  0  3  0  0  0  0  0  0
   39.8630   31.9950   40.6570 H   0  0  0  0  0  0  0  0  0  0  0  0
   40.6570   30.4560   39.4260 C   0  0  0  0  0  3  0  0  0  0  0  0
   41.6590   29.9510   39.4200 H   0  0  0  0  0  0  0  0  0  0  0  0
   39.7020   29.5630   39.0070 O   0  0  0  0  0  0  0  0  0  0  0  0
   38.5420   29.5340   39.7470 C   0  0  0  0  0  3  0  0  0  0  0  0
   37.9810   28.6220   39.3940 H   0  0  0  0  0  0  0  0  0  0  0  0
   38.7420   29.3570   41.2150 C   0  0  0  0  0  3  0  0  0  0  0  0
   37.7880   29.6730   41.7270 H   0  0  0  0  0  0  0  0  0  0  0  0
  1  2  1  0  0  0  0
  2  3  2  0  0  0  0
  2  7  1  0  0  0  0
  3  8  1  0  0  0  0
  4  9  1  0  0  0  0
  4  3  1  0  0  0  0
  5  6  1  0  0  0  0
  5  4  2  0  0  0  0
  6  1  2  0  0  0  0
 10  5  1  0  0  0  0
 11 12  1  6  0  0  0
 11  1  1  0  0  0  0
 11 22  1  0  0  0  0
 13 14  2  0  0  0  0
 13 18  1  0  0  0  0
 14 15  1  0  0  0  0
 15 21  1  0  0  0  0
 15 16  2  0  0  0  0
 17 16  1  0  0  0  0
 17 11  1  0  0  0  0
 18 17  2  0  0  0  0
 19 13  1  0  0  0  0
 20 14  1  0  0  0  0
 22 23  1  0  0  0  0
 24  6  1  0  0  0  0
 25 24  2  0  0  0  0
 26 27  1  0  0  0  0
 26 25  1  0  0  0  0
 28 26  1  0  0  0  0
 29 26  1  0  0  0  0
 30 29  1  0  0  0  0
 31 30  1  0  0  0  0
 32 31  1  0  0  0  0
 33 31  1  0  0  0  0
 34 33  1  0  0  0  0
 35 33  1  0  0  0  0
 35 36  1  0  0  0  0
 36 38  1  0  0  0  0
 37 36  1  0  0  0  0
 38 39  1  0  0  0  0
 38 30  1  0  0  0  0
M  END
>  <minimizedAffinity>
-5.43728352

>  <minimizedRMSD>
0.216678128

$$$$
