
 OpenBabel03272508583D

 41 44  0  0  1  0  0  0  0  0999 V2000
   39.1330   31.4760   43.3030 C   0  0  0  0  0  0  0  0  0  0  0  0
   40.1370   30.5490   43.4510 C   0  0  0  0  0  0  0  0  0  0  0  0
   40.8630   30.2030   42.3190 C   0  0  0  0  0  0  0  0  0  0  0  0
   40.5280   30.8130   41.1240 C   0  0  0  0  0  0  0  0  0  0  0  0
   39.5100   31.7500   40.9810 C   0  0  0  0  0  0  0  0  0  0  0  0
   38.8330   32.0540   42.1060 N   0  0  0  0  0  0  0  0  0  0  0  0
   40.3890   30.0800   44.3920 H   0  0  0  0  0  0  0  0  0  0  0  0
   41.6540   29.4850   42.3920 H   0  0  0  0  0  0  0  0  0  0  0  0
   41.0750   30.5650   40.2230 H   0  0  0  0  0  0  0  0  0  0  0  0
   38.3460   31.8800   44.4870 C   0  0  0  0  0  0  0  0  0  0  0  0
   37.2590   32.4560   44.3960 O   0  0  0  0  0  0  0  0  0  0  0  0
   38.9220   31.5630   45.7880 N   0  0  0  0  0  0  0  0  0  0  0  0
   39.8950   31.2590   45.9440 H   0  0  0  0  0  0  0  0  0  0  0  0
   38.4270   31.0730   48.1750 C   0  0  2  0  0  0  0  0  0  0  0  0
   38.6820   32.5350   48.0860 C   0  0  0  0  0  0  0  0  0  0  0  0
   38.0570   31.6870   46.9430 C   0  0  1  0  0  0  0  0  0  0  0  0
   39.3560   30.4680   48.2640 H   0  0  0  0  0  0  0  0  0  0  0  0
   38.0220   33.2520   48.6020 H   0  0  0  0  0  0  0  0  0  0  0  0
   39.7000   32.9000   47.9450 H   0  0  0  0  0  0  0  0  0  0  0  0
   36.9900   31.9500   46.7520 H   0  0  0  0  0  0  0  0  0  0  0  0
   35.0660   30.2380   49.5150 C   0  0  0  0  0  0  0  0  0  0  0  0
   35.3970   29.5530   50.7310 C   0  0  0  0  0  0  0  0  0  0  0  0
   36.7830   29.4030   51.0630 C   0  0  0  0  0  0  0  0  0  0  0  0
   37.7430   29.9110   50.2210 N   0  0  0  0  0  0  0  0  0  0  0  0
   37.3490   30.5460   49.0890 C   0  0  0  0  0  0  0  0  0  0  0  0
   36.0260   30.7290   48.7040 N   0  0  0  0  0  0  0  0  0  0  0  0
   34.0080   30.3240   49.3120 H   0  0  0  0  0  0  0  0  0  0  0  0
   34.6360   29.1600   51.3830 H   0  0  0  0  0  0  0  0  0  0  0  0
   37.0440   28.8890   51.9760 H   0  0  0  0  0  0  0  0  0  0  0  0
   39.2110   32.3500   39.6860 C   0  0  0  0  0  0  0  0  0  0  0  0
   38.7870   33.5290   39.6560 O   0  0  0  0  0  0  0  0  0  0  0  0
   39.3550   31.7120   38.3790 C   0  0  0  0  0  3  0  0  0  0  0  0
   39.2270   32.8220   37.3300 C   0  0  0  0  0  3  0  0  0  0  0  0
   39.9760   33.5790   37.6270 H   0  0  0  0  0  0  0  0  0  0  0  0
   39.4430   32.2740   35.9510 C   0  0  0  0  0  3  0  0  0  0  0  0
   40.5040   32.0020   35.7870 H   0  0  0  0  0  0  0  0  0  0  0  0
   38.5570   31.2380   35.7340 O   0  0  0  0  0  0  0  0  0  0  0  0
   38.6950   30.1900   36.6260 C   0  0  0  0  0  3  0  0  0  0  0  0
   39.8030   29.9750   36.6580 H   0  0  0  0  0  0  0  0  0  0  0  0
   38.3450   30.6690   38.0420 C   0  0  0  0  0  3  0  0  0  0  0  0
   37.3080   31.0160   38.0240 H   0  0  0  0  0  0  0  0  0  0  0  0
  1  2  1  0  0  0  0
  1 10  1  0  0  0  0
  2  7  1  0  0  0  0
  3  8  1  0  0  0  0
  3  2  2  0  0  0  0
  4  3  1  0  0  0  0
  5  4  2  0  0  0  0
  5  6  1  0  0  0  0
  6  1  2  0  0  0  0
  9  4  1  0  0  0  0
 10 12  1  0  0  0  0
 11 10  2  0  0  0  0
 12 13  1  0  0  0  0
 12 16  1  0  0  0  0
 14 17  1  6  0  0  0
 14 25  1  0  0  0  0
 15 14  1  0  0  0  0
 15 18  1  0  0  0  0
 16 20  1  6  0  0  0
 16 15  1  0  0  0  0
 16 14  1  0  0  0  0
 19 15  1  0  0  0  0
 21 22  1  0  0  0  0
 22 23  2  0  0  0  0
 22 28  1  0  0  0  0
 23 29  1  0  0  0  0
 24 23  1  0  0  0  0
 25 24  2  0  0  0  0
 26 25  1  0  0  0  0
 26 21  2  0  0  0  0
 27 21  1  0  0  0  0
 30  5  1  0  0  0  0
 31 30  2  0  0  0  0
 32 30  1  0  0  0  0
 33 34  1  0  0  0  0
 33 32  1  0  0  0  0
 35 33  1  0  0  0  0
 36 35  1  0  0  0  0
 37 35  1  0  0  0  0
 37 38  1  0  0  0  0
 38 39  1  0  0  0  0
 38 40  1  0  0  0  0
 40 32  1  0  0  0  0
 41 40  1  0  0  0  0
M  END
>  <minimizedAffinity>
-4.86556864

>  <minimizedRMSD>
0.0765717328

$$$$
