
 OpenBabel03272508583D

 41 44  0  0  1  0  0  0  0  0999 V2000
   39.1670   31.4490   43.3530 C   0  0  0  0  0  0  0  0  0  0  0  0
   40.1690   30.5120   43.4370 C   0  0  0  0  0  0  0  0  0  0  0  0
   40.8560   30.2020   42.2700 C   0  0  0  0  0  0  0  0  0  0  0  0
   40.4880   30.8560   41.1090 C   0  0  0  0  0  0  0  0  0  0  0  0
   39.4720   31.8040   41.0320 C   0  0  0  0  0  0  0  0  0  0  0  0
   38.8340   32.0710   42.1880 N   0  0  0  0  0  0  0  0  0  0  0  0
   40.4480   30.0080   44.3510 H   0  0  0  0  0  0  0  0  0  0  0  0
   41.6440   29.4770   42.2910 H   0  0  0  0  0  0  0  0  0  0  0  0
   41.0040   30.6380   40.1830 H   0  0  0  0  0  0  0  0  0  0  0  0
   38.4220   31.8150   44.5760 C   0  0  0  0  0  0  0  0  0  0  0  0
   37.3350   32.3990   44.5410 O   0  0  0  0  0  0  0  0  0  0  0  0
   39.0370   31.4500   45.8460 N   0  0  0  0  0  0  0  0  0  0  0  0
   40.0130   31.1360   45.9590 H   0  0  0  0  0  0  0  0  0  0  0  0
   38.7310   31.1170   48.2910 C   0  0  2  0  0  0  0  0  0  0  0  0
   38.7230   32.5860   48.0580 C   0  0  0  0  0  0  0  0  0  0  0  0
   38.2110   31.5370   47.0320 C   0  0  1  0  0  0  0  0  0  0  0  0
   39.7530   30.6900   48.3810 H   0  0  0  0  0  0  0  0  0  0  0  0
   37.9700   33.2270   48.5440 H   0  0  0  0  0  0  0  0  0  0  0  0
   39.6560   33.1020   47.8280 H   0  0  0  0  0  0  0  0  0  0  0  0
   37.1070   31.5960   46.8780 H   0  0  0  0  0  0  0  0  0  0  0  0
   35.9130   29.1890   49.7500 C   0  0  0  0  0  0  0  0  0  0  0  0
   36.1310   29.3680   51.1560 C   0  0  0  0  0  0  0  0  0  0  0  0
   37.2510   30.1630   51.5670 C   0  0  0  0  0  0  0  0  0  0  0  0
   38.0720   30.7240   50.6180 N   0  0  0  0  0  0  0  0  0  0  0  0
   37.7980   30.5070   49.3070 C   0  0  0  0  0  0  0  0  0  0  0  0
   36.7320   29.7480   48.8360 N   0  0  0  0  0  0  0  0  0  0  0  0
   35.0560   28.5800   49.4940 H   0  0  0  0  0  0  0  0  0  0  0  0
   35.4810   28.9240   51.8900 H   0  0  0  0  0  0  0  0  0  0  0  0
   37.4240   30.3050   52.6230 H   0  0  0  0  0  0  0  0  0  0  0  0
   39.1370   32.4520   39.7690 C   0  0  0  0  0  0  0  0  0  0  0  0
   38.7490   33.6440   39.7930 O   0  0  0  0  0  0  0  0  0  0  0  0
   39.2040   31.8500   38.4400 C   0  0  0  0  0  3  0  0  0  0  0  0
   40.3890   32.5020   37.7200 C   0  0  0  0  0  3  0  0  0  0  0  0
   41.2470   32.3590   38.4020 H   0  0  0  0  0  0  0  0  0  0  0  0
   40.5890   31.8870   36.3670 C   0  0  0  0  0  3  0  0  0  0  0  0
   40.9830   30.8540   36.4480 H   0  0  0  0  0  0  0  0  0  0  0  0
   39.4150   31.9870   35.6470 O   0  0  0  0  0  0  0  0  0  0  0  0
   38.3410   31.3490   36.2420 C   0  0  0  0  0  3  0  0  0  0  0  0
   38.7300   30.3290   36.5330 H   0  0  0  0  0  0  0  0  0  0  0  0
   38.0060   32.0360   37.5730 C   0  0  0  0  0  3  0  0  0  0  0  0
   37.7500   33.0760   37.3500 H   0  0  0  0  0  0  0  0  0  0  0  0
  1  2  1  0  0  0  0
  1 10  1  0  0  0  0
  2  7  1  0  0  0  0
  3  8  1  0  0  0  0
  3  2  2  0  0  0  0
  4  3  1  0  0  0  0
  5  4  2  0  0  0  0
  5  6  1  0  0  0  0
  6  1  2  0  0  0  0
  9  4  1  0  0  0  0
 10 12  1  0  0  0  0
 11 10  2  0  0  0  0
 12 13  1  0  0  0  0
 12 16  1  0  0  0  0
 14 17  1  6  0  0  0
 14 25  1  0  0  0  0
 15 14  1  0  0  0  0
 15 18  1  0  0  0  0
 16 20  1  6  0  0  0
 16 15  1  0  0  0  0
 16 14  1  0  0  0  0
 19 15  1  0  0  0  0
 21 22  1  0  0  0  0
 22 23  2  0  0  0  0
 22 28  1  0  0  0  0
 23 29  1  0  0  0  0
 24 23  1  0  0  0  0
 25 24  2  0  0  0  0
 26 25  1  0  0  0  0
 26 21  2  0  0  0  0
 27 21  1  0  0  0  0
 30 31  2  0  0  0  0
 30  5  1  0  0  0  0
 32 30  1  0  0  0  0
 33 34  1  0  0  0  0
 33 32  1  0  0  0  0
 35 36  1  0  0  0  0
 35 33  1  0  0  0  0
 37 38  1  0  0  0  0
 37 35  1  0  0  0  0
 38 39  1  0  0  0  0
 38 40  1  0  0  0  0
 40 32  1  0  0  0  0
 41 40  1  0  0  0  0
M  END
>  <minimizedAffinity>
-5.04935646

>  <minimizedRMSD>
0.966239393

$$$$
