
 OpenBabel03272507413D

 42 45  0  0  0  0  0  0  0  0999 V2000
   36.6290   31.1870   50.0850 C   0  0  0  0  0  0  0  0  0  0  0  0
   35.5500   30.3340   49.8700 C   0  0  0  0  0  0  0  0  0  0  0  0
   35.3540   29.2310   50.6730 C   0  0  0  0  0  0  0  0  0  0  0  0
   36.2500   29.0130   51.6730 N   0  0  0  0  0  0  0  0  0  0  0  0
   37.2990   29.8550   51.8710 C   0  0  0  0  0  0  0  0  0  0  0  0
   37.4700   30.9110   51.0870 N   0  0  0  0  0  0  0  0  0  0  0  0
   34.5390   28.5270   50.5630 H   0  0  0  0  0  0  0  0  0  0  0  0
   37.9910   29.6390   52.6870 H   0  0  0  0  0  0  0  0  0  0  0  0
   34.2350   29.3530   48.0480 C   0  0  0  0  0  0  0  0  0  0  0  0
   34.7180   28.1600   47.9370 O   0  0  0  0  0  0  0  0  0  0  0  0
   34.5810   30.4800   48.8660 N   0  0  0  0  0  0  0  0  0  0  0  0
   34.0360   31.3340   48.6040 H   0  0  0  0  0  0  0  0  0  0  0  0
   33.1120   29.3800   47.0630 C   0  0  0  0  0  3  0  0  0  0  0  0
   33.1820   28.1490   46.2350 C   0  0  0  0  0  3  0  0  0  0  0  0
   32.7310   27.2620   46.7740 H   0  0  0  0  0  0  0  0  0  0  0  0
   32.4420   28.2380   44.9260 C   0  0  0  0  0  3  0  0  0  0  0  0
   33.1700   28.3210   44.0850 H   0  0  0  0  0  0  0  0  0  0  0  0
   31.6700   29.4010   44.8410 O   0  0  0  0  0  0  0  0  0  0  0  0
   32.6180   30.4460   44.8400 C   0  0  0  0  0  3  0  0  0  0  0  0
   32.1750   31.3820   44.4470 H   0  0  0  0  0  0  0  0  0  0  0  0
   32.9620   30.6570   46.3180 C   0  0  0  0  0  3  0  0  0  0  0  0
   33.8290   31.3360   46.3320 H   0  0  0  0  0  0  0  0  0  0  0  0
   36.6590   32.2110   49.2020 O   0  0  0  0  0  0  0  0  0  0  0  0
   38.1860   32.1570   47.2460 C   0  0  0  0  0  0  0  0  0  0  0  0
   37.7910   32.6090   48.4930 C   0  0  0  0  0  0  0  0  0  0  0  0
   38.5520   33.5560   49.1630 C   0  0  0  0  0  0  0  0  0  0  0  0
   39.7110   34.0440   48.5710 C   0  0  0  0  0  0  0  0  0  0  0  0
   40.0970   33.5860   47.3260 C   0  0  0  0  0  0  0  0  0  0  0  0
   39.3190   32.6520   46.6980 C   0  0  0  0  0  0  0  0  0  0  0  0
   38.2990   33.9500   50.1380 H   0  0  0  0  0  0  0  0  0  0  0  0
   40.3010   34.7800   49.0930 H   0  0  0  0  0  0  0  0  0  0  0  0
   40.9930   33.9430   46.8360 H   0  0  0  0  0  0  0  0  0  0  0  0
   39.7420   32.1650   45.3600 C   0  0  0  0  0  0  0  0  0  0  0  0
   40.5780   31.1430   45.0330 C   0  0  0  0  0  0  0  0  0  0  0  0
   40.6680   31.0700   43.6480 C   0  0  0  0  0  0  0  0  0  0  0  0
   39.8570   32.0830   43.2100 C   0  0  0  0  0  0  0  0  0  0  0  0
   39.3120   32.7280   44.2400 O   0  0  0  0  0  0  0  0  0  0  0  0
   41.0860   30.4960   45.7370 H   0  0  0  0  0  0  0  0  0  0  0  0
   41.2470   30.3730   43.0350 H   0  0  0  0  0  0  0  0  0  0  0  0
   39.6620   32.3520   42.1630 H   0  0  0  0  0  0  0  0  0  0  0  0
   36.6770   30.4120   46.1140 N   0  0  0  0  0  0  0  0  0  0  0  0
   37.3480   31.1840   46.6270 C   0  0  0  0  0  0  0  0  0  0  0  0
  1  6  1  0  0  0  0
  2  1  2  0  0  0  0
  2  3  1  0  0  0  0
  3  4  2  0  0  0  0
  4  5  1  0  0  0  0
  5  8  1  0  0  0  0
  6  5  2  0  0  0  0
  7  3  1  0  0  0  0
  9 11  1  0  0  0  0
 10  9  2  0  0  0  0
 11  2  1  0  0  0  0
 12 11  1  0  0  0  0
 13  9  1  0  0  0  0
 14 15  1  0  0  0  0
 14 13  1  0  0  0  0
 16 14  1  0  0  0  0
 17 16  1  0  0  0  0
 18 16  1  0  0  0  0
 19 18  1  0  0  0  0
 19 21  1  0  0  0  0
 20 19  1  0  0  0  0
 21 22  1  0  0  0  0
 21 13  1  0  0  0  0
 23  1  1  0  0  0  0
 24 25  1  0  0  0  0
 25 26  2  0  0  0  0
 25 23  1  0  0  0  0
 26 30  1  0  0  0  0
 27 31  1  0  0  0  0
 27 26  1  0  0  0  0
 28 27  2  0  0  0  0
 29 24  2  0  0  0  0
 29 28  1  0  0  0  0
 32 28  1  0  0  0  0
 33 29  1  0  0  0  0
 34 33  2  0  0  0  0
 34 38  1  0  0  0  0
 35 34  1  0  0  0  0
 36 35  2  0  0  0  0
 36 37  1  0  0  0  0
 37 33  1  0  0  0  0
 39 35  1  0  0  0  0
 40 36  1  0  0  0  0
 41 42  3  0  0  0  0
 42 24  1  0  0  0  0
M  END
>  <minimizedAffinity>
-5.92999792

>  <minimizedRMSD>
0.387134939

$$$$
