
 OpenBabel03272507143D

 41 45  0  0  0  0  0  0  0  0999 V2000
   35.9420   29.1830   49.7730 C   0  0  0  0  0  0  0  0  0  0  0  0
   34.9250   29.7420   50.4640 C   0  0  0  0  0  0  0  0  0  0  0  0
   33.7450   29.1810   49.9690 C   0  0  0  0  0  0  0  0  0  0  0  0
   34.1460   28.2820   48.9710 C   0  0  0  0  0  0  0  0  0  0  0  0
   35.4400   28.3360   48.9120 O   0  0  0  0  0  0  0  0  0  0  0  0
   34.9480   30.4960   51.2680 H   0  0  0  0  0  0  0  0  0  0  0  0
   32.7560   29.4580   50.3560 H   0  0  0  0  0  0  0  0  0  0  0  0
   33.5740   26.5290   47.2950 C   0  0  0  0  0  0  0  0  0  0  0  0
   33.1780   27.4930   48.2140 C   0  0  0  0  0  0  0  0  0  0  0  0
   31.8400   27.7480   48.4580 C   0  0  0  0  0  0  0  0  0  0  0  0
   30.9080   27.0190   47.7640 C   0  0  0  0  0  0  0  0  0  0  0  0
   29.5630   27.0430   47.7940 N   0  0  0  0  0  0  0  0  0  0  0  0
   29.1280   26.1310   46.9290 N   0  0  0  0  0  0  0  0  0  0  0  0
   30.1700   25.5270   46.3490 C   0  0  0  0  0  0  0  0  0  0  0  0
   31.3530   26.0650   46.8540 C   0  0  0  0  0  0  0  0  0  0  0  0
   32.6770   25.7970   46.5970 C   0  0  0  0  0  0  0  0  0  0  0  0
   34.6440   26.4010   47.1710 H   0  0  0  0  0  0  0  0  0  0  0  0
   31.4630   28.4860   49.1620 H   0  0  0  0  0  0  0  0  0  0  0  0
   28.9300   27.6450   48.3700 H   0  0  0  0  0  0  0  0  0  0  0  0
   30.1710   24.7280   45.5900 H   0  0  0  0  0  0  0  0  0  0  0  0
   32.9560   25.0540   45.8890 H   0  0  0  0  0  0  0  0  0  0  0  0
   37.3360   29.5350   50.0230 C   0  0  0  0  0  0  0  0  0  0  0  0
   38.0040   28.8410   50.8290 O   0  0  0  0  0  0  0  0  0  0  0  0
   37.8720   30.6750   49.3210 C   0  0  0  0  0  0  0  0  0  0  0  0
   38.1000   31.8260   50.0460 C   0  0  0  0  0  0  0  0  0  0  0  0
   38.6140   32.9450   49.4080 C   0  0  0  0  0  0  0  0  0  0  0  0
   38.8670   32.8370   48.0800 N   0  0  0  0  0  0  0  0  0  0  0  0
   38.6430   31.7250   47.3860 C   0  0  0  0  0  0  0  0  0  0  0  0
   38.1490   30.6570   48.0130 N   0  0  0  0  0  0  0  0  0  0  0  0
   37.9060   31.9420   51.1220 H   0  0  0  0  0  0  0  0  0  0  0  0
   38.8020   33.8470   49.9420 H   0  0  0  0  0  0  0  0  0  0  0  0
   38.9160   31.5950   45.9270 C   0  0  0  0  0  3  0  0  0  0  0  0
   38.9180   30.1580   45.4630 C   0  0  0  0  0  3  0  0  0  0  0  0
   37.8790   29.7300   45.4590 H   0  0  0  0  0  0  0  0  0  0  0  0
   39.5260   30.1700   44.0760 C   0  0  0  0  0  3  0  0  0  0  0  0
   39.4630   29.1790   43.5850 H   0  0  0  0  0  0  0  0  0  0  0  0
   39.0620   31.2020   43.3050 O   0  0  0  0  0  0  0  0  0  0  0  0
   37.8400   31.7270   43.7110 C   0  0  0  0  0  3  0  0  0  0  0  0
   37.5820   32.5350   42.9950 H   0  0  0  0  0  0  0  0  0  0  0  0
   37.9040   32.3370   45.0860 C   0  0  0  0  0  3  0  0  0  0  0  0
   36.8760   32.2710   45.5240 H   0  0  0  0  0  0  0  0  0  0  0  0
  1 22  1  0  0  0  0
  1  2  2  0  0  0  0
  2  6  1  0  0  0  0
  3  7  1  0  0  0  0
  3  2  1  0  0  0  0
  4  3  2  0  0  0  0
  5  4  1  0  0  0  0
  5  1  1  0  0  0  0
  8  9  1  0  0  0  0
  9 10  2  0  0  0  0
  9  4  1  0  0  0  0
 10 18  1  0  0  0  0
 11 12  1  0  0  0  0
 11 10  1  0  0  0  0
 12 19  1  0  0  0  0
 13 12  1  0  0  0  0
 14 15  1  0  0  0  0
 14 13  2  0  0  0  0
 15 11  2  0  0  0  0
 16 15  1  0  0  0  0
 16  8  2  0  0  0  0
 17  8  1  0  0  0  0
 20 14  1  0  0  0  0
 21 16  1  0  0  0  0
 22 23  2  0  0  0  0
 24 22  1  0  0  0  0
 24 25  1  0  0  0  0
 25 30  1  0  0  0  0
 26 31  1  0  0  0  0
 26 25  2  0  0  0  0
 27 26  1  0  0  0  0
 28 29  1  0  0  0  0
 28 27  2  0  0  0  0
 29 24  2  0  0  0  0
 32 28  1  0  0  0  0
 33 32  1  0  0  0  0
 34 33  1  0  0  0  0
 35 33  1  0  0  0  0
 36 35  1  0  0  0  0
 37 38  1  0  0  0  0
 37 35  1  0  0  0  0
 38 40  1  0  0  0  0
 39 38  1  0  0  0  0
 40 41  1  0  0  0  0
 40 32  1  0  0  0  0
M  END
>  <minimizedAffinity>
-6.83135414

>  <minimizedRMSD>
0.391815394

$$$$
