
 OpenBabel03272509513D

 34 36  0  0  0  0  0  0  0  0999 V2000
   37.1850   30.2170   51.3440 C   0  0  0  0  0  0  0  0  0  0  0  0
   37.9090   30.6000   50.1940 C   0  0  0  0  0  0  0  0  0  0  0  0
   37.4300   30.1690   48.9690 C   0  0  0  0  0  0  0  0  0  0  0  0
   36.2890   29.4010   48.9380 N   0  0  0  0  0  0  0  0  0  0  0  0
   35.6340   29.0620   50.0520 C   0  0  0  0  0  0  0  0  0  0  0  0
   36.0850   29.4710   51.2490 N   0  0  0  0  0  0  0  0  0  0  0  0
   37.4990   30.5180   52.3350 H   0  0  0  0  0  0  0  0  0  0  0  0
   38.8000   31.2080   50.2950 H   0  0  0  0  0  0  0  0  0  0  0  0
   38.1740   30.5590   47.7460 C   0  0  0  0  0  3  0  0  0  0  0  0
   38.8030   31.8980   47.8810 C   0  0  0  0  0  3  0  0  0  0  0  0
   38.1480   32.6740   48.3100 H   0  0  0  0  0  0  0  0  0  0  0  0
   39.1910   32.4210   46.5110 C   0  0  0  0  0  3  0  0  0  0  0  0
   39.8970   31.7640   45.9700 H   0  0  0  0  0  0  0  0  0  0  0  0
   37.9820   32.5900   45.8090 O   0  0  0  0  0  0  0  0  0  0  0  0
   37.5880   31.3130   45.4230 C   0  0  0  0  0  3  0  0  0  0  0  0
   36.6900   31.4160   44.7770 H   0  0  0  0  0  0  0  0  0  0  0  0
   37.2100   30.4490   46.5950 C   0  0  0  0  0  3  0  0  0  0  0  0
   36.1930   30.7060   46.9560 H   0  0  0  0  0  0  0  0  0  0  0  0
   34.5300   28.2960   49.7760 O   0  0  0  0  0  0  0  0  0  0  0  0
   33.8220   28.5250   48.5670 C   0  0  0  0  0  0  0  0  0  0  0  0
   34.5590   28.6840   47.7560 H   0  0  0  0  0  0  0  0  0  0  0  0
   33.2670   29.4810   48.6540 H   0  0  0  0  0  0  0  0  0  0  0  0
   32.8710   27.4050   48.2960 C   0  0  0  0  0  0  0  0  0  0  0  0
   33.1590   26.9640   47.3020 H   0  0  0  0  0  0  0  0  0  0  0  0
   32.9750   26.6210   49.0740 H   0  0  0  0  0  0  0  0  0  0  0  0
   31.4460   27.8500   48.2310 C   0  0  0  0  0  0  0  0  0  0  0  0
   30.7040   27.6910   49.3790 C   0  0  0  0  0  0  0  0  0  0  0  0
   29.3820   28.0630   49.4430 C   0  0  0  0  0  0  0  0  0  0  0  0
   28.8010   28.5940   48.3600 N   0  0  0  0  0  0  0  0  0  0  0  0
   29.5400   28.7430   47.2450 C   0  0  0  0  0  0  0  0  0  0  0  0
   30.8310   28.3880   47.1560 N   0  0  0  0  0  0  0  0  0  0  0  0
   31.1160   27.2650   50.2980 H   0  0  0  0  0  0  0  0  0  0  0  0
   28.7610   27.9550   50.3310 H   0  0  0  0  0  0  0  0  0  0  0  0
   29.1200   29.1730   46.3240 H   0  0  0  0  0  0  0  0  0  0  0  0
  1  7  1  0  0  0  0
  2  8  1  0  0  0  0
  2  1  2  0  0  0  0
  3  2  1  0  0  0  0
  4  3  2  0  0  0  0
  4  5  1  0  0  0  0
  5  6  2  0  0  0  0
  6  1  1  0  0  0  0
  9 10  1  0  0  0  0
  9  3  1  0  0  0  0
 10 11  1  0  0  0  0
 12 10  1  0  0  0  0
 13 12  1  0  0  0  0
 14 12  1  0  0  0  0
 15 14  1  0  0  0  0
 15 17  1  0  0  0  0
 16 15  1  0  0  0  0
 17 18  1  0  0  0  0
 17  9  1  0  0  0  0
 19  5  1  0  0  0  0
 20 22  1  0  0  0  0
 20 19  1  0  0  0  0
 21 20  1  0  0  0  0
 23 20  1  0  0  0  0
 23 25  1  0  0  0  0
 24 23  1  0  0  0  0
 26 23  1  0  0  0  0
 26 27  1  0  0  0  0
 27 28  2  0  0  0  0
 27 32  1  0  0  0  0
 28 33  1  0  0  0  0
 29 28  1  0  0  0  0
 30 29  2  0  0  0  0
 31 30  1  0  0  0  0
 31 26  2  0  0  0  0
 34 30  1  0  0  0  0
M  END
>  <minimizedAffinity>
-5.77066803

>  <minimizedRMSD>
0.630971313

$$$$
