
 OpenBabel03272505273D

 32 34  0  0  0  0  0  0  0  0999 V2000
   37.3860   31.0750   47.1370 N   0  0  0  0  0  0  0  0  0  0  0  0
   36.8000   30.7440   45.9560 C   0  0  0  0  0  0  0  0  0  0  0  0
   37.2650   31.2310   44.7410 C   0  0  0  0  0  0  0  0  0  0  0  0
   38.3780   32.0890   44.7760 C   0  0  0  0  0  0  0  0  0  0  0  0
   38.8300   32.5510   43.7050 O   0  0  0  0  0  0  0  0  0  0  0  0
   38.9610   32.4150   45.9740 N   0  0  0  0  0  0  0  0  0  0  0  0
   38.4210   31.8840   47.0630 C   0  0  0  0  0  0  0  0  0  0  0  0
   38.9830   32.2090   48.1360 O   0  0  0  0  0  0  0  0  0  0  0  0
   35.9420   30.0810   45.9530 H   0  0  0  0  0  0  0  0  0  0  0  0
   36.6010   30.8470   43.5040 C   0  0  0  0  0  3  0  0  0  0  0  0
   37.4940   30.0540   42.5640 C   0  0  0  0  0  3  0  0  0  0  0  0
   38.3230   30.7130   42.1920 H   0  0  0  0  0  0  0  0  0  0  0  0
   36.6540   29.7100   41.3530 C   0  0  0  0  0  3  0  0  0  0  0  0
   36.9520   30.2970   40.4480 H   0  0  0  0  0  0  0  0  0  0  0  0
   35.3010   29.9560   41.5370 O   0  0  0  0  0  0  0  0  0  0  0  0
   35.0170   31.2970   41.7370 C   0  0  0  0  0  3  0  0  0  0  0  0
   34.9250   31.8500   40.7960 H   0  0  0  0  0  0  0  0  0  0  0  0
   36.0080   31.9620   42.7010 C   0  0  0  0  0  3  0  0  0  0  0  0
   35.5090   32.7380   43.3150 H   0  0  0  0  0  0  0  0  0  0  0  0
   37.2270   29.4440   50.4670 C   0  0  0  0  0  0  0  0  0  0  0  0
   37.7180   29.9400   49.2480 C   0  0  0  0  0  0  0  0  0  0  0  0
   36.8990   30.5740   48.3490 C   0  0  0  0  0  0  0  0  0  0  0  0
   35.5790   30.7070   48.6770 N   0  0  0  0  0  0  0  0  0  0  0  0
   35.0820   30.2340   49.8510 C   0  0  0  0  0  0  0  0  0  0  0  0
   35.8980   29.6040   50.7430 N   0  0  0  0  0  0  0  0  0  0  0  0
   37.8070   28.9400   51.2170 H   0  0  0  0  0  0  0  0  0  0  0  0
   38.7630   29.7320   49.1710 H   0  0  0  0  0  0  0  0  0  0  0  0
   34.0260   30.3810   50.0300 H   0  0  0  0  0  0  0  0  0  0  0  0
   40.1140   33.2960   46.0030 C   0  0  0  0  0  0  0  0  0  0  0  0
   39.9920   34.2710   45.0680 F   0  0  0  0  0  0  0  0  0  0  0  0
   41.2950   32.6310   45.7200 F   0  0  0  0  0  0  0  0  0  0  0  0
   40.1850   33.9000   47.2520 F   0  0  0  0  0  0  0  0  0  0  0  0
  1 22  1  0  0  0  0
  2  1  1  0  0  0  0
  3  4  1  0  0  0  0
  3  2  2  0  0  0  0
  4  6  1  0  0  0  0
  5  4  2  0  0  0  0
  6 29  1  0  0  0  0
  6  7  1  0  0  0  0
  7  1  1  0  0  0  0
  7  8  2  0  0  0  0
  9  2  1  0  0  0  0
 10  3  1  0  0  0  0
 11 10  1  0  0  0  0
 12 11  1  0  0  0  0
 13 15  1  0  0  0  0
 13 11  1  0  0  0  0
 14 13  1  0  0  0  0
 15 16  1  0  0  0  0
 16 18  1  0  0  0  0
 17 16  1  0  0  0  0
 18 19  1  0  0  0  0
 18 10  1  0  0  0  0
 20 25  1  0  0  0  0
 20 26  1  0  0  0  0
 21 20  2  0  0  0  0
 22 23  2  0  0  0  0
 22 21  1  0  0  0  0
 23 24  1  0  0  0  0
 24 28  1  0  0  0  0
 24 25  2  0  0  0  0
 27 21  1  0  0  0  0
 29 32  1  0  0  0  0
 30 29  1  0  0  0  0
 31 29  1  0  0  0  0
M  END
>  <minimizedAffinity>
-6.08961821

>  <minimizedRMSD>
0.34067443

$$$$
