
 OpenBabel03272509093D

 41 44  0  0  0  0  0  0  0  0999 V2000
   32.9850   28.0840   48.1780 C   0  0  0  0  0  0  0  0  0  0  0  0
   32.1460   28.7330   47.9110 H   0  0  0  0  0  0  0  0  0  0  0  0
   32.5860   27.4500   49.0260 H   0  0  0  0  0  0  0  0  0  0  0  0
   33.3680   27.0970   47.1380 C   0  0  0  0  0  0  0  0  0  0  0  0
   33.4690   25.7260   47.3620 C   0  0  0  0  0  0  0  0  0  0  0  0
   33.8270   24.8580   46.3580 C   0  0  0  0  0  0  0  0  0  0  0  0
   34.0990   25.3400   45.0800 C   0  0  0  0  0  0  0  0  0  0  0  0
   34.0010   26.6810   44.8580 C   0  0  0  0  0  0  0  0  0  0  0  0
   33.6420   27.5600   45.8640 C   0  0  0  0  0  0  0  0  0  0  0  0
   33.2340   25.4720   48.3970 H   0  0  0  0  0  0  0  0  0  0  0  0
   33.8460   23.8460   46.7400 H   0  0  0  0  0  0  0  0  0  0  0  0
   34.3680   24.5630   44.3800 H   0  0  0  0  0  0  0  0  0  0  0  0
   34.2350   26.9430   43.8370 H   0  0  0  0  0  0  0  0  0  0  0  0
   33.6020   28.9750   45.4300 C   0  0  0  0  0  3  0  0  0  0  0  0
   34.9470   29.3030   44.7910 C   0  0  0  0  0  3  0  0  0  0  0  0
   35.1870   28.4040   44.1490 H   0  0  0  0  0  0  0  0  0  0  0  0
   34.9130   30.5430   43.9530 C   0  0  0  0  0  3  0  0  0  0  0  0
   35.3930   31.3920   44.4850 H   0  0  0  0  0  0  0  0  0  0  0  0
   33.6790   30.8600   43.4330 O   0  0  0  0  0  0  0  0  0  0  0  0
   33.0330   29.6490   43.1030 C   0  0  0  0  0  3  0  0  0  0  0  0
   33.7660   28.9420   42.6660 H   0  0  0  0  0  0  0  0  0  0  0  0
   32.4750   29.1460   44.4410 C   0  0  0  0  0  3  0  0  0  0  0  0
   31.8290   28.2810   44.3150 H   0  0  0  0  0  0  0  0  0  0  0  0
   35.1230   28.3180   49.4530 C   0  0  0  0  0  3  0  0  0  0  0  0
   34.1250   28.8100   48.7610 C   0  0  0  0  0  3  0  0  0  0  0  0
   37.3990   30.1980   51.5950 C   0  0  0  0  0  0  0  0  0  0  0  0
   38.0940   30.9870   50.6490 C   0  0  0  0  0  0  0  0  0  0  0  0
   37.7520   30.8420   49.2950 C   0  0  0  0  0  0  0  0  0  0  0  0
   36.7670   29.9510   48.9570 N   0  0  0  0  0  0  0  0  0  0  0  0
   36.1430   29.2280   49.9280 C   0  0  0  0  0  0  0  0  0  0  0  0
   36.4530   29.3510   51.2160 N   0  0  0  0  0  0  0  0  0  0  0  0
   37.6790   30.3240   52.6480 H   0  0  0  0  0  0  0  0  0  0  0  0
   38.8670   31.6880   50.9000 H   0  0  0  0  0  0  0  0  0  0  0  0
   38.4060   31.6100   48.2290 C   0  0  0  0  0  0  0  0  0  0  0  0
   38.6340   31.0930   46.9770 C   0  0  0  0  0  0  0  0  0  0  0  0
   39.2640   32.0840   46.2240 C   0  0  0  0  0  0  0  0  0  0  0  0
   39.3930   33.1570   47.0460 N   0  0  0  0  0  0  0  0  0  0  0  0
   38.8800   32.8580   48.2260 N   0  0  0  0  0  0  0  0  0  0  0  0
   38.3720   30.0970   46.6340 H   0  0  0  0  0  0  0  0  0  0  0  0
   39.5810   31.9970   45.1910 H   0  0  0  0  0  0  0  0  0  0  0  0
   39.8290   34.0700   46.7810 H   0  0  0  0  0  0  0  0  0  0  0  0
  1 25  1  0  0  0  0
  1  3  1  0  0  0  0
  2  1  1  0  0  0  0
  4  5  1  0  0  0  0
  4  1  1  0  0  0  0
  5 10  1  0  0  0  0
  6 11  1  0  0  0  0
  6  5  2  0  0  0  0
  7  6  1  0  0  0  0
  8  7  2  0  0  0  0
  8  9  1  0  0  0  0
  9  4  2  0  0  0  0
 12  7  1  0  0  0  0
 13  8  1  0  0  0  0
 14  9  1  0  0  0  0
 15 14  1  0  0  0  0
 16 15  1  0  0  0  0
 17 18  1  0  0  0  0
 17 15  1  0  0  0  0
 19 17  1  0  0  0  0
 20 19  1  0  0  0  0
 20 22  1  0  0  0  0
 21 20  1  0  0  0  0
 22 14  1  0  0  0  0
 23 22  1  0  0  0  0
 24 30  1  0  0  0  0
 25 24  2  0  0  0  0
 26 32  1  0  0  0  0
 27 33  1  0  0  0  0
 27 26  2  0  0  0  0
 28 27  1  0  0  0  0
 29 28  2  0  0  0  0
 29 30  1  0  0  0  0
 30 31  2  0  0  0  0
 31 26  1  0  0  0  0
 34 28  1  0  0  0  0
 35 34  1  0  0  0  0
 36 35  2  0  0  0  0
 36 37  1  0  0  0  0
 37 38  1  0  0  0  0
 38 34  2  0  0  0  0
 39 35  1  0  0  0  0
 40 36  1  0  0  0  0
 41 37  1  0  0  0  0
M  END
>  <minimizedAffinity>
-6.24572563

>  <minimizedRMSD>
0.998353899

$$$$
