
 OpenBabel03272500453D

 26 28  0  0  0  0  0  0  0  0999 V2000
   37.6450   27.0390   33.9790 C   0  0  0  0  0  0  0  0  0  0  0  0
   37.9070   27.7820   35.1180 C   0  0  0  0  0  0  0  0  0  0  0  0
   38.1820   26.9160   36.1650 C   0  0  0  0  0  0  0  0  0  0  0  0
   38.0850   25.6690   35.6480 N   0  0  0  0  0  0  0  0  0  0  0  0
   37.7690   25.7910   34.3710 N   0  0  0  0  0  0  0  0  0  0  0  0
   37.9110   28.8740   35.2410 H   0  0  0  0  0  0  0  0  0  0  0  0
   38.4250   27.1500   37.1820 H   0  0  0  0  0  0  0  0  0  0  0  0
   38.2700   24.3890   36.2920 C   0  0  0  0  0  3  0  0  0  0  0  0
   39.6430   23.8310   36.0250 C   0  0  0  0  0  3  0  0  0  0  0  0
   39.6850   23.5020   34.9650 H   0  0  0  0  0  0  0  0  0  0  0  0
   39.8580   22.6020   36.8790 C   0  0  0  0  0  3  0  0  0  0  0  0
   39.2780   21.7310   36.5170 H   0  0  0  0  0  0  0  0  0  0  0  0
   39.5520   22.8100   38.2030 O   0  0  0  0  0  0  0  0  0  0  0  0
   38.2370   23.2260   38.4090 C   0  0  0  0  0  3  0  0  0  0  0  0
   37.5150   22.6110   37.8060 H   0  0  0  0  0  0  0  0  0  0  0  0
   38.1400   24.6270   37.7990 C   0  0  0  0  0  3  0  0  0  0  0  0
   37.1740   25.0840   38.0180 H   0  0  0  0  0  0  0  0  0  0  0  0
   38.1140   27.4580   31.5530 C   0  0  0  0  0  0  0  0  0  0  0  0
   37.3220   27.6250   32.7070 C   0  0  0  0  0  0  0  0  0  0  0  0
   36.1730   28.4030   32.5730 C   0  0  0  0  0  0  0  0  0  0  0  0
   35.8850   28.9520   31.3520 N   0  0  0  0  0  0  0  0  0  0  0  0
   36.6730   28.7640   30.2760 C   0  0  0  0  0  0  0  0  0  0  0  0
   37.7960   28.0110   30.3790 N   0  0  0  0  0  0  0  0  0  0  0  0
   38.9920   26.8380   31.7350 H   0  0  0  0  0  0  0  0  0  0  0  0
   35.5070   28.5790   33.4270 H   0  0  0  0  0  0  0  0  0  0  0  0
   36.4450   29.1950   29.3220 H   0  0  0  0  0  0  0  0  0  0  0  0
  1  5  2  0  0  0  0
  1  2  1  0  0  0  0
  2  6  1  0  0  0  0
  2  3  2  0  0  0  0
  3  7  1  0  0  0  0
  4  3  1  0  0  0  0
  4  8  1  0  0  0  0
  5  4  1  0  0  0  0
  8 16  1  0  0  0  0
  9  8  1  0  0  0  0
  9 11  1  0  0  0  0
 10  9  1  0  0  0  0
 11 13  1  0  0  0  0
 12 11  1  0  0  0  0
 13 14  1  0  0  0  0
 15 14  1  0  0  0  0
 16 17  1  0  0  0  0
 16 14  1  0  0  0  0
 18 24  1  0  0  0  0
 18 19  1  0  0  0  0
 19  1  1  0  0  0  0
 20 19  2  0  0  0  0
 20 25  1  0  0  0  0
 21 20  1  0  0  0  0
 22 23  1  0  0  0  0
 22 21  2  0  0  0  0
 23 18  2  0  0  0  0
 26 22  1  0  0  0  0
M  END
>  <minimizedAffinity>
-4.73406124

$$$$

 OpenBabel03272500453D

 26 28  0  0  0  0  0  0  0  0999 V2000
   38.3700   25.7420   35.4740 C   0  0  0  0  0  0  0  0  0  0  0  0
   38.3520   26.9940   36.0660 C   0  0  0  0  0  0  0  0  0  0  0  0
   37.6610   27.8690   35.2430 C   0  0  0  0  0  0  0  0  0  0  0  0
   37.2730   27.1390   34.1720 N   0  0  0  0  0  0  0  0  0  0  0  0
   37.7090   25.9050   34.3510 N   0  0  0  0  0  0  0  0  0  0  0  0
   38.7910   27.3090   37.0230 H   0  0  0  0  0  0  0  0  0  0  0  0
   37.4580   28.9110   35.3910 H   0  0  0  0  0  0  0  0  0  0  0  0
   36.5230   27.5450   33.0040 C   0  0  0  0  0  3  0  0  0  0  0  0
   35.8500   28.8740   33.2160 C   0  0  0  0  0  3  0  0  0  0  0  0
   35.0070   28.7300   33.9240 H   0  0  0  0  0  0  0  0  0  0  0  0
   35.2530   29.3470   31.9100 C   0  0  0  0  0  3  0  0  0  0  0  0
   34.3490   28.7730   31.6280 H   0  0  0  0  0  0  0  0  0  0  0  0
   36.1450   29.2950   30.8640 O   0  0  0  0  0  0  0  0  0  0  0  0
   36.6630   28.0200   30.6400 C   0  0  0  0  0  3  0  0  0  0  0  0
   35.8540   27.2400   30.6630 H   0  0  0  0  0  0  0  0  0  0  0  0
   37.5290   27.6990   31.8610 C   0  0  0  0  0  3  0  0  0  0  0  0
   38.0740   26.7630   31.7200 H   0  0  0  0  0  0  0  0  0  0  0  0
   40.1560   23.9850   35.5260 C   0  0  0  0  0  0  0  0  0  0  0  0
   39.0060   24.5950   36.0640 C   0  0  0  0  0  0  0  0  0  0  0  0
   38.4840   24.0350   37.2290 C   0  0  0  0  0  0  0  0  0  0  0  0
   39.1070   22.9430   37.7730 N   0  0  0  0  0  0  0  0  0  0  0  0
   40.2060   22.3930   37.2220 C   0  0  0  0  0  0  0  0  0  0  0  0
   40.7340   22.9200   36.0890 N   0  0  0  0  0  0  0  0  0  0  0  0
   40.5060   24.4790   34.6180 H   0  0  0  0  0  0  0  0  0  0  0  0
   37.5910   24.4540   37.7070 H   0  0  0  0  0  0  0  0  0  0  0  0
   40.6900   21.5390   37.6500 H   0  0  0  0  0  0  0  0  0  0  0  0
  1 19  1  0  0  0  0
  1  2  1  0  0  0  0
  2  6  1  0  0  0  0
  3  7  1  0  0  0  0
  3  2  2  0  0  0  0
  4  5  1  0  0  0  0
  4  3  1  0  0  0  0
  5  1  2  0  0  0  0
  8  9  1  0  0  0  0
  8  4  1  0  0  0  0
  9 10  1  0  0  0  0
 11  9  1  0  0  0  0
 12 11  1  0  0  0  0
 13 11  1  0  0  0  0
 14 15  1  0  0  0  0
 14 13  1  0  0  0  0
 14 16  1  0  0  0  0
 16  8  1  0  0  0  0
 17 16  1  0  0  0  0
 18 19  2  0  0  0  0
 18 23  1  0  0  0  0
 19 20  1  0  0  0  0
 20 25  1  0  0  0  0
 20 21  2  0  0  0  0
 22 26  1  0  0  0  0
 22 21  1  0  0  0  0
 23 22  2  0  0  0  0
 24 18  1  0  0  0  0
M  END
>  <minimizedAffinity>
-4.63478994

$$$$

 OpenBabel03272500453D

 26 28  0  0  0  0  0  0  0  0999 V2000
   36.3340   23.5370   31.8890 C   0  0  0  0  0  0  0  0  0  0  0  0
   35.6350   24.5010   31.1810 C   0  0  0  0  0  0  0  0  0  0  0  0
   36.0500   25.7540   31.6020 C   0  0  0  0  0  0  0  0  0  0  0  0
   36.9880   25.5330   32.5520 N   0  0  0  0  0  0  0  0  0  0  0  0
   37.1200   24.2260   32.6850 N   0  0  0  0  0  0  0  0  0  0  0  0
   34.8690   24.3640   30.4050 H   0  0  0  0  0  0  0  0  0  0  0  0
   35.7200   26.7170   31.2680 H   0  0  0  0  0  0  0  0  0  0  0  0
   37.7540   26.4820   33.3290 C   0  0  0  0  0  3  0  0  0  0  0  0
   37.1810   26.6530   34.7100 C   0  0  0  0  0  3  0  0  0  0  0  0
   36.2300   27.2210   34.6260 H   0  0  0  0  0  0  0  0  0  0  0  0
   38.1250   27.4910   35.5430 C   0  0  0  0  0  3  0  0  0  0  0  0
   38.1090   28.5580   35.2500 H   0  0  0  0  0  0  0  0  0  0  0  0
   39.4250   27.0440   35.4920 O   0  0  0  0  0  0  0  0  0  0  0  0
   39.9460   27.0030   34.1990 C   0  0  0  0  0  3  0  0  0  0  0  0
   39.7040   27.9410   33.6310 H   0  0  0  0  0  0  0  0  0  0  0  0
   39.1660   25.9070   33.4680 C   0  0  0  0  0  3  0  0  0  0  0  0
   39.5870   25.7200   32.4780 H   0  0  0  0  0  0  0  0  0  0  0  0
   36.9970   21.3310   30.9010 C   0  0  0  0  0  0  0  0  0  0  0  0
   36.1480   22.1240   31.7000 C   0  0  0  0  0  0  0  0  0  0  0  0
   35.0850   21.4740   32.3230 C   0  0  0  0  0  0  0  0  0  0  0  0
   34.9270   20.1270   32.1280 N   0  0  0  0  0  0  0  0  0  0  0  0
   35.7650   19.4100   31.3550 C   0  0  0  0  0  0  0  0  0  0  0  0
   36.8080   20.0180   30.7370 N   0  0  0  0  0  0  0  0  0  0  0  0
   37.8050   21.9080   30.4480 H   0  0  0  0  0  0  0  0  0  0  0  0
   34.3810   22.0240   32.9600 H   0  0  0  0  0  0  0  0  0  0  0  0
   35.6390   18.3570   31.2050 H   0  0  0  0  0  0  0  0  0  0  0  0
  1  5  2  0  0  0  0
  2  3  2  0  0  0  0
  2  1  1  0  0  0  0
  3  4  1  0  0  0  0
  4  5  1  0  0  0  0
  4  8  1  0  0  0  0
  6  2  1  0  0  0  0
  7  3  1  0  0  0  0
  8 16  1  0  0  0  0
  8  9  1  0  0  0  0
  9 11  1  0  0  0  0
 10  9  1  0  0  0  0
 12 11  1  0  0  0  0
 13 11  1  0  0  0  0
 14 13  1  0  0  0  0
 15 14  1  0  0  0  0
 16 14  1  0  0  0  0
 17 16  1  0  0  0  0
 18 19  1  0  0  0  0
 19  1  1  0  0  0  0
 19 20  2  0  0  0  0
 20 25  1  0  0  0  0
 21 20  1  0  0  0  0
 22 21  2  0  0  0  0
 23 18  2  0  0  0  0
 23 22  1  0  0  0  0
 24 18  1  0  0  0  0
 26 22  1  0  0  0  0
M  END
>  <minimizedAffinity>
-4.61935663

$$$$

 OpenBabel03272500453D

 26 28  0  0  0  0  0  0  0  0999 V2000
   37.4480   26.3570   33.7810 C   0  0  0  0  0  0  0  0  0  0  0  0
   38.0250   25.4900   32.8660 C   0  0  0  0  0  0  0  0  0  0  0  0
   38.4590   24.3570   33.5350 C   0  0  0  0  0  0  0  0  0  0  0  0
   38.1400   24.5510   34.8360 N   0  0  0  0  0  0  0  0  0  0  0  0
   37.5530   25.7300   34.9310 N   0  0  0  0  0  0  0  0  0  0  0  0
   38.1500   25.6180   31.7820 H   0  0  0  0  0  0  0  0  0  0  0  0
   38.9480   23.4900   33.1380 H   0  0  0  0  0  0  0  0  0  0  0  0
   38.3620   23.6910   35.9770 C   0  0  0  0  0  3  0  0  0  0  0  0
   39.8280   23.4250   36.1900 C   0  0  0  0  0  3  0  0  0  0  0  0
   40.1800   22.7450   35.3860 H   0  0  0  0  0  0  0  0  0  0  0  0
   40.0180   22.6960   37.5010 C   0  0  0  0  0  3  0  0  0  0  0  0
   39.6890   21.6410   37.4470 H   0  0  0  0  0  0  0  0  0  0  0  0
   39.3680   23.3020   38.5510 O   0  0  0  0  0  0  0  0  0  0  0  0
   37.9930   23.4320   38.3500 C   0  0  0  0  0  3  0  0  0  0  0  0
   37.5470   22.4810   37.9500 H   0  0  0  0  0  0  0  0  0  0  0  0
   37.8300   24.4350   37.2050 C   0  0  0  0  0  3  0  0  0  0  0  0
   36.7800   24.6910   37.0550 H   0  0  0  0  0  0  0  0  0  0  0  0
   36.1820   28.4500   34.3240 C   0  0  0  0  0  0  0  0  0  0  0  0
   36.8910   27.6330   33.4210 C   0  0  0  0  0  0  0  0  0  0  0  0
   37.0430   28.1150   32.1220 C   0  0  0  0  0  0  0  0  0  0  0  0
   36.5030   29.3330   31.8030 N   0  0  0  0  0  0  0  0  0  0  0  0
   35.8330   30.0800   32.7010 C   0  0  0  0  0  0  0  0  0  0  0  0
   35.6710   29.6330   33.9720 N   0  0  0  0  0  0  0  0  0  0  0  0
   36.1050   28.0070   35.3180 H   0  0  0  0  0  0  0  0  0  0  0  0
   37.5820   27.5360   31.3640 H   0  0  0  0  0  0  0  0  0  0  0  0
   35.4120   31.0320   32.4470 H   0  0  0  0  0  0  0  0  0  0  0  0
  1  5  2  0  0  0  0
  2  3  2  0  0  0  0
  2  1  1  0  0  0  0
  3  4  1  0  0  0  0
  4  5  1  0  0  0  0
  4  8  1  0  0  0  0
  6  2  1  0  0  0  0
  7  3  1  0  0  0  0
  8  9  1  0  0  0  0
  8 16  1  0  0  0  0
  9 11  1  0  0  0  0
 10  9  1  0  0  0  0
 11 13  1  0  0  0  0
 12 11  1  0  0  0  0
 14 13  1  0  0  0  0
 15 14  1  0  0  0  0
 16 14  1  0  0  0  0
 17 16  1  0  0  0  0
 18 24  1  0  0  0  0
 19  1  1  0  0  0  0
 19 18  2  0  0  0  0
 20 19  1  0  0  0  0
 21 20  2  0  0  0  0
 21 22  1  0  0  0  0
 22 23  2  0  0  0  0
 23 18  1  0  0  0  0
 25 20  1  0  0  0  0
 26 22  1  0  0  0  0
M  END
>  <minimizedAffinity>
-4.59843636

$$$$

 OpenBabel03272500453D

 26 28  0  0  0  0  0  0  0  0999 V2000
   37.6780   26.9960   33.8190 C   0  0  0  0  0  0  0  0  0  0  0  0
   39.0500   26.9960   33.6280 C   0  0  0  0  0  0  0  0  0  0  0  0
   39.6040   25.9560   34.3570 C   0  0  0  0  0  0  0  0  0  0  0  0
   38.5660   25.3450   34.9750 N   0  0  0  0  0  0  0  0  0  0  0  0
   37.4640   25.9860   34.6310 N   0  0  0  0  0  0  0  0  0  0  0  0
   39.6600   27.6760   33.0160 H   0  0  0  0  0  0  0  0  0  0  0  0
   40.6330   25.6670   34.4380 H   0  0  0  0  0  0  0  0  0  0  0  0
   38.5660   24.2030   35.8620 C   0  0  0  0  0  3  0  0  0  0  0  0
   39.9530   23.6450   36.0430 C   0  0  0  0  0  3  0  0  0  0  0  0
   40.2500   23.1360   35.1020 H   0  0  0  0  0  0  0  0  0  0  0  0
   39.9300   22.5920   37.1270 C   0  0  0  0  0  3  0  0  0  0  0  0
   39.4430   21.6550   36.7940 H   0  0  0  0  0  0  0  0  0  0  0  0
   39.3100   23.0200   38.2780 O   0  0  0  0  0  0  0  0  0  0  0  0
   37.9910   23.4290   38.0770 C   0  0  0  0  0  3  0  0  0  0  0  0
   37.4310   22.6980   37.4330 H   0  0  0  0  0  0  0  0  0  0  0  0
   38.0720   24.6980   37.2240 C   0  0  0  0  0  3  0  0  0  0  0  0
   37.0890   25.1590   37.1140 H   0  0  0  0  0  0  0  0  0  0  0  0
   36.7120   28.1420   31.8110 C   0  0  0  0  0  0  0  0  0  0  0  0
   36.7930   27.9470   33.2040 C   0  0  0  0  0  0  0  0  0  0  0  0
   35.9570   28.7320   33.9970 C   0  0  0  0  0  0  0  0  0  0  0  0
   35.1220   29.6310   33.3890 N   0  0  0  0  0  0  0  0  0  0  0  0
   35.0800   29.7830   32.0520 C   0  0  0  0  0  0  0  0  0  0  0  0
   35.8820   29.0310   31.2570 N   0  0  0  0  0  0  0  0  0  0  0  0
   37.3930   27.4940   31.2570 H   0  0  0  0  0  0  0  0  0  0  0  0
   35.9630   28.6370   35.0900 H   0  0  0  0  0  0  0  0  0  0  0  0
   34.4260   30.4870   31.5800 H   0  0  0  0  0  0  0  0  0  0  0  0
  1  5  2  0  0  0  0
  2  1  1  0  0  0  0
  2  3  2  0  0  0  0
  3  7  1  0  0  0  0
  3  4  1  0  0  0  0
  4  8  1  0  0  0  0
  5  4  1  0  0  0  0
  6  2  1  0  0  0  0
  8  9  1  0  0  0  0
  8 16  1  0  0  0  0
  9 11  1  0  0  0  0
 10  9  1  0  0  0  0
 11 13  1  0  0  0  0
 12 11  1  0  0  0  0
 14 13  1  0  0  0  0
 15 14  1  0  0  0  0
 16 14  1  0  0  0  0
 17 16  1  0  0  0  0
 18 19  1  0  0  0  0
 19  1  1  0  0  0  0
 19 20  2  0  0  0  0
 20 25  1  0  0  0  0
 21 20  1  0  0  0  0
 22 21  2  0  0  0  0
 23 18  2  0  0  0  0
 23 22  1  0  0  0  0
 24 18  1  0  0  0  0
 26 22  1  0  0  0  0
M  END
>  <minimizedAffinity>
-4.53715944

$$$$

 OpenBabel03272500453D

 26 28  0  0  0  0  0  0  0  0999 V2000
   37.1740   24.6440   32.5460 C   0  0  0  0  0  0  0  0  0  0  0  0
   36.2160   25.2380   31.7410 C   0  0  0  0  0  0  0  0  0  0  0  0
   35.4850   24.2460   31.1070 C   0  0  0  0  0  0  0  0  0  0  0  0
   36.0070   23.0730   31.5350 N   0  0  0  0  0  0  0  0  0  0  0  0
   36.9890   23.3550   32.3710 N   0  0  0  0  0  0  0  0  0  0  0  0
   36.0160   26.3080   31.5860 H   0  0  0  0  0  0  0  0  0  0  0  0
   34.6710   24.3490   30.4180 H   0  0  0  0  0  0  0  0  0  0  0  0
   35.6300   21.7190   31.1950 C   0  0  0  0  0  3  0  0  0  0  0  0
   36.8220   20.9040   30.7700 C   0  0  0  0  0  3  0  0  0  0  0  0
   37.1440   21.2540   29.7670 H   0  0  0  0  0  0  0  0  0  0  0  0
   36.4120   19.4570   30.6240 C   0  0  0  0  0  3  0  0  0  0  0  0
   35.7930   19.2840   29.7220 H   0  0  0  0  0  0  0  0  0  0  0  0
   35.7290   18.9800   31.7180 O   0  0  0  0  0  0  0  0  0  0  0  0
   34.5740   19.7050   32.0100 C   0  0  0  0  0  3  0  0  0  0  0  0
   33.9750   19.9100   31.0810 H   0  0  0  0  0  0  0  0  0  0  0  0
   35.0500   21.0870   32.4640 C   0  0  0  0  0  3  0  0  0  0  0  0
   34.2160   21.6900   32.8280 H   0  0  0  0  0  0  0  0  0  0  0  0
   38.8840   26.4510   32.8480 C   0  0  0  0  0  0  0  0  0  0  0  0
   38.1070   25.3870   33.3490 C   0  0  0  0  0  0  0  0  0  0  0  0
   38.2750   25.0650   34.6940 C   0  0  0  0  0  0  0  0  0  0  0  0
   39.1700   25.7870   35.4390 N   0  0  0  0  0  0  0  0  0  0  0  0
   39.8910   26.7960   34.9170 C   0  0  0  0  0  0  0  0  0  0  0  0
   39.7460   27.1300   33.6100 N   0  0  0  0  0  0  0  0  0  0  0  0
   38.6970   26.6440   31.7910 H   0  0  0  0  0  0  0  0  0  0  0  0
   37.7060   24.2490   35.1550 H   0  0  0  0  0  0  0  0  0  0  0  0
   40.5900   27.3580   35.5030 H   0  0  0  0  0  0  0  0  0  0  0  0
  1 19  1  0  0  0  0
  2  1  1  0  0  0  0
  3  4  1  0  0  0  0
  3  2  2  0  0  0  0
  4  5  1  0  0  0  0
  5  1  2  0  0  0  0
  6  2  1  0  0  0  0
  7  3  1  0  0  0  0
  8  4  1  0  0  0  0
  8 16  1  0  0  0  0
  9  8  1  0  0  0  0
 10  9  1  0  0  0  0
 11  9  1  0  0  0  0
 11 13  1  0  0  0  0
 12 11  1  0  0  0  0
 13 14  1  0  0  0  0
 14 16  1  0  0  0  0
 15 14  1  0  0  0  0
 16 17  1  0  0  0  0
 18 19  2  0  0  0  0
 18 23  1  0  0  0  0
 19 20  1  0  0  0  0
 20 25  1  0  0  0  0
 20 21  2  0  0  0  0
 22 21  1  0  0  0  0
 22 26  1  0  0  0  0
 23 22  2  0  0  0  0
 24 18  1  0  0  0  0
M  END
>  <minimizedAffinity>
-4.42582512

$$$$

 OpenBabel03272500453D

 26 28  0  0  0  0  0  0  0  0999 V2000
   38.1750   25.0300   34.6930 C   0  0  0  0  0  0  0  0  0  0  0  0
   38.6470   24.6390   33.4500 C   0  0  0  0  0  0  0  0  0  0  0  0
   38.1140   25.4780   32.4840 C   0  0  0  0  0  0  0  0  0  0  0  0
   37.3330   26.3590   33.1520 N   0  0  0  0  0  0  0  0  0  0  0  0
   37.4000   26.0590   34.4350 N   0  0  0  0  0  0  0  0  0  0  0  0
   39.3290   23.8140   33.2010 H   0  0  0  0  0  0  0  0  0  0  0  0
   38.2670   25.4620   31.4240 H   0  0  0  0  0  0  0  0  0  0  0  0
   36.5380   27.4540   32.6420 C   0  0  0  0  0  3  0  0  0  0  0  0
   36.2090   28.4480   33.7240 C   0  0  0  0  0  3  0  0  0  0  0  0
   35.4610   27.9890   34.4040 H   0  0  0  0  0  0  0  0  0  0  0  0
   35.5580   29.6640   33.1060 C   0  0  0  0  0  3  0  0  0  0  0  0
   34.5200   29.4640   32.7770 H   0  0  0  0  0  0  0  0  0  0  0  0
   36.2650   30.1650   32.0370 O   0  0  0  0  0  0  0  0  0  0  0  0
   36.4530   29.2360   31.0130 C   0  0  0  0  0  3  0  0  0  0  0  0
   35.5030   28.6810   30.7850 H   0  0  0  0  0  0  0  0  0  0  0  0
   37.3870   28.1660   31.5850 C   0  0  0  0  0  3  0  0  0  0  0  0
   37.6880   27.4550   30.8140 H   0  0  0  0  0  0  0  0  0  0  0  0
   39.6400   23.5070   36.0400 C   0  0  0  0  0  0  0  0  0  0  0  0
   38.5330   24.3710   35.9190 C   0  0  0  0  0  0  0  0  0  0  0  0
   37.7670   24.5750   37.0660 C   0  0  0  0  0  0  0  0  0  0  0  0
   38.1270   23.9360   38.2230 N   0  0  0  0  0  0  0  0  0  0  0  0
   39.1950   23.1190   38.2900 C   0  0  0  0  0  0  0  0  0  0  0  0
   39.9570   22.9030   37.1890 N   0  0  0  0  0  0  0  0  0  0  0  0
   40.1900   23.3980   35.1040 H   0  0  0  0  0  0  0  0  0  0  0  0
   36.8910   25.2330   37.0500 H   0  0  0  0  0  0  0  0  0  0  0  0
   39.4730   22.6210   39.1970 H   0  0  0  0  0  0  0  0  0  0  0  0
  1 19  1  0  0  0  0
  2  1  1  0  0  0  0
  3  4  1  0  0  0  0
  3  2  2  0  0  0  0
  4  5  1  0  0  0  0
  5  1  2  0  0  0  0
  6  2  1  0  0  0  0
  7  3  1  0  0  0  0
  8  4  1  0  0  0  0
  8  9  1  0  0  0  0
  9 10  1  0  0  0  0
 11  9  1  0  0  0  0
 12 11  1  0  0  0  0
 13 11  1  0  0  0  0
 14 16  1  0  0  0  0
 14 13  1  0  0  0  0
 15 14  1  0  0  0  0
 16  8  1  0  0  0  0
 17 16  1  0  0  0  0
 18 23  1  0  0  0  0
 19 18  2  0  0  0  0
 19 20  1  0  0  0  0
 20 21  2  0  0  0  0
 21 22  1  0  0  0  0
 22 26  1  0  0  0  0
 23 22  2  0  0  0  0
 24 18  1  0  0  0  0
 25 20  1  0  0  0  0
M  END
>  <minimizedAffinity>
-4.42031622

$$$$

 OpenBabel03272500453D

 26 28  0  0  0  0  0  0  0  0999 V2000
   36.5940   27.8860   33.7660 C   0  0  0  0  0  0  0  0  0  0  0  0
   36.4440   28.4520   32.5100 C   0  0  0  0  0  0  0  0  0  0  0  0
   35.8400   29.6910   32.6460 C   0  0  0  0  0  0  0  0  0  0  0  0
   35.6340   29.8580   33.9730 N   0  0  0  0  0  0  0  0  0  0  0  0
   36.0890   28.7800   34.5860 N   0  0  0  0  0  0  0  0  0  0  0  0
   36.7330   28.0410   31.5320 H   0  0  0  0  0  0  0  0  0  0  0  0
   35.5770   30.3960   31.8830 H   0  0  0  0  0  0  0  0  0  0  0  0
   35.0360   30.9690   34.6790 C   0  0  0  0  0  3  0  0  0  0  0  0
   33.7250   30.5800   35.3090 C   0  0  0  0  0  3  0  0  0  0  0  0
   32.9720   30.4600   34.5020 H   0  0  0  0  0  0  0  0  0  0  0  0
   33.2450   31.7050   36.1980 C   0  0  0  0  0  3  0  0  0  0  0  0
   32.8720   32.5710   35.6170 H   0  0  0  0  0  0  0  0  0  0  0  0
   34.2110   32.1490   37.0700 O   0  0  0  0  0  0  0  0  0  0  0  0
   35.3690   32.5970   36.4330 C   0  0  0  0  0  3  0  0  0  0  0  0
   35.1230   33.2580   35.5580 H   0  0  0  0  0  0  0  0  0  0  0  0
   36.0050   31.3560   35.8000 C   0  0  0  0  0  3  0  0  0  0  0  0
   36.9840   31.5900   35.3770 H   0  0  0  0  0  0  0  0  0  0  0  0
   37.6450   26.1610   35.2490 C   0  0  0  0  0  0  0  0  0  0  0  0
   37.1880   26.5960   33.9890 C   0  0  0  0  0  0  0  0  0  0  0  0
   37.3340   25.7060   32.9260 C   0  0  0  0  0  0  0  0  0  0  0  0
   37.9030   24.4830   33.1620 N   0  0  0  0  0  0  0  0  0  0  0  0
   38.3250   24.1110   34.3850 C   0  0  0  0  0  0  0  0  0  0  0  0
   38.1940   24.9580   35.4370 N   0  0  0  0  0  0  0  0  0  0  0  0
   37.4970   26.9090   36.0290 H   0  0  0  0  0  0  0  0  0  0  0  0
   37.0030   25.9740   31.9160 H   0  0  0  0  0  0  0  0  0  0  0  0
   38.7700   23.1530   34.5660 H   0  0  0  0  0  0  0  0  0  0  0  0
  1 19  1  0  0  0  0
  1  5  2  0  0  0  0
  2  3  2  0  0  0  0
  2  1  1  0  0  0  0
  3  4  1  0  0  0  0
  4  5  1  0  0  0  0
  4  8  1  0  0  0  0
  6  2  1  0  0  0  0
  7  3  1  0  0  0  0
  8  9  1  0  0  0  0
  8 16  1  0  0  0  0
  9 11  1  0  0  0  0
 10  9  1  0  0  0  0
 11 13  1  0  0  0  0
 12 11  1  0  0  0  0
 14 13  1  0  0  0  0
 15 14  1  0  0  0  0
 16 14  1  0  0  0  0
 17 16  1  0  0  0  0
 18 23  1  0  0  0  0
 18 24  1  0  0  0  0
 19 18  2  0  0  0  0
 20 21  2  0  0  0  0
 20 19  1  0  0  0  0
 21 22  1  0  0  0  0
 22 26  1  0  0  0  0
 22 23  2  0  0  0  0
 25 20  1  0  0  0  0
M  END
>  <minimizedAffinity>
-4.40919352

$$$$

 OpenBabel03272500453D

 26 28  0  0  0  0  0  0  0  0999 V2000
   35.5220   29.8450   33.8850 C   0  0  0  0  0  0  0  0  0  0  0  0
   35.7440   30.3900   32.6310 C   0  0  0  0  0  0  0  0  0  0  0  0
   36.3110   29.4230   31.8160 C   0  0  0  0  0  0  0  0  0  0  0  0
   36.4220   28.3130   32.5830 N   0  0  0  0  0  0  0  0  0  0  0  0
   35.9500   28.6080   33.7810 N   0  0  0  0  0  0  0  0  0  0  0  0
   35.5320   31.4090   32.2760 H   0  0  0  0  0  0  0  0  0  0  0  0
   36.6100   29.5020   30.7900 H   0  0  0  0  0  0  0  0  0  0  0  0
   36.9460   27.0090   32.2440 C   0  0  0  0  0  3  0  0  0  0  0  0
   37.2360   26.1940   33.4770 C   0  0  0  0  0  3  0  0  0  0  0  0
   38.1330   26.6200   33.9730 H   0  0  0  0  0  0  0  0  0  0  0  0
   37.5840   24.7800   33.0710 C   0  0  0  0  0  3  0  0  0  0  0  0
   38.5900   24.7090   32.6130 H   0  0  0  0  0  0  0  0  0  0  0  0
   36.6710   24.2320   32.2000 O   0  0  0  0  0  0  0  0  0  0  0  0
   36.5130   24.9690   31.0260 C   0  0  0  0  0  3  0  0  0  0  0  0
   37.5070   25.2760   30.6010 H   0  0  0  0  0  0  0  0  0  0  0  0
   35.8580   26.2880   31.4430 C   0  0  0  0  0  3  0  0  0  0  0  0
   35.5870   26.8840   30.5700 H   0  0  0  0  0  0  0  0  0  0  0  0
   33.5690   30.5460   35.2900 C   0  0  0  0  0  0  0  0  0  0  0  0
   34.9430   30.5800   34.9770 C   0  0  0  0  0  0  0  0  0  0  0  0
   35.7520   31.3740   35.7870 C   0  0  0  0  0  0  0  0  0  0  0  0
   35.1780   32.0650   36.8210 N   0  0  0  0  0  0  0  0  0  0  0  0
   33.8590   32.0010   37.0820 C   0  0  0  0  0  0  0  0  0  0  0  0
   33.0480   31.2350   36.3100 N   0  0  0  0  0  0  0  0  0  0  0  0
   33.0010   29.9040   34.6160 H   0  0  0  0  0  0  0  0  0  0  0  0
   36.8310   31.4520   35.6050 H   0  0  0  0  0  0  0  0  0  0  0  0
   33.4130   32.5430   37.8920 H   0  0  0  0  0  0  0  0  0  0  0  0
  1 19  1  0  0  0  0
  2  1  1  0  0  0  0
  3  4  1  0  0  0  0
  3  2  2  0  0  0  0
  4  5  1  0  0  0  0
  5  1  2  0  0  0  0
  6  2  1  0  0  0  0
  7  3  1  0  0  0  0
  8  4  1  0  0  0  0
  8  9  1  0  0  0  0
  9 10  1  0  0  0  0
 11  9  1  0  0  0  0
 12 11  1  0  0  0  0
 13 11  1  0  0  0  0
 14 16  1  0  0  0  0
 14 13  1  0  0  0  0
 15 14  1  0  0  0  0
 16  8  1  0  0  0  0
 17 16  1  0  0  0  0
 18 23  1  0  0  0  0
 19 18  2  0  0  0  0
 19 20  1  0  0  0  0
 20 21  2  0  0  0  0
 21 22  1  0  0  0  0
 22 26  1  0  0  0  0
 23 22  2  0  0  0  0
 24 18  1  0  0  0  0
 25 20  1  0  0  0  0
M  END
>  <minimizedAffinity>
-4.37538671

$$$$
