
 OpenBabel03272507133D

 41 45  0  0  0  0  0  0  0  0999 V2000
   35.8180   29.0850   49.8840 C   0  0  0  0  0  0  0  0  0  0  0  0
   34.7830   29.6270   50.5630 C   0  0  0  0  0  0  0  0  0  0  0  0
   33.6180   29.0640   50.0350 C   0  0  0  0  0  0  0  0  0  0  0  0
   34.0460   28.1840   49.0310 C   0  0  0  0  0  0  0  0  0  0  0  0
   35.3410   28.2480   49.0000 O   0  0  0  0  0  0  0  0  0  0  0  0
   34.7840   30.3680   51.3780 H   0  0  0  0  0  0  0  0  0  0  0  0
   32.6190   29.3270   50.4060 H   0  0  0  0  0  0  0  0  0  0  0  0
   33.5220   26.4320   47.3380 C   0  0  0  0  0  0  0  0  0  0  0  0
   33.1000   27.3990   48.2440 C   0  0  0  0  0  0  0  0  0  0  0  0
   31.7560   27.6600   48.4420 C   0  0  0  0  0  0  0  0  0  0  0  0
   30.8440   26.9350   47.7180 C   0  0  0  0  0  0  0  0  0  0  0  0
   29.4990   26.9660   47.7030 N   0  0  0  0  0  0  0  0  0  0  0  0
   29.0890   26.0560   46.8240 N   0  0  0  0  0  0  0  0  0  0  0  0
   30.1460   25.4470   46.2800 C   0  0  0  0  0  0  0  0  0  0  0  0
   31.3140   25.9790   46.8240 C   0  0  0  0  0  0  0  0  0  0  0  0
   32.6450   25.7040   46.6110 C   0  0  0  0  0  0  0  0  0  0  0  0
   34.5950   26.2980   47.2510 H   0  0  0  0  0  0  0  0  0  0  0  0
   31.3590   28.4010   49.1330 H   0  0  0  0  0  0  0  0  0  0  0  0
   28.8500   27.5720   48.2570 H   0  0  0  0  0  0  0  0  0  0  0  0
   30.1690   24.6470   45.5210 H   0  0  0  0  0  0  0  0  0  0  0  0
   32.9430   24.9590   45.9140 H   0  0  0  0  0  0  0  0  0  0  0  0
   37.2040   29.4450   50.1680 C   0  0  0  0  0  0  0  0  0  0  0  0
   37.8330   28.7990   51.0420 O   0  0  0  0  0  0  0  0  0  0  0  0
   37.7770   30.5350   49.4180 C   0  0  0  0  0  0  0  0  0  0  0  0
   38.0500   31.7050   50.0950 C   0  0  0  0  0  0  0  0  0  0  0  0
   38.6010   32.7790   49.4100 C   0  0  0  0  0  0  0  0  0  0  0  0
   38.8430   32.6090   48.0880 N   0  0  0  0  0  0  0  0  0  0  0  0
   38.5760   31.4780   47.4400 C   0  0  0  0  0  0  0  0  0  0  0  0
   38.0460   30.4550   48.1110 N   0  0  0  0  0  0  0  0  0  0  0  0
   37.8660   31.8720   51.1670 H   0  0  0  0  0  0  0  0  0  0  0  0
   38.8240   33.6940   49.9070 H   0  0  0  0  0  0  0  0  0  0  0  0
   38.8360   31.2790   45.9860 C   0  0  0  0  0  3  0  0  0  0  0  0
   38.2240   32.3640   45.1340 C   0  0  0  0  0  3  0  0  0  0  0  0
   38.7750   33.3360   45.2520 H   0  0  0  0  0  0  0  0  0  0  0  0
   38.2820   31.8560   43.7080 C   0  0  0  0  0  3  0  0  0  0  0  0
   37.9710   32.6280   42.9780 H   0  0  0  0  0  0  0  0  0  0  0  0
   39.4780   31.2580   43.4100 O   0  0  0  0  0  0  0  0  0  0  0  0
   40.5350   31.6300   44.2320 C   0  0  0  0  0  3  0  0  0  0  0  0
   41.4330   31.0880   43.8690 H   0  0  0  0  0  0  0  0  0  0  0  0
   40.3130   31.2380   45.6680 C   0  0  0  0  0  3  0  0  0  0  0  0
   40.8900   31.9590   46.3000 H   0  0  0  0  0  0  0  0  0  0  0  0
  1 22  1  0  0  0  0
  1  2  2  0  0  0  0
  2  6  1  0  0  0  0
  3  7  1  0  0  0  0
  3  2  1  0  0  0  0
  4  3  2  0  0  0  0
  5  4  1  0  0  0  0
  5  1  1  0  0  0  0
  8  9  1  0  0  0  0
  9 10  2  0  0  0  0
  9  4  1  0  0  0  0
 10 18  1  0  0  0  0
 11 10  1  0  0  0  0
 12 11  1  0  0  0  0
 12 19  1  0  0  0  0
 13 12  1  0  0  0  0
 14 15  1  0  0  0  0
 14 13  2  0  0  0  0
 15 11  2  0  0  0  0
 16 15  1  0  0  0  0
 16  8  2  0  0  0  0
 17  8  1  0  0  0  0
 20 14  1  0  0  0  0
 21 16  1  0  0  0  0
 22 23  2  0  0  0  0
 24 25  1  0  0  0  0
 24 22  1  0  0  0  0
 25 30  1  0  0  0  0
 26 31  1  0  0  0  0
 26 25  2  0  0  0  0
 27 26  1  0  0  0  0
 28 27  2  0  0  0  0
 28 29  1  0  0  0  0
 29 24  2  0  0  0  0
 32 28  1  0  0  0  0
 33 34  1  0  0  0  0
 33 32  1  0  0  0  0
 35 33  1  0  0  0  0
 36 35  1  0  0  0  0
 37 35  1  0  0  0  0
 37 38  1  0  0  0  0
 38 40  1  0  0  0  0
 39 38  1  0  0  0  0
 40 32  1  0  0  0  0
 40 41  1  0  0  0  0
M  END
>  <minimizedAffinity>
-7.21190405

>  <minimizedRMSD>
0.488086224

$$$$
