
 OpenBabel03262523033D

 27 29  0  0  0  0  0  0  0  0999 V2000
   35.9400   30.2250   48.5840 C   0  0  0  0  0  0  0  0  0  0  0  0
   35.8540   29.2970   49.5610 C   0  0  0  0  0  0  0  0  0  0  0  0
   34.8730   28.3600   49.5630 C   0  0  0  0  0  0  0  0  0  0  0  0
   33.9580   28.3610   48.5570 N   0  0  0  0  0  0  0  0  0  0  0  0
   34.0540   29.2920   47.5890 C   0  0  0  0  0  0  0  0  0  0  0  0
   35.0310   30.2180   47.5940 N   0  0  0  0  0  0  0  0  0  0  0  0
   36.5690   29.2860   50.3600 H   0  0  0  0  0  0  0  0  0  0  0  0
   34.7640   27.5990   50.3230 H   0  0  0  0  0  0  0  0  0  0  0  0
   33.0450   29.2830   46.4900 C   0  0  0  0  0  0  0  0  0  0  0  0
   32.6290   30.6850   46.1180 C   0  0  0  0  0  0  0  0  0  0  0  0
   33.5560   31.2280   45.7840 H   0  0  0  0  0  0  0  0  0  0  0  0
   31.7350   30.5900   44.8980 C   0  0  0  0  0  0  0  0  0  0  0  0
   32.4330   30.3120   44.0550 H   0  0  0  0  0  0  0  0  0  0  0  0
   30.8210   29.5590   44.9800 O   0  0  0  0  0  0  0  0  0  0  0  0
   30.5950   29.1270   46.2950 C   0  0  0  0  0  0  0  0  0  0  0  0
   30.1560   29.9200   46.9270 H   0  0  0  0  0  0  0  0  0  0  0  0
   31.8180   28.5080   46.9050 C   0  0  0  0  0  0  0  0  0  0  0  0
   31.7470   28.5440   48.0000 H   0  0  0  0  0  0  0  0  0  0  0  0
   38.0800   33.0670   49.4830 C   0  0  0  0  0  0  0  0  0  0  0  0
   38.9680   33.1470   48.4130 C   0  0  0  0  0  0  0  0  0  0  0  0
   38.8180   32.2060   47.3770 C   0  0  0  0  0  0  0  0  0  0  0  0
   37.8200   31.2890   47.4930 N   0  0  0  0  0  0  0  0  0  0  0  0
   36.9760   31.2430   48.5490 C   0  0  0  0  0  0  0  0  0  0  0  0
   37.1100   32.1410   49.5480 N   0  0  0  0  0  0  0  0  0  0  0  0
   38.2670   33.8290   50.2340 H   0  0  0  0  0  0  0  0  0  0  0  0
   39.7600   33.8540   48.2920 H   0  0  0  0  0  0  0  0  0  0  0  0
   39.4260   32.1370   46.4820 H   0  0  0  0  0  0  0  0  0  0  0  0
  1  2  1  0  0  0  0
  2  3  2  0  0  0  0
  2  7  1  0  0  0  0
  3  8  1  0  0  0  0
  4  3  1  0  0  0  0
  5  6  1  0  0  0  0
  5  4  2  0  0  0  0
  6  1  2  0  0  0  0
  9 17  1  0  0  0  0
  9  5  1  0  0  0  0
 10  9  1  0  0  0  0
 11 10  1  0  0  0  0
 12 14  1  0  0  0  0
 12 10  1  0  0  0  0
 13 12  1  0  0  0  0
 14 15  1  0  0  0  0
 15 17  1  0  0  0  0
 15 16  1  0  0  0  0
 17 18  1  0  0  0  0
 19 24  1  0  0  0  0
 19 25  1  0  0  0  0
 20 19  2  0  0  0  0
 21 22  2  0  0  0  0
 21 20  1  0  0  0  0
 22 23  1  0  0  0  0
 23  1  1  0  0  0  0
 23 24  2  0  0  0  0
 26 20  1  0  0  0  0
 27 21  1  0  0  0  0
M  END
>  <minimizedAffinity>
-5.10378361

>  <minimizedRMSD>
0.228717372

$$$$
