
 OpenBabel03272507133D

 41 45  0  0  0  0  0  0  0  0999 V2000
   35.8190   29.0860   49.8850 C   0  0  0  0  0  0  0  0  0  0  0  0
   34.7830   29.6270   50.5630 C   0  0  0  0  0  0  0  0  0  0  0  0
   33.6190   29.0640   50.0360 C   0  0  0  0  0  0  0  0  0  0  0  0
   34.0460   28.1840   49.0320 C   0  0  0  0  0  0  0  0  0  0  0  0
   35.3410   28.2480   49.0000 O   0  0  0  0  0  0  0  0  0  0  0  0
   34.7840   30.3680   51.3790 H   0  0  0  0  0  0  0  0  0  0  0  0
   32.6190   29.3270   50.4070 H   0  0  0  0  0  0  0  0  0  0  0  0
   33.5220   26.4320   47.3390 C   0  0  0  0  0  0  0  0  0  0  0  0
   33.1010   27.3990   48.2440 C   0  0  0  0  0  0  0  0  0  0  0  0
   31.7570   27.6610   48.4420 C   0  0  0  0  0  0  0  0  0  0  0  0
   30.8440   26.9360   47.7180 C   0  0  0  0  0  0  0  0  0  0  0  0
   29.4990   26.9670   47.7020 N   0  0  0  0  0  0  0  0  0  0  0  0
   29.0900   26.0570   46.8240 N   0  0  0  0  0  0  0  0  0  0  0  0
   30.1460   25.4470   46.2800 C   0  0  0  0  0  0  0  0  0  0  0  0
   31.3150   25.9790   46.8240 C   0  0  0  0  0  0  0  0  0  0  0  0
   32.6450   25.7030   46.6130 C   0  0  0  0  0  0  0  0  0  0  0  0
   34.5950   26.2970   47.2530 H   0  0  0  0  0  0  0  0  0  0  0  0
   31.3600   28.4020   49.1330 H   0  0  0  0  0  0  0  0  0  0  0  0
   28.8510   27.5740   48.2560 H   0  0  0  0  0  0  0  0  0  0  0  0
   30.1700   24.6470   45.5220 H   0  0  0  0  0  0  0  0  0  0  0  0
   32.9440   24.9580   45.9150 H   0  0  0  0  0  0  0  0  0  0  0  0
   37.2040   29.4450   50.1680 C   0  0  0  0  0  0  0  0  0  0  0  0
   37.8330   28.7990   51.0430 O   0  0  0  0  0  0  0  0  0  0  0  0
   37.7770   30.5350   49.4180 C   0  0  0  0  0  0  0  0  0  0  0  0
   38.0510   31.7050   50.0960 C   0  0  0  0  0  0  0  0  0  0  0  0
   38.6020   32.7790   49.4110 C   0  0  0  0  0  0  0  0  0  0  0  0
   38.8430   32.6090   48.0880 N   0  0  0  0  0  0  0  0  0  0  0  0
   38.5760   31.4780   47.4400 C   0  0  0  0  0  0  0  0  0  0  0  0
   38.0470   30.4550   48.1120 N   0  0  0  0  0  0  0  0  0  0  0  0
   37.8660   31.8720   51.1670 H   0  0  0  0  0  0  0  0  0  0  0  0
   38.8250   33.6940   49.9070 H   0  0  0  0  0  0  0  0  0  0  0  0
   38.8370   31.2790   45.9860 C   0  0  0  0  0  3  0  0  0  0  0  0
   38.2240   32.3640   45.1340 C   0  0  0  0  0  3  0  0  0  0  0  0
   38.7740   33.3350   45.2530 H   0  0  0  0  0  0  0  0  0  0  0  0
   38.2820   31.8560   43.7090 C   0  0  0  0  0  3  0  0  0  0  0  0
   37.9700   32.6270   42.9780 H   0  0  0  0  0  0  0  0  0  0  0  0
   39.4770   31.2570   43.4090 O   0  0  0  0  0  0  0  0  0  0  0  0
   40.5350   31.6300   44.2320 C   0  0  0  0  0  3  0  0  0  0  0  0
   41.4320   31.0880   43.8690 H   0  0  0  0  0  0  0  0  0  0  0  0
   40.3130   31.2380   45.6680 C   0  0  0  0  0  3  0  0  0  0  0  0
   40.8900   31.9590   46.2990 H   0  0  0  0  0  0  0  0  0  0  0  0
  1 22  1  0  0  0  0
  1  2  2  0  0  0  0
  2  6  1  0  0  0  0
  3  7  1  0  0  0  0
  3  2  1  0  0  0  0
  4  3  2  0  0  0  0
  5  4  1  0  0  0  0
  5  1  1  0  0  0  0
  8  9  1  0  0  0  0
  9 10  2  0  0  0  0
  9  4  1  0  0  0  0
 10 18  1  0  0  0  0
 11 10  1  0  0  0  0
 12 11  1  0  0  0  0
 12 19  1  0  0  0  0
 13 12  1  0  0  0  0
 14 15  1  0  0  0  0
 14 13  2  0  0  0  0
 15 11  2  0  0  0  0
 16 15  1  0  0  0  0
 16  8  2  0  0  0  0
 17  8  1  0  0  0  0
 20 14  1  0  0  0  0
 21 16  1  0  0  0  0
 22 23  2  0  0  0  0
 24 25  1  0  0  0  0
 24 22  1  0  0  0  0
 25 30  1  0  0  0  0
 26 31  1  0  0  0  0
 26 25  2  0  0  0  0
 27 26  1  0  0  0  0
 28 27  2  0  0  0  0
 28 29  1  0  0  0  0
 29 24  2  0  0  0  0
 32 28  1  0  0  0  0
 33 34  1  0  0  0  0
 33 32  1  0  0  0  0
 35 33  1  0  0  0  0
 36 35  1  0  0  0  0
 37 35  1  0  0  0  0
 37 38  1  0  0  0  0
 38 40  1  0  0  0  0
 39 38  1  0  0  0  0
 40 32  1  0  0  0  0
 40 41  1  0  0  0  0
M  END
>  <minimizedAffinity>
-7.21382761

>  <minimizedRMSD>
0.329787225

$$$$
