
 OpenBabel03272505273D

 32 34  0  0  0  0  0  0  0  0999 V2000
   37.3900   31.0670   47.1270 N   0  0  0  0  0  0  0  0  0  0  0  0
   36.8040   30.7210   45.9490 C   0  0  0  0  0  0  0  0  0  0  0  0
   37.2680   31.1970   44.7290 C   0  0  0  0  0  0  0  0  0  0  0  0
   38.3780   32.0590   44.7550 C   0  0  0  0  0  0  0  0  0  0  0  0
   38.8290   32.5100   43.6780 O   0  0  0  0  0  0  0  0  0  0  0  0
   38.9600   32.3990   45.9490 N   0  0  0  0  0  0  0  0  0  0  0  0
   38.4230   31.8780   47.0430 C   0  0  0  0  0  0  0  0  0  0  0  0
   38.9840   32.2160   48.1130 O   0  0  0  0  0  0  0  0  0  0  0  0
   35.9490   30.0560   45.9540 H   0  0  0  0  0  0  0  0  0  0  0  0
   36.6040   30.7980   43.4970 C   0  0  0  0  0  3  0  0  0  0  0  0
   35.0920   30.9420   43.5540 C   0  0  0  0  0  3  0  0  0  0  0  0
   34.6750   30.2060   44.2930 H   0  0  0  0  0  0  0  0  0  0  0  0
   34.5650   30.5210   42.1990 C   0  0  0  0  0  3  0  0  0  0  0  0
   34.0420   29.5320   42.2350 H   0  0  0  0  0  0  0  0  0  0  0  0
   35.5580   30.3910   41.2410 O   0  0  0  0  0  0  0  0  0  0  0  0
   36.4700   29.3920   41.5380 C   0  0  0  0  0  3  0  0  0  0  0  0
   36.1250   28.4010   41.2220 H   0  0  0  0  0  0  0  0  0  0  0  0
   36.8920   29.4130   43.0130 C   0  0  0  0  0  3  0  0  0  0  0  0
   37.9500   29.1090   43.1300 H   0  0  0  0  0  0  0  0  0  0  0  0
   37.2380   29.4800   50.4790 C   0  0  0  0  0  0  0  0  0  0  0  0
   37.7270   29.9650   49.2550 C   0  0  0  0  0  0  0  0  0  0  0  0
   36.9040   30.5780   48.3440 C   0  0  0  0  0  0  0  0  0  0  0  0
   35.5820   30.7010   48.6660 N   0  0  0  0  0  0  0  0  0  0  0  0
   35.0870   30.2380   49.8450 C   0  0  0  0  0  0  0  0  0  0  0  0
   35.9060   29.6300   50.7490 N   0  0  0  0  0  0  0  0  0  0  0  0
   37.8210   28.9930   51.2370 H   0  0  0  0  0  0  0  0  0  0  0  0
   38.7740   29.7660   49.1830 H   0  0  0  0  0  0  0  0  0  0  0  0
   34.0290   30.3770   50.0200 H   0  0  0  0  0  0  0  0  0  0  0  0
   40.1110   33.2830   45.9680 C   0  0  0  0  0  0  0  0  0  0  0  0
   39.9820   34.2540   45.0290 F   0  0  0  0  0  0  0  0  0  0  0  0
   41.2930   32.6210   45.6830 F   0  0  0  0  0  0  0  0  0  0  0  0
   40.1860   33.8940   47.2140 F   0  0  0  0  0  0  0  0  0  0  0  0
  1 22  1  0  0  0  0
  2  9  1  0  0  0  0
  2  1  1  0  0  0  0
  3  4  1  0  0  0  0
  3  2  2  0  0  0  0
  4  6  1  0  0  0  0
  5  4  2  0  0  0  0
  6 29  1  0  0  0  0
  6  7  1  0  0  0  0
  7  1  1  0  0  0  0
  7  8  2  0  0  0  0
 10 11  1  0  0  0  0
 10  3  1  0  0  0  0
 11 12  1  0  0  0  0
 13 14  1  0  0  0  0
 13 11  1  0  0  0  0
 15 16  1  0  0  0  0
 15 13  1  0  0  0  0
 16 18  1  0  0  0  0
 17 16  1  0  0  0  0
 18 19  1  0  0  0  0
 18 10  1  0  0  0  0
 20 25  1  0  0  0  0
 20 26  1  0  0  0  0
 21 20  2  0  0  0  0
 22 23  2  0  0  0  0
 22 21  1  0  0  0  0
 23 24  1  0  0  0  0
 24 28  1  0  0  0  0
 24 25  2  0  0  0  0
 27 21  1  0  0  0  0
 29 32  1  0  0  0  0
 30 29  1  0  0  0  0
 31 29  1  0  0  0  0
M  END
>  <minimizedAffinity>
-6.0947051

>  <minimizedRMSD>
0.225475505

$$$$
