
 OpenBabel03272505273D

 32 34  0  0  0  0  0  0  0  0999 V2000
   37.4120   31.0610   47.1390 N   0  0  0  0  0  0  0  0  0  0  0  0
   36.8310   30.6920   45.9670 C   0  0  0  0  0  0  0  0  0  0  0  0
   37.2930   31.1510   44.7400 C   0  0  0  0  0  0  0  0  0  0  0  0
   38.3960   32.0220   44.7530 C   0  0  0  0  0  0  0  0  0  0  0  0
   38.8450   32.4590   43.6700 O   0  0  0  0  0  0  0  0  0  0  0  0
   38.9740   32.3860   45.9410 N   0  0  0  0  0  0  0  0  0  0  0  0
   38.4390   31.8790   47.0440 C   0  0  0  0  0  0  0  0  0  0  0  0
   38.9960   32.2400   48.1090 O   0  0  0  0  0  0  0  0  0  0  0  0
   35.9810   30.0190   45.9820 H   0  0  0  0  0  0  0  0  0  0  0  0
   36.6340   30.7260   43.5130 C   0  0  0  0  0  3  0  0  0  0  0  0
   35.1310   30.9530   43.5290 C   0  0  0  0  0  3  0  0  0  0  0  0
   34.6600   30.2800   44.2920 H   0  0  0  0  0  0  0  0  0  0  0  0
   34.6100   30.4940   42.1830 C   0  0  0  0  0  3  0  0  0  0  0  0
   34.0330   29.5380   42.2560 H   0  0  0  0  0  0  0  0  0  0  0  0
   35.6140   30.2630   41.2550 O   0  0  0  0  0  0  0  0  0  0  0  0
   36.4640   29.2330   41.6230 C   0  0  0  0  0  3  0  0  0  0  0  0
   36.0710   28.2480   41.3480 H   0  0  0  0  0  0  0  0  0  0  0  0
   36.8540   29.3050   43.1050 C   0  0  0  0  0  3  0  0  0  0  0  0
   37.8920   28.9510   43.2610 H   0  0  0  0  0  0  0  0  0  0  0  0
   37.2730   29.5470   50.5250 C   0  0  0  0  0  0  0  0  0  0  0  0
   37.7590   30.0160   49.2940 C   0  0  0  0  0  0  0  0  0  0  0  0
   36.9300   30.5880   48.3640 C   0  0  0  0  0  0  0  0  0  0  0  0
   35.6030   30.6870   48.6740 N   0  0  0  0  0  0  0  0  0  0  0  0
   35.1090   30.2400   49.8590 C   0  0  0  0  0  0  0  0  0  0  0  0
   35.9360   29.6720   50.7820 N   0  0  0  0  0  0  0  0  0  0  0  0
   37.8610   29.0910   51.2980 H   0  0  0  0  0  0  0  0  0  0  0  0
   38.8120   29.8410   49.2340 H   0  0  0  0  0  0  0  0  0  0  0  0
   34.0470   30.3570   50.0230 H   0  0  0  0  0  0  0  0  0  0  0  0
   40.1170   33.2810   45.9480 C   0  0  0  0  0  0  0  0  0  0  0  0
   39.9750   34.2430   45.0030 F   0  0  0  0  0  0  0  0  0  0  0  0
   41.3030   32.6260   45.6600 F   0  0  0  0  0  0  0  0  0  0  0  0
   40.1950   33.9010   47.1890 F   0  0  0  0  0  0  0  0  0  0  0  0
  1 22  1  0  0  0  0
  2  9  1  0  0  0  0
  2  1  1  0  0  0  0
  3  4  1  0  0  0  0
  3  2  2  0  0  0  0
  4  6  1  0  0  0  0
  5  4  2  0  0  0  0
  6 29  1  0  0  0  0
  6  7  1  0  0  0  0
  7  1  1  0  0  0  0
  7  8  2  0  0  0  0
 10 11  1  0  0  0  0
 10  3  1  0  0  0  0
 11 12  1  0  0  0  0
 13 14  1  0  0  0  0
 13 11  1  0  0  0  0
 15 16  1  0  0  0  0
 15 13  1  0  0  0  0
 16 18  1  0  0  0  0
 17 16  1  0  0  0  0
 18 19  1  0  0  0  0
 18 10  1  0  0  0  0
 20 25  1  0  0  0  0
 20 26  1  0  0  0  0
 21 20  2  0  0  0  0
 22 23  2  0  0  0  0
 22 21  1  0  0  0  0
 23 24  1  0  0  0  0
 24 28  1  0  0  0  0
 24 25  2  0  0  0  0
 27 21  1  0  0  0  0
 29 32  1  0  0  0  0
 30 29  1  0  0  0  0
 31 29  1  0  0  0  0
M  END
>  <minimizedAffinity>
-6.11281729

>  <minimizedRMSD>
0.251674742

$$$$
