
 OpenBabel03272509513D

 34 36  0  0  0  0  0  0  0  0999 V2000
   37.1010   30.0970   51.4280 C   0  0  0  0  0  0  0  0  0  0  0  0
   37.5250   30.9030   50.3480 C   0  0  0  0  0  0  0  0  0  0  0  0
   36.8370   30.7780   49.1540 C   0  0  0  0  0  0  0  0  0  0  0  0
   35.7900   29.8880   49.0840 N   0  0  0  0  0  0  0  0  0  0  0  0
   35.4220   29.1450   50.1310 C   0  0  0  0  0  0  0  0  0  0  0  0
   36.0790   29.2530   51.2970 N   0  0  0  0  0  0  0  0  0  0  0  0
   37.5920   30.1420   52.3910 H   0  0  0  0  0  0  0  0  0  0  0  0
   38.3580   31.5830   50.4770 H   0  0  0  0  0  0  0  0  0  0  0  0
   37.2630   31.6150   48.0050 C   0  0  0  0  0  3  0  0  0  0  0  0
   37.3000   30.8430   46.7370 C   0  0  0  0  0  3  0  0  0  0  0  0
   37.7800   29.8540   46.8130 H   0  0  0  0  0  0  0  0  0  0  0  0
   38.1080   31.5980   45.7010 C   0  0  0  0  0  3  0  0  0  0  0  0
   37.7110   32.6050   45.4780 H   0  0  0  0  0  0  0  0  0  0  0  0
   39.4230   31.6480   46.2030 O   0  0  0  0  0  0  0  0  0  0  0  0
   39.4120   32.6270   47.1920 C   0  0  0  0  0  3  0  0  0  0  0  0
   40.4570   32.7680   47.5400 H   0  0  0  0  0  0  0  0  0  0  0  0
   38.5830   32.2340   48.3830 C   0  0  0  0  0  3  0  0  0  0  0  0
   39.1390   31.5220   49.0270 H   0  0  0  0  0  0  0  0  0  0  0  0
   34.3580   28.3330   49.8270 O   0  0  0  0  0  0  0  0  0  0  0  0
   33.7010   28.5040   48.5800 C   0  0  0  0  0  0  0  0  0  0  0  0
   34.4720   28.5960   47.7900 H   0  0  0  0  0  0  0  0  0  0  0  0
   33.1670   29.4750   48.5880 H   0  0  0  0  0  0  0  0  0  0  0  0
   32.7330   27.3910   48.3410 C   0  0  0  0  0  0  0  0  0  0  0  0
   32.9770   26.9560   47.3330 H   0  0  0  0  0  0  0  0  0  0  0  0
   32.8660   26.6000   49.1080 H   0  0  0  0  0  0  0  0  0  0  0  0
   31.3100   27.8450   48.3400 C   0  0  0  0  0  0  0  0  0  0  0  0
   30.6300   27.7280   49.5310 C   0  0  0  0  0  0  0  0  0  0  0  0
   29.3160   28.1110   49.6540 C   0  0  0  0  0  0  0  0  0  0  0  0
   28.6790   28.6120   48.5870 N   0  0  0  0  0  0  0  0  0  0  0  0
   29.3570   28.7190   47.4300 C   0  0  0  0  0  0  0  0  0  0  0  0
   30.6400   28.3520   47.2820 N   0  0  0  0  0  0  0  0  0  0  0  0
   31.0900   27.3290   50.4390 H   0  0  0  0  0  0  0  0  0  0  0  0
   28.7440   28.0370   50.5770 H   0  0  0  0  0  0  0  0  0  0  0  0
   28.8900   29.1220   46.5200 H   0  0  0  0  0  0  0  0  0  0  0  0
  1  7  1  0  0  0  0
  2  8  1  0  0  0  0
  2  1  2  0  0  0  0
  3  2  1  0  0  0  0
  4  3  2  0  0  0  0
  4  5  1  0  0  0  0
  5  6  2  0  0  0  0
  6  1  1  0  0  0  0
  9 17  1  0  0  0  0
  9  3  1  0  0  0  0
 10 11  1  0  0  0  0
 10  9  1  0  0  0  0
 12 14  1  0  0  0  0
 12 10  1  0  0  0  0
 13 12  1  0  0  0  0
 14 15  1  0  0  0  0
 15 16  1  0  0  0  0
 15 17  1  0  0  0  0
 17 18  1  0  0  0  0
 19  5  1  0  0  0  0
 20 22  1  0  0  0  0
 20 19  1  0  0  0  0
 21 20  1  0  0  0  0
 23 20  1  0  0  0  0
 23 25  1  0  0  0  0
 24 23  1  0  0  0  0
 26 23  1  0  0  0  0
 26 27  1  0  0  0  0
 27 28  2  0  0  0  0
 27 32  1  0  0  0  0
 28 33  1  0  0  0  0
 29 28  1  0  0  0  0
 30 29  2  0  0  0  0
 31 30  1  0  0  0  0
 31 26  2  0  0  0  0
 34 30  1  0  0  0  0
M  END
>  <minimizedAffinity>
-5.6045475

>  <minimizedRMSD>
0.970651746

$$$$
