
 OpenBabel03272509403D

 36 38  0  0  1  0  0  0  0  0999 V2000
   37.0400   30.9570   49.0720 C   0  0  0  0  0  0  0  0  0  0  0  0
   36.7710   31.8890   50.0780 C   0  0  0  0  0  0  0  0  0  0  0  0
   37.3740   33.1310   50.1150 C   0  0  0  0  0  0  0  0  0  0  0  0
   38.2870   33.4900   49.1240 C   0  0  0  0  0  0  0  0  0  0  0  0
   38.5420   32.5670   48.1440 C   0  0  0  0  0  0  0  0  0  0  0  0
   37.9330   31.3330   48.1210 C   0  0  0  0  0  0  0  0  0  0  0  0
   36.0560   31.6200   50.8600 H   0  0  0  0  0  0  0  0  0  0  0  0
   37.1170   33.8020   50.9240 H   0  0  0  0  0  0  0  0  0  0  0  0
   38.7460   34.4570   49.1670 H   0  0  0  0  0  0  0  0  0  0  0  0
   39.2600   32.9090   47.4060 H   0  0  0  0  0  0  0  0  0  0  0  0
   36.3560   29.6810   49.1210 C   0  0  1  0  0  3  0  0  0  0  0  0
   36.8900   28.8200   49.9220 O   0  0  0  0  0  1  0  0  0  0  0  0
   33.5970   30.1470   46.8160 C   0  0  0  0  0  0  0  0  0  0  0  0
   32.9350   28.9270   46.8300 C   0  0  0  0  0  0  0  0  0  0  0  0
   33.4370   27.9210   47.6420 C   0  0  0  0  0  0  0  0  0  0  0  0
   34.5460   28.1580   48.3890 N   0  0  0  0  0  0  0  0  0  0  0  0
   35.1570   29.3360   48.3530 C   0  0  0  0  0  0  0  0  0  0  0  0
   34.6790   30.3170   47.5690 N   0  0  0  0  0  0  0  0  0  0  0  0
   33.2180   30.9330   46.1900 H   0  0  0  0  0  0  0  0  0  0  0  0
   32.0560   28.7820   46.2190 H   0  0  0  0  0  0  0  0  0  0  0  0
   32.9510   26.9600   47.6810 H   0  0  0  0  0  0  0  0  0  0  0  0
   38.3030   30.4650   47.0210 C   0  0  0  0  0  3  0  0  0  0  0  0
   39.0170   30.8170   45.9640 C   0  0  0  0  0  3  0  0  0  0  0  0
   39.4610   30.0620   44.7970 C   0  0  0  0  0  0  0  0  0  0  0  0
   38.6600   29.3500   44.4600 H   0  0  0  0  0  0  0  0  0  0  0  0
   40.3150   29.4140   45.0720 H   0  0  0  0  0  0  0  0  0  0  0  0
   39.8320   30.8890   43.6110 C   0  0  0  0  0  3  0  0  0  0  0  0
   38.8750   32.0750   43.5100 C   0  0  0  0  0  3  0  0  0  0  0  0
   37.8380   31.7320   43.3100 H   0  0  0  0  0  0  0  0  0  0  0  0
   39.2760   32.9970   42.3810 C   0  0  0  0  0  3  0  0  0  0  0  0
   40.2300   33.4980   42.5380 H   0  0  0  0  0  0  0  0  0  0  0  0
   39.2200   32.2310   41.2050 O   0  0  0  0  0  0  0  0  0  0  0  0
   40.1780   31.2140   41.2540 C   0  0  0  0  0  3  0  0  0  0  0  0
   40.3710   30.7850   40.2730 H   0  0  0  0  0  0  0  0  0  0  0  0
   39.8120   30.1640   42.3120 C   0  0  0  0  0  3  0  0  0  0  0  0
   38.8350   29.7390   42.0420 H   0  0  0  0  0  0  0  0  0  0  0  0
  1 11  1  0  0  0  0
  1  2  1  0  0  0  0
  2  3  2  0  0  0  0
  2  7  1  0  0  0  0
  3  8  1  0  0  0  0
  4  9  1  0  0  0  0
  4  3  1  0  0  0  0
  5  4  2  0  0  0  0
  6  5  1  0  0  0  0
  6  1  2  0  0  0  0
 10  5  1  0  0  0  0
 11 12  1  1  0  0  0
 13 14  2  0  0  0  0
 13 18  1  0  0  0  0
 14 15  1  0  0  0  0
 15 21  1  0  0  0  0
 15 16  2  0  0  0  0
 17 16  1  0  0  0  0
 17 11  1  0  0  0  0
 18 17  2  0  0  0  0
 19 13  1  0  0  0  0
 20 14  1  0  0  0  0
 22  6  1  0  0  0  0
 23 22  2  0  0  0  0
 24 26  1  0  0  0  0
 24 23  1  0  0  0  0
 25 24  1  0  0  0  0
 27 24  1  0  0  0  0
 28 27  1  0  0  0  0
 29 28  1  0  0  0  0
 30 31  1  0  0  0  0
 30 28  1  0  0  0  0
 32 33  1  0  0  0  0
 32 30  1  0  0  0  0
 33 35  1  0  0  0  0
 34 33  1  0  0  0  0
 35 27  1  0  0  0  0
 36 35  1  0  0  0  0
M  END
>  <minimizedAffinity>
-5.99221754

>  <minimizedRMSD>
1.46594954

$$$$
