
 OpenBabel03272509093D

 41 44  0  0  0  0  0  0  0  0999 V2000
   32.9500   27.9490   48.4130 C   0  0  0  0  0  0  0  0  0  0  0  0
   32.0680   28.5630   48.2140 H   0  0  0  0  0  0  0  0  0  0  0  0
   32.6280   27.2660   49.2570 H   0  0  0  0  0  0  0  0  0  0  0  0
   33.3230   27.0180   47.3190 C   0  0  0  0  0  0  0  0  0  0  0  0
   33.4310   25.6370   47.4700 C   0  0  0  0  0  0  0  0  0  0  0  0
   33.7780   24.8240   46.4180 C   0  0  0  0  0  0  0  0  0  0  0  0
   34.0330   25.3730   45.1630 C   0  0  0  0  0  0  0  0  0  0  0  0
   33.9280   26.7230   45.0120 C   0  0  0  0  0  0  0  0  0  0  0  0
   33.5790   27.5480   46.0670 C   0  0  0  0  0  0  0  0  0  0  0  0
   33.2100   25.3290   48.4920 H   0  0  0  0  0  0  0  0  0  0  0  0
   33.8060   23.7940   46.7470 H   0  0  0  0  0  0  0  0  0  0  0  0
   34.2950   24.6340   44.4200 H   0  0  0  0  0  0  0  0  0  0  0  0
   34.1480   27.0380   44.0030 H   0  0  0  0  0  0  0  0  0  0  0  0
   33.5300   28.9830   45.7070 C   0  0  0  0  0  3  0  0  0  0  0  0
   34.7180   29.2720   44.7960 C   0  0  0  0  0  3  0  0  0  0  0  0
   34.7540   28.3970   44.0840 H   0  0  0  0  0  0  0  0  0  0  0  0
   34.5750   30.5550   44.0350 C   0  0  0  0  0  3  0  0  0  0  0  0
   35.2130   31.3500   44.4790 H   0  0  0  0  0  0  0  0  0  0  0  0
   33.2790   30.9600   43.8170 O   0  0  0  0  0  0  0  0  0  0  0  0
   32.5020   29.8020   43.5940 C   0  0  0  0  0  3  0  0  0  0  0  0
   33.0750   29.0830   42.9770 H   0  0  0  0  0  0  0  0  0  0  0  0
   32.2260   29.2620   45.0040 C   0  0  0  0  0  3  0  0  0  0  0  0
   31.5150   28.4390   44.9930 H   0  0  0  0  0  0  0  0  0  0  0  0
   35.2650   28.2570   49.3050 C   0  0  0  0  0  3  0  0  0  0  0  0
   34.0840   28.7090   48.9620 C   0  0  0  0  0  3  0  0  0  0  0  0
   37.3980   30.1930   51.5430 C   0  0  0  0  0  0  0  0  0  0  0  0
   38.0970   31.0160   50.6290 C   0  0  0  0  0  0  0  0  0  0  0  0
   37.8060   30.8740   49.2630 C   0  0  0  0  0  0  0  0  0  0  0  0
   36.8660   29.9530   48.8820 N   0  0  0  0  0  0  0  0  0  0  0  0
   36.2360   29.1970   49.8240 C   0  0  0  0  0  0  0  0  0  0  0  0
   36.4970   29.3160   51.1230 N   0  0  0  0  0  0  0  0  0  0  0  0
   37.6370   30.3160   52.6060 H   0  0  0  0  0  0  0  0  0  0  0  0
   38.8350   31.7410   50.9140 H   0  0  0  0  0  0  0  0  0  0  0  0
   38.4690   31.6780   48.2280 C   0  0  0  0  0  0  0  0  0  0  0  0
   38.7570   31.1830   46.9790 C   0  0  0  0  0  0  0  0  0  0  0  0
   39.3770   32.2040   46.2590 C   0  0  0  0  0  0  0  0  0  0  0  0
   39.4390   33.2710   47.0950 N   0  0  0  0  0  0  0  0  0  0  0  0
   38.8970   32.9420   48.2540 N   0  0  0  0  0  0  0  0  0  0  0  0
   38.5430   30.1820   46.6180 H   0  0  0  0  0  0  0  0  0  0  0  0
   39.7320   32.1400   45.2360 H   0  0  0  0  0  0  0  0  0  0  0  0
   39.8500   34.2030   46.8540 H   0  0  0  0  0  0  0  0  0  0  0  0
  1 25  1  0  0  0  0
  1  3  1  0  0  0  0
  2  1  1  0  0  0  0
  4  5  1  0  0  0  0
  4  1  1  0  0  0  0
  5 10  1  0  0  0  0
  6 11  1  0  0  0  0
  6  5  2  0  0  0  0
  7  6  1  0  0  0  0
  8  7  2  0  0  0  0
  8  9  1  0  0  0  0
  9  4  2  0  0  0  0
 12  7  1  0  0  0  0
 13  8  1  0  0  0  0
 14  9  1  0  0  0  0
 15 14  1  0  0  0  0
 16 15  1  0  0  0  0
 17 18  1  0  0  0  0
 17 15  1  0  0  0  0
 19 17  1  0  0  0  0
 20 19  1  0  0  0  0
 20 22  1  0  0  0  0
 21 20  1  0  0  0  0
 22 14  1  0  0  0  0
 23 22  1  0  0  0  0
 24 30  1  0  0  0  0
 25 24  2  0  0  0  0
 26 32  1  0  0  0  0
 27 33  1  0  0  0  0
 27 26  2  0  0  0  0
 28 27  1  0  0  0  0
 29 28  2  0  0  0  0
 29 30  1  0  0  0  0
 30 31  2  0  0  0  0
 31 26  1  0  0  0  0
 34 38  2  0  0  0  0
 34 28  1  0  0  0  0
 35 34  1  0  0  0  0
 36 35  2  0  0  0  0
 36 37  1  0  0  0  0
 37 38  1  0  0  0  0
 39 35  1  0  0  0  0
 40 36  1  0  0  0  0
 41 37  1  0  0  0  0
M  END
>  <minimizedAffinity>
-6.30080891

>  <minimizedRMSD>
0.663170755

$$$$
