
 OpenBabel03272507523D

 33 35  0  0  0  0  0  0  0  0999 V2000
   36.4560   31.2460   48.7790 N   0  0  0  0  0  0  0  0  0  0  0  0
   36.6510   32.0680   49.8040 C   0  0  0  0  0  0  0  0  0  0  0  0
   37.6920   32.9980   49.7530 C   0  0  0  0  0  0  0  0  0  0  0  0
   38.4370   32.9700   48.6150 C   0  0  0  0  0  0  0  0  0  0  0  0
   39.3750   33.8280   48.6020 O   0  0  0  0  0  0  0  0  0  0  0  0
   38.2750   32.1670   47.5700 N   0  0  0  0  0  0  0  0  0  0  0  0
   37.2540   31.2880   47.6710 C   0  0  0  0  0  0  0  0  0  0  0  0
   37.0800   30.5050   46.6750 O   0  0  0  0  0  0  0  0  0  0  0  0
   35.9790   31.9760   50.6460 H   0  0  0  0  0  0  0  0  0  0  0  0
   37.8110   33.6340   50.5940 H   0  0  0  0  0  0  0  0  0  0  0  0
   39.1450   32.2710   46.4550 C   0  0  0  0  0  0  0  0  0  0  0  0
   38.4910   32.6660   45.1590 C   0  0  0  0  0  0  0  0  0  0  0  0
   37.6950   31.9050   44.9690 H   0  0  0  0  0  0  0  0  0  0  0  0
   39.5100   32.5370   44.0490 C   0  0  0  0  0  0  0  0  0  0  0  0
   39.2960   31.6940   43.3540 H   0  0  0  0  0  0  0  0  0  0  0  0
   40.8230   32.5050   44.5010 O   0  0  0  0  0  0  0  0  0  0  0  0
   41.1210   31.4350   45.3190 C   0  0  0  0  0  0  0  0  0  0  0  0
   41.9510   31.7800   46.0020 H   0  0  0  0  0  0  0  0  0  0  0  0
   39.9120   31.0050   46.1520 C   0  0  0  0  0  0  0  0  0  0  0  0
   39.3000   30.3940   45.4360 H   0  0  0  0  0  0  0  0  0  0  0  0
   35.2420   29.4710   49.9110 C   0  0  0  0  0  0  0  0  0  0  0  0
   35.4120   30.2650   48.7560 C   0  0  0  0  0  0  0  0  0  0  0  0
   34.5670   30.0560   47.6630 C   0  0  0  0  0  0  0  0  0  0  0  0
   33.6150   29.0890   47.7710 N   0  0  0  0  0  0  0  0  0  0  0  0
   33.4610   28.3490   48.8570 C   0  0  0  0  0  0  0  0  0  0  0  0
   34.2680   28.5360   49.9200 N   0  0  0  0  0  0  0  0  0  0  0  0
   34.7120   30.6710   46.7910 H   0  0  0  0  0  0  0  0  0  0  0  0
   32.6950   27.5860   48.9160 H   0  0  0  0  0  0  0  0  0  0  0  0
   37.3450   29.1480   51.4100 C   0  0  0  0  0  0  0  0  0  0  0  0
   38.0910   28.5950   50.5840 O   0  0  0  0  0  0  0  0  0  0  0  0
   36.0300   29.6110   51.0740 N   0  0  0  0  0  0  0  0  0  0  0  0
   37.7840   29.2400   52.3790 H   0  0  0  0  0  0  0  0  0  0  0  0
   35.6290   30.1550   51.8900 H   0  0  0  0  0  0  0  0  0  0  0  0
  1  2  1  0  0  0  0
  2  9  1  0  0  0  0
  3  2  2  0  0  0  0
  3 10  1  0  0  0  0
  4  3  1  0  0  0  0
  5  4  2  0  0  0  0
  6  7  1  0  0  0  0
  6  4  1  0  0  0  0
  7  1  1  0  0  0  0
  8  7  2  0  0  0  0
 11  6  1  0  0  0  0
 12 11  1  0  0  0  0
 13 12  1  0  0  0  0
 14 16  1  0  0  0  0
 14 12  1  0  0  0  0
 15 14  1  0  0  0  0
 16 17  1  0  0  0  0
 17 18  1  0  0  0  0
 17 19  1  0  0  0  0
 19 11  1  0  0  0  0
 20 19  1  0  0  0  0
 21 26  1  0  0  0  0
 21 31  1  0  0  0  0
 22  1  1  0  0  0  0
 22 21  2  0  0  0  0
 23 24  2  0  0  0  0
 23 22  1  0  0  0  0
 24 25  1  0  0  0  0
 25 28  1  0  0  0  0
 25 26  2  0  0  0  0
 27 23  1  0  0  0  0
 29 32  1  0  0  0  0
 30 29  2  0  0  0  0
 31 29  1  0  0  0  0
 31 33  1  0  0  0  0
M  END
>  <minimizedAffinity>
-6.355268

>  <minimizedRMSD>
1.1334393

$$$$
