
 OpenBabel03272509093D

 41 44  0  0  0  0  0  0  0  0999 V2000
   33.2060   27.7870   47.8630 C   0  0  0  0  0  0  0  0  0  0  0  0
   32.4390   28.4330   47.4290 H   0  0  0  0  0  0  0  0  0  0  0  0
   32.6910   27.2970   48.7430 H   0  0  0  0  0  0  0  0  0  0  0  0
   33.6230   26.6490   47.0080 C   0  0  0  0  0  0  0  0  0  0  0  0
   34.0210   25.4070   47.4990 C   0  0  0  0  0  0  0  0  0  0  0  0
   34.3940   24.3860   46.6570 C   0  0  0  0  0  0  0  0  0  0  0  0
   34.3810   24.5780   45.2770 C   0  0  0  0  0  0  0  0  0  0  0  0
   33.9920   25.7910   44.7940 C   0  0  0  0  0  0  0  0  0  0  0  0
   33.6160   26.8220   45.6360 C   0  0  0  0  0  0  0  0  0  0  0  0
   33.9900   25.3800   48.5890 H   0  0  0  0  0  0  0  0  0  0  0  0
   34.6650   23.5150   47.2380 H   0  0  0  0  0  0  0  0  0  0  0  0
   34.6940   23.7050   44.7240 H   0  0  0  0  0  0  0  0  0  0  0  0
   34.0220   25.8280   43.7150 H   0  0  0  0  0  0  0  0  0  0  0  0
   33.2390   28.0630   44.9220 C   0  0  0  0  0  3  0  0  0  0  0  0
   32.1700   28.7680   45.7500 C   0  0  0  0  0  3  0  0  0  0  0  0
   32.5290   28.6820   46.8170 H   0  0  0  0  0  0  0  0  0  0  0  0
   31.9910   30.2060   45.3770 C   0  0  0  0  0  3  0  0  0  0  0  0
   31.0690   30.3460   44.7720 H   0  0  0  0  0  0  0  0  0  0  0  0
   33.0970   30.8040   44.8200 O   0  0  0  0  0  0  0  0  0  0  0  0
   34.2370   30.2780   45.4670 C   0  0  0  0  0  3  0  0  0  0  0  0
   34.0300   30.1610   46.5490 H   0  0  0  0  0  0  0  0  0  0  0  0
   34.4680   28.9280   44.7750 C   0  0  0  0  0  3  0  0  0  0  0  0
   35.4030   28.4660   45.0800 H   0  0  0  0  0  0  0  0  0  0  0  0
   34.8530   28.3790   49.6500 C   0  0  0  0  0  3  0  0  0  0  0  0
   34.3300   28.5290   48.4570 C   0  0  0  0  0  3  0  0  0  0  0  0
   37.4120   30.1370   51.5620 C   0  0  0  0  0  0  0  0  0  0  0  0
   38.0830   30.8570   50.5460 C   0  0  0  0  0  0  0  0  0  0  0  0
   37.6270   30.7100   49.2270 C   0  0  0  0  0  0  0  0  0  0  0  0
   36.5600   29.8840   48.9880 N   0  0  0  0  0  0  0  0  0  0  0  0
   35.9670   29.2250   50.0210 C   0  0  0  0  0  0  0  0  0  0  0  0
   36.3840   29.3510   51.2790 N   0  0  0  0  0  0  0  0  0  0  0  0
   37.7820   30.2640   52.5870 H   0  0  0  0  0  0  0  0  0  0  0  0
   38.9200   31.5080   50.7200 H   0  0  0  0  0  0  0  0  0  0  0  0
   38.2460   31.4100   48.0950 C   0  0  0  0  0  0  0  0  0  0  0  0
   38.3240   30.8620   46.8380 C   0  0  0  0  0  0  0  0  0  0  0  0
   38.9640   31.7890   46.0160 C   0  0  0  0  0  0  0  0  0  0  0  0
   39.2480   32.8580   46.8040 N   0  0  0  0  0  0  0  0  0  0  0  0
   38.8160   32.6160   48.0290 N   0  0  0  0  0  0  0  0  0  0  0  0
   37.9550   29.8860   46.5380 H   0  0  0  0  0  0  0  0  0  0  0  0
   39.1830   31.6640   44.9610 H   0  0  0  0  0  0  0  0  0  0  0  0
   39.7310   33.7290   46.4850 H   0  0  0  0  0  0  0  0  0  0  0  0
  1 25  1  0  0  0  0
  1  3  1  0  0  0  0
  2  1  1  0  0  0  0
  4  5  1  0  0  0  0
  4  1  1  0  0  0  0
  5 10  1  0  0  0  0
  6 11  1  0  0  0  0
  6  5  2  0  0  0  0
  7  6  1  0  0  0  0
  8  7  2  0  0  0  0
  8  9  1  0  0  0  0
  9  4  2  0  0  0  0
 12  7  1  0  0  0  0
 13  8  1  0  0  0  0
 14  9  1  0  0  0  0
 14 15  1  0  0  0  0
 15 16  1  0  0  0  0
 17 15  1  0  0  0  0
 18 17  1  0  0  0  0
 19 17  1  0  0  0  0
 19 20  1  0  0  0  0
 20 21  1  0  0  0  0
 22 14  1  0  0  0  0
 22 23  1  0  0  0  0
 22 20  1  0  0  0  0
 24 30  1  0  0  0  0
 25 24  2  0  0  0  0
 26 32  1  0  0  0  0
 27 33  1  0  0  0  0
 27 26  2  0  0  0  0
 28 27  1  0  0  0  0
 29 28  2  0  0  0  0
 29 30  1  0  0  0  0
 30 31  2  0  0  0  0
 31 26  1  0  0  0  0
 34 28  1  0  0  0  0
 35 34  1  0  0  0  0
 36 37  1  0  0  0  0
 36 35  2  0  0  0  0
 37 38  1  0  0  0  0
 38 34  2  0  0  0  0
 39 35  1  0  0  0  0
 40 36  1  0  0  0  0
 41 37  1  0  0  0  0
M  END
>  <minimizedAffinity>
-6.18282223

>  <minimizedRMSD>
0.431085259

$$$$
