
 OpenBabel03272510123D

 36 39  0  0  0  0  0  0  0  0999 V2000
   33.1350   28.2980   49.0170 C   0  0  0  0  0  0  0  0  0  0  0  0
   33.4360   28.9840   50.1540 C   0  0  0  0  0  0  0  0  0  0  0  0
   34.6870   29.4640   50.4700 C   0  0  0  0  0  0  0  0  0  0  0  0
   35.7220   29.2570   49.6070 C   0  0  0  0  0  0  0  0  0  0  0  0
   35.4180   28.5550   48.4390 C   0  0  0  0  0  0  0  0  0  0  0  0
   34.1780   28.1020   48.1700 N   0  0  0  0  0  0  0  0  0  0  0  0
   32.6760   29.1950   50.9000 H   0  0  0  0  0  0  0  0  0  0  0  0
   34.9300   30.0080   51.3720 H   0  0  0  0  0  0  0  0  0  0  0  0
   36.1780   28.3460   47.6980 H   0  0  0  0  0  0  0  0  0  0  0  0
   30.7130   27.8720   49.5780 C   0  0  0  0  0  0  0  0  0  0  0  0
   31.8170   27.8080   48.7130 C   0  0  0  0  0  0  0  0  0  0  0  0
   31.5960   27.2240   47.4760 C   0  0  0  0  0  0  0  0  0  0  0  0
   30.3510   26.7510   47.1660 N   0  0  0  0  0  0  0  0  0  0  0  0
   29.3250   26.8440   48.0490 C   0  0  0  0  0  0  0  0  0  0  0  0
   29.5020   27.4040   49.2610 N   0  0  0  0  0  0  0  0  0  0  0  0
   30.8670   28.3190   50.5350 H   0  0  0  0  0  0  0  0  0  0  0  0
   32.4110   27.1500   46.7720 H   0  0  0  0  0  0  0  0  0  0  0  0
   28.4270   26.4190   47.6260 H   0  0  0  0  0  0  0  0  0  0  0  0
   37.0470   29.6660   49.7550 O   0  0  0  0  0  0  0  0  0  0  0  0
   37.6120   30.6570   48.9580 C   0  0  0  0  0  0  0  0  0  0  0  0
   38.1960   31.6890   49.6680 C   0  0  0  0  0  0  0  0  0  0  0  0
   38.7070   32.5870   48.7400 C   0  0  0  0  0  0  0  0  0  0  0  0
   38.4230   32.0800   47.5350 N   0  0  0  0  0  0  0  0  0  0  0  0
   37.7800   30.9480   47.6620 N   0  0  0  0  0  0  0  0  0  0  0  0
   38.3420   31.9520   50.7220 H   0  0  0  0  0  0  0  0  0  0  0  0
   39.2410   33.5260   48.8270 H   0  0  0  0  0  0  0  0  0  0  0  0
   38.7220   32.6010   46.2200 C   0  0  0  0  0  3  0  0  0  0  0  0
   40.1800   32.5080   45.8850 C   0  0  0  0  0  3  0  0  0  0  0  0
   40.4650   31.4290   45.7530 H   0  0  0  0  0  0  0  0  0  0  0  0
   40.3470   33.1430   44.5060 C   0  0  0  0  0  3  0  0  0  0  0  0
   41.3920   33.1660   44.1910 H   0  0  0  0  0  0  0  0  0  0  0  0
   39.5940   32.4650   43.5620 O   0  0  0  0  0  0  0  0  0  0  0  0
   38.2400   32.6570   43.8510 C   0  0  0  0  0  3  0  0  0  0  0  0
   37.6490   32.2470   42.9900 H   0  0  0  0  0  0  0  0  0  0  0  0
   37.9550   31.8780   45.1340 C   0  0  0  0  0  3  0  0  0  0  0  0
   38.3980   30.8580   44.9600 H   0  0  0  0  0  0  0  0  0  0  0  0
  1  2  1  0  0  0  0
  2  3  2  0  0  0  0
  2  7  1  0  0  0  0
  3  8  1  0  0  0  0
  4 19  1  0  0  0  0
  4  3  1  0  0  0  0
  5  4  2  0  0  0  0
  6  5  1  0  0  0  0
  6  1  2  0  0  0  0
  9  5  1  0  0  0  0
 10 16  1  0  0  0  0
 11  1  1  0  0  0  0
 11 10  2  0  0  0  0
 12 11  1  0  0  0  0
 13 12  2  0  0  0  0
 13 14  1  0  0  0  0
 14 15  2  0  0  0  0
 15 10  1  0  0  0  0
 17 12  1  0  0  0  0
 18 14  1  0  0  0  0
 20 21  1  0  0  0  0
 20 19  1  0  0  0  0
 21 25  1  0  0  0  0
 22 26  1  0  0  0  0
 22 21  2  0  0  0  0
 23 24  1  0  0  0  0
 23 22  1  0  0  0  0
 24 20  2  0  0  0  0
 27 23  1  0  0  0  0
 28 27  1  0  0  0  0
 29 28  1  0  0  0  0
 30 28  1  0  0  0  0
 31 30  1  0  0  0  0
 32 33  1  0  0  0  0
 32 30  1  0  0  0  0
 33 35  1  0  0  0  0
 34 33  1  0  0  0  0
 35 27  1  0  0  0  0
 36 35  1  0  0  0  0
M  END
>  <minimizedAffinity>
-5.69419861

>  <minimizedRMSD>
2.13430047

$$$$
