
 OpenBabel03272505273D

 32 34  0  0  0  0  0  0  0  0999 V2000
   37.4060   31.0570   47.1100 N   0  0  0  0  0  0  0  0  0  0  0  0
   36.8400   30.6930   45.9290 C   0  0  0  0  0  0  0  0  0  0  0  0
   37.3150   31.1580   44.7090 C   0  0  0  0  0  0  0  0  0  0  0  0
   38.4180   32.0300   44.7400 C   0  0  0  0  0  0  0  0  0  0  0  0
   38.8780   32.4720   43.6640 O   0  0  0  0  0  0  0  0  0  0  0  0
   38.9810   32.3890   45.9370 N   0  0  0  0  0  0  0  0  0  0  0  0
   38.4330   31.8770   47.0300 C   0  0  0  0  0  0  0  0  0  0  0  0
   38.9770   32.2330   48.1030 O   0  0  0  0  0  0  0  0  0  0  0  0
   35.9900   30.0190   45.9300 H   0  0  0  0  0  0  0  0  0  0  0  0
   36.6720   30.7380   43.4730 C   0  0  0  0  0  3  0  0  0  0  0  0
   35.4810   31.6040   43.0930 C   0  0  0  0  0  3  0  0  0  0  0  0
   34.6600   31.4600   43.8450 H   0  0  0  0  0  0  0  0  0  0  0  0
   34.9510   31.0600   41.7820 C   0  0  0  0  0  3  0  0  0  0  0  0
   33.9770   30.5260   41.9070 H   0  0  0  0  0  0  0  0  0  0  0  0
   35.8090   30.1530   41.1790 O   0  0  0  0  0  0  0  0  0  0  0  0
   35.9990   29.0060   41.9320 C   0  0  0  0  0  3  0  0  0  0  0  0
   35.2070   28.2640   41.7740 H   0  0  0  0  0  0  0  0  0  0  0  0
   36.2110   29.3170   43.4190 C   0  0  0  0  0  3  0  0  0  0  0  0
   36.9180   28.6000   43.8800 H   0  0  0  0  0  0  0  0  0  0  0  0
   37.2210   29.4870   50.4680 C   0  0  0  0  0  0  0  0  0  0  0  0
   37.7210   29.9620   49.2450 C   0  0  0  0  0  0  0  0  0  0  0  0
   36.9100   30.5780   48.3260 C   0  0  0  0  0  0  0  0  0  0  0  0
   35.5870   30.7150   48.6400 N   0  0  0  0  0  0  0  0  0  0  0  0
   35.0800   30.2620   49.8180 C   0  0  0  0  0  0  0  0  0  0  0  0
   35.8880   29.6510   50.7290 N   0  0  0  0  0  0  0  0  0  0  0  0
   37.7950   28.9980   51.2320 H   0  0  0  0  0  0  0  0  0  0  0  0
   38.7670   29.7540   49.1800 H   0  0  0  0  0  0  0  0  0  0  0  0
   34.0220   30.4110   49.9860 H   0  0  0  0  0  0  0  0  0  0  0  0
   40.1230   33.2850   45.9610 C   0  0  0  0  0  0  0  0  0  0  0  0
   39.9860   34.2570   45.0260 F   0  0  0  0  0  0  0  0  0  0  0  0
   41.3110   32.6340   45.6740 F   0  0  0  0  0  0  0  0  0  0  0  0
   40.1910   33.8910   47.2090 F   0  0  0  0  0  0  0  0  0  0  0  0
  1 22  1  0  0  0  0
  2  9  1  0  0  0  0
  2  1  1  0  0  0  0
  3  4  1  0  0  0  0
  3  2  2  0  0  0  0
  4  6  1  0  0  0  0
  5  4  2  0  0  0  0
  6 29  1  0  0  0  0
  6  7  1  0  0  0  0
  7  1  1  0  0  0  0
  7  8  2  0  0  0  0
 10  3  1  0  0  0  0
 11 10  1  0  0  0  0
 11 12  1  0  0  0  0
 13 14  1  0  0  0  0
 13 11  1  0  0  0  0
 15 13  1  0  0  0  0
 15 16  1  0  0  0  0
 16 18  1  0  0  0  0
 17 16  1  0  0  0  0
 18 10  1  0  0  0  0
 18 19  1  0  0  0  0
 20 25  1  0  0  0  0
 20 26  1  0  0  0  0
 21 20  2  0  0  0  0
 22 23  2  0  0  0  0
 22 21  1  0  0  0  0
 23 24  1  0  0  0  0
 24 28  1  0  0  0  0
 24 25  2  0  0  0  0
 27 21  1  0  0  0  0
 29 32  1  0  0  0  0
 30 29  1  0  0  0  0
 31 29  1  0  0  0  0
M  END
>  <minimizedAffinity>
-6.0743432

>  <minimizedRMSD>
0.524266243

$$$$
