
 OpenBabel03272503383D

 27 29  0  0  0  0  0  0  0  0999 V2000
   37.5250   30.6520   46.2760 C   0  0  0  0  0  0  0  0  0  0  0  0
   38.6350   30.2500   45.5290 C   0  0  0  0  0  0  0  0  0  0  0  0
   38.4410   29.9400   44.1880 C   0  0  0  0  0  0  0  0  0  0  0  0
   37.1920   30.0410   43.6710 N   0  0  0  0  0  0  0  0  0  0  0  0
   36.1310   30.4350   44.4210 C   0  0  0  0  0  0  0  0  0  0  0  0
   36.3120   30.7380   45.7270 N   0  0  0  0  0  0  0  0  0  0  0  0
   39.6360   30.1530   45.8830 H   0  0  0  0  0  0  0  0  0  0  0  0
   35.1360   30.5140   44.0020 H   0  0  0  0  0  0  0  0  0  0  0  0
   39.5500   29.5130   43.3390 C   0  0  0  0  0  0  0  0  0  0  0  0
   39.5720   28.3590   42.5990 C   0  0  0  0  0  0  0  0  0  0  0  0
   40.8120   28.3870   41.9690 C   0  0  0  0  0  0  0  0  0  0  0  0
   41.4860   29.5040   42.3220 N   0  0  0  0  0  0  0  0  0  0  0  0
   40.7040   30.1880   43.1630 N   0  0  0  0  0  0  0  0  0  0  0  0
   38.7660   27.6370   42.5620 H   0  0  0  0  0  0  0  0  0  0  0  0
   41.1000   27.5670   41.2990 H   0  0  0  0  0  0  0  0  0  0  0  0
   42.4470   29.7190   41.9570 H   0  0  0  0  0  0  0  0  0  0  0  0
   37.8640   30.9260   47.5890 O   0  0  0  0  0  0  0  0  0  0  0  0
   36.8000   31.0030   48.5270 C   0  0  0  0  0  3  0  0  0  0  0  0
   37.2800   31.8080   49.7070 C   0  0  0  0  0  3  0  0  0  0  0  0
   36.4150   32.3210   50.1910 H   0  0  0  0  0  0  0  0  0  0  0  0
   37.9090   30.9540   50.7600 C   0  0  0  0  0  3  0  0  0  0  0  0
   38.1050   31.6420   51.6340 H   0  0  0  0  0  0  0  0  0  0  0  0
   36.9890   29.9850   51.1470 O   0  0  0  0  0  0  0  0  0  0  0  0
   36.8880   29.0610   50.1100 C   0  0  0  0  0  3  0  0  0  0  0  0
   37.8590   28.5950   49.8730 H   0  0  0  0  0  0  0  0  0  0  0  0
   36.2710   29.6530   48.8700 C   0  0  0  0  0  3  0  0  0  0  0  0
   36.5750   28.9620   48.0330 H   0  0  0  0  0  0  0  0  0  0  0  0
  1 17  1  0  0  0  0
  2  7  1  0  0  0  0
  2  1  2  0  0  0  0
  3  2  1  0  0  0  0
  4  3  2  0  0  0  0
  4  5  1  0  0  0  0
  5  6  2  0  0  0  0
  6  1  1  0  0  0  0
  8  5  1  0  0  0  0
  9  3  1  0  0  0  0
 10  9  1  0  0  0  0
 11 12  1  0  0  0  0
 11 10  2  0  0  0  0
 12 13  1  0  0  0  0
 13  9  2  0  0  0  0
 14 10  1  0  0  0  0
 15 11  1  0  0  0  0
 16 12  1  0  0  0  0
 17 18  1  0  0  0  0
 18 26  1  0  0  0  0
 18 19  1  0  0  0  0
 19 20  1  0  0  0  0
 19 21  1  0  0  0  0
 21 23  1  0  0  0  0
 21 22  1  0  0  0  0
 24 23  1  0  0  0  0
 25 24  1  0  0  0  0
 26 24  1  0  0  0  0
 27 26  1  0  0  0  0
M  END
>  <minimizedAffinity>
-4.78289461

>  <minimizedRMSD>
5.22493219

$$$$
