
 OpenBabel03272509103D

 41 44  0  0  0  0  0  0  0  0999 V2000
   35.1740   29.7700   33.4220 C   0  0  0  0  0  0  0  0  0  0  0  0
   34.2870   29.3850   32.9140 H   0  0  0  0  0  0  0  0  0  0  0  0
   35.5980   30.5330   32.7010 H   0  0  0  0  0  0  0  0  0  0  0  0
   34.9010   30.5500   34.6540 C   0  0  0  0  0  0  0  0  0  0  0  0
   35.8050   31.4370   35.2340 C   0  0  0  0  0  0  0  0  0  0  0  0
   35.4950   32.1360   36.3760 C   0  0  0  0  0  0  0  0  0  0  0  0
   34.2520   31.9680   36.9830 C   0  0  0  0  0  0  0  0  0  0  0  0
   33.3660   31.1010   36.4180 C   0  0  0  0  0  0  0  0  0  0  0  0
   33.6720   30.3950   35.2690 C   0  0  0  0  0  0  0  0  0  0  0  0
   36.7380   31.4820   34.6700 H   0  0  0  0  0  0  0  0  0  0  0  0
   36.3290   32.7640   36.6580 H   0  0  0  0  0  0  0  0  0  0  0  0
   34.1280   32.5700   37.8710 H   0  0  0  0  0  0  0  0  0  0  0  0
   32.4390   31.0490   36.9710 H   0  0  0  0  0  0  0  0  0  0  0  0
   32.5850   29.4960   34.8170 C   0  0  0  0  0  3  0  0  0  0  0  0
   32.0990   28.7100   36.0290 C   0  0  0  0  0  3  0  0  0  0  0  0
   32.0480   29.4690   36.8630 H   0  0  0  0  0  0  0  0  0  0  0  0
   30.7590   28.0770   35.8200 C   0  0  0  0  0  3  0  0  0  0  0  0
   30.8620   26.9860   35.6340 H   0  0  0  0  0  0  0  0  0  0  0  0
   29.9550   28.7080   34.8990 O   0  0  0  0  0  0  0  0  0  0  0  0
   30.1780   30.0970   35.0190 C   0  0  0  0  0  3  0  0  0  0  0  0
   30.2830   30.3650   36.0900 H   0  0  0  0  0  0  0  0  0  0  0  0
   31.4740   30.3360   34.2350 C   0  0  0  0  0  3  0  0  0  0  0  0
   31.6970   31.3950   34.1270 H   0  0  0  0  0  0  0  0  0  0  0  0
   36.3920   27.8910   34.5350 C   0  0  0  0  0  3  0  0  0  0  0  0
   36.2440   28.7700   33.5740 C   0  0  0  0  0  3  0  0  0  0  0  0
   39.4410   26.1870   33.4850 C   0  0  0  0  0  0  0  0  0  0  0  0
   39.6120   25.2420   34.5240 C   0  0  0  0  0  0  0  0  0  0  0  0
   38.6630   25.2250   35.5580 C   0  0  0  0  0  0  0  0  0  0  0  0
   37.6230   26.1170   35.5120 N   0  0  0  0  0  0  0  0  0  0  0  0
   37.5280   26.9960   34.4770 C   0  0  0  0  0  0  0  0  0  0  0  0
   38.4170   27.0280   33.4870 N   0  0  0  0  0  0  0  0  0  0  0  0
   40.1910   26.1870   32.6850 H   0  0  0  0  0  0  0  0  0  0  0  0
   40.4210   24.5390   34.5710 H   0  0  0  0  0  0  0  0  0  0  0  0
   38.7400   24.2870   36.6840 C   0  0  0  0  0  0  0  0  0  0  0  0
   37.9260   24.3850   37.7860 C   0  0  0  0  0  0  0  0  0  0  0  0
   38.2640   23.3420   38.6490 C   0  0  0  0  0  0  0  0  0  0  0  0
   39.2650   22.6580   38.0390 N   0  0  0  0  0  0  0  0  0  0  0  0
   39.5320   23.2300   36.8790 N   0  0  0  0  0  0  0  0  0  0  0  0
   37.1600   25.1340   37.9560 H   0  0  0  0  0  0  0  0  0  0  0  0
   37.8090   23.1360   39.6120 H   0  0  0  0  0  0  0  0  0  0  0  0
   39.7430   21.8130   38.4300 H   0  0  0  0  0  0  0  0  0  0  0  0
  1 25  1  0  0  0  0
  1  4  1  0  0  0  0
  2  1  1  0  0  0  0
  3  1  1  0  0  0  0
  4  5  2  0  0  0  0
  4  9  1  0  0  0  0
  5  6  1  0  0  0  0
  6 11  1  0  0  0  0
  6  7  2  0  0  0  0
  7 12  1  0  0  0  0
  8 13  1  0  0  0  0
  8  7  1  0  0  0  0
  9  8  2  0  0  0  0
 10  5  1  0  0  0  0
 14  9  1  0  0  0  0
 14 15  1  0  0  0  0
 15 16  1  0  0  0  0
 17 15  1  0  0  0  0
 18 17  1  0  0  0  0
 19 20  1  0  0  0  0
 19 17  1  0  0  0  0
 20 21  1  0  0  0  0
 22 14  1  0  0  0  0
 22 20  1  0  0  0  0
 23 22  1  0  0  0  0
 25 24  2  0  0  0  0
 26 31  2  0  0  0  0
 26 27  1  0  0  0  0
 27 33  1  0  0  0  0
 27 28  2  0  0  0  0
 28 34  1  0  0  0  0
 29 28  1  0  0  0  0
 30 24  1  0  0  0  0
 30 29  2  0  0  0  0
 31 30  1  0  0  0  0
 32 26  1  0  0  0  0
 34 38  2  0  0  0  0
 34 35  1  0  0  0  0
 35 39  1  0  0  0  0
 35 36  2  0  0  0  0
 36 40  1  0  0  0  0
 37 41  1  0  0  0  0
 37 36  1  0  0  0  0
 38 37  1  0  0  0  0
M  END
>  <minimizedAffinity>
-6.56481934

$$$$

 OpenBabel03272509103D

 41 44  0  0  0  0  0  0  0  0999 V2000
   36.0160   29.3250   32.5150 C   0  0  0  0  0  0  0  0  0  0  0  0
   36.0840   29.6230   31.4660 H   0  0  0  0  0  0  0  0  0  0  0  0
   36.7570   29.9980   33.0430 H   0  0  0  0  0  0  0  0  0  0  0  0
   34.7200   29.6310   33.1700 C   0  0  0  0  0  0  0  0  0  0  0  0
   33.5190   28.9990   32.8590 C   0  0  0  0  0  0  0  0  0  0  0  0
   32.3480   29.3220   33.5010 C   0  0  0  0  0  0  0  0  0  0  0  0
   32.3410   30.3030   34.4910 C   0  0  0  0  0  0  0  0  0  0  0  0
   33.5140   30.9240   34.7980 C   0  0  0  0  0  0  0  0  0  0  0  0
   34.6960   30.6030   34.1540 C   0  0  0  0  0  0  0  0  0  0  0  0
   33.6510   28.2540   32.0720 H   0  0  0  0  0  0  0  0  0  0  0  0
   31.5390   28.7190   33.1120 H   0  0  0  0  0  0  0  0  0  0  0  0
   31.3640   30.4670   34.9210 H   0  0  0  0  0  0  0  0  0  0  0  0
   33.3920   31.6650   35.5740 H   0  0  0  0  0  0  0  0  0  0  0  0
   35.8590   31.3940   34.6180 C   0  0  0  0  0  3  0  0  0  0  0  0
   35.9800   32.6150   33.7140 C   0  0  0  0  0  3  0  0  0  0  0  0
   34.9200   32.9820   33.5820 H   0  0  0  0  0  0  0  0  0  0  0  0
   36.8340   33.6960   34.2980 C   0  0  0  0  0  3  0  0  0  0  0  0
   37.8340   33.7150   33.8130 H   0  0  0  0  0  0  0  0  0  0  0  0
   36.9000   33.7070   35.6720 O   0  0  0  0  0  0  0  0  0  0  0  0
   35.6300   33.3330   36.1630 C   0  0  0  0  0  3  0  0  0  0  0  0
   34.8400   33.7990   35.5410 H   0  0  0  0  0  0  0  0  0  0  0  0
   35.6240   31.8020   36.0520 C   0  0  0  0  0  3  0  0  0  0  0  0
   34.7500   31.3620   36.5260 H   0  0  0  0  0  0  0  0  0  0  0  0
   36.9080   27.4500   33.9090 C   0  0  0  0  0  3  0  0  0  0  0  0
   36.5060   27.9610   32.7710 C   0  0  0  0  0  3  0  0  0  0  0  0
   37.8090   24.0640   32.8980 C   0  0  0  0  0  0  0  0  0  0  0  0
   38.2030   23.4940   34.1310 C   0  0  0  0  0  0  0  0  0  0  0  0
   38.1440   24.3020   35.2770 C   0  0  0  0  0  0  0  0  0  0  0  0
   37.7090   25.5950   35.1480 N   0  0  0  0  0  0  0  0  0  0  0  0
   37.3470   26.0710   33.9240 C   0  0  0  0  0  0  0  0  0  0  0  0
   37.3960   25.3210   32.8260 N   0  0  0  0  0  0  0  0  0  0  0  0
   37.8620   23.4190   32.0130 H   0  0  0  0  0  0  0  0  0  0  0  0
   38.5450   22.4820   34.2450 H   0  0  0  0  0  0  0  0  0  0  0  0
   38.5260   23.8140   36.6070 C   0  0  0  0  0  0  0  0  0  0  0  0
   37.9860   24.3210   37.7650 C   0  0  0  0  0  0  0  0  0  0  0  0
   38.5650   23.6350   38.8320 C   0  0  0  0  0  0  0  0  0  0  0  0
   39.4290   22.7430   38.2810 N   0  0  0  0  0  0  0  0  0  0  0  0
   39.3920   22.8640   36.9660 N   0  0  0  0  0  0  0  0  0  0  0  0
   37.2450   25.1110   37.8370 H   0  0  0  0  0  0  0  0  0  0  0  0
   38.3560   23.7950   39.8840 H   0  0  0  0  0  0  0  0  0  0  0  0
   40.0250   22.0720   38.8180 H   0  0  0  0  0  0  0  0  0  0  0  0
  1 25  1  0  0  0  0
  1  3  1  0  0  0  0
  1  4  1  0  0  0  0
  2  1  1  0  0  0  0
  4  9  1  0  0  0  0
  5  4  2  0  0  0  0
  5  6  1  0  0  0  0
  6  7  2  0  0  0  0
  7  8  1  0  0  0  0
  7 12  1  0  0  0  0
  8 13  1  0  0  0  0
  9 14  1  0  0  0  0
  9  8  2  0  0  0  0
 10  5  1  0  0  0  0
 11  6  1  0  0  0  0
 14 22  1  0  0  0  0
 15 17  1  0  0  0  0
 15 14  1  0  0  0  0
 16 15  1  0  0  0  0
 17 19  1  0  0  0  0
 18 17  1  0  0  0  0
 19 20  1  0  0  0  0
 21 20  1  0  0  0  0
 22 20  1  0  0  0  0
 22 23  1  0  0  0  0
 24 30  1  0  0  0  0
 25 24  2  0  0  0  0
 26 27  1  0  0  0  0
 27 33  1  0  0  0  0
 27 28  2  0  0  0  0
 28 34  1  0  0  0  0
 29 28  1  0  0  0  0
 30 29  2  0  0  0  0
 31 26  2  0  0  0  0
 31 30  1  0  0  0  0
 32 26  1  0  0  0  0
 34 38  2  0  0  0  0
 34 35  1  0  0  0  0
 35 39  1  0  0  0  0
 35 36  2  0  0  0  0
 36 40  1  0  0  0  0
 37 41  1  0  0  0  0
 37 36  1  0  0  0  0
 38 37  1  0  0  0  0
M  END
>  <minimizedAffinity>
-6.35381174

$$$$

 OpenBabel03272509103D

 41 44  0  0  0  0  0  0  0  0999 V2000
   35.3720   28.7730   32.5120 C   0  0  0  0  0  0  0  0  0  0  0  0
   34.5080   28.7110   33.1780 H   0  0  0  0  0  0  0  0  0  0  0  0
   34.9770   28.4220   31.5110 H   0  0  0  0  0  0  0  0  0  0  0  0
   35.8590   30.1490   32.2460 C   0  0  0  0  0  0  0  0  0  0  0  0
   36.4800   30.5440   31.0630 C   0  0  0  0  0  0  0  0  0  0  0  0
   36.9090   31.8360   30.8720 C   0  0  0  0  0  0  0  0  0  0  0  0
   36.7270   32.7880   31.8720 C   0  0  0  0  0  0  0  0  0  0  0  0
   36.1190   32.4060   33.0300 C   0  0  0  0  0  0  0  0  0  0  0  0
   35.6860   31.1070   33.2290 C   0  0  0  0  0  0  0  0  0  0  0  0
   36.5660   29.7130   30.3610 H   0  0  0  0  0  0  0  0  0  0  0  0
   37.3610   31.9290   29.8940 H   0  0  0  0  0  0  0  0  0  0  0  0
   37.1040   33.7640   31.6040 H   0  0  0  0  0  0  0  0  0  0  0  0
   36.0320   33.2210   33.7330 H   0  0  0  0  0  0  0  0  0  0  0  0
   35.0620   30.8860   34.5540 C   0  0  0  0  0  3  0  0  0  0  0  0
   35.7960   31.7600   35.5640 C   0  0  0  0  0  3  0  0  0  0  0  0
   35.9390   32.7500   35.0390 H   0  0  0  0  0  0  0  0  0  0  0  0
   35.0340   31.9520   36.8370 C   0  0  0  0  0  3  0  0  0  0  0  0
   35.4570   31.3240   37.6510 H   0  0  0  0  0  0  0  0  0  0  0  0
   33.6680   31.8370   36.7200 O   0  0  0  0  0  0  0  0  0  0  0  0
   33.2990   32.3830   35.4720 C   0  0  0  0  0  3  0  0  0  0  0  0
   33.8990   33.2940   35.2740 H   0  0  0  0  0  0  0  0  0  0  0  0
   33.6030   31.2620   34.4700 C   0  0  0  0  0  3  0  0  0  0  0  0
   33.2380   31.4960   33.4730 H   0  0  0  0  0  0  0  0  0  0  0  0
   36.9350   27.5440   34.0280 C   0  0  0  0  0  3  0  0  0  0  0  0
   36.4400   27.8170   32.8460 C   0  0  0  0  0  3  0  0  0  0  0  0
   39.8430   25.4670   33.2990 C   0  0  0  0  0  0  0  0  0  0  0  0
   39.9070   24.6510   34.4530 C   0  0  0  0  0  0  0  0  0  0  0  0
   38.9390   24.8470   35.4500 C   0  0  0  0  0  0  0  0  0  0  0  0
   37.9830   25.8100   35.2590 N   0  0  0  0  0  0  0  0  0  0  0  0
   37.9880   26.5550   34.1190 C   0  0  0  0  0  0  0  0  0  0  0  0
   38.8980   26.3860   33.1620 N   0  0  0  0  0  0  0  0  0  0  0  0
   40.6080   25.3020   32.5310 H   0  0  0  0  0  0  0  0  0  0  0  0
   40.6500   23.8930   34.6150 H   0  0  0  0  0  0  0  0  0  0  0  0
   38.9080   24.0560   36.6860 C   0  0  0  0  0  0  0  0  0  0  0  0
   37.9940   24.2820   37.6870 C   0  0  0  0  0  0  0  0  0  0  0  0
   38.2480   23.3580   38.7010 C   0  0  0  0  0  0  0  0  0  0  0  0
   39.3000   22.6130   38.2760 N   0  0  0  0  0  0  0  0  0  0  0  0
   39.6770   23.0390   37.0840 N   0  0  0  0  0  0  0  0  0  0  0  0
   37.2170   25.0390   37.6890 H   0  0  0  0  0  0  0  0  0  0  0  0
   37.7030   23.2680   39.6340 H   0  0  0  0  0  0  0  0  0  0  0  0
   39.7370   21.8280   38.8120 H   0  0  0  0  0  0  0  0  0  0  0  0
  1 25  1  0  0  0  0
  1  2  1  0  0  0  0
  3  1  1  0  0  0  0
  4  1  1  0  0  0  0
  4  9  1  0  0  0  0
  5  4  2  0  0  0  0
  6  5  1  0  0  0  0
  6  7  2  0  0  0  0
  7  8  1  0  0  0  0
  8  9  2  0  0  0  0
  8 13  1  0  0  0  0
  9 14  1  0  0  0  0
 10  5  1  0  0  0  0
 11  6  1  0  0  0  0
 12  7  1  0  0  0  0
 14 15  1  0  0  0  0
 15 17  1  0  0  0  0
 16 15  1  0  0  0  0
 17 18  1  0  0  0  0
 19 17  1  0  0  0  0
 20 19  1  0  0  0  0
 21 20  1  0  0  0  0
 22 14  1  0  0  0  0
 22 20  1  0  0  0  0
 23 22  1  0  0  0  0
 24 30  1  0  0  0  0
 25 24  2  0  0  0  0
 26 27  1  0  0  0  0
 27 33  1  0  0  0  0
 27 28  2  0  0  0  0
 28 34  1  0  0  0  0
 29 28  1  0  0  0  0
 30 29  2  0  0  0  0
 31 26  2  0  0  0  0
 31 30  1  0  0  0  0
 32 26  1  0  0  0  0
 34 38  2  0  0  0  0
 34 35  1  0  0  0  0
 35 39  1  0  0  0  0
 35 36  2  0  0  0  0
 36 40  1  0  0  0  0
 37 36  1  0  0  0  0
 37 41  1  0  0  0  0
 38 37  1  0  0  0  0
M  END
>  <minimizedAffinity>
-6.2401886

$$$$

 OpenBabel03272509103D

 41 44  0  0  0  0  0  0  0  0999 V2000
   36.2220   29.3610   34.6940 C   0  0  0  0  0  0  0  0  0  0  0  0
   37.0690   30.0030   34.9480 H   0  0  0  0  0  0  0  0  0  0  0  0
   35.5540   29.4090   35.6060 H   0  0  0  0  0  0  0  0  0  0  0  0
   35.3650   29.8640   33.5920 C   0  0  0  0  0  0  0  0  0  0  0  0
   35.8430   30.2310   32.3350 C   0  0  0  0  0  0  0  0  0  0  0  0
   35.0010   30.6880   31.3500 C   0  0  0  0  0  0  0  0  0  0  0  0
   33.6330   30.7950   31.5940 C   0  0  0  0  0  0  0  0  0  0  0  0
   33.1630   30.4380   32.8210 C   0  0  0  0  0  0  0  0  0  0  0  0
   34.0050   29.9770   33.8170 C   0  0  0  0  0  0  0  0  0  0  0  0
   36.9250   30.1040   32.2670 H   0  0  0  0  0  0  0  0  0  0  0  0
   35.5700   30.9160   30.4600 H   0  0  0  0  0  0  0  0  0  0  0  0
   33.0780   31.1660   30.7450 H   0  0  0  0  0  0  0  0  0  0  0  0
   32.0930   30.5630   32.8990 H   0  0  0  0  0  0  0  0  0  0  0  0
   33.3070   29.6510   35.0820 C   0  0  0  0  0  3  0  0  0  0  0  0
   33.2160   30.9310   35.9040 C   0  0  0  0  0  3  0  0  0  0  0  0
   32.9310   31.7320   35.1600 H   0  0  0  0  0  0  0  0  0  0  0  0
   32.1980   30.8540   36.9980 C   0  0  0  0  0  3  0  0  0  0  0  0
   32.6880   30.7110   37.9860 H   0  0  0  0  0  0  0  0  0  0  0  0
   31.1680   29.9700   36.7740 O   0  0  0  0  0  0  0  0  0  0  0  0
   30.8640   30.0100   35.3960 C   0  0  0  0  0  3  0  0  0  0  0  0
   30.9210   31.0560   35.0340 H   0  0  0  0  0  0  0  0  0  0  0  0
   31.9340   29.1180   34.7530 C   0  0  0  0  0  3  0  0  0  0  0  0
   31.7410   28.9450   33.6970 H   0  0  0  0  0  0  0  0  0  0  0  0
   37.3700   27.3820   33.6860 C   0  0  0  0  0  3  0  0  0  0  0  0
   36.5790   27.9380   34.5700 C   0  0  0  0  0  3  0  0  0  0  0  0
   37.6350   23.8470   32.8300 C   0  0  0  0  0  0  0  0  0  0  0  0
   38.0220   23.2820   34.0680 C   0  0  0  0  0  0  0  0  0  0  0  0
   38.1790   24.1460   35.1630 C   0  0  0  0  0  0  0  0  0  0  0  0
   37.9510   25.4850   34.9830 N   0  0  0  0  0  0  0  0  0  0  0  0
   37.5800   25.9520   33.7580 C   0  0  0  0  0  0  0  0  0  0  0  0
   37.4260   25.1490   32.7080 N   0  0  0  0  0  0  0  0  0  0  0  0
   37.5170   23.1570   31.9850 H   0  0  0  0  0  0  0  0  0  0  0  0
   38.2030   22.2350   34.2230 H   0  0  0  0  0  0  0  0  0  0  0  0
   38.5740   23.6690   36.4940 C   0  0  0  0  0  0  0  0  0  0  0  0
   38.0360   24.1760   37.6520 C   0  0  0  0  0  0  0  0  0  0  0  0
   38.6300   23.5020   38.7190 C   0  0  0  0  0  0  0  0  0  0  0  0
   39.5000   22.6170   38.1680 N   0  0  0  0  0  0  0  0  0  0  0  0
   39.4530   22.7300   36.8530 N   0  0  0  0  0  0  0  0  0  0  0  0
   37.2870   24.9580   37.7250 H   0  0  0  0  0  0  0  0  0  0  0  0
   38.4250   23.6650   39.7710 H   0  0  0  0  0  0  0  0  0  0  0  0
   40.1060   21.9550   38.7050 H   0  0  0  0  0  0  0  0  0  0  0  0
  1  2  1  0  0  0  0
  1  3  1  0  0  0  0
  4  9  1  0  0  0  0
  4  1  1  0  0  0  0
  5  4  2  0  0  0  0
  6  7  2  0  0  0  0
  6  5  1  0  0  0  0
  7  8  1  0  0  0  0
  8 13  1  0  0  0  0
  8  9  2  0  0  0  0
  9 14  1  0  0  0  0
 10  5  1  0  0  0  0
 11  6  1  0  0  0  0
 12  7  1  0  0  0  0
 14 15  1  0  0  0  0
 15 17  1  0  0  0  0
 16 15  1  0  0  0  0
 17 18  1  0  0  0  0
 19 17  1  0  0  0  0
 20 19  1  0  0  0  0
 21 20  1  0  0  0  0
 22 14  1  0  0  0  0
 22 20  1  0  0  0  0
 23 22  1  0  0  0  0
 24 30  1  0  0  0  0
 24 25  2  0  0  0  0
 25  1  1  0  0  0  0
 26 27  1  0  0  0  0
 27 33  1  0  0  0  0
 27 28  2  0  0  0  0
 28 34  1  0  0  0  0
 29 28  1  0  0  0  0
 30 29  2  0  0  0  0
 31 26  2  0  0  0  0
 31 30  1  0  0  0  0
 32 26  1  0  0  0  0
 34 38  2  0  0  0  0
 34 35  1  0  0  0  0
 35 39  1  0  0  0  0
 35 36  2  0  0  0  0
 36 40  1  0  0  0  0
 37 41  1  0  0  0  0
 37 36  1  0  0  0  0
 38 37  1  0  0  0  0
M  END
>  <minimizedAffinity>
-6.19072247

$$$$

 OpenBabel03272509103D

 41 44  0  0  0  0  0  0  0  0999 V2000
   36.2620   29.2680   34.6720 C   0  0  0  0  0  0  0  0  0  0  0  0
   37.0660   29.9760   34.4560 H   0  0  0  0  0  0  0  0  0  0  0  0
   36.0450   29.4210   35.7720 H   0  0  0  0  0  0  0  0  0  0  0  0
   34.9700   29.5660   34.0040 C   0  0  0  0  0  0  0  0  0  0  0  0
   33.7220   29.3270   34.5750 C   0  0  0  0  0  0  0  0  0  0  0  0
   32.5570   29.6260   33.9100 C   0  0  0  0  0  0  0  0  0  0  0  0
   32.6040   30.1820   32.6330 C   0  0  0  0  0  0  0  0  0  0  0  0
   33.8230   30.4160   32.0720 C   0  0  0  0  0  0  0  0  0  0  0  0
   34.9990   30.1170   32.7360 C   0  0  0  0  0  0  0  0  0  0  0  0
   33.8150   28.8920   35.5720 H   0  0  0  0  0  0  0  0  0  0  0  0
   31.7080   29.3640   34.5250 H   0  0  0  0  0  0  0  0  0  0  0  0
   31.6260   30.3710   32.2150 H   0  0  0  0  0  0  0  0  0  0  0  0
   33.7410   30.8450   31.0840 H   0  0  0  0  0  0  0  0  0  0  0  0
   36.2180   30.4330   31.9570 C   0  0  0  0  0  3  0  0  0  0  0  0
   36.1660   29.6250   30.6660 C   0  0  0  0  0  3  0  0  0  0  0  0
   35.0960   29.7120   30.3150 H   0  0  0  0  0  0  0  0  0  0  0  0
   37.1010   30.1370   29.6150 C   0  0  0  0  0  3  0  0  0  0  0  0
   37.9990   29.4880   29.5340 H   0  0  0  0  0  0  0  0  0  0  0  0
   37.4090   31.4750   29.7120 O   0  0  0  0  0  0  0  0  0  0  0  0
   36.2490   32.1480   30.1530 C   0  0  0  0  0  3  0  0  0  0  0  0
   35.3570   31.7150   29.6580 H   0  0  0  0  0  0  0  0  0  0  0  0
   36.2370   31.9150   31.6700 C   0  0  0  0  0  3  0  0  0  0  0  0
   35.4650   32.4970   32.1660 H   0  0  0  0  0  0  0  0  0  0  0  0
   37.1360   27.2320   33.5120 C   0  0  0  0  0  3  0  0  0  0  0  0
   36.6760   27.8590   34.5670 C   0  0  0  0  0  3  0  0  0  0  0  0
   37.8310   23.7250   32.7900 C   0  0  0  0  0  0  0  0  0  0  0  0
   38.1780   23.2340   34.0700 C   0  0  0  0  0  0  0  0  0  0  0  0
   38.1610   24.1350   35.1460 C   0  0  0  0  0  0  0  0  0  0  0  0
   37.8100   25.4380   34.9080 N   0  0  0  0  0  0  0  0  0  0  0  0
   37.4870   25.8340   33.6450 C   0  0  0  0  0  0  0  0  0  0  0  0
   37.4980   24.9960   32.6120 N   0  0  0  0  0  0  0  0  0  0  0  0
   37.8500   23.0080   31.9610 H   0  0  0  0  0  0  0  0  0  0  0  0
   38.4550   22.2160   34.2710 H   0  0  0  0  0  0  0  0  0  0  0  0
   38.5010   23.7350   36.5170 C   0  0  0  0  0  0  0  0  0  0  0  0
   37.9580   24.3440   37.6220 C   0  0  0  0  0  0  0  0  0  0  0  0
   38.4940   23.7190   38.7490 C   0  0  0  0  0  0  0  0  0  0  0  0
   39.3360   22.7610   38.2830 N   0  0  0  0  0  0  0  0  0  0  0  0
   39.3270   22.7850   36.9630 N   0  0  0  0  0  0  0  0  0  0  0  0
   37.2440   25.1610   37.6210 H   0  0  0  0  0  0  0  0  0  0  0  0
   38.2710   23.9630   39.7810 H   0  0  0  0  0  0  0  0  0  0  0  0
   39.8980   22.1120   38.8810 H   0  0  0  0  0  0  0  0  0  0  0  0
  1  3  1  0  0  0  0
  2  1  1  0  0  0  0
  4  5  1  0  0  0  0
  4  1  1  0  0  0  0
  5 10  1  0  0  0  0
  6 11  1  0  0  0  0
  6  5  2  0  0  0  0
  7  6  1  0  0  0  0
  8  7  2  0  0  0  0
  8  9  1  0  0  0  0
  9  4  2  0  0  0  0
 12  7  1  0  0  0  0
 13  8  1  0  0  0  0
 14  9  1  0  0  0  0
 15 14  1  0  0  0  0
 16 15  1  0  0  0  0
 17 19  1  0  0  0  0
 17 15  1  0  0  0  0
 18 17  1  0  0  0  0
 19 20  1  0  0  0  0
 20 22  1  0  0  0  0
 21 20  1  0  0  0  0
 22 14  1  0  0  0  0
 22 23  1  0  0  0  0
 24 30  1  0  0  0  0
 24 25  2  0  0  0  0
 25  1  1  0  0  0  0
 26 27  1  0  0  0  0
 27 33  1  0  0  0  0
 27 28  2  0  0  0  0
 28 34  1  0  0  0  0
 29 28  1  0  0  0  0
 30 29  2  0  0  0  0
 31 26  2  0  0  0  0
 31 30  1  0  0  0  0
 32 26  1  0  0  0  0
 34 38  2  0  0  0  0
 34 35  1  0  0  0  0
 35 36  2  0  0  0  0
 36 40  1  0  0  0  0
 37 36  1  0  0  0  0
 37 41  1  0  0  0  0
 38 37  1  0  0  0  0
 39 35  1  0  0  0  0
M  END
>  <minimizedAffinity>
-5.9813776

$$$$

 OpenBabel03272509103D

 41 44  0  0  0  0  0  0  0  0999 V2000
   38.2240   26.0840   32.1820 C   0  0  0  0  0  0  0  0  0  0  0  0
   38.3520   25.7300   31.1560 H   0  0  0  0  0  0  0  0  0  0  0  0
   37.6890   25.2340   32.7040 H   0  0  0  0  0  0  0  0  0  0  0  0
   39.4840   26.2430   32.9500 C   0  0  0  0  0  0  0  0  0  0  0  0
   40.5070   27.1210   32.6000 C   0  0  0  0  0  0  0  0  0  0  0  0
   41.6520   27.2290   33.3520 C   0  0  0  0  0  0  0  0  0  0  0  0
   41.8130   26.4490   34.4960 C   0  0  0  0  0  0  0  0  0  0  0  0
   40.8150   25.5890   34.8410 C   0  0  0  0  0  0  0  0  0  0  0  0
   39.6600   25.4760   34.0880 C   0  0  0  0  0  0  0  0  0  0  0  0
   40.2660   27.6730   31.6900 H   0  0  0  0  0  0  0  0  0  0  0  0
   42.3130   27.9610   32.9090 H   0  0  0  0  0  0  0  0  0  0  0  0
   42.7520   26.6230   35.0000 H   0  0  0  0  0  0  0  0  0  0  0  0
   41.0460   25.0370   35.7400 H   0  0  0  0  0  0  0  0  0  0  0  0
   38.7000   24.4810   34.6190 C   0  0  0  0  0  3  0  0  0  0  0  0
   39.4930   23.2500   35.0390 C   0  0  0  0  0  3  0  0  0  0  0  0
   40.4040   23.6600   35.5660 H   0  0  0  0  0  0  0  0  0  0  0  0
   38.7300   22.3440   35.9530 C   0  0  0  0  0  3  0  0  0  0  0  0
   38.3640   21.4470   35.4070 H   0  0  0  0  0  0  0  0  0  0  0  0
   37.7500   22.9590   36.6980 O   0  0  0  0  0  0  0  0  0  0  0  0
   38.2240   24.2410   37.0500 C   0  0  0  0  0  3  0  0  0  0  0  0
   39.3020   24.1810   37.3060 H   0  0  0  0  0  0  0  0  0  0  0  0
   37.9750   25.0880   35.7950 C   0  0  0  0  0  3  0  0  0  0  0  0
   38.1700   26.1440   35.9700 H   0  0  0  0  0  0  0  0  0  0  0  0
   36.7930   27.7400   33.3920 C   0  0  0  0  0  3  0  0  0  0  0  0
   37.3060   27.2280   32.2990 C   0  0  0  0  0  3  0  0  0  0  0  0
   34.5990   30.3200   32.0400 C   0  0  0  0  0  0  0  0  0  0  0  0
   34.2540   31.0410   33.2070 C   0  0  0  0  0  0  0  0  0  0  0  0
   34.7940   30.6100   34.4290 C   0  0  0  0  0  0  0  0  0  0  0  0
   35.6240   29.5200   34.4330 N   0  0  0  0  0  0  0  0  0  0  0  0
   35.9090   28.8780   33.2650 C   0  0  0  0  0  0  0  0  0  0  0  0
   35.4080   29.2720   32.0970 N   0  0  0  0  0  0  0  0  0  0  0  0
   34.1690   30.6710   31.0940 H   0  0  0  0  0  0  0  0  0  0  0  0
   33.6050   31.8970   33.2180 H   0  0  0  0  0  0  0  0  0  0  0  0
   34.5060   31.2840   35.7010 C   0  0  0  0  0  0  0  0  0  0  0  0
   33.2490   31.3140   36.2540 C   0  0  0  0  0  0  0  0  0  0  0  0
   33.3360   32.0280   37.4490 C   0  0  0  0  0  0  0  0  0  0  0  0
   34.6360   32.4000   37.5720 N   0  0  0  0  0  0  0  0  0  0  0  0
   35.3120   31.9510   36.5300 N   0  0  0  0  0  0  0  0  0  0  0  0
   32.3520   30.8660   35.8390 H   0  0  0  0  0  0  0  0  0  0  0  0
   32.5180   32.2350   38.1310 H   0  0  0  0  0  0  0  0  0  0  0  0
   35.0310   32.9530   38.3670 H   0  0  0  0  0  0  0  0  0  0  0  0
  1 25  1  0  0  0  0
  1  3  1  0  0  0  0
  1  4  1  0  0  0  0
  2  1  1  0  0  0  0
  4  9  1  0  0  0  0
  5  4  2  0  0  0  0
  5  6  1  0  0  0  0
  6  7  2  0  0  0  0
  7  8  1  0  0  0  0
  7 12  1  0  0  0  0
  8 13  1  0  0  0  0
  9 14  1  0  0  0  0
  9  8  2  0  0  0  0
 10  5  1  0  0  0  0
 11  6  1  0  0  0  0
 14 15  1  0  0  0  0
 14 22  1  0  0  0  0
 15 16  1  0  0  0  0
 15 17  1  0  0  0  0
 17 19  1  0  0  0  0
 18 17  1  0  0  0  0
 19 20  1  0  0  0  0
 20 21  1  0  0  0  0
 22 23  1  0  0  0  0
 22 20  1  0  0  0  0
 25 24  2  0  0  0  0
 26 31  2  0  0  0  0
 26 27  1  0  0  0  0
 27 33  1  0  0  0  0
 27 28  2  0  0  0  0
 28 29  1  0  0  0  0
 28 34  1  0  0  0  0
 30 24  1  0  0  0  0
 30 29  2  0  0  0  0
 31 30  1  0  0  0  0
 32 26  1  0  0  0  0
 34 35  1  0  0  0  0
 34 38  2  0  0  0  0
 35 36  2  0  0  0  0
 36 37  1  0  0  0  0
 36 40  1  0  0  0  0
 37 41  1  0  0  0  0
 38 37  1  0  0  0  0
 39 35  1  0  0  0  0
M  END
>  <minimizedAffinity>
-5.91311455

$$$$

 OpenBabel03272509103D

 41 44  0  0  0  0  0  0  0  0999 V2000
   36.1700   22.9120   31.1430 C   0  0  0  0  0  0  0  0  0  0  0  0
   36.6710   23.1560   30.2020 H   0  0  0  0  0  0  0  0  0  0  0  0
   35.1110   23.2840   30.9980 H   0  0  0  0  0  0  0  0  0  0  0  0
   36.0090   21.4600   31.4070 C   0  0  0  0  0  0  0  0  0  0  0  0
   34.8920   20.8970   32.0200 C   0  0  0  0  0  0  0  0  0  0  0  0
   34.7960   19.5430   32.2370 C   0  0  0  0  0  0  0  0  0  0  0  0
   35.8300   18.6970   31.8420 C   0  0  0  0  0  0  0  0  0  0  0  0
   36.9240   19.2450   31.2420 C   0  0  0  0  0  0  0  0  0  0  0  0
   37.0260   20.6070   31.0210 C   0  0  0  0  0  0  0  0  0  0  0  0
   34.1540   21.6570   32.2830 H   0  0  0  0  0  0  0  0  0  0  0  0
   33.8570   19.3160   32.7220 H   0  0  0  0  0  0  0  0  0  0  0  0
   35.6390   17.6580   32.0660 H   0  0  0  0  0  0  0  0  0  0  0  0
   37.6610   18.5000   30.9800 H   0  0  0  0  0  0  0  0  0  0  0  0
   38.2930   21.0090   30.3690 C   0  0  0  0  0  3  0  0  0  0  0  0
   39.4030   20.9060   31.4080 C   0  0  0  0  0  3  0  0  0  0  0  0
   39.1990   19.9370   31.9520 H   0  0  0  0  0  0  0  0  0  0  0  0
   40.7730   20.8830   30.8040 C   0  0  0  0  0  3  0  0  0  0  0  0
   41.2750   21.8670   30.9270 H   0  0  0  0  0  0  0  0  0  0  0  0
   40.8330   20.4030   29.5170 O   0  0  0  0  0  0  0  0  0  0  0  0
   39.8890   19.3590   29.4060 C   0  0  0  0  0  3  0  0  0  0  0  0
   39.8970   18.7510   30.3340 H   0  0  0  0  0  0  0  0  0  0  0  0
   38.5530   20.0840   29.2040 C   0  0  0  0  0  3  0  0  0  0  0  0
   37.7460   19.3950   28.9670 H   0  0  0  0  0  0  0  0  0  0  0  0
   36.9830   24.9480   32.3440 C   0  0  0  0  0  3  0  0  0  0  0  0
   36.6780   23.6750   32.2940 C   0  0  0  0  0  3  0  0  0  0  0  0
   37.8670   27.2270   35.0510 C   0  0  0  0  0  0  0  0  0  0  0  0
   38.4150   26.3380   36.0050 C   0  0  0  0  0  0  0  0  0  0  0  0
   38.4620   24.9730   35.6790 C   0  0  0  0  0  0  0  0  0  0  0  0
   37.9790   24.5700   34.4620 N   0  0  0  0  0  0  0  0  0  0  0  0
   37.4660   25.4890   33.5970 C   0  0  0  0  0  0  0  0  0  0  0  0
   37.4130   26.7870   33.8860 N   0  0  0  0  0  0  0  0  0  0  0  0
   37.8380   28.2890   35.3210 H   0  0  0  0  0  0  0  0  0  0  0  0
   38.7970   26.6400   36.9620 H   0  0  0  0  0  0  0  0  0  0  0  0
   39.0110   23.9630   36.5910 C   0  0  0  0  0  0  0  0  0  0  0  0
   40.1890   23.3010   36.3400 C   0  0  0  0  0  0  0  0  0  0  0  0
   40.4100   22.4240   37.4020 C   0  0  0  0  0  0  0  0  0  0  0  0
   39.3630   22.5880   38.2500 N   0  0  0  0  0  0  0  0  0  0  0  0
   38.5470   23.5010   37.7550 N   0  0  0  0  0  0  0  0  0  0  0  0
   40.8300   23.4340   35.4750 H   0  0  0  0  0  0  0  0  0  0  0  0
   41.2540   21.7520   37.5100 H   0  0  0  0  0  0  0  0  0  0  0  0
   39.2300   22.0710   39.1500 H   0  0  0  0  0  0  0  0  0  0  0  0
  1  4  1  0  0  0  0
  1 25  1  0  0  0  0
  2  1  1  0  0  0  0
  3  1  1  0  0  0  0
  4  5  1  0  0  0  0
  5  6  2  0  0  0  0
  5 10  1  0  0  0  0
  6 11  1  0  0  0  0
  7 12  1  0  0  0  0
  7  6  1  0  0  0  0
  8  7  2  0  0  0  0
  9  8  1  0  0  0  0
  9  4  2  0  0  0  0
 13  8  1  0  0  0  0
 14  9  1  0  0  0  0
 14 15  1  0  0  0  0
 15 16  1  0  0  0  0
 17 18  1  0  0  0  0
 17 15  1  0  0  0  0
 19 17  1  0  0  0  0
 20 19  1  0  0  0  0
 20 21  1  0  0  0  0
 22 20  1  0  0  0  0
 22 14  1  0  0  0  0
 23 22  1  0  0  0  0
 24 30  1  0  0  0  0
 25 24  2  0  0  0  0
 26 32  1  0  0  0  0
 26 27  1  0  0  0  0
 27 33  1  0  0  0  0
 28 27  2  0  0  0  0
 28 34  1  0  0  0  0
 29 28  1  0  0  0  0
 30 31  1  0  0  0  0
 30 29  2  0  0  0  0
 31 26  2  0  0  0  0
 34 38  2  0  0  0  0
 35 34  1  0  0  0  0
 35 36  2  0  0  0  0
 36 40  1  0  0  0  0
 36 37  1  0  0  0  0
 37 41  1  0  0  0  0
 38 37  1  0  0  0  0
 39 35  1  0  0  0  0
M  END
>  <minimizedAffinity>
-5.90993452

$$$$

 OpenBabel03272509103D

 41 44  0  0  0  0  0  0  0  0999 V2000
   38.9680   26.6490   35.2900 C   0  0  0  0  0  0  0  0  0  0  0  0
   39.7720   27.1860   35.7990 H   0  0  0  0  0  0  0  0  0  0  0  0
   39.4380   26.3010   34.3210 H   0  0  0  0  0  0  0  0  0  0  0  0
   38.5370   25.3940   35.9540 C   0  0  0  0  0  0  0  0  0  0  0  0
   38.1240   25.3140   37.2820 C   0  0  0  0  0  0  0  0  0  0  0  0
   37.7310   24.1220   37.8430 C   0  0  0  0  0  0  0  0  0  0  0  0
   37.7390   22.9550   37.0820 C   0  0  0  0  0  0  0  0  0  0  0  0
   38.1430   23.0300   35.7830 C   0  0  0  0  0  0  0  0  0  0  0  0
   38.5390   24.2260   35.2130 C   0  0  0  0  0  0  0  0  0  0  0  0
   38.1610   26.2880   37.7710 H   0  0  0  0  0  0  0  0  0  0  0  0
   37.4520   24.2790   38.8760 H   0  0  0  0  0  0  0  0  0  0  0  0
   37.4110   22.0860   37.6330 H   0  0  0  0  0  0  0  0  0  0  0  0
   38.1110   22.0690   35.2910 H   0  0  0  0  0  0  0  0  0  0  0  0
   38.9520   24.1000   33.7960 C   0  0  0  0  0  3  0  0  0  0  0  0
   39.8420   22.8680   33.6800 C   0  0  0  0  0  3  0  0  0  0  0  0
   39.3290   22.0820   34.3080 H   0  0  0  0  0  0  0  0  0  0  0  0
   39.9970   22.3860   32.2720 C   0  0  0  0  0  3  0  0  0  0  0  0
   40.9920   22.6700   31.8640 H   0  0  0  0  0  0  0  0  0  0  0  0
   38.9570   22.7070   31.4290 O   0  0  0  0  0  0  0  0  0  0  0  0
   37.7630   22.6290   32.1780 C   0  0  0  0  0  3  0  0  0  0  0  0
   37.8090   21.7570   32.8610 H   0  0  0  0  0  0  0  0  0  0  0  0
   37.7150   23.9590   32.9430 C   0  0  0  0  0  3  0  0  0  0  0  0
   36.7710   24.0970   33.4630 H   0  0  0  0  0  0  0  0  0  0  0  0
   37.2590   27.5560   33.7060 C   0  0  0  0  0  3  0  0  0  0  0  0
   37.8540   27.5160   34.8730 C   0  0  0  0  0  3  0  0  0  0  0  0
   34.4970   29.4590   32.2750 C   0  0  0  0  0  0  0  0  0  0  0  0
   34.1560   30.3170   33.3470 C   0  0  0  0  0  0  0  0  0  0  0  0
   34.8950   30.2090   34.5350 C   0  0  0  0  0  0  0  0  0  0  0  0
   35.9060   29.2850   34.5990 N   0  0  0  0  0  0  0  0  0  0  0  0
   36.1740   28.4950   33.5220 C   0  0  0  0  0  0  0  0  0  0  0  0
   35.4840   28.5820   32.3870 N   0  0  0  0  0  0  0  0  0  0  0  0
   33.9080   29.5570   31.3550 H   0  0  0  0  0  0  0  0  0  0  0  0
   33.3670   31.0440   33.3100 H   0  0  0  0  0  0  0  0  0  0  0  0
   34.6300   31.0490   35.7090 C   0  0  0  0  0  0  0  0  0  0  0  0
   33.3600   31.2940   36.1720 C   0  0  0  0  0  0  0  0  0  0  0  0
   33.4750   32.1190   37.2910 C   0  0  0  0  0  0  0  0  0  0  0  0
   34.8040   32.3410   37.4600 N   0  0  0  0  0  0  0  0  0  0  0  0
   35.4700   31.7010   36.5160 N   0  0  0  0  0  0  0  0  0  0  0  0
   32.4360   30.9150   35.7470 H   0  0  0  0  0  0  0  0  0  0  0  0
   32.6560   32.4990   37.8920 H   0  0  0  0  0  0  0  0  0  0  0  0
   35.2250   32.9260   38.2180 H   0  0  0  0  0  0  0  0  0  0  0  0
  1  2  1  0  0  0  0
  1  4  1  0  0  0  0
  3  1  1  0  0  0  0
  4  5  1  0  0  0  0
  5 10  1  0  0  0  0
  5  6  2  0  0  0  0
  6 11  1  0  0  0  0
  7 12  1  0  0  0  0
  7  6  1  0  0  0  0
  8  7  2  0  0  0  0
  9  8  1  0  0  0  0
  9  4  2  0  0  0  0
 13  8  1  0  0  0  0
 14  9  1  0  0  0  0
 15 14  1  0  0  0  0
 15 16  1  0  0  0  0
 17 15  1  0  0  0  0
 18 17  1  0  0  0  0
 19 20  1  0  0  0  0
 19 17  1  0  0  0  0
 20 21  1  0  0  0  0
 20 22  1  0  0  0  0
 22 23  1  0  0  0  0
 22 14  1  0  0  0  0
 24 25  2  0  0  0  0
 25  1  1  0  0  0  0
 26 31  2  0  0  0  0
 26 27  1  0  0  0  0
 27 28  2  0  0  0  0
 28 29  1  0  0  0  0
 28 34  1  0  0  0  0
 30 24  1  0  0  0  0
 30 29  2  0  0  0  0
 31 30  1  0  0  0  0
 32 26  1  0  0  0  0
 33 27  1  0  0  0  0
 34 35  1  0  0  0  0
 34 38  2  0  0  0  0
 35 36  2  0  0  0  0
 36 37  1  0  0  0  0
 36 40  1  0  0  0  0
 37 41  1  0  0  0  0
 38 37  1  0  0  0  0
 39 35  1  0  0  0  0
M  END
>  <minimizedAffinity>
-5.85230589

$$$$

 OpenBabel03272509103D

 41 44  0  0  0  0  0  0  0  0999 V2000
   34.9140   30.1970   33.6180 C   0  0  0  0  0  0  0  0  0  0  0  0
   34.0770   29.9970   32.9450 H   0  0  0  0  0  0  0  0  0  0  0  0
   35.5200   30.9870   33.0800 H   0  0  0  0  0  0  0  0  0  0  0  0
   34.5440   30.8400   34.9030 C   0  0  0  0  0  0  0  0  0  0  0  0
   35.3230   31.7950   35.5520 C   0  0  0  0  0  0  0  0  0  0  0  0
   34.9270   32.3600   36.7410 C   0  0  0  0  0  0  0  0  0  0  0  0
   33.7210   31.9820   37.3280 C   0  0  0  0  0  0  0  0  0  0  0  0
   32.9570   31.0480   36.6950 C   0  0  0  0  0  0  0  0  0  0  0  0
   33.3500   30.4760   35.4990 C   0  0  0  0  0  0  0  0  0  0  0  0
   36.2390   32.0070   34.9990 H   0  0  0  0  0  0  0  0  0  0  0  0
   35.6710   33.0710   37.0730 H   0  0  0  0  0  0  0  0  0  0  0  0
   33.5210   32.4940   38.2570 H   0  0  0  0  0  0  0  0  0  0  0  0
   32.0480   30.8300   37.2380 H   0  0  0  0  0  0  0  0  0  0  0  0
   32.3910   29.4750   34.9760 C   0  0  0  0  0  3  0  0  0  0  0  0
   32.0540   28.5180   36.1120 C   0  0  0  0  0  3  0  0  0  0  0  0
   31.9150   29.1810   37.0160 H   0  0  0  0  0  0  0  0  0  0  0  0
   30.8130   27.7200   35.8590 C   0  0  0  0  0  3  0  0  0  0  0  0
   31.0650   26.6770   35.5690 H   0  0  0  0  0  0  0  0  0  0  0  0
   29.9040   28.3110   35.0110 O   0  0  0  0  0  0  0  0  0  0  0  0
   29.9290   29.7000   35.2610 C   0  0  0  0  0  3  0  0  0  0  0  0
   30.0220   29.8800   36.3510 H   0  0  0  0  0  0  0  0  0  0  0  0
   31.1580   30.1960   34.4880 C   0  0  0  0  0  3  0  0  0  0  0  0
   31.2240   31.2810   34.4790 H   0  0  0  0  0  0  0  0  0  0  0  0
   36.5230   28.7110   34.8250 C   0  0  0  0  0  3  0  0  0  0  0  0
   35.8350   29.0580   33.7650 C   0  0  0  0  0  3  0  0  0  0  0  0
   39.1860   26.2830   35.3840 C   0  0  0  0  0  0  0  0  0  0  0  0
   38.8490   25.2720   34.4550 C   0  0  0  0  0  0  0  0  0  0  0  0
   37.7070   25.4630   33.6610 C   0  0  0  0  0  0  0  0  0  0  0  0
   36.9790   26.6120   33.8230 N   0  0  0  0  0  0  0  0  0  0  0  0
   37.3690   27.5400   34.7400 C   0  0  0  0  0  0  0  0  0  0  0  0
   38.4480   27.3780   35.5020 N   0  0  0  0  0  0  0  0  0  0  0  0
   40.0810   26.1170   35.9960 H   0  0  0  0  0  0  0  0  0  0  0  0
   39.4110   24.3670   34.3180 H   0  0  0  0  0  0  0  0  0  0  0  0
   37.2660   24.4810   32.6630 C   0  0  0  0  0  0  0  0  0  0  0  0
   37.7660   23.2020   32.6120 C   0  0  0  0  0  0  0  0  0  0  0  0
   37.1330   22.5480   31.5560 C   0  0  0  0  0  0  0  0  0  0  0  0
   36.2790   23.4520   31.0110 N   0  0  0  0  0  0  0  0  0  0  0  0
   36.3710   24.5880   31.6790 N   0  0  0  0  0  0  0  0  0  0  0  0
   38.5160   22.7780   33.2720 H   0  0  0  0  0  0  0  0  0  0  0  0
   37.3020   21.5230   31.2450 H   0  0  0  0  0  0  0  0  0  0  0  0
   35.6500   23.2700   30.1940 H   0  0  0  0  0  0  0  0  0  0  0  0
  1 25  1  0  0  0  0
  1  4  1  0  0  0  0
  2  1  1  0  0  0  0
  3  1  1  0  0  0  0
  4  9  2  0  0  0  0
  4  5  1  0  0  0  0
  5  6  2  0  0  0  0
  6 11  1  0  0  0  0
  6  7  1  0  0  0  0
  7 12  1  0  0  0  0
  8 13  1  0  0  0  0
  8  7  2  0  0  0  0
  9  8  1  0  0  0  0
 10  5  1  0  0  0  0
 14  9  1  0  0  0  0
 14 15  1  0  0  0  0
 15 16  1  0  0  0  0
 17 15  1  0  0  0  0
 18 17  1  0  0  0  0
 19 20  1  0  0  0  0
 19 17  1  0  0  0  0
 20 21  1  0  0  0  0
 22 14  1  0  0  0  0
 22 20  1  0  0  0  0
 23 22  1  0  0  0  0
 25 24  2  0  0  0  0
 26 31  1  0  0  0  0
 26 32  1  0  0  0  0
 27 26  2  0  0  0  0
 28 29  2  0  0  0  0
 28 27  1  0  0  0  0
 29 30  1  0  0  0  0
 30 24  1  0  0  0  0
 30 31  2  0  0  0  0
 33 27  1  0  0  0  0
 34 28  1  0  0  0  0
 35 34  1  0  0  0  0
 35 39  1  0  0  0  0
 36 35  2  0  0  0  0
 37 36  1  0  0  0  0
 37 38  1  0  0  0  0
 38 34  2  0  0  0  0
 40 36  1  0  0  0  0
 41 37  1  0  0  0  0
M  END
>  <minimizedAffinity>
-5.84215355

$$$$
