
 OpenBabel03262523173D

 40 43  0  0  0  0  0  0  0  0999 V2000
   36.9480   27.2150   32.7500 C   0  0  0  0  0  0  0  0  0  0  0  0
   37.2260   27.6150   31.4580 C   0  0  0  0  0  0  0  0  0  0  0  0
   36.8390   28.8990   31.1780 C   0  0  0  0  0  0  0  0  0  0  0  0
   36.2280   29.7210   32.0960 C   0  0  0  0  0  0  0  0  0  0  0  0
   35.9910   29.2400   33.3550 C   0  0  0  0  0  0  0  0  0  0  0  0
   36.3560   27.9830   33.6710 N   0  0  0  0  0  0  0  0  0  0  0  0
   37.7080   26.9610   30.7430 H   0  0  0  0  0  0  0  0  0  0  0  0
   37.0380   29.2650   30.1590 H   0  0  0  0  0  0  0  0  0  0  0  0
   35.9780   30.7040   31.7610 H   0  0  0  0  0  0  0  0  0  0  0  0
   32.9680   29.2100   33.3850 Cl  0  0  0  0  0  0  0  0  0  0  0  0
   33.9760   30.1170   34.4690 C   0  0  0  0  0  0  0  0  0  0  0  0
   35.3470   30.0560   34.3650 C   0  0  0  0  0  0  0  0  0  0  0  0
   36.0190   30.8320   35.3000 C   0  0  0  0  0  0  0  0  0  0  0  0
   35.4200   31.6020   36.2540 C   0  0  0  0  0  0  0  0  0  0  0  0
   34.0330   31.6340   36.3230 C   0  0  0  0  0  0  0  0  0  0  0  0
   33.2310   32.6060   37.5300 Cl  0  0  0  0  0  0  0  0  0  0  0  0
   33.3280   30.8830   35.4200 C   0  0  0  0  0  0  0  0  0  0  0  0
   37.1060   30.8300   35.2730 H   0  0  0  0  0  0  0  0  0  0  0  0
   35.9800   32.1930   36.9660 H   0  0  0  0  0  0  0  0  0  0  0  0
   32.2480   30.9120   35.4810 H   0  0  0  0  0  0  0  0  0  0  0  0
   37.5070   23.5820   32.7090 C   0  0  0  0  0  0  0  0  0  0  0  0
   38.0290   23.3310   33.9820 C   0  0  0  0  0  0  0  0  0  0  0  0
   38.1790   24.4080   34.8310 C   0  0  0  0  0  0  0  0  0  0  0  0
   37.8210   25.6250   34.3950 N   0  0  0  0  0  0  0  0  0  0  0  0
   37.3220   25.8540   33.1740 C   0  0  0  0  0  0  0  0  0  0  0  0
   37.1710   24.8070   32.3350 N   0  0  0  0  0  0  0  0  0  0  0  0
   38.2950   22.3220   34.2620 H   0  0  0  0  0  0  0  0  0  0  0  0
   38.7270   24.2320   36.2010 C   0  0  0  0  0  3  0  0  0  0  0  0
   37.5860   24.2670   37.2140 C   0  0  0  0  0  3  0  0  0  0  0  0
   37.3520   25.2990   37.5360 H   0  0  0  0  0  0  0  0  0  0  0  0
   38.0130   23.3800   38.3710 C   0  0  0  0  0  3  0  0  0  0  0  0
   37.7410   22.3180   38.1850 H   0  0  0  0  0  0  0  0  0  0  0  0
   39.3920   23.4340   38.5830 O   0  0  0  0  0  0  0  0  0  0  0  0
   40.0280   22.6800   37.5990 C   0  0  0  0  0  3  0  0  0  0  0  0
   41.0820   23.0400   37.4950 H   0  0  0  0  0  0  0  0  0  0  0  0
   39.3030   22.8120   36.2650 C   0  0  0  0  0  3  0  0  0  0  0  0
   40.0230   22.6270   35.4410 H   0  0  0  0  0  0  0  0  0  0  0  0
   37.3080   22.5270   31.7400 N   0  0  0  0  0  0  0  0  0  0  0  0
   37.5800   22.6760   30.7220 H   0  0  0  0  0  0  0  0  0  0  0  0
   36.8890   21.6670   32.1620 H   0  0  0  0  0  0  0  0  0  0  0  0
  1 25  1  0  0  0  0
  1  6  1  0  0  0  0
  2  1  2  0  0  0  0
  3  2  1  0  0  0  0
  3  4  2  0  0  0  0
  4  5  1  0  0  0  0
  5  6  2  0  0  0  0
  5 12  1  0  0  0  0
  7  2  1  0  0  0  0
  8  3  1  0  0  0  0
  9  4  1  0  0  0  0
 10 11  1  0  0  0  0
 11 17  1  0  0  0  0
 12 11  2  0  0  0  0
 12 13  1  0  0  0  0
 13 14  2  0  0  0  0
 14 15  1  0  0  0  0
 14 19  1  0  0  0  0
 15 16  1  0  0  0  0
 17 20  1  0  0  0  0
 17 15  2  0  0  0  0
 18 13  1  0  0  0  0
 21 22  1  0  0  0  0
 22 27  1  0  0  0  0
 22 23  2  0  0  0  0
 23 28  1  0  0  0  0
 24 23  1  0  0  0  0
 25 24  2  0  0  0  0
 26 21  2  0  0  0  0
 26 25  1  0  0  0  0
 28 36  1  0  0  0  0
 28 29  1  0  0  0  0
 29 30  1  0  0  0  0
 29 31  1  0  0  0  0
 31 33  1  0  0  0  0
 32 31  1  0  0  0  0
 34 33  1  0  0  0  0
 35 34  1  0  0  0  0
 36 34  1  0  0  0  0
 37 36  1  0  0  0  0
 38 40  1  0  0  0  0
 38 21  1  0  0  0  0
 39 38  1  0  0  0  0
M  END
>  <minimizedAffinity>
-7.06810617

$$$$

 OpenBabel03262523173D

 40 43  0  0  0  0  0  0  0  0999 V2000
   38.8980   25.2070   33.4800 C   0  0  0  0  0  0  0  0  0  0  0  0
   39.2640   26.5280   33.6440 C   0  0  0  0  0  0  0  0  0  0  0  0
   40.3700   26.7040   34.4350 C   0  0  0  0  0  0  0  0  0  0  0  0
   41.0570   25.6640   35.0140 C   0  0  0  0  0  0  0  0  0  0  0  0
   40.6220   24.3850   34.7960 C   0  0  0  0  0  0  0  0  0  0  0  0
   39.5400   24.1680   34.0260 N   0  0  0  0  0  0  0  0  0  0  0  0
   38.7170   27.3400   33.1840 H   0  0  0  0  0  0  0  0  0  0  0  0
   40.7020   27.7420   34.5970 H   0  0  0  0  0  0  0  0  0  0  0  0
   41.9080   25.9280   35.6050 H   0  0  0  0  0  0  0  0  0  0  0  0
   39.3860   23.2200   37.2970 Cl  0  0  0  0  0  0  0  0  0  0  0  0
   40.8260   22.6390   36.5220 C   0  0  0  0  0  0  0  0  0  0  0  0
   41.3020   23.2470   35.3830 C   0  0  0  0  0  0  0  0  0  0  0  0
   42.4600   22.6720   34.8770 C   0  0  0  0  0  0  0  0  0  0  0  0
   43.1050   21.6000   35.4230 C   0  0  0  0  0  0  0  0  0  0  0  0
   42.5900   21.0170   36.5730 C   0  0  0  0  0  0  0  0  0  0  0  0
   43.3860   19.6450   37.3010 Cl  0  0  0  0  0  0  0  0  0  0  0  0
   41.4480   21.5510   37.1080 C   0  0  0  0  0  0  0  0  0  0  0  0
   42.8900   23.1060   33.9780 H   0  0  0  0  0  0  0  0  0  0  0  0
   44.0060   21.1810   34.9980 H   0  0  0  0  0  0  0  0  0  0  0  0
   41.0520   21.0900   38.0040 H   0  0  0  0  0  0  0  0  0  0  0  0
   36.1400   25.5370   31.0720 C   0  0  0  0  0  0  0  0  0  0  0  0
   35.5470   24.2710   31.1000 C   0  0  0  0  0  0  0  0  0  0  0  0
   36.0990   23.3290   31.9420 C   0  0  0  0  0  0  0  0  0  0  0  0
   37.1650   23.6720   32.6810 N   0  0  0  0  0  0  0  0  0  0  0  0
   37.7260   24.8880   32.6460 C   0  0  0  0  0  0  0  0  0  0  0  0
   37.1920   25.8170   31.8250 N   0  0  0  0  0  0  0  0  0  0  0  0
   34.6880   24.0680   30.4750 H   0  0  0  0  0  0  0  0  0  0  0  0
   35.5330   21.9580   32.0340 C   0  0  0  0  0  3  0  0  0  0  0  0
   35.9800   21.1390   30.8270 C   0  0  0  0  0  3  0  0  0  0  0  0
   35.2970   21.2660   29.9660 H   0  0  0  0  0  0  0  0  0  0  0  0
   36.0610   19.6960   31.2950 C   0  0  0  0  0  3  0  0  0  0  0  0
   37.0550   19.4740   31.7430 H   0  0  0  0  0  0  0  0  0  0  0  0
   35.0890   19.4070   32.2540 O   0  0  0  0  0  0  0  0  0  0  0  0
   35.4790   19.9610   33.4720 C   0  0  0  0  0  3  0  0  0  0  0  0
   34.5710   20.1090   34.1080 H   0  0  0  0  0  0  0  0  0  0  0  0
   36.1820   21.2970   33.2570 C   0  0  0  0  0  3  0  0  0  0  0  0
   36.0650   21.9190   34.1680 H   0  0  0  0  0  0  0  0  0  0  0  0
   35.6420   26.6000   30.2260 N   0  0  0  0  0  0  0  0  0  0  0  0
   36.3200   27.2100   29.6790 H   0  0  0  0  0  0  0  0  0  0  0  0
   34.5990   26.6670   30.2380 H   0  0  0  0  0  0  0  0  0  0  0  0
  1  2  2  0  0  0  0
  1  6  1  0  0  0  0
  2  3  1  0  0  0  0
  3  8  1  0  0  0  0
  3  4  2  0  0  0  0
  4  9  1  0  0  0  0
  5  4  1  0  0  0  0
  5 12  1  0  0  0  0
  6  5  2  0  0  0  0
  7  2  1  0  0  0  0
 11 17  1  0  0  0  0
 11 10  1  0  0  0  0
 12 11  2  0  0  0  0
 13 12  1  0  0  0  0
 13 14  2  0  0  0  0
 14 15  1  0  0  0  0
 15 17  2  0  0  0  0
 15 16  1  0  0  0  0
 17 20  1  0  0  0  0
 18 13  1  0  0  0  0
 19 14  1  0  0  0  0
 21 22  2  0  0  0  0
 21 26  1  0  0  0  0
 22 23  1  0  0  0  0
 23 28  1  0  0  0  0
 23 24  2  0  0  0  0
 25 24  1  0  0  0  0
 25  1  1  0  0  0  0
 26 25  2  0  0  0  0
 27 22  1  0  0  0  0
 28 36  1  0  0  0  0
 29 31  1  0  0  0  0
 29 28  1  0  0  0  0
 30 29  1  0  0  0  0
 31 32  1  0  0  0  0
 31 33  1  0  0  0  0
 33 34  1  0  0  0  0
 34 35  1  0  0  0  0
 36 34  1  0  0  0  0
 36 37  1  0  0  0  0
 38 40  1  0  0  0  0
 38 21  1  0  0  0  0
 39 38  1  0  0  0  0
M  END
>  <minimizedAffinity>
-6.5952549

$$$$

 OpenBabel03262523173D

 40 43  0  0  0  0  0  0  0  0999 V2000
   36.8150   27.3130   32.5570 C   0  0  0  0  0  0  0  0  0  0  0  0
   37.0640   27.7460   31.2690 C   0  0  0  0  0  0  0  0  0  0  0  0
   36.6810   29.0410   31.0340 C   0  0  0  0  0  0  0  0  0  0  0  0
   36.1030   29.8420   31.9900 C   0  0  0  0  0  0  0  0  0  0  0  0
   35.8940   29.3290   33.2410 C   0  0  0  0  0  0  0  0  0  0  0  0
   36.2550   28.0610   33.5130 N   0  0  0  0  0  0  0  0  0  0  0  0
   37.5200   27.1070   30.5240 H   0  0  0  0  0  0  0  0  0  0  0  0
   36.8580   29.4330   30.0200 H   0  0  0  0  0  0  0  0  0  0  0  0
   35.8530   30.8360   31.6880 H   0  0  0  0  0  0  0  0  0  0  0  0
   32.8740   29.2860   33.3790 Cl  0  0  0  0  0  0  0  0  0  0  0  0
   33.9170   30.1760   34.4440 C   0  0  0  0  0  0  0  0  0  0  0  0
   35.2840   30.1230   34.2890 C   0  0  0  0  0  0  0  0  0  0  0  0
   35.9870   30.8830   35.2140 C   0  0  0  0  0  0  0  0  0  0  0  0
   35.4210   31.6320   36.2050 C   0  0  0  0  0  0  0  0  0  0  0  0
   34.0370   31.6570   36.3240 C   0  0  0  0  0  0  0  0  0  0  0  0
   33.2750   32.6020   37.5780 Cl  0  0  0  0  0  0  0  0  0  0  0  0
   33.3020   30.9210   35.4330 C   0  0  0  0  0  0  0  0  0  0  0  0
   37.0720   30.8860   35.1480 H   0  0  0  0  0  0  0  0  0  0  0  0
   36.0040   32.2110   36.9070 H   0  0  0  0  0  0  0  0  0  0  0  0
   32.2240   30.9440   35.5330 H   0  0  0  0  0  0  0  0  0  0  0  0
   38.2720   24.4700   34.3770 C   0  0  0  0  0  0  0  0  0  0  0  0
   37.8640   23.3700   33.6170 C   0  0  0  0  0  0  0  0  0  0  0  0
   37.0990   23.6190   32.4970 C   0  0  0  0  0  0  0  0  0  0  0  0
   36.7910   24.8900   32.1980 N   0  0  0  0  0  0  0  0  0  0  0  0
   37.1870   25.9380   32.9330 C   0  0  0  0  0  0  0  0  0  0  0  0
   37.9350   25.7040   34.0320 N   0  0  0  0  0  0  0  0  0  0  0  0
   38.1520   22.3730   33.9200 H   0  0  0  0  0  0  0  0  0  0  0  0
   36.6220   22.5090   31.6320 C   0  0  0  0  0  3  0  0  0  0  0  0
   37.8200   21.7610   31.0550 C   0  0  0  0  0  3  0  0  0  0  0  0
   38.1780   22.2200   30.1140 H   0  0  0  0  0  0  0  0  0  0  0  0
   37.3750   20.3210   30.8660 C   0  0  0  0  0  3  0  0  0  0  0  0
   37.5250   19.7290   31.7950 H   0  0  0  0  0  0  0  0  0  0  0  0
   36.0250   20.2370   30.5210 O   0  0  0  0  0  0  0  0  0  0  0  0
   35.2550   20.4620   31.6600 C   0  0  0  0  0  3  0  0  0  0  0  0
   34.2400   20.8100   31.3460 H   0  0  0  0  0  0  0  0  0  0  0  0
   35.9070   21.5120   32.5530 C   0  0  0  0  0  3  0  0  0  0  0  0
   35.1230   22.0090   33.1610 H   0  0  0  0  0  0  0  0  0  0  0  0
   39.0760   24.3240   35.5700 N   0  0  0  0  0  0  0  0  0  0  0  0
   38.8470   24.8880   36.4420 H   0  0  0  0  0  0  0  0  0  0  0  0
   39.8520   23.6330   35.4490 H   0  0  0  0  0  0  0  0  0  0  0  0
  1 25  1  0  0  0  0
  1  6  1  0  0  0  0
  2  1  2  0  0  0  0
  3  2  1  0  0  0  0
  3  4  2  0  0  0  0
  4  5  1  0  0  0  0
  5  6  2  0  0  0  0
  5 12  1  0  0  0  0
  7  2  1  0  0  0  0
  8  3  1  0  0  0  0
  9  4  1  0  0  0  0
 10 11  1  0  0  0  0
 11 17  1  0  0  0  0
 12 11  2  0  0  0  0
 12 13  1  0  0  0  0
 13 14  2  0  0  0  0
 14 15  1  0  0  0  0
 14 19  1  0  0  0  0
 15 16  1  0  0  0  0
 17 20  1  0  0  0  0
 17 15  2  0  0  0  0
 18 13  1  0  0  0  0
 21 38  1  0  0  0  0
 22 27  1  0  0  0  0
 22 21  2  0  0  0  0
 23 22  1  0  0  0  0
 24 23  2  0  0  0  0
 24 25  1  0  0  0  0
 25 26  2  0  0  0  0
 26 21  1  0  0  0  0
 28 23  1  0  0  0  0
 28 36  1  0  0  0  0
 29 28  1  0  0  0  0
 30 29  1  0  0  0  0
 31 29  1  0  0  0  0
 31 32  1  0  0  0  0
 33 31  1  0  0  0  0
 33 34  1  0  0  0  0
 34 36  1  0  0  0  0
 35 34  1  0  0  0  0
 36 37  1  0  0  0  0
 38 39  1  0  0  0  0
 40 38  1  0  0  0  0
M  END
>  <minimizedAffinity>
-6.44623041

$$$$

 OpenBabel03262523173D

 40 43  0  0  0  0  0  0  0  0999 V2000
   36.3090   26.8880   32.2510 C   0  0  0  0  0  0  0  0  0  0  0  0
   35.6490   26.1620   31.2790 C   0  0  0  0  0  0  0  0  0  0  0  0
   35.9930   24.8360   31.2460 C   0  0  0  0  0  0  0  0  0  0  0  0
   36.9120   24.2730   32.1000 C   0  0  0  0  0  0  0  0  0  0  0  0
   37.5190   25.0690   33.0320 C   0  0  0  0  0  0  0  0  0  0  0  0
   37.2090   26.3780   33.0990 N   0  0  0  0  0  0  0  0  0  0  0  0
   34.9260   26.6140   30.6130 H   0  0  0  0  0  0  0  0  0  0  0  0
   35.4940   24.2130   30.4870 H   0  0  0  0  0  0  0  0  0  0  0  0
   37.0930   23.2270   31.9800 H   0  0  0  0  0  0  0  0  0  0  0  0
   40.4080   25.1910   32.1510 Cl  0  0  0  0  0  0  0  0  0  0  0  0
   39.8430   24.5400   33.6580 C   0  0  0  0  0  0  0  0  0  0  0  0
   38.4990   24.5350   33.9570 C   0  0  0  0  0  0  0  0  0  0  0  0
   38.1990   23.9850   35.1960 C   0  0  0  0  0  0  0  0  0  0  0  0
   39.1160   23.4820   36.0720 C   0  0  0  0  0  0  0  0  0  0  0  0
   40.4620   23.5070   35.7290 C   0  0  0  0  0  0  0  0  0  0  0  0
   41.6640   22.8730   36.8230 Cl  0  0  0  0  0  0  0  0  0  0  0  0
   40.8050   24.0410   34.5160 C   0  0  0  0  0  0  0  0  0  0  0  0
   37.1540   23.9490   35.4950 H   0  0  0  0  0  0  0  0  0  0  0  0
   38.8410   23.0610   37.0300 H   0  0  0  0  0  0  0  0  0  0  0  0
   41.8560   24.0580   34.2560 H   0  0  0  0  0  0  0  0  0  0  0  0
   35.6920   30.4150   31.4180 C   0  0  0  0  0  0  0  0  0  0  0  0
   35.4750   30.9990   32.6700 C   0  0  0  0  0  0  0  0  0  0  0  0
   35.5440   30.1770   33.7750 C   0  0  0  0  0  0  0  0  0  0  0  0
   35.8140   28.8750   33.5930 N   0  0  0  0  0  0  0  0  0  0  0  0
   36.0200   28.3260   32.3890 C   0  0  0  0  0  0  0  0  0  0  0  0
   35.9530   29.1220   31.3010 N   0  0  0  0  0  0  0  0  0  0  0  0
   35.2630   32.0560   32.7380 H   0  0  0  0  0  0  0  0  0  0  0  0
   35.3270   30.7130   35.1440 C   0  0  0  0  0  3  0  0  0  0  0  0
   36.1460   31.9870   35.3280 C   0  0  0  0  0  3  0  0  0  0  0  0
   37.1740   31.7700   35.6740 H   0  0  0  0  0  0  0  0  0  0  0  0
   35.3750   32.8540   36.3090 C   0  0  0  0  0  3  0  0  0  0  0  0
   34.6220   33.4820   35.7840 H   0  0  0  0  0  0  0  0  0  0  0  0
   34.7010   32.0860   37.2600 O   0  0  0  0  0  0  0  0  0  0  0  0
   33.5710   31.5260   36.6660 C   0  0  0  0  0  3  0  0  0  0  0  0
   33.2730   30.6170   37.2450 H   0  0  0  0  0  0  0  0  0  0  0  0
   33.8560   31.1440   35.2170 C   0  0  0  0  0  3  0  0  0  0  0  0
   33.1750   30.3210   34.9180 H   0  0  0  0  0  0  0  0  0  0  0  0
   35.6420   31.1840   30.1930 N   0  0  0  0  0  0  0  0  0  0  0  0
   35.1440   30.7950   29.3380 H   0  0  0  0  0  0  0  0  0  0  0  0
   36.1320   32.1030   30.2770 H   0  0  0  0  0  0  0  0  0  0  0  0
  1 25  1  0  0  0  0
  1  6  1  0  0  0  0
  2  1  2  0  0  0  0
  3  2  1  0  0  0  0
  3  4  2  0  0  0  0
  4  5  1  0  0  0  0
  5  6  2  0  0  0  0
  5 12  1  0  0  0  0
  7  2  1  0  0  0  0
  8  3  1  0  0  0  0
  9  4  1  0  0  0  0
 10 11  1  0  0  0  0
 11 12  2  0  0  0  0
 11 17  1  0  0  0  0
 12 13  1  0  0  0  0
 13 18  1  0  0  0  0
 13 14  2  0  0  0  0
 14 19  1  0  0  0  0
 15 14  1  0  0  0  0
 15 16  1  0  0  0  0
 17 15  2  0  0  0  0
 20 17  1  0  0  0  0
 21 22  1  0  0  0  0
 22 27  1  0  0  0  0
 22 23  2  0  0  0  0
 23 28  1  0  0  0  0
 24 23  1  0  0  0  0
 25 24  2  0  0  0  0
 26 21  2  0  0  0  0
 26 25  1  0  0  0  0
 28 36  1  0  0  0  0
 28 29  1  0  0  0  0
 29 30  1  0  0  0  0
 29 31  1  0  0  0  0
 31 33  1  0  0  0  0
 32 31  1  0  0  0  0
 34 35  1  0  0  0  0
 34 33  1  0  0  0  0
 36 34  1  0  0  0  0
 37 36  1  0  0  0  0
 38 40  1  0  0  0  0
 38 21  1  0  0  0  0
 39 38  1  0  0  0  0
M  END
>  <minimizedAffinity>
-6.41452265

$$$$

 OpenBabel03262523173D

 40 43  0  0  0  0  0  0  0  0999 V2000
   36.8250   27.4130   33.3270 C   0  0  0  0  0  0  0  0  0  0  0  0
   36.9660   27.6510   31.9740 C   0  0  0  0  0  0  0  0  0  0  0  0
   36.5020   28.8770   31.5740 C   0  0  0  0  0  0  0  0  0  0  0  0
   35.9470   29.7920   32.4360 C   0  0  0  0  0  0  0  0  0  0  0  0
   35.8470   29.4720   33.7620 C   0  0  0  0  0  0  0  0  0  0  0  0
   36.2910   28.2770   34.1970 N   0  0  0  0  0  0  0  0  0  0  0  0
   37.4050   26.9240   31.3040 H   0  0  0  0  0  0  0  0  0  0  0  0
   36.5910   29.1140   30.5020 H   0  0  0  0  0  0  0  0  0  0  0  0
   35.6270   30.7160   32.0050 H   0  0  0  0  0  0  0  0  0  0  0  0
   32.8440   29.3620   34.0870 Cl  0  0  0  0  0  0  0  0  0  0  0  0
   33.9100   30.4290   34.9460 C   0  0  0  0  0  0  0  0  0  0  0  0
   35.2670   30.3930   34.7190 C   0  0  0  0  0  0  0  0  0  0  0  0
   35.9910   31.3020   35.4790 C   0  0  0  0  0  0  0  0  0  0  0  0
   35.4530   32.1710   36.3830 C   0  0  0  0  0  0  0  0  0  0  0  0
   34.0780   32.1730   36.5810 C   0  0  0  0  0  0  0  0  0  0  0  0
   33.3520   33.2700   37.7280 Cl  0  0  0  0  0  0  0  0  0  0  0  0
   33.3230   31.2930   35.8520 C   0  0  0  0  0  0  0  0  0  0  0  0
   37.0700   31.3270   35.3480 H   0  0  0  0  0  0  0  0  0  0  0  0
   36.0520   32.8650   36.9570 H   0  0  0  0  0  0  0  0  0  0  0  0
   32.2520   31.3000   36.0120 H   0  0  0  0  0  0  0  0  0  0  0  0
   37.9530   24.8470   35.7060 C   0  0  0  0  0  0  0  0  0  0  0  0
   38.1550   23.7310   34.8890 C   0  0  0  0  0  0  0  0  0  0  0  0
   37.9020   23.8750   33.5410 C   0  0  0  0  0  0  0  0  0  0  0  0
   37.4820   25.0660   33.0890 N   0  0  0  0  0  0  0  0  0  0  0  0
   37.2910   26.1300   33.8810 C   0  0  0  0  0  0  0  0  0  0  0  0
   37.5350   25.9980   35.2020 N   0  0  0  0  0  0  0  0  0  0  0  0
   38.4960   22.8030   35.3250 H   0  0  0  0  0  0  0  0  0  0  0  0
   38.0900   22.7400   32.6000 C   0  0  0  0  0  3  0  0  0  0  0  0
   36.7950   21.9390   32.5040 C   0  0  0  0  0  3  0  0  0  0  0  0
   36.7320   21.1610   33.2880 H   0  0  0  0  0  0  0  0  0  0  0  0
   36.7570   21.3540   31.1030 C   0  0  0  0  0  3  0  0  0  0  0  0
   36.3010   22.0680   30.3820 H   0  0  0  0  0  0  0  0  0  0  0  0
   38.0340   21.0370   30.6380 O   0  0  0  0  0  0  0  0  0  0  0  0
   38.6840   22.2140   30.2700 C   0  0  0  0  0  3  0  0  0  0  0  0
   39.7880   22.0410   30.3040 H   0  0  0  0  0  0  0  0  0  0  0  0
   38.3090   23.3530   31.2110 C   0  0  0  0  0  3  0  0  0  0  0  0
   39.1300   24.1010   31.2200 H   0  0  0  0  0  0  0  0  0  0  0  0
   38.1870   24.8070   37.1330 N   0  0  0  0  0  0  0  0  0  0  0  0
   37.4930   25.2580   37.8010 H   0  0  0  0  0  0  0  0  0  0  0  0
   39.0700   24.3060   37.3810 H   0  0  0  0  0  0  0  0  0  0  0  0
  1 25  1  0  0  0  0
  1  6  1  0  0  0  0
  2  1  2  0  0  0  0
  3  2  1  0  0  0  0
  3  4  2  0  0  0  0
  4  5  1  0  0  0  0
  5  6  2  0  0  0  0
  5 12  1  0  0  0  0
  7  2  1  0  0  0  0
  8  3  1  0  0  0  0
  9  4  1  0  0  0  0
 10 11  1  0  0  0  0
 11 17  1  0  0  0  0
 12 11  2  0  0  0  0
 12 13  1  0  0  0  0
 13 14  2  0  0  0  0
 14 15  1  0  0  0  0
 14 19  1  0  0  0  0
 15 16  1  0  0  0  0
 17 20  1  0  0  0  0
 17 15  2  0  0  0  0
 18 13  1  0  0  0  0
 21 38  1  0  0  0  0
 22 27  1  0  0  0  0
 22 21  2  0  0  0  0
 23 22  1  0  0  0  0
 24 23  2  0  0  0  0
 24 25  1  0  0  0  0
 25 26  2  0  0  0  0
 26 21  1  0  0  0  0
 28 23  1  0  0  0  0
 29 28  1  0  0  0  0
 29 30  1  0  0  0  0
 31 29  1  0  0  0  0
 32 31  1  0  0  0  0
 33 31  1  0  0  0  0
 34 35  1  0  0  0  0
 34 33  1  0  0  0  0
 34 36  1  0  0  0  0
 36 37  1  0  0  0  0
 36 28  1  0  0  0  0
 38 40  1  0  0  0  0
 38 39  1  0  0  0  0
M  END
>  <minimizedAffinity>
-6.31221581

$$$$

 OpenBabel03262523173D

 40 43  0  0  0  0  0  0  0  0999 V2000
   36.1980   29.0250   32.0470 C   0  0  0  0  0  0  0  0  0  0  0  0
   36.9780   29.1380   30.9130 C   0  0  0  0  0  0  0  0  0  0  0  0
   38.0840   28.3280   30.9160 C   0  0  0  0  0  0  0  0  0  0  0  0
   38.3930   27.4770   31.9500 C   0  0  0  0  0  0  0  0  0  0  0  0
   37.5620   27.4300   33.0360 C   0  0  0  0  0  0  0  0  0  0  0  0
   36.4650   28.2100   33.0730 N   0  0  0  0  0  0  0  0  0  0  0  0
   36.7260   29.8100   30.1040 H   0  0  0  0  0  0  0  0  0  0  0  0
   38.7400   28.3820   30.0330 H   0  0  0  0  0  0  0  0  0  0  0  0
   39.2790   26.8910   31.8340 H   0  0  0  0  0  0  0  0  0  0  0  0
   37.3490   24.4590   32.5170 Cl  0  0  0  0  0  0  0  0  0  0  0  0
   37.7690   25.1880   34.0350 C   0  0  0  0  0  0  0  0  0  0  0  0
   37.8370   26.5560   34.1600 C   0  0  0  0  0  0  0  0  0  0  0  0
   38.1860   26.9920   35.4310 C   0  0  0  0  0  0  0  0  0  0  0  0
   38.4490   26.1770   36.4930 C   0  0  0  0  0  0  0  0  0  0  0  0
   38.3680   24.8000   36.3230 C   0  0  0  0  0  0  0  0  0  0  0  0
   38.6960   23.7250   37.6580 Cl  0  0  0  0  0  0  0  0  0  0  0  0
   38.0270   24.3250   35.0850 C   0  0  0  0  0  0  0  0  0  0  0  0
   38.2570   28.0640   35.5980 H   0  0  0  0  0  0  0  0  0  0  0  0
   38.7180   26.5550   37.4690 H   0  0  0  0  0  0  0  0  0  0  0  0
   37.9670   23.2510   34.9600 H   0  0  0  0  0  0  0  0  0  0  0  0
   33.4940   31.3800   31.2380 C   0  0  0  0  0  0  0  0  0  0  0  0
   32.6990   31.3510   32.3890 C   0  0  0  0  0  0  0  0  0  0  0  0
   33.1030   30.5290   33.4190 C   0  0  0  0  0  0  0  0  0  0  0  0
   34.2240   29.8080   33.2660 N   0  0  0  0  0  0  0  0  0  0  0  0
   34.9770   29.8420   32.1590 C   0  0  0  0  0  0  0  0  0  0  0  0
   34.5900   30.6440   31.1440 N   0  0  0  0  0  0  0  0  0  0  0  0
   31.8090   31.9620   32.4400 H   0  0  0  0  0  0  0  0  0  0  0  0
   32.3190   30.4370   34.6780 C   0  0  0  0  0  3  0  0  0  0  0  0
   31.8320   29.0030   34.8720 C   0  0  0  0  0  3  0  0  0  0  0  0
   30.8670   28.8230   34.3630 H   0  0  0  0  0  0  0  0  0  0  0  0
   31.7480   28.7790   36.3720 C   0  0  0  0  0  3  0  0  0  0  0  0
   32.7250   28.4430   36.7840 H   0  0  0  0  0  0  0  0  0  0  0  0
   31.3780   29.9420   37.0500 O   0  0  0  0  0  0  0  0  0  0  0  0
   32.4770   30.7970   37.1080 C   0  0  0  0  0  3  0  0  0  0  0  0
   32.1110   31.8440   37.2510 H   0  0  0  0  0  0  0  0  0  0  0  0
   33.2990   30.7080   35.8270 C   0  0  0  0  0  3  0  0  0  0  0  0
   33.8460   31.6620   35.6790 H   0  0  0  0  0  0  0  0  0  0  0  0
   33.1640   32.2070   30.0980 N   0  0  0  0  0  0  0  0  0  0  0  0
   33.2480   31.8170   29.1120 H   0  0  0  0  0  0  0  0  0  0  0  0
   32.8560   33.1670   30.3740 H   0  0  0  0  0  0  0  0  0  0  0  0
  1 25  1  0  0  0  0
  1  6  1  0  0  0  0
  2  3  1  0  0  0  0
  2  1  2  0  0  0  0
  3  4  2  0  0  0  0
  4  5  1  0  0  0  0
  5  6  2  0  0  0  0
  5 12  1  0  0  0  0
  7  2  1  0  0  0  0
  8  3  1  0  0  0  0
  9  4  1  0  0  0  0
 10 11  1  0  0  0  0
 11 12  2  0  0  0  0
 11 17  1  0  0  0  0
 12 13  1  0  0  0  0
 13 18  1  0  0  0  0
 13 14  2  0  0  0  0
 14 19  1  0  0  0  0
 15 14  1  0  0  0  0
 15 16  1  0  0  0  0
 17 15  2  0  0  0  0
 20 17  1  0  0  0  0
 21 22  1  0  0  0  0
 22 27  1  0  0  0  0
 22 23  2  0  0  0  0
 23 28  1  0  0  0  0
 24 23  1  0  0  0  0
 25 24  2  0  0  0  0
 26 21  2  0  0  0  0
 26 25  1  0  0  0  0
 28 29  1  0  0  0  0
 28 36  1  0  0  0  0
 29 31  1  0  0  0  0
 30 29  1  0  0  0  0
 31 32  1  0  0  0  0
 31 33  1  0  0  0  0
 33 34  1  0  0  0  0
 34 35  1  0  0  0  0
 36 34  1  0  0  0  0
 37 36  1  0  0  0  0
 38 40  1  0  0  0  0
 38 21  1  0  0  0  0
 39 38  1  0  0  0  0
M  END
>  <minimizedAffinity>
-6.24245024

$$$$

 OpenBabel03262523173D

 40 43  0  0  0  0  0  0  0  0999 V2000
   37.0750   26.2900   32.9470 C   0  0  0  0  0  0  0  0  0  0  0  0
   37.6880   26.3990   34.1810 C   0  0  0  0  0  0  0  0  0  0  0  0
   37.3340   27.5240   34.8790 C   0  0  0  0  0  0  0  0  0  0  0  0
   36.4500   28.4620   34.4020 C   0  0  0  0  0  0  0  0  0  0  0  0
   35.8910   28.2720   33.1680 C   0  0  0  0  0  0  0  0  0  0  0  0
   36.2110   27.1800   32.4490 N   0  0  0  0  0  0  0  0  0  0  0  0
   38.3820   25.6550   34.5470 H   0  0  0  0  0  0  0  0  0  0  0  0
   37.7970   27.6570   35.8700 H   0  0  0  0  0  0  0  0  0  0  0  0
   36.2490   29.2940   35.0430 H   0  0  0  0  0  0  0  0  0  0  0  0
   36.9780   30.1480   31.0620 Cl  0  0  0  0  0  0  0  0  0  0  0  0
   35.3440   30.1290   31.6440 C   0  0  0  0  0  0  0  0  0  0  0  0
   34.9550   29.2280   32.6090 C   0  0  0  0  0  0  0  0  0  0  0  0
   33.6190   29.3320   32.9740 C   0  0  0  0  0  0  0  0  0  0  0  0
   32.7320   30.2280   32.4510 C   0  0  0  0  0  0  0  0  0  0  0  0
   33.1670   31.1190   31.4780 C   0  0  0  0  0  0  0  0  0  0  0  0
   32.0630   32.2800   30.7860 Cl  0  0  0  0  0  0  0  0  0  0  0  0
   34.4790   31.0530   31.0880 C   0  0  0  0  0  0  0  0  0  0  0  0
   33.2470   28.6490   33.7330 H   0  0  0  0  0  0  0  0  0  0  0  0
   31.6980   30.2770   32.7620 H   0  0  0  0  0  0  0  0  0  0  0  0
   34.8100   31.7510   30.3290 H   0  0  0  0  0  0  0  0  0  0  0  0
   38.3250   24.2130   30.1830 C   0  0  0  0  0  0  0  0  0  0  0  0
   37.9160   22.9270   30.5490 C   0  0  0  0  0  0  0  0  0  0  0  0
   37.2210   22.7930   31.7330 C   0  0  0  0  0  0  0  0  0  0  0  0
   36.9760   23.8920   32.4620 N   0  0  0  0  0  0  0  0  0  0  0  0
   37.3720   25.1200   32.1030 C   0  0  0  0  0  0  0  0  0  0  0  0
   38.0530   25.2610   30.9460 N   0  0  0  0  0  0  0  0  0  0  0  0
   38.1510   22.0890   29.9090 H   0  0  0  0  0  0  0  0  0  0  0  0
   36.7500   21.4630   32.1980 C   0  0  0  0  0  3  0  0  0  0  0  0
   36.7380   21.4320   33.7240 C   0  0  0  0  0  3  0  0  0  0  0  0
   37.7180   21.1290   34.1380 H   0  0  0  0  0  0  0  0  0  0  0  0
   35.6220   20.4830   34.1240 C   0  0  0  0  0  3  0  0  0  0  0  0
   34.6460   21.0130   34.1840 H   0  0  0  0  0  0  0  0  0  0  0  0
   35.4810   19.4350   33.2130 O   0  0  0  0  0  0  0  0  0  0  0  0
   34.8410   19.9140   32.0710 C   0  0  0  0  0  3  0  0  0  0  0  0
   35.0920   19.2460   31.2100 H   0  0  0  0  0  0  0  0  0  0  0  0
   35.2840   21.3400   31.7630 C   0  0  0  0  0  3  0  0  0  0  0  0
   35.1640   21.5310   30.6770 H   0  0  0  0  0  0  0  0  0  0  0  0
   39.0590   24.4680   28.9630 N   0  0  0  0  0  0  0  0  0  0  0  0
   39.8910   25.1300   28.9680 H   0  0  0  0  0  0  0  0  0  0  0  0
   38.6740   23.9420   28.1460 H   0  0  0  0  0  0  0  0  0  0  0  0
  1  2  1  0  0  0  0
  2  7  1  0  0  0  0
  2  3  2  0  0  0  0
  3  8  1  0  0  0  0
  4  3  1  0  0  0  0
  4  9  1  0  0  0  0
  5  4  2  0  0  0  0
  6  1  2  0  0  0  0
  6  5  1  0  0  0  0
 10 11  1  0  0  0  0
 11 12  1  0  0  0  0
 12 13  2  0  0  0  0
 12  5  1  0  0  0  0
 13 18  1  0  0  0  0
 14 19  1  0  0  0  0
 14 13  1  0  0  0  0
 15 14  2  0  0  0  0
 16 15  1  0  0  0  0
 17 15  1  0  0  0  0
 17 11  2  0  0  0  0
 20 17  1  0  0  0  0
 21 22  2  0  0  0  0
 21 26  1  0  0  0  0
 22 23  1  0  0  0  0
 23 28  1  0  0  0  0
 23 24  2  0  0  0  0
 25 24  1  0  0  0  0
 25  1  1  0  0  0  0
 26 25  2  0  0  0  0
 27 22  1  0  0  0  0
 28 29  1  0  0  0  0
 29 31  1  0  0  0  0
 29 30  1  0  0  0  0
 31 32  1  0  0  0  0
 33 31  1  0  0  0  0
 34 33  1  0  0  0  0
 35 34  1  0  0  0  0
 36 34  1  0  0  0  0
 36 28  1  0  0  0  0
 37 36  1  0  0  0  0
 38 39  1  0  0  0  0
 38 21  1  0  0  0  0
 40 38  1  0  0  0  0
M  END
>  <minimizedAffinity>
-6.23468542

$$$$

 OpenBabel03262523173D

 40 43  0  0  0  0  0  0  0  0999 V2000
   37.3330   25.3930   32.6900 C   0  0  0  0  0  0  0  0  0  0  0  0
   37.7910   25.3680   33.9920 C   0  0  0  0  0  0  0  0  0  0  0  0
   38.1450   24.1200   34.4330 C   0  0  0  0  0  0  0  0  0  0  0  0
   38.0550   22.9900   33.6550 C   0  0  0  0  0  0  0  0  0  0  0  0
   37.5890   23.1090   32.3740 C   0  0  0  0  0  0  0  0  0  0  0  0
   37.2300   24.3170   31.9010 N   0  0  0  0  0  0  0  0  0  0  0  0
   37.8590   26.2630   34.5960 H   0  0  0  0  0  0  0  0  0  0  0  0
   38.5170   24.0470   35.4670 H   0  0  0  0  0  0  0  0  0  0  0  0
   38.3660   22.0750   34.1090 H   0  0  0  0  0  0  0  0  0  0  0  0
   34.9710   21.6020   32.4980 Cl  0  0  0  0  0  0  0  0  0  0  0  0
   36.3180   21.1950   31.4820 C   0  0  0  0  0  0  0  0  0  0  0  0
   37.4660   21.9540   31.5060 C   0  0  0  0  0  0  0  0  0  0  0  0
   38.4560   21.5090   30.6400 C   0  0  0  0  0  0  0  0  0  0  0  0
   38.3480   20.4240   29.8190 C   0  0  0  0  0  0  0  0  0  0  0  0
   37.1710   19.6860   29.8270 C   0  0  0  0  0  0  0  0  0  0  0  0
   36.9950   18.2930   28.7910 Cl  0  0  0  0  0  0  0  0  0  0  0  0
   36.1660   20.0890   30.6660 C   0  0  0  0  0  0  0  0  0  0  0  0
   39.3910   22.0630   30.6100 H   0  0  0  0  0  0  0  0  0  0  0  0
   39.1430   20.1090   29.1580 H   0  0  0  0  0  0  0  0  0  0  0  0
   35.2520   19.5100   30.6660 H   0  0  0  0  0  0  0  0  0  0  0  0
   36.7800   28.0910   30.2540 C   0  0  0  0  0  0  0  0  0  0  0  0
   36.1560   29.0800   31.0200 C   0  0  0  0  0  0  0  0  0  0  0  0
   35.9350   28.8070   32.3540 C   0  0  0  0  0  0  0  0  0  0  0  0
   36.3280   27.6210   32.8410 N   0  0  0  0  0  0  0  0  0  0  0  0
   36.9260   26.6790   32.0990 C   0  0  0  0  0  0  0  0  0  0  0  0
   37.1450   26.9370   30.7920 N   0  0  0  0  0  0  0  0  0  0  0  0
   35.8680   30.0130   30.5570 H   0  0  0  0  0  0  0  0  0  0  0  0
   35.2770   29.8010   33.2410 C   0  0  0  0  0  3  0  0  0  0  0  0
   35.8010   29.6400   34.6650 C   0  0  0  0  0  3  0  0  0  0  0  0
   35.2250   28.8860   35.2330 H   0  0  0  0  0  0  0  0  0  0  0  0
   35.7400   31.0170   35.3020 C   0  0  0  0  0  3  0  0  0  0  0  0
   36.6640   31.5990   35.0890 H   0  0  0  0  0  0  0  0  0  0  0  0
   34.6540   31.7580   34.8340 O   0  0  0  0  0  0  0  0  0  0  0  0
   34.9440   32.2200   33.5520 C   0  0  0  0  0  3  0  0  0  0  0  0
   33.9830   32.4320   33.0200 H   0  0  0  0  0  0  0  0  0  0  0  0
   35.7480   31.1850   32.7740 C   0  0  0  0  0  3  0  0  0  0  0  0
   35.5720   31.3300   31.6880 H   0  0  0  0  0  0  0  0  0  0  0  0
   37.0590   28.2710   28.8460 N   0  0  0  0  0  0  0  0  0  0  0  0
   36.8720   27.4820   28.1590 H   0  0  0  0  0  0  0  0  0  0  0  0
   37.4430   29.2200   28.6320 H   0  0  0  0  0  0  0  0  0  0  0  0
  1  2  1  0  0  0  0
  2  3  2  0  0  0  0
  2  7  1  0  0  0  0
  3  8  1  0  0  0  0
  4  9  1  0  0  0  0
  4  3  1  0  0  0  0
  5  4  2  0  0  0  0
  6  5  1  0  0  0  0
  6  1  2  0  0  0  0
 11 12  1  0  0  0  0
 11 10  1  0  0  0  0
 12  5  1  0  0  0  0
 13 12  2  0  0  0  0
 14 15  2  0  0  0  0
 14 13  1  0  0  0  0
 15 17  1  0  0  0  0
 16 15  1  0  0  0  0
 17 20  1  0  0  0  0
 17 11  2  0  0  0  0
 18 13  1  0  0  0  0
 19 14  1  0  0  0  0
 21 26  2  0  0  0  0
 21 22  1  0  0  0  0
 22 23  2  0  0  0  0
 23 24  1  0  0  0  0
 23 28  1  0  0  0  0
 25  1  1  0  0  0  0
 25 24  2  0  0  0  0
 26 25  1  0  0  0  0
 27 22  1  0  0  0  0
 28 29  1  0  0  0  0
 29 30  1  0  0  0  0
 29 31  1  0  0  0  0
 32 31  1  0  0  0  0
 33 31  1  0  0  0  0
 34 33  1  0  0  0  0
 35 34  1  0  0  0  0
 36 28  1  0  0  0  0
 36 34  1  0  0  0  0
 37 36  1  0  0  0  0
 38 21  1  0  0  0  0
 39 38  1  0  0  0  0
 40 38  1  0  0  0  0
M  END
>  <minimizedAffinity>
-6.19076777

$$$$

 OpenBabel03262523173D

 40 43  0  0  0  0  0  0  0  0999 V2000
   37.0130   26.3980   32.8450 C   0  0  0  0  0  0  0  0  0  0  0  0
   37.2060   26.3380   34.2110 C   0  0  0  0  0  0  0  0  0  0  0  0
   36.8710   27.4920   34.8710 C   0  0  0  0  0  0  0  0  0  0  0  0
   36.3860   28.6110   34.2370 C   0  0  0  0  0  0  0  0  0  0  0  0
   36.2260   28.5810   32.8790 C   0  0  0  0  0  0  0  0  0  0  0  0
   36.5430   27.4670   32.1920 N   0  0  0  0  0  0  0  0  0  0  0  0
   37.5880   25.4520   34.7010 H   0  0  0  0  0  0  0  0  0  0  0  0
   37.0080   27.4940   35.9640 H   0  0  0  0  0  0  0  0  0  0  0  0
   36.1550   29.4470   34.8610 H   0  0  0  0  0  0  0  0  0  0  0  0
   33.2350   29.0130   32.9440 Cl  0  0  0  0  0  0  0  0  0  0  0  0
   34.3790   30.0220   32.1160 C   0  0  0  0  0  0  0  0  0  0  0  0
   35.7240   29.7310   32.1530 C   0  0  0  0  0  0  0  0  0  0  0  0
   36.5150   30.6260   31.4460 C   0  0  0  0  0  0  0  0  0  0  0  0
   36.0500   31.7120   30.7620 C   0  0  0  0  0  0  0  0  0  0  0  0
   34.6850   31.9680   30.7520 C   0  0  0  0  0  0  0  0  0  0  0  0
   34.0520   33.3460   29.8880 Cl  0  0  0  0  0  0  0  0  0  0  0  0
   33.8650   31.1100   31.4360 C   0  0  0  0  0  0  0  0  0  0  0  0
   37.5890   30.4540   31.4340 H   0  0  0  0  0  0  0  0  0  0  0  0
   36.7000   32.3870   30.2240 H   0  0  0  0  0  0  0  0  0  0  0  0
   32.8020   31.3170   31.4230 H   0  0  0  0  0  0  0  0  0  0  0  0
   38.3320   24.2850   30.1410 C   0  0  0  0  0  0  0  0  0  0  0  0
   37.9180   23.0030   30.5160 C   0  0  0  0  0  0  0  0  0  0  0  0
   37.1960   22.8850   31.6850 C   0  0  0  0  0  0  0  0  0  0  0  0
   36.9310   23.9930   32.3930 N   0  0  0  0  0  0  0  0  0  0  0  0
   37.3320   25.2170   32.0250 C   0  0  0  0  0  0  0  0  0  0  0  0
   38.0400   25.3430   30.8820 N   0  0  0  0  0  0  0  0  0  0  0  0
   38.1700   22.1560   29.8940 H   0  0  0  0  0  0  0  0  0  0  0  0
   36.7180   21.5600   32.1590 C   0  0  0  0  0  3  0  0  0  0  0  0
   36.7860   21.5090   33.6820 C   0  0  0  0  0  3  0  0  0  0  0  0
   37.7790   21.1770   34.0400 H   0  0  0  0  0  0  0  0  0  0  0  0
   35.6690   20.5810   34.1300 C   0  0  0  0  0  3  0  0  0  0  0  0
   34.7110   21.1340   34.2480 H   0  0  0  0  0  0  0  0  0  0  0  0
   35.4540   19.5490   33.2150 O   0  0  0  0  0  0  0  0  0  0  0  0
   34.7670   20.0590   32.1150 C   0  0  0  0  0  3  0  0  0  0  0  0
   34.9550   19.3960   31.2340 H   0  0  0  0  0  0  0  0  0  0  0  0
   35.2280   21.4780   31.8010 C   0  0  0  0  0  3  0  0  0  0  0  0
   35.0550   21.6860   30.7250 H   0  0  0  0  0  0  0  0  0  0  0  0
   39.0940   24.5240   28.9350 N   0  0  0  0  0  0  0  0  0  0  0  0
   39.9240   25.1890   28.9500 H   0  0  0  0  0  0  0  0  0  0  0  0
   38.7300   23.9850   28.1170 H   0  0  0  0  0  0  0  0  0  0  0  0
  1  2  1  0  0  0  0
  2  7  1  0  0  0  0
  2  3  2  0  0  0  0
  3  8  1  0  0  0  0
  4  9  1  0  0  0  0
  4  3  1  0  0  0  0
  5  4  2  0  0  0  0
  6  1  2  0  0  0  0
  6  5  1  0  0  0  0
 11 12  1  0  0  0  0
 11 10  1  0  0  0  0
 12  5  1  0  0  0  0
 13 12  2  0  0  0  0
 14 13  1  0  0  0  0
 15 14  2  0  0  0  0
 15 17  1  0  0  0  0
 16 15  1  0  0  0  0
 17 11  2  0  0  0  0
 18 13  1  0  0  0  0
 19 14  1  0  0  0  0
 20 17  1  0  0  0  0
 21 22  2  0  0  0  0
 21 26  1  0  0  0  0
 22 23  1  0  0  0  0
 23 28  1  0  0  0  0
 23 24  2  0  0  0  0
 25 24  1  0  0  0  0
 25  1  1  0  0  0  0
 26 25  2  0  0  0  0
 27 22  1  0  0  0  0
 28 29  1  0  0  0  0
 29 30  1  0  0  0  0
 29 31  1  0  0  0  0
 31 32  1  0  0  0  0
 33 31  1  0  0  0  0
 34 33  1  0  0  0  0
 35 34  1  0  0  0  0
 36 34  1  0  0  0  0
 36 28  1  0  0  0  0
 37 36  1  0  0  0  0
 38 39  1  0  0  0  0
 38 21  1  0  0  0  0
 40 38  1  0  0  0  0
M  END
>  <minimizedAffinity>
-6.11441708

$$$$
