
 OpenBabel03272508253D

 26 28  0  0  1  0  0  0  0  0999 V2000
   36.4200   31.1640   49.5410 C   0  0  1  0  0  0  0  0  0  0  0  0
   36.1780   29.7540   49.2180 C   0  0  1  0  0  0  0  0  0  0  0  0
   36.8270   30.0850   50.5050 C   0  0  0  0  0  0  0  0  0  0  0  0
   35.6420   31.8720   49.9260 H   0  0  0  0  0  0  0  0  0  0  0  0
   36.8180   29.2610   48.4580 H   0  0  0  0  0  0  0  0  0  0  0  0
   36.2700   30.0730   51.4600 H   0  0  0  0  0  0  0  0  0  0  0  0
   37.8840   29.8030   50.6390 H   0  0  0  0  0  0  0  0  0  0  0  0
   34.7230   29.4260   49.0610 C   0  0  0  0  0  0  0  0  0  0  0  0
   34.3060   30.0520   47.7430 C   0  0  0  0  0  0  0  0  0  0  0  0
   34.0070   31.1100   47.8700 H   0  0  0  0  0  0  0  0  0  0  0  0
   33.2710   29.2070   47.0390 C   0  0  0  0  0  0  0  0  0  0  0  0
   32.2970   29.1770   47.5260 H   0  0  0  0  0  0  0  0  0  0  0  0
   33.8720   27.9740   46.8420 O   0  0  0  0  0  0  0  0  0  0  0  0
   33.9950   27.2340   48.0020 C   0  0  0  0  0  0  0  0  0  0  0  0
   34.7210   26.4210   47.7790 H   0  0  0  0  0  0  0  0  0  0  0  0
   34.3680   27.9970   49.2120 C   0  0  0  0  0  0  0  0  0  0  0  0
   33.5570   27.8290   49.9750 H   0  0  0  0  0  0  0  0  0  0  0  0
   37.5580   31.9150   48.9190 C   0  0  0  0  0  0  0  0  0  0  0  0
   37.9980   33.0660   49.5940 C   0  0  0  0  0  0  0  0  0  0  0  0
   39.0450   33.7740   48.9870 C   0  0  0  0  0  0  0  0  0  0  0  0
   39.5590   33.3130   47.8050 N   0  0  0  0  0  0  0  0  0  0  0  0
   39.1010   32.1960   47.1900 C   0  0  0  0  0  0  0  0  0  0  0  0
   38.0870   31.4890   47.7550 N   0  0  0  0  0  0  0  0  0  0  0  0
   37.5320   33.3550   50.5250 H   0  0  0  0  0  0  0  0  0  0  0  0
   39.4130   34.6610   49.4710 H   0  0  0  0  0  0  0  0  0  0  0  0
   39.5730   31.9140   46.2600 H   0  0  0  0  0  0  0  0  0  0  0  0
  1  4  1  1  0  0  0
  1  3  1  0  0  0  0
  2  5  1  6  0  0  0
  2  1  1  0  0  0  0
  2  3  1  0  0  0  0
  3  7  1  0  0  0  0
  3  6  1  0  0  0  0
  8 16  1  0  0  0  0
  8  2  1  0  0  0  0
  9 10  1  0  0  0  0
  9  8  1  0  0  0  0
 11 12  1  0  0  0  0
 11  9  1  0  0  0  0
 13 11  1  0  0  0  0
 13 14  1  0  0  0  0
 14 16  1  0  0  0  0
 15 14  1  0  0  0  0
 16 17  1  0  0  0  0
 18  1  1  0  0  0  0
 18 19  1  0  0  0  0
 19 24  1  0  0  0  0
 20 25  1  0  0  0  0
 20 19  2  0  0  0  0
 21 20  1  0  0  0  0
 22 23  1  0  0  0  0
 22 21  2  0  0  0  0
 23 18  2  0  0  0  0
 26 22  1  0  0  0  0
M  END
>  <minimizedAffinity>
-5.32236958

>  <minimizedRMSD>
1.06174231

$$$$
