
 OpenBabel03272507533D

 33 35  0  0  0  0  0  0  0  0999 V2000
   36.4260   31.1370   48.6950 N   0  0  0  0  0  0  0  0  0  0  0  0
   36.7190   32.0110   49.6500 C   0  0  0  0  0  0  0  0  0  0  0  0
   37.7820   32.8990   49.4680 C   0  0  0  0  0  0  0  0  0  0  0  0
   38.4410   32.7770   48.2840 C   0  0  0  0  0  0  0  0  0  0  0  0
   39.4020   33.5990   48.1510 O   0  0  0  0  0  0  0  0  0  0  0  0
   38.1790   31.9180   47.3060 N   0  0  0  0  0  0  0  0  0  0  0  0
   37.1420   31.0840   47.5330 C   0  0  0  0  0  0  0  0  0  0  0  0
   36.8720   30.2480   46.6040 O   0  0  0  0  0  0  0  0  0  0  0  0
   36.1070   31.9950   50.5420 H   0  0  0  0  0  0  0  0  0  0  0  0
   37.9810   33.5810   50.2560 H   0  0  0  0  0  0  0  0  0  0  0  0
   38.9690   31.9240   46.1280 C   0  0  0  0  0  3  0  0  0  0  0  0
   40.2990   32.6170   46.2450 C   0  0  0  0  0  3  0  0  0  0  0  0
   40.0770   33.6600   46.5770 H   0  0  0  0  0  0  0  0  0  0  0  0
   40.9180   32.7050   44.8670 C   0  0  0  0  0  3  0  0  0  0  0  0
   40.9450   33.7420   44.4660 H   0  0  0  0  0  0  0  0  0  0  0  0
   40.3640   31.8170   43.9530 O   0  0  0  0  0  0  0  0  0  0  0  0
   39.0220   32.0160   43.7030 C   0  0  0  0  0  3  0  0  0  0  0  0
   38.6010   31.0060   43.4170 H   0  0  0  0  0  0  0  0  0  0  0  0
   38.2890   32.5530   44.9330 C   0  0  0  0  0  3  0  0  0  0  0  0
   38.5360   33.6470   44.9330 H   0  0  0  0  0  0  0  0  0  0  0  0
   35.2200   29.5040   50.0330 C   0  0  0  0  0  0  0  0  0  0  0  0
   35.3520   30.1930   48.8080 C   0  0  0  0  0  0  0  0  0  0  0  0
   34.4450   29.9230   47.7800 C   0  0  0  0  0  0  0  0  0  0  0  0
   33.4720   29.0020   48.0170 N   0  0  0  0  0  0  0  0  0  0  0  0
   33.3530   28.3600   49.1680 C   0  0  0  0  0  0  0  0  0  0  0  0
   34.2200   28.6070   50.1690 N   0  0  0  0  0  0  0  0  0  0  0  0
   34.5620   30.4580   46.8520 H   0  0  0  0  0  0  0  0  0  0  0  0
   32.5690   27.6320   49.3300 H   0  0  0  0  0  0  0  0  0  0  0  0
   37.3780   29.2140   51.4590 C   0  0  0  0  0  0  0  0  0  0  0  0
   38.0520   28.5440   50.6580 O   0  0  0  0  0  0  0  0  0  0  0  0
   36.0720   29.7130   51.1390 N   0  0  0  0  0  0  0  0  0  0  0  0
   37.8700   29.3760   52.3920 H   0  0  0  0  0  0  0  0  0  0  0  0
   35.7410   30.3540   51.9150 H   0  0  0  0  0  0  0  0  0  0  0  0
  1 22  1  0  0  0  0
  1  2  1  0  0  0  0
  2  9  1  0  0  0  0
  3  2  2  0  0  0  0
  3 10  1  0  0  0  0
  4  3  1  0  0  0  0
  5  4  2  0  0  0  0
  6  7  1  0  0  0  0
  6  4  1  0  0  0  0
  7  1  1  0  0  0  0
  8  7  2  0  0  0  0
 11 12  1  0  0  0  0
 11  6  1  0  0  0  0
 12 13  1  0  0  0  0
 14 12  1  0  0  0  0
 15 14  1  0  0  0  0
 16 14  1  0  0  0  0
 17 16  1  0  0  0  0
 17 19  1  0  0  0  0
 18 17  1  0  0  0  0
 19 11  1  0  0  0  0
 20 19  1  0  0  0  0
 21 26  1  0  0  0  0
 21 31  1  0  0  0  0
 22 21  2  0  0  0  0
 23 24  2  0  0  0  0
 23 22  1  0  0  0  0
 24 25  1  0  0  0  0
 25 28  1  0  0  0  0
 25 26  2  0  0  0  0
 27 23  1  0  0  0  0
 29 32  1  0  0  0  0
 30 29  2  0  0  0  0
 31 29  1  0  0  0  0
 31 33  1  0  0  0  0
M  END
>  <minimizedAffinity>
-5.81248093

>  <minimizedRMSD>
1.39493167

$$$$
