
 OpenBabel03272502353D

 37 39  0  0  1  0  0  0  0  0999 V2000
   35.5850   29.7020   48.1550 C   0  0  0  0  0  0  0  0  0  0  0  0
   36.5810   30.4310   47.7720 C   0  0  0  0  0  0  0  0  0  0  0  0
   33.3160   29.8240   45.2020 C   0  0  0  0  0  0  0  0  0  0  0  0
   34.3870   30.0150   46.0610 C   0  0  0  0  0  0  0  0  0  0  0  0
   34.4480   29.4500   47.3070 C   0  0  0  0  0  0  0  0  0  0  0  0
   33.3930   28.6730   47.6800 N   0  0  0  0  0  0  0  0  0  0  0  0
   32.3670   28.4930   46.8500 C   0  0  0  0  0  0  0  0  0  0  0  0
   32.3050   29.0460   45.6290 N   0  0  0  0  0  0  0  0  0  0  0  0
   33.2350   30.2540   44.2140 H   0  0  0  0  0  0  0  0  0  0  0  0
   35.1340   30.6520   45.6110 H   0  0  0  0  0  0  0  0  0  0  0  0
   31.2450   27.6320   47.3170 C   0  0  0  0  0  0  0  0  0  0  0  0
   29.9100   28.0850   46.8090 C   0  0  0  0  0  0  0  0  0  0  0  0
   29.3520   27.2380   46.3900 H   0  0  0  0  0  0  0  0  0  0  0  0
   29.1680   28.7490   47.9460 C   0  0  0  0  0  0  0  0  0  0  0  0
   29.7720   29.5920   48.3160 H   0  0  0  0  0  0  0  0  0  0  0  0
   28.9040   27.8800   49.0020 O   0  0  0  0  0  0  0  0  0  0  0  0
   29.9860   27.1010   49.3490 C   0  0  0  0  0  0  0  0  0  0  0  0
   30.0370   27.0060   50.4460 H   0  0  0  0  0  0  0  0  0  0  0  0
   31.2860   27.6890   48.8490 C   0  0  0  0  0  0  0  0  0  0  0  0
   31.4110   28.7290   49.1730 H   0  0  0  0  0  0  0  0  0  0  0  0
   37.7080   30.6400   48.7450 C   0  0  1  0  0  0  0  0  0  0  0  0
   38.3280   29.7280   48.7990 H   0  0  0  0  0  0  0  0  0  0  0  0
   38.4930   31.8170   48.3340 C   0  0  0  0  0  0  0  0  0  0  0  0
   38.6030   32.8040   49.3490 C   0  0  0  0  0  0  0  0  0  0  0  0
   39.2850   33.9840   49.1970 C   0  0  0  0  0  0  0  0  0  0  0  0
   39.9320   34.2860   47.9850 C   0  0  0  0  0  0  0  0  0  0  0  0
   39.7760   33.2710   47.0470 C   0  0  0  0  0  0  0  0  0  0  0  0
   39.1150   32.1130   47.1730 N   0  0  0  0  0  0  0  0  0  0  0  0
   38.1920   32.8020   50.3730 H   0  0  0  0  0  0  0  0  0  0  0  0
   39.4030   34.7690   49.9280 H   0  0  0  0  0  0  0  0  0  0  0  0
   40.4970   35.1400   47.6970 H   0  0  0  0  0  0  0  0  0  0  0  0
   40.2220   33.3580   46.0550 H   0  0  0  0  0  0  0  0  0  0  0  0
   36.9460   31.0800   50.3450 S   0  0  0  0  0  0  0  0  0  0  0  0
   36.9420   29.6850   51.4580 C   0  0  0  0  0  0  0  0  0  0  0  0
   37.6130   29.9310   52.6450 F   0  0  0  0  0  0  0  0  0  0  0  0
   35.6580   29.2200   51.6800 F   0  0  0  0  0  0  0  0  0  0  0  0
   37.6210   28.6450   50.7870 F   0  0  0  0  0  0  0  0  0  0  0  0
  2  1  2  0  0  0  0
  2 21  1  0  0  0  0
  3  8  2  0  0  0  0
  3  4  1  0  0  0  0
  4  5  2  0  0  0  0
  5  6  1  0  0  0  0
  5  1  1  0  0  0  0
  7 11  1  0  0  0  0
  7  6  2  0  0  0  0
  8  7  1  0  0  0  0
  9  3  1  0  0  0  0
 10  4  1  0  0  0  0
 11 19  1  0  0  0  0
 12 11  1  0  0  0  0
 12 14  1  0  0  0  0
 13 12  1  0  0  0  0
 14 15  1  0  0  0  0
 14 16  1  0  0  0  0
 16 17  1  0  0  0  0
 17 18  1  0  0  0  0
 19 20  1  0  0  0  0
 19 17  1  0  0  0  0
 21 22  1  1  0  0  0
 21 33  1  0  0  0  0
 23 21  1  0  0  0  0
 23 24  1  0  0  0  0
 24 29  1  0  0  0  0
 25 24  2  0  0  0  0
 25 30  1  0  0  0  0
 26 25  1  0  0  0  0
 27 28  1  0  0  0  0
 27 26  2  0  0  0  0
 28 23  2  0  0  0  0
 31 26  1  0  0  0  0
 32 27  1  0  0  0  0
 33 34  1  0  0  0  0
 34 36  1  0  0  0  0
 34 35  1  0  0  0  0
 37 34  1  0  0  0  0
M  END
>  <minimizedAffinity>
-6.70947552

>  <minimizedRMSD>
0.901595891

$$$$
