
 OpenBabel03272503203D

 36 39  0  0  0  0  0  0  0  0999 V2000
   36.8890   30.7950   47.5830 C   0  0  0  0  0  0  0  0  0  0  0  0
   37.8720   31.6860   47.7130 C   0  0  0  0  0  0  0  0  0  0  0  0
   38.3790   32.2910   46.6260 C   0  0  0  0  0  0  0  0  0  0  0  0
   37.8380   31.9500   45.4040 C   0  0  0  0  0  0  0  0  0  0  0  0
   36.5630   30.7150   45.8580 S   0  0  0  0  0  0  0  0  0  0  0  0
   38.2480   31.9030   48.7200 H   0  0  0  0  0  0  0  0  0  0  0  0
   39.1700   33.0270   46.5820 H   0  0  0  0  0  0  0  0  0  0  0  0
   40.7870   32.1870   44.6490 Cl  0  0  0  0  0  0  0  0  0  0  0  0
   39.4000   32.5010   43.6370 C   0  0  0  0  0  0  0  0  0  0  0  0
   38.1080   32.3720   44.0460 C   0  0  0  0  0  0  0  0  0  0  0  0
   37.0080   32.6050   43.2960 C   0  0  0  0  0  0  0  0  0  0  0  0
   37.1710   33.0190   41.9710 C   0  0  0  0  0  0  0  0  0  0  0  0
   38.4480   33.1670   41.4970 C   0  0  0  0  0  0  0  0  0  0  0  0
   38.7600   33.6830   39.8450 Cl  0  0  0  0  0  0  0  0  0  0  0  0
   39.5550   32.9150   42.3130 C   0  0  0  0  0  0  0  0  0  0  0  0
   35.9760   32.5030   43.6210 H   0  0  0  0  0  0  0  0  0  0  0  0
   36.3130   33.2140   41.3420 H   0  0  0  0  0  0  0  0  0  0  0  0
   40.5770   33.0320   41.9400 H   0  0  0  0  0  0  0  0  0  0  0  0
   35.6520   29.3540   50.8330 C   0  0  0  0  0  0  0  0  0  0  0  0
   36.4080   30.1720   49.9620 C   0  0  0  0  0  0  0  0  0  0  0  0
   36.1650   30.0010   48.5800 C   0  0  0  0  0  0  0  0  0  0  0  0
   35.2550   29.0970   48.1650 N   0  0  0  0  0  0  0  0  0  0  0  0
   34.5660   28.3450   49.0440 C   0  0  0  0  0  0  0  0  0  0  0  0
   34.7650   28.4760   50.3630 N   0  0  0  0  0  0  0  0  0  0  0  0
   35.9170   29.5670   51.8660 H   0  0  0  0  0  0  0  0  0  0  0  0
   37.1400   30.9010   50.2770 H   0  0  0  0  0  0  0  0  0  0  0  0
   33.5580   27.3430   48.6120 C   0  0  0  0  0  0  0  0  0  0  0  0
   33.9410   26.8460   47.2590 C   0  0  0  0  0  0  0  0  0  0  0  0
   35.0380   26.9170   47.1350 H   0  0  0  0  0  0  0  0  0  0  0  0
   33.1990   27.6930   46.2290 C   0  0  0  0  0  0  0  0  0  0  0  0
   33.5780   27.4530   45.2320 H   0  0  0  0  0  0  0  0  0  0  0  0
   31.8430   27.3250   46.3920 O   0  0  0  0  0  0  0  0  0  0  0  0
   31.3980   28.0460   47.4780 C   0  0  0  0  0  0  0  0  0  0  0  0
   31.3860   29.1230   47.1530 H   0  0  0  0  0  0  0  0  0  0  0  0
   32.1660   27.8590   48.7270 C   0  0  0  0  0  0  0  0  0  0  0  0
   31.5350   27.2590   49.4240 H   0  0  0  0  0  0  0  0  0  0  0  0
  1  2  2  0  0  0  0
  1 21  1  0  0  0  0
  2  6  1  0  0  0  0
  3  2  1  0  0  0  0
  4  5  1  0  0  0  0
  4  3  2  0  0  0  0
  5  1  1  0  0  0  0
  7  3  1  0  0  0  0
  9 10  1  0  0  0  0
  9  8  1  0  0  0  0
 10  4  1  0  0  0  0
 11 16  1  0  0  0  0
 11 10  2  0  0  0  0
 12 11  1  0  0  0  0
 13 12  2  0  0  0  0
 13 15  1  0  0  0  0
 14 13  1  0  0  0  0
 15  9  2  0  0  0  0
 17 12  1  0  0  0  0
 18 15  1  0  0  0  0
 19 25  1  0  0  0  0
 20 26  1  0  0  0  0
 20 19  2  0  0  0  0
 21 20  1  0  0  0  0
 22 21  2  0  0  0  0
 22 23  1  0  0  0  0
 23 24  2  0  0  0  0
 24 19  1  0  0  0  0
 27 35  1  0  0  0  0
 27 23  1  0  0  0  0
 28 27  1  0  0  0  0
 29 28  1  0  0  0  0
 30 32  1  0  0  0  0
 30 28  1  0  0  0  0
 31 30  1  0  0  0  0
 32 33  1  0  0  0  0
 33 35  1  0  0  0  0
 34 33  1  0  0  0  0
 35 36  1  0  0  0  0
M  END
>  <minimizedAffinity>
-5.89233828

>  <minimizedRMSD>
1.5459156

$$$$
