
 OpenBabel03272510123D

 36 39  0  0  0  0  0  0  0  0999 V2000
   33.6140   28.5450   48.6260 C   0  0  0  0  0  0  0  0  0  0  0  0
   33.9690   28.6000   49.9400 C   0  0  0  0  0  0  0  0  0  0  0  0
   35.1330   29.1610   50.4130 C   0  0  0  0  0  0  0  0  0  0  0  0
   36.0190   29.7100   49.5330 C   0  0  0  0  0  0  0  0  0  0  0  0
   35.6600   29.6570   48.1850 C   0  0  0  0  0  0  0  0  0  0  0  0
   34.5090   29.0970   47.7660 N   0  0  0  0  0  0  0  0  0  0  0  0
   33.3270   28.1890   50.7120 H   0  0  0  0  0  0  0  0  0  0  0  0
   35.4190   29.2060   51.4550 H   0  0  0  0  0  0  0  0  0  0  0  0
   36.3020   30.0680   47.4180 H   0  0  0  0  0  0  0  0  0  0  0  0
   31.2880   27.6360   48.9710 C   0  0  0  0  0  0  0  0  0  0  0  0
   32.3900   27.9520   48.1610 C   0  0  0  0  0  0  0  0  0  0  0  0
   32.2640   27.6640   46.8110 C   0  0  0  0  0  0  0  0  0  0  0  0
   31.1080   27.0990   46.3470 N   0  0  0  0  0  0  0  0  0  0  0  0
   30.0790   26.8170   47.1850 C   0  0  0  0  0  0  0  0  0  0  0  0
   30.1640   27.0830   48.5020 N   0  0  0  0  0  0  0  0  0  0  0  0
   31.3690   27.8520   50.0130 H   0  0  0  0  0  0  0  0  0  0  0  0
   33.0820   27.8870   46.1430 H   0  0  0  0  0  0  0  0  0  0  0  0
   29.2580   26.3790   46.6360 H   0  0  0  0  0  0  0  0  0  0  0  0
   37.2400   30.3180   49.8240 O   0  0  0  0  0  0  0  0  0  0  0  0
   37.9390   31.0690   48.8830 C   0  0  0  0  0  0  0  0  0  0  0  0
   38.2190   32.3610   49.2850 C   0  0  0  0  0  0  0  0  0  0  0  0
   38.9110   32.9720   48.2480 C   0  0  0  0  0  0  0  0  0  0  0  0
   39.0220   32.0530   47.2810 N   0  0  0  0  0  0  0  0  0  0  0  0
   38.4520   30.9370   47.6540 N   0  0  0  0  0  0  0  0  0  0  0  0
   38.0370   32.9800   50.1710 H   0  0  0  0  0  0  0  0  0  0  0  0
   39.3280   33.9630   48.1120 H   0  0  0  0  0  0  0  0  0  0  0  0
   39.6490   32.1500   45.9830 C   0  0  0  0  0  3  0  0  0  0  0  0
   40.0390   30.8110   45.4340 C   0  0  0  0  0  3  0  0  0  0  0  0
   39.1140   30.2260   45.1770 H   0  0  0  0  0  0  0  0  0  0  0  0
   40.7340   31.0770   44.1000 C   0  0  0  0  0  3  0  0  0  0  0  0
   41.1010   30.1560   43.6410 H   0  0  0  0  0  0  0  0  0  0  0  0
   39.8780   31.7210   43.2240 O   0  0  0  0  0  0  0  0  0  0  0  0
   39.6150   33.0010   43.7200 C   0  0  0  0  0  3  0  0  0  0  0  0
   39.0620   33.5650   42.9230 H   0  0  0  0  0  0  0  0  0  0  0  0
   38.7490   32.8170   44.9640 C   0  0  0  0  0  3  0  0  0  0  0  0
   37.9310   32.1090   44.6480 H   0  0  0  0  0  0  0  0  0  0  0  0
  1  2  1  0  0  0  0
  2  3  2  0  0  0  0
  2  7  1  0  0  0  0
  3  8  1  0  0  0  0
  4 19  1  0  0  0  0
  4  3  1  0  0  0  0
  5  4  2  0  0  0  0
  6  5  1  0  0  0  0
  6  1  2  0  0  0  0
  9  5  1  0  0  0  0
 10 16  1  0  0  0  0
 11  1  1  0  0  0  0
 11 10  2  0  0  0  0
 12 11  1  0  0  0  0
 13 12  2  0  0  0  0
 13 14  1  0  0  0  0
 14 15  2  0  0  0  0
 15 10  1  0  0  0  0
 17 12  1  0  0  0  0
 18 14  1  0  0  0  0
 20 21  1  0  0  0  0
 20 19  1  0  0  0  0
 21 25  1  0  0  0  0
 22 21  2  0  0  0  0
 23 24  1  0  0  0  0
 23 22  1  0  0  0  0
 24 20  2  0  0  0  0
 26 22  1  0  0  0  0
 27 23  1  0  0  0  0
 28 27  1  0  0  0  0
 29 28  1  0  0  0  0
 30 28  1  0  0  0  0
 31 30  1  0  0  0  0
 32 33  1  0  0  0  0
 32 30  1  0  0  0  0
 33 35  1  0  0  0  0
 34 33  1  0  0  0  0
 35 27  1  0  0  0  0
 36 35  1  0  0  0  0
M  END
>  <minimizedAffinity>
-6.09487057

>  <minimizedRMSD>
1.79925585

$$$$
