
 OpenBabel03272500133D

 22 23  0  0  0  0  0  0  0  0999 V2000
   38.1340   25.2620   36.3970 C   0  0  0  0  0  0  0  0  0  0  0  0
   38.1570   23.9640   36.9470 C   0  0  0  0  0  0  0  0  0  0  0  0
   38.1250   22.8590   36.0700 C   0  0  0  0  0  0  0  0  0  0  0  0
   38.0740   23.1170   34.7290 N   0  0  0  0  0  0  0  0  0  0  0  0
   38.0550   24.3670   34.2400 C   0  0  0  0  0  0  0  0  0  0  0  0
   38.0840   25.4210   35.0510 N   0  0  0  0  0  0  0  0  0  0  0  0
   38.1570   26.1490   37.0160 H   0  0  0  0  0  0  0  0  0  0  0  0
   38.1420   21.8650   36.4990 H   0  0  0  0  0  0  0  0  0  0  0  0
   37.9990   24.6030   32.7620 C   0  0  0  0  0  3  0  0  0  0  0  0
   37.6950   23.3780   31.9770 C   0  0  0  0  0  3  0  0  0  0  0  0
   37.4430   22.5640   32.6970 H   0  0  0  0  0  0  0  0  0  0  0  0
   36.5660   23.5000   30.9910 C   0  0  0  0  0  3  0  0  0  0  0  0
   36.1880   22.4870   30.7570 H   0  0  0  0  0  0  0  0  0  0  0  0
   35.5360   24.1880   31.6150 O   0  0  0  0  0  0  0  0  0  0  0  0
   35.9490   25.5310   31.5900 C   0  0  0  0  0  3  0  0  0  0  0  0
   36.1890   25.8510   30.5530 H   0  0  0  0  0  0  0  0  0  0  0  0
   37.1060   25.7780   32.5160 C   0  0  0  0  0  3  0  0  0  0  0  0
   37.6860   26.6360   32.0920 H   0  0  0  0  0  0  0  0  0  0  0  0
   38.2120   23.8070   38.4400 C   0  0  0  0  0  0  0  0  0  0  0  0
   37.3040   22.8380   38.8610 F   0  0  0  0  0  0  0  0  0  0  0  0
   39.4870   23.3670   38.7660 F   0  0  0  0  0  0  0  0  0  0  0  0
   37.9550   24.9870   39.0880 F   0  0  0  0  0  0  0  0  0  0  0  0
  1  2  1  0  0  0  0
  1  7  1  0  0  0  0
  2 19  1  0  0  0  0
  3  8  1  0  0  0  0
  3  2  2  0  0  0  0
  4  3  1  0  0  0  0
  5  4  2  0  0  0  0
  5  6  1  0  0  0  0
  6  1  2  0  0  0  0
  9  5  1  0  0  0  0
 10 11  1  0  0  0  0
 10  9  1  0  0  0  0
 12 14  1  0  0  0  0
 12 10  1  0  0  0  0
 13 12  1  0  0  0  0
 15 14  1  0  0  0  0
 15 17  1  0  0  0  0
 16 15  1  0  0  0  0
 17  9  1  0  0  0  0
 18 17  1  0  0  0  0
 19 21  1  0  0  0  0
 19 20  1  0  0  0  0
 19 22  1  0  0  0  0
M  END
>  <minimizedAffinity>
-4.98300219

$$$$

 OpenBabel03272500133D

 22 23  0  0  0  0  0  0  0  0999 V2000
   38.1370   22.9030   36.1200 C   0  0  0  0  0  0  0  0  0  0  0  0
   38.1630   24.0160   36.9850 C   0  0  0  0  0  0  0  0  0  0  0  0
   38.1380   25.3090   36.4210 C   0  0  0  0  0  0  0  0  0  0  0  0
   38.0880   25.4040   35.0590 N   0  0  0  0  0  0  0  0  0  0  0  0
   38.0630   24.3220   34.2650 C   0  0  0  0  0  0  0  0  0  0  0  0
   38.0870   23.0950   34.7790 N   0  0  0  0  0  0  0  0  0  0  0  0
   38.1540   21.8860   36.4910 H   0  0  0  0  0  0  0  0  0  0  0  0
   38.1590   26.1600   37.0910 H   0  0  0  0  0  0  0  0  0  0  0  0
   38.0080   24.4730   32.7760 C   0  0  0  0  0  3  0  0  0  0  0  0
   37.7350   23.1980   32.0620 C   0  0  0  0  0  3  0  0  0  0  0  0
   37.4980   22.4210   32.8260 H   0  0  0  0  0  0  0  0  0  0  0  0
   36.6080   23.2380   31.0670 C   0  0  0  0  0  3  0  0  0  0  0  0
   36.2540   22.2050   30.8900 H   0  0  0  0  0  0  0  0  0  0  0  0
   35.5600   23.9370   31.6470 O   0  0  0  0  0  0  0  0  0  0  0  0
   35.9430   25.2860   31.5460 C   0  0  0  0  0  3  0  0  0  0  0  0
   36.1800   25.5510   30.4940 H   0  0  0  0  0  0  0  0  0  0  0  0
   37.0910   25.6110   32.4600 C   0  0  0  0  0  3  0  0  0  0  0  0
   37.6530   26.4560   31.9890 H   0  0  0  0  0  0  0  0  0  0  0  0
   38.2190   23.7840   38.4680 C   0  0  0  0  0  0  0  0  0  0  0  0
   39.5100   23.4310   38.8570 F   0  0  0  0  0  0  0  0  0  0  0  0
   37.8990   24.9830   39.0910 F   0  0  0  0  0  0  0  0  0  0  0  0
   37.3400   22.8110   38.8670 F   0  0  0  0  0  0  0  0  0  0  0  0
  1  7  1  0  0  0  0
  1  2  1  0  0  0  0
  2 19  1  0  0  0  0
  3  2  2  0  0  0  0
  3  8  1  0  0  0  0
  4  3  1  0  0  0  0
  5  6  1  0  0  0  0
  5  4  2  0  0  0  0
  6  1  2  0  0  0  0
  9  5  1  0  0  0  0
 10  9  1  0  0  0  0
 10 11  1  0  0  0  0
 12 14  1  0  0  0  0
 12 10  1  0  0  0  0
 13 12  1  0  0  0  0
 15 14  1  0  0  0  0
 15 17  1  0  0  0  0
 16 15  1  0  0  0  0
 17  9  1  0  0  0  0
 18 17  1  0  0  0  0
 19 20  1  0  0  0  0
 19 22  1  0  0  0  0
 19 21  1  0  0  0  0
M  END
>  <minimizedAffinity>
-4.98005104

$$$$

 OpenBabel03272500133D

 22 23  0  0  0  0  0  0  0  0999 V2000
   38.0980   25.5620   36.5330 C   0  0  0  0  0  0  0  0  0  0  0  0
   38.1600   24.2000   36.8910 C   0  0  0  0  0  0  0  0  0  0  0  0
   38.1620   23.2320   35.8640 C   0  0  0  0  0  0  0  0  0  0  0  0
   38.1040   23.6800   34.5730 N   0  0  0  0  0  0  0  0  0  0  0  0
   38.0480   24.9860   34.2690 C   0  0  0  0  0  0  0  0  0  0  0  0
   38.0440   25.9120   35.2250 N   0  0  0  0  0  0  0  0  0  0  0  0
   38.0940   26.3510   37.2750 H   0  0  0  0  0  0  0  0  0  0  0  0
   38.2090   22.1880   36.1450 H   0  0  0  0  0  0  0  0  0  0  0  0
   37.9860   25.4310   32.8410 C   0  0  0  0  0  3  0  0  0  0  0  0
   36.6910   25.1200   32.1790 C   0  0  0  0  0  3  0  0  0  0  0  0
   35.9930   24.7310   32.9580 H   0  0  0  0  0  0  0  0  0  0  0  0
   36.0220   26.2730   31.4840 C   0  0  0  0  0  3  0  0  0  0  0  0
   34.9460   26.0440   31.3700 H   0  0  0  0  0  0  0  0  0  0  0  0
   36.1200   27.3800   32.3160 O   0  0  0  0  0  0  0  0  0  0  0  0
   37.4470   27.8160   32.1620 C   0  0  0  0  0  3  0  0  0  0  0  0
   37.6820   27.9910   31.0910 H   0  0  0  0  0  0  0  0  0  0  0  0
   38.4250   26.8600   32.7830 C   0  0  0  0  0  3  0  0  0  0  0  0
   39.3840   26.9580   32.2140 H   0  0  0  0  0  0  0  0  0  0  0  0
   38.2190   23.8310   38.3460 C   0  0  0  0  0  0  0  0  0  0  0  0
   39.4870   23.3550   38.6760 F   0  0  0  0  0  0  0  0  0  0  0  0
   37.9940   24.9880   39.0790 F   0  0  0  0  0  0  0  0  0  0  0  0
   37.2790   22.8900   38.6730 F   0  0  0  0  0  0  0  0  0  0  0  0
  1  2  1  0  0  0  0
  1  7  1  0  0  0  0
  2 19  1  0  0  0  0
  3  8  1  0  0  0  0
  3  2  2  0  0  0  0
  4  3  1  0  0  0  0
  5  4  2  0  0  0  0
  5  6  1  0  0  0  0
  6  1  2  0  0  0  0
  9  5  1  0  0  0  0
 10  9  1  0  0  0  0
 10 11  1  0  0  0  0
 12 10  1  0  0  0  0
 12 14  1  0  0  0  0
 13 12  1  0  0  0  0
 15 14  1  0  0  0  0
 15 17  1  0  0  0  0
 16 15  1  0  0  0  0
 17  9  1  0  0  0  0
 18 17  1  0  0  0  0
 19 22  1  0  0  0  0
 19 20  1  0  0  0  0
 19 21  1  0  0  0  0
M  END
>  <minimizedAffinity>
-4.92457008

$$$$

 OpenBabel03272500133D

 22 23  0  0  0  0  0  0  0  0999 V2000
   38.1760   23.3760   35.8280 C   0  0  0  0  0  0  0  0  0  0  0  0
   38.1740   24.3220   36.8730 C   0  0  0  0  0  0  0  0  0  0  0  0
   38.0990   25.6920   36.5440 C   0  0  0  0  0  0  0  0  0  0  0  0
   38.0310   26.0210   35.2180 N   0  0  0  0  0  0  0  0  0  0  0  0
   38.0330   25.0930   34.2490 C   0  0  0  0  0  0  0  0  0  0  0  0
   38.1050   23.7960   34.5400 N   0  0  0  0  0  0  0  0  0  0  0  0
   38.2320   22.3120   36.0160 H   0  0  0  0  0  0  0  0  0  0  0  0
   38.0990   26.4130   37.3500 H   0  0  0  0  0  0  0  0  0  0  0  0
   37.9570   25.4980   32.8090 C   0  0  0  0  0  3  0  0  0  0  0  0
   36.6540   25.1710   32.1700 C   0  0  0  0  0  3  0  0  0  0  0  0
   35.9650   24.8050   32.9670 H   0  0  0  0  0  0  0  0  0  0  0  0
   35.9810   26.3050   31.4500 C   0  0  0  0  0  3  0  0  0  0  0  0
   34.9030   26.0750   31.3530 H   0  0  0  0  0  0  0  0  0  0  0  0
   36.0890   27.4340   32.2480 O   0  0  0  0  0  0  0  0  0  0  0  0
   37.4150   27.8630   32.0680 C   0  0  0  0  0  3  0  0  0  0  0  0
   37.6400   28.0080   30.9900 H   0  0  0  0  0  0  0  0  0  0  0  0
   38.3980   26.9230   32.7060 C   0  0  0  0  0  3  0  0  0  0  0  0
   39.3510   27.0040   32.1240 H   0  0  0  0  0  0  0  0  0  0  0  0
   38.2540   23.8380   38.2930 C   0  0  0  0  0  0  0  0  0  0  0  0
   39.5090   23.2890   38.5500 F   0  0  0  0  0  0  0  0  0  0  0  0
   38.0940   24.9410   39.1200 F   0  0  0  0  0  0  0  0  0  0  0  0
   37.2850   22.9110   38.5720 F   0  0  0  0  0  0  0  0  0  0  0  0
  1  7  1  0  0  0  0
  1  2  1  0  0  0  0
  2 19  1  0  0  0  0
  3  2  2  0  0  0  0
  3  8  1  0  0  0  0
  4  3  1  0  0  0  0
  5  6  1  0  0  0  0
  5  4  2  0  0  0  0
  6  1  2  0  0  0  0
  9  5  1  0  0  0  0
 10  9  1  0  0  0  0
 10 11  1  0  0  0  0
 12 10  1  0  0  0  0
 12 14  1  0  0  0  0
 13 12  1  0  0  0  0
 15 14  1  0  0  0  0
 15 17  1  0  0  0  0
 16 15  1  0  0  0  0
 17  9  1  0  0  0  0
 18 17  1  0  0  0  0
 19 20  1  0  0  0  0
 19 22  1  0  0  0  0
 19 21  1  0  0  0  0
M  END
>  <minimizedAffinity>
-4.90635777

$$$$

 OpenBabel03272500133D

 22 23  0  0  0  0  0  0  0  0999 V2000
   38.4390   24.8940   36.2770 C   0  0  0  0  0  0  0  0  0  0  0  0
   38.1730   23.6890   36.9570 C   0  0  0  0  0  0  0  0  0  0  0  0
   37.8250   22.5490   36.2000 C   0  0  0  0  0  0  0  0  0  0  0  0
   37.7680   22.6870   34.8410 N   0  0  0  0  0  0  0  0  0  0  0  0
   38.0290   23.8510   34.2270 C   0  0  0  0  0  0  0  0  0  0  0  0
   38.3580   24.9360   34.9240 N   0  0  0  0  0  0  0  0  0  0  0  0
   38.7110   25.8020   36.8010 H   0  0  0  0  0  0  0  0  0  0  0  0
   37.6220   21.6270   36.7280 H   0  0  0  0  0  0  0  0  0  0  0  0
   37.9550   23.9570   32.7350 C   0  0  0  0  0  3  0  0  0  0  0  0
   37.7760   22.6450   32.0560 C   0  0  0  0  0  3  0  0  0  0  0  0
   37.6040   21.8740   32.8430 H   0  0  0  0  0  0  0  0  0  0  0  0
   36.6440   22.5720   31.0700 C   0  0  0  0  0  3  0  0  0  0  0  0
   36.3690   21.5110   30.9230 H   0  0  0  0  0  0  0  0  0  0  0  0
   35.5490   23.2050   31.6390 O   0  0  0  0  0  0  0  0  0  0  0  0
   35.8270   24.5760   31.5000 C   0  0  0  0  0  3  0  0  0  0  0  0
   36.0370   24.8290   30.4390 H   0  0  0  0  0  0  0  0  0  0  0  0
   36.9510   25.0120   32.3960 C   0  0  0  0  0  3  0  0  0  0  0  0
   37.4440   25.8850   31.8980 H   0  0  0  0  0  0  0  0  0  0  0  0
   38.2680   23.6620   38.4560 C   0  0  0  0  0  0  0  0  0  0  0  0
   39.5730   23.3820   38.8560 F   0  0  0  0  0  0  0  0  0  0  0  0
   37.9430   24.9300   38.9180 F   0  0  0  0  0  0  0  0  0  0  0  0
   37.4150   22.7410   39.0060 F   0  0  0  0  0  0  0  0  0  0  0  0
  1  7  1  0  0  0  0
  1  2  1  0  0  0  0
  2 19  1  0  0  0  0
  3  8  1  0  0  0  0
  3  2  2  0  0  0  0
  4  3  1  0  0  0  0
  5  4  2  0  0  0  0
  5  6  1  0  0  0  0
  6  1  2  0  0  0  0
  9  5  1  0  0  0  0
 10  9  1  0  0  0  0
 10 11  1  0  0  0  0
 12 14  1  0  0  0  0
 12 10  1  0  0  0  0
 13 12  1  0  0  0  0
 15 14  1  0  0  0  0
 15 17  1  0  0  0  0
 16 15  1  0  0  0  0
 17  9  1  0  0  0  0
 18 17  1  0  0  0  0
 19 20  1  0  0  0  0
 19 21  1  0  0  0  0
 19 22  1  0  0  0  0
M  END
>  <minimizedAffinity>
-4.85604858

$$$$

 OpenBabel03272500133D

 22 23  0  0  0  0  0  0  0  0999 V2000
   37.1500   20.8300   32.5160 C   0  0  0  0  0  0  0  0  0  0  0  0
   35.9440   20.3280   33.0450 C   0  0  0  0  0  0  0  0  0  0  0  0
   35.6290   20.6090   34.3910 C   0  0  0  0  0  0  0  0  0  0  0  0
   36.5210   21.3600   35.1060 N   0  0  0  0  0  0  0  0  0  0  0  0
   37.6600   21.8230   34.5690 C   0  0  0  0  0  0  0  0  0  0  0  0
   37.9740   21.5670   33.3010 N   0  0  0  0  0  0  0  0  0  0  0  0
   37.4480   20.6490   31.4910 H   0  0  0  0  0  0  0  0  0  0  0  0
   34.7020   20.2200   34.7920 H   0  0  0  0  0  0  0  0  0  0  0  0
   38.6080   22.6420   35.3890 C   0  0  0  0  0  3  0  0  0  0  0  0
   39.1830   23.7990   34.6510 C   0  0  0  0  0  3  0  0  0  0  0  0
   38.6620   23.8700   33.6670 H   0  0  0  0  0  0  0  0  0  0  0  0
   39.0700   25.1300   35.3400 C   0  0  0  0  0  3  0  0  0  0  0  0
   39.1670   25.9310   34.5840 H   0  0  0  0  0  0  0  0  0  0  0  0
   37.7920   25.2220   35.8720 O   0  0  0  0  0  0  0  0  0  0  0  0
   37.8370   24.4200   37.0260 C   0  0  0  0  0  3  0  0  0  0  0  0
   38.6650   24.7370   37.6940 H   0  0  0  0  0  0  0  0  0  0  0  0
   37.9400   22.9600   36.6890 C   0  0  0  0  0  3  0  0  0  0  0  0
   38.4720   22.4650   37.5400 H   0  0  0  0  0  0  0  0  0  0  0  0
   35.0450   19.5130   32.1600 C   0  0  0  0  0  0  0  0  0  0  0  0
   33.8270   20.1650   31.9730 F   0  0  0  0  0  0  0  0  0  0  0  0
   35.6640   19.4040   30.9230 F   0  0  0  0  0  0  0  0  0  0  0  0
   34.8190   18.2630   32.6720 F   0  0  0  0  0  0  0  0  0  0  0  0
  1  2  2  0  0  0  0
  1  6  1  0  0  0  0
  2  3  1  0  0  0  0
  3  8  1  0  0  0  0
  3  4  2  0  0  0  0
  5  4  1  0  0  0  0
  5  9  1  0  0  0  0
  6  5  2  0  0  0  0
  7  1  1  0  0  0  0
  9 17  1  0  0  0  0
 10 12  1  0  0  0  0
 10  9  1  0  0  0  0
 11 10  1  0  0  0  0
 12 14  1  0  0  0  0
 13 12  1  0  0  0  0
 14 15  1  0  0  0  0
 15 16  1  0  0  0  0
 17 15  1  0  0  0  0
 17 18  1  0  0  0  0
 19 22  1  0  0  0  0
 19  2  1  0  0  0  0
 20 19  1  0  0  0  0
 21 19  1  0  0  0  0
M  END
>  <minimizedAffinity>
-4.52927876

$$$$

 OpenBabel03272500133D

 22 23  0  0  0  0  0  0  0  0999 V2000
   38.2550   24.7800   34.5270 C   0  0  0  0  0  0  0  0  0  0  0  0
   37.9620   26.1590   34.5270 C   0  0  0  0  0  0  0  0  0  0  0  0
   37.2730   26.7030   33.4220 C   0  0  0  0  0  0  0  0  0  0  0  0
   36.9270   25.8510   32.4110 N   0  0  0  0  0  0  0  0  0  0  0  0
   37.2220   24.5420   32.4440 C   0  0  0  0  0  0  0  0  0  0  0  0
   37.8720   24.0110   33.4770 N   0  0  0  0  0  0  0  0  0  0  0  0
   38.7800   24.3030   35.3440 H   0  0  0  0  0  0  0  0  0  0  0  0
   37.0510   27.7620   33.4280 H   0  0  0  0  0  0  0  0  0  0  0  0
   36.8240   23.6440   31.3130 C   0  0  0  0  0  3  0  0  0  0  0  0
   37.9210   22.7530   30.8500 C   0  0  0  0  0  3  0  0  0  0  0  0
   38.7770   22.8690   31.5560 H   0  0  0  0  0  0  0  0  0  0  0  0
   37.5790   21.2930   30.7610 C   0  0  0  0  0  3  0  0  0  0  0  0
   38.5160   20.7060   30.7830 H   0  0  0  0  0  0  0  0  0  0  0  0
   36.8580   20.9590   31.8980 O   0  0  0  0  0  0  0  0  0  0  0  0
   35.5700   21.4660   31.6550 C   0  0  0  0  0  3  0  0  0  0  0  0
   35.1680   21.0780   30.6950 H   0  0  0  0  0  0  0  0  0  0  0  0
   35.5440   22.9670   31.6880 C   0  0  0  0  0  3  0  0  0  0  0  0
   34.7100   23.2940   31.0170 H   0  0  0  0  0  0  0  0  0  0  0  0
   38.3940   26.9940   35.6980 C   0  0  0  0  0  0  0  0  0  0  0  0
   38.1980   26.3000   36.8900 F   0  0  0  0  0  0  0  0  0  0  0  0
   39.7550   27.2310   35.5630 F   0  0  0  0  0  0  0  0  0  0  0  0
   37.7240   28.1880   35.7490 F   0  0  0  0  0  0  0  0  0  0  0  0
  1  7  1  0  0  0  0
  2  1  1  0  0  0  0
  2 19  1  0  0  0  0
  3  8  1  0  0  0  0
  3  2  2  0  0  0  0
  4  5  2  0  0  0  0
  4  3  1  0  0  0  0
  5  6  1  0  0  0  0
  6  1  2  0  0  0  0
  9 17  1  0  0  0  0
  9  5  1  0  0  0  0
 10  9  1  0  0  0  0
 10 11  1  0  0  0  0
 12 13  1  0  0  0  0
 12 10  1  0  0  0  0
 12 14  1  0  0  0  0
 15 17  1  0  0  0  0
 15 14  1  0  0  0  0
 16 15  1  0  0  0  0
 18 17  1  0  0  0  0
 19 22  1  0  0  0  0
 19 20  1  0  0  0  0
 21 19  1  0  0  0  0
M  END
>  <minimizedAffinity>
-4.51037359

$$$$

 OpenBabel03272500133D

 22 23  0  0  0  0  0  0  0  0999 V2000
   37.1360   21.5830   33.7290 C   0  0  0  0  0  0  0  0  0  0  0  0
   36.7940   22.2910   32.5590 C   0  0  0  0  0  0  0  0  0  0  0  0
   37.1570   23.6520   32.4630 C   0  0  0  0  0  0  0  0  0  0  0  0
   37.8250   24.2040   33.5210 N   0  0  0  0  0  0  0  0  0  0  0  0
   38.1350   23.4990   34.6200 C   0  0  0  0  0  0  0  0  0  0  0  0
   37.8000   22.2160   34.7280 N   0  0  0  0  0  0  0  0  0  0  0  0
   36.8860   20.5390   33.8630 H   0  0  0  0  0  0  0  0  0  0  0  0
   36.8910   24.1900   31.5630 H   0  0  0  0  0  0  0  0  0  0  0  0
   38.8680   24.1450   35.7550 C   0  0  0  0  0  3  0  0  0  0  0  0
   37.9710   24.8160   36.7330 C   0  0  0  0  0  3  0  0  0  0  0  0
   36.9190   24.5670   36.4600 H   0  0  0  0  0  0  0  0  0  0  0  0
   38.1840   24.4410   38.1730 C   0  0  0  0  0  3  0  0  0  0  0  0
   37.2660   24.6800   38.7420 H   0  0  0  0  0  0  0  0  0  0  0  0
   38.3530   23.0650   38.2290 O   0  0  0  0  0  0  0  0  0  0  0  0
   39.6720   22.8580   37.7880 C   0  0  0  0  0  3  0  0  0  0  0  0
   40.3870   23.4600   38.3880 H   0  0  0  0  0  0  0  0  0  0  0  0
   39.8210   23.1410   36.3200 C   0  0  0  0  0  3  0  0  0  0  0  0
   40.8810   23.4620   36.1560 H   0  0  0  0  0  0  0  0  0  0  0  0
   36.0580   21.5740   31.4640 C   0  0  0  0  0  0  0  0  0  0  0  0
   35.3930   22.4870   30.6460 F   0  0  0  0  0  0  0  0  0  0  0  0
   37.0020   20.9160   30.6880 F   0  0  0  0  0  0  0  0  0  0  0  0
   35.1590   20.6670   31.9610 F   0  0  0  0  0  0  0  0  0  0  0  0
  1  7  1  0  0  0  0
  1  6  1  0  0  0  0
  2  1  2  0  0  0  0
  3  2  1  0  0  0  0
  3  4  2  0  0  0  0
  4  5  1  0  0  0  0
  5  6  2  0  0  0  0
  5  9  1  0  0  0  0
  8  3  1  0  0  0  0
  9 17  1  0  0  0  0
  9 10  1  0  0  0  0
 10 12  1  0  0  0  0
 11 10  1  0  0  0  0
 12 14  1  0  0  0  0
 12 13  1  0  0  0  0
 15 14  1  0  0  0  0
 15 16  1  0  0  0  0
 17 15  1  0  0  0  0
 18 17  1  0  0  0  0
 19 22  1  0  0  0  0
 19  2  1  0  0  0  0
 20 19  1  0  0  0  0
 21 19  1  0  0  0  0
M  END
>  <minimizedAffinity>
-4.49228811

$$$$

 OpenBabel03272500133D

 22 23  0  0  0  0  0  0  0  0999 V2000
   37.9750   25.4200   33.8250 C   0  0  0  0  0  0  0  0  0  0  0  0
   38.2660   25.5660   35.1970 C   0  0  0  0  0  0  0  0  0  0  0  0
   38.3150   24.4080   36.0030 C   0  0  0  0  0  0  0  0  0  0  0  0
   38.0750   23.2060   35.3990 N   0  0  0  0  0  0  0  0  0  0  0  0
   37.8010   23.1040   34.0890 C   0  0  0  0  0  0  0  0  0  0  0  0
   37.7500   24.1850   33.3130 N   0  0  0  0  0  0  0  0  0  0  0  0
   37.9230   26.2690   33.1550 H   0  0  0  0  0  0  0  0  0  0  0  0
   38.5390   24.5270   37.0550 H   0  0  0  0  0  0  0  0  0  0  0  0
   37.5440   21.7660   33.4680 C   0  0  0  0  0  3  0  0  0  0  0  0
   36.3100   21.1060   33.9720 C   0  0  0  0  0  3  0  0  0  0  0  0
   35.7730   21.8360   34.6220 H   0  0  0  0  0  0  0  0  0  0  0  0
   35.3540   20.6220   32.9180 C   0  0  0  0  0  3  0  0  0  0  0  0
   34.3530   20.5080   33.3720 H   0  0  0  0  0  0  0  0  0  0  0  0
   35.2560   21.6130   31.9520 O   0  0  0  0  0  0  0  0  0  0  0  0
   36.4380   21.4860   31.2020 C   0  0  0  0  0  3  0  0  0  0  0  0
   36.5550   20.4490   30.8230 H   0  0  0  0  0  0  0  0  0  0  0  0
   37.6460   21.9180   31.9830 C   0  0  0  0  0  3  0  0  0  0  0  0
   38.5170   21.3410   31.5830 H   0  0  0  0  0  0  0  0  0  0  0  0
   38.5120   26.9420   35.7470 C   0  0  0  0  0  0  0  0  0  0  0  0
   38.2990   26.9610   37.1240 F   0  0  0  0  0  0  0  0  0  0  0  0
   39.8460   27.2510   35.5180 F   0  0  0  0  0  0  0  0  0  0  0  0
   37.7140   27.8810   35.1480 F   0  0  0  0  0  0  0  0  0  0  0  0
  1  2  1  0  0  0  0
  2 19  1  0  0  0  0
  2  3  2  0  0  0  0
  3  8  1  0  0  0  0
  4  3  1  0  0  0  0
  5  4  2  0  0  0  0
  6  1  2  0  0  0  0
  6  5  1  0  0  0  0
  7  1  1  0  0  0  0
  9 10  1  0  0  0  0
  9  5  1  0  0  0  0
 10 11  1  0  0  0  0
 12 13  1  0  0  0  0
 12 10  1  0  0  0  0
 14 12  1  0  0  0  0
 15 14  1  0  0  0  0
 15 17  1  0  0  0  0
 16 15  1  0  0  0  0
 17  9  1  0  0  0  0
 18 17  1  0  0  0  0
 19 20  1  0  0  0  0
 21 19  1  0  0  0  0
 22 19  1  0  0  0  0
M  END
>  <minimizedAffinity>
-4.44409609

$$$$
