
 OpenBabel03272507153D

 41 45  0  0  0  0  0  0  0  0999 V2000
   37.1920   27.7940   32.4730 C   0  0  0  0  0  0  0  0  0  0  0  0
   36.5240   28.4050   31.4690 C   0  0  0  0  0  0  0  0  0  0  0  0
   35.5920   29.2570   32.0660 C   0  0  0  0  0  0  0  0  0  0  0  0
   35.7670   29.0980   33.4480 C   0  0  0  0  0  0  0  0  0  0  0  0
   36.7170   28.2300   33.6110 O   0  0  0  0  0  0  0  0  0  0  0  0
   36.6380   28.2980   30.3780 H   0  0  0  0  0  0  0  0  0  0  0  0
   34.9090   29.8830   31.4780 H   0  0  0  0  0  0  0  0  0  0  0  0
   33.6100   29.5690   34.6040 C   0  0  0  0  0  0  0  0  0  0  0  0
   34.9610   29.8370   34.4150 C   0  0  0  0  0  0  0  0  0  0  0  0
   35.6070   30.8220   35.1410 C   0  0  0  0  0  0  0  0  0  0  0  0
   34.8740   31.5320   36.0590 C   0  0  0  0  0  0  0  0  0  0  0  0
   35.2260   32.5250   36.8960 N   0  0  0  0  0  0  0  0  0  0  0  0
   34.1420   32.8680   37.5850 N   0  0  0  0  0  0  0  0  0  0  0  0
   33.1080   32.1140   37.2040 C   0  0  0  0  0  0  0  0  0  0  0  0
   33.5260   31.2260   36.2130 C   0  0  0  0  0  0  0  0  0  0  0  0
   32.8650   30.2520   35.5020 C   0  0  0  0  0  0  0  0  0  0  0  0
   33.1920   28.7790   33.9890 H   0  0  0  0  0  0  0  0  0  0  0  0
   36.6580   31.0830   35.0420 H   0  0  0  0  0  0  0  0  0  0  0  0
   36.1610   32.9780   37.0200 H   0  0  0  0  0  0  0  0  0  0  0  0
   32.0670   32.1320   37.5670 H   0  0  0  0  0  0  0  0  0  0  0  0
   31.8310   30.0640   35.6640 H   0  0  0  0  0  0  0  0  0  0  0  0
   38.2520   26.8230   32.2210 C   0  0  0  0  0  0  0  0  0  0  0  0
   39.2140   27.1500   31.4830 O   0  0  0  0  0  0  0  0  0  0  0  0
   38.1300   25.5280   32.8420 C   0  0  0  0  0  0  0  0  0  0  0  0
   37.6960   24.4790   32.0600 C   0  0  0  0  0  0  0  0  0  0  0  0
   37.5640   23.2160   32.6190 C   0  0  0  0  0  0  0  0  0  0  0  0
   37.8790   23.0870   33.9310 N   0  0  0  0  0  0  0  0  0  0  0  0
   38.2970   24.1030   34.6810 C   0  0  0  0  0  0  0  0  0  0  0  0
   38.4190   25.3100   34.1290 N   0  0  0  0  0  0  0  0  0  0  0  0
   37.4340   24.5530   30.9940 H   0  0  0  0  0  0  0  0  0  0  0  0
   37.2320   22.3870   32.0390 H   0  0  0  0  0  0  0  0  0  0  0  0
   38.6460   23.9730   36.1250 C   0  0  0  0  0  3  0  0  0  0  0  0
   37.6180   23.1860   36.9010 C   0  0  0  0  0  3  0  0  0  0  0  0
   37.6570   22.0940   36.6400 H   0  0  0  0  0  0  0  0  0  0  0  0
   37.9300   23.4260   38.3650 C   0  0  0  0  0  3  0  0  0  0  0  0
   37.3100   22.7930   39.0300 H   0  0  0  0  0  0  0  0  0  0  0  0
   39.2720   23.3700   38.6340 O   0  0  0  0  0  0  0  0  0  0  0  0
   40.0240   22.6670   37.7000 C   0  0  0  0  0  3  0  0  0  0  0  0
   41.0760   22.6910   38.0500 H   0  0  0  0  0  0  0  0  0  0  0  0
   39.9810   23.2980   36.3340 C   0  0  0  0  0  3  0  0  0  0  0  0
   40.1500   22.4810   35.5890 H   0  0  0  0  0  0  0  0  0  0  0  0
  1  5  1  0  0  0  0
  2  3  1  0  0  0  0
  2  1  2  0  0  0  0
  3  4  2  0  0  0  0
  4  5  1  0  0  0  0
  4  9  1  0  0  0  0
  6  2  1  0  0  0  0
  7  3  1  0  0  0  0
  8 16  1  0  0  0  0
  9  8  2  0  0  0  0
  9 10  1  0  0  0  0
 10 11  2  0  0  0  0
 11 15  1  0  0  0  0
 11 12  1  0  0  0  0
 12 19  1  0  0  0  0
 12 13  1  0  0  0  0
 14 20  1  0  0  0  0
 14 13  2  0  0  0  0
 15 14  1  0  0  0  0
 16 21  1  0  0  0  0
 16 15  2  0  0  0  0
 17  8  1  0  0  0  0
 18 10  1  0  0  0  0
 22  1  1  0  0  0  0
 22 24  1  0  0  0  0
 23 22  2  0  0  0  0
 24 29  1  0  0  0  0
 25 26  1  0  0  0  0
 25 24  2  0  0  0  0
 26 27  2  0  0  0  0
 27 28  1  0  0  0  0
 28 32  1  0  0  0  0
 29 28  2  0  0  0  0
 30 25  1  0  0  0  0
 31 26  1  0  0  0  0
 32 40  1  0  0  0  0
 32 33  1  0  0  0  0
 33 35  1  0  0  0  0
 34 33  1  0  0  0  0
 35 37  1  0  0  0  0
 35 36  1  0  0  0  0
 38 39  1  0  0  0  0
 38 37  1  0  0  0  0
 40 38  1  0  0  0  0
 41 40  1  0  0  0  0
M  END
>  <minimizedAffinity>
-6.84793949

$$$$

 OpenBabel03272507153D

 41 45  0  0  0  0  0  0  0  0999 V2000
   37.2390   27.0050   33.5850 C   0  0  0  0  0  0  0  0  0  0  0  0
   37.2800   27.6250   34.7850 C   0  0  0  0  0  0  0  0  0  0  0  0
   38.2240   26.9440   35.5580 C   0  0  0  0  0  0  0  0  0  0  0  0
   38.7110   25.9160   34.7390 C   0  0  0  0  0  0  0  0  0  0  0  0
   38.0920   26.0130   33.6030 O   0  0  0  0  0  0  0  0  0  0  0  0
   36.7110   28.4950   35.1490 H   0  0  0  0  0  0  0  0  0  0  0  0
   38.4620   27.2400   36.5880 H   0  0  0  0  0  0  0  0  0  0  0  0
   41.0650   25.1060   34.8420 C   0  0  0  0  0  0  0  0  0  0  0  0
   39.7290   24.9800   35.2050 C   0  0  0  0  0  0  0  0  0  0  0  0
   39.3020   23.9560   36.0310 C   0  0  0  0  0  0  0  0  0  0  0  0
   40.2380   23.0620   36.4870 C   0  0  0  0  0  0  0  0  0  0  0  0
   40.1210   21.9890   37.2910 N   0  0  0  0  0  0  0  0  0  0  0  0
   41.3340   21.4610   37.4300 N   0  0  0  0  0  0  0  0  0  0  0  0
   42.2200   22.1760   36.7310 C   0  0  0  0  0  0  0  0  0  0  0  0
   41.5630   23.2300   36.0970 C   0  0  0  0  0  0  0  0  0  0  0  0
   42.0080   24.2400   35.2770 C   0  0  0  0  0  0  0  0  0  0  0  0
   41.3040   25.9400   34.1910 H   0  0  0  0  0  0  0  0  0  0  0  0
   38.2740   23.7990   36.3520 H   0  0  0  0  0  0  0  0  0  0  0  0
   39.2630   21.6010   37.7470 H   0  0  0  0  0  0  0  0  0  0  0  0
   43.3060   22.0200   36.6260 H   0  0  0  0  0  0  0  0  0  0  0  0
   43.0350   24.3170   35.0140 H   0  0  0  0  0  0  0  0  0  0  0  0
   36.3530   27.4470   32.5130 C   0  0  0  0  0  0  0  0  0  0  0  0
   35.7590   26.5840   31.8200 O   0  0  0  0  0  0  0  0  0  0  0  0
   36.2100   28.8680   32.3100 C   0  0  0  0  0  0  0  0  0  0  0  0
   36.4030   29.3560   31.0350 C   0  0  0  0  0  0  0  0  0  0  0  0
   36.2760   30.7170   30.7970 C   0  0  0  0  0  0  0  0  0  0  0  0
   35.9620   31.5010   31.8560 N   0  0  0  0  0  0  0  0  0  0  0  0
   35.7780   31.0250   33.0840 C   0  0  0  0  0  0  0  0  0  0  0  0
   35.9040   29.7140   33.2980 N   0  0  0  0  0  0  0  0  0  0  0  0
   36.6580   28.7440   30.1570 H   0  0  0  0  0  0  0  0  0  0  0  0
   36.4180   31.1220   29.8230 H   0  0  0  0  0  0  0  0  0  0  0  0
   35.4330   31.8780   34.2570 C   0  0  0  0  0  3  0  0  0  0  0  0
   35.8040   31.2340   35.5710 C   0  0  0  0  0  3  0  0  0  0  0  0
   36.9170   31.2210   35.7190 H   0  0  0  0  0  0  0  0  0  0  0  0
   35.1040   32.0450   36.6430 C   0  0  0  0  0  3  0  0  0  0  0  0
   35.4070   31.7350   37.6620 H   0  0  0  0  0  0  0  0  0  0  0  0
   35.1880   33.3940   36.4230 O   0  0  0  0  0  0  0  0  0  0  0  0
   36.2370   33.7850   35.5990 C   0  0  0  0  0  3  0  0  0  0  0  0
   36.1920   34.8910   35.5220 H   0  0  0  0  0  0  0  0  0  0  0  0
   36.1150   33.2250   34.2070 C   0  0  0  0  0  3  0  0  0  0  0  0
   37.1520   33.1450   33.7930 H   0  0  0  0  0  0  0  0  0  0  0  0
  1  5  1  0  0  0  0
  1  2  2  0  0  0  0
  2  6  1  0  0  0  0
  2  3  1  0  0  0  0
  3  7  1  0  0  0  0
  4  9  1  0  0  0  0
  4  3  2  0  0  0  0
  5  4  1  0  0  0  0
  8  9  2  0  0  0  0
  8 16  1  0  0  0  0
  9 10  1  0  0  0  0
 10 18  1  0  0  0  0
 10 11  2  0  0  0  0
 11 12  1  0  0  0  0
 12 13  1  0  0  0  0
 12 19  1  0  0  0  0
 14 13  2  0  0  0  0
 15 11  1  0  0  0  0
 15 14  1  0  0  0  0
 16 15  2  0  0  0  0
 17  8  1  0  0  0  0
 20 14  1  0  0  0  0
 21 16  1  0  0  0  0
 22  1  1  0  0  0  0
 23 22  2  0  0  0  0
 24 22  1  0  0  0  0
 24 29  1  0  0  0  0
 25 24  2  0  0  0  0
 26 25  1  0  0  0  0
 26 27  2  0  0  0  0
 27 28  1  0  0  0  0
 28 29  2  0  0  0  0
 28 32  1  0  0  0  0
 30 25  1  0  0  0  0
 31 26  1  0  0  0  0
 32 33  1  0  0  0  0
 33 34  1  0  0  0  0
 33 35  1  0  0  0  0
 35 36  1  0  0  0  0
 37 35  1  0  0  0  0
 38 37  1  0  0  0  0
 39 38  1  0  0  0  0
 40 32  1  0  0  0  0
 40 38  1  0  0  0  0
 41 40  1  0  0  0  0
M  END
>  <minimizedAffinity>
-6.67332506

$$$$

 OpenBabel03272507153D

 41 45  0  0  0  0  0  0  0  0999 V2000
   36.8340   27.3930   33.2890 C   0  0  0  0  0  0  0  0  0  0  0  0
   36.5890   28.1740   32.2130 C   0  0  0  0  0  0  0  0  0  0  0  0
   35.9510   29.3230   32.6870 C   0  0  0  0  0  0  0  0  0  0  0  0
   35.8490   29.1530   34.0750 C   0  0  0  0  0  0  0  0  0  0  0  0
   36.3850   28.0050   34.3540 O   0  0  0  0  0  0  0  0  0  0  0  0
   36.8180   28.0010   31.1490 H   0  0  0  0  0  0  0  0  0  0  0  0
   35.6360   30.1360   32.0200 H   0  0  0  0  0  0  0  0  0  0  0  0
   35.9860   31.0980   35.6260 C   0  0  0  0  0  0  0  0  0  0  0  0
   35.2310   30.1620   34.9290 C   0  0  0  0  0  0  0  0  0  0  0  0
   33.8500   30.1460   35.0130 C   0  0  0  0  0  0  0  0  0  0  0  0
   33.2410   31.0850   35.8060 C   0  0  0  0  0  0  0  0  0  0  0  0
   31.9420   31.3120   36.0730 N   0  0  0  0  0  0  0  0  0  0  0  0
   31.8800   32.3490   36.9030 N   0  0  0  0  0  0  0  0  0  0  0  0
   33.1140   32.7870   37.1700 C   0  0  0  0  0  0  0  0  0  0  0  0
   34.0390   32.0010   36.4840 C   0  0  0  0  0  0  0  0  0  0  0  0
   35.4120   32.0340   36.4150 C   0  0  0  0  0  0  0  0  0  0  0  0
   37.0610   31.0320   35.4980 H   0  0  0  0  0  0  0  0  0  0  0  0
   33.2010   29.4430   34.4960 H   0  0  0  0  0  0  0  0  0  0  0  0
   31.1000   30.7990   35.7200 H   0  0  0  0  0  0  0  0  0  0  0  0
   33.4260   33.6240   37.8160 H   0  0  0  0  0  0  0  0  0  0  0  0
   35.9690   32.7600   36.9570 H   0  0  0  0  0  0  0  0  0  0  0  0
   37.4960   26.0980   33.1720 C   0  0  0  0  0  0  0  0  0  0  0  0
   36.8970   25.1600   32.5900 O   0  0  0  0  0  0  0  0  0  0  0  0
   38.8150   25.9690   33.7390 C   0  0  0  0  0  0  0  0  0  0  0  0
   39.6660   27.0490   33.6340 C   0  0  0  0  0  0  0  0  0  0  0  0
   40.9450   26.9660   34.1650 C   0  0  0  0  0  0  0  0  0  0  0  0
   41.2880   25.8030   34.7700 N   0  0  0  0  0  0  0  0  0  0  0  0
   40.4620   24.7650   34.8690 C   0  0  0  0  0  0  0  0  0  0  0  0
   39.2360   24.8590   34.3530 N   0  0  0  0  0  0  0  0  0  0  0  0
   39.4160   28.0050   33.1490 H   0  0  0  0  0  0  0  0  0  0  0  0
   41.6240   27.7840   34.1000 H   0  0  0  0  0  0  0  0  0  0  0  0
   40.8270   23.4800   35.5310 C   0  0  0  0  0  3  0  0  0  0  0  0
   42.2200   23.5050   36.1140 C   0  0  0  0  0  3  0  0  0  0  0  0
   42.2700   24.1600   37.0240 H   0  0  0  0  0  0  0  0  0  0  0  0
   42.5580   22.0630   36.4400 C   0  0  0  0  0  3  0  0  0  0  0  0
   43.5150   21.9760   36.9910 H   0  0  0  0  0  0  0  0  0  0  0  0
   41.5150   21.3960   37.0270 O   0  0  0  0  0  0  0  0  0  0  0  0
   40.5690   22.2150   37.6330 C   0  0  0  0  0  3  0  0  0  0  0  0
   39.8000   21.5480   38.0740 H   0  0  0  0  0  0  0  0  0  0  0  0
   39.8780   23.1220   36.6500 C   0  0  0  0  0  3  0  0  0  0  0  0
   39.5470   24.0290   37.2160 H   0  0  0  0  0  0  0  0  0  0  0  0
  1  5  1  0  0  0  0
  2  3  1  0  0  0  0
  2  1  2  0  0  0  0
  3  4  2  0  0  0  0
  4  5  1  0  0  0  0
  4  9  1  0  0  0  0
  6  2  1  0  0  0  0
  7  3  1  0  0  0  0
  8 16  1  0  0  0  0
  9 10  1  0  0  0  0
  9  8  2  0  0  0  0
 10 11  2  0  0  0  0
 11 12  1  0  0  0  0
 11 15  1  0  0  0  0
 12 13  1  0  0  0  0
 13 14  2  0  0  0  0
 14 20  1  0  0  0  0
 15 14  1  0  0  0  0
 16 15  2  0  0  0  0
 16 21  1  0  0  0  0
 17  8  1  0  0  0  0
 18 10  1  0  0  0  0
 19 12  1  0  0  0  0
 22  1  1  0  0  0  0
 22 24  1  0  0  0  0
 23 22  2  0  0  0  0
 24 29  1  0  0  0  0
 25 24  2  0  0  0  0
 25 26  1  0  0  0  0
 26 27  2  0  0  0  0
 27 28  1  0  0  0  0
 28 32  1  0  0  0  0
 29 28  2  0  0  0  0
 30 25  1  0  0  0  0
 31 26  1  0  0  0  0
 32 33  1  0  0  0  0
 32 40  1  0  0  0  0
 33 35  1  0  0  0  0
 33 34  1  0  0  0  0
 35 36  1  0  0  0  0
 35 37  1  0  0  0  0
 37 38  1  0  0  0  0
 38 39  1  0  0  0  0
 40 41  1  0  0  0  0
 40 38  1  0  0  0  0
M  END
>  <minimizedAffinity>
-6.64123058

$$$$

 OpenBabel03272507153D

 41 45  0  0  0  0  0  0  0  0999 V2000
   38.1940   24.8770   35.9070 C   0  0  0  0  0  0  0  0  0  0  0  0
   38.4140   25.9850   36.6490 C   0  0  0  0  0  0  0  0  0  0  0  0
   38.1710   27.0810   35.8180 C   0  0  0  0  0  0  0  0  0  0  0  0
   37.8060   26.5400   34.5770 C   0  0  0  0  0  0  0  0  0  0  0  0
   37.8410   25.2500   34.7030 O   0  0  0  0  0  0  0  0  0  0  0  0
   38.7240   26.0780   37.7020 H   0  0  0  0  0  0  0  0  0  0  0  0
   38.2740   28.1160   36.1680 H   0  0  0  0  0  0  0  0  0  0  0  0
   38.2130   27.3690   32.2630 C   0  0  0  0  0  0  0  0  0  0  0  0
   37.4710   27.3880   33.4380 C   0  0  0  0  0  0  0  0  0  0  0  0
   36.3710   28.2160   33.5800 C   0  0  0  0  0  0  0  0  0  0  0  0
   36.0310   29.0230   32.5230 C   0  0  0  0  0  0  0  0  0  0  0  0
   35.0300   29.9100   32.3730 N   0  0  0  0  0  0  0  0  0  0  0  0
   35.1380   30.4290   31.1530 N   0  0  0  0  0  0  0  0  0  0  0  0
   36.1860   29.8890   30.5240 C   0  0  0  0  0  0  0  0  0  0  0  0
   36.8050   28.9680   31.3690 C   0  0  0  0  0  0  0  0  0  0  0  0
   37.9000   28.1530   31.2070 C   0  0  0  0  0  0  0  0  0  0  0  0
   39.0570   26.6870   32.2450 H   0  0  0  0  0  0  0  0  0  0  0  0
   35.7480   28.2810   34.4700 H   0  0  0  0  0  0  0  0  0  0  0  0
   34.2830   30.1790   33.0550 H   0  0  0  0  0  0  0  0  0  0  0  0
   36.5600   30.0890   29.5070 H   0  0  0  0  0  0  0  0  0  0  0  0
   38.4530   28.1550   30.2990 H   0  0  0  0  0  0  0  0  0  0  0  0
   38.3550   23.5330   36.4520 C   0  0  0  0  0  0  0  0  0  0  0  0
   39.3100   23.3050   37.2350 O   0  0  0  0  0  0  0  0  0  0  0  0
   37.3950   22.5330   36.0560 C   0  0  0  0  0  0  0  0  0  0  0  0
   36.4970   22.0950   37.0060 C   0  0  0  0  0  0  0  0  0  0  0  0
   35.5570   21.1330   36.6650 C   0  0  0  0  0  0  0  0  0  0  0  0
   35.5790   20.6720   35.3910 N   0  0  0  0  0  0  0  0  0  0  0  0
   36.4480   21.0990   34.4790 C   0  0  0  0  0  0  0  0  0  0  0  0
   37.3450   22.0240   34.8210 N   0  0  0  0  0  0  0  0  0  0  0  0
   36.4550   22.4500   38.0460 H   0  0  0  0  0  0  0  0  0  0  0  0
   34.8500   20.7750   37.3780 H   0  0  0  0  0  0  0  0  0  0  0  0
   36.4820   20.6000   33.0750 C   0  0  0  0  0  3  0  0  0  0  0  0
   35.5390   19.4440   32.8480 C   0  0  0  0  0  3  0  0  0  0  0  0
   34.4680   19.7820   32.8590 H   0  0  0  0  0  0  0  0  0  0  0  0
   35.9260   18.8490   31.5080 C   0  0  0  0  0  3  0  0  0  0  0  0
   35.2150   18.0660   31.1810 H   0  0  0  0  0  0  0  0  0  0  0  0
   36.1770   19.8050   30.5600 O   0  0  0  0  0  0  0  0  0  0  0  0
   35.5990   21.0430   30.8140 C   0  0  0  0  0  3  0  0  0  0  0  0
   35.8700   21.7060   29.9670 H   0  0  0  0  0  0  0  0  0  0  0  0
   36.1250   21.6750   32.0750 C   0  0  0  0  0  3  0  0  0  0  0  0
   35.3200   22.3490   32.4660 H   0  0  0  0  0  0  0  0  0  0  0  0
  1 22  1  0  0  0  0
  1  2  2  0  0  0  0
  2  6  1  0  0  0  0
  3  7  1  0  0  0  0
  3  2  1  0  0  0  0
  4  5  1  0  0  0  0
  4  3  2  0  0  0  0
  5  1  1  0  0  0  0
  8  9  1  0  0  0  0
  9 10  2  0  0  0  0
  9  4  1  0  0  0  0
 10 18  1  0  0  0  0
 11 10  1  0  0  0  0
 12 11  1  0  0  0  0
 12 19  1  0  0  0  0
 13 12  1  0  0  0  0
 14 13  2  0  0  0  0
 14 15  1  0  0  0  0
 15 11  2  0  0  0  0
 16 15  1  0  0  0  0
 16  8  2  0  0  0  0
 17  8  1  0  0  0  0
 20 14  1  0  0  0  0
 21 16  1  0  0  0  0
 22 23  2  0  0  0  0
 24 22  1  0  0  0  0
 24 25  1  0  0  0  0
 25 30  1  0  0  0  0
 26 25  2  0  0  0  0
 26 31  1  0  0  0  0
 27 26  1  0  0  0  0
 28 29  1  0  0  0  0
 28 27  2  0  0  0  0
 29 24  2  0  0  0  0
 32 28  1  0  0  0  0
 33 34  1  0  0  0  0
 33 32  1  0  0  0  0
 35 33  1  0  0  0  0
 36 35  1  0  0  0  0
 37 38  1  0  0  0  0
 37 35  1  0  0  0  0
 38 40  1  0  0  0  0
 39 38  1  0  0  0  0
 40 41  1  0  0  0  0
 40 32  1  0  0  0  0
M  END
>  <minimizedAffinity>
-6.54106092

$$$$

 OpenBabel03272507153D

 41 45  0  0  0  0  0  0  0  0999 V2000
   37.8530   25.6920   35.7810 C   0  0  0  0  0  0  0  0  0  0  0  0
   38.4690   26.7720   36.3100 C   0  0  0  0  0  0  0  0  0  0  0  0
   38.0240   27.8830   35.5900 C   0  0  0  0  0  0  0  0  0  0  0  0
   37.1310   27.3790   34.6340 C   0  0  0  0  0  0  0  0  0  0  0  0
   37.0800   26.0940   34.8050 O   0  0  0  0  0  0  0  0  0  0  0  0
   39.1900   26.8360   37.1410 H   0  0  0  0  0  0  0  0  0  0  0  0
   38.3670   28.9020   35.8110 H   0  0  0  0  0  0  0  0  0  0  0  0
   36.7440   28.2310   32.3240 C   0  0  0  0  0  0  0  0  0  0  0  0
   36.4500   28.2520   33.6830 C   0  0  0  0  0  0  0  0  0  0  0  0
   35.4910   29.1060   34.1970 C   0  0  0  0  0  0  0  0  0  0  0  0
   34.8320   29.9370   33.3260 C   0  0  0  0  0  0  0  0  0  0  0  0
   33.8680   30.8520   33.5320 N   0  0  0  0  0  0  0  0  0  0  0  0
   33.5650   31.3850   32.3520 N   0  0  0  0  0  0  0  0  0  0  0  0
   34.3180   30.8280   31.3990 C   0  0  0  0  0  0  0  0  0  0  0  0
   35.1620   29.8790   31.9750 C   0  0  0  0  0  0  0  0  0  0  0  0
   36.1110   29.0380   31.4440 C   0  0  0  0  0  0  0  0  0  0  0  0
   37.5110   27.5280   32.0150 H   0  0  0  0  0  0  0  0  0  0  0  0
   35.2130   29.1740   35.2470 H   0  0  0  0  0  0  0  0  0  0  0  0
   33.4080   31.1300   34.4300 H   0  0  0  0  0  0  0  0  0  0  0  0
   34.3270   31.0330   30.3160 H   0  0  0  0  0  0  0  0  0  0  0  0
   36.3180   29.0390   30.4010 H   0  0  0  0  0  0  0  0  0  0  0  0
   38.0820   24.3430   36.2870 C   0  0  0  0  0  0  0  0  0  0  0  0
   37.8360   24.0970   37.4950 O   0  0  0  0  0  0  0  0  0  0  0  0
   38.5820   23.3580   35.3600 C   0  0  0  0  0  0  0  0  0  0  0  0
   39.9430   23.1380   35.3320 C   0  0  0  0  0  0  0  0  0  0  0  0
   40.4650   22.1990   34.4530 C   0  0  0  0  0  0  0  0  0  0  0  0
   39.5860   21.5410   33.6590 N   0  0  0  0  0  0  0  0  0  0  0  0
   38.2740   21.7590   33.6900 C   0  0  0  0  0  0  0  0  0  0  0  0
   37.7870   22.6640   34.5400 N   0  0  0  0  0  0  0  0  0  0  0  0
   40.6790   23.6550   35.9640 H   0  0  0  0  0  0  0  0  0  0  0  0
   41.5120   22.0070   34.4090 H   0  0  0  0  0  0  0  0  0  0  0  0
   37.2980   21.0430   32.8210 C   0  0  0  0  0  3  0  0  0  0  0  0
   36.0230   20.6910   33.5500 C   0  0  0  0  0  3  0  0  0  0  0  0
   35.4020   21.6040   33.7490 H   0  0  0  0  0  0  0  0  0  0  0  0
   35.2980   19.7000   32.6620 C   0  0  0  0  0  3  0  0  0  0  0  0
   34.2840   19.4660   33.0420 H   0  0  0  0  0  0  0  0  0  0  0  0
   35.3280   20.0570   31.3390 O   0  0  0  0  0  0  0  0  0  0  0  0
   35.5620   21.4070   31.1060 C   0  0  0  0  0  3  0  0  0  0  0  0
   35.5450   21.5530   30.0070 H   0  0  0  0  0  0  0  0  0  0  0  0
   36.9120   21.8500   31.6040 C   0  0  0  0  0  3  0  0  0  0  0  0
   36.8330   22.9410   31.8430 H   0  0  0  0  0  0  0  0  0  0  0  0
  1 22  1  0  0  0  0
  1  2  2  0  0  0  0
  2  6  1  0  0  0  0
  3  7  1  0  0  0  0
  3  2  1  0  0  0  0
  4  5  1  0  0  0  0
  4  3  2  0  0  0  0
  5  1  1  0  0  0  0
  8  9  1  0  0  0  0
  9 10  2  0  0  0  0
  9  4  1  0  0  0  0
 10 18  1  0  0  0  0
 11 12  1  0  0  0  0
 11 10  1  0  0  0  0
 12 19  1  0  0  0  0
 13 12  1  0  0  0  0
 14 15  1  0  0  0  0
 14 13  2  0  0  0  0
 15 11  2  0  0  0  0
 16 15  1  0  0  0  0
 16  8  2  0  0  0  0
 17  8  1  0  0  0  0
 20 14  1  0  0  0  0
 21 16  1  0  0  0  0
 22 23  2  0  0  0  0
 24 22  1  0  0  0  0
 25 24  1  0  0  0  0
 25 30  1  0  0  0  0
 26 25  2  0  0  0  0
 27 28  2  0  0  0  0
 27 26  1  0  0  0  0
 28 29  1  0  0  0  0
 29 24  2  0  0  0  0
 31 26  1  0  0  0  0
 32 33  1  0  0  0  0
 32 28  1  0  0  0  0
 33 34  1  0  0  0  0
 35 36  1  0  0  0  0
 35 33  1  0  0  0  0
 37 35  1  0  0  0  0
 38 37  1  0  0  0  0
 38 40  1  0  0  0  0
 39 38  1  0  0  0  0
 40 41  1  0  0  0  0
 40 32  1  0  0  0  0
M  END
>  <minimizedAffinity>
-6.45298004

$$$$

 OpenBabel03272507153D

 41 45  0  0  0  0  0  0  0  0999 V2000
   38.5790   26.4140   33.5360 C   0  0  0  0  0  0  0  0  0  0  0  0
   38.9410   27.2180   34.5610 C   0  0  0  0  0  0  0  0  0  0  0  0
   39.8470   26.4950   35.3390 C   0  0  0  0  0  0  0  0  0  0  0  0
   39.9780   25.2500   34.7070 C   0  0  0  0  0  0  0  0  0  0  0  0
   39.2100   25.2750   33.6620 O   0  0  0  0  0  0  0  0  0  0  0  0
   38.6230   28.2470   34.7960 H   0  0  0  0  0  0  0  0  0  0  0  0
   40.3070   26.9120   36.2440 H   0  0  0  0  0  0  0  0  0  0  0  0
   42.1540   24.0370   34.7700 C   0  0  0  0  0  0  0  0  0  0  0  0
   40.8550   24.2090   35.2340 C   0  0  0  0  0  0  0  0  0  0  0  0
   40.3320   23.3970   36.2250 C   0  0  0  0  0  0  0  0  0  0  0  0
   41.1340   22.4120   36.7420 C   0  0  0  0  0  0  0  0  0  0  0  0
   40.9050   21.4920   37.6970 N   0  0  0  0  0  0  0  0  0  0  0  0
   42.0140   20.7700   37.8310 N   0  0  0  0  0  0  0  0  0  0  0  0
   42.9440   21.2120   36.9800 C   0  0  0  0  0  0  0  0  0  0  0  0
   42.4270   22.2790   36.2450 C   0  0  0  0  0  0  0  0  0  0  0  0
   42.9660   23.0740   35.2620 C   0  0  0  0  0  0  0  0  0  0  0  0
   42.4760   24.7210   33.9920 H   0  0  0  0  0  0  0  0  0  0  0  0
   39.3260   23.4770   36.6320 H   0  0  0  0  0  0  0  0  0  0  0  0
   40.0360   21.3320   38.2590 H   0  0  0  0  0  0  0  0  0  0  0  0
   43.9720   20.8440   36.8270 H   0  0  0  0  0  0  0  0  0  0  0  0
   43.9630   22.9240   34.9230 H   0  0  0  0  0  0  0  0  0  0  0  0
   37.6330   26.8420   32.5120 C   0  0  0  0  0  0  0  0  0  0  0  0
   37.6420   28.0410   32.1380 O   0  0  0  0  0  0  0  0  0  0  0  0
   36.7300   25.8500   31.9820 C   0  0  0  0  0  0  0  0  0  0  0  0
   35.6400   26.2940   31.2640 C   0  0  0  0  0  0  0  0  0  0  0  0
   34.7460   25.3720   30.7380 C   0  0  0  0  0  0  0  0  0  0  0  0
   35.0050   24.0620   30.9660 N   0  0  0  0  0  0  0  0  0  0  0  0
   36.0580   23.6400   31.6610 C   0  0  0  0  0  0  0  0  0  0  0  0
   36.9080   24.5380   32.1600 N   0  0  0  0  0  0  0  0  0  0  0  0
   35.4040   27.3500   31.0620 H   0  0  0  0  0  0  0  0  0  0  0  0
   33.8960   25.6850   30.1780 H   0  0  0  0  0  0  0  0  0  0  0  0
   36.3530   22.2020   31.9190 C   0  0  0  0  0  3  0  0  0  0  0  0
   35.1770   21.3060   31.6170 C   0  0  0  0  0  3  0  0  0  0  0  0
   34.9990   21.2240   30.5110 H   0  0  0  0  0  0  0  0  0  0  0  0
   35.5100   19.9610   32.2330 C   0  0  0  0  0  3  0  0  0  0  0  0
   34.7670   19.1860   31.9650 H   0  0  0  0  0  0  0  0  0  0  0  0
   36.8100   19.5880   32.0130 O   0  0  0  0  0  0  0  0  0  0  0  0
   37.4170   20.2090   30.9280 C   0  0  0  0  0  3  0  0  0  0  0  0
   38.4480   19.8050   30.8600 H   0  0  0  0  0  0  0  0  0  0  0  0
   37.5220   21.7000   31.1030 C   0  0  0  0  0  3  0  0  0  0  0  0
   37.5330   22.1530   30.0800 H   0  0  0  0  0  0  0  0  0  0  0  0
  1  5  1  0  0  0  0
  1  2  2  0  0  0  0
  2  6  1  0  0  0  0
  2  3  1  0  0  0  0
  3  7  1  0  0  0  0
  4  9  1  0  0  0  0
  4  3  2  0  0  0  0
  5  4  1  0  0  0  0
  8  9  2  0  0  0  0
  8 16  1  0  0  0  0
  9 10  1  0  0  0  0
 10 18  1  0  0  0  0
 10 11  2  0  0  0  0
 11 12  1  0  0  0  0
 12 13  1  0  0  0  0
 12 19  1  0  0  0  0
 14 13  2  0  0  0  0
 15 11  1  0  0  0  0
 15 14  1  0  0  0  0
 16 15  2  0  0  0  0
 17  8  1  0  0  0  0
 20 14  1  0  0  0  0
 21 16  1  0  0  0  0
 22  1  1  0  0  0  0
 23 22  2  0  0  0  0
 24 29  1  0  0  0  0
 24 22  1  0  0  0  0
 25 24  2  0  0  0  0
 26 27  2  0  0  0  0
 26 25  1  0  0  0  0
 27 28  1  0  0  0  0
 28 32  1  0  0  0  0
 28 29  2  0  0  0  0
 30 25  1  0  0  0  0
 31 26  1  0  0  0  0
 33 32  1  0  0  0  0
 33 35  1  0  0  0  0
 34 33  1  0  0  0  0
 36 35  1  0  0  0  0
 37 35  1  0  0  0  0
 38 40  1  0  0  0  0
 38 37  1  0  0  0  0
 39 38  1  0  0  0  0
 40 32  1  0  0  0  0
 41 40  1  0  0  0  0
M  END
>  <minimizedAffinity>
-6.4138484

$$$$

 OpenBabel03272507153D

 41 45  0  0  0  0  0  0  0  0999 V2000
   37.7660   26.9480   33.4760 C   0  0  0  0  0  0  0  0  0  0  0  0
   37.2760   27.2920   32.2640 C   0  0  0  0  0  0  0  0  0  0  0  0
   36.3180   28.2840   32.4850 C   0  0  0  0  0  0  0  0  0  0  0  0
   36.2910   28.4800   33.8730 C   0  0  0  0  0  0  0  0  0  0  0  0
   37.1610   27.6680   34.3860 O   0  0  0  0  0  0  0  0  0  0  0  0
   37.5350   26.9090   31.2640 H   0  0  0  0  0  0  0  0  0  0  0  0
   35.7560   28.7500   31.6650 H   0  0  0  0  0  0  0  0  0  0  0  0
   34.0310   29.4620   34.2470 C   0  0  0  0  0  0  0  0  0  0  0  0
   35.3990   29.4550   34.4940 C   0  0  0  0  0  0  0  0  0  0  0  0
   35.9800   30.3760   35.3470 C   0  0  0  0  0  0  0  0  0  0  0  0
   35.1650   31.3030   35.9470 C   0  0  0  0  0  0  0  0  0  0  0  0
   35.4410   32.2980   36.8100 N   0  0  0  0  0  0  0  0  0  0  0  0
   34.2940   32.9080   37.0950 N   0  0  0  0  0  0  0  0  0  0  0  0
   33.2940   32.3200   36.4320 C   0  0  0  0  0  0  0  0  0  0  0  0
   33.8030   31.2700   35.6690 C   0  0  0  0  0  0  0  0  0  0  0  0
   33.2050   30.3630   34.8250 C   0  0  0  0  0  0  0  0  0  0  0  0
   33.6670   28.7010   33.5640 H   0  0  0  0  0  0  0  0  0  0  0  0
   37.0410   30.4270   35.5820 H   0  0  0  0  0  0  0  0  0  0  0  0
   36.3650   32.5820   37.2100 H   0  0  0  0  0  0  0  0  0  0  0  0
   32.2200   32.5680   36.4380 H   0  0  0  0  0  0  0  0  0  0  0  0
   32.1560   30.3870   34.6520 H   0  0  0  0  0  0  0  0  0  0  0  0
   38.7970   25.9280   33.6340 C   0  0  0  0  0  0  0  0  0  0  0  0
   39.9670   26.1810   33.2520 O   0  0  0  0  0  0  0  0  0  0  0  0
   38.4080   24.6720   34.2280 C   0  0  0  0  0  0  0  0  0  0  0  0
   38.5960   24.5190   35.5850 C   0  0  0  0  0  0  0  0  0  0  0  0
   38.2360   23.3260   36.1950 C   0  0  0  0  0  0  0  0  0  0  0  0
   37.7080   22.3630   35.4020 N   0  0  0  0  0  0  0  0  0  0  0  0
   37.5290   22.5160   34.0930 C   0  0  0  0  0  0  0  0  0  0  0  0
   37.8800   23.6680   33.5210 N   0  0  0  0  0  0  0  0  0  0  0  0
   39.0220   25.2830   36.2530 H   0  0  0  0  0  0  0  0  0  0  0  0
   38.3690   23.1800   37.2420 H   0  0  0  0  0  0  0  0  0  0  0  0
   36.9500   21.4640   33.2110 C   0  0  0  0  0  3  0  0  0  0  0  0
   35.8090   20.7230   33.8650 C   0  0  0  0  0  3  0  0  0  0  0  0
   34.8940   21.3690   33.9450 H   0  0  0  0  0  0  0  0  0  0  0  0
   35.5600   19.5000   33.0040 C   0  0  0  0  0  3  0  0  0  0  0  0
   34.6560   18.9450   33.3230 H   0  0  0  0  0  0  0  0  0  0  0  0
   35.5950   19.7830   31.6640 O   0  0  0  0  0  0  0  0  0  0  0  0
   35.3730   21.1180   31.3450 C   0  0  0  0  0  3  0  0  0  0  0  0
   35.4150   21.1970   30.2390 H   0  0  0  0  0  0  0  0  0  0  0  0
   36.4310   22.0280   31.9090 C   0  0  0  0  0  3  0  0  0  0  0  0
   35.9590   23.0320   32.0550 H   0  0  0  0  0  0  0  0  0  0  0  0
  1 22  1  0  0  0  0
  1  5  1  0  0  0  0
  2  3  1  0  0  0  0
  2  1  2  0  0  0  0
  3  4  2  0  0  0  0
  4  5  1  0  0  0  0
  4  9  1  0  0  0  0
  6  2  1  0  0  0  0
  7  3  1  0  0  0  0
  8  9  2  0  0  0  0
  8 16  1  0  0  0  0
  9 10  1  0  0  0  0
 10 18  1  0  0  0  0
 10 11  2  0  0  0  0
 11 12  1  0  0  0  0
 12 13  1  0  0  0  0
 12 19  1  0  0  0  0
 14 20  1  0  0  0  0
 14 13  2  0  0  0  0
 15 11  1  0  0  0  0
 15 14  1  0  0  0  0
 16 15  2  0  0  0  0
 17  8  1  0  0  0  0
 21 16  1  0  0  0  0
 22 24  1  0  0  0  0
 23 22  2  0  0  0  0
 24 25  1  0  0  0  0
 25 26  2  0  0  0  0
 25 30  1  0  0  0  0
 26 31  1  0  0  0  0
 27 26  1  0  0  0  0
 28 27  2  0  0  0  0
 29 28  1  0  0  0  0
 29 24  2  0  0  0  0
 32 33  1  0  0  0  0
 32 28  1  0  0  0  0
 33 34  1  0  0  0  0
 35 36  1  0  0  0  0
 35 33  1  0  0  0  0
 37 35  1  0  0  0  0
 38 37  1  0  0  0  0
 38 40  1  0  0  0  0
 39 38  1  0  0  0  0
 40 41  1  0  0  0  0
 40 32  1  0  0  0  0
M  END
>  <minimizedAffinity>
-6.40625954

$$$$

 OpenBabel03272507153D

 41 45  0  0  0  0  0  0  0  0999 V2000
   38.5940   25.2180   35.7000 C   0  0  0  0  0  0  0  0  0  0  0  0
   38.1190   24.5600   36.7810 C   0  0  0  0  0  0  0  0  0  0  0  0
   39.0130   23.5200   37.0450 C   0  0  0  0  0  0  0  0  0  0  0  0
   40.0110   23.6230   36.0650 C   0  0  0  0  0  0  0  0  0  0  0  0
   39.7010   24.6360   35.3170 O   0  0  0  0  0  0  0  0  0  0  0  0
   37.2140   24.7500   37.3810 H   0  0  0  0  0  0  0  0  0  0  0  0
   38.8700   22.8200   37.8780 H   0  0  0  0  0  0  0  0  0  0  0  0
   42.0960   22.7580   35.0110 C   0  0  0  0  0  0  0  0  0  0  0  0
   41.1370   22.6960   36.0150 C   0  0  0  0  0  0  0  0  0  0  0  0
   41.2080   21.7480   37.0200 C   0  0  0  0  0  0  0  0  0  0  0  0
   42.2580   20.8640   37.0000 C   0  0  0  0  0  0  0  0  0  0  0  0
   42.5840   19.8570   37.8310 N   0  0  0  0  0  0  0  0  0  0  0  0
   43.7040   19.3070   37.3690 N   0  0  0  0  0  0  0  0  0  0  0  0
   44.0960   19.9440   36.2620 C   0  0  0  0  0  0  0  0  0  0  0  0
   43.1930   20.9660   35.9740 C   0  0  0  0  0  0  0  0  0  0  0  0
   43.1400   21.9000   34.9670 C   0  0  0  0  0  0  0  0  0  0  0  0
   41.9560   23.5350   34.2670 H   0  0  0  0  0  0  0  0  0  0  0  0
   40.4930   21.6440   37.8330 H   0  0  0  0  0  0  0  0  0  0  0  0
   42.0860   19.5280   38.6900 H   0  0  0  0  0  0  0  0  0  0  0  0
   44.9770   19.7500   35.6280 H   0  0  0  0  0  0  0  0  0  0  0  0
   43.8860   21.9290   34.2100 H   0  0  0  0  0  0  0  0  0  0  0  0
   37.9080   26.3740   35.1330 C   0  0  0  0  0  0  0  0  0  0  0  0
   37.8610   27.4390   35.7970 O   0  0  0  0  0  0  0  0  0  0  0  0
   37.3180   26.2240   33.8260 C   0  0  0  0  0  0  0  0  0  0  0  0
   36.7660   27.3440   33.2400 C   0  0  0  0  0  0  0  0  0  0  0  0
   36.1870   27.2420   31.9830 C   0  0  0  0  0  0  0  0  0  0  0  0
   36.2010   26.0220   31.3940 N   0  0  0  0  0  0  0  0  0  0  0  0
   36.7350   24.9460   31.9640 C   0  0  0  0  0  0  0  0  0  0  0  0
   37.2880   25.0590   33.1730 N   0  0  0  0  0  0  0  0  0  0  0  0
   36.7400   28.3460   33.6930 H   0  0  0  0  0  0  0  0  0  0  0  0
   35.7530   28.0890   31.5050 H   0  0  0  0  0  0  0  0  0  0  0  0
   36.7560   23.5980   31.3270 C   0  0  0  0  0  3  0  0  0  0  0  0
   37.9870   22.8040   31.6920 C   0  0  0  0  0  3  0  0  0  0  0  0
   37.9500   22.4620   32.7600 H   0  0  0  0  0  0  0  0  0  0  0  0
   38.0270   21.6350   30.7280 C   0  0  0  0  0  3  0  0  0  0  0  0
   38.8250   20.9120   30.9850 H   0  0  0  0  0  0  0  0  0  0  0  0
   36.7960   21.0620   30.5430 O   0  0  0  0  0  0  0  0  0  0  0  0
   35.8830   21.3030   31.5620 C   0  0  0  0  0  3  0  0  0  0  0  0
   34.9470   20.7730   31.2890 H   0  0  0  0  0  0  0  0  0  0  0  0
   35.5540   22.7650   31.7060 C   0  0  0  0  0  3  0  0  0  0  0  0
   35.2580   22.9330   32.7720 H   0  0  0  0  0  0  0  0  0  0  0  0
  1  2  2  0  0  0  0
  2  3  1  0  0  0  0
  2  6  1  0  0  0  0
  3  7  1  0  0  0  0
  4  3  2  0  0  0  0
  5  1  1  0  0  0  0
  5  4  1  0  0  0  0
  8  9  1  0  0  0  0
  9  4  1  0  0  0  0
  9 10  2  0  0  0  0
 10 18  1  0  0  0  0
 11 10  1  0  0  0  0
 11 12  1  0  0  0  0
 12 19  1  0  0  0  0
 13 12  1  0  0  0  0
 14 13  2  0  0  0  0
 15 14  1  0  0  0  0
 15 11  2  0  0  0  0
 16  8  2  0  0  0  0
 16 15  1  0  0  0  0
 17  8  1  0  0  0  0
 20 14  1  0  0  0  0
 21 16  1  0  0  0  0
 22  1  1  0  0  0  0
 22 23  2  0  0  0  0
 24 22  1  0  0  0  0
 25 30  1  0  0  0  0
 25 24  1  0  0  0  0
 26 25  2  0  0  0  0
 27 28  2  0  0  0  0
 27 26  1  0  0  0  0
 28 29  1  0  0  0  0
 29 24  2  0  0  0  0
 31 26  1  0  0  0  0
 32 33  1  0  0  0  0
 32 40  1  0  0  0  0
 32 28  1  0  0  0  0
 33 34  1  0  0  0  0
 35 36  1  0  0  0  0
 35 33  1  0  0  0  0
 37 35  1  0  0  0  0
 37 38  1  0  0  0  0
 38 40  1  0  0  0  0
 39 38  1  0  0  0  0
 40 41  1  0  0  0  0
M  END
>  <minimizedAffinity>
-6.27929449

$$$$

 OpenBabel03272507153D

 41 45  0  0  0  0  0  0  0  0999 V2000
   36.7860   27.6870   32.5420 C   0  0  0  0  0  0  0  0  0  0  0  0
   36.4020   26.5950   31.8440 C   0  0  0  0  0  0  0  0  0  0  0  0
   36.8620   25.4820   32.5520 C   0  0  0  0  0  0  0  0  0  0  0  0
   37.5190   25.9970   33.6780 C   0  0  0  0  0  0  0  0  0  0  0  0
   37.4350   27.2890   33.6060 O   0  0  0  0  0  0  0  0  0  0  0  0
   35.8400   26.5240   30.8990 H   0  0  0  0  0  0  0  0  0  0  0  0
   36.6870   24.4540   32.2080 H   0  0  0  0  0  0  0  0  0  0  0  0
   39.1430   24.2240   34.3340 C   0  0  0  0  0  0  0  0  0  0  0  0
   38.1400   25.1250   34.6710 C   0  0  0  0  0  0  0  0  0  0  0  0
   37.6830   25.2390   35.9720 C   0  0  0  0  0  0  0  0  0  0  0  0
   38.2500   24.4350   36.9280 C   0  0  0  0  0  0  0  0  0  0  0  0
   38.0180   24.3290   38.2490 N   0  0  0  0  0  0  0  0  0  0  0  0
   38.8410   23.3990   38.7250 N   0  0  0  0  0  0  0  0  0  0  0  0
   39.5930   22.9120   37.7350 C   0  0  0  0  0  0  0  0  0  0  0  0
   39.2510   23.5480   36.5420 C   0  0  0  0  0  0  0  0  0  0  0  0
   39.7190   23.4200   35.2550 C   0  0  0  0  0  0  0  0  0  0  0  0
   39.4350   24.2070   33.2890 H   0  0  0  0  0  0  0  0  0  0  0  0
   36.9030   25.9220   36.3030 H   0  0  0  0  0  0  0  0  0  0  0  0
   37.3310   24.8540   38.8380 H   0  0  0  0  0  0  0  0  0  0  0  0
   40.3730   22.1350   37.7760 H   0  0  0  0  0  0  0  0  0  0  0  0
   40.4880   22.7230   35.0210 H   0  0  0  0  0  0  0  0  0  0  0  0
   36.4770   29.0410   32.0950 C   0  0  0  0  0  0  0  0  0  0  0  0
   37.0200   29.4740   31.0490 O   0  0  0  0  0  0  0  0  0  0  0  0
   35.5550   29.8120   32.8920 C   0  0  0  0  0  0  0  0  0  0  0  0
   35.6900   31.1840   32.8800 C   0  0  0  0  0  0  0  0  0  0  0  0
   34.8240   31.9630   33.6340 C   0  0  0  0  0  0  0  0  0  0  0  0
   33.8750   31.3130   34.3510 N   0  0  0  0  0  0  0  0  0  0  0  0
   33.7500   29.9890   34.3580 C   0  0  0  0  0  0  0  0  0  0  0  0
   34.5900   29.2530   33.6290 N   0  0  0  0  0  0  0  0  0  0  0  0
   36.4490   31.7390   32.3090 H   0  0  0  0  0  0  0  0  0  0  0  0
   34.9030   33.0250   33.6440 H   0  0  0  0  0  0  0  0  0  0  0  0
   32.7110   29.2620   35.1430 C   0  0  0  0  0  3  0  0  0  0  0  0
   32.2210   30.0570   36.3290 C   0  0  0  0  0  3  0  0  0  0  0  0
   31.5840   30.9230   36.0060 H   0  0  0  0  0  0  0  0  0  0  0  0
   31.4460   29.0800   37.1910 C   0  0  0  0  0  3  0  0  0  0  0  0
   30.9330   29.5850   38.0320 H   0  0  0  0  0  0  0  0  0  0  0  0
   30.6330   28.2570   36.4560 O   0  0  0  0  0  0  0  0  0  0  0  0
   30.3000   28.7440   35.1970 C   0  0  0  0  0  3  0  0  0  0  0  0
   29.6340   27.9910   34.7260 H   0  0  0  0  0  0  0  0  0  0  0  0
   31.5030   28.9100   34.3070 C   0  0  0  0  0  3  0  0  0  0  0  0
   31.2600   29.7200   33.5730 H   0  0  0  0  0  0  0  0  0  0  0  0
  1  5  1  0  0  0  0
  2  1  2  0  0  0  0
  2  3  1  0  0  0  0
  3  4  2  0  0  0  0
  4  9  1  0  0  0  0
  5  4  1  0  0  0  0
  6  2  1  0  0  0  0
  7  3  1  0  0  0  0
  8  9  2  0  0  0  0
  8 16  1  0  0  0  0
  9 10  1  0  0  0  0
 10 18  1  0  0  0  0
 10 11  2  0  0  0  0
 11 12  1  0  0  0  0
 12 13  1  0  0  0  0
 12 19  1  0  0  0  0
 14 20  1  0  0  0  0
 14 13  2  0  0  0  0
 15 11  1  0  0  0  0
 15 14  1  0  0  0  0
 16 15  2  0  0  0  0
 17  8  1  0  0  0  0
 21 16  1  0  0  0  0
 22  1  1  0  0  0  0
 22 24  1  0  0  0  0
 23 22  2  0  0  0  0
 24 29  1  0  0  0  0
 25 24  2  0  0  0  0
 25 26  1  0  0  0  0
 26 31  1  0  0  0  0
 26 27  2  0  0  0  0
 27 28  1  0  0  0  0
 28 32  1  0  0  0  0
 29 28  2  0  0  0  0
 30 25  1  0  0  0  0
 32 33  1  0  0  0  0
 33 35  1  0  0  0  0
 34 33  1  0  0  0  0
 35 36  1  0  0  0  0
 37 35  1  0  0  0  0
 38 37  1  0  0  0  0
 39 38  1  0  0  0  0
 40 32  1  0  0  0  0
 40 38  1  0  0  0  0
 41 40  1  0  0  0  0
M  END
>  <minimizedAffinity>
-6.26331758

$$$$
