
 OpenBabel03272501583D

 32 34  0  0  0  0  0  0  0  0999 V2000
   32.9070   28.2720   47.8490 C   0  0  0  0  0  0  0  0  0  0  0  0
   32.0710   27.6000   48.6960 C   0  0  0  0  0  0  0  0  0  0  0  0
   30.7500   27.6910   48.2840 C   0  0  0  0  0  0  0  0  0  0  0  0
   30.8370   28.4480   47.1530 N   0  0  0  0  0  0  0  0  0  0  0  0
   32.0950   28.7750   46.9160 N   0  0  0  0  0  0  0  0  0  0  0  0
   32.4170   27.0620   49.5850 H   0  0  0  0  0  0  0  0  0  0  0  0
   29.8630   27.2610   48.7530 H   0  0  0  0  0  0  0  0  0  0  0  0
   29.6620   28.8100   46.3580 C   0  0  0  0  0  3  0  0  0  0  0  0
   28.4720   28.0510   46.8260 C   0  0  0  0  0  3  0  0  0  0  0  0
   27.6040   28.7110   47.0970 H   0  0  0  0  0  0  0  0  0  0  0  0
   27.9610   26.9970   45.8990 C   0  0  0  0  0  3  0  0  0  0  0  0
   28.4940   26.0300   45.9740 H   0  0  0  0  0  0  0  0  0  0  0  0
   27.9140   27.5010   44.6200 O   0  0  0  0  0  0  0  0  0  0  0  0
   29.2250   27.6280   44.1890 C   0  0  0  0  0  3  0  0  0  0  0  0
   29.7680   26.6600   44.2320 H   0  0  0  0  0  0  0  0  0  0  0  0
   29.9690   28.7190   44.9070 C   0  0  0  0  0  3  0  0  0  0  0  0
   31.0540   28.5350   44.7490 H   0  0  0  0  0  0  0  0  0  0  0  0
   34.3990   28.3790   47.9960 C   0  0  0  0  0  0  0  0  0  0  0  0
   34.8050   27.4660   47.5180 H   0  0  0  0  0  0  0  0  0  0  0  0
   34.7390   29.3050   47.5220 H   0  0  0  0  0  0  0  0  0  0  0  0
   34.6830   28.2950   49.4780 C   0  0  0  0  0  0  0  0  0  0  0  0
   34.9560   27.2520   49.7720 H   0  0  0  0  0  0  0  0  0  0  0  0
   33.8060   28.5960   50.0880 H   0  0  0  0  0  0  0  0  0  0  0  0
   37.2380   30.1620   51.3890 C   0  0  0  0  0  0  0  0  0  0  0  0
   38.0440   30.6880   50.3750 C   0  0  0  0  0  0  0  0  0  0  0  0
   37.7100   30.4000   49.0290 C   0  0  0  0  0  0  0  0  0  0  0  0
   36.6180   29.6250   48.8030 N   0  0  0  0  0  0  0  0  0  0  0  0
   35.8670   29.1390   49.8120 C   0  0  0  0  0  0  0  0  0  0  0  0
   36.1750   29.4050   51.0850 N   0  0  0  0  0  0  0  0  0  0  0  0
   37.4220   30.3330   52.4460 H   0  0  0  0  0  0  0  0  0  0  0  0
   38.8970   31.2960   50.6460 H   0  0  0  0  0  0  0  0  0  0  0  0
   38.3280   30.8020   48.2460 H   0  0  0  0  0  0  0  0  0  0  0  0
  1 18  1  0  0  0  0
  1  2  1  0  0  0  0
  2  6  1  0  0  0  0
  3  2  2  0  0  0  0
  3  7  1  0  0  0  0
  4  3  1  0  0  0  0
  5  4  1  0  0  0  0
  5  1  2  0  0  0  0
  8  9  1  0  0  0  0
  8  4  1  0  0  0  0
  9 10  1  0  0  0  0
 11 12  1  0  0  0  0
 11  9  1  0  0  0  0
 13 11  1  0  0  0  0
 14 15  1  0  0  0  0
 14 13  1  0  0  0  0
 14 16  1  0  0  0  0
 16  8  1  0  0  0  0
 17 16  1  0  0  0  0
 18 21  1  0  0  0  0
 19 18  1  0  0  0  0
 20 18  1  0  0  0  0
 21 22  1  0  0  0  0
 21 28  1  0  0  0  0
 21 23  1  0  0  0  0
 24 30  1  0  0  0  0
 25 31  1  0  0  0  0
 25 24  2  0  0  0  0
 26 25  1  0  0  0  0
 27 26  2  0  0  0  0
 27 28  1  0  0  0  0
 28 29  2  0  0  0  0
 29 24  1  0  0  0  0
 32 26  1  0  0  0  0
M  END
>  <minimizedAffinity>
-4.67411947

>  <minimizedRMSD>
0.575228751

$$$$
