
 OpenBabel03272508183D

 26 28  0  0  0  0  0  0  0  0999 V2000
   39.2000   23.7520   36.6250 C   0  0  0  0  0  0  0  0  0  0  0  0
   39.2350   24.6090   35.5130 C   0  0  0  0  0  0  0  0  0  0  0  0
   40.4260   24.5680   34.8020 C   0  0  0  0  0  0  0  0  0  0  0  0
   41.4440   23.7610   35.1720 N   0  0  0  0  0  0  0  0  0  0  0  0
   41.3740   22.9490   36.2490 C   0  0  0  0  0  0  0  0  0  0  0  0
   40.2420   22.9560   36.9690 N   0  0  0  0  0  0  0  0  0  0  0  0
   40.7320   25.0980   33.9320 H   0  0  0  0  0  0  0  0  0  0  0  0
   42.1370   22.2840   36.6030 H   0  0  0  0  0  0  0  0  0  0  0  0
   38.1840   25.5130   35.0320 C   0  0  0  0  0  3  0  0  0  0  0  0
   38.4080   26.9580   35.4350 C   0  0  0  0  0  3  0  0  0  0  0  0
   38.4060   27.0370   36.5200 H   0  0  0  0  0  0  0  0  0  0  0  0
   37.1950   27.7100   34.8640 C   0  0  0  0  0  3  0  0  0  0  0  0
   37.2860   28.7600   35.2300 H   0  0  0  0  0  0  0  0  0  0  0  0
   37.3280   27.6940   33.4870 O   0  0  0  0  0  0  0  0  0  0  0  0
   37.0080   26.4040   33.0220 C   0  0  0  0  0  3  0  0  0  0  0  0
   37.0750   26.4260   31.9250 H   0  0  0  0  0  0  0  0  0  0  0  0
   38.0970   25.4520   33.5130 C   0  0  0  0  0  3  0  0  0  0  0  0
   37.9150   24.4570   33.1310 H   0  0  0  0  0  0  0  0  0  0  0  0
   37.8870   23.6940   37.3800 C   0  0  0  0  0  0  0  0  0  0  0  0
   37.8000   23.0940   38.6890 C   0  0  0  0  0  0  0  0  0  0  0  0
   37.9510   24.5930   38.6370 C   0  0  0  0  0  0  0  0  0  0  0  0
   36.9580   23.9930   36.8050 H   0  0  0  0  0  0  0  0  0  0  0  0
   38.6740   22.4830   39.0460 H   0  0  0  0  0  0  0  0  0  0  0  0
   36.8590   22.7170   39.0980 H   0  0  0  0  0  0  0  0  0  0  0  0
   37.0780   25.1940   38.9150 H   0  0  0  0  0  0  0  0  0  0  0  0
   38.9410   24.9540   38.9390 H   0  0  0  0  0  0  0  0  0  0  0  0
  1  6  1  0  0  0  0
  1 19  1  0  0  0  0
  2  1  2  0  0  0  0
  3  4  2  0  0  0  0
  3  2  1  0  0  0  0
  4  5  1  0  0  0  0
  5  8  1  0  0  0  0
  5  6  2  0  0  0  0
  7  3  1  0  0  0  0
  9 10  1  0  0  0  0
  9  2  1  0  0  0  0
 10 11  1  0  0  0  0
 12 13  1  0  0  0  0
 12 10  1  0  0  0  0
 14 12  1  0  0  0  0
 15 14  1  0  0  0  0
 15 17  1  0  0  0  0
 16 15  1  0  0  0  0
 17  9  1  0  0  0  0
 18 17  1  0  0  0  0
 19 21  1  0  0  0  0
 19 20  1  0  0  0  0
 20 23  1  0  0  0  0
 20 24  1  0  0  0  0
 21 20  1  0  0  0  0
 21 25  1  0  0  0  0
 21 26  1  0  0  0  0
 22 19  1  0  0  0  0
M  END
>  <minimizedAffinity>
-4.17538834

$$$$

 OpenBabel03272508183D

 26 28  0  0  0  0  0  0  0  0999 V2000
   37.0220   27.7780   33.5250 C   0  0  0  0  0  0  0  0  0  0  0  0
   36.1370   28.8530   33.3500 C   0  0  0  0  0  0  0  0  0  0  0  0
   36.1480   29.3960   32.0730 C   0  0  0  0  0  0  0  0  0  0  0  0
   36.9530   28.9080   31.1030 N   0  0  0  0  0  0  0  0  0  0  0  0
   37.7920   27.8700   31.3090 C   0  0  0  0  0  0  0  0  0  0  0  0
   37.8160   27.3130   32.5300 N   0  0  0  0  0  0  0  0  0  0  0  0
   35.5930   30.2030   31.6580 H   0  0  0  0  0  0  0  0  0  0  0  0
   38.4570   27.4290   30.5930 H   0  0  0  0  0  0  0  0  0  0  0  0
   35.2260   29.4480   34.3350 C   0  0  0  0  0  3  0  0  0  0  0  0
   35.6300   30.8490   34.7540 C   0  0  0  0  0  3  0  0  0  0  0  0
   36.6100   30.8190   35.2230 H   0  0  0  0  0  0  0  0  0  0  0  0
   34.5750   31.2590   35.7940 C   0  0  0  0  0  3  0  0  0  0  0  0
   34.9050   32.2490   36.1900 H   0  0  0  0  0  0  0  0  0  0  0  0
   33.3810   31.4150   35.1130 O   0  0  0  0  0  0  0  0  0  0  0  0
   32.8760   30.1390   34.8000 C   0  0  0  0  0  3  0  0  0  0  0  0
   31.9070   30.2840   34.3010 H   0  0  0  0  0  0  0  0  0  0  0  0
   33.8130   29.5090   33.7710 C   0  0  0  0  0  3  0  0  0  0  0  0
   33.4290   28.5470   33.4640 H   0  0  0  0  0  0  0  0  0  0  0  0
   36.9780   27.0920   34.8770 C   0  0  0  0  0  0  0  0  0  0  0  0
   37.9370   26.0750   35.2330 C   0  0  0  0  0  0  0  0  0  0  0  0
   38.2220   27.4760   35.7120 C   0  0  0  0  0  0  0  0  0  0  0  0
   36.0690   27.2990   35.5210 H   0  0  0  0  0  0  0  0  0  0  0  0
   38.5810   25.6510   34.4150 H   0  0  0  0  0  0  0  0  0  0  0  0
   37.7370   25.3300   36.0090 H   0  0  0  0  0  0  0  0  0  0  0  0
   38.1120   27.6700   36.7850 H   0  0  0  0  0  0  0  0  0  0  0  0
   39.0430   27.9720   35.1810 H   0  0  0  0  0  0  0  0  0  0  0  0
  1 19  1  0  0  0  0
  2  1  1  0  0  0  0
  2  9  1  0  0  0  0
  3  2  2  0  0  0  0
  4  5  2  0  0  0  0
  4  3  1  0  0  0  0
  5  6  1  0  0  0  0
  6  1  2  0  0  0  0
  7  3  1  0  0  0  0
  8  5  1  0  0  0  0
  9 10  1  0  0  0  0
 10 11  1  0  0  0  0
 10 12  1  0  0  0  0
 12 13  1  0  0  0  0
 14 12  1  0  0  0  0
 15 14  1  0  0  0  0
 16 15  1  0  0  0  0
 17  9  1  0  0  0  0
 17 15  1  0  0  0  0
 18 17  1  0  0  0  0
 19 20  1  0  0  0  0
 19 22  1  0  0  0  0
 19 21  1  0  0  0  0
 20 21  1  0  0  0  0
 20 24  1  0  0  0  0
 21 25  1  0  0  0  0
 23 20  1  0  0  0  0
 26 21  1  0  0  0  0
M  END
>  <minimizedAffinity>
-4.12563372

$$$$

 OpenBabel03272508183D

 26 28  0  0  0  0  0  0  0  0999 V2000
   37.9330   24.9380   33.7950 C   0  0  0  0  0  0  0  0  0  0  0  0
   38.1490   23.9050   34.7210 C   0  0  0  0  0  0  0  0  0  0  0  0
   37.8950   22.6340   34.2240 C   0  0  0  0  0  0  0  0  0  0  0  0
   37.4790   22.4410   32.9530 N   0  0  0  0  0  0  0  0  0  0  0  0
   37.2830   23.4610   32.0890 C   0  0  0  0  0  0  0  0  0  0  0  0
   37.5140   24.7080   32.5260 N   0  0  0  0  0  0  0  0  0  0  0  0
   37.9700   21.6800   34.6890 H   0  0  0  0  0  0  0  0  0  0  0  0
   36.9560   23.3860   31.0710 H   0  0  0  0  0  0  0  0  0  0  0  0
   38.6010   24.0140   36.1130 C   0  0  0  0  0  3  0  0  0  0  0  0
   37.4600   24.0620   37.1110 C   0  0  0  0  0  3  0  0  0  0  0  0
   36.8460   24.9390   36.9190 H   0  0  0  0  0  0  0  0  0  0  0  0
   38.1490   24.2070   38.4780 C   0  0  0  0  0  3  0  0  0  0  0  0
   37.3280   24.3420   39.2210 H   0  0  0  0  0  0  0  0  0  0  0  0
   38.7980   23.0100   38.7260 O   0  0  0  0  0  0  0  0  0  0  0  0
   39.9500   22.9510   37.9200 C   0  0  0  0  0  3  0  0  0  0  0  0
   40.4740   22.0160   38.1670 H   0  0  0  0  0  0  0  0  0  0  0  0
   39.4930   22.8320   36.4670 C   0  0  0  0  0  3  0  0  0  0  0  0
   40.3520   22.7300   35.8190 H   0  0  0  0  0  0  0  0  0  0  0  0
   38.2850   26.3360   34.2630 C   0  0  0  0  0  0  0  0  0  0  0  0
   37.7890   27.5030   33.5770 C   0  0  0  0  0  0  0  0  0  0  0  0
   37.0240   27.0560   34.7960 C   0  0  0  0  0  0  0  0  0  0  0  0
   39.0780   26.4160   35.0680 H   0  0  0  0  0  0  0  0  0  0  0  0
   37.3140   27.3580   32.5680 H   0  0  0  0  0  0  0  0  0  0  0  0
   38.2830   28.4770   33.6470 H   0  0  0  0  0  0  0  0  0  0  0  0
   37.0990   27.6820   35.6920 H   0  0  0  0  0  0  0  0  0  0  0  0
   36.0560   26.5920   34.5730 H   0  0  0  0  0  0  0  0  0  0  0  0
  1 19  1  0  0  0  0
  1  2  1  0  0  0  0
  2  9  1  0  0  0  0
  3  7  1  0  0  0  0
  3  2  2  0  0  0  0
  4  3  1  0  0  0  0
  5  6  1  0  0  0  0
  5  4  2  0  0  0  0
  6  1  2  0  0  0  0
  8  5  1  0  0  0  0
  9 17  1  0  0  0  0
  9 10  1  0  0  0  0
 10 12  1  0  0  0  0
 11 10  1  0  0  0  0
 12 14  1  0  0  0  0
 12 13  1  0  0  0  0
 15 16  1  0  0  0  0
 15 14  1  0  0  0  0
 17 15  1  0  0  0  0
 18 17  1  0  0  0  0
 19 21  1  0  0  0  0
 19 22  1  0  0  0  0
 20 24  1  0  0  0  0
 20 19  1  0  0  0  0
 20 21  1  0  0  0  0
 21 25  1  0  0  0  0
 23 20  1  0  0  0  0
 26 21  1  0  0  0  0
M  END
>  <minimizedAffinity>
-4.0814395

$$$$

 OpenBabel03272508183D

 26 28  0  0  0  0  0  0  0  0999 V2000
   38.3050   24.7950   35.4550 C   0  0  0  0  0  0  0  0  0  0  0  0
   38.1740   23.9780   34.3210 C   0  0  0  0  0  0  0  0  0  0  0  0
   38.3460   22.6240   34.5740 C   0  0  0  0  0  0  0  0  0  0  0  0
   38.6140   22.1640   35.8160 N   0  0  0  0  0  0  0  0  0  0  0  0
   38.7320   22.9820   36.8840 C   0  0  0  0  0  0  0  0  0  0  0  0
   38.5740   24.3000   36.6870 N   0  0  0  0  0  0  0  0  0  0  0  0
   38.3050   21.7870   33.9190 H   0  0  0  0  0  0  0  0  0  0  0  0
   38.9410   22.6930   37.8950 H   0  0  0  0  0  0  0  0  0  0  0  0
   37.8820   24.3820   32.9400 C   0  0  0  0  0  3  0  0  0  0  0  0
   39.1230   24.4980   32.0760 C   0  0  0  0  0  3  0  0  0  0  0  0
   39.7800   25.2610   32.4850 H   0  0  0  0  0  0  0  0  0  0  0  0
   38.5970   24.9540   30.7050 C   0  0  0  0  0  3  0  0  0  0  0  0
   39.5000   25.1410   30.0780 H   0  0  0  0  0  0  0  0  0  0  0  0
   37.8850   23.8920   30.1770 O   0  0  0  0  0  0  0  0  0  0  0  0
   36.6520   23.8010   30.8510 C   0  0  0  0  0  3  0  0  0  0  0  0
   36.0850   22.9820   30.3850 H   0  0  0  0  0  0  0  0  0  0  0  0
   36.9410   23.3760   32.2890 C   0  0  0  0  0  3  0  0  0  0  0  0
   36.0130   23.2440   32.8270 H   0  0  0  0  0  0  0  0  0  0  0  0
   38.0340   26.2720   35.2460 C   0  0  0  0  0  0  0  0  0  0  0  0
   38.4100   27.2510   36.2360 C   0  0  0  0  0  0  0  0  0  0  0  0
   39.3650   27.0440   35.0880 C   0  0  0  0  0  0  0  0  0  0  0  0
   37.3840   26.5480   34.3600 H   0  0  0  0  0  0  0  0  0  0  0  0
   38.7130   26.8800   37.2530 H   0  0  0  0  0  0  0  0  0  0  0  0
   37.9340   28.2340   36.2970 H   0  0  0  0  0  0  0  0  0  0  0  0
   39.4380   27.8470   34.3460 H   0  0  0  0  0  0  0  0  0  0  0  0
   40.2830   26.5100   35.3600 H   0  0  0  0  0  0  0  0  0  0  0  0
  1  6  1  0  0  0  0
  2  3  1  0  0  0  0
  2  1  2  0  0  0  0
  3  4  2  0  0  0  0
  4  5  1  0  0  0  0
  5  8  1  0  0  0  0
  6  5  2  0  0  0  0
  7  3  1  0  0  0  0
  9  2  1  0  0  0  0
 10 11  1  0  0  0  0
 10  9  1  0  0  0  0
 12 10  1  0  0  0  0
 13 12  1  0  0  0  0
 14 12  1  0  0  0  0
 14 15  1  0  0  0  0
 15 17  1  0  0  0  0
 16 15  1  0  0  0  0
 17 18  1  0  0  0  0
 17  9  1  0  0  0  0
 19  1  1  0  0  0  0
 19 20  1  0  0  0  0
 20 24  1  0  0  0  0
 20 23  1  0  0  0  0
 21 19  1  0  0  0  0
 21 26  1  0  0  0  0
 21 20  1  0  0  0  0
 22 19  1  0  0  0  0
 25 21  1  0  0  0  0
M  END
>  <minimizedAffinity>
-4.0598979

$$$$

 OpenBabel03272508183D

 26 28  0  0  0  0  0  0  0  0999 V2000
   37.1420   23.9960   32.2920 C   0  0  0  0  0  0  0  0  0  0  0  0
   37.0010   22.6390   32.6220 C   0  0  0  0  0  0  0  0  0  0  0  0
   37.5970   22.2810   33.8240 C   0  0  0  0  0  0  0  0  0  0  0  0
   38.2480   23.1860   34.5870 N   0  0  0  0  0  0  0  0  0  0  0  0
   38.3630   24.4860   34.2370 C   0  0  0  0  0  0  0  0  0  0  0  0
   37.8030   24.8770   33.0820 N   0  0  0  0  0  0  0  0  0  0  0  0
   37.6510   21.3410   34.3180 H   0  0  0  0  0  0  0  0  0  0  0  0
   38.8610   25.2580   34.7890 H   0  0  0  0  0  0  0  0  0  0  0  0
   36.3130   21.5880   31.8640 C   0  0  0  0  0  3  0  0  0  0  0  0
   37.2630   20.6460   31.1490 C   0  0  0  0  0  3  0  0  0  0  0  0
   37.8540   21.2050   30.4280 H   0  0  0  0  0  0  0  0  0  0  0  0
   36.3450   19.6620   30.4060 C   0  0  0  0  0  3  0  0  0  0  0  0
   37.0190   19.0180   29.7930 H   0  0  0  0  0  0  0  0  0  0  0  0
   35.7250   18.8880   31.3710 O   0  0  0  0  0  0  0  0  0  0  0  0
   34.7320   19.6640   31.9970 C   0  0  0  0  0  3  0  0  0  0  0  0
   34.2220   19.0170   32.7260 H   0  0  0  0  0  0  0  0  0  0  0  0
   35.4350   20.7610   32.7940 C   0  0  0  0  0  3  0  0  0  0  0  0
   34.7060   21.3480   33.3340 H   0  0  0  0  0  0  0  0  0  0  0  0
   36.4290   24.4530   31.0350 C   0  0  0  0  0  0  0  0  0  0  0  0
   35.0250   24.7820   31.0470 C   0  0  0  0  0  0  0  0  0  0  0  0
   35.9930   25.9310   31.1740 C   0  0  0  0  0  0  0  0  0  0  0  0
   37.0080   24.3680   30.0650 H   0  0  0  0  0  0  0  0  0  0  0  0
   34.4240   24.4900   31.9520 H   0  0  0  0  0  0  0  0  0  0  0  0
   34.4120   24.7650   30.1410 H   0  0  0  0  0  0  0  0  0  0  0  0
   36.0870   26.6040   30.3150 H   0  0  0  0  0  0  0  0  0  0  0  0
   36.0380   26.3690   32.1780 H   0  0  0  0  0  0  0  0  0  0  0  0
  1  2  2  0  0  0  0
  1  6  1  0  0  0  0
  2  3  1  0  0  0  0
  3  7  1  0  0  0  0
  3  4  2  0  0  0  0
  5  4  1  0  0  0  0
  5  8  1  0  0  0  0
  6  5  2  0  0  0  0
  9  2  1  0  0  0  0
  9 17  1  0  0  0  0
 10  9  1  0  0  0  0
 11 10  1  0  0  0  0
 12 10  1  0  0  0  0
 12 14  1  0  0  0  0
 13 12  1  0  0  0  0
 14 15  1  0  0  0  0
 15 16  1  0  0  0  0
 15 17  1  0  0  0  0
 17 18  1  0  0  0  0
 19 20  1  0  0  0  0
 19 21  1  0  0  0  0
 19  1  1  0  0  0  0
 20 21  1  0  0  0  0
 20 23  1  0  0  0  0
 21 26  1  0  0  0  0
 22 19  1  0  0  0  0
 24 20  1  0  0  0  0
 25 21  1  0  0  0  0
M  END
>  <minimizedAffinity>
-4.05799389

$$$$

 OpenBabel03272508183D

 26 28  0  0  0  0  0  0  0  0999 V2000
   37.6000   26.2810   33.6660 C   0  0  0  0  0  0  0  0  0  0  0  0
   37.0170   26.8530   32.5250 C   0  0  0  0  0  0  0  0  0  0  0  0
   36.6520   25.9340   31.5510 C   0  0  0  0  0  0  0  0  0  0  0  0
   36.8530   24.6080   31.7190 N   0  0  0  0  0  0  0  0  0  0  0  0
   37.4180   24.0930   32.8330 C   0  0  0  0  0  0  0  0  0  0  0  0
   37.7880   24.9450   33.8020 N   0  0  0  0  0  0  0  0  0  0  0  0
   36.1980   26.0760   30.6000 H   0  0  0  0  0  0  0  0  0  0  0  0
   37.6080   23.0580   33.0370 H   0  0  0  0  0  0  0  0  0  0  0  0
   36.7540   28.2720   32.2550 C   0  0  0  0  0  3  0  0  0  0  0  0
   37.1270   28.6910   30.8460 C   0  0  0  0  0  3  0  0  0  0  0  0
   38.1930   28.5430   30.6930 H   0  0  0  0  0  0  0  0  0  0  0  0
   36.8050   30.1930   30.7930 C   0  0  0  0  0  3  0  0  0  0  0  0
   37.1600   30.5470   29.7970 H   0  0  0  0  0  0  0  0  0  0  0  0
   35.4270   30.3080   30.8540 O   0  0  0  0  0  0  0  0  0  0  0  0
   35.0150   30.0560   32.1750 C   0  0  0  0  0  3  0  0  0  0  0  0
   33.9250   30.1980   32.2110 H   0  0  0  0  0  0  0  0  0  0  0  0
   35.2780   28.5800   32.4690 C   0  0  0  0  0  3  0  0  0  0  0  0
   34.9250   28.3340   33.4600 H   0  0  0  0  0  0  0  0  0  0  0  0
   37.9300   27.2360   34.7960 C   0  0  0  0  0  0  0  0  0  0  0  0
   38.3140   26.7520   36.0990 C   0  0  0  0  0  0  0  0  0  0  0  0
   39.4300   27.1350   35.1610 C   0  0  0  0  0  0  0  0  0  0  0  0
   37.7050   28.3320   34.6150 H   0  0  0  0  0  0  0  0  0  0  0  0
   38.1580   25.6610   36.3220 H   0  0  0  0  0  0  0  0  0  0  0  0
   38.2120   27.3600   37.0020 H   0  0  0  0  0  0  0  0  0  0  0  0
   39.9900   28.0480   35.3960 H   0  0  0  0  0  0  0  0  0  0  0  0
   39.9840   26.2820   34.7520 H   0  0  0  0  0  0  0  0  0  0  0  0
  1  6  1  0  0  0  0
  1 19  1  0  0  0  0
  2  1  2  0  0  0  0
  3  4  2  0  0  0  0
  3  2  1  0  0  0  0
  4  5  1  0  0  0  0
  5  8  1  0  0  0  0
  5  6  2  0  0  0  0
  7  3  1  0  0  0  0
  9 17  1  0  0  0  0
  9  2  1  0  0  0  0
 10  9  1  0  0  0  0
 11 10  1  0  0  0  0
 12 10  1  0  0  0  0
 12 14  1  0  0  0  0
 13 12  1  0  0  0  0
 14 15  1  0  0  0  0
 15 16  1  0  0  0  0
 15 17  1  0  0  0  0
 17 18  1  0  0  0  0
 19 21  1  0  0  0  0
 19 20  1  0  0  0  0
 20 23  1  0  0  0  0
 20 24  1  0  0  0  0
 21 25  1  0  0  0  0
 21 20  1  0  0  0  0
 22 19  1  0  0  0  0
 26 21  1  0  0  0  0
M  END
>  <minimizedAffinity>
-4.01897573

$$$$

 OpenBabel03272508183D

 26 28  0  0  0  0  0  0  0  0999 V2000
   37.7170   25.1520   33.7550 C   0  0  0  0  0  0  0  0  0  0  0  0
   38.0170   25.1940   35.1250 C   0  0  0  0  0  0  0  0  0  0  0  0
   37.9500   26.4630   35.6830 C   0  0  0  0  0  0  0  0  0  0  0  0
   37.6200   27.5450   34.9440 N   0  0  0  0  0  0  0  0  0  0  0  0
   37.3370   27.4650   33.6250 C   0  0  0  0  0  0  0  0  0  0  0  0
   37.3900   26.2580   33.0420 N   0  0  0  0  0  0  0  0  0  0  0  0
   38.1230   26.7920   36.6800 H   0  0  0  0  0  0  0  0  0  0  0  0
   37.0680   28.2750   32.9760 H   0  0  0  0  0  0  0  0  0  0  0  0
   38.3800   24.0790   36.0090 C   0  0  0  0  0  3  0  0  0  0  0  0
   39.8550   23.7320   35.9580 C   0  0  0  0  0  3  0  0  0  0  0  0
   40.1210   23.4220   34.9500 H   0  0  0  0  0  0  0  0  0  0  0  0
   40.0040   22.5400   36.9170 C   0  0  0  0  0  3  0  0  0  0  0  0
   41.0630   22.2030   36.8240 H   0  0  0  0  0  0  0  0  0  0  0  0
   39.7900   23.0270   38.1950 O   0  0  0  0  0  0  0  0  0  0  0  0
   38.4110   23.2540   38.3610 C   0  0  0  0  0  3  0  0  0  0  0  0
   38.2590   23.5960   39.3950 H   0  0  0  0  0  0  0  0  0  0  0  0
   38.0200   24.4160   37.4500 C   0  0  0  0  0  3  0  0  0  0  0  0
   36.9760   24.6570   37.5890 H   0  0  0  0  0  0  0  0  0  0  0  0
   37.6870   23.7750   33.1210 C   0  0  0  0  0  0  0  0  0  0  0  0
   37.5810   23.6100   31.6920 C   0  0  0  0  0  0  0  0  0  0  0  0
   38.9660   23.5430   32.2830 C   0  0  0  0  0  0  0  0  0  0  0  0
   37.5880   22.8950   33.8270 H   0  0  0  0  0  0  0  0  0  0  0  0
   37.3080   24.5100   31.0770 H   0  0  0  0  0  0  0  0  0  0  0  0
   37.2060   22.6890   31.2370 H   0  0  0  0  0  0  0  0  0  0  0  0
   39.4550   22.5620   32.3060 H   0  0  0  0  0  0  0  0  0  0  0  0
   39.5870   24.4210   32.0700 H   0  0  0  0  0  0  0  0  0  0  0  0
  1  2  1  0  0  0  0
  2  3  2  0  0  0  0
  2  9  1  0  0  0  0
  3  7  1  0  0  0  0
  4  3  1  0  0  0  0
  5  4  2  0  0  0  0
  6  5  1  0  0  0  0
  6  1  2  0  0  0  0
  8  5  1  0  0  0  0
  9 17  1  0  0  0  0
 10  9  1  0  0  0  0
 10 12  1  0  0  0  0
 11 10  1  0  0  0  0
 12 14  1  0  0  0  0
 13 12  1  0  0  0  0
 14 15  1  0  0  0  0
 15 16  1  0  0  0  0
 17 18  1  0  0  0  0
 17 15  1  0  0  0  0
 19  1  1  0  0  0  0
 19 22  1  0  0  0  0
 20 21  1  0  0  0  0
 20 19  1  0  0  0  0
 21 25  1  0  0  0  0
 21 19  1  0  0  0  0
 23 20  1  0  0  0  0
 24 20  1  0  0  0  0
 26 21  1  0  0  0  0
M  END
>  <minimizedAffinity>
-3.9967742

$$$$

 OpenBabel03272508183D

 26 28  0  0  0  0  0  0  0  0999 V2000
   36.4240   27.2540   31.6670 C   0  0  0  0  0  0  0  0  0  0  0  0
   37.1980   26.5070   32.5690 C   0  0  0  0  0  0  0  0  0  0  0  0
   36.9090   25.1500   32.5770 C   0  0  0  0  0  0  0  0  0  0  0  0
   35.9600   24.6230   31.7720 N   0  0  0  0  0  0  0  0  0  0  0  0
   35.2350   25.3740   30.9150 C   0  0  0  0  0  0  0  0  0  0  0  0
   35.4790   26.6930   30.8740 N   0  0  0  0  0  0  0  0  0  0  0  0
   37.3280   24.3560   33.1480 H   0  0  0  0  0  0  0  0  0  0  0  0
   34.4690   25.0300   30.2490 H   0  0  0  0  0  0  0  0  0  0  0  0
   38.2490   26.9860   33.4750 C   0  0  0  0  0  3  0  0  0  0  0  0
   38.1710   26.3700   34.8590 C   0  0  0  0  0  3  0  0  0  0  0  0
   37.2240   26.6360   35.3220 H   0  0  0  0  0  0  0  0  0  0  0  0
   39.3240   27.0250   35.6370 C   0  0  0  0  0  3  0  0  0  0  0  0
   39.2290   26.6610   36.6880 H   0  0  0  0  0  0  0  0  0  0  0  0
   40.5000   26.5410   35.0910 O   0  0  0  0  0  0  0  0  0  0  0  0
   40.7070   27.1700   33.8490 C   0  0  0  0  0  3  0  0  0  0  0  0
   41.6670   26.8060   33.4550 H   0  0  0  0  0  0  0  0  0  0  0  0
   39.6220   26.6770   32.8940 C   0  0  0  0  0  3  0  0  0  0  0  0
   39.7790   27.0980   31.9100 H   0  0  0  0  0  0  0  0  0  0  0  0
   36.7670   28.7270   31.5550 C   0  0  0  0  0  0  0  0  0  0  0  0
   35.9080   29.6450   30.8480 C   0  0  0  0  0  0  0  0  0  0  0  0
   35.7430   29.5760   32.3450 C   0  0  0  0  0  0  0  0  0  0  0  0
   37.7980   29.0350   31.9090 H   0  0  0  0  0  0  0  0  0  0  0  0
   35.0950   29.2130   30.2030 H   0  0  0  0  0  0  0  0  0  0  0  0
   36.2730   30.5940   30.4450 H   0  0  0  0  0  0  0  0  0  0  0  0
   36.0920   30.4370   32.9270 H   0  0  0  0  0  0  0  0  0  0  0  0
   34.8270   29.0720   32.6710 H   0  0  0  0  0  0  0  0  0  0  0  0
  1  2  1  0  0  0  0
  2  3  2  0  0  0  0
  2  9  1  0  0  0  0
  3  7  1  0  0  0  0
  4  3  1  0  0  0  0
  5  4  2  0  0  0  0
  6  5  1  0  0  0  0
  6  1  2  0  0  0  0
  8  5  1  0  0  0  0
  9 10  1  0  0  0  0
 10 11  1  0  0  0  0
 10 12  1  0  0  0  0
 12 13  1  0  0  0  0
 14 12  1  0  0  0  0
 15 14  1  0  0  0  0
 16 15  1  0  0  0  0
 17  9  1  0  0  0  0
 17 15  1  0  0  0  0
 18 17  1  0  0  0  0
 19  1  1  0  0  0  0
 19 22  1  0  0  0  0
 19 21  1  0  0  0  0
 20 19  1  0  0  0  0
 20 21  1  0  0  0  0
 21 26  1  0  0  0  0
 21 25  1  0  0  0  0
 23 20  1  0  0  0  0
 24 20  1  0  0  0  0
M  END
>  <minimizedAffinity>
-3.92967057

$$$$

 OpenBabel03272508183D

 26 28  0  0  0  0  0  0  0  0999 V2000
   37.1470   27.4060   33.7510 C   0  0  0  0  0  0  0  0  0  0  0  0
   36.9140   26.7820   32.5140 C   0  0  0  0  0  0  0  0  0  0  0  0
   35.8730   27.3410   31.7840 C   0  0  0  0  0  0  0  0  0  0  0  0
   35.1670   28.3940   32.2500 N   0  0  0  0  0  0  0  0  0  0  0  0
   35.4220   28.9690   33.4460 C   0  0  0  0  0  0  0  0  0  0  0  0
   36.4180   28.4620   34.1880 N   0  0  0  0  0  0  0  0  0  0  0  0
   35.4790   27.0800   30.8320 H   0  0  0  0  0  0  0  0  0  0  0  0
   34.9070   29.8030   33.8800 H   0  0  0  0  0  0  0  0  0  0  0  0
   37.6260   25.6430   31.9250 C   0  0  0  0  0  3  0  0  0  0  0  0
   36.7010   24.6320   31.2730 C   0  0  0  0  0  3  0  0  0  0  0  0
   36.0310   24.2180   32.0220 H   0  0  0  0  0  0  0  0  0  0  0  0
   37.6390   23.5280   30.7590 C   0  0  0  0  0  3  0  0  0  0  0  0
   36.9760   22.7240   30.3610 H   0  0  0  0  0  0  0  0  0  0  0  0
   38.3670   24.0760   29.7180 O   0  0  0  0  0  0  0  0  0  0  0  0
   39.3400   24.9370   30.2580 C   0  0  0  0  0  3  0  0  0  0  0  0
   39.9360   25.3250   29.4190 H   0  0  0  0  0  0  0  0  0  0  0  0
   38.6130   26.1310   30.8720 C   0  0  0  0  0  3  0  0  0  0  0  0
   39.3310   26.8440   31.2530 H   0  0  0  0  0  0  0  0  0  0  0  0
   38.3320   26.8910   34.5430 C   0  0  0  0  0  0  0  0  0  0  0  0
   38.5210   27.2490   35.9270 C   0  0  0  0  0  0  0  0  0  0  0  0
   37.8550   25.9250   35.6530 C   0  0  0  0  0  0  0  0  0  0  0  0
   39.1380   26.3510   33.9570 H   0  0  0  0  0  0  0  0  0  0  0  0
   37.8940   28.0840   36.3450 H   0  0  0  0  0  0  0  0  0  0  0  0
   39.5000   27.2060   36.4140 H   0  0  0  0  0  0  0  0  0  0  0  0
   38.4350   25.0190   35.8650 H   0  0  0  0  0  0  0  0  0  0  0  0
   36.7810   25.9100   35.8710 H   0  0  0  0  0  0  0  0  0  0  0  0
  1  6  1  0  0  0  0
  1 19  1  0  0  0  0
  2  1  2  0  0  0  0
  3  4  2  0  0  0  0
  3  2  1  0  0  0  0
  4  5  1  0  0  0  0
  5  8  1  0  0  0  0
  5  6  2  0  0  0  0
  7  3  1  0  0  0  0
  9  2  1  0  0  0  0
 10  9  1  0  0  0  0
 10 11  1  0  0  0  0
 12 10  1  0  0  0  0
 13 12  1  0  0  0  0
 14 15  1  0  0  0  0
 14 12  1  0  0  0  0
 15 17  1  0  0  0  0
 16 15  1  0  0  0  0
 17 18  1  0  0  0  0
 17  9  1  0  0  0  0
 19 21  1  0  0  0  0
 19 20  1  0  0  0  0
 20 23  1  0  0  0  0
 20 24  1  0  0  0  0
 21 25  1  0  0  0  0
 21 26  1  0  0  0  0
 21 20  1  0  0  0  0
 22 19  1  0  0  0  0
M  END
>  <minimizedAffinity>
-3.90541816

$$$$
