
 OpenBabel03272505273D

 32 34  0  0  0  0  0  0  0  0999 V2000
   37.3860   31.0750   47.1370 N   0  0  0  0  0  0  0  0  0  0  0  0
   36.7990   30.7440   45.9560 C   0  0  0  0  0  0  0  0  0  0  0  0
   37.2650   31.2310   44.7410 C   0  0  0  0  0  0  0  0  0  0  0  0
   38.3780   32.0900   44.7770 C   0  0  0  0  0  0  0  0  0  0  0  0
   38.8300   32.5510   43.7050 O   0  0  0  0  0  0  0  0  0  0  0  0
   38.9610   32.4150   45.9740 N   0  0  0  0  0  0  0  0  0  0  0  0
   38.4210   31.8840   47.0630 C   0  0  0  0  0  0  0  0  0  0  0  0
   38.9830   32.2090   48.1360 O   0  0  0  0  0  0  0  0  0  0  0  0
   35.9420   30.0810   45.9530 H   0  0  0  0  0  0  0  0  0  0  0  0
   36.6010   30.8480   43.5050 C   0  0  0  0  0  3  0  0  0  0  0  0
   37.4940   30.0530   42.5660 C   0  0  0  0  0  3  0  0  0  0  0  0
   38.3240   30.7110   42.1920 H   0  0  0  0  0  0  0  0  0  0  0  0
   36.6530   29.7080   41.3540 C   0  0  0  0  0  3  0  0  0  0  0  0
   36.9520   30.2940   40.4500 H   0  0  0  0  0  0  0  0  0  0  0  0
   35.3020   29.9560   41.5380 O   0  0  0  0  0  0  0  0  0  0  0  0
   35.0180   31.2970   41.7370 C   0  0  0  0  0  3  0  0  0  0  0  0
   34.9260   31.8500   40.7950 H   0  0  0  0  0  0  0  0  0  0  0  0
   36.0090   31.9610   42.7010 C   0  0  0  0  0  3  0  0  0  0  0  0
   35.5100   32.7390   43.3130 H   0  0  0  0  0  0  0  0  0  0  0  0
   37.2270   29.4430   50.4670 C   0  0  0  0  0  0  0  0  0  0  0  0
   37.7170   29.9400   49.2480 C   0  0  0  0  0  0  0  0  0  0  0  0
   36.8990   30.5740   48.3490 C   0  0  0  0  0  0  0  0  0  0  0  0
   35.5790   30.7080   48.6770 N   0  0  0  0  0  0  0  0  0  0  0  0
   35.0820   30.2340   49.8510 C   0  0  0  0  0  0  0  0  0  0  0  0
   35.8970   29.6040   50.7430 N   0  0  0  0  0  0  0  0  0  0  0  0
   37.8070   28.9390   51.2160 H   0  0  0  0  0  0  0  0  0  0  0  0
   38.7620   29.7310   49.1710 H   0  0  0  0  0  0  0  0  0  0  0  0
   34.0260   30.3810   50.0310 H   0  0  0  0  0  0  0  0  0  0  0  0
   40.1130   33.2960   46.0040 C   0  0  0  0  0  0  0  0  0  0  0  0
   39.9920   34.2710   45.0690 F   0  0  0  0  0  0  0  0  0  0  0  0
   41.2950   32.6310   45.7210 F   0  0  0  0  0  0  0  0  0  0  0  0
   40.1840   33.9010   47.2530 F   0  0  0  0  0  0  0  0  0  0  0  0
  1 22  1  0  0  0  0
  2  1  1  0  0  0  0
  3  4  1  0  0  0  0
  3  2  2  0  0  0  0
  4  6  1  0  0  0  0
  5  4  2  0  0  0  0
  6 29  1  0  0  0  0
  6  7  1  0  0  0  0
  7  1  1  0  0  0  0
  7  8  2  0  0  0  0
  9  2  1  0  0  0  0
 10  3  1  0  0  0  0
 11 10  1  0  0  0  0
 12 11  1  0  0  0  0
 13 15  1  0  0  0  0
 13 11  1  0  0  0  0
 14 13  1  0  0  0  0
 15 16  1  0  0  0  0
 16 18  1  0  0  0  0
 17 16  1  0  0  0  0
 18 19  1  0  0  0  0
 18 10  1  0  0  0  0
 20 25  1  0  0  0  0
 20 26  1  0  0  0  0
 21 20  2  0  0  0  0
 22 23  2  0  0  0  0
 22 21  1  0  0  0  0
 23 24  1  0  0  0  0
 24 28  1  0  0  0  0
 24 25  2  0  0  0  0
 27 21  1  0  0  0  0
 29 32  1  0  0  0  0
 30 29  1  0  0  0  0
 31 29  1  0  0  0  0
M  END
>  <minimizedAffinity>
-6.08904839

>  <minimizedRMSD>
0.295555681

$$$$
