
 OpenBabel03272506593D

 29 31  0  0  0  0  0  0  0  0999 V2000
   37.2560   25.5950   32.9140 C   0  0  0  0  0  0  0  0  0  0  0  0
   37.1260   24.3950   32.2590 C   0  0  0  0  0  0  0  0  0  0  0  0
   37.4740   23.1550   32.7400 C   0  0  0  0  0  0  0  0  0  0  0  0
   37.9930   23.1500   33.9860 N   0  0  0  0  0  0  0  0  0  0  0  0
   38.1430   24.3240   34.6800 C   0  0  0  0  0  0  0  0  0  0  0  0
   37.7840   25.5300   34.1640 N   0  0  0  0  0  0  0  0  0  0  0  0
   36.7060   24.4390   31.2630 H   0  0  0  0  0  0  0  0  0  0  0  0
   37.3420   22.2520   32.1660 H   0  0  0  0  0  0  0  0  0  0  0  0
   38.7240   24.2210   36.0470 C   0  0  0  0  0  3  0  0  0  0  0  0
   39.2680   22.8410   36.3380 C   0  0  0  0  0  3  0  0  0  0  0  0
   38.4030   22.1220   36.2860 H   0  0  0  0  0  0  0  0  0  0  0  0
   39.8370   22.8630   37.7330 C   0  0  0  0  0  3  0  0  0  0  0  0
   40.5460   23.7260   37.7850 H   0  0  0  0  0  0  0  0  0  0  0  0
   38.7750   23.0290   38.6130 O   0  0  0  0  0  0  0  0  0  0  0  0
   38.1520   24.2560   38.4640 C   0  0  0  0  0  3  0  0  0  0  0  0
   37.2770   24.2720   39.1460 H   0  0  0  0  0  0  0  0  0  0  0  0
   37.6490   24.5030   37.0650 C   0  0  0  0  0  3  0  0  0  0  0  0
   36.7570   23.9290   36.8220 H   0  0  0  0  0  0  0  0  0  0  0  0
   36.6150   28.1250   30.3820 C   0  0  0  0  0  0  0  0  0  0  0  0
   36.1010   29.2250   31.0900 C   0  0  0  0  0  0  0  0  0  0  0  0
   35.9850   29.0520   32.4870 C   0  0  0  0  0  0  0  0  0  0  0  0
   36.3610   27.8790   33.0520 N   0  0  0  0  0  0  0  0  0  0  0  0
   36.8490   26.8660   32.3000 C   0  0  0  0  0  0  0  0  0  0  0  0
   36.9870   26.9580   30.9590 N   0  0  0  0  0  0  0  0  0  0  0  0
   36.6930   28.2830   29.3200 H   0  0  0  0  0  0  0  0  0  0  0  0
   35.5940   29.8710   33.0770 H   0  0  0  0  0  0  0  0  0  0  0  0
   35.7250   30.4250   30.4470 N   0  0  0  0  0  0  0  0  0  0  0  0
   35.7390   31.2850   31.0440 H   0  0  0  0  0  0  0  0  0  0  0  0
   35.4750   30.3380   29.4550 H   0  0  0  0  0  0  0  0  0  0  0  0
  1  6  1  0  0  0  0
  2  3  1  0  0  0  0
  2  1  2  0  0  0  0
  3  4  2  0  0  0  0
  4  5  1  0  0  0  0
  5  9  1  0  0  0  0
  6  5  2  0  0  0  0
  7  2  1  0  0  0  0
  8  3  1  0  0  0  0
  9 10  1  0  0  0  0
  9 17  1  0  0  0  0
 10 12  1  0  0  0  0
 11 10  1  0  0  0  0
 12 13  1  0  0  0  0
 12 14  1  0  0  0  0
 15 14  1  0  0  0  0
 15 16  1  0  0  0  0
 17 15  1  0  0  0  0
 18 17  1  0  0  0  0
 19 24  2  0  0  0  0
 19 20  1  0  0  0  0
 20 21  2  0  0  0  0
 21 22  1  0  0  0  0
 21 26  1  0  0  0  0
 23  1  1  0  0  0  0
 23 22  2  0  0  0  0
 24 23  1  0  0  0  0
 25 19  1  0  0  0  0
 27 28  1  0  0  0  0
 27 20  1  0  0  0  0
 29 27  1  0  0  0  0
M  END
>  <minimizedAffinity>
-5.16738319

$$$$

 OpenBabel03272506593D

 29 31  0  0  0  0  0  0  0  0999 V2000
   36.0920   24.0180   31.6360 C   0  0  0  0  0  0  0  0  0  0  0  0
   35.2610   24.8340   30.9090 C   0  0  0  0  0  0  0  0  0  0  0  0
   35.2390   26.2090   30.9250 C   0  0  0  0  0  0  0  0  0  0  0  0
   36.1380   26.7850   31.7500 N   0  0  0  0  0  0  0  0  0  0  0  0
   36.9890   26.0110   32.4980 C   0  0  0  0  0  0  0  0  0  0  0  0
   36.9760   24.6530   32.4500 N   0  0  0  0  0  0  0  0  0  0  0  0
   34.5540   24.3350   30.2580 H   0  0  0  0  0  0  0  0  0  0  0  0
   34.5550   26.7840   30.3230 H   0  0  0  0  0  0  0  0  0  0  0  0
   37.9460   26.7350   33.3800 C   0  0  0  0  0  3  0  0  0  0  0  0
   39.3700   26.2630   33.1940 C   0  0  0  0  0  3  0  0  0  0  0  0
   39.4030   25.1750   33.4840 H   0  0  0  0  0  0  0  0  0  0  0  0
   40.2400   27.0710   34.1220 C   0  0  0  0  0  3  0  0  0  0  0  0
   40.0160   28.1490   33.9260 H   0  0  0  0  0  0  0  0  0  0  0  0
   39.9050   26.7140   35.4220 O   0  0  0  0  0  0  0  0  0  0  0  0
   38.6090   27.0710   35.7500 C   0  0  0  0  0  3  0  0  0  0  0  0
   38.4030   26.6840   36.7700 H   0  0  0  0  0  0  0  0  0  0  0  0
   37.5760   26.4880   34.8200 C   0  0  0  0  0  3  0  0  0  0  0  0
   37.4100   25.4240   34.9760 H   0  0  0  0  0  0  0  0  0  0  0  0
   34.9530   20.6010   32.1280 C   0  0  0  0  0  0  0  0  0  0  0  0
   35.8540   19.8080   31.3950 C   0  0  0  0  0  0  0  0  0  0  0  0
   36.8770   20.5120   30.7220 C   0  0  0  0  0  0  0  0  0  0  0  0
   36.9350   21.8620   30.8120 N   0  0  0  0  0  0  0  0  0  0  0  0
   36.0290   22.5540   31.5390 C   0  0  0  0  0  0  0  0  0  0  0  0
   35.0220   21.9500   32.2100 N   0  0  0  0  0  0  0  0  0  0  0  0
   34.1840   20.0400   32.6310 H   0  0  0  0  0  0  0  0  0  0  0  0
   37.5960   19.9460   30.1430 H   0  0  0  0  0  0  0  0  0  0  0  0
   35.7450   18.4010   31.3370 N   0  0  0  0  0  0  0  0  0  0  0  0
   36.6310   17.8840   31.1270 H   0  0  0  0  0  0  0  0  0  0  0  0
   34.8070   18.0210   31.5070 H   0  0  0  0  0  0  0  0  0  0  0  0
  1  6  1  0  0  0  0
  2  3  1  0  0  0  0
  2  1  2  0  0  0  0
  3  4  2  0  0  0  0
  4  5  1  0  0  0  0
  5  9  1  0  0  0  0
  6  5  2  0  0  0  0
  7  2  1  0  0  0  0
  8  3  1  0  0  0  0
  9 17  1  0  0  0  0
 10  9  1  0  0  0  0
 10 11  1  0  0  0  0
 10 12  1  0  0  0  0
 12 14  1  0  0  0  0
 13 12  1  0  0  0  0
 14 15  1  0  0  0  0
 15 16  1  0  0  0  0
 17 18  1  0  0  0  0
 17 15  1  0  0  0  0
 19 24  1  0  0  0  0
 19 25  1  0  0  0  0
 20 19  2  0  0  0  0
 21 22  2  0  0  0  0
 21 20  1  0  0  0  0
 22 23  1  0  0  0  0
 23  1  1  0  0  0  0
 23 24  2  0  0  0  0
 26 21  1  0  0  0  0
 27 20  1  0  0  0  0
 27 29  1  0  0  0  0
 28 27  1  0  0  0  0
M  END
>  <minimizedAffinity>
-5.14052057

$$$$

 OpenBabel03272506593D

 29 31  0  0  0  0  0  0  0  0999 V2000
   37.8220   24.9960   33.6650 C   0  0  0  0  0  0  0  0  0  0  0  0
   38.2200   24.4510   32.4690 C   0  0  0  0  0  0  0  0  0  0  0  0
   37.9690   24.9520   31.2140 C   0  0  0  0  0  0  0  0  0  0  0  0
   37.2560   26.0980   31.1880 N   0  0  0  0  0  0  0  0  0  0  0  0
   36.8360   26.6800   32.3570 C   0  0  0  0  0  0  0  0  0  0  0  0
   37.1080   26.1490   33.5780 N   0  0  0  0  0  0  0  0  0  0  0  0
   38.7890   23.5320   32.5310 H   0  0  0  0  0  0  0  0  0  0  0  0
   38.3150   24.4670   30.3160 H   0  0  0  0  0  0  0  0  0  0  0  0
   36.0560   27.9420   32.2290 C   0  0  0  0  0  3  0  0  0  0  0  0
   36.6640   28.8960   31.2270 C   0  0  0  0  0  3  0  0  0  0  0  0
   37.6890   29.1710   31.6050 H   0  0  0  0  0  0  0  0  0  0  0  0
   35.7870   30.1200   31.1760 C   0  0  0  0  0  3  0  0  0  0  0  0
   34.7420   29.7670   30.9950 H   0  0  0  0  0  0  0  0  0  0  0  0
   35.8980   30.7620   32.4030 O   0  0  0  0  0  0  0  0  0  0  0  0
   35.3890   30.0040   33.4430 C   0  0  0  0  0  3  0  0  0  0  0  0
   35.5860   30.5550   34.3860 H   0  0  0  0  0  0  0  0  0  0  0  0
   36.0330   28.6470   33.5620 C   0  0  0  0  0  3  0  0  0  0  0  0
   37.0400   28.6830   33.9720 H   0  0  0  0  0  0  0  0  0  0  0  0
   38.1190   24.5090   37.2560 C   0  0  0  0  0  0  0  0  0  0  0  0
   38.7340   23.2530   37.4030 C   0  0  0  0  0  0  0  0  0  0  0  0
   39.0430   22.5810   36.2000 C   0  0  0  0  0  0  0  0  0  0  0  0
   38.7420   23.1570   35.0110 N   0  0  0  0  0  0  0  0  0  0  0  0
   38.1480   24.3710   34.9540 C   0  0  0  0  0  0  0  0  0  0  0  0
   37.8220   25.0740   36.0620 N   0  0  0  0  0  0  0  0  0  0  0  0
   37.8940   24.9990   38.1880 H   0  0  0  0  0  0  0  0  0  0  0  0
   39.5180   21.6100   36.2600 H   0  0  0  0  0  0  0  0  0  0  0  0
   39.0250   22.7010   38.6700 N   0  0  0  0  0  0  0  0  0  0  0  0
   39.8030   22.0000   38.6930 H   0  0  0  0  0  0  0  0  0  0  0  0
   38.4470   23.0400   39.4460 H   0  0  0  0  0  0  0  0  0  0  0  0
  1 23  1  0  0  0  0
  2  7  1  0  0  0  0
  2  1  2  0  0  0  0
  3  2  1  0  0  0  0
  4  3  2  0  0  0  0
  4  5  1  0  0  0  0
  5  6  2  0  0  0  0
  6  1  1  0  0  0  0
  8  3  1  0  0  0  0
  9  5  1  0  0  0  0
  9 17  1  0  0  0  0
 10 11  1  0  0  0  0
 10  9  1  0  0  0  0
 12 10  1  0  0  0  0
 12 14  1  0  0  0  0
 13 12  1  0  0  0  0
 14 15  1  0  0  0  0
 15 17  1  0  0  0  0
 15 16  1  0  0  0  0
 17 18  1  0  0  0  0
 19 20  1  0  0  0  0
 19 25  1  0  0  0  0
 20 27  1  0  0  0  0
 21 26  1  0  0  0  0
 21 20  2  0  0  0  0
 22 21  1  0  0  0  0
 23 22  2  0  0  0  0
 23 24  1  0  0  0  0
 24 19  2  0  0  0  0
 27 28  1  0  0  0  0
 27 29  1  0  0  0  0
M  END
>  <minimizedAffinity>
-5.12705088

$$$$

 OpenBabel03272506593D

 29 31  0  0  0  0  0  0  0  0999 V2000
   37.9120   26.2860   34.4760 C   0  0  0  0  0  0  0  0  0  0  0  0
   38.4810   26.4790   33.2410 C   0  0  0  0  0  0  0  0  0  0  0  0
   38.1090   27.4110   32.3010 C   0  0  0  0  0  0  0  0  0  0  0  0
   37.0760   28.2020   32.6600 N   0  0  0  0  0  0  0  0  0  0  0  0
   36.4750   28.0470   33.8830 C   0  0  0  0  0  0  0  0  0  0  0  0
   36.8770   27.1110   34.7830 N   0  0  0  0  0  0  0  0  0  0  0  0
   39.3070   25.8250   32.9910 H   0  0  0  0  0  0  0  0  0  0  0  0
   38.6050   27.5040   31.3490 H   0  0  0  0  0  0  0  0  0  0  0  0
   35.3430   28.9650   34.1900 C   0  0  0  0  0  3  0  0  0  0  0  0
   34.6200   29.4240   32.9440 C   0  0  0  0  0  3  0  0  0  0  0  0
   35.3590   30.0000   32.3200 H   0  0  0  0  0  0  0  0  0  0  0  0
   33.4960   30.3290   33.3790 C   0  0  0  0  0  3  0  0  0  0  0  0
   32.9090   29.7740   34.1520 H   0  0  0  0  0  0  0  0  0  0  0  0
   34.0700   31.4770   33.9110 O   0  0  0  0  0  0  0  0  0  0  0  0
   34.7890   31.2230   35.0650 C   0  0  0  0  0  3  0  0  0  0  0  0
   35.2710   32.1730   35.3760 H   0  0  0  0  0  0  0  0  0  0  0  0
   35.8760   30.1960   34.8770 C   0  0  0  0  0  3  0  0  0  0  0  0
   36.7350   30.5770   34.3290 H   0  0  0  0  0  0  0  0  0  0  0  0
   39.9960   23.6750   35.9120 C   0  0  0  0  0  0  0  0  0  0  0  0
   39.3510   23.3110   37.1060 C   0  0  0  0  0  0  0  0  0  0  0  0
   38.1580   24.0110   37.3930 C   0  0  0  0  0  0  0  0  0  0  0  0
   37.7140   24.9620   36.5360 N   0  0  0  0  0  0  0  0  0  0  0  0
   38.3940   25.2550   35.4050 C   0  0  0  0  0  0  0  0  0  0  0  0
   39.5420   24.6280   35.0640 N   0  0  0  0  0  0  0  0  0  0  0  0
   40.9020   23.1270   35.7170 H   0  0  0  0  0  0  0  0  0  0  0  0
   37.6230   23.7660   38.3020 H   0  0  0  0  0  0  0  0  0  0  0  0
   39.8600   22.3090   37.9620 N   0  0  0  0  0  0  0  0  0  0  0  0
   39.1580   21.8370   38.5790 H   0  0  0  0  0  0  0  0  0  0  0  0
   40.8700   22.1410   37.8970 H   0  0  0  0  0  0  0  0  0  0  0  0
  1  6  1  0  0  0  0
  1 23  1  0  0  0  0
  2  1  2  0  0  0  0
  3  4  2  0  0  0  0
  3  2  1  0  0  0  0
  4  5  1  0  0  0  0
  5  9  1  0  0  0  0
  5  6  2  0  0  0  0
  7  2  1  0  0  0  0
  8  3  1  0  0  0  0
  9 17  1  0  0  0  0
 10 12  1  0  0  0  0
 10  9  1  0  0  0  0
 11 10  1  0  0  0  0
 12 14  1  0  0  0  0
 12 13  1  0  0  0  0
 14 15  1  0  0  0  0
 15 16  1  0  0  0  0
 17 15  1  0  0  0  0
 18 17  1  0  0  0  0
 19 20  1  0  0  0  0
 20 21  2  0  0  0  0
 20 27  1  0  0  0  0
 21 26  1  0  0  0  0
 22 21  1  0  0  0  0
 23 22  2  0  0  0  0
 24 23  1  0  0  0  0
 24 19  2  0  0  0  0
 25 19  1  0  0  0  0
 27 28  1  0  0  0  0
 29 27  1  0  0  0  0
M  END
>  <minimizedAffinity>
-5.07317638

$$$$

 OpenBabel03272506593D

 29 31  0  0  0  0  0  0  0  0999 V2000
   38.1120   25.9010   34.6900 C   0  0  0  0  0  0  0  0  0  0  0  0
   37.2780   26.8510   35.2260 C   0  0  0  0  0  0  0  0  0  0  0  0
   36.6490   27.8690   34.5490 C   0  0  0  0  0  0  0  0  0  0  0  0
   36.8960   27.9110   33.2230 N   0  0  0  0  0  0  0  0  0  0  0  0
   37.7230   26.9840   32.6410 C   0  0  0  0  0  0  0  0  0  0  0  0
   38.3250   25.9920   33.3500 N   0  0  0  0  0  0  0  0  0  0  0  0
   37.1050   26.7840   36.2920 H   0  0  0  0  0  0  0  0  0  0  0  0
   36.0050   28.5800   35.0400 H   0  0  0  0  0  0  0  0  0  0  0  0
   37.9370   27.1100   31.1730 C   0  0  0  0  0  3  0  0  0  0  0  0
   39.4030   27.1780   30.8090 C   0  0  0  0  0  3  0  0  0  0  0  0
   39.8250   28.1050   31.2900 H   0  0  0  0  0  0  0  0  0  0  0  0
   39.4920   27.2900   29.3090 C   0  0  0  0  0  3  0  0  0  0  0  0
   38.8850   26.4550   28.8810 H   0  0  0  0  0  0  0  0  0  0  0  0
   38.9710   28.5270   28.9520 O   0  0  0  0  0  0  0  0  0  0  0  0
   37.6200   28.6330   29.2360 C   0  0  0  0  0  3  0  0  0  0  0  0
   37.3070   29.6690   28.9920 H   0  0  0  0  0  0  0  0  0  0  0  0
   37.2940   28.3840   30.6860 C   0  0  0  0  0  3  0  0  0  0  0  0
   37.5800   29.2070   31.3380 H   0  0  0  0  0  0  0  0  0  0  0  0
   38.5860   23.4670   37.3480 C   0  0  0  0  0  0  0  0  0  0  0  0
   39.8420   22.8900   37.0940 C   0  0  0  0  0  0  0  0  0  0  0  0
   40.5210   23.3830   35.9570 C   0  0  0  0  0  0  0  0  0  0  0  0
   39.9480   24.3490   35.1990 N   0  0  0  0  0  0  0  0  0  0  0  0
   38.7330   24.8540   35.5120 C   0  0  0  0  0  0  0  0  0  0  0  0
   38.0240   24.4310   36.5830 N   0  0  0  0  0  0  0  0  0  0  0  0
   38.0910   23.0730   38.2190 H   0  0  0  0  0  0  0  0  0  0  0  0
   41.4930   22.9710   35.7180 H   0  0  0  0  0  0  0  0  0  0  0  0
   40.3910   21.8840   37.9200 N   0  0  0  0  0  0  0  0  0  0  0  0
   41.4350   21.8040   37.9070 H   0  0  0  0  0  0  0  0  0  0  0  0
   39.7130   21.3300   38.4550 H   0  0  0  0  0  0  0  0  0  0  0  0
  1  2  1  0  0  0  0
  1 23  1  0  0  0  0
  2  7  1  0  0  0  0
  3  8  1  0  0  0  0
  3  2  2  0  0  0  0
  4  3  1  0  0  0  0
  5  4  2  0  0  0  0
  5  6  1  0  0  0  0
  6  1  2  0  0  0  0
  9  5  1  0  0  0  0
 10  9  1  0  0  0  0
 10 11  1  0  0  0  0
 12 10  1  0  0  0  0
 13 12  1  0  0  0  0
 14 15  1  0  0  0  0
 14 12  1  0  0  0  0
 15 17  1  0  0  0  0
 16 15  1  0  0  0  0
 17  9  1  0  0  0  0
 17 18  1  0  0  0  0
 19 25  1  0  0  0  0
 20 19  1  0  0  0  0
 20 27  1  0  0  0  0
 21 20  2  0  0  0  0
 22 23  2  0  0  0  0
 22 21  1  0  0  0  0
 23 24  1  0  0  0  0
 24 19  2  0  0  0  0
 26 21  1  0  0  0  0
 27 29  1  0  0  0  0
 28 27  1  0  0  0  0
M  END
>  <minimizedAffinity>
-5.04074144

$$$$

 OpenBabel03272506593D

 29 31  0  0  0  0  0  0  0  0999 V2000
   36.8140   27.6950   33.6640 C   0  0  0  0  0  0  0  0  0  0  0  0
   36.8790   27.9720   32.3210 C   0  0  0  0  0  0  0  0  0  0  0  0
   36.4070   29.0980   31.6890 C   0  0  0  0  0  0  0  0  0  0  0  0
   35.8250   30.0060   32.5000 N   0  0  0  0  0  0  0  0  0  0  0  0
   35.7340   29.7740   33.8490 C   0  0  0  0  0  0  0  0  0  0  0  0
   36.2170   28.6450   34.4320 N   0  0  0  0  0  0  0  0  0  0  0  0
   37.3540   27.2200   31.7030 H   0  0  0  0  0  0  0  0  0  0  0  0
   36.4950   29.2460   30.6250 H   0  0  0  0  0  0  0  0  0  0  0  0
   35.0750   30.8320   34.6640 C   0  0  0  0  0  3  0  0  0  0  0  0
   35.8970   31.2250   35.8710 C   0  0  0  0  0  3  0  0  0  0  0  0
   35.9940   30.3110   36.5220 H   0  0  0  0  0  0  0  0  0  0  0  0
   35.1400   32.3020   36.6030 C   0  0  0  0  0  3  0  0  0  0  0  0
   34.8940   33.0970   35.8560 H   0  0  0  0  0  0  0  0  0  0  0  0
   33.9880   31.7230   37.1200 O   0  0  0  0  0  0  0  0  0  0  0  0
   33.1230   31.2920   36.1300 C   0  0  0  0  0  3  0  0  0  0  0  0
   32.2740   30.7790   36.6270 H   0  0  0  0  0  0  0  0  0  0  0  0
   33.7530   30.3140   35.1710 C   0  0  0  0  0  3  0  0  0  0  0  0
   33.8900   29.3230   35.5980 H   0  0  0  0  0  0  0  0  0  0  0  0
   38.1040   25.3210   36.0960 C   0  0  0  0  0  0  0  0  0  0  0  0
   38.3700   24.1540   35.3600 C   0  0  0  0  0  0  0  0  0  0  0  0
   38.0820   24.2260   33.9790 C   0  0  0  0  0  0  0  0  0  0  0  0
   37.5820   25.3710   33.4550 N   0  0  0  0  0  0  0  0  0  0  0  0
   37.3550   26.4540   34.2330 C   0  0  0  0  0  0  0  0  0  0  0  0
   37.6060   26.4600   35.5620 N   0  0  0  0  0  0  0  0  0  0  0  0
   38.3330   25.2400   37.1450 H   0  0  0  0  0  0  0  0  0  0  0  0
   38.2690   23.3520   33.3680 H   0  0  0  0  0  0  0  0  0  0  0  0
   38.8910   22.9860   35.9600 N   0  0  0  0  0  0  0  0  0  0  0  0
   39.4150   22.3420   35.3220 H   0  0  0  0  0  0  0  0  0  0  0  0
   38.7070   22.8830   36.9640 H   0  0  0  0  0  0  0  0  0  0  0  0
  1 23  1  0  0  0  0
  1  6  1  0  0  0  0
  2  1  2  0  0  0  0
  3  2  1  0  0  0  0
  3  4  2  0  0  0  0
  4  5  1  0  0  0  0
  5  6  2  0  0  0  0
  5  9  1  0  0  0  0
  7  2  1  0  0  0  0
  8  3  1  0  0  0  0
  9 17  1  0  0  0  0
  9 10  1  0  0  0  0
 10 11  1  0  0  0  0
 10 12  1  0  0  0  0
 12 14  1  0  0  0  0
 13 12  1  0  0  0  0
 15 16  1  0  0  0  0
 15 14  1  0  0  0  0
 17 18  1  0  0  0  0
 17 15  1  0  0  0  0
 19 25  1  0  0  0  0
 20 27  1  0  0  0  0
 20 19  2  0  0  0  0
 21 20  1  0  0  0  0
 22 21  2  0  0  0  0
 22 23  1  0  0  0  0
 23 24  2  0  0  0  0
 24 19  1  0  0  0  0
 26 21  1  0  0  0  0
 27 29  1  0  0  0  0
 28 27  1  0  0  0  0
M  END
>  <minimizedAffinity>
-5.03891897

$$$$

 OpenBabel03272506593D

 29 31  0  0  0  0  0  0  0  0999 V2000
   37.3970   23.0970   32.7010 C   0  0  0  0  0  0  0  0  0  0  0  0
   37.0830   24.3560   32.2500 C   0  0  0  0  0  0  0  0  0  0  0  0
   37.2630   25.5400   32.9250 C   0  0  0  0  0  0  0  0  0  0  0  0
   37.8050   25.4190   34.1550 N   0  0  0  0  0  0  0  0  0  0  0  0
   38.1350   24.1830   34.6500 C   0  0  0  0  0  0  0  0  0  0  0  0
   37.9400   23.0370   33.9460 N   0  0  0  0  0  0  0  0  0  0  0  0
   36.6500   24.4110   31.2590 H   0  0  0  0  0  0  0  0  0  0  0  0
   36.9910   26.4940   32.5040 H   0  0  0  0  0  0  0  0  0  0  0  0
   38.7270   24.1490   36.0160 C   0  0  0  0  0  3  0  0  0  0  0  0
   39.2550   22.7800   36.3800 C   0  0  0  0  0  3  0  0  0  0  0  0
   38.3810   22.0710   36.3750 H   0  0  0  0  0  0  0  0  0  0  0  0
   39.8380   22.8730   37.7670 C   0  0  0  0  0  3  0  0  0  0  0  0
   40.5580   23.7280   37.7640 H   0  0  0  0  0  0  0  0  0  0  0  0
   38.7850   23.1020   38.6440 O   0  0  0  0  0  0  0  0  0  0  0  0
   38.1780   24.3270   38.4320 C   0  0  0  0  0  3  0  0  0  0  0  0
   37.3090   24.3940   39.1190 H   0  0  0  0  0  0  0  0  0  0  0  0
   37.6650   24.5030   37.0250 C   0  0  0  0  0  3  0  0  0  0  0  0
   36.7640   23.9280   36.8220 H   0  0  0  0  0  0  0  0  0  0  0  0
   35.6400   20.4380   30.9520 C   0  0  0  0  0  0  0  0  0  0  0  0
   36.6520   19.6510   30.3760 C   0  0  0  0  0  0  0  0  0  0  0  0
   37.9740   20.0830   30.6220 C   0  0  0  0  0  0  0  0  0  0  0  0
   38.1920   21.1910   31.3700 N   0  0  0  0  0  0  0  0  0  0  0  0
   37.1610   21.8960   31.8900 C   0  0  0  0  0  0  0  0  0  0  0  0
   35.8700   21.5440   31.6980 N   0  0  0  0  0  0  0  0  0  0  0  0
   34.6430   20.0870   30.7500 H   0  0  0  0  0  0  0  0  0  0  0  0
   38.7900   19.5100   30.1990 H   0  0  0  0  0  0  0  0  0  0  0  0
   36.3670   18.5030   29.6040 N   0  0  0  0  0  0  0  0  0  0  0  0
   37.1270   17.7850   29.5580 H   0  0  0  0  0  0  0  0  0  0  0  0
   35.4410   18.4840   29.1620 H   0  0  0  0  0  0  0  0  0  0  0  0
  1  6  1  0  0  0  0
  2  1  2  0  0  0  0
  2  3  1  0  0  0  0
  3  4  2  0  0  0  0
  4  5  1  0  0  0  0
  5  9  1  0  0  0  0
  6  5  2  0  0  0  0
  7  2  1  0  0  0  0
  8  3  1  0  0  0  0
  9 10  1  0  0  0  0
  9 17  1  0  0  0  0
 10 12  1  0  0  0  0
 11 10  1  0  0  0  0
 12 14  1  0  0  0  0
 13 12  1  0  0  0  0
 15 14  1  0  0  0  0
 15 16  1  0  0  0  0
 17 15  1  0  0  0  0
 18 17  1  0  0  0  0
 19 24  1  0  0  0  0
 20 21  1  0  0  0  0
 20 19  2  0  0  0  0
 21 22  2  0  0  0  0
 22 23  1  0  0  0  0
 23  1  1  0  0  0  0
 24 23  2  0  0  0  0
 25 19  1  0  0  0  0
 26 21  1  0  0  0  0
 27 20  1  0  0  0  0
 28 27  1  0  0  0  0
 29 27  1  0  0  0  0
M  END
>  <minimizedAffinity>
-4.91662359

$$$$

 OpenBabel03272506593D

 29 31  0  0  0  0  0  0  0  0999 V2000
   36.8650   25.6050   32.1800 C   0  0  0  0  0  0  0  0  0  0  0  0
   37.7770   25.3580   33.1770 C   0  0  0  0  0  0  0  0  0  0  0  0
   38.1220   24.1290   33.6890 C   0  0  0  0  0  0  0  0  0  0  0  0
   37.4820   23.0790   33.1350 N   0  0  0  0  0  0  0  0  0  0  0  0
   36.5620   23.2750   32.1360 C   0  0  0  0  0  0  0  0  0  0  0  0
   36.2520   24.5100   31.6590 N   0  0  0  0  0  0  0  0  0  0  0  0
   38.2690   26.2260   33.5970 H   0  0  0  0  0  0  0  0  0  0  0  0
   38.8500   24.0130   34.4760 H   0  0  0  0  0  0  0  0  0  0  0  0
   35.9070   22.0570   31.5850 C   0  0  0  0  0  3  0  0  0  0  0  0
   35.2670   21.2110   32.6620 C   0  0  0  0  0  3  0  0  0  0  0  0
   36.0890   20.8670   33.3520 H   0  0  0  0  0  0  0  0  0  0  0  0
   34.6290   20.0240   31.9870 C   0  0  0  0  0  3  0  0  0  0  0  0
   33.9730   20.4220   31.1750 H   0  0  0  0  0  0  0  0  0  0  0  0
   35.6540   19.2410   31.4700 O   0  0  0  0  0  0  0  0  0  0  0  0
   36.3550   19.8850   30.4660 C   0  0  0  0  0  3  0  0  0  0  0  0
   37.1940   19.2230   30.1660 H   0  0  0  0  0  0  0  0  0  0  0  0
   36.9440   21.2030   30.9010 C   0  0  0  0  0  3  0  0  0  0  0  0
   37.8100   21.0930   31.5500 H   0  0  0  0  0  0  0  0  0  0  0  0
   36.8610   28.5730   30.0810 C   0  0  0  0  0  0  0  0  0  0  0  0
   36.0640   29.5040   30.7690 C   0  0  0  0  0  0  0  0  0  0  0  0
   35.5270   29.0570   31.9970 C   0  0  0  0  0  0  0  0  0  0  0  0
   35.7960   27.8020   32.4310 N   0  0  0  0  0  0  0  0  0  0  0  0
   36.5740   26.9650   31.7090 C   0  0  0  0  0  0  0  0  0  0  0  0
   37.1220   27.3220   30.5250 N   0  0  0  0  0  0  0  0  0  0  0  0
   37.2580   28.9390   29.1500 H   0  0  0  0  0  0  0  0  0  0  0  0
   34.9050   29.7380   32.5650 H   0  0  0  0  0  0  0  0  0  0  0  0
   35.8170   30.8010   30.2680 N   0  0  0  0  0  0  0  0  0  0  0  0
   35.5740   31.5270   30.9820 H   0  0  0  0  0  0  0  0  0  0  0  0
   35.9010   30.9080   29.2510 H   0  0  0  0  0  0  0  0  0  0  0  0
  1  2  1  0  0  0  0
  2  7  1  0  0  0  0
  2  3  2  0  0  0  0
  3  8  1  0  0  0  0
  4  3  1  0  0  0  0
  5  4  2  0  0  0  0
  6  5  1  0  0  0  0
  6  1  2  0  0  0  0
  9  5  1  0  0  0  0
  9 10  1  0  0  0  0
 10 11  1  0  0  0  0
 12 10  1  0  0  0  0
 13 12  1  0  0  0  0
 14 12  1  0  0  0  0
 15 17  1  0  0  0  0
 15 14  1  0  0  0  0
 16 15  1  0  0  0  0
 17 18  1  0  0  0  0
 17  9  1  0  0  0  0
 19 24  2  0  0  0  0
 19 20  1  0  0  0  0
 20 21  2  0  0  0  0
 21 22  1  0  0  0  0
 21 26  1  0  0  0  0
 23  1  1  0  0  0  0
 23 22  2  0  0  0  0
 24 23  1  0  0  0  0
 25 19  1  0  0  0  0
 27 20  1  0  0  0  0
 27 28  1  0  0  0  0
 29 27  1  0  0  0  0
M  END
>  <minimizedAffinity>
-4.88127089

$$$$

 OpenBabel03272506593D

 29 31  0  0  0  0  0  0  0  0999 V2000
   37.5300   25.0360   32.2670 C   0  0  0  0  0  0  0  0  0  0  0  0
   36.6150   25.9520   31.8090 C   0  0  0  0  0  0  0  0  0  0  0  0
   35.4250   25.6800   31.1760 C   0  0  0  0  0  0  0  0  0  0  0  0
   35.1580   24.3690   31.0020 N   0  0  0  0  0  0  0  0  0  0  0  0
   36.0410   23.4160   31.4410 C   0  0  0  0  0  0  0  0  0  0  0  0
   37.2080   23.7310   32.0640 N   0  0  0  0  0  0  0  0  0  0  0  0
   36.8650   26.9940   31.9670 H   0  0  0  0  0  0  0  0  0  0  0  0
   34.7540   26.4560   30.8440 H   0  0  0  0  0  0  0  0  0  0  0  0
   35.6620   21.9960   31.2050 C   0  0  0  0  0  3  0  0  0  0  0  0
   35.0400   21.3550   32.4250 C   0  0  0  0  0  3  0  0  0  0  0  0
   35.8170   21.3640   33.2400 H   0  0  0  0  0  0  0  0  0  0  0  0
   34.6880   19.9360   32.0620 C   0  0  0  0  0  3  0  0  0  0  0  0
   34.0800   19.9780   31.1250 H   0  0  0  0  0  0  0  0  0  0  0  0
   35.8800   19.2510   31.8590 O   0  0  0  0  0  0  0  0  0  0  0  0
   36.5860   19.7320   30.7700 C   0  0  0  0  0  3  0  0  0  0  0  0
   37.5500   19.1840   30.7270 H   0  0  0  0  0  0  0  0  0  0  0  0
   36.8970   21.2030   30.8620 C   0  0  0  0  0  3  0  0  0  0  0  0
   37.6850   21.4310   31.5770 H   0  0  0  0  0  0  0  0  0  0  0  0
   40.2840   27.1220   33.3980 C   0  0  0  0  0  0  0  0  0  0  0  0
   41.1000   26.2660   34.1590 C   0  0  0  0  0  0  0  0  0  0  0  0
   40.6530   24.9300   34.2620 C   0  0  0  0  0  0  0  0  0  0  0  0
   39.5040   24.5560   33.6480 N   0  0  0  0  0  0  0  0  0  0  0  0
   38.7740   25.4420   32.9320 C   0  0  0  0  0  0  0  0  0  0  0  0
   39.1390   26.7360   32.7890 N   0  0  0  0  0  0  0  0  0  0  0  0
   40.6480   28.1330   33.3360 H   0  0  0  0  0  0  0  0  0  0  0  0
   41.2460   24.2310   34.8370 H   0  0  0  0  0  0  0  0  0  0  0  0
   42.2890   26.7110   34.7780 N   0  0  0  0  0  0  0  0  0  0  0  0
   43.0070   25.9730   34.9670 H   0  0  0  0  0  0  0  0  0  0  0  0
   42.3340   27.7160   34.9820 H   0  0  0  0  0  0  0  0  0  0  0  0
  1 23  1  0  0  0  0
  2  7  1  0  0  0  0
  2  1  2  0  0  0  0
  3  2  1  0  0  0  0
  4  3  2  0  0  0  0
  4  5  1  0  0  0  0
  5  6  2  0  0  0  0
  6  1  1  0  0  0  0
  8  3  1  0  0  0  0
  9  5  1  0  0  0  0
  9 10  1  0  0  0  0
 10 11  1  0  0  0  0
 12 10  1  0  0  0  0
 13 12  1  0  0  0  0
 14 12  1  0  0  0  0
 15 17  1  0  0  0  0
 15 14  1  0  0  0  0
 16 15  1  0  0  0  0
 17  9  1  0  0  0  0
 17 18  1  0  0  0  0
 19 20  1  0  0  0  0
 20 21  2  0  0  0  0
 20 27  1  0  0  0  0
 21 26  1  0  0  0  0
 22 21  1  0  0  0  0
 23 22  2  0  0  0  0
 24 23  1  0  0  0  0
 24 19  2  0  0  0  0
 25 19  1  0  0  0  0
 27 28  1  0  0  0  0
 27 29  1  0  0  0  0
M  END
>  <minimizedAffinity>
-4.85378408

$$$$
