
 OpenBabel03272509513D

 34 36  0  0  0  0  0  0  0  0999 V2000
   37.1490   30.2150   51.3380 C   0  0  0  0  0  0  0  0  0  0  0  0
   37.8790   30.6020   50.1910 C   0  0  0  0  0  0  0  0  0  0  0  0
   37.4150   30.1590   48.9650 C   0  0  0  0  0  0  0  0  0  0  0  0
   36.2840   29.3760   48.9280 N   0  0  0  0  0  0  0  0  0  0  0  0
   35.6240   29.0350   50.0390 C   0  0  0  0  0  0  0  0  0  0  0  0
   36.0590   29.4550   51.2370 N   0  0  0  0  0  0  0  0  0  0  0  0
   37.4520   30.5240   52.3300 H   0  0  0  0  0  0  0  0  0  0  0  0
   38.7620   31.2200   50.2970 H   0  0  0  0  0  0  0  0  0  0  0  0
   38.1640   30.5520   47.7460 C   0  0  0  0  0  3  0  0  0  0  0  0
   38.7950   31.8910   47.8880 C   0  0  0  0  0  3  0  0  0  0  0  0
   38.1390   32.6650   48.3170 H   0  0  0  0  0  0  0  0  0  0  0  0
   39.1890   32.4160   46.5220 C   0  0  0  0  0  3  0  0  0  0  0  0
   39.8960   31.7600   45.9810 H   0  0  0  0  0  0  0  0  0  0  0  0
   37.9830   32.5900   45.8160 O   0  0  0  0  0  0  0  0  0  0  0  0
   37.5890   31.3150   45.4240 C   0  0  0  0  0  3  0  0  0  0  0  0
   36.6950   31.4210   44.7750 H   0  0  0  0  0  0  0  0  0  0  0  0
   37.2050   30.4480   46.5910 C   0  0  0  0  0  3  0  0  0  0  0  0
   36.1870   30.7050   46.9490 H   0  0  0  0  0  0  0  0  0  0  0  0
   34.5310   28.2540   49.7580 O   0  0  0  0  0  0  0  0  0  0  0  0
   33.7240   28.5830   48.6370 C   0  0  0  0  0  0  0  0  0  0  0  0
   34.3910   28.8640   47.7970 H   0  0  0  0  0  0  0  0  0  0  0  0
   33.1430   29.4980   48.8710 H   0  0  0  0  0  0  0  0  0  0  0  0
   32.7960   27.4580   48.3100 C   0  0  0  0  0  0  0  0  0  0  0  0
   33.0650   27.1010   47.2780 H   0  0  0  0  0  0  0  0  0  0  0  0
   32.9470   26.6220   49.0230 H   0  0  0  0  0  0  0  0  0  0  0  0
   31.3590   27.8650   48.3210 C   0  0  0  0  0  0  0  0  0  0  0  0
   30.6940   27.7240   49.5180 C   0  0  0  0  0  0  0  0  0  0  0  0
   29.3680   28.0630   49.6530 C   0  0  0  0  0  0  0  0  0  0  0  0
   28.7070   28.5440   48.5920 N   0  0  0  0  0  0  0  0  0  0  0  0
   29.3710   28.6750   47.4290 C   0  0  0  0  0  0  0  0  0  0  0  0
   30.6640   28.3510   47.2700 N   0  0  0  0  0  0  0  0  0  0  0  0
   31.1740   27.3390   50.4210 H   0  0  0  0  0  0  0  0  0  0  0  0
   28.8070   27.9690   50.5810 H   0  0  0  0  0  0  0  0  0  0  0  0
   28.8830   29.0630   46.5240 H   0  0  0  0  0  0  0  0  0  0  0  0
  1  7  1  0  0  0  0
  2  8  1  0  0  0  0
  2  1  2  0  0  0  0
  3  2  1  0  0  0  0
  4  3  2  0  0  0  0
  4  5  1  0  0  0  0
  5  6  2  0  0  0  0
  6  1  1  0  0  0  0
  9 10  1  0  0  0  0
  9  3  1  0  0  0  0
 10 11  1  0  0  0  0
 12 10  1  0  0  0  0
 13 12  1  0  0  0  0
 14 12  1  0  0  0  0
 15 14  1  0  0  0  0
 15 17  1  0  0  0  0
 16 15  1  0  0  0  0
 17 18  1  0  0  0  0
 17  9  1  0  0  0  0
 19  5  1  0  0  0  0
 20 22  1  0  0  0  0
 20 19  1  0  0  0  0
 21 20  1  0  0  0  0
 23 26  1  0  0  0  0
 23 20  1  0  0  0  0
 23 25  1  0  0  0  0
 24 23  1  0  0  0  0
 26 27  1  0  0  0  0
 27 28  2  0  0  0  0
 27 32  1  0  0  0  0
 28 33  1  0  0  0  0
 29 28  1  0  0  0  0
 30 29  2  0  0  0  0
 31 30  1  0  0  0  0
 31 26  2  0  0  0  0
 34 30  1  0  0  0  0
M  END
>  <minimizedAffinity>
-5.78335524

>  <minimizedRMSD>
0.443470627

$$$$
