
 OpenBabel03262523043D

 27 29  0  0  0  0  0  0  0  0999 V2000
   36.0220   23.7800   31.6860 C   0  0  0  0  0  0  0  0  0  0  0  0
   35.2000   24.5840   30.9800 C   0  0  0  0  0  0  0  0  0  0  0  0
   35.3020   25.9350   31.0480 C   0  0  0  0  0  0  0  0  0  0  0  0
   36.2540   26.4850   31.8470 N   0  0  0  0  0  0  0  0  0  0  0  0
   37.0680   25.6730   32.5470 C   0  0  0  0  0  0  0  0  0  0  0  0
   36.9600   24.3330   32.4730 N   0  0  0  0  0  0  0  0  0  0  0  0
   34.4440   24.1620   30.3470 H   0  0  0  0  0  0  0  0  0  0  0  0
   34.6660   26.6180   30.5010 H   0  0  0  0  0  0  0  0  0  0  0  0
   38.1100   26.2870   33.4200 C   0  0  0  0  0  3  0  0  0  0  0  0
   38.8470   25.2380   34.2140 C   0  0  0  0  0  3  0  0  0  0  0  0
   39.3290   24.5410   33.4730 H   0  0  0  0  0  0  0  0  0  0  0  0
   39.9820   25.9270   34.9420 C   0  0  0  0  0  3  0  0  0  0  0  0
   40.7260   26.1860   34.1320 H   0  0  0  0  0  0  0  0  0  0  0  0
   39.6080   27.1320   35.5040 O   0  0  0  0  0  0  0  0  0  0  0  0
   38.2230   27.2480   35.6850 C   0  0  0  0  0  3  0  0  0  0  0  0
   37.8280   26.4940   36.3900 H   0  0  0  0  0  0  0  0  0  0  0  0
   37.4810   27.2690   34.3800 C   0  0  0  0  0  3  0  0  0  0  0  0
   36.4380   26.9670   34.5410 H   0  0  0  0  0  0  0  0  0  0  0  0
   34.9380   20.3180   32.2430 C   0  0  0  0  0  0  0  0  0  0  0  0
   35.8560   19.5760   31.5020 C   0  0  0  0  0  0  0  0  0  0  0  0
   36.8530   20.2870   30.8070 C   0  0  0  0  0  0  0  0  0  0  0  0
   36.8510   21.6420   30.9080 N   0  0  0  0  0  0  0  0  0  0  0  0
   35.9430   22.3290   31.6390 C   0  0  0  0  0  0  0  0  0  0  0  0
   34.9820   21.6580   32.3100 N   0  0  0  0  0  0  0  0  0  0  0  0
   34.2080   19.6910   32.7440 H   0  0  0  0  0  0  0  0  0  0  0  0
   35.8830   18.5120   31.4020 H   0  0  0  0  0  0  0  0  0  0  0  0
   37.6340   19.8560   30.1900 H   0  0  0  0  0  0  0  0  0  0  0  0
  1  6  1  0  0  0  0
  2  3  1  0  0  0  0
  2  1  2  0  0  0  0
  3  4  2  0  0  0  0
  4  5  1  0  0  0  0
  5  9  1  0  0  0  0
  6  5  2  0  0  0  0
  7  2  1  0  0  0  0
  8  3  1  0  0  0  0
  9 10  1  0  0  0  0
  9 17  1  0  0  0  0
 10 12  1  0  0  0  0
 11 10  1  0  0  0  0
 12 14  1  0  0  0  0
 13 12  1  0  0  0  0
 14 15  1  0  0  0  0
 15 16  1  0  0  0  0
 17 18  1  0  0  0  0
 17 15  1  0  0  0  0
 19 24  1  0  0  0  0
 19 25  1  0  0  0  0
 20 19  2  0  0  0  0
 21 22  2  0  0  0  0
 21 20  1  0  0  0  0
 22 23  1  0  0  0  0
 23  1  1  0  0  0  0
 23 24  2  0  0  0  0
 26 20  1  0  0  0  0
 27 21  1  0  0  0  0
M  END
>  <minimizedAffinity>
-4.97736931

$$$$

 OpenBabel03262523043D

 27 29  0  0  0  0  0  0  0  0999 V2000
   38.3650   24.6810   36.0970 C   0  0  0  0  0  0  0  0  0  0  0  0
   37.8270   24.5290   37.3260 C   0  0  0  0  0  0  0  0  0  0  0  0
   38.3620   23.6710   38.2310 C   0  0  0  0  0  0  0  0  0  0  0  0
   39.4630   22.9510   37.8870 N   0  0  0  0  0  0  0  0  0  0  0  0
   39.9890   23.1110   36.6590 C   0  0  0  0  0  0  0  0  0  0  0  0
   39.4530   23.9650   35.7670 N   0  0  0  0  0  0  0  0  0  0  0  0
   36.9590   25.0910   37.6080 H   0  0  0  0  0  0  0  0  0  0  0  0
   37.9660   23.5170   39.2250 H   0  0  0  0  0  0  0  0  0  0  0  0
   41.1970   22.3170   36.2920 C   0  0  0  0  0  3  0  0  0  0  0  0
   41.6270   21.4180   37.4250 C   0  0  0  0  0  3  0  0  0  0  0  0
   40.7660   20.7270   37.6440 H   0  0  0  0  0  0  0  0  0  0  0  0
   42.7500   20.5390   36.9140 C   0  0  0  0  0  3  0  0  0  0  0  0
   42.2470   19.8160   36.2060 H   0  0  0  0  0  0  0  0  0  0  0  0
   43.6680   21.2310   36.1490 O   0  0  0  0  0  0  0  0  0  0  0  0
   43.6410   22.6140   36.3740 C   0  0  0  0  0  3  0  0  0  0  0  0
   43.9140   22.8750   37.4130 H   0  0  0  0  0  0  0  0  0  0  0  0
   42.3450   23.2340   35.9400 C   0  0  0  0  0  3  0  0  0  0  0  0
   42.1930   24.1850   36.4650 H   0  0  0  0  0  0  0  0  0  0  0  0
   36.9490   27.6580   34.4850 C   0  0  0  0  0  0  0  0  0  0  0  0
   36.7940   27.2570   33.1590 C   0  0  0  0  0  0  0  0  0  0  0  0
   37.1870   25.9460   32.8300 C   0  0  0  0  0  0  0  0  0  0  0  0
   37.6860   25.1660   33.8250 N   0  0  0  0  0  0  0  0  0  0  0  0
   37.8210   25.5900   35.1020 C   0  0  0  0  0  0  0  0  0  0  0  0
   37.4480   26.8450   35.4300 N   0  0  0  0  0  0  0  0  0  0  0  0
   36.6230   28.6800   34.6480 H   0  0  0  0  0  0  0  0  0  0  0  0
   36.4060   27.8460   32.3560 H   0  0  0  0  0  0  0  0  0  0  0  0
   37.1300   25.4890   31.8480 H   0  0  0  0  0  0  0  0  0  0  0  0
  1  2  1  0  0  0  0
  2  7  1  0  0  0  0
  2  3  2  0  0  0  0
  3  8  1  0  0  0  0
  4  3  1  0  0  0  0
  5  4  2  0  0  0  0
  6  1  2  0  0  0  0
  6  5  1  0  0  0  0
  9  5  1  0  0  0  0
  9 10  1  0  0  0  0
 10 11  1  0  0  0  0
 12 10  1  0  0  0  0
 13 12  1  0  0  0  0
 14 15  1  0  0  0  0
 14 12  1  0  0  0  0
 15 16  1  0  0  0  0
 17  9  1  0  0  0  0
 17 15  1  0  0  0  0
 17 18  1  0  0  0  0
 19 25  1  0  0  0  0
 19 24  1  0  0  0  0
 20 19  2  0  0  0  0
 21 20  1  0  0  0  0
 21 22  2  0  0  0  0
 22 23  1  0  0  0  0
 23 24  2  0  0  0  0
 23  1  1  0  0  0  0
 26 20  1  0  0  0  0
 27 21  1  0  0  0  0
M  END
>  <minimizedAffinity>
-4.94779587

$$$$

 OpenBabel03262523043D

 27 29  0  0  0  0  0  0  0  0999 V2000
   37.1800   26.2110   33.4790 C   0  0  0  0  0  0  0  0  0  0  0  0
   37.1260   25.2840   32.4990 C   0  0  0  0  0  0  0  0  0  0  0  0
   37.6220   24.0340   32.6800 C   0  0  0  0  0  0  0  0  0  0  0  0
   38.1860   23.7150   33.8750 N   0  0  0  0  0  0  0  0  0  0  0  0
   38.2350   24.6480   34.8430 C   0  0  0  0  0  0  0  0  0  0  0  0
   37.7390   25.8860   34.6560 N   0  0  0  0  0  0  0  0  0  0  0  0
   36.6830   25.5240   31.5520 H   0  0  0  0  0  0  0  0  0  0  0  0
   37.6000   23.2600   31.9250 H   0  0  0  0  0  0  0  0  0  0  0  0
   38.8550   24.2870   36.1510 C   0  0  0  0  0  3  0  0  0  0  0  0
   39.3160   22.8510   36.1600 C   0  0  0  0  0  3  0  0  0  0  0  0
   40.0720   22.7400   35.3340 H   0  0  0  0  0  0  0  0  0  0  0  0
   40.0720   22.6190   37.4530 C   0  0  0  0  0  3  0  0  0  0  0  0
   41.0410   23.1850   37.3220 H   0  0  0  0  0  0  0  0  0  0  0  0
   39.4520   23.1900   38.5470 O   0  0  0  0  0  0  0  0  0  0  0  0
   38.0900   23.4470   38.3360 C   0  0  0  0  0  3  0  0  0  0  0  0
   37.5120   22.5230   38.1580 H   0  0  0  0  0  0  0  0  0  0  0  0
   37.8680   24.4860   37.2760 C   0  0  0  0  0  3  0  0  0  0  0  0
   36.8570   24.3850   36.8630 H   0  0  0  0  0  0  0  0  0  0  0  0
   36.1080   29.3950   32.0010 C   0  0  0  0  0  0  0  0  0  0  0  0
   35.6570   30.1200   33.1030 C   0  0  0  0  0  0  0  0  0  0  0  0
   35.7280   29.4940   34.3620 C   0  0  0  0  0  0  0  0  0  0  0  0
   36.2300   28.2320   34.4140 N   0  0  0  0  0  0  0  0  0  0  0  0
   36.6580   27.5590   33.3220 C   0  0  0  0  0  0  0  0  0  0  0  0
   36.5960   28.1490   32.1090 N   0  0  0  0  0  0  0  0  0  0  0  0
   36.0160   29.9520   31.0740 H   0  0  0  0  0  0  0  0  0  0  0  0
   35.2580   31.1110   33.0940 H   0  0  0  0  0  0  0  0  0  0  0  0
   35.4190   29.9240   35.3080 H   0  0  0  0  0  0  0  0  0  0  0  0
  1  6  1  0  0  0  0
  2  3  1  0  0  0  0
  2  1  2  0  0  0  0
  3  4  2  0  0  0  0
  4  5  1  0  0  0  0
  5  9  1  0  0  0  0
  6  5  2  0  0  0  0
  7  2  1  0  0  0  0
  8  3  1  0  0  0  0
  9 10  1  0  0  0  0
  9 17  1  0  0  0  0
 10 12  1  0  0  0  0
 11 10  1  0  0  0  0
 12 14  1  0  0  0  0
 13 12  1  0  0  0  0
 15 14  1  0  0  0  0
 16 15  1  0  0  0  0
 17 15  1  0  0  0  0
 18 17  1  0  0  0  0
 19 24  2  0  0  0  0
 19 20  1  0  0  0  0
 20 21  2  0  0  0  0
 21 22  1  0  0  0  0
 21 27  1  0  0  0  0
 23  1  1  0  0  0  0
 23 22  2  0  0  0  0
 24 23  1  0  0  0  0
 25 19  1  0  0  0  0
 26 20  1  0  0  0  0
M  END
>  <minimizedAffinity>
-4.89367628

$$$$

 OpenBabel03262523043D

 27 29  0  0  0  0  0  0  0  0999 V2000
   36.8150   25.4490   32.5440 C   0  0  0  0  0  0  0  0  0  0  0  0
   36.0320   26.2480   31.7880 C   0  0  0  0  0  0  0  0  0  0  0  0
   35.1850   25.7370   30.8600 C   0  0  0  0  0  0  0  0  0  0  0  0
   35.1280   24.3890   30.6920 N   0  0  0  0  0  0  0  0  0  0  0  0
   35.9130   23.6020   31.4500 C   0  0  0  0  0  0  0  0  0  0  0  0
   36.7510   24.1180   32.3690 N   0  0  0  0  0  0  0  0  0  0  0  0
   36.0680   27.3130   31.9120 H   0  0  0  0  0  0  0  0  0  0  0  0
   34.5400   26.3370   30.2330 H   0  0  0  0  0  0  0  0  0  0  0  0
   35.8430   22.1250   31.2570 C   0  0  0  0  0  3  0  0  0  0  0  0
   35.0740   21.4630   32.3730 C   0  0  0  0  0  3  0  0  0  0  0  0
   34.0370   21.9000   32.3650 H   0  0  0  0  0  0  0  0  0  0  0  0
   34.9130   19.9990   32.0150 C   0  0  0  0  0  3  0  0  0  0  0  0
   34.1670   19.9930   31.1670 H   0  0  0  0  0  0  0  0  0  0  0  0
   36.0670   19.4430   31.4990 O   0  0  0  0  0  0  0  0  0  0  0  0
   37.2220   20.1660   31.8290 C   0  0  0  0  0  3  0  0  0  0  0  0
   37.4040   20.1900   32.9190 H   0  0  0  0  0  0  0  0  0  0  0  0
   37.2310   21.5320   31.2080 C   0  0  0  0  0  3  0  0  0  0  0  0
   37.9030   22.1920   31.7710 H   0  0  0  0  0  0  0  0  0  0  0  0
   39.8530   26.0860   34.5010 C   0  0  0  0  0  0  0  0  0  0  0  0
   39.4180   26.9730   35.4830 C   0  0  0  0  0  0  0  0  0  0  0  0
   38.0610   27.3480   35.4600 C   0  0  0  0  0  0  0  0  0  0  0  0
   37.2740   26.8200   34.4850 N   0  0  0  0  0  0  0  0  0  0  0  0
   37.7330   25.9600   33.5470 C   0  0  0  0  0  0  0  0  0  0  0  0
   39.0330   25.5930   33.5600 N   0  0  0  0  0  0  0  0  0  0  0  0
   40.9090   25.8520   34.5940 H   0  0  0  0  0  0  0  0  0  0  0  0
   40.0100   27.4050   36.2610 H   0  0  0  0  0  0  0  0  0  0  0  0
   37.5730   28.0260   36.1520 H   0  0  0  0  0  0  0  0  0  0  0  0
  1 23  1  0  0  0  0
  2  7  1  0  0  0  0
  2  1  2  0  0  0  0
  3  2  1  0  0  0  0
  4  3  2  0  0  0  0
  4  5  1  0  0  0  0
  5  6  2  0  0  0  0
  6  1  1  0  0  0  0
  8  3  1  0  0  0  0
  9  5  1  0  0  0  0
  9 10  1  0  0  0  0
 11 10  1  0  0  0  0
 12 10  1  0  0  0  0
 13 12  1  0  0  0  0
 14 15  1  0  0  0  0
 14 12  1  0  0  0  0
 15 16  1  0  0  0  0
 17  9  1  0  0  0  0
 17 18  1  0  0  0  0
 17 15  1  0  0  0  0
 19 25  1  0  0  0  0
 19 20  1  0  0  0  0
 20 26  1  0  0  0  0
 21 20  2  0  0  0  0
 21 27  1  0  0  0  0
 22 21  1  0  0  0  0
 23 24  1  0  0  0  0
 23 22  2  0  0  0  0
 24 19  2  0  0  0  0
M  END
>  <minimizedAffinity>
-4.87377357

$$$$

 OpenBabel03262523043D

 27 29  0  0  0  0  0  0  0  0999 V2000
   37.2970   25.3010   32.9040 C   0  0  0  0  0  0  0  0  0  0  0  0
   37.1360   24.1640   32.1940 C   0  0  0  0  0  0  0  0  0  0  0  0
   37.4940   22.9570   32.7010 C   0  0  0  0  0  0  0  0  0  0  0  0
   38.0270   22.8990   33.9500 N   0  0  0  0  0  0  0  0  0  0  0  0
   38.1840   24.0390   34.6470 C   0  0  0  0  0  0  0  0  0  0  0  0
   37.8250   25.2330   34.1370 N   0  0  0  0  0  0  0  0  0  0  0  0
   36.7160   24.1970   31.2080 H   0  0  0  0  0  0  0  0  0  0  0  0
   37.3830   22.0210   32.1710 H   0  0  0  0  0  0  0  0  0  0  0  0
   38.7690   23.9630   36.0170 C   0  0  0  0  0  3  0  0  0  0  0  0
   39.3480   22.5980   36.2900 C   0  0  0  0  0  3  0  0  0  0  0  0
   40.1490   22.4170   35.5200 H   0  0  0  0  0  0  0  0  0  0  0  0
   40.0580   22.6590   37.6270 C   0  0  0  0  0  3  0  0  0  0  0  0
   40.9810   23.2800   37.4320 H   0  0  0  0  0  0  0  0  0  0  0  0
   39.3410   23.3480   38.5850 O   0  0  0  0  0  0  0  0  0  0  0  0
   37.9740   23.4410   38.2890 C   0  0  0  0  0  3  0  0  0  0  0  0
   37.4850   22.4510   38.2550 H   0  0  0  0  0  0  0  0  0  0  0  0
   37.7160   24.2600   37.0580 C   0  0  0  0  0  3  0  0  0  0  0  0
   36.7380   24.0000   36.6360 H   0  0  0  0  0  0  0  0  0  0  0  0
   36.2360   28.8100   32.7230 C   0  0  0  0  0  0  0  0  0  0  0  0
   36.2310   29.0690   31.3540 C   0  0  0  0  0  0  0  0  0  0  0  0
   36.6000   28.0170   30.4950 C   0  0  0  0  0  0  0  0  0  0  0  0
   36.9320   26.8250   31.0590 N   0  0  0  0  0  0  0  0  0  0  0  0
   36.9250   26.6100   32.3940 C   0  0  0  0  0  0  0  0  0  0  0  0
   36.5730   27.6130   33.2280 N   0  0  0  0  0  0  0  0  0  0  0  0
   35.9400   29.6740   33.3090 H   0  0  0  0  0  0  0  0  0  0  0  0
   35.9750   29.9930   30.8810 H   0  0  0  0  0  0  0  0  0  0  0  0
   36.6450   28.0610   29.4120 H   0  0  0  0  0  0  0  0  0  0  0  0
  1  6  1  0  0  0  0
  2  3  1  0  0  0  0
  2  1  2  0  0  0  0
  3  4  2  0  0  0  0
  4  5  1  0  0  0  0
  5  9  1  0  0  0  0
  6  5  2  0  0  0  0
  7  2  1  0  0  0  0
  8  3  1  0  0  0  0
  9 10  1  0  0  0  0
  9 17  1  0  0  0  0
 10 12  1  0  0  0  0
 11 10  1  0  0  0  0
 12 14  1  0  0  0  0
 13 12  1  0  0  0  0
 15 14  1  0  0  0  0
 16 15  1  0  0  0  0
 17 15  1  0  0  0  0
 18 17  1  0  0  0  0
 19 24  1  0  0  0  0
 19 25  1  0  0  0  0
 20 19  2  0  0  0  0
 21 22  2  0  0  0  0
 21 20  1  0  0  0  0
 22 23  1  0  0  0  0
 23  1  1  0  0  0  0
 23 24  2  0  0  0  0
 26 20  1  0  0  0  0
 27 21  1  0  0  0  0
M  END
>  <minimizedAffinity>
-4.86651468

$$$$

 OpenBabel03262523043D

 27 29  0  0  0  0  0  0  0  0999 V2000
   36.1420   28.5530   33.8340 C   0  0  0  0  0  0  0  0  0  0  0  0
   35.8040   28.6440   32.5300 C   0  0  0  0  0  0  0  0  0  0  0  0
   34.9740   29.6190   32.0800 C   0  0  0  0  0  0  0  0  0  0  0  0
   34.4740   30.5200   32.9670 N   0  0  0  0  0  0  0  0  0  0  0  0
   34.8180   30.4180   34.2640 C   0  0  0  0  0  0  0  0  0  0  0  0
   35.6430   29.4480   34.7020 N   0  0  0  0  0  0  0  0  0  0  0  0
   36.1920   27.9390   31.8210 H   0  0  0  0  0  0  0  0  0  0  0  0
   34.6760   29.7310   31.0470 H   0  0  0  0  0  0  0  0  0  0  0  0
   34.2640   31.4120   35.2290 C   0  0  0  0  0  3  0  0  0  0  0  0
   35.2710   31.7590   36.2970 C   0  0  0  0  0  3  0  0  0  0  0  0
   36.1700   32.1910   35.7760 H   0  0  0  0  0  0  0  0  0  0  0  0
   34.6890   32.8840   37.1290 C   0  0  0  0  0  3  0  0  0  0  0  0
   34.7280   33.7880   36.4530 H   0  0  0  0  0  0  0  0  0  0  0  0
   33.3530   32.6980   37.4240 O   0  0  0  0  0  0  0  0  0  0  0  0
   32.9440   31.3620   37.3080 C   0  0  0  0  0  3  0  0  0  0  0  0
   33.4670   30.7000   38.0220 H   0  0  0  0  0  0  0  0  0  0  0  0
   33.0220   30.8670   35.8930 C   0  0  0  0  0  3  0  0  0  0  0  0
   33.0850   29.7720   35.8850 H   0  0  0  0  0  0  0  0  0  0  0  0
   37.9540   25.3900   34.2570 C   0  0  0  0  0  0  0  0  0  0  0  0
   38.7300   25.6190   35.3910 C   0  0  0  0  0  0  0  0  0  0  0  0
   38.6200   26.8800   36.0070 C   0  0  0  0  0  0  0  0  0  0  0  0
   37.7660   27.7820   35.4540 N   0  0  0  0  0  0  0  0  0  0  0  0
   37.0280   27.5240   34.3510 C   0  0  0  0  0  0  0  0  0  0  0  0
   37.1250   26.3170   33.7520 N   0  0  0  0  0  0  0  0  0  0  0  0
   38.1020   24.3950   33.8490 H   0  0  0  0  0  0  0  0  0  0  0  0
   39.4090   24.9320   35.8490 H   0  0  0  0  0  0  0  0  0  0  0  0
   39.1550   27.2090   36.8910 H   0  0  0  0  0  0  0  0  0  0  0  0
  1 23  1  0  0  0  0
  1  6  1  0  0  0  0
  2  1  2  0  0  0  0
  3  2  1  0  0  0  0
  3  4  2  0  0  0  0
  4  5  1  0  0  0  0
  5  6  2  0  0  0  0
  5  9  1  0  0  0  0
  7  2  1  0  0  0  0
  8  3  1  0  0  0  0
  9 17  1  0  0  0  0
  9 10  1  0  0  0  0
 10 12  1  0  0  0  0
 11 10  1  0  0  0  0
 12 14  1  0  0  0  0
 13 12  1  0  0  0  0
 15 14  1  0  0  0  0
 15 16  1  0  0  0  0
 17 15  1  0  0  0  0
 18 17  1  0  0  0  0
 19 20  1  0  0  0  0
 20 26  1  0  0  0  0
 20 21  2  0  0  0  0
 21 27  1  0  0  0  0
 22 21  1  0  0  0  0
 23 22  2  0  0  0  0
 24 19  2  0  0  0  0
 24 23  1  0  0  0  0
 25 19  1  0  0  0  0
M  END
>  <minimizedAffinity>
-4.8472085

$$$$

 OpenBabel03262523043D

 27 29  0  0  0  0  0  0  0  0999 V2000
   35.5410   29.6140   34.0790 C   0  0  0  0  0  0  0  0  0  0  0  0
   35.3470   29.7920   32.7550 C   0  0  0  0  0  0  0  0  0  0  0  0
   35.9440   28.9910   31.8380 C   0  0  0  0  0  0  0  0  0  0  0  0
   36.7570   27.9890   32.2680 N   0  0  0  0  0  0  0  0  0  0  0  0
   36.9430   27.8220   33.5900 C   0  0  0  0  0  0  0  0  0  0  0  0
   36.3460   28.6220   34.4930 N   0  0  0  0  0  0  0  0  0  0  0  0
   34.7080   30.5790   32.4040 H   0  0  0  0  0  0  0  0  0  0  0  0
   35.8180   29.0950   30.7690 H   0  0  0  0  0  0  0  0  0  0  0  0
   37.8360   26.7190   34.0500 C   0  0  0  0  0  3  0  0  0  0  0  0
   37.7020   26.4890   35.5350 C   0  0  0  0  0  3  0  0  0  0  0  0
   36.6270   26.2190   35.7310 H   0  0  0  0  0  0  0  0  0  0  0  0
   38.5130   25.2580   35.8840 C   0  0  0  0  0  3  0  0  0  0  0  0
   37.9260   24.3970   35.4500 H   0  0  0  0  0  0  0  0  0  0  0  0
   39.7420   25.2280   35.2540 O   0  0  0  0  0  0  0  0  0  0  0  0
   40.1670   26.4900   34.8150 C   0  0  0  0  0  3  0  0  0  0  0  0
   40.3170   27.1960   35.6520 H   0  0  0  0  0  0  0  0  0  0  0  0
   39.2780   27.0440   33.7390 C   0  0  0  0  0  3  0  0  0  0  0  0
   39.3800   28.1360   33.6990 H   0  0  0  0  0  0  0  0  0  0  0  0
   35.0370   32.0730   36.7560 C   0  0  0  0  0  0  0  0  0  0  0  0
   33.6650   32.0100   36.9910 C   0  0  0  0  0  0  0  0  0  0  0  0
   32.9170   31.1070   36.2120 C   0  0  0  0  0  0  0  0  0  0  0  0
   33.5830   30.3630   35.2900 N   0  0  0  0  0  0  0  0  0  0  0  0
   34.9180   30.4520   35.0900 C   0  0  0  0  0  0  0  0  0  0  0  0
   35.6460   31.3140   35.8310 N   0  0  0  0  0  0  0  0  0  0  0  0
   35.5340   32.7930   37.3990 H   0  0  0  0  0  0  0  0  0  0  0  0
   33.1130   32.5800   37.7070 H   0  0  0  0  0  0  0  0  0  0  0  0
   31.8470   30.9420   36.2740 H   0  0  0  0  0  0  0  0  0  0  0  0
  1  6  1  0  0  0  0
  1 23  1  0  0  0  0
  2  1  2  0  0  0  0
  3  4  2  0  0  0  0
  3  2  1  0  0  0  0
  4  5  1  0  0  0  0
  5  9  1  0  0  0  0
  5  6  2  0  0  0  0
  7  2  1  0  0  0  0
  8  3  1  0  0  0  0
  9 10  1  0  0  0  0
 10 11  1  0  0  0  0
 10 12  1  0  0  0  0
 13 12  1  0  0  0  0
 14 12  1  0  0  0  0
 15 14  1  0  0  0  0
 15 16  1  0  0  0  0
 17  9  1  0  0  0  0
 17 15  1  0  0  0  0
 18 17  1  0  0  0  0
 19 20  1  0  0  0  0
 19 25  1  0  0  0  0
 20 26  1  0  0  0  0
 21 27  1  0  0  0  0
 21 20  2  0  0  0  0
 22 21  1  0  0  0  0
 23 22  2  0  0  0  0
 23 24  1  0  0  0  0
 24 19  2  0  0  0  0
M  END
>  <minimizedAffinity>
-4.73671722

$$$$

 OpenBabel03262523043D

 27 29  0  0  0  0  0  0  0  0999 V2000
   37.3680   23.1520   32.7960 C   0  0  0  0  0  0  0  0  0  0  0  0
   37.4070   24.3490   32.1730 C   0  0  0  0  0  0  0  0  0  0  0  0
   37.9080   25.4500   32.7870 C   0  0  0  0  0  0  0  0  0  0  0  0
   38.3790   25.3390   34.0580 N   0  0  0  0  0  0  0  0  0  0  0  0
   38.3340   24.1410   34.6690 C   0  0  0  0  0  0  0  0  0  0  0  0
   37.8350   23.0530   34.0510 N   0  0  0  0  0  0  0  0  0  0  0  0
   37.0390   24.4490   31.1710 H   0  0  0  0  0  0  0  0  0  0  0  0
   37.9600   26.4280   32.3290 H   0  0  0  0  0  0  0  0  0  0  0  0
   38.8530   24.0310   36.0630 C   0  0  0  0  0  3  0  0  0  0  0  0
   39.3380   22.6340   36.3580 C   0  0  0  0  0  3  0  0  0  0  0  0
   40.1610   22.4070   35.6230 H   0  0  0  0  0  0  0  0  0  0  0  0
   39.9910   22.6530   37.7250 C   0  0  0  0  0  3  0  0  0  0  0  0
   40.9560   23.2190   37.5720 H   0  0  0  0  0  0  0  0  0  0  0  0
   39.2740   23.3820   38.6520 O   0  0  0  0  0  0  0  0  0  0  0  0
   37.9290   23.5540   38.2960 C   0  0  0  0  0  3  0  0  0  0  0  0
   37.3840   22.5950   38.2370 H   0  0  0  0  0  0  0  0  0  0  0  0
   37.7740   24.3880   37.0570 C   0  0  0  0  0  3  0  0  0  0  0  0
   36.8010   24.1850   36.5920 H   0  0  0  0  0  0  0  0  0  0  0  0
   35.2100   20.3000   31.9700 C   0  0  0  0  0  0  0  0  0  0  0  0
   35.8990   19.6710   30.9350 C   0  0  0  0  0  0  0  0  0  0  0  0
   37.1170   20.2460   30.5250 C   0  0  0  0  0  0  0  0  0  0  0  0
   37.5350   21.3690   31.1670 N   0  0  0  0  0  0  0  0  0  0  0  0
   36.8390   21.9510   32.1700 C   0  0  0  0  0  0  0  0  0  0  0  0
   35.6690   21.4090   32.5710 N   0  0  0  0  0  0  0  0  0  0  0  0
   34.2850   19.7920   32.2200 H   0  0  0  0  0  0  0  0  0  0  0  0
   35.5970   18.7900   30.4110 H   0  0  0  0  0  0  0  0  0  0  0  0
   37.7660   19.8770   29.7380 H   0  0  0  0  0  0  0  0  0  0  0  0
  1  6  1  0  0  0  0
  2  3  1  0  0  0  0
  2  1  2  0  0  0  0
  3  4  2  0  0  0  0
  4  5  1  0  0  0  0
  5  9  1  0  0  0  0
  6  5  2  0  0  0  0
  7  2  1  0  0  0  0
  8  3  1  0  0  0  0
  9 10  1  0  0  0  0
  9 17  1  0  0  0  0
 10 12  1  0  0  0  0
 11 10  1  0  0  0  0
 12 14  1  0  0  0  0
 13 12  1  0  0  0  0
 15 14  1  0  0  0  0
 16 15  1  0  0  0  0
 17 15  1  0  0  0  0
 18 17  1  0  0  0  0
 19 25  1  0  0  0  0
 19 24  1  0  0  0  0
 20 19  2  0  0  0  0
 21 20  1  0  0  0  0
 21 22  2  0  0  0  0
 22 23  1  0  0  0  0
 23 24  2  0  0  0  0
 23  1  1  0  0  0  0
 26 20  1  0  0  0  0
 27 21  1  0  0  0  0
M  END
>  <minimizedAffinity>
-4.73335409

$$$$

 OpenBabel03262523043D

 27 29  0  0  0  0  0  0  0  0999 V2000
   38.0180   24.7420   34.5630 C   0  0  0  0  0  0  0  0  0  0  0  0
   38.0220   23.9980   33.4360 C   0  0  0  0  0  0  0  0  0  0  0  0
   37.6680   24.5270   32.2380 C   0  0  0  0  0  0  0  0  0  0  0  0
   37.3030   25.8350   32.1770 N   0  0  0  0  0  0  0  0  0  0  0  0
   37.3020   26.5660   33.3070 C   0  0  0  0  0  0  0  0  0  0  0  0
   37.6550   26.0330   34.4930 N   0  0  0  0  0  0  0  0  0  0  0  0
   38.3090   22.9650   33.4720 H   0  0  0  0  0  0  0  0  0  0  0  0
   37.6560   23.9710   31.3110 H   0  0  0  0  0  0  0  0  0  0  0  0
   36.8990   28.0000   33.2290 C   0  0  0  0  0  3  0  0  0  0  0  0
   36.0390   28.3930   34.4040 C   0  0  0  0  0  3  0  0  0  0  0  0
   36.6480   28.2150   35.3340 H   0  0  0  0  0  0  0  0  0  0  0  0
   35.8140   29.8890   34.3290 C   0  0  0  0  0  3  0  0  0  0  0  0
   36.8130   30.3420   34.5970 H   0  0  0  0  0  0  0  0  0  0  0  0
   35.5370   30.3270   33.0500 O   0  0  0  0  0  0  0  0  0  0  0  0
   35.0790   29.3060   32.2050 C   0  0  0  0  0  3  0  0  0  0  0  0
   34.1220   28.8760   32.5490 H   0  0  0  0  0  0  0  0  0  0  0  0
   36.1300   28.2630   31.9570 C   0  0  0  0  0  3  0  0  0  0  0  0
   35.6550   27.3240   31.6460 H   0  0  0  0  0  0  0  0  0  0  0  0
   38.0480   23.9920   38.1550 C   0  0  0  0  0  0  0  0  0  0  0  0
   39.1590   23.1630   38.2970 C   0  0  0  0  0  0  0  0  0  0  0  0
   39.8970   22.8660   37.1360 C   0  0  0  0  0  0  0  0  0  0  0  0
   39.4760   23.4080   35.9620 N   0  0  0  0  0  0  0  0  0  0  0  0
   38.3910   24.2100   35.8630 C   0  0  0  0  0  0  0  0  0  0  0  0
   37.6750   24.5020   36.9710 N   0  0  0  0  0  0  0  0  0  0  0  0
   37.5400   24.1670   39.0980 H   0  0  0  0  0  0  0  0  0  0  0  0
   39.5150   22.7220   39.2040 H   0  0  0  0  0  0  0  0  0  0  0  0
   40.7810   22.2400   37.0820 H   0  0  0  0  0  0  0  0  0  0  0  0
  1 23  1  0  0  0  0
  2  7  1  0  0  0  0
  2  1  2  0  0  0  0
  3  2  1  0  0  0  0
  4  3  2  0  0  0  0
  4  5  1  0  0  0  0
  5  6  2  0  0  0  0
  6  1  1  0  0  0  0
  8  3  1  0  0  0  0
  9  5  1  0  0  0  0
  9 10  1  0  0  0  0
 10 11  1  0  0  0  0
 12 10  1  0  0  0  0
 12 13  1  0  0  0  0
 14 12  1  0  0  0  0
 15 16  1  0  0  0  0
 15 14  1  0  0  0  0
 17 15  1  0  0  0  0
 17  9  1  0  0  0  0
 18 17  1  0  0  0  0
 19 20  1  0  0  0  0
 19 25  1  0  0  0  0
 20 26  1  0  0  0  0
 21 20  2  0  0  0  0
 22 21  1  0  0  0  0
 23 22  2  0  0  0  0
 23 24  1  0  0  0  0
 24 19  2  0  0  0  0
 27 21  1  0  0  0  0
M  END
>  <minimizedAffinity>
-4.65812778

$$$$
