
 OpenBabel03272501583D

 32 34  0  0  0  0  0  0  0  0999 V2000
   32.2710   27.9280   47.7880 C   0  0  0  0  0  0  0  0  0  0  0  0
   31.9960   26.6390   48.1520 C   0  0  0  0  0  0  0  0  0  0  0  0
   30.6310   26.4210   48.2560 C   0  0  0  0  0  0  0  0  0  0  0  0
   30.1040   27.6370   47.9380 N   0  0  0  0  0  0  0  0  0  0  0  0
   31.0690   28.4980   47.6690 N   0  0  0  0  0  0  0  0  0  0  0  0
   32.7700   25.8860   48.3350 H   0  0  0  0  0  0  0  0  0  0  0  0
   30.1110   25.5000   48.5270 H   0  0  0  0  0  0  0  0  0  0  0  0
   28.6620   27.8870   47.9150 C   0  0  0  0  0  3  0  0  0  0  0  0
   28.3890   29.3360   48.1100 C   0  0  0  0  0  3  0  0  0  0  0  0
   27.7550   29.7800   47.2960 H   0  0  0  0  0  0  0  0  0  0  0  0
   27.7720   29.7160   49.4170 C   0  0  0  0  0  3  0  0  0  0  0  0
   28.4980   29.8360   50.2440 H   0  0  0  0  0  0  0  0  0  0  0  0
   26.7470   28.8460   49.7070 O   0  0  0  0  0  0  0  0  0  0  0  0
   27.3310   27.6310   50.0270 C   0  0  0  0  0  3  0  0  0  0  0  0
   28.0430   27.7260   50.8740 H   0  0  0  0  0  0  0  0  0  0  0  0
   27.9600   26.9570   48.8400 C   0  0  0  0  0  3  0  0  0  0  0  0
   28.6640   26.1920   49.2310 H   0  0  0  0  0  0  0  0  0  0  0  0
   33.6430   28.5050   47.5840 C   0  0  0  0  0  0  0  0  0  0  0  0
   34.0780   27.9330   46.7420 H   0  0  0  0  0  0  0  0  0  0  0  0
   33.5530   29.5770   47.3800 H   0  0  0  0  0  0  0  0  0  0  0  0
   34.4290   28.1710   48.8300 C   0  0  0  0  0  0  0  0  0  0  0  0
   34.8360   27.1320   48.7770 H   0  0  0  0  0  0  0  0  0  0  0  0
   33.8070   28.2420   49.7470 H   0  0  0  0  0  0  0  0  0  0  0  0
   37.5430   29.7540   50.0440 C   0  0  0  0  0  0  0  0  0  0  0  0
   37.7720   30.7390   49.0790 C   0  0  0  0  0  0  0  0  0  0  0  0
   36.8550   30.8610   48.0070 C   0  0  0  0  0  0  0  0  0  0  0  0
   35.7990   30.0080   47.9800 N   0  0  0  0  0  0  0  0  0  0  0  0
   35.6150   29.0710   48.9330 C   0  0  0  0  0  0  0  0  0  0  0  0
   36.4760   28.9480   49.9490 N   0  0  0  0  0  0  0  0  0  0  0  0
   38.1950   29.5910   50.8970 H   0  0  0  0  0  0  0  0  0  0  0  0
   38.6400   31.3770   49.1780 H   0  0  0  0  0  0  0  0  0  0  0  0
   37.0280   31.6180   47.2620 H   0  0  0  0  0  0  0  0  0  0  0  0
  1  2  1  0  0  0  0
  2  3  2  0  0  0  0
  2  6  1  0  0  0  0
  3  7  1  0  0  0  0
  4  3  1  0  0  0  0
  5  1  2  0  0  0  0
  5  4  1  0  0  0  0
  8  4  1  0  0  0  0
  8  9  1  0  0  0  0
  8 16  1  0  0  0  0
  9 11  1  0  0  0  0
 10  9  1  0  0  0  0
 11 13  1  0  0  0  0
 11 12  1  0  0  0  0
 13 14  1  0  0  0  0
 14 15  1  0  0  0  0
 16 17  1  0  0  0  0
 16 14  1  0  0  0  0
 18  1  1  0  0  0  0
 18 21  1  0  0  0  0
 19 18  1  0  0  0  0
 20 18  1  0  0  0  0
 21 28  1  0  0  0  0
 21 23  1  0  0  0  0
 22 21  1  0  0  0  0
 24 30  1  0  0  0  0
 25 31  1  0  0  0  0
 25 24  2  0  0  0  0
 26 25  1  0  0  0  0
 27 26  2  0  0  0  0
 27 28  1  0  0  0  0
 28 29  2  0  0  0  0
 29 24  1  0  0  0  0
 32 26  1  0  0  0  0
M  END
>  <minimizedAffinity>
-4.90447474

>  <minimizedRMSD>
2.80739307

$$$$
