
 OpenBabel03272509503D

 34 36  0  0  0  0  0  0  0  0999 V2000
   37.1860   30.2170   51.3440 C   0  0  0  0  0  0  0  0  0  0  0  0
   37.9100   30.6000   50.1930 C   0  0  0  0  0  0  0  0  0  0  0  0
   37.4310   30.1700   48.9690 C   0  0  0  0  0  0  0  0  0  0  0  0
   36.2890   29.4020   48.9380 N   0  0  0  0  0  0  0  0  0  0  0  0
   35.6350   29.0630   50.0530 C   0  0  0  0  0  0  0  0  0  0  0  0
   36.0860   29.4720   51.2490 N   0  0  0  0  0  0  0  0  0  0  0  0
   37.5010   30.5170   52.3350 H   0  0  0  0  0  0  0  0  0  0  0  0
   38.8020   31.2070   50.2940 H   0  0  0  0  0  0  0  0  0  0  0  0
   38.1740   30.5590   47.7450 C   0  0  0  0  0  3  0  0  0  0  0  0
   38.8030   31.8990   47.8800 C   0  0  0  0  0  3  0  0  0  0  0  0
   38.1500   32.6740   48.3100 H   0  0  0  0  0  0  0  0  0  0  0  0
   39.1910   32.4200   46.5110 C   0  0  0  0  0  3  0  0  0  0  0  0
   39.8960   31.7640   45.9690 H   0  0  0  0  0  0  0  0  0  0  0  0
   37.9820   32.5900   45.8090 O   0  0  0  0  0  0  0  0  0  0  0  0
   37.5870   31.3130   45.4230 C   0  0  0  0  0  3  0  0  0  0  0  0
   36.6900   31.4160   44.7770 H   0  0  0  0  0  0  0  0  0  0  0  0
   37.2100   30.4490   46.5950 C   0  0  0  0  0  3  0  0  0  0  0  0
   36.1930   30.7070   46.9560 H   0  0  0  0  0  0  0  0  0  0  0  0
   34.5290   28.2970   49.7770 O   0  0  0  0  0  0  0  0  0  0  0  0
   33.8220   28.5260   48.5670 C   0  0  0  0  0  0  0  0  0  0  0  0
   34.5600   28.6840   47.7570 H   0  0  0  0  0  0  0  0  0  0  0  0
   33.2670   29.4810   48.6530 H   0  0  0  0  0  0  0  0  0  0  0  0
   32.8710   27.4050   48.2960 C   0  0  0  0  0  0  0  0  0  0  0  0
   33.1600   26.9640   47.3030 H   0  0  0  0  0  0  0  0  0  0  0  0
   32.9760   26.6210   49.0740 H   0  0  0  0  0  0  0  0  0  0  0  0
   31.4470   27.8510   48.2320 C   0  0  0  0  0  0  0  0  0  0  0  0
   30.7050   27.6910   49.3790 C   0  0  0  0  0  0  0  0  0  0  0  0
   29.3830   28.0630   49.4430 C   0  0  0  0  0  0  0  0  0  0  0  0
   28.8010   28.5940   48.3600 N   0  0  0  0  0  0  0  0  0  0  0  0
   29.5400   28.7430   47.2450 C   0  0  0  0  0  0  0  0  0  0  0  0
   30.8320   28.3880   47.1560 N   0  0  0  0  0  0  0  0  0  0  0  0
   31.1170   27.2650   50.2980 H   0  0  0  0  0  0  0  0  0  0  0  0
   28.7620   27.9550   50.3310 H   0  0  0  0  0  0  0  0  0  0  0  0
   29.1200   29.1720   46.3240 H   0  0  0  0  0  0  0  0  0  0  0  0
  1  7  1  0  0  0  0
  2  8  1  0  0  0  0
  2  1  2  0  0  0  0
  3  2  1  0  0  0  0
  4  3  2  0  0  0  0
  4  5  1  0  0  0  0
  5  6  2  0  0  0  0
  6  1  1  0  0  0  0
  9 10  1  0  0  0  0
  9  3  1  0  0  0  0
 10 11  1  0  0  0  0
 12 10  1  0  0  0  0
 13 12  1  0  0  0  0
 14 12  1  0  0  0  0
 15 14  1  0  0  0  0
 15 17  1  0  0  0  0
 16 15  1  0  0  0  0
 17 18  1  0  0  0  0
 17  9  1  0  0  0  0
 19  5  1  0  0  0  0
 20 22  1  0  0  0  0
 20 19  1  0  0  0  0
 21 20  1  0  0  0  0
 23 20  1  0  0  0  0
 23 25  1  0  0  0  0
 24 23  1  0  0  0  0
 26 23  1  0  0  0  0
 26 27  1  0  0  0  0
 27 28  2  0  0  0  0
 27 32  1  0  0  0  0
 28 33  1  0  0  0  0
 29 28  1  0  0  0  0
 30 29  2  0  0  0  0
 31 30  1  0  0  0  0
 31 26  2  0  0  0  0
 34 30  1  0  0  0  0
M  END
>  <minimizedAffinity>
-5.77088785

>  <minimizedRMSD>
0.796950042

$$$$
