
 OpenBabel03272509503D

 34 36  0  0  0  0  0  0  0  0999 V2000
   37.2710   30.1840   51.3400 C   0  0  0  0  0  0  0  0  0  0  0  0
   37.7250   30.9120   50.2180 C   0  0  0  0  0  0  0  0  0  0  0  0
   37.0710   30.7020   49.0170 C   0  0  0  0  0  0  0  0  0  0  0  0
   36.0270   29.8060   48.9800 N   0  0  0  0  0  0  0  0  0  0  0  0
   35.6290   29.1390   50.0670 C   0  0  0  0  0  0  0  0  0  0  0  0
   36.2530   29.3310   51.2410 N   0  0  0  0  0  0  0  0  0  0  0  0
   37.7340   30.2980   52.3110 H   0  0  0  0  0  0  0  0  0  0  0  0
   38.5550   31.6010   50.3210 H   0  0  0  0  0  0  0  0  0  0  0  0
   37.5300   31.4550   47.8240 C   0  0  0  0  0  3  0  0  0  0  0  0
   38.0010   30.5510   46.7420 C   0  0  0  0  0  3  0  0  0  0  0  0
   38.6630   29.7380   47.0770 H   0  0  0  0  0  0  0  0  0  0  0  0
   38.8180   31.3400   45.7380 C   0  0  0  0  0  3  0  0  0  0  0  0
   38.2610   32.1730   45.2700 H   0  0  0  0  0  0  0  0  0  0  0  0
   39.9540   31.7900   46.4370 O   0  0  0  0  0  0  0  0  0  0  0  0
   39.5210   32.8590   47.2140 C   0  0  0  0  0  3  0  0  0  0  0  0
   40.4110   33.3070   47.7020 H   0  0  0  0  0  0  0  0  0  0  0  0
   38.5700   32.4350   48.2990 C   0  0  0  0  0  3  0  0  0  0  0  0
   39.1240   31.9810   49.1470 H   0  0  0  0  0  0  0  0  0  0  0  0
   34.5740   28.3050   49.7910 O   0  0  0  0  0  0  0  0  0  0  0  0
   33.8600   28.4830   48.5770 C   0  0  0  0  0  0  0  0  0  0  0  0
   34.5930   28.5910   47.7540 H   0  0  0  0  0  0  0  0  0  0  0  0
   33.3190   29.4500   48.6190 H   0  0  0  0  0  0  0  0  0  0  0  0
   32.8910   27.3650   48.3700 C   0  0  0  0  0  0  0  0  0  0  0  0
   33.2140   26.8190   47.4420 H   0  0  0  0  0  0  0  0  0  0  0  0
   32.9350   26.6610   49.2270 H   0  0  0  0  0  0  0  0  0  0  0  0
   31.4850   27.8360   48.1880 C   0  0  0  0  0  0  0  0  0  0  0  0
   30.6370   27.6550   49.2560 C   0  0  0  0  0  0  0  0  0  0  0  0
   29.3200   28.0460   49.2090 C   0  0  0  0  0  0  0  0  0  0  0  0
   28.8500   28.6200   48.0940 N   0  0  0  0  0  0  0  0  0  0  0  0
   29.6910   28.7900   47.0580 C   0  0  0  0  0  0  0  0  0  0  0  0
   30.9810   28.4160   47.0780 N   0  0  0  0  0  0  0  0  0  0  0  0
   30.9560   27.1940   50.1950 H   0  0  0  0  0  0  0  0  0  0  0  0
   28.6170   27.9220   50.0310 H   0  0  0  0  0  0  0  0  0  0  0  0
   29.3650   29.2540   46.1160 H   0  0  0  0  0  0  0  0  0  0  0  0
  1  7  1  0  0  0  0
  2  8  1  0  0  0  0
  2  1  2  0  0  0  0
  3  2  1  0  0  0  0
  4  3  2  0  0  0  0
  4  5  1  0  0  0  0
  5  6  2  0  0  0  0
  6  1  1  0  0  0  0
  9 17  1  0  0  0  0
  9  3  1  0  0  0  0
 10 11  1  0  0  0  0
 10  9  1  0  0  0  0
 12 14  1  0  0  0  0
 12 10  1  0  0  0  0
 13 12  1  0  0  0  0
 14 15  1  0  0  0  0
 15 16  1  0  0  0  0
 15 17  1  0  0  0  0
 17 18  1  0  0  0  0
 19  5  1  0  0  0  0
 20 22  1  0  0  0  0
 20 19  1  0  0  0  0
 21 20  1  0  0  0  0
 23 20  1  0  0  0  0
 23 25  1  0  0  0  0
 24 23  1  0  0  0  0
 26 23  1  0  0  0  0
 26 27  1  0  0  0  0
 27 32  1  0  0  0  0
 28 27  2  0  0  0  0
 28 33  1  0  0  0  0
 29 28  1  0  0  0  0
 30 31  1  0  0  0  0
 30 29  2  0  0  0  0
 31 26  2  0  0  0  0
 34 30  1  0  0  0  0
M  END
>  <minimizedAffinity>
-5.63037062

>  <minimizedRMSD>
0.7350384

$$$$
