
 OpenBabel03272502393D

 41 44  0  0  1  0  0  0  0  0999 V2000
   33.2750   28.4020   47.0710 N   0  0  0  0  0  0  0  0  0  0  0  0
   33.7600   28.0900   45.7400 C   0  0  0  0  0  0  0  0  0  0  0  0
   34.9540   28.9900   45.5910 C   0  0  0  0  0  0  0  0  0  0  0  0
   34.9250   29.9240   46.8780 C   0  0  1  0  0  0  0  0  0  0  0  0
   34.3910   28.9740   47.8590 C   0  0  0  0  0  0  0  0  0  0  0  0
   32.9950   28.2770   44.9630 H   0  0  0  0  0  0  0  0  0  0  0  0
   34.1030   27.0330   45.6890 H   0  0  0  0  0  0  0  0  0  0  0  0
   35.9180   28.4550   45.5930 H   0  0  0  0  0  0  0  0  0  0  0  0
   34.8690   29.6520   44.7430 H   0  0  0  0  0  0  0  0  0  0  0  0
   34.2230   30.6790   46.5070 H   0  0  0  0  0  0  0  0  0  0  0  0
   35.0890   28.1630   48.1420 H   0  0  0  0  0  0  0  0  0  0  0  0
   33.9870   29.5120   48.7420 H   0  0  0  0  0  0  0  0  0  0  0  0
   36.3290   31.3890   44.9170 F   0  0  0  0  0  0  0  0  0  0  0  0
   36.8620   31.1310   46.1190 C   0  0  0  0  0  0  0  0  0  0  0  0
   36.2900   30.4040   47.1230 C   0  0  0  0  0  0  0  0  0  0  0  0
   36.9940   30.2630   48.3310 C   0  0  0  0  0  0  0  0  0  0  0  0
   38.2260   30.8350   48.5210 C   0  0  0  0  0  0  0  0  0  0  0  0
   38.7930   31.5720   47.4790 C   0  0  0  0  0  0  0  0  0  0  0  0
   38.0970   31.7200   46.2600 C   0  0  0  0  0  0  0  0  0  0  0  0
   36.4600   29.6720   49.0590 H   0  0  0  0  0  0  0  0  0  0  0  0
   38.7180   30.6940   49.4730 H   0  0  0  0  0  0  0  0  0  0  0  0
   39.7460   31.9730   47.7200 H   0  0  0  0  0  0  0  0  0  0  0  0
   38.7790   32.5180   45.2080 C   0  0  0  0  0  0  0  0  0  0  0  0
   40.2050   32.8170   45.4580 C   0  0  0  0  0  0  0  0  0  0  0  0
   40.4110   33.4050   46.3710 H   0  0  0  0  0  0  0  0  0  0  0  0
   41.0460   31.5750   45.3560 C   0  0  0  0  0  0  0  0  0  0  0  0
   42.1350   31.7900   45.3950 H   0  0  0  0  0  0  0  0  0  0  0  0
   40.8240   30.8860   44.1690 O   0  0  0  0  0  0  0  0  0  0  0  0
   40.0300   31.5480   43.2650 C   0  0  0  0  0  0  0  0  0  0  0  0
   40.5760   32.4440   42.9090 H   0  0  0  0  0  0  0  0  0  0  0  0
   38.6820   31.8870   43.8440 C   0  0  0  0  0  0  0  0  0  0  0  0
   38.2370   32.6330   43.1520 H   0  0  0  0  0  0  0  0  0  0  0  0
   31.9720   28.2190   47.5730 C   0  0  0  0  0  0  0  0  0  0  0  0
   30.9280   28.6220   46.7250 C   0  0  0  0  0  0  0  0  0  0  0  0
   29.6030   28.4840   47.1560 C   0  0  0  0  0  0  0  0  0  0  0  0
   29.4280   27.9470   48.4180 N   0  0  0  0  0  0  0  0  0  0  0  0
   30.4410   27.5720   49.2010 C   0  0  0  0  0  0  0  0  0  0  0  0
   31.7250   27.7100   48.7740 N   0  0  0  0  0  0  0  0  0  0  0  0
   31.0130   29.0450   45.7350 H   0  0  0  0  0  0  0  0  0  0  0  0
   28.7480   28.7670   46.5740 H   0  0  0  0  0  0  0  0  0  0  0  0
   30.1950   27.1630   50.1710 H   0  0  0  0  0  0  0  0  0  0  0  0
  1 33  1  0  0  0  0
  1  5  1  0  0  0  0
  2  1  1  0  0  0  0
  3  8  1  0  0  0  0
  3  2  1  0  0  0  0
  3  4  1  0  0  0  0
  4 10  1  6  0  0  0
  4 15  1  0  0  0  0
  4  5  1  0  0  0  0
  5 11  1  0  0  0  0
  5 12  1  0  0  0  0
  6  2  1  0  0  0  0
  7  2  1  0  0  0  0
  9  3  1  0  0  0  0
 13 14  1  0  0  0  0
 14 19  2  0  0  0  0
 14 15  1  0  0  0  0
 15 16  2  0  0  0  0
 16 17  1  0  0  0  0
 16 20  1  0  0  0  0
 17 21  1  0  0  0  0
 18 22  1  0  0  0  0
 18 17  2  0  0  0  0
 19 18  1  0  0  0  0
 23 24  1  0  0  0  0
 23 19  1  0  0  0  0
 24 25  1  0  0  0  0
 26 27  1  0  0  0  0
 26 24  1  0  0  0  0
 28 26  1  0  0  0  0
 29 31  1  0  0  0  0
 29 28  1  0  0  0  0
 30 29  1  0  0  0  0
 31 23  1  0  0  0  0
 32 31  1  0  0  0  0
 33 38  1  0  0  0  0
 34 35  1  0  0  0  0
 34 33  2  0  0  0  0
 35 36  2  0  0  0  0
 36 37  1  0  0  0  0
 37 41  1  0  0  0  0
 38 37  2  0  0  0  0
 39 34  1  0  0  0  0
 40 35  1  0  0  0  0
M  END
>  <minimizedAffinity>
-5.82111549

>  <minimizedRMSD>
4.13609695

$$$$
