
 OpenBabel03272505283D

 32 34  0  0  0  0  0  0  0  0999 V2000
   37.4490   31.0910   47.0750 N   0  0  0  0  0  0  0  0  0  0  0  0
   36.8700   30.7170   45.9030 C   0  0  0  0  0  0  0  0  0  0  0  0
   37.3330   31.1710   44.6750 C   0  0  0  0  0  0  0  0  0  0  0  0
   38.4370   32.0420   44.6860 C   0  0  0  0  0  0  0  0  0  0  0  0
   38.8870   32.4750   43.6020 O   0  0  0  0  0  0  0  0  0  0  0  0
   39.0120   32.4110   45.8740 N   0  0  0  0  0  0  0  0  0  0  0  0
   38.4760   31.9090   46.9780 C   0  0  0  0  0  0  0  0  0  0  0  0
   39.0310   32.2740   48.0420 O   0  0  0  0  0  0  0  0  0  0  0  0
   36.0200   30.0440   45.9190 H   0  0  0  0  0  0  0  0  0  0  0  0
   36.6770   30.7410   43.4490 C   0  0  0  0  0  3  0  0  0  0  0  0
   35.4810   31.6010   43.0750 C   0  0  0  0  0  3  0  0  0  0  0  0
   34.6680   31.4620   43.8370 H   0  0  0  0  0  0  0  0  0  0  0  0
   34.9380   31.0470   41.7760 C   0  0  0  0  0  3  0  0  0  0  0  0
   33.9650   30.5120   41.9140 H   0  0  0  0  0  0  0  0  0  0  0  0
   35.7900   30.1360   41.1690 O   0  0  0  0  0  0  0  0  0  0  0  0
   35.9910   28.9950   41.9280 C   0  0  0  0  0  3  0  0  0  0  0  0
   35.1990   28.2520   41.7850 H   0  0  0  0  0  0  0  0  0  0  0  0
   36.2190   29.3180   43.4110 C   0  0  0  0  0  3  0  0  0  0  0  0
   36.9320   28.6070   43.8690 H   0  0  0  0  0  0  0  0  0  0  0  0
   37.3050   29.5920   50.4670 C   0  0  0  0  0  0  0  0  0  0  0  0
   37.7930   30.0550   49.2350 C   0  0  0  0  0  0  0  0  0  0  0  0
   36.9650   30.6230   48.3010 C   0  0  0  0  0  0  0  0  0  0  0  0
   35.6370   30.7230   48.6080 N   0  0  0  0  0  0  0  0  0  0  0  0
   35.1420   30.2790   49.7950 C   0  0  0  0  0  0  0  0  0  0  0  0
   35.9670   29.7160   50.7210 N   0  0  0  0  0  0  0  0  0  0  0  0
   37.8920   29.1390   51.2430 H   0  0  0  0  0  0  0  0  0  0  0  0
   38.8460   29.8800   49.1780 H   0  0  0  0  0  0  0  0  0  0  0  0
   34.0790   30.3970   49.9560 H   0  0  0  0  0  0  0  0  0  0  0  0
   40.1550   33.3060   45.8790 C   0  0  0  0  0  0  0  0  0  0  0  0
   40.0150   34.2640   44.9290 F   0  0  0  0  0  0  0  0  0  0  0  0
   41.3420   32.6500   45.5970 F   0  0  0  0  0  0  0  0  0  0  0  0
   40.2300   33.9320   47.1170 F   0  0  0  0  0  0  0  0  0  0  0  0
  1 22  1  0  0  0  0
  2  9  1  0  0  0  0
  2  1  1  0  0  0  0
  3  4  1  0  0  0  0
  3  2  2  0  0  0  0
  4  6  1  0  0  0  0
  5  4  2  0  0  0  0
  6 29  1  0  0  0  0
  6  7  1  0  0  0  0
  7  1  1  0  0  0  0
  7  8  2  0  0  0  0
 10  3  1  0  0  0  0
 11 10  1  0  0  0  0
 11 12  1  0  0  0  0
 13 14  1  0  0  0  0
 13 11  1  0  0  0  0
 15 13  1  0  0  0  0
 15 16  1  0  0  0  0
 16 18  1  0  0  0  0
 17 16  1  0  0  0  0
 18 10  1  0  0  0  0
 18 19  1  0  0  0  0
 20 25  1  0  0  0  0
 20 26  1  0  0  0  0
 21 20  2  0  0  0  0
 22 23  2  0  0  0  0
 22 21  1  0  0  0  0
 23 24  1  0  0  0  0
 24 28  1  0  0  0  0
 24 25  2  0  0  0  0
 27 21  1  0  0  0  0
 29 32  1  0  0  0  0
 30 29  1  0  0  0  0
 31 29  1  0  0  0  0
M  END
>  <minimizedAffinity>
-6.1131444

>  <minimizedRMSD>
0.222457409

$$$$
