
 OpenBabel03272505273D

 32 34  0  0  0  0  0  0  0  0999 V2000
   37.4020   31.0510   47.1400 N   0  0  0  0  0  0  0  0  0  0  0  0
   36.8250   30.6850   45.9650 C   0  0  0  0  0  0  0  0  0  0  0  0
   37.2900   31.1480   44.7400 C   0  0  0  0  0  0  0  0  0  0  0  0
   38.3930   32.0190   44.7600 C   0  0  0  0  0  0  0  0  0  0  0  0
   38.8450   32.4600   43.6790 O   0  0  0  0  0  0  0  0  0  0  0  0
   38.9670   32.3810   45.9510 N   0  0  0  0  0  0  0  0  0  0  0  0
   38.4280   31.8700   47.0510 C   0  0  0  0  0  0  0  0  0  0  0  0
   38.9810   32.2280   48.1180 O   0  0  0  0  0  0  0  0  0  0  0  0
   35.9750   30.0120   45.9750 H   0  0  0  0  0  0  0  0  0  0  0  0
   36.6360   30.7270   43.5110 C   0  0  0  0  0  3  0  0  0  0  0  0
   35.1330   30.9560   43.5210 C   0  0  0  0  0  3  0  0  0  0  0  0
   34.6580   30.2820   44.2830 H   0  0  0  0  0  0  0  0  0  0  0  0
   34.6150   30.5010   42.1740 C   0  0  0  0  0  3  0  0  0  0  0  0
   34.0360   29.5450   42.2430 H   0  0  0  0  0  0  0  0  0  0  0  0
   35.6220   30.2700   41.2490 O   0  0  0  0  0  0  0  0  0  0  0  0
   36.4680   29.2380   41.6170 C   0  0  0  0  0  3  0  0  0  0  0  0
   36.0750   28.2540   41.3390 H   0  0  0  0  0  0  0  0  0  0  0  0
   36.8550   29.3050   43.1000 C   0  0  0  0  0  3  0  0  0  0  0  0
   37.8910   28.9490   43.2600 H   0  0  0  0  0  0  0  0  0  0  0  0
   37.2470   29.5020   50.5090 C   0  0  0  0  0  0  0  0  0  0  0  0
   37.7370   29.9740   49.2810 C   0  0  0  0  0  0  0  0  0  0  0  0
   36.9150   30.5750   48.3620 C   0  0  0  0  0  0  0  0  0  0  0  0
   35.5920   30.6990   48.6800 N   0  0  0  0  0  0  0  0  0  0  0  0
   35.0950   30.2480   49.8630 C   0  0  0  0  0  0  0  0  0  0  0  0
   35.9140   29.6520   50.7750 N   0  0  0  0  0  0  0  0  0  0  0  0
   37.8290   29.0250   51.2740 H   0  0  0  0  0  0  0  0  0  0  0  0
   38.7850   29.7780   49.2140 H   0  0  0  0  0  0  0  0  0  0  0  0
   34.0360   30.3860   50.0330 H   0  0  0  0  0  0  0  0  0  0  0  0
   40.1090   33.2750   45.9640 C   0  0  0  0  0  0  0  0  0  0  0  0
   39.9690   34.2420   45.0230 F   0  0  0  0  0  0  0  0  0  0  0  0
   41.2960   32.6220   45.6770 F   0  0  0  0  0  0  0  0  0  0  0  0
   40.1840   33.8900   47.2080 F   0  0  0  0  0  0  0  0  0  0  0  0
  1 22  1  0  0  0  0
  2  9  1  0  0  0  0
  2  1  1  0  0  0  0
  3  4  1  0  0  0  0
  3  2  2  0  0  0  0
  4  6  1  0  0  0  0
  5  4  2  0  0  0  0
  6 29  1  0  0  0  0
  6  7  1  0  0  0  0
  7  1  1  0  0  0  0
  7  8  2  0  0  0  0
 10 11  1  0  0  0  0
 10  3  1  0  0  0  0
 11 12  1  0  0  0  0
 13 14  1  0  0  0  0
 13 11  1  0  0  0  0
 15 16  1  0  0  0  0
 15 13  1  0  0  0  0
 16 18  1  0  0  0  0
 17 16  1  0  0  0  0
 18 19  1  0  0  0  0
 18 10  1  0  0  0  0
 20 25  1  0  0  0  0
 20 26  1  0  0  0  0
 21 20  2  0  0  0  0
 22 23  2  0  0  0  0
 22 21  1  0  0  0  0
 23 24  1  0  0  0  0
 24 28  1  0  0  0  0
 24 25  2  0  0  0  0
 27 21  1  0  0  0  0
 29 32  1  0  0  0  0
 30 29  1  0  0  0  0
 31 29  1  0  0  0  0
M  END
>  <minimizedAffinity>
-6.09435272

>  <minimizedRMSD>
1.00032675

$$$$
