
 OpenBabel03272507143D

 41 45  0  0  0  0  0  0  0  0999 V2000
   35.8190   29.0860   49.8850 C   0  0  0  0  0  0  0  0  0  0  0  0
   34.7830   29.6270   50.5630 C   0  0  0  0  0  0  0  0  0  0  0  0
   33.6180   29.0640   50.0360 C   0  0  0  0  0  0  0  0  0  0  0  0
   34.0460   28.1840   49.0320 C   0  0  0  0  0  0  0  0  0  0  0  0
   35.3410   28.2480   49.0000 O   0  0  0  0  0  0  0  0  0  0  0  0
   34.7840   30.3680   51.3790 H   0  0  0  0  0  0  0  0  0  0  0  0
   32.6190   29.3270   50.4060 H   0  0  0  0  0  0  0  0  0  0  0  0
   33.5220   26.4320   47.3380 C   0  0  0  0  0  0  0  0  0  0  0  0
   33.1010   27.3990   48.2440 C   0  0  0  0  0  0  0  0  0  0  0  0
   31.7570   27.6600   48.4430 C   0  0  0  0  0  0  0  0  0  0  0  0
   30.8450   26.9360   47.7180 C   0  0  0  0  0  0  0  0  0  0  0  0
   29.4990   26.9660   47.7030 N   0  0  0  0  0  0  0  0  0  0  0  0
   29.0900   26.0560   46.8240 N   0  0  0  0  0  0  0  0  0  0  0  0
   30.1470   25.4470   46.2790 C   0  0  0  0  0  0  0  0  0  0  0  0
   31.3150   25.9790   46.8240 C   0  0  0  0  0  0  0  0  0  0  0  0
   32.6450   25.7040   46.6120 C   0  0  0  0  0  0  0  0  0  0  0  0
   34.5950   26.2990   47.2510 H   0  0  0  0  0  0  0  0  0  0  0  0
   31.3600   28.4010   49.1330 H   0  0  0  0  0  0  0  0  0  0  0  0
   28.8500   27.5720   48.2570 H   0  0  0  0  0  0  0  0  0  0  0  0
   30.1700   24.6480   45.5210 H   0  0  0  0  0  0  0  0  0  0  0  0
   32.9440   24.9590   45.9140 H   0  0  0  0  0  0  0  0  0  0  0  0
   37.2040   29.4450   50.1690 C   0  0  0  0  0  0  0  0  0  0  0  0
   37.8330   28.7990   51.0430 O   0  0  0  0  0  0  0  0  0  0  0  0
   37.7770   30.5350   49.4190 C   0  0  0  0  0  0  0  0  0  0  0  0
   38.0510   31.7050   50.0960 C   0  0  0  0  0  0  0  0  0  0  0  0
   38.6020   32.7790   49.4110 C   0  0  0  0  0  0  0  0  0  0  0  0
   38.8440   32.6080   48.0890 N   0  0  0  0  0  0  0  0  0  0  0  0
   38.5770   31.4780   47.4410 C   0  0  0  0  0  0  0  0  0  0  0  0
   38.0470   30.4540   48.1120 N   0  0  0  0  0  0  0  0  0  0  0  0
   37.8660   31.8720   51.1680 H   0  0  0  0  0  0  0  0  0  0  0  0
   38.8250   33.6940   49.9080 H   0  0  0  0  0  0  0  0  0  0  0  0
   38.8370   31.2790   45.9870 C   0  0  0  0  0  3  0  0  0  0  0  0
   38.2250   32.3640   45.1340 C   0  0  0  0  0  3  0  0  0  0  0  0
   38.7760   33.3350   45.2530 H   0  0  0  0  0  0  0  0  0  0  0  0
   38.2830   31.8550   43.7090 C   0  0  0  0  0  3  0  0  0  0  0  0
   37.9710   32.6280   42.9790 H   0  0  0  0  0  0  0  0  0  0  0  0
   39.4790   31.2570   43.4110 O   0  0  0  0  0  0  0  0  0  0  0  0
   40.5360   31.6300   44.2330 C   0  0  0  0  0  3  0  0  0  0  0  0
   41.4340   31.0870   43.8700 H   0  0  0  0  0  0  0  0  0  0  0  0
   40.3140   31.2380   45.6690 C   0  0  0  0  0  3  0  0  0  0  0  0
   40.8910   31.9580   46.3010 H   0  0  0  0  0  0  0  0  0  0  0  0
  1 22  1  0  0  0  0
  1  2  2  0  0  0  0
  2  6  1  0  0  0  0
  3  7  1  0  0  0  0
  3  2  1  0  0  0  0
  4  3  2  0  0  0  0
  5  4  1  0  0  0  0
  5  1  1  0  0  0  0
  8  9  1  0  0  0  0
  9 10  2  0  0  0  0
  9  4  1  0  0  0  0
 10 18  1  0  0  0  0
 11 10  1  0  0  0  0
 12 11  1  0  0  0  0
 12 19  1  0  0  0  0
 13 12  1  0  0  0  0
 14 15  1  0  0  0  0
 14 13  2  0  0  0  0
 15 11  2  0  0  0  0
 16 15  1  0  0  0  0
 16  8  2  0  0  0  0
 17  8  1  0  0  0  0
 20 14  1  0  0  0  0
 21 16  1  0  0  0  0
 22 23  2  0  0  0  0
 24 25  1  0  0  0  0
 24 22  1  0  0  0  0
 25 30  1  0  0  0  0
 26 31  1  0  0  0  0
 26 25  2  0  0  0  0
 27 26  1  0  0  0  0
 28 27  2  0  0  0  0
 28 29  1  0  0  0  0
 29 24  2  0  0  0  0
 32 28  1  0  0  0  0
 33 34  1  0  0  0  0
 33 32  1  0  0  0  0
 35 33  1  0  0  0  0
 36 35  1  0  0  0  0
 37 35  1  0  0  0  0
 37 38  1  0  0  0  0
 38 40  1  0  0  0  0
 39 38  1  0  0  0  0
 40 32  1  0  0  0  0
 40 41  1  0  0  0  0
M  END
>  <minimizedAffinity>
-7.21375799

>  <minimizedRMSD>
0.381186634

$$$$
