
 OpenBabel03272503213D

 36 39  0  0  0  0  0  0  0  0999 V2000
   37.3190   27.4930   34.2510 C   0  0  0  0  0  0  0  0  0  0  0  0
   37.7740   27.7620   35.4750 C   0  0  0  0  0  0  0  0  0  0  0  0
   38.5360   26.8650   36.1210 C   0  0  0  0  0  0  0  0  0  0  0  0
   38.8160   25.6850   35.4630 C   0  0  0  0  0  0  0  0  0  0  0  0
   37.9410   25.8940   33.8690 S   0  0  0  0  0  0  0  0  0  0  0  0
   37.5070   28.7240   35.9290 H   0  0  0  0  0  0  0  0  0  0  0  0
   38.9710   26.9480   37.1080 H   0  0  0  0  0  0  0  0  0  0  0  0
   37.3990   23.6770   37.2760 Cl  0  0  0  0  0  0  0  0  0  0  0  0
   39.0150   23.5690   36.6240 C   0  0  0  0  0  0  0  0  0  0  0  0
   39.5810   24.5090   35.8190 C   0  0  0  0  0  0  0  0  0  0  0  0
   40.8260   24.4630   35.2950 C   0  0  0  0  0  0  0  0  0  0  0  0
   41.6400   23.3640   35.5850 C   0  0  0  0  0  0  0  0  0  0  0  0
   41.1280   22.3810   36.3910 C   0  0  0  0  0  0  0  0  0  0  0  0
   42.0710   20.9590   36.8150 Cl  0  0  0  0  0  0  0  0  0  0  0  0
   39.8330   22.4740   36.9100 C   0  0  0  0  0  0  0  0  0  0  0  0
   41.2800   25.2130   34.6520 H   0  0  0  0  0  0  0  0  0  0  0  0
   42.6410   23.2950   35.1820 H   0  0  0  0  0  0  0  0  0  0  0  0
   39.4190   21.6920   37.5540 H   0  0  0  0  0  0  0  0  0  0  0  0
   35.8990   29.1120   31.1630 C   0  0  0  0  0  0  0  0  0  0  0  0
   36.7710   28.3270   31.9520 C   0  0  0  0  0  0  0  0  0  0  0  0
   36.4830   28.2760   33.3350 C   0  0  0  0  0  0  0  0  0  0  0  0
   35.4270   28.9540   33.8270 N   0  0  0  0  0  0  0  0  0  0  0  0
   34.6320   29.6860   33.0240 C   0  0  0  0  0  0  0  0  0  0  0  0
   34.8680   29.7610   31.7070 N   0  0  0  0  0  0  0  0  0  0  0  0
   36.2100   29.0810   30.1210 H   0  0  0  0  0  0  0  0  0  0  0  0
   37.6200   27.7780   31.5740 H   0  0  0  0  0  0  0  0  0  0  0  0
   33.4620   30.4420   33.5420 C   0  0  0  0  0  3  0  0  0  0  0  0
   33.3410   30.1750   35.0050 C   0  0  0  0  0  3  0  0  0  0  0  0
   34.3400   29.9480   35.4230 H   0  0  0  0  0  0  0  0  0  0  0  0
   32.3740   29.0090   35.1850 C   0  0  0  0  0  3  0  0  0  0  0  0
   32.3870   28.6950   36.2310 H   0  0  0  0  0  0  0  0  0  0  0  0
   31.1210   29.5390   34.7970 O   0  0  0  0  0  0  0  0  0  0  0  0
   31.1130   29.4860   33.4200 C   0  0  0  0  0  3  0  0  0  0  0  0
   31.0810   28.3930   33.1510 H   0  0  0  0  0  0  0  0  0  0  0  0
   32.2290   30.1830   32.7480 C   0  0  0  0  0  3  0  0  0  0  0  0
   31.8150   31.1050   32.2750 H   0  0  0  0  0  0  0  0  0  0  0  0
  1  2  2  0  0  0  0
  2  6  1  0  0  0  0
  2  3  1  0  0  0  0
  3  7  1  0  0  0  0
  4 10  1  0  0  0  0
  4  3  2  0  0  0  0
  5  1  1  0  0  0  0
  5  4  1  0  0  0  0
  9 15  1  0  0  0  0
  9  8  1  0  0  0  0
 10  9  2  0  0  0  0
 11 12  2  0  0  0  0
 11 10  1  0  0  0  0
 12 13  1  0  0  0  0
 13 14  1  0  0  0  0
 13 15  2  0  0  0  0
 15 18  1  0  0  0  0
 16 11  1  0  0  0  0
 17 12  1  0  0  0  0
 19 24  2  0  0  0  0
 19 20  1  0  0  0  0
 20 21  2  0  0  0  0
 21 22  1  0  0  0  0
 21  1  1  0  0  0  0
 23 27  1  0  0  0  0
 23 22  2  0  0  0  0
 24 23  1  0  0  0  0
 25 19  1  0  0  0  0
 26 20  1  0  0  0  0
 27 28  1  0  0  0  0
 28 30  1  0  0  0  0
 28 29  1  0  0  0  0
 30 31  1  0  0  0  0
 32 30  1  0  0  0  0
 33 32  1  0  0  0  0
 34 33  1  0  0  0  0
 35 33  1  0  0  0  0
 35 27  1  0  0  0  0
 36 35  1  0  0  0  0
M  END
>  <minimizedAffinity>
-6.05581808

$$$$

 OpenBabel03272503213D

 36 39  0  0  0  0  0  0  0  0999 V2000
   36.6040   27.6130   32.8020 C   0  0  0  0  0  0  0  0  0  0  0  0
   35.9910   28.5330   32.0570 C   0  0  0  0  0  0  0  0  0  0  0  0
   35.4410   29.6110   32.6380 C   0  0  0  0  0  0  0  0  0  0  0  0
   35.5460   29.7110   34.0100 C   0  0  0  0  0  0  0  0  0  0  0  0
   36.4660   28.1920   34.4560 S   0  0  0  0  0  0  0  0  0  0  0  0
   35.9500   28.3800   30.9710 H   0  0  0  0  0  0  0  0  0  0  0  0
   34.9180   30.4300   32.1630 H   0  0  0  0  0  0  0  0  0  0  0  0
   32.7050   29.3340   35.0650 Cl  0  0  0  0  0  0  0  0  0  0  0  0
   33.8400   30.5930   35.4850 C   0  0  0  0  0  0  0  0  0  0  0  0
   35.0960   30.6950   34.9700 C   0  0  0  0  0  0  0  0  0  0  0  0
   36.0030   31.6530   35.2690 C   0  0  0  0  0  0  0  0  0  0  0  0
   35.6550   32.6480   36.1870 C   0  0  0  0  0  0  0  0  0  0  0  0
   34.4040   32.6010   36.7420 C   0  0  0  0  0  0  0  0  0  0  0  0
   33.8710   33.8060   37.9070 Cl  0  0  0  0  0  0  0  0  0  0  0  0
   33.5000   31.5900   36.4010 C   0  0  0  0  0  0  0  0  0  0  0  0
   37.0060   31.7360   34.8580 H   0  0  0  0  0  0  0  0  0  0  0  0
   36.3570   33.4290   36.4480 H   0  0  0  0  0  0  0  0  0  0  0  0
   32.4990   31.5480   36.8410 H   0  0  0  0  0  0  0  0  0  0  0  0
   37.8410   24.6120   30.8950 C   0  0  0  0  0  0  0  0  0  0  0  0
   37.1480   25.8200   31.1370 C   0  0  0  0  0  0  0  0  0  0  0  0
   37.2770   26.3620   32.4360 C   0  0  0  0  0  0  0  0  0  0  0  0
   38.0280   25.7270   33.3580 N   0  0  0  0  0  0  0  0  0  0  0  0
   38.6650   24.5770   33.0670 C   0  0  0  0  0  0  0  0  0  0  0  0
   38.5700   24.0290   31.8480 N   0  0  0  0  0  0  0  0  0  0  0  0
   37.6750   24.2870   29.8710 H   0  0  0  0  0  0  0  0  0  0  0  0
   36.5430   26.3430   30.4110 H   0  0  0  0  0  0  0  0  0  0  0  0
   39.4990   23.8580   34.0650 C   0  0  0  0  0  3  0  0  0  0  0  0
   39.0950   22.4220   34.0660 C   0  0  0  0  0  3  0  0  0  0  0  0
   38.7030   22.1470   33.0690 H   0  0  0  0  0  0  0  0  0  0  0  0
   38.0440   22.2380   35.1570 C   0  0  0  0  0  3  0  0  0  0  0  0
   37.6200   21.2340   35.0770 H   0  0  0  0  0  0  0  0  0  0  0  0
   38.7610   22.4260   36.3620 O   0  0  0  0  0  0  0  0  0  0  0  0
   38.8570   23.7910   36.5210 C   0  0  0  0  0  3  0  0  0  0  0  0
   37.8110   24.1540   36.7270 H   0  0  0  0  0  0  0  0  0  0  0  0
   39.4800   24.5220   35.3970 C   0  0  0  0  0  3  0  0  0  0  0  0
   40.4900   24.8560   35.7320 H   0  0  0  0  0  0  0  0  0  0  0  0
  1  5  1  0  0  0  0
  2  3  1  0  0  0  0
  2  1  2  0  0  0  0
  3  4  2  0  0  0  0
  4  5  1  0  0  0  0
  4 10  1  0  0  0  0
  6  2  1  0  0  0  0
  7  3  1  0  0  0  0
  8  9  1  0  0  0  0
  9 15  1  0  0  0  0
 10 11  1  0  0  0  0
 10  9  2  0  0  0  0
 11 12  2  0  0  0  0
 12 17  1  0  0  0  0
 12 13  1  0  0  0  0
 13 14  1  0  0  0  0
 15 13  2  0  0  0  0
 15 18  1  0  0  0  0
 16 11  1  0  0  0  0
 19 20  2  0  0  0  0
 19 24  1  0  0  0  0
 20 21  1  0  0  0  0
 21  1  1  0  0  0  0
 21 22  2  0  0  0  0
 23 22  1  0  0  0  0
 23 27  1  0  0  0  0
 24 23  2  0  0  0  0
 25 19  1  0  0  0  0
 26 20  1  0  0  0  0
 27 28  1  0  0  0  0
 27 35  1  0  0  0  0
 28 30  1  0  0  0  0
 29 28  1  0  0  0  0
 30 32  1  0  0  0  0
 31 30  1  0  0  0  0
 32 33  1  0  0  0  0
 33 34  1  0  0  0  0
 35 36  1  0  0  0  0
 35 33  1  0  0  0  0
M  END
>  <minimizedAffinity>
-5.82362223

$$$$

 OpenBabel03272503213D

 36 39  0  0  0  0  0  0  0  0999 V2000
   36.7280   27.7000   33.9250 C   0  0  0  0  0  0  0  0  0  0  0  0
   36.8240   26.7380   33.0070 C   0  0  0  0  0  0  0  0  0  0  0  0
   37.5530   25.6390   33.2590 C   0  0  0  0  0  0  0  0  0  0  0  0
   38.1760   25.5630   34.4870 C   0  0  0  0  0  0  0  0  0  0  0  0
   37.6850   27.1350   35.2860 S   0  0  0  0  0  0  0  0  0  0  0  0
   36.2980   26.8740   32.0540 H   0  0  0  0  0  0  0  0  0  0  0  0
   37.7190   24.7870   32.6130 H   0  0  0  0  0  0  0  0  0  0  0  0
   41.1790   26.1010   34.3540 Cl  0  0  0  0  0  0  0  0  0  0  0  0
   40.3720   24.7390   35.0910 C   0  0  0  0  0  0  0  0  0  0  0  0
   39.0220   24.5680   35.1100 C   0  0  0  0  0  0  0  0  0  0  0  0
   38.3600   23.5300   35.6690 C   0  0  0  0  0  0  0  0  0  0  0  0
   39.0950   22.5190   36.2940 C   0  0  0  0  0  0  0  0  0  0  0  0
   40.4600   22.6330   36.3080 C   0  0  0  0  0  0  0  0  0  0  0  0
   41.4740   21.4140   37.0690 Cl  0  0  0  0  0  0  0  0  0  0  0  0
   41.1000   23.7250   35.7160 C   0  0  0  0  0  0  0  0  0  0  0  0
   37.2820   23.3910   35.6850 H   0  0  0  0  0  0  0  0  0  0  0  0
   38.5960   21.6740   36.7510 H   0  0  0  0  0  0  0  0  0  0  0  0
   42.1900   23.8210   35.7250 H   0  0  0  0  0  0  0  0  0  0  0  0
   34.4940   30.5700   32.9550 C   0  0  0  0  0  0  0  0  0  0  0  0
   35.1300   29.3110   32.8620 C   0  0  0  0  0  0  0  0  0  0  0  0
   36.0130   28.9800   33.9140 C   0  0  0  0  0  0  0  0  0  0  0  0
   36.2060   29.8490   34.9270 N   0  0  0  0  0  0  0  0  0  0  0  0
   35.5720   31.0360   34.9590 C   0  0  0  0  0  0  0  0  0  0  0  0
   34.7250   31.3890   33.9820 N   0  0  0  0  0  0  0  0  0  0  0  0
   33.8400   30.7210   32.0990 H   0  0  0  0  0  0  0  0  0  0  0  0
   34.9860   28.6030   32.0590 H   0  0  0  0  0  0  0  0  0  0  0  0
   35.7680   32.0100   36.0640 C   0  0  0  0  0  3  0  0  0  0  0  0
   34.5810   31.9410   36.9660 C   0  0  0  0  0  3  0  0  0  0  0  0
   34.1410   30.9270   36.9210 H   0  0  0  0  0  0  0  0  0  0  0  0
   33.5920   33.0090   36.5110 C   0  0  0  0  0  3  0  0  0  0  0  0
   32.6530   32.8780   37.0550 H   0  0  0  0  0  0  0  0  0  0  0  0
   34.2320   34.2300   36.8290 O   0  0  0  0  0  0  0  0  0  0  0  0
   35.1230   34.4520   35.8020 C   0  0  0  0  0  3  0  0  0  0  0  0
   34.5000   34.6610   34.8890 H   0  0  0  0  0  0  0  0  0  0  0  0
   36.1020   33.3700   35.5620 C   0  0  0  0  0  3  0  0  0  0  0  0
   37.0970   33.7320   35.9140 H   0  0  0  0  0  0  0  0  0  0  0  0
  1  5  1  0  0  0  0
  2  3  1  0  0  0  0
  2  1  2  0  0  0  0
  3  4  2  0  0  0  0
  4 10  1  0  0  0  0
  4  5  1  0  0  0  0
  6  2  1  0  0  0  0
  7  3  1  0  0  0  0
  8  9  1  0  0  0  0
  9 10  2  0  0  0  0
  9 15  1  0  0  0  0
 10 11  1  0  0  0  0
 11 16  1  0  0  0  0
 11 12  2  0  0  0  0
 12 13  1  0  0  0  0
 12 17  1  0  0  0  0
 13 14  1  0  0  0  0
 15 18  1  0  0  0  0
 15 13  2  0  0  0  0
 19 24  1  0  0  0  0
 20 19  2  0  0  0  0
 20 21  1  0  0  0  0
 21  1  1  0  0  0  0
 21 22  2  0  0  0  0
 22 23  1  0  0  0  0
 23 27  1  0  0  0  0
 24 23  2  0  0  0  0
 25 19  1  0  0  0  0
 26 20  1  0  0  0  0
 27 28  1  0  0  0  0
 29 28  1  0  0  0  0
 30 32  1  0  0  0  0
 30 28  1  0  0  0  0
 30 31  1  0  0  0  0
 33 32  1  0  0  0  0
 34 33  1  0  0  0  0
 35 33  1  0  0  0  0
 35 36  1  0  0  0  0
 35 27  1  0  0  0  0
M  END
>  <minimizedAffinity>
-5.80150414

$$$$

 OpenBabel03272503213D

 36 39  0  0  0  0  0  0  0  0999 V2000
   36.7070   27.5870   33.1280 C   0  0  0  0  0  0  0  0  0  0  0  0
   36.0170   28.4130   32.3410 C   0  0  0  0  0  0  0  0  0  0  0  0
   35.4040   29.4860   32.8670 C   0  0  0  0  0  0  0  0  0  0  0  0
   35.5290   29.6810   34.2270 C   0  0  0  0  0  0  0  0  0  0  0  0
   36.5630   28.2600   34.7440 S   0  0  0  0  0  0  0  0  0  0  0  0
   35.9650   28.1890   31.2690 H   0  0  0  0  0  0  0  0  0  0  0  0
   34.8150   30.2340   32.3540 H   0  0  0  0  0  0  0  0  0  0  0  0
   32.6210   29.3600   35.1020 Cl  0  0  0  0  0  0  0  0  0  0  0  0
   33.7420   30.6150   35.5680 C   0  0  0  0  0  0  0  0  0  0  0  0
   35.0300   30.6910   35.1350 C   0  0  0  0  0  0  0  0  0  0  0  0
   35.9280   31.6450   35.4710 C   0  0  0  0  0  0  0  0  0  0  0  0
   35.5340   32.6640   36.3430 C   0  0  0  0  0  0  0  0  0  0  0  0
   34.2490   32.6430   36.8160 C   0  0  0  0  0  0  0  0  0  0  0  0
   33.6570   33.8800   37.9170 Cl  0  0  0  0  0  0  0  0  0  0  0  0
   33.3560   31.6370   36.4380 C   0  0  0  0  0  0  0  0  0  0  0  0
   36.9570   31.7070   35.1250 H   0  0  0  0  0  0  0  0  0  0  0  0
   36.2280   33.4420   36.6330 H   0  0  0  0  0  0  0  0  0  0  0  0
   32.3280   31.6150   36.8130 H   0  0  0  0  0  0  0  0  0  0  0  0
   39.3770   24.9360   33.0110 C   0  0  0  0  0  0  0  0  0  0  0  0
   38.7450   26.1480   33.3700 C   0  0  0  0  0  0  0  0  0  0  0  0
   37.4590   26.3650   32.8240 C   0  0  0  0  0  0  0  0  0  0  0  0
   36.9100   25.4400   32.0120 N   0  0  0  0  0  0  0  0  0  0  0  0
   37.5620   24.3030   31.7060 C   0  0  0  0  0  0  0  0  0  0  0  0
   38.7830   24.0570   32.2020 N   0  0  0  0  0  0  0  0  0  0  0  0
   40.3550   24.8720   33.4840 H   0  0  0  0  0  0  0  0  0  0  0  0
   39.1700   26.8990   34.0190 H   0  0  0  0  0  0  0  0  0  0  0  0
   36.9780   23.2680   30.8140 C   0  0  0  0  0  3  0  0  0  0  0  0
   35.5540   23.0610   31.2070 C   0  0  0  0  0  3  0  0  0  0  0  0
   35.1520   23.9930   31.6490 H   0  0  0  0  0  0  0  0  0  0  0  0
   35.5110   21.9010   32.1960 C   0  0  0  0  0  3  0  0  0  0  0  0
   34.5040   21.8280   32.6150 H   0  0  0  0  0  0  0  0  0  0  0  0
   35.8520   20.7710   31.4160 O   0  0  0  0  0  0  0  0  0  0  0  0
   37.2260   20.7940   31.3220 C   0  0  0  0  0  3  0  0  0  0  0  0
   37.6120   20.5790   32.3580 H   0  0  0  0  0  0  0  0  0  0  0  0
   37.8070   22.0340   30.7660 C   0  0  0  0  0  3  0  0  0  0  0  0
   38.1820   21.8000   29.7420 H   0  0  0  0  0  0  0  0  0  0  0  0
  1  5  1  0  0  0  0
  2  3  1  0  0  0  0
  2  1  2  0  0  0  0
  3  4  2  0  0  0  0
  4  5  1  0  0  0  0
  4 10  1  0  0  0  0
  6  2  1  0  0  0  0
  7  3  1  0  0  0  0
  8  9  1  0  0  0  0
  9 15  1  0  0  0  0
 10 11  1  0  0  0  0
 10  9  2  0  0  0  0
 11 12  2  0  0  0  0
 12 17  1  0  0  0  0
 12 13  1  0  0  0  0
 13 14  1  0  0  0  0
 15 18  1  0  0  0  0
 15 13  2  0  0  0  0
 16 11  1  0  0  0  0
 19 20  1  0  0  0  0
 19 25  1  0  0  0  0
 20 26  1  0  0  0  0
 21  1  1  0  0  0  0
 21 20  2  0  0  0  0
 22 21  1  0  0  0  0
 23 22  2  0  0  0  0
 23 24  1  0  0  0  0
 24 19  2  0  0  0  0
 27 28  1  0  0  0  0
 27 23  1  0  0  0  0
 28 29  1  0  0  0  0
 28 30  1  0  0  0  0
 30 31  1  0  0  0  0
 32 30  1  0  0  0  0
 33 32  1  0  0  0  0
 33 34  1  0  0  0  0
 35 27  1  0  0  0  0
 35 33  1  0  0  0  0
 36 35  1  0  0  0  0
M  END
>  <minimizedAffinity>
-5.78865194

$$$$

 OpenBabel03272503213D

 36 39  0  0  0  0  0  0  0  0999 V2000
   37.1830   27.6170   34.4410 C   0  0  0  0  0  0  0  0  0  0  0  0
   37.7700   27.8830   35.6080 C   0  0  0  0  0  0  0  0  0  0  0  0
   38.5970   26.9840   36.1660 C   0  0  0  0  0  0  0  0  0  0  0  0
   38.8000   25.8040   35.4810 C   0  0  0  0  0  0  0  0  0  0  0  0
   37.7560   26.0170   33.9920 S   0  0  0  0  0  0  0  0  0  0  0  0
   37.5560   28.8460   36.0900 H   0  0  0  0  0  0  0  0  0  0  0  0
   39.1360   27.0660   37.1000 H   0  0  0  0  0  0  0  0  0  0  0  0
   41.6210   25.8120   34.3110 Cl  0  0  0  0  0  0  0  0  0  0  0  0
   40.8640   24.5570   35.2610 C   0  0  0  0  0  0  0  0  0  0  0  0
   39.5960   24.6260   35.7500 C   0  0  0  0  0  0  0  0  0  0  0  0
   38.9750   23.6780   36.4880 C   0  0  0  0  0  0  0  0  0  0  0  0
   39.6660   22.5030   36.7970 C   0  0  0  0  0  0  0  0  0  0  0  0
   40.9490   22.3730   36.3330 C   0  0  0  0  0  0  0  0  0  0  0  0
   41.9030   20.9330   36.6680 Cl  0  0  0  0  0  0  0  0  0  0  0  0
   41.5480   23.3810   35.5730 C   0  0  0  0  0  0  0  0  0  0  0  0
   37.9620   23.7320   36.8790 H   0  0  0  0  0  0  0  0  0  0  0  0
   39.1990   21.7250   37.3850 H   0  0  0  0  0  0  0  0  0  0  0  0
   42.5730   23.2810   35.2000 H   0  0  0  0  0  0  0  0  0  0  0  0
   35.4970   29.3250   31.5420 C   0  0  0  0  0  0  0  0  0  0  0  0
   36.4550   28.5460   32.2310 C   0  0  0  0  0  0  0  0  0  0  0  0
   36.2550   28.4030   33.6230 C   0  0  0  0  0  0  0  0  0  0  0  0
   35.1970   28.9940   34.2140 N   0  0  0  0  0  0  0  0  0  0  0  0
   34.3180   29.7250   33.5030 C   0  0  0  0  0  0  0  0  0  0  0  0
   34.4700   29.8860   32.1810 N   0  0  0  0  0  0  0  0  0  0  0  0
   35.7450   29.3690   30.4830 H   0  0  0  0  0  0  0  0  0  0  0  0
   37.3070   28.0660   31.7730 H   0  0  0  0  0  0  0  0  0  0  0  0
   33.1450   30.3860   34.1310 C   0  0  0  0  0  3  0  0  0  0  0  0
   32.5520   29.4440   35.1240 C   0  0  0  0  0  3  0  0  0  0  0  0
   33.3400   28.7720   35.5140 H   0  0  0  0  0  0  0  0  0  0  0  0
   31.4440   28.6660   34.4200 C   0  0  0  0  0  3  0  0  0  0  0  0
   31.0980   27.8650   35.0780 H   0  0  0  0  0  0  0  0  0  0  0  0
   30.4420   29.6360   34.1800 O   0  0  0  0  0  0  0  0  0  0  0  0
   30.8500   30.3100   33.0490 C   0  0  0  0  0  3  0  0  0  0  0  0
   30.7710   29.5720   32.2020 H   0  0  0  0  0  0  0  0  0  0  0  0
   32.1930   30.9220   33.1200 C   0  0  0  0  0  3  0  0  0  0  0  0
   32.0560   32.0270   33.1930 H   0  0  0  0  0  0  0  0  0  0  0  0
  1  2  2  0  0  0  0
  2  6  1  0  0  0  0
  2  3  1  0  0  0  0
  3  7  1  0  0  0  0
  4 10  1  0  0  0  0
  4  3  2  0  0  0  0
  5  1  1  0  0  0  0
  5  4  1  0  0  0  0
  8  9  1  0  0  0  0
  9 15  2  0  0  0  0
  9 10  1  0  0  0  0
 10 11  2  0  0  0  0
 11 12  1  0  0  0  0
 11 16  1  0  0  0  0
 12 17  1  0  0  0  0
 13 14  1  0  0  0  0
 13 12  2  0  0  0  0
 15 13  1  0  0  0  0
 18 15  1  0  0  0  0
 19 24  2  0  0  0  0
 19 20  1  0  0  0  0
 20 21  2  0  0  0  0
 21 22  1  0  0  0  0
 21  1  1  0  0  0  0
 23 27  1  0  0  0  0
 23 22  2  0  0  0  0
 24 23  1  0  0  0  0
 25 19  1  0  0  0  0
 26 20  1  0  0  0  0
 27 28  1  0  0  0  0
 28 29  1  0  0  0  0
 30 31  1  0  0  0  0
 30 28  1  0  0  0  0
 32 30  1  0  0  0  0
 33 35  1  0  0  0  0
 33 32  1  0  0  0  0
 34 33  1  0  0  0  0
 35 36  1  0  0  0  0
 35 27  1  0  0  0  0
M  END
>  <minimizedAffinity>
-5.73023224

$$$$

 OpenBabel03272503213D

 36 39  0  0  0  0  0  0  0  0999 V2000
   37.9100   27.0680   33.7900 C   0  0  0  0  0  0  0  0  0  0  0  0
   37.9340   27.2950   35.1040 C   0  0  0  0  0  0  0  0  0  0  0  0
   38.5430   26.4250   35.9250 C   0  0  0  0  0  0  0  0  0  0  0  0
   39.1290   25.3170   35.3490 C   0  0  0  0  0  0  0  0  0  0  0  0
   38.7750   25.5550   33.5680 S   0  0  0  0  0  0  0  0  0  0  0  0
   37.4450   28.2010   35.4850 H   0  0  0  0  0  0  0  0  0  0  0  0
   38.6390   26.4810   37.0010 H   0  0  0  0  0  0  0  0  0  0  0  0
   37.5290   23.4370   37.1470 Cl  0  0  0  0  0  0  0  0  0  0  0  0
   39.2110   23.3070   36.6960 C   0  0  0  0  0  0  0  0  0  0  0  0
   39.8580   24.1880   35.8860 C   0  0  0  0  0  0  0  0  0  0  0  0
   41.1560   24.1230   35.5130 C   0  0  0  0  0  0  0  0  0  0  0  0
   41.9400   23.0660   35.9840 C   0  0  0  0  0  0  0  0  0  0  0  0
   41.3470   22.1430   36.8050 C   0  0  0  0  0  0  0  0  0  0  0  0
   42.2480   20.7770   37.4500 Cl  0  0  0  0  0  0  0  0  0  0  0  0
   40.0010   22.2540   37.1630 C   0  0  0  0  0  0  0  0  0  0  0  0
   41.6740   24.8260   34.8660 H   0  0  0  0  0  0  0  0  0  0  0  0
   42.9820   22.9840   35.7060 H   0  0  0  0  0  0  0  0  0  0  0  0
   39.5220   21.5200   37.8180 H   0  0  0  0  0  0  0  0  0  0  0  0
   35.7050   29.3360   31.7500 C   0  0  0  0  0  0  0  0  0  0  0  0
   36.1810   28.6390   32.8840 C   0  0  0  0  0  0  0  0  0  0  0  0
   37.3270   27.8370   32.6860 C   0  0  0  0  0  0  0  0  0  0  0  0
   37.8990   27.7720   31.4670 N   0  0  0  0  0  0  0  0  0  0  0  0
   37.3990   28.4600   30.4230 C   0  0  0  0  0  0  0  0  0  0  0  0
   36.3130   29.2330   30.5670 N   0  0  0  0  0  0  0  0  0  0  0  0
   34.8250   29.9200   32.0140 H   0  0  0  0  0  0  0  0  0  0  0  0
   35.7350   28.6800   33.8670 H   0  0  0  0  0  0  0  0  0  0  0  0
   38.0110   28.4050   29.0700 C   0  0  0  0  0  3  0  0  0  0  0  0
   39.4410   28.0090   29.2180 C   0  0  0  0  0  3  0  0  0  0  0  0
   39.5620   27.3920   30.1290 H   0  0  0  0  0  0  0  0  0  0  0  0
   40.2700   29.2880   29.2880 C   0  0  0  0  0  3  0  0  0  0  0  0
   41.2990   29.0310   29.5500 H   0  0  0  0  0  0  0  0  0  0  0  0
   40.1670   29.8370   27.9880 O   0  0  0  0  0  0  0  0  0  0  0  0
   38.9520   30.4860   27.9610 C   0  0  0  0  0  3  0  0  0  0  0  0
   39.0540   31.3650   28.6580 H   0  0  0  0  0  0  0  0  0  0  0  0
   37.7770   29.6550   28.2960 C   0  0  0  0  0  3  0  0  0  0  0  0
   37.2060   29.4820   27.3530 H   0  0  0  0  0  0  0  0  0  0  0  0
  1  2  2  0  0  0  0
  2  6  1  0  0  0  0
  2  3  1  0  0  0  0
  3  7  1  0  0  0  0
  4 10  1  0  0  0  0
  4  3  2  0  0  0  0
  5  1  1  0  0  0  0
  5  4  1  0  0  0  0
  9  8  1  0  0  0  0
  9 15  1  0  0  0  0
 10  9  2  0  0  0  0
 11 10  1  0  0  0  0
 11 12  2  0  0  0  0
 12 13  1  0  0  0  0
 13 15  2  0  0  0  0
 13 14  1  0  0  0  0
 15 18  1  0  0  0  0
 16 11  1  0  0  0  0
 17 12  1  0  0  0  0
 19 25  1  0  0  0  0
 19 20  1  0  0  0  0
 20 26  1  0  0  0  0
 21 20  2  0  0  0  0
 21  1  1  0  0  0  0
 22 21  1  0  0  0  0
 23 24  1  0  0  0  0
 23 22  2  0  0  0  0
 24 19  2  0  0  0  0
 27 28  1  0  0  0  0
 27 23  1  0  0  0  0
 28 30  1  0  0  0  0
 28 29  1  0  0  0  0
 30 31  1  0  0  0  0
 32 30  1  0  0  0  0
 33 32  1  0  0  0  0
 33 35  1  0  0  0  0
 33 34  1  0  0  0  0
 35 27  1  0  0  0  0
 36 35  1  0  0  0  0
M  END
>  <minimizedAffinity>
-5.69960213

$$$$

 OpenBabel03272503213D

 36 39  0  0  0  0  0  0  0  0999 V2000
   37.4460   26.5630   32.9670 C   0  0  0  0  0  0  0  0  0  0  0  0
   37.1100   25.3190   32.6250 C   0  0  0  0  0  0  0  0  0  0  0  0
   37.6770   24.2740   33.2490 C   0  0  0  0  0  0  0  0  0  0  0  0
   38.5980   24.5530   34.2370 C   0  0  0  0  0  0  0  0  0  0  0  0
   38.6340   26.3840   34.2490 S   0  0  0  0  0  0  0  0  0  0  0  0
   36.3690   25.1810   31.8280 H   0  0  0  0  0  0  0  0  0  0  0  0
   37.5030   23.2210   33.0760 H   0  0  0  0  0  0  0  0  0  0  0  0
   37.5850   24.2780   37.1050 Cl  0  0  0  0  0  0  0  0  0  0  0  0
   39.0100   23.5520   36.4030 C   0  0  0  0  0  0  0  0  0  0  0  0
   39.3990   23.7220   35.1100 C   0  0  0  0  0  0  0  0  0  0  0  0
   40.4930   23.1800   34.5300 C   0  0  0  0  0  0  0  0  0  0  0  0
   41.3280   22.3620   35.2970 C   0  0  0  0  0  0  0  0  0  0  0  0
   40.9910   22.1510   36.6080 C   0  0  0  0  0  0  0  0  0  0  0  0
   41.9750   21.1390   37.6570 Cl  0  0  0  0  0  0  0  0  0  0  0  0
   39.8490   22.7350   37.1630 C   0  0  0  0  0  0  0  0  0  0  0  0
   40.8050   23.3150   33.4970 H   0  0  0  0  0  0  0  0  0  0  0  0
   42.2110   21.9120   34.8640 H   0  0  0  0  0  0  0  0  0  0  0  0
   39.5750   22.5690   38.2100 H   0  0  0  0  0  0  0  0  0  0  0  0
   36.7840   29.5360   30.7540 C   0  0  0  0  0  0  0  0  0  0  0  0
   37.2710   28.2640   31.1350 C   0  0  0  0  0  0  0  0  0  0  0  0
   36.9910   27.8620   32.4610 C   0  0  0  0  0  0  0  0  0  0  0  0
   36.2970   28.6790   33.2790 N   0  0  0  0  0  0  0  0  0  0  0  0
   35.8600   29.8810   32.8580 C   0  0  0  0  0  0  0  0  0  0  0  0
   36.1020   30.3010   31.6080 N   0  0  0  0  0  0  0  0  0  0  0  0
   37.0520   29.7430   29.7210 H   0  0  0  0  0  0  0  0  0  0  0  0
   37.8270   27.5980   30.4930 H   0  0  0  0  0  0  0  0  0  0  0  0
   35.0920   30.7990   33.7390 C   0  0  0  0  0  3  0  0  0  0  0  0
   35.2310   32.1850   33.2060 C   0  0  0  0  0  3  0  0  0  0  0  0
   35.3940   32.1470   32.1130 H   0  0  0  0  0  0  0  0  0  0  0  0
   36.4020   32.8440   33.9300 C   0  0  0  0  0  3  0  0  0  0  0  0
   36.6220   33.8010   33.4520 H   0  0  0  0  0  0  0  0  0  0  0  0
   35.9430   32.9980   35.2590 O   0  0  0  0  0  0  0  0  0  0  0  0
   36.1170   31.7660   35.8510 C   0  0  0  0  0  3  0  0  0  0  0  0
   37.2300   31.6130   35.9270 H   0  0  0  0  0  0  0  0  0  0  0  0
   35.4520   30.6330   35.1740 C   0  0  0  0  0  3  0  0  0  0  0  0
   34.5880   30.3220   35.8070 H   0  0  0  0  0  0  0  0  0  0  0  0
  1  5  1  0  0  0  0
  2  1  2  0  0  0  0
  2  3  1  0  0  0  0
  3  4  2  0  0  0  0
  4  5  1  0  0  0  0
  4 10  1  0  0  0  0
  6  2  1  0  0  0  0
  7  3  1  0  0  0  0
  9  8  1  0  0  0  0
  9 15  1  0  0  0  0
 10  9  2  0  0  0  0
 11 10  1  0  0  0  0
 11 12  2  0  0  0  0
 12 13  1  0  0  0  0
 13 15  2  0  0  0  0
 13 14  1  0  0  0  0
 15 18  1  0  0  0  0
 16 11  1  0  0  0  0
 17 12  1  0  0  0  0
 19 20  2  0  0  0  0
 19 24  1  0  0  0  0
 20 21  1  0  0  0  0
 21  1  1  0  0  0  0
 21 22  2  0  0  0  0
 23 22  1  0  0  0  0
 23 27  1  0  0  0  0
 24 23  2  0  0  0  0
 25 19  1  0  0  0  0
 26 20  1  0  0  0  0
 27 35  1  0  0  0  0
 28 27  1  0  0  0  0
 28 30  1  0  0  0  0
 29 28  1  0  0  0  0
 30 32  1  0  0  0  0
 31 30  1  0  0  0  0
 32 33  1  0  0  0  0
 33 34  1  0  0  0  0
 35 36  1  0  0  0  0
 35 33  1  0  0  0  0
M  END
>  <minimizedAffinity>
-5.67789459

$$$$

 OpenBabel03272503213D

 36 39  0  0  0  0  0  0  0  0999 V2000
   37.4800   27.3830   34.1370 C   0  0  0  0  0  0  0  0  0  0  0  0
   37.8470   27.6000   35.4000 C   0  0  0  0  0  0  0  0  0  0  0  0
   38.6270   26.7100   36.0350 C   0  0  0  0  0  0  0  0  0  0  0  0
   39.0160   25.5920   35.3260 C   0  0  0  0  0  0  0  0  0  0  0  0
   38.2210   25.8510   33.6970 S   0  0  0  0  0  0  0  0  0  0  0  0
   37.4960   28.5140   35.8950 H   0  0  0  0  0  0  0  0  0  0  0  0
   38.9990   26.7550   37.0500 H   0  0  0  0  0  0  0  0  0  0  0  0
   41.9100   25.6930   34.3540 Cl  0  0  0  0  0  0  0  0  0  0  0  0
   41.1320   24.4160   35.2550 C   0  0  0  0  0  0  0  0  0  0  0  0
   39.8310   24.4430   35.6550 C   0  0  0  0  0  0  0  0  0  0  0  0
   39.1930   23.4760   36.3530 C   0  0  0  0  0  0  0  0  0  0  0  0
   39.9000   22.3270   36.7150 C   0  0  0  0  0  0  0  0  0  0  0  0
   41.2150   22.2390   36.3420 C   0  0  0  0  0  0  0  0  0  0  0  0
   42.1920   20.8340   36.7490 Cl  0  0  0  0  0  0  0  0  0  0  0  0
   41.8320   23.2640   35.6210 C   0  0  0  0  0  0  0  0  0  0  0  0
   38.1540   23.4960   36.6730 H   0  0  0  0  0  0  0  0  0  0  0  0
   39.4200   21.5340   37.2730 H   0  0  0  0  0  0  0  0  0  0  0  0
   42.8820   23.1990   35.3200 H   0  0  0  0  0  0  0  0  0  0  0  0
   36.1340   29.1040   31.0710 C   0  0  0  0  0  0  0  0  0  0  0  0
   37.0070   28.3220   31.8620 C   0  0  0  0  0  0  0  0  0  0  0  0
   36.6500   28.1730   33.2210 C   0  0  0  0  0  0  0  0  0  0  0  0
   35.5320   28.7610   33.6910 N   0  0  0  0  0  0  0  0  0  0  0  0
   34.7390   29.4950   32.8870 C   0  0  0  0  0  0  0  0  0  0  0  0
   35.0400   29.6620   31.5920 N   0  0  0  0  0  0  0  0  0  0  0  0
   36.5010   29.1520   30.0480 H   0  0  0  0  0  0  0  0  0  0  0  0
   37.9060   27.8430   31.5020 H   0  0  0  0  0  0  0  0  0  0  0  0
   33.5020   30.1540   33.3810 C   0  0  0  0  0  3  0  0  0  0  0  0
   33.6200   31.6200   33.1330 C   0  0  0  0  0  3  0  0  0  0  0  0
   34.2730   31.7960   32.2580 H   0  0  0  0  0  0  0  0  0  0  0  0
   34.1860   32.2580   34.3990 C   0  0  0  0  0  3  0  0  0  0  0  0
   34.4260   33.3040   34.1920 H   0  0  0  0  0  0  0  0  0  0  0  0
   33.1450   32.1220   35.3480 O   0  0  0  0  0  0  0  0  0  0  0  0
   33.2440   30.8290   35.8140 C   0  0  0  0  0  3  0  0  0  0  0  0
   34.2040   30.7830   36.4020 H   0  0  0  0  0  0  0  0  0  0  0  0
   33.1820   29.7720   34.7830 C   0  0  0  0  0  3  0  0  0  0  0  0
   32.1940   29.2630   34.8820 H   0  0  0  0  0  0  0  0  0  0  0  0
  1  2  2  0  0  0  0
  2  6  1  0  0  0  0
  2  3  1  0  0  0  0
  3  7  1  0  0  0  0
  4 10  1  0  0  0  0
  4  3  2  0  0  0  0
  5  1  1  0  0  0  0
  5  4  1  0  0  0  0
  8  9  1  0  0  0  0
  9 15  2  0  0  0  0
  9 10  1  0  0  0  0
 10 11  2  0  0  0  0
 11 16  1  0  0  0  0
 11 12  1  0  0  0  0
 12 17  1  0  0  0  0
 13 12  2  0  0  0  0
 13 14  1  0  0  0  0
 15 13  1  0  0  0  0
 18 15  1  0  0  0  0
 19 24  2  0  0  0  0
 19 20  1  0  0  0  0
 20 21  2  0  0  0  0
 21 22  1  0  0  0  0
 21  1  1  0  0  0  0
 23 27  1  0  0  0  0
 23 22  2  0  0  0  0
 24 23  1  0  0  0  0
 25 19  1  0  0  0  0
 26 20  1  0  0  0  0
 27 35  1  0  0  0  0
 28 27  1  0  0  0  0
 28 30  1  0  0  0  0
 29 28  1  0  0  0  0
 30 32  1  0  0  0  0
 31 30  1  0  0  0  0
 32 33  1  0  0  0  0
 33 34  1  0  0  0  0
 35 36  1  0  0  0  0
 35 33  1  0  0  0  0
M  END
>  <minimizedAffinity>
-5.6203618

$$$$

 OpenBabel03272503213D

 36 39  0  0  0  0  0  0  0  0999 V2000
   37.0680   27.1630   33.6870 C   0  0  0  0  0  0  0  0  0  0  0  0
   36.7710   28.0690   34.6200 C   0  0  0  0  0  0  0  0  0  0  0  0
   35.9130   29.0630   34.3420 C   0  0  0  0  0  0  0  0  0  0  0  0
   35.3690   29.0930   33.0740 C   0  0  0  0  0  0  0  0  0  0  0  0
   36.1350   27.6340   32.2740 S   0  0  0  0  0  0  0  0  0  0  0  0
   37.2460   27.9760   35.6040 H   0  0  0  0  0  0  0  0  0  0  0  0
   35.5830   29.8600   34.9950 H   0  0  0  0  0  0  0  0  0  0  0  0
   36.5990   31.1560   31.1880 Cl  0  0  0  0  0  0  0  0  0  0  0  0
   34.9080   30.9260   31.5610 C   0  0  0  0  0  0  0  0  0  0  0  0
   34.4340   29.9800   32.4160 C   0  0  0  0  0  0  0  0  0  0  0  0
   33.1360   29.7690   32.7310 C   0  0  0  0  0  0  0  0  0  0  0  0
   32.1600   30.5800   32.1440 C   0  0  0  0  0  0  0  0  0  0  0  0
   32.5730   31.5520   31.2720 C   0  0  0  0  0  0  0  0  0  0  0  0
   31.4240   32.6230   30.4810 Cl  0  0  0  0  0  0  0  0  0  0  0  0
   33.9280   31.7320   30.9790 C   0  0  0  0  0  0  0  0  0  0  0  0
   32.7560   29.0140   33.4140 H   0  0  0  0  0  0  0  0  0  0  0  0
   31.1130   30.4390   32.3740 H   0  0  0  0  0  0  0  0  0  0  0  0
   34.2630   32.5070   30.2830 H   0  0  0  0  0  0  0  0  0  0  0  0
   39.7680   24.6680   32.8800 C   0  0  0  0  0  0  0  0  0  0  0  0
   38.9720   25.8300   32.7520 C   0  0  0  0  0  0  0  0  0  0  0  0
   37.9550   25.9960   33.7190 C   0  0  0  0  0  0  0  0  0  0  0  0
   37.7900   25.0720   34.6870 N   0  0  0  0  0  0  0  0  0  0  0  0
   38.5800   23.9850   34.7560 C   0  0  0  0  0  0  0  0  0  0  0  0
   39.5580   23.7880   33.8600 N   0  0  0  0  0  0  0  0  0  0  0  0
   40.5150   24.6410   32.0900 H   0  0  0  0  0  0  0  0  0  0  0  0
   39.0900   26.5790   31.9830 H   0  0  0  0  0  0  0  0  0  0  0  0
   38.4200   22.9540   35.8140 C   0  0  0  0  0  3  0  0  0  0  0  0
   37.4860   23.4850   36.8490 C   0  0  0  0  0  3  0  0  0  0  0  0
   36.7880   24.2050   36.3830 H   0  0  0  0  0  0  0  0  0  0  0  0
   38.3290   24.1390   37.9400 C   0  0  0  0  0  3  0  0  0  0  0  0
   37.6670   24.6690   38.6290 H   0  0  0  0  0  0  0  0  0  0  0  0
   38.9940   23.0540   38.5580 O   0  0  0  0  0  0  0  0  0  0  0  0
   40.0650   22.7690   37.7390 C   0  0  0  0  0  3  0  0  0  0  0  0
   40.7650   23.6470   37.8240 H   0  0  0  0  0  0  0  0  0  0  0  0
   39.7290   22.4700   36.3310 C   0  0  0  0  0  3  0  0  0  0  0  0
   39.8830   21.3760   36.1730 H   0  0  0  0  0  0  0  0  0  0  0  0
  1 21  1  0  0  0  0
  1  2  2  0  0  0  0
  2  6  1  0  0  0  0
  3  2  1  0  0  0  0
  3  7  1  0  0  0  0
  4  3  2  0  0  0  0
  5  4  1  0  0  0  0
  5  1  1  0  0  0  0
  8  9  1  0  0  0  0
  9 10  1  0  0  0  0
 10 11  2  0  0  0  0
 10  4  1  0  0  0  0
 11 16  1  0  0  0  0
 12 17  1  0  0  0  0
 12 11  1  0  0  0  0
 13 12  2  0  0  0  0
 14 13  1  0  0  0  0
 15 13  1  0  0  0  0
 15  9  2  0  0  0  0
 18 15  1  0  0  0  0
 19 24  1  0  0  0  0
 20 19  2  0  0  0  0
 20 21  1  0  0  0  0
 21 22  2  0  0  0  0
 22 23  1  0  0  0  0
 23 27  1  0  0  0  0
 24 23  2  0  0  0  0
 25 19  1  0  0  0  0
 26 20  1  0  0  0  0
 27 35  1  0  0  0  0
 27 28  1  0  0  0  0
 28 30  1  0  0  0  0
 29 28  1  0  0  0  0
 30 32  1  0  0  0  0
 30 31  1  0  0  0  0
 33 34  1  0  0  0  0
 33 32  1  0  0  0  0
 35 33  1  0  0  0  0
 36 35  1  0  0  0  0
M  END
>  <minimizedAffinity>
-5.54725599

$$$$
