
 OpenBabel03272505273D

 32 34  0  0  0  0  0  0  0  0999 V2000
   37.5370   31.0400   47.0530 N   0  0  0  0  0  0  0  0  0  0  0  0
   37.0560   30.5450   45.8820 C   0  0  0  0  0  0  0  0  0  0  0  0
   37.5740   30.9300   44.6520 C   0  0  0  0  0  0  0  0  0  0  0  0
   38.6270   31.8620   44.6610 C   0  0  0  0  0  0  0  0  0  0  0  0
   39.1240   32.2360   43.5750 O   0  0  0  0  0  0  0  0  0  0  0  0
   39.1040   32.3530   45.8490 N   0  0  0  0  0  0  0  0  0  0  0  0
   38.5230   31.9060   46.9550 C   0  0  0  0  0  0  0  0  0  0  0  0
   38.9870   32.3830   48.0180 O   0  0  0  0  0  0  0  0  0  0  0  0
   36.2440   29.8270   45.9000 H   0  0  0  0  0  0  0  0  0  0  0  0
   37.0230   30.3710   43.4270 C   0  0  0  0  0  3  0  0  0  0  0  0
   35.5250   30.1240   43.5000 C   0  0  0  0  0  3  0  0  0  0  0  0
   35.3170   29.3100   44.2440 H   0  0  0  0  0  0  0  0  0  0  0  0
   35.1090   29.5780   42.1510 C   0  0  0  0  0  3  0  0  0  0  0  0
   34.8560   28.4890   42.1930 H   0  0  0  0  0  0  0  0  0  0  0  0
   36.0940   29.7010   41.1820 O   0  0  0  0  0  0  0  0  0  0  0  0
   37.2330   28.9690   41.4710 C   0  0  0  0  0  3  0  0  0  0  0  0
   37.1490   27.9220   41.1610 H   0  0  0  0  0  0  0  0  0  0  0  0
   37.6490   29.1020   42.9420 C   0  0  0  0  0  3  0  0  0  0  0  0
   38.7510   29.0780   43.0490 H   0  0  0  0  0  0  0  0  0  0  0  0
   37.2390   29.7070   50.5040 C   0  0  0  0  0  0  0  0  0  0  0  0
   37.7810   30.1020   49.2710 C   0  0  0  0  0  0  0  0  0  0  0  0
   36.9990   30.6400   48.2810 C   0  0  0  0  0  0  0  0  0  0  0  0
   35.6630   30.7780   48.5330 N   0  0  0  0  0  0  0  0  0  0  0  0
   35.1160   30.4000   49.7190 C   0  0  0  0  0  0  0  0  0  0  0  0
   35.8950   29.8670   50.7020 N   0  0  0  0  0  0  0  0  0  0  0  0
   37.7880   29.2810   51.3220 H   0  0  0  0  0  0  0  0  0  0  0  0
   38.8310   29.9060   49.2620 H   0  0  0  0  0  0  0  0  0  0  0  0
   34.0500   30.5440   49.8350 H   0  0  0  0  0  0  0  0  0  0  0  0
   40.1950   33.3100   45.8520 C   0  0  0  0  0  0  0  0  0  0  0  0
   40.0040   34.2540   44.8970 F   0  0  0  0  0  0  0  0  0  0  0  0
   41.4170   32.7200   45.5770 F   0  0  0  0  0  0  0  0  0  0  0  0
   40.2310   33.9460   47.0880 F   0  0  0  0  0  0  0  0  0  0  0  0
  1 22  1  0  0  0  0
  2  9  1  0  0  0  0
  2  1  1  0  0  0  0
  3  4  1  0  0  0  0
  3  2  2  0  0  0  0
  4  6  1  0  0  0  0
  5  4  2  0  0  0  0
  6 29  1  0  0  0  0
  6  7  1  0  0  0  0
  7  1  1  0  0  0  0
  7  8  2  0  0  0  0
 10 11  1  0  0  0  0
 10  3  1  0  0  0  0
 11 12  1  0  0  0  0
 13 14  1  0  0  0  0
 13 11  1  0  0  0  0
 15 16  1  0  0  0  0
 15 13  1  0  0  0  0
 16 18  1  0  0  0  0
 17 16  1  0  0  0  0
 18 19  1  0  0  0  0
 18 10  1  0  0  0  0
 20 25  1  0  0  0  0
 20 26  1  0  0  0  0
 21 20  2  0  0  0  0
 22 23  2  0  0  0  0
 22 21  1  0  0  0  0
 23 24  1  0  0  0  0
 24 28  1  0  0  0  0
 24 25  2  0  0  0  0
 27 21  1  0  0  0  0
 29 32  1  0  0  0  0
 30 29  1  0  0  0  0
 31 29  1  0  0  0  0
M  END
>  <minimizedAffinity>
-6.01766872

>  <minimizedRMSD>
0.818383157

$$$$
