
 OpenBabel03272502273D

 41 44  0  0  0  0  0  0  0  0999 V2000
   35.9710   23.3620   30.8120 O   0  0  0  0  0  0  0  0  0  0  0  0
   38.5960   25.9410   30.8500 N   0  0  0  0  0  0  0  0  0  0  0  0
   38.0660   24.7110   30.7270 C   0  0  0  0  0  0  0  0  0  0  0  0
   36.7040   24.5290   30.8940 C   0  0  0  0  0  0  0  0  0  0  0  0
   35.9210   25.6300   31.1870 C   0  0  0  0  0  0  0  0  0  0  0  0
   34.6760   25.6960   31.3730 O   0  0  0  0  0  0  0  0  0  0  0  0
   36.4930   26.8530   31.3040 N   0  0  0  0  0  0  0  0  0  0  0  0
   37.8380   27.0090   31.1340 C   0  0  0  0  0  0  0  0  0  0  0  0
   38.4200   28.1200   31.2300 O   0  0  0  0  0  0  0  0  0  0  0  0
   39.6300   25.9560   30.7020 H   0  0  0  0  0  0  0  0  0  0  0  0
   38.5990   23.8070   30.5030 H   0  0  0  0  0  0  0  0  0  0  0  0
   35.8000   28.0730   31.6040 C   0  0  0  0  0  3  0  0  0  0  0  0
   35.8840   28.4590   33.0770 C   0  0  0  0  0  3  0  0  0  0  0  0
   36.7630   28.0040   33.5810 H   0  0  0  0  0  0  0  0  0  0  0  0
   35.9980   29.9510   33.2560 C   0  0  0  0  0  3  0  0  0  0  0  0
   35.6760   30.1640   34.3150 H   0  0  0  0  0  0  0  0  0  0  0  0
   35.2190   30.7100   32.4310 O   0  0  0  0  0  0  0  0  0  0  0  0
   35.0730   30.2870   31.1400 C   0  0  0  0  0  3  0  0  0  0  0  0
   35.3080   31.1660   30.4880 H   0  0  0  0  0  0  0  0  0  0  0  0
   36.1840   29.2650   30.8230 C   0  0  0  0  0  3  0  0  0  0  0  0
   36.1150   29.1680   29.7200 H   0  0  0  0  0  0  0  0  0  0  0  0
   35.2690   20.5860   33.0140 C   0  0  0  0  0  0  0  0  0  0  0  0
   36.2110   20.7960   34.0410 C   0  0  0  0  0  0  0  0  0  0  0  0
   37.0420   21.8910   33.9170 C   0  0  0  0  0  0  0  0  0  0  0  0
   36.8930   22.6690   32.8340 N   0  0  0  0  0  0  0  0  0  0  0  0
   35.9880   22.4550   31.8610 C   0  0  0  0  0  0  0  0  0  0  0  0
   35.1710   21.3990   31.9620 N   0  0  0  0  0  0  0  0  0  0  0  0
   34.6510   19.7190   33.1690 H   0  0  0  0  0  0  0  0  0  0  0  0
   36.3370   20.1800   34.9100 H   0  0  0  0  0  0  0  0  0  0  0  0
   38.0440   22.2300   34.9010 C   0  0  0  0  0  0  0  0  0  0  0  0
   39.3990   22.0740   34.6230 C   0  0  0  0  0  0  0  0  0  0  0  0
   40.3890   22.3880   35.5150 C   0  0  0  0  0  0  0  0  0  0  0  0
   40.0380   22.8750   36.7310 N   0  0  0  0  0  0  0  0  0  0  0  0
   38.7360   23.0190   36.9860 C   0  0  0  0  0  0  0  0  0  0  0  0
   37.7390   22.7190   36.1260 N   0  0  0  0  0  0  0  0  0  0  0  0
   39.6430   21.6800   33.6340 H   0  0  0  0  0  0  0  0  0  0  0  0
   41.4260   22.2440   35.2400 H   0  0  0  0  0  0  0  0  0  0  0  0
   38.3340   23.5520   38.3150 C   0  0  0  0  0  0  0  0  0  0  0  0
   37.9470   24.8920   38.1280 F   0  0  0  0  0  0  0  0  0  0  0  0
   37.3060   22.8190   38.8490 F   0  0  0  0  0  0  0  0  0  0  0  0
   39.3930   23.5970   39.1960 F   0  0  0  0  0  0  0  0  0  0  0  0
  1  4  1  0  0  0  0
  1 26  1  0  0  0  0
  2  8  1  0  0  0  0
  3  2  1  0  0  0  0
  3  4  2  0  0  0  0
  4  5  1  0  0  0  0
  5  7  1  0  0  0  0
  5  6  2  0  0  0  0
  7 12  1  0  0  0  0
  8  9  2  0  0  0  0
  8  7  1  0  0  0  0
 10  2  1  0  0  0  0
 11  3  1  0  0  0  0
 12 13  1  0  0  0  0
 13 15  1  0  0  0  0
 13 14  1  0  0  0  0
 15 16  1  0  0  0  0
 17 15  1  0  0  0  0
 18 17  1  0  0  0  0
 19 18  1  0  0  0  0
 20 18  1  0  0  0  0
 20 12  1  0  0  0  0
 21 20  1  0  0  0  0
 22 28  1  0  0  0  0
 22 23  1  0  0  0  0
 23 29  1  0  0  0  0
 24 23  2  0  0  0  0
 24 30  1  0  0  0  0
 25 24  1  0  0  0  0
 26 27  1  0  0  0  0
 26 25  2  0  0  0  0
 27 22  2  0  0  0  0
 30 35  1  0  0  0  0
 31 30  2  0  0  0  0
 31 32  1  0  0  0  0
 32 33  2  0  0  0  0
 33 34  1  0  0  0  0
 34 38  1  0  0  0  0
 35 34  2  0  0  0  0
 36 31  1  0  0  0  0
 37 32  1  0  0  0  0
 38 40  1  0  0  0  0
 38 41  1  0  0  0  0
 39 38  1  0  0  0  0
M  END
>  <minimizedAffinity>
-6.80367279

$$$$

 OpenBabel03272502273D

 41 44  0  0  0  0  0  0  0  0999 V2000
   36.3570   27.7570   31.9470 O   0  0  0  0  0  0  0  0  0  0  0  0
   36.3220   31.3640   31.2130 N   0  0  0  0  0  0  0  0  0  0  0  0
   36.5310   30.0540   30.9910 C   0  0  0  0  0  0  0  0  0  0  0  0
   36.2190   29.1310   31.9740 C   0  0  0  0  0  0  0  0  0  0  0  0
   35.6960   29.5900   33.1700 C   0  0  0  0  0  0  0  0  0  0  0  0
   35.3420   28.9360   34.1870 O   0  0  0  0  0  0  0  0  0  0  0  0
   35.5020   30.9180   33.3550 N   0  0  0  0  0  0  0  0  0  0  0  0
   35.8160   31.8100   32.3710 C   0  0  0  0  0  0  0  0  0  0  0  0
   35.6550   33.0520   32.4900 O   0  0  0  0  0  0  0  0  0  0  0  0
   36.5940   31.9630   30.4020 H   0  0  0  0  0  0  0  0  0  0  0  0
   36.9310   29.6150   30.0970 H   0  0  0  0  0  0  0  0  0  0  0  0
   34.9710   31.5250   34.5420 C   0  0  0  0  0  3  0  0  0  0  0  0
   33.5150   31.1530   34.8000 C   0  0  0  0  0  3  0  0  0  0  0  0
   33.2300   30.1990   34.3070 H   0  0  0  0  0  0  0  0  0  0  0  0
   33.2350   30.9890   36.2720 C   0  0  0  0  0  3  0  0  0  0  0  0
   32.1190   31.0980   36.3920 H   0  0  0  0  0  0  0  0  0  0  0  0
   33.8250   31.9030   37.0950 O   0  0  0  0  0  0  0  0  0  0  0  0
   35.0950   32.3010   36.7840 C   0  0  0  0  0  3  0  0  0  0  0  0
   35.7030   32.1860   37.7170 H   0  0  0  0  0  0  0  0  0  0  0  0
   35.7070   31.2850   35.7980 C   0  0  0  0  0  3  0  0  0  0  0  0
   36.7800   31.5660   35.7960 H   0  0  0  0  0  0  0  0  0  0  0  0
   39.8450   26.9230   32.3680 C   0  0  0  0  0  0  0  0  0  0  0  0
   39.7700   25.8450   33.2730 C   0  0  0  0  0  0  0  0  0  0  0  0
   38.5120   25.4630   33.6910 C   0  0  0  0  0  0  0  0  0  0  0  0
   37.4600   26.1420   33.2080 N   0  0  0  0  0  0  0  0  0  0  0  0
   37.5480   27.1700   32.3440 C   0  0  0  0  0  0  0  0  0  0  0  0
   38.7600   27.5570   31.9250 N   0  0  0  0  0  0  0  0  0  0  0  0
   40.8520   27.1720   32.0800 H   0  0  0  0  0  0  0  0  0  0  0  0
   40.6050   25.2970   33.6640 H   0  0  0  0  0  0  0  0  0  0  0  0
   38.2890   24.3680   34.6070 C   0  0  0  0  0  0  0  0  0  0  0  0
   37.9990   23.0910   34.1350 C   0  0  0  0  0  0  0  0  0  0  0  0
   37.7880   22.0170   34.9570 C   0  0  0  0  0  0  0  0  0  0  0  0
   37.8630   22.2000   36.2990 N   0  0  0  0  0  0  0  0  0  0  0  0
   38.1410   23.4290   36.7390 C   0  0  0  0  0  0  0  0  0  0  0  0
   38.3540   24.5060   35.9520 N   0  0  0  0  0  0  0  0  0  0  0  0
   37.9470   22.9820   33.0490 H   0  0  0  0  0  0  0  0  0  0  0  0
   37.5660   21.0480   34.5300 H   0  0  0  0  0  0  0  0  0  0  0  0
   38.2270   23.6480   38.2070 C   0  0  0  0  0  0  0  0  0  0  0  0
   39.5210   23.2690   38.6110 F   0  0  0  0  0  0  0  0  0  0  0  0
   37.9830   24.9590   38.5260 F   0  0  0  0  0  0  0  0  0  0  0  0
   37.3710   22.8230   38.9040 F   0  0  0  0  0  0  0  0  0  0  0  0
  1  4  1  0  0  0  0
  1 26  1  0  0  0  0
  2  8  1  0  0  0  0
  3  2  1  0  0  0  0
  3  4  2  0  0  0  0
  4  5  1  0  0  0  0
  5  7  1  0  0  0  0
  5  6  2  0  0  0  0
  7 12  1  0  0  0  0
  8  9  2  0  0  0  0
  8  7  1  0  0  0  0
 10  2  1  0  0  0  0
 11  3  1  0  0  0  0
 12 13  1  0  0  0  0
 12 20  1  0  0  0  0
 13 15  1  0  0  0  0
 14 13  1  0  0  0  0
 15 16  1  0  0  0  0
 15 17  1  0  0  0  0
 18 17  1  0  0  0  0
 18 19  1  0  0  0  0
 20 18  1  0  0  0  0
 21 20  1  0  0  0  0
 22 23  1  0  0  0  0
 23 29  1  0  0  0  0
 23 24  2  0  0  0  0
 24 30  1  0  0  0  0
 25 24  1  0  0  0  0
 26 25  2  0  0  0  0
 27 26  1  0  0  0  0
 27 22  2  0  0  0  0
 28 22  1  0  0  0  0
 30 35  1  0  0  0  0
 31 30  2  0  0  0  0
 31 32  1  0  0  0  0
 32 33  2  0  0  0  0
 33 34  1  0  0  0  0
 34 38  1  0  0  0  0
 35 34  2  0  0  0  0
 36 31  1  0  0  0  0
 37 32  1  0  0  0  0
 38 40  1  0  0  0  0
 38 39  1  0  0  0  0
 38 41  1  0  0  0  0
M  END
>  <minimizedAffinity>
-6.75225258

$$$$

 OpenBabel03272502273D

 41 44  0  0  0  0  0  0  0  0999 V2000
   36.4490   23.0940   30.8280 O   0  0  0  0  0  0  0  0  0  0  0  0
   35.1990   26.5380   31.1720 N   0  0  0  0  0  0  0  0  0  0  0  0
   35.1380   25.1970   31.1030 C   0  0  0  0  0  0  0  0  0  0  0  0
   36.2980   24.4630   30.9260 C   0  0  0  0  0  0  0  0  0  0  0  0
   37.4990   25.1400   30.8230 C   0  0  0  0  0  0  0  0  0  0  0  0
   38.6620   24.6800   30.6640 O   0  0  0  0  0  0  0  0  0  0  0  0
   37.5190   26.4930   30.8950 N   0  0  0  0  0  0  0  0  0  0  0  0
   36.3620   27.1960   31.0710 C   0  0  0  0  0  0  0  0  0  0  0  0
   36.3240   28.4510   31.1470 O   0  0  0  0  0  0  0  0  0  0  0  0
   34.2630   26.9830   31.3070 H   0  0  0  0  0  0  0  0  0  0  0  0
   34.2520   24.5950   31.1730 H   0  0  0  0  0  0  0  0  0  0  0  0
   38.6910   27.3160   30.8030 C   0  0  0  0  0  3  0  0  0  0  0  0
   39.6170   27.1700   32.0050 C   0  0  0  0  0  3  0  0  0  0  0  0
   39.4740   26.2020   32.5320 H   0  0  0  0  0  0  0  0  0  0  0  0
   41.0680   27.2410   31.6020 C   0  0  0  0  0  3  0  0  0  0  0  0
   41.6390   27.5050   32.5370 H   0  0  0  0  0  0  0  0  0  0  0  0
   41.3770   28.1740   30.6560 O   0  0  0  0  0  0  0  0  0  0  0  0
   40.4800   28.3630   29.6420 C   0  0  0  0  0  3  0  0  0  0  0  0
   41.0600   28.2970   28.6870 H   0  0  0  0  0  0  0  0  0  0  0  0
   39.5230   27.1540   29.5950 C   0  0  0  0  0  3  0  0  0  0  0  0
   39.0050   27.2940   28.6240 H   0  0  0  0  0  0  0  0  0  0  0  0
   35.4020   20.6130   33.2340 C   0  0  0  0  0  0  0  0  0  0  0  0
   36.2930   20.8580   34.2980 C   0  0  0  0  0  0  0  0  0  0  0  0
   37.2130   21.8720   34.1260 C   0  0  0  0  0  0  0  0  0  0  0  0
   37.1910   22.5450   32.9650 N   0  0  0  0  0  0  0  0  0  0  0  0
   36.3320   22.2990   31.9580 C   0  0  0  0  0  0  0  0  0  0  0  0
   35.4310   21.3190   32.1050 N   0  0  0  0  0  0  0  0  0  0  0  0
   34.7110   19.8110   33.4310 H   0  0  0  0  0  0  0  0  0  0  0  0
   36.3190   20.3250   35.2290 H   0  0  0  0  0  0  0  0  0  0  0  0
   38.1770   22.2370   35.1380 C   0  0  0  0  0  0  0  0  0  0  0  0
   39.5420   22.0880   34.9110 C   0  0  0  0  0  0  0  0  0  0  0  0
   40.4970   22.4260   35.8320 C   0  0  0  0  0  0  0  0  0  0  0  0
   40.1000   22.9300   37.0260 N   0  0  0  0  0  0  0  0  0  0  0  0
   38.7890   23.0680   37.2320 C   0  0  0  0  0  0  0  0  0  0  0  0
   37.8250   22.7440   36.3440 N   0  0  0  0  0  0  0  0  0  0  0  0
   39.8240   21.6790   33.9380 H   0  0  0  0  0  0  0  0  0  0  0  0
   41.5440   22.2870   35.5960 H   0  0  0  0  0  0  0  0  0  0  0  0
   38.3350   23.6200   38.5370 C   0  0  0  0  0  0  0  0  0  0  0  0
   37.9190   24.9440   38.3080 F   0  0  0  0  0  0  0  0  0  0  0  0
   37.3120   22.8720   39.0600 F   0  0  0  0  0  0  0  0  0  0  0  0
   39.3680   23.7130   39.4450 F   0  0  0  0  0  0  0  0  0  0  0  0
  1  4  1  0  0  0  0
  1 26  1  0  0  0  0
  2 10  1  0  0  0  0
  3  2  1  0  0  0  0
  3 11  1  0  0  0  0
  4  3  2  0  0  0  0
  5  7  1  0  0  0  0
  5  4  1  0  0  0  0
  6  5  2  0  0  0  0
  7  8  1  0  0  0  0
  8  9  2  0  0  0  0
  8  2  1  0  0  0  0
 12  7  1  0  0  0  0
 12 13  1  0  0  0  0
 13 14  1  0  0  0  0
 15 13  1  0  0  0  0
 15 16  1  0  0  0  0
 17 15  1  0  0  0  0
 18 17  1  0  0  0  0
 19 18  1  0  0  0  0
 20 18  1  0  0  0  0
 20 12  1  0  0  0  0
 21 20  1  0  0  0  0
 22 28  1  0  0  0  0
 22 23  1  0  0  0  0
 23 29  1  0  0  0  0
 24 23  2  0  0  0  0
 24 30  1  0  0  0  0
 25 24  1  0  0  0  0
 26 27  1  0  0  0  0
 26 25  2  0  0  0  0
 27 22  2  0  0  0  0
 30 35  1  0  0  0  0
 31 30  2  0  0  0  0
 31 32  1  0  0  0  0
 32 33  2  0  0  0  0
 33 34  1  0  0  0  0
 34 38  1  0  0  0  0
 35 34  2  0  0  0  0
 36 31  1  0  0  0  0
 37 32  1  0  0  0  0
 38 40  1  0  0  0  0
 38 41  1  0  0  0  0
 39 38  1  0  0  0  0
M  END
>  <minimizedAffinity>
-6.66316509

$$$$

 OpenBabel03272502273D

 41 44  0  0  0  0  0  0  0  0999 V2000
   36.9810   22.8690   31.2340 O   0  0  0  0  0  0  0  0  0  0  0  0
   35.3200   26.1480   31.0520 N   0  0  0  0  0  0  0  0  0  0  0  0
   35.4200   24.8120   31.1740 C   0  0  0  0  0  0  0  0  0  0  0  0
   36.6650   24.2090   31.1310 C   0  0  0  0  0  0  0  0  0  0  0  0
   37.7810   25.0080   30.9610 C   0  0  0  0  0  0  0  0  0  0  0  0
   38.9950   24.6770   30.8980 O   0  0  0  0  0  0  0  0  0  0  0  0
   37.6370   26.3500   30.8410 N   0  0  0  0  0  0  0  0  0  0  0  0
   36.4000   26.9230   30.8870 C   0  0  0  0  0  0  0  0  0  0  0  0
   36.2100   28.1620   30.7820 O   0  0  0  0  0  0  0  0  0  0  0  0
   34.3330   26.4890   31.1000 H   0  0  0  0  0  0  0  0  0  0  0  0
   34.6090   24.1220   31.3080 H   0  0  0  0  0  0  0  0  0  0  0  0
   38.7070   27.2900   30.6600 C   0  0  0  0  0  3  0  0  0  0  0  0
   39.7120   27.2760   31.8060 C   0  0  0  0  0  3  0  0  0  0  0  0
   39.7040   26.3140   32.3610 H   0  0  0  0  0  0  0  0  0  0  0  0
   41.1210   27.4900   31.3150 C   0  0  0  0  0  3  0  0  0  0  0  0
   41.7130   27.8390   32.2070 H   0  0  0  0  0  0  0  0  0  0  0  0
   41.2720   28.4240   30.3320 O   0  0  0  0  0  0  0  0  0  0  0  0
   40.3030   28.4880   29.3710 C   0  0  0  0  0  3  0  0  0  0  0  0
   40.8300   28.4580   28.3840 H   0  0  0  0  0  0  0  0  0  0  0  0
   39.4800   27.1840   29.4070 C   0  0  0  0  0  3  0  0  0  0  0  0
   38.8950   27.2410   28.4660 H   0  0  0  0  0  0  0  0  0  0  0  0
   35.4760   20.6290   33.6340 C   0  0  0  0  0  0  0  0  0  0  0  0
   36.2320   20.9060   34.7900 C   0  0  0  0  0  0  0  0  0  0  0  0
   37.2260   21.8570   34.6780 C   0  0  0  0  0  0  0  0  0  0  0  0
   37.3980   22.4420   33.4840 N   0  0  0  0  0  0  0  0  0  0  0  0
   36.6670   22.1670   32.3870 C   0  0  0  0  0  0  0  0  0  0  0  0
   35.6970   21.2480   32.4740 N   0  0  0  0  0  0  0  0  0  0  0  0
   34.7180   19.8810   33.7860 H   0  0  0  0  0  0  0  0  0  0  0  0
   36.1020   20.4430   35.7490 H   0  0  0  0  0  0  0  0  0  0  0  0
   38.0670   22.2460   35.7860 C   0  0  0  0  0  0  0  0  0  0  0  0
   37.5590   23.0060   36.8360 C   0  0  0  0  0  0  0  0  0  0  0  0
   38.3080   23.3940   37.9140 C   0  0  0  0  0  0  0  0  0  0  0  0
   39.6120   23.0240   37.9660 N   0  0  0  0  0  0  0  0  0  0  0  0
   40.0880   22.2960   36.9540 C   0  0  0  0  0  0  0  0  0  0  0  0
   39.3730   21.8980   35.8800 N   0  0  0  0  0  0  0  0  0  0  0  0
   36.5050   23.2850   36.7580 H   0  0  0  0  0  0  0  0  0  0  0  0
   37.8550   23.9850   38.6990 H   0  0  0  0  0  0  0  0  0  0  0  0
   41.5150   21.8810   36.9960 C   0  0  0  0  0  0  0  0  0  0  0  0
   42.2900   23.0550   37.0490 F   0  0  0  0  0  0  0  0  0  0  0  0
   41.7660   21.0830   38.0820 F   0  0  0  0  0  0  0  0  0  0  0  0
   41.9010   21.2400   35.8380 F   0  0  0  0  0  0  0  0  0  0  0  0
  1 26  1  0  0  0  0
  2 10  1  0  0  0  0
  2  3  1  0  0  0  0
  3 11  1  0  0  0  0
  4  3  2  0  0  0  0
  4  1  1  0  0  0  0
  5  4  1  0  0  0  0
  6  5  2  0  0  0  0
  7  8  1  0  0  0  0
  7  5  1  0  0  0  0
  8  2  1  0  0  0  0
  9  8  2  0  0  0  0
 12  7  1  0  0  0  0
 12 13  1  0  0  0  0
 13 14  1  0  0  0  0
 15 13  1  0  0  0  0
 15 16  1  0  0  0  0
 17 15  1  0  0  0  0
 18 20  1  0  0  0  0
 18 17  1  0  0  0  0
 19 18  1  0  0  0  0
 20 12  1  0  0  0  0
 21 20  1  0  0  0  0
 22 28  1  0  0  0  0
 22 23  1  0  0  0  0
 23 29  1  0  0  0  0
 24 23  2  0  0  0  0
 24 30  1  0  0  0  0
 25 24  1  0  0  0  0
 26 27  1  0  0  0  0
 26 25  2  0  0  0  0
 27 22  2  0  0  0  0
 30 35  2  0  0  0  0
 30 31  1  0  0  0  0
 31 32  2  0  0  0  0
 32 33  1  0  0  0  0
 32 37  1  0  0  0  0
 34 38  1  0  0  0  0
 34 33  2  0  0  0  0
 35 34  1  0  0  0  0
 36 31  1  0  0  0  0
 38 39  1  0  0  0  0
 38 40  1  0  0  0  0
 41 38  1  0  0  0  0
M  END
>  <minimizedAffinity>
-6.52580404

$$$$

 OpenBabel03272502273D

 41 44  0  0  0  0  0  0  0  0999 V2000
   35.6240   28.6220   34.4300 O   0  0  0  0  0  0  0  0  0  0  0  0
   34.1330   31.0450   32.0950 N   0  0  0  0  0  0  0  0  0  0  0  0
   34.4990   29.8400   32.5680 C   0  0  0  0  0  0  0  0  0  0  0  0
   35.1650   29.7490   33.7770 C   0  0  0  0  0  0  0  0  0  0  0  0
   35.4400   30.9140   34.4700 C   0  0  0  0  0  0  0  0  0  0  0  0
   36.0250   31.0640   35.5760 O   0  0  0  0  0  0  0  0  0  0  0  0
   35.0560   32.1090   33.9590 N   0  0  0  0  0  0  0  0  0  0  0  0
   34.3990   32.1740   32.7650 C   0  0  0  0  0  0  0  0  0  0  0  0
   34.0190   33.2550   32.2460 O   0  0  0  0  0  0  0  0  0  0  0  0
   33.6370   30.9890   31.1770 H   0  0  0  0  0  0  0  0  0  0  0  0
   34.3260   28.8920   32.0970 H   0  0  0  0  0  0  0  0  0  0  0  0
   35.2780   33.3880   34.5710 C   0  0  0  0  0  3  0  0  0  0  0  0
   34.2920   33.6880   35.6950 C   0  0  0  0  0  3  0  0  0  0  0  0
   33.8530   32.7650   36.1280 H   0  0  0  0  0  0  0  0  0  0  0  0
   34.9480   34.4380   36.8260 C   0  0  0  0  0  3  0  0  0  0  0  0
   34.1140   34.9350   37.3970 H   0  0  0  0  0  0  0  0  0  0  0  0
   35.8310   35.4120   36.4610 O   0  0  0  0  0  0  0  0  0  0  0  0
   36.6340   35.1610   35.3840 C   0  0  0  0  0  3  0  0  0  0  0  0
   37.6820   35.3820   35.7090 H   0  0  0  0  0  0  0  0  0  0  0  0
   36.6300   33.6440   35.1030 C   0  0  0  0  0  3  0  0  0  0  0  0
   37.4670   33.5290   34.3850 H   0  0  0  0  0  0  0  0  0  0  0  0
   38.1320   27.2750   32.2080 C   0  0  0  0  0  0  0  0  0  0  0  0
   38.5470   26.1280   32.9130 C   0  0  0  0  0  0  0  0  0  0  0  0
   37.9340   25.8800   34.1250 C   0  0  0  0  0  0  0  0  0  0  0  0
   36.9960   26.7450   34.5390 N   0  0  0  0  0  0  0  0  0  0  0  0
   36.6100   27.8370   33.8530 C   0  0  0  0  0  0  0  0  0  0  0  0
   37.1910   28.0960   32.6750 N   0  0  0  0  0  0  0  0  0  0  0  0
   38.6460   27.4120   31.2720 H   0  0  0  0  0  0  0  0  0  0  0  0
   39.2950   25.4310   32.5910 H   0  0  0  0  0  0  0  0  0  0  0  0
   38.2540   24.7350   34.9460 C   0  0  0  0  0  0  0  0  0  0  0  0
   38.7150   23.5530   34.3730 C   0  0  0  0  0  0  0  0  0  0  0  0
   39.0410   22.4420   35.1040 C   0  0  0  0  0  0  0  0  0  0  0  0
   38.9100   22.4890   36.4530 N   0  0  0  0  0  0  0  0  0  0  0  0
   38.4670   23.6280   36.9900 C   0  0  0  0  0  0  0  0  0  0  0  0
   38.1390   24.7380   36.2950 N   0  0  0  0  0  0  0  0  0  0  0  0
   38.8080   23.5530   33.2840 H   0  0  0  0  0  0  0  0  0  0  0  0
   39.3940   21.5520   34.6000 H   0  0  0  0  0  0  0  0  0  0  0  0
   38.3170   23.6970   38.4680 C   0  0  0  0  0  0  0  0  0  0  0  0
   37.3090   22.7840   38.8280 F   0  0  0  0  0  0  0  0  0  0  0  0
   39.4960   23.3930   39.0980 F   0  0  0  0  0  0  0  0  0  0  0  0
   37.8610   24.9290   38.8840 F   0  0  0  0  0  0  0  0  0  0  0  0
  2  3  1  0  0  0  0
  2  8  1  0  0  0  0
  3  4  2  0  0  0  0
  4  1  1  0  0  0  0
  4  5  1  0  0  0  0
  5  6  2  0  0  0  0
  7  5  1  0  0  0  0
  7 12  1  0  0  0  0
  8  7  1  0  0  0  0
  9  8  2  0  0  0  0
 10  2  1  0  0  0  0
 11  3  1  0  0  0  0
 12 20  1  0  0  0  0
 12 13  1  0  0  0  0
 13 14  1  0  0  0  0
 13 15  1  0  0  0  0
 15 16  1  0  0  0  0
 17 15  1  0  0  0  0
 18 19  1  0  0  0  0
 18 17  1  0  0  0  0
 20 18  1  0  0  0  0
 21 20  1  0  0  0  0
 22 27  2  0  0  0  0
 22 23  1  0  0  0  0
 23 24  2  0  0  0  0
 24 25  1  0  0  0  0
 24 30  1  0  0  0  0
 26  1  1  0  0  0  0
 26 25  2  0  0  0  0
 27 26  1  0  0  0  0
 28 22  1  0  0  0  0
 29 23  1  0  0  0  0
 30 35  1  0  0  0  0
 31 30  2  0  0  0  0
 31 32  1  0  0  0  0
 32 33  2  0  0  0  0
 33 34  1  0  0  0  0
 34 38  1  0  0  0  0
 35 34  2  0  0  0  0
 36 31  1  0  0  0  0
 37 32  1  0  0  0  0
 38 39  1  0  0  0  0
 38 41  1  0  0  0  0
 38 40  1  0  0  0  0
M  END
>  <minimizedAffinity>
-6.42894363

$$$$

 OpenBabel03272502273D

 41 44  0  0  0  0  0  0  0  0999 V2000
   38.8330   26.5150   32.2310 O   0  0  0  0  0  0  0  0  0  0  0  0
   37.3880   23.1300   32.2240 N   0  0  0  0  0  0  0  0  0  0  0  0
   37.7780   24.3140   31.7190 C   0  0  0  0  0  0  0  0  0  0  0  0
   38.3690   25.2530   32.5470 C   0  0  0  0  0  0  0  0  0  0  0  0
   38.5410   24.9420   33.8830 C   0  0  0  0  0  0  0  0  0  0  0  0
   39.0510   25.6360   34.8030 O   0  0  0  0  0  0  0  0  0  0  0  0
   38.1320   23.7390   34.3530 N   0  0  0  0  0  0  0  0  0  0  0  0
   37.5530   22.8280   33.5180 C   0  0  0  0  0  0  0  0  0  0  0  0
   37.1570   21.6970   33.9010 O   0  0  0  0  0  0  0  0  0  0  0  0
   36.9570   22.5040   31.5070 H   0  0  0  0  0  0  0  0  0  0  0  0
   37.6820   24.6350   30.7000 H   0  0  0  0  0  0  0  0  0  0  0  0
   38.2490   23.2900   35.7120 C   0  0  0  0  0  3  0  0  0  0  0  0
   39.6240   22.7150   36.0320 C   0  0  0  0  0  3  0  0  0  0  0  0
   40.4100   23.0930   35.3430 H   0  0  0  0  0  0  0  0  0  0  0  0
   40.0620   23.0640   37.4320 C   0  0  0  0  0  3  0  0  0  0  0  0
   40.8590   22.3160   37.7050 H   0  0  0  0  0  0  0  0  0  0  0  0
   39.0930   22.9990   38.3910 O   0  0  0  0  0  0  0  0  0  0  0  0
   37.8400   23.4240   38.0480 C   0  0  0  0  0  3  0  0  0  0  0  0
   37.5210   24.1470   38.8400 H   0  0  0  0  0  0  0  0  0  0  0  0
   37.9370   24.2750   36.7660 C   0  0  0  0  0  3  0  0  0  0  0  0
   36.9340   24.7460   36.7120 H   0  0  0  0  0  0  0  0  0  0  0  0
   37.1200   28.6920   29.9140 C   0  0  0  0  0  0  0  0  0  0  0  0
   36.1910   29.3300   30.7610 C   0  0  0  0  0  0  0  0  0  0  0  0
   36.2070   28.9710   32.0940 C   0  0  0  0  0  0  0  0  0  0  0  0
   37.1000   28.0480   32.4810 N   0  0  0  0  0  0  0  0  0  0  0  0
   37.9810   27.4470   31.6600 C   0  0  0  0  0  0  0  0  0  0  0  0
   37.9830   27.7810   30.3630 N   0  0  0  0  0  0  0  0  0  0  0  0
   37.0580   29.0150   28.8890 H   0  0  0  0  0  0  0  0  0  0  0  0
   35.4750   30.0690   30.4600 H   0  0  0  0  0  0  0  0  0  0  0  0
   35.3190   29.5540   33.0730 C   0  0  0  0  0  0  0  0  0  0  0  0
   33.9620   29.2450   33.0780 C   0  0  0  0  0  0  0  0  0  0  0  0
   33.0780   29.7610   33.9880 C   0  0  0  0  0  0  0  0  0  0  0  0
   33.5420   30.6170   34.9320 N   0  0  0  0  0  0  0  0  0  0  0  0
   34.8450   30.9040   34.9170 C   0  0  0  0  0  0  0  0  0  0  0  0
   35.7390   30.4110   34.0340 N   0  0  0  0  0  0  0  0  0  0  0  0
   33.6250   28.5530   32.3030 H   0  0  0  0  0  0  0  0  0  0  0  0
   32.0340   29.4830   33.9390 H   0  0  0  0  0  0  0  0  0  0  0  0
   35.3710   31.8410   35.9460 C   0  0  0  0  0  0  0  0  0  0  0  0
   36.7400   31.5580   36.1060 F   0  0  0  0  0  0  0  0  0  0  0  0
   35.1850   33.1450   35.5670 F   0  0  0  0  0  0  0  0  0  0  0  0
   34.8050   31.6200   37.1830 F   0  0  0  0  0  0  0  0  0  0  0  0
  1  4  1  0  0  0  0
  2  8  1  0  0  0  0
  3  2  1  0  0  0  0
  3  4  2  0  0  0  0
  4  5  1  0  0  0  0
  5  7  1  0  0  0  0
  5  6  2  0  0  0  0
  7 12  1  0  0  0  0
  8  9  2  0  0  0  0
  8  7  1  0  0  0  0
 10  2  1  0  0  0  0
 11  3  1  0  0  0  0
 12 13  1  0  0  0  0
 12 20  1  0  0  0  0
 13 15  1  0  0  0  0
 14 13  1  0  0  0  0
 15 16  1  0  0  0  0
 15 17  1  0  0  0  0
 18 17  1  0  0  0  0
 18 19  1  0  0  0  0
 20 18  1  0  0  0  0
 21 20  1  0  0  0  0
 22 27  2  0  0  0  0
 22 23  1  0  0  0  0
 23 24  2  0  0  0  0
 24 25  1  0  0  0  0
 24 30  1  0  0  0  0
 26  1  1  0  0  0  0
 26 25  2  0  0  0  0
 27 26  1  0  0  0  0
 28 22  1  0  0  0  0
 29 23  1  0  0  0  0
 30 31  2  0  0  0  0
 30 35  1  0  0  0  0
 31 32  1  0  0  0  0
 32 33  2  0  0  0  0
 34 33  1  0  0  0  0
 34 38  1  0  0  0  0
 35 34  2  0  0  0  0
 36 31  1  0  0  0  0
 37 32  1  0  0  0  0
 38 39  1  0  0  0  0
 38 41  1  0  0  0  0
 40 38  1  0  0  0  0
M  END
>  <minimizedAffinity>
-6.41269588

$$$$

 OpenBabel03272502273D

 41 44  0  0  0  0  0  0  0  0999 V2000
   38.9100   26.5600   32.3100 O   0  0  0  0  0  0  0  0  0  0  0  0
   37.3990   23.2050   32.2450 N   0  0  0  0  0  0  0  0  0  0  0  0
   37.8170   24.3880   31.7600 C   0  0  0  0  0  0  0  0  0  0  0  0
   38.4170   25.3040   32.6050 C   0  0  0  0  0  0  0  0  0  0  0  0
   38.5700   24.9730   33.9390 C   0  0  0  0  0  0  0  0  0  0  0  0
   39.0840   25.6440   34.8730 O   0  0  0  0  0  0  0  0  0  0  0  0
   38.1330   23.7720   34.3890 N   0  0  0  0  0  0  0  0  0  0  0  0
   37.5450   22.8830   33.5370 C   0  0  0  0  0  0  0  0  0  0  0  0
   37.1240   21.7550   33.9020 O   0  0  0  0  0  0  0  0  0  0  0  0
   36.9630   22.5960   31.5160 H   0  0  0  0  0  0  0  0  0  0  0  0
   37.7380   24.7230   30.7440 H   0  0  0  0  0  0  0  0  0  0  0  0
   38.2280   23.3040   35.7430 C   0  0  0  0  0  3  0  0  0  0  0  0
   39.5850   22.6890   36.0670 C   0  0  0  0  0  3  0  0  0  0  0  0
   40.3850   23.0540   35.3880 H   0  0  0  0  0  0  0  0  0  0  0  0
   40.0200   23.0090   37.4740 C   0  0  0  0  0  3  0  0  0  0  0  0
   40.7950   22.2370   37.7440 H   0  0  0  0  0  0  0  0  0  0  0  0
   39.0430   22.9580   38.4240 O   0  0  0  0  0  0  0  0  0  0  0  0
   37.8040   23.4190   38.0780 C   0  0  0  0  0  3  0  0  0  0  0  0
   37.4980   24.1410   38.8760 H   0  0  0  0  0  0  0  0  0  0  0  0
   37.9330   24.2830   36.8070 C   0  0  0  0  0  3  0  0  0  0  0  0
   36.9430   24.7810   36.7510 H   0  0  0  0  0  0  0  0  0  0  0  0
   37.4100   28.8760   29.9800 C   0  0  0  0  0  0  0  0  0  0  0  0
   36.3350   29.3820   30.7370 C   0  0  0  0  0  0  0  0  0  0  0  0
   36.1860   28.8940   32.0190 C   0  0  0  0  0  0  0  0  0  0  0  0
   37.0690   27.9780   32.4460 N   0  0  0  0  0  0  0  0  0  0  0  0
   38.0910   27.5040   31.7100 C   0  0  0  0  0  0  0  0  0  0  0  0
   38.2550   27.9650   30.4630 N   0  0  0  0  0  0  0  0  0  0  0  0
   37.4740   29.2960   28.9910 H   0  0  0  0  0  0  0  0  0  0  0  0
   35.6250   30.1140   30.4050 H   0  0  0  0  0  0  0  0  0  0  0  0
   35.1350   29.3340   32.9080 C   0  0  0  0  0  0  0  0  0  0  0  0
   35.4080   30.2020   33.9610 C   0  0  0  0  0  0  0  0  0  0  0  0
   34.4500   30.6570   34.8260 C   0  0  0  0  0  0  0  0  0  0  0  0
   33.1700   30.2440   34.6560 N   0  0  0  0  0  0  0  0  0  0  0  0
   32.9210   29.4110   33.6430 C   0  0  0  0  0  0  0  0  0  0  0  0
   33.8440   28.9470   32.7740 N   0  0  0  0  0  0  0  0  0  0  0  0
   36.4500   30.5130   34.0670 H   0  0  0  0  0  0  0  0  0  0  0  0
   34.7260   31.3320   35.6260 H   0  0  0  0  0  0  0  0  0  0  0  0
   31.5220   28.9480   33.4410 C   0  0  0  0  0  0  0  0  0  0  0  0
   30.9990   28.6340   34.7090 F   0  0  0  0  0  0  0  0  0  0  0  0
   30.7670   29.9130   32.8280 F   0  0  0  0  0  0  0  0  0  0  0  0
   31.4660   27.7730   32.7220 F   0  0  0  0  0  0  0  0  0  0  0  0
  1  4  1  0  0  0  0
  2  8  1  0  0  0  0
  3  2  1  0  0  0  0
  3  4  2  0  0  0  0
  4  5  1  0  0  0  0
  5  7  1  0  0  0  0
  5  6  2  0  0  0  0
  7 12  1  0  0  0  0
  8  9  2  0  0  0  0
  8  7  1  0  0  0  0
 10  2  1  0  0  0  0
 11  3  1  0  0  0  0
 12 13  1  0  0  0  0
 12 20  1  0  0  0  0
 13 15  1  0  0  0  0
 14 13  1  0  0  0  0
 15 16  1  0  0  0  0
 15 17  1  0  0  0  0
 18 17  1  0  0  0  0
 18 19  1  0  0  0  0
 20 18  1  0  0  0  0
 21 20  1  0  0  0  0
 22 27  2  0  0  0  0
 22 23  1  0  0  0  0
 23 24  2  0  0  0  0
 24 25  1  0  0  0  0
 24 30  1  0  0  0  0
 26  1  1  0  0  0  0
 26 25  2  0  0  0  0
 27 26  1  0  0  0  0
 28 22  1  0  0  0  0
 29 23  1  0  0  0  0
 30 31  1  0  0  0  0
 31 36  1  0  0  0  0
 31 32  2  0  0  0  0
 32 37  1  0  0  0  0
 33 32  1  0  0  0  0
 34 33  2  0  0  0  0
 35 30  2  0  0  0  0
 35 34  1  0  0  0  0
 38 34  1  0  0  0  0
 38 39  1  0  0  0  0
 40 38  1  0  0  0  0
 41 38  1  0  0  0  0
M  END
>  <minimizedAffinity>
-6.27615023

$$$$

 OpenBabel03272502273D

 41 44  0  0  0  0  0  0  0  0999 V2000
   35.6870   27.5950   32.0060 O   0  0  0  0  0  0  0  0  0  0  0  0
   36.4360   31.1330   31.3240 N   0  0  0  0  0  0  0  0  0  0  0  0
   36.3870   29.8090   31.0960 C   0  0  0  0  0  0  0  0  0  0  0  0
   35.8320   28.9680   32.0450 C   0  0  0  0  0  0  0  0  0  0  0  0
   35.3410   29.5220   33.2130 C   0  0  0  0  0  0  0  0  0  0  0  0
   34.7980   28.9530   34.1980 O   0  0  0  0  0  0  0  0  0  0  0  0
   35.4120   30.8610   33.4050 N   0  0  0  0  0  0  0  0  0  0  0  0
   35.9620   31.6710   32.4550 C   0  0  0  0  0  0  0  0  0  0  0  0
   36.0510   32.9200   32.5820 O   0  0  0  0  0  0  0  0  0  0  0  0
   36.8750   31.6650   30.5390 H   0  0  0  0  0  0  0  0  0  0  0  0
   36.7430   29.2990   30.2220 H   0  0  0  0  0  0  0  0  0  0  0  0
   34.9430   31.5630   34.5670 C   0  0  0  0  0  3  0  0  0  0  0  0
   33.4670   31.3140   34.8570 C   0  0  0  0  0  3  0  0  0  0  0  0
   33.1050   30.3630   34.4130 H   0  0  0  0  0  0  0  0  0  0  0  0
   33.1940   31.2420   36.3370 C   0  0  0  0  0  3  0  0  0  0  0  0
   32.0920   31.4410   36.4620 H   0  0  0  0  0  0  0  0  0  0  0  0
   33.8630   32.1470   37.1100 O   0  0  0  0  0  0  0  0  0  0  0  0
   35.1550   32.4320   36.7670 C   0  0  0  0  0  3  0  0  0  0  0  0
   35.7650   32.3160   37.6990 H   0  0  0  0  0  0  0  0  0  0  0  0
   35.6760   31.3270   35.8260 C   0  0  0  0  0  3  0  0  0  0  0  0
   36.7670   31.5260   35.8000 H   0  0  0  0  0  0  0  0  0  0  0  0
   38.6810   26.3230   33.5730 C   0  0  0  0  0  0  0  0  0  0  0  0
   38.6160   24.9560   33.2380 C   0  0  0  0  0  0  0  0  0  0  0  0
   37.5350   24.5450   32.4840 C   0  0  0  0  0  0  0  0  0  0  0  0
   36.6330   25.4720   32.1290 N   0  0  0  0  0  0  0  0  0  0  0  0
   36.7090   26.7750   32.4580 C   0  0  0  0  0  0  0  0  0  0  0  0
   37.7500   27.1950   33.1890 N   0  0  0  0  0  0  0  0  0  0  0  0
   39.5470   26.5790   34.1600 H   0  0  0  0  0  0  0  0  0  0  0  0
   39.3330   24.2080   33.5160 H   0  0  0  0  0  0  0  0  0  0  0  0
   37.3500   23.1760   32.0600 C   0  0  0  0  0  0  0  0  0  0  0  0
   38.0860   22.6510   31.0020 C   0  0  0  0  0  0  0  0  0  0  0  0
   37.9570   21.3600   30.5650 C   0  0  0  0  0  0  0  0  0  0  0  0
   37.0680   20.5480   31.1910 N   0  0  0  0  0  0  0  0  0  0  0  0
   36.3690   21.0630   32.2030 C   0  0  0  0  0  0  0  0  0  0  0  0
   36.4750   22.3310   32.6560 N   0  0  0  0  0  0  0  0  0  0  0  0
   38.7910   23.3340   30.5230 H   0  0  0  0  0  0  0  0  0  0  0  0
   38.5580   21.0100   29.7360 H   0  0  0  0  0  0  0  0  0  0  0  0
   35.3900   20.1870   32.9000 C   0  0  0  0  0  0  0  0  0  0  0  0
   35.2600   20.6690   34.2160 F   0  0  0  0  0  0  0  0  0  0  0  0
   34.1790   20.1920   32.2590 F   0  0  0  0  0  0  0  0  0  0  0  0
   35.8530   18.8950   33.0290 F   0  0  0  0  0  0  0  0  0  0  0  0
  1  4  1  0  0  0  0
  1 26  1  0  0  0  0
  2  8  1  0  0  0  0
  3  2  1  0  0  0  0
  3  4  2  0  0  0  0
  4  5  1  0  0  0  0
  5  7  1  0  0  0  0
  5  6  2  0  0  0  0
  7 12  1  0  0  0  0
  8  9  2  0  0  0  0
  8  7  1  0  0  0  0
 10  2  1  0  0  0  0
 11  3  1  0  0  0  0
 12 13  1  0  0  0  0
 12 20  1  0  0  0  0
 13 15  1  0  0  0  0
 14 13  1  0  0  0  0
 15 16  1  0  0  0  0
 15 17  1  0  0  0  0
 18 17  1  0  0  0  0
 18 19  1  0  0  0  0
 20 18  1  0  0  0  0
 21 20  1  0  0  0  0
 22 28  1  0  0  0  0
 23 29  1  0  0  0  0
 23 22  1  0  0  0  0
 24 23  2  0  0  0  0
 25 26  2  0  0  0  0
 25 24  1  0  0  0  0
 26 27  1  0  0  0  0
 27 22  2  0  0  0  0
 30 24  1  0  0  0  0
 30 35  1  0  0  0  0
 31 30  2  0  0  0  0
 32 31  1  0  0  0  0
 32 33  2  0  0  0  0
 33 34  1  0  0  0  0
 34 35  2  0  0  0  0
 34 38  1  0  0  0  0
 36 31  1  0  0  0  0
 37 32  1  0  0  0  0
 38 41  1  0  0  0  0
 38 39  1  0  0  0  0
 40 38  1  0  0  0  0
M  END
>  <minimizedAffinity>
-6.1614027

$$$$

 OpenBabel03272502273D

 41 44  0  0  0  0  0  0  0  0999 V2000
   35.6160   28.1540   32.7460 O   0  0  0  0  0  0  0  0  0  0  0  0
   35.7270   30.6660   35.4340 N   0  0  0  0  0  0  0  0  0  0  0  0
   36.1960   29.7320   34.5880 C   0  0  0  0  0  0  0  0  0  0  0  0
   35.3380   29.1260   33.6870 C   0  0  0  0  0  0  0  0  0  0  0  0
   34.0070   29.5020   33.6860 C   0  0  0  0  0  0  0  0  0  0  0  0
   33.0630   29.0900   32.9600 O   0  0  0  0  0  0  0  0  0  0  0  0
   33.5730   30.4460   34.5560 N   0  0  0  0  0  0  0  0  0  0  0  0
   34.4380   31.0310   35.4340 C   0  0  0  0  0  0  0  0  0  0  0  0
   34.0890   31.9130   36.2610 O   0  0  0  0  0  0  0  0  0  0  0  0
   36.4650   31.0520   36.0640 H   0  0  0  0  0  0  0  0  0  0  0  0
   37.2090   29.3830   34.5230 H   0  0  0  0  0  0  0  0  0  0  0  0
   32.2240   30.9270   34.6610 C   0  0  0  0  0  3  0  0  0  0  0  0
   31.5430   30.5090   35.9590 C   0  0  0  0  0  3  0  0  0  0  0  0
   32.2740   30.2760   36.7620 H   0  0  0  0  0  0  0  0  0  0  0  0
   30.6380   31.5920   36.4870 C   0  0  0  0  0  3  0  0  0  0  0  0
   29.9180   31.0830   37.1880 H   0  0  0  0  0  0  0  0  0  0  0  0
   29.8990   32.2570   35.5530 O   0  0  0  0  0  0  0  0  0  0  0  0
   30.4980   32.5290   34.3550 C   0  0  0  0  0  3  0  0  0  0  0  0
   30.3420   33.6210   34.1610 H   0  0  0  0  0  0  0  0  0  0  0  0
   32.0250   32.3820   34.5170 C   0  0  0  0  0  3  0  0  0  0  0  0
   32.4120   32.8380   33.5830 H   0  0  0  0  0  0  0  0  0  0  0  0
   39.0480   27.2400   32.0930 C   0  0  0  0  0  0  0  0  0  0  0  0
   39.1950   26.0980   32.9050 C   0  0  0  0  0  0  0  0  0  0  0  0
   38.0950   25.7030   33.6390 C   0  0  0  0  0  0  0  0  0  0  0  0
   36.9750   26.4320   33.5250 N   0  0  0  0  0  0  0  0  0  0  0  0
   36.8490   27.5210   32.7440 C   0  0  0  0  0  0  0  0  0  0  0  0
   37.9050   27.9210   32.0230 N   0  0  0  0  0  0  0  0  0  0  0  0
   39.9390   27.4950   31.5460 H   0  0  0  0  0  0  0  0  0  0  0  0
   40.0870   25.5090   33.0020 H   0  0  0  0  0  0  0  0  0  0  0  0
   38.1030   24.5450   34.5030 C   0  0  0  0  0  0  0  0  0  0  0  0
   38.0590   23.2590   33.9730 C   0  0  0  0  0  0  0  0  0  0  0  0
   38.0730   22.1280   34.7440 C   0  0  0  0  0  0  0  0  0  0  0  0
   38.1330   22.2610   36.0930 N   0  0  0  0  0  0  0  0  0  0  0  0
   38.1750   23.4990   36.5890 C   0  0  0  0  0  0  0  0  0  0  0  0
   38.1630   24.6320   35.8530 N   0  0  0  0  0  0  0  0  0  0  0  0
   38.0110   23.1910   32.8830 H   0  0  0  0  0  0  0  0  0  0  0  0
   38.0360   21.1550   34.2730 H   0  0  0  0  0  0  0  0  0  0  0  0
   38.2400   23.6640   38.0650 C   0  0  0  0  0  0  0  0  0  0  0  0
   38.0740   25.0340   38.3400 F   0  0  0  0  0  0  0  0  0  0  0  0
   37.2710   22.9220   38.6880 F   0  0  0  0  0  0  0  0  0  0  0  0
   39.4820   23.3390   38.5670 F   0  0  0  0  0  0  0  0  0  0  0  0
  1  4  1  0  0  0  0
  2  8  1  0  0  0  0
  2 10  1  0  0  0  0
  3  2  1  0  0  0  0
  4  3  2  0  0  0  0
  5  4  1  0  0  0  0
  5  7  1  0  0  0  0
  6  5  2  0  0  0  0
  7 12  1  0  0  0  0
  7  8  1  0  0  0  0
  8  9  2  0  0  0  0
 11  3  1  0  0  0  0
 12 13  1  0  0  0  0
 13 15  1  0  0  0  0
 13 14  1  0  0  0  0
 15 16  1  0  0  0  0
 17 15  1  0  0  0  0
 18 20  1  0  0  0  0
 18 17  1  0  0  0  0
 19 18  1  0  0  0  0
 20 12  1  0  0  0  0
 21 20  1  0  0  0  0
 22 23  1  0  0  0  0
 23 29  1  0  0  0  0
 23 24  2  0  0  0  0
 24 30  1  0  0  0  0
 25 24  1  0  0  0  0
 26  1  1  0  0  0  0
 26 25  2  0  0  0  0
 27 22  2  0  0  0  0
 27 26  1  0  0  0  0
 28 22  1  0  0  0  0
 30 35  1  0  0  0  0
 31 30  2  0  0  0  0
 31 32  1  0  0  0  0
 32 33  2  0  0  0  0
 33 34  1  0  0  0  0
 34 38  1  0  0  0  0
 35 34  2  0  0  0  0
 36 31  1  0  0  0  0
 37 32  1  0  0  0  0
 38 39  1  0  0  0  0
 38 41  1  0  0  0  0
 38 40  1  0  0  0  0
M  END
>  <minimizedAffinity>
-6.15204811

$$$$
