
 OpenBabel03272507143D

 41 45  0  0  0  0  0  0  0  0999 V2000
   35.9780   29.1580   49.7720 C   0  0  0  0  0  0  0  0  0  0  0  0
   35.0040   29.6900   50.5430 C   0  0  0  0  0  0  0  0  0  0  0  0
   33.7930   29.1700   50.0780 C   0  0  0  0  0  0  0  0  0  0  0  0
   34.1310   28.3230   49.0130 C   0  0  0  0  0  0  0  0  0  0  0  0
   35.4210   28.3650   48.8920 O   0  0  0  0  0  0  0  0  0  0  0  0
   35.0780   30.3980   51.3840 H   0  0  0  0  0  0  0  0  0  0  0  0
   32.8290   29.4360   50.5290 H   0  0  0  0  0  0  0  0  0  0  0  0
   33.4510   26.7020   47.2470 C   0  0  0  0  0  0  0  0  0  0  0  0
   33.1160   27.5870   48.2650 C   0  0  0  0  0  0  0  0  0  0  0  0
   31.7970   27.8110   48.6190 C   0  0  0  0  0  0  0  0  0  0  0  0
   30.8220   27.1310   47.9350 C   0  0  0  0  0  0  0  0  0  0  0  0
   29.4820   27.1410   48.0590 N   0  0  0  0  0  0  0  0  0  0  0  0
   28.9920   26.2960   47.1560 N   0  0  0  0  0  0  0  0  0  0  0  0
   29.9920   25.7490   46.4600 C   0  0  0  0  0  0  0  0  0  0  0  0
   31.2060   26.2550   46.9240 C   0  0  0  0  0  0  0  0  0  0  0  0
   32.5100   26.0190   46.5570 C   0  0  0  0  0  0  0  0  0  0  0  0
   34.5100   26.5930   47.0410 H   0  0  0  0  0  0  0  0  0  0  0  0
   31.4670   28.4890   49.4040 H   0  0  0  0  0  0  0  0  0  0  0  0
   28.8880   27.6910   48.7220 H   0  0  0  0  0  0  0  0  0  0  0  0
   29.9440   25.0120   45.6420 H   0  0  0  0  0  0  0  0  0  0  0  0
   32.7420   25.3370   45.7750 H   0  0  0  0  0  0  0  0  0  0  0  0
   37.3870   29.4810   49.9700 C   0  0  0  0  0  0  0  0  0  0  0  0
   38.0950   28.7120   50.6670 O   0  0  0  0  0  0  0  0  0  0  0  0
   37.8910   30.6790   49.3450 C   0  0  0  0  0  0  0  0  0  0  0  0
   38.1430   31.7660   50.1540 C   0  0  0  0  0  0  0  0  0  0  0  0
   38.6270   32.9390   49.5930 C   0  0  0  0  0  0  0  0  0  0  0  0
   38.8280   32.9440   48.2520 N   0  0  0  0  0  0  0  0  0  0  0  0
   38.5830   31.8920   47.4770 C   0  0  0  0  0  0  0  0  0  0  0  0
   38.1170   30.7720   48.0310 N   0  0  0  0  0  0  0  0  0  0  0  0
   37.9900   31.7920   51.2430 H   0  0  0  0  0  0  0  0  0  0  0  0
   38.8320   33.7950   50.1930 H   0  0  0  0  0  0  0  0  0  0  0  0
   38.7990   31.8850   46.0020 C   0  0  0  0  0  3  0  0  0  0  0  0
   39.7800   32.9440   45.5570 C   0  0  0  0  0  3  0  0  0  0  0  0
   40.8290   32.6820   45.8620 H   0  0  0  0  0  0  0  0  0  0  0  0
   39.6380   33.0330   44.0500 C   0  0  0  0  0  3  0  0  0  0  0  0
   40.4040   33.6940   43.5990 H   0  0  0  0  0  0  0  0  0  0  0  0
   39.5460   31.8020   43.4560 O   0  0  0  0  0  0  0  0  0  0  0  0
   40.0580   30.7520   44.2090 C   0  0  0  0  0  3  0  0  0  0  0  0
   39.9330   29.8300   43.6050 H   0  0  0  0  0  0  0  0  0  0  0  0
   39.3140   30.5560   45.5040 C   0  0  0  0  0  3  0  0  0  0  0  0
   40.0310   30.0950   46.2280 H   0  0  0  0  0  0  0  0  0  0  0  0
  1 22  1  0  0  0  0
  1  2  2  0  0  0  0
  2  6  1  0  0  0  0
  3  7  1  0  0  0  0
  3  2  1  0  0  0  0
  4  3  2  0  0  0  0
  5  4  1  0  0  0  0
  5  1  1  0  0  0  0
  8  9  1  0  0  0  0
  9 10  2  0  0  0  0
  9  4  1  0  0  0  0
 10 18  1  0  0  0  0
 11 12  1  0  0  0  0
 11 10  1  0  0  0  0
 12 19  1  0  0  0  0
 13 12  1  0  0  0  0
 14 15  1  0  0  0  0
 14 13  2  0  0  0  0
 15 11  2  0  0  0  0
 16 15  1  0  0  0  0
 16  8  2  0  0  0  0
 17  8  1  0  0  0  0
 20 14  1  0  0  0  0
 21 16  1  0  0  0  0
 22 23  2  0  0  0  0
 24 22  1  0  0  0  0
 24 25  1  0  0  0  0
 25 30  1  0  0  0  0
 26 25  2  0  0  0  0
 26 31  1  0  0  0  0
 27 26  1  0  0  0  0
 28 29  1  0  0  0  0
 28 27  2  0  0  0  0
 29 24  2  0  0  0  0
 32 28  1  0  0  0  0
 33 34  1  0  0  0  0
 33 32  1  0  0  0  0
 35 33  1  0  0  0  0
 36 35  1  0  0  0  0
 37 35  1  0  0  0  0
 37 38  1  0  0  0  0
 38 40  1  0  0  0  0
 39 38  1  0  0  0  0
 40 32  1  0  0  0  0
 40 41  1  0  0  0  0
M  END
>  <minimizedAffinity>
-7.03469467

>  <minimizedRMSD>
0.559371829

$$$$
