
 OpenBabel03262521193D

 30 31  0  0  0  0  0  0  0  0999 V2000
   38.4670   32.3520   46.3140 C   0  0  0  0  0  0  0  0  0  0  0  0
   39.8050   32.6910   46.4080 C   0  0  0  0  0  0  0  0  0  0  0  0
   40.5300   32.9620   45.2340 C   0  0  0  0  0  0  0  0  0  0  0  0
   39.8340   32.8680   44.0470 N   0  0  0  0  0  0  0  0  0  0  0  0
   38.5260   32.5330   44.0040 C   0  0  0  0  0  0  0  0  0  0  0  0
   37.8560   32.2810   45.1050 N   0  0  0  0  0  0  0  0  0  0  0  0
   40.3610   32.7690   47.3400 H   0  0  0  0  0  0  0  0  0  0  0  0
   41.5620   33.2260   45.2920 H   0  0  0  0  0  0  0  0  0  0  0  0
   37.8220   32.4440   42.6950 C   0  0  0  0  0  0  0  0  0  0  0  0
   38.3970   33.4680   41.7530 C   0  0  0  0  0  0  0  0  0  0  0  0
   39.4000   33.1930   41.3740 H   0  0  0  0  0  0  0  0  0  0  0  0
   37.4890   33.6120   40.5550 C   0  0  0  0  0  0  0  0  0  0  0  0
   37.4200   32.6110   40.0710 H   0  0  0  0  0  0  0  0  0  0  0  0
   36.2350   34.0710   40.9870 O   0  0  0  0  0  0  0  0  0  0  0  0
   35.6210   33.0260   41.6640 C   0  0  0  0  0  0  0  0  0  0  0  0
   34.5820   33.2980   41.9360 H   0  0  0  0  0  0  0  0  0  0  0  0
   36.3770   32.8090   42.9610 C   0  0  0  0  0  0  0  0  0  0  0  0
   35.9140   31.9460   43.4670 H   0  0  0  0  0  0  0  0  0  0  0  0
   37.8870   32.1140   47.5480 O   0  0  0  0  0  0  0  0  0  0  0  0
   37.0570   31.0260   47.6630 C   0  0  0  0  0  0  0  0  0  0  0  0
   36.0470   31.3670   47.9830 H   0  0  0  0  0  0  0  0  0  0  0  0
   36.8650   30.4890   46.6880 H   0  0  0  0  0  0  0  0  0  0  0  0
   37.7600   30.3070   48.5600 C   0  0  0  0  0  0  0  0  0  0  0  0
   38.7440   29.9020   48.1650 H   0  0  0  0  0  0  0  0  0  0  0  0
   37.2390   29.3460   48.8010 H   0  0  0  0  0  0  0  0  0  0  0  0
   38.0880   30.9560   49.8640 C   0  0  0  0  0  0  0  0  0  0  0  0
   39.1890   30.9890   50.0920 H   0  0  0  0  0  0  0  0  0  0  0  0
   37.7870   32.0250   49.8540 H   0  0  0  0  0  0  0  0  0  0  0  0
   37.2920   30.1280   51.2590 S   0  0  0  0  0  0  0  0  0  0  0  0
   37.3710   28.7310   51.1380 H   0  0  0  0  0  0  0  0  0  0  0  0
  1  2  1  0  0  0  0
  1 19  1  0  0  0  0
  2  7  1  0  0  0  0
  3  8  1  0  0  0  0
  3  2  2  0  0  0  0
  4  3  1  0  0  0  0
  5  4  2  0  0  0  0
  5  6  1  0  0  0  0
  6  1  2  0  0  0  0
  9 17  1  0  0  0  0
  9  5  1  0  0  0  0
 10  9  1  0  0  0  0
 11 10  1  0  0  0  0
 12 14  1  0  0  0  0
 12 10  1  0  0  0  0
 13 12  1  0  0  0  0
 14 15  1  0  0  0  0
 15 16  1  0  0  0  0
 15 17  1  0  0  0  0
 17 18  1  0  0  0  0
 19 20  1  0  0  0  0
 20 21  1  0  0  0  0
 20 23  1  0  0  0  0
 22 20  1  0  0  0  0
 23 25  1  0  0  0  0
 23 26  1  0  0  0  0
 24 23  1  0  0  0  0
 26 27  1  0  0  0  0
 26 29  1  0  0  0  0
 28 26  1  0  0  0  0
 30 29  1  0  0  0  0
M  END
>  <minimizedAffinity>
-4.20355606

>  <minimizedRMSD>
0.368125916

$$$$
