
 OpenBabel03272505273D

 32 34  0  0  0  0  0  0  0  0999 V2000
   37.3860   31.0750   47.1370 N   0  0  0  0  0  0  0  0  0  0  0  0
   36.8000   30.7440   45.9560 C   0  0  0  0  0  0  0  0  0  0  0  0
   37.2650   31.2310   44.7410 C   0  0  0  0  0  0  0  0  0  0  0  0
   38.3780   32.0890   44.7770 C   0  0  0  0  0  0  0  0  0  0  0  0
   38.8300   32.5510   43.7050 O   0  0  0  0  0  0  0  0  0  0  0  0
   38.9610   32.4150   45.9740 N   0  0  0  0  0  0  0  0  0  0  0  0
   38.4220   31.8840   47.0630 C   0  0  0  0  0  0  0  0  0  0  0  0
   38.9830   32.2100   48.1360 O   0  0  0  0  0  0  0  0  0  0  0  0
   35.9430   30.0810   45.9540 H   0  0  0  0  0  0  0  0  0  0  0  0
   36.6010   30.8470   43.5050 C   0  0  0  0  0  3  0  0  0  0  0  0
   37.4940   30.0540   42.5650 C   0  0  0  0  0  3  0  0  0  0  0  0
   38.3230   30.7120   42.1910 H   0  0  0  0  0  0  0  0  0  0  0  0
   36.6520   29.7090   41.3540 C   0  0  0  0  0  3  0  0  0  0  0  0
   36.9510   30.2960   40.4490 H   0  0  0  0  0  0  0  0  0  0  0  0
   35.3000   29.9560   41.5380 O   0  0  0  0  0  0  0  0  0  0  0  0
   35.0170   31.2970   41.7370 C   0  0  0  0  0  3  0  0  0  0  0  0
   34.9240   31.8510   40.7970 H   0  0  0  0  0  0  0  0  0  0  0  0
   36.0080   31.9610   42.7020 C   0  0  0  0  0  3  0  0  0  0  0  0
   35.5090   32.7370   43.3160 H   0  0  0  0  0  0  0  0  0  0  0  0
   37.2280   29.4460   50.4680 C   0  0  0  0  0  0  0  0  0  0  0  0
   37.7190   29.9420   49.2500 C   0  0  0  0  0  0  0  0  0  0  0  0
   36.9000   30.5750   48.3490 C   0  0  0  0  0  0  0  0  0  0  0  0
   35.5800   30.7060   48.6770 N   0  0  0  0  0  0  0  0  0  0  0  0
   35.0830   30.2330   49.8510 C   0  0  0  0  0  0  0  0  0  0  0  0
   35.8980   29.6050   50.7440 N   0  0  0  0  0  0  0  0  0  0  0  0
   37.8090   28.9430   51.2180 H   0  0  0  0  0  0  0  0  0  0  0  0
   38.7640   29.7340   49.1720 H   0  0  0  0  0  0  0  0  0  0  0  0
   34.0270   30.3790   50.0300 H   0  0  0  0  0  0  0  0  0  0  0  0
   40.1140   33.2960   46.0030 C   0  0  0  0  0  0  0  0  0  0  0  0
   39.9920   34.2710   45.0680 F   0  0  0  0  0  0  0  0  0  0  0  0
   41.2960   32.6320   45.7200 F   0  0  0  0  0  0  0  0  0  0  0  0
   40.1860   33.9000   47.2520 F   0  0  0  0  0  0  0  0  0  0  0  0
  1 22  1  0  0  0  0
  2  1  1  0  0  0  0
  3  4  1  0  0  0  0
  3  2  2  0  0  0  0
  4  6  1  0  0  0  0
  5  4  2  0  0  0  0
  6 29  1  0  0  0  0
  6  7  1  0  0  0  0
  7  1  1  0  0  0  0
  7  8  2  0  0  0  0
  9  2  1  0  0  0  0
 10  3  1  0  0  0  0
 11 10  1  0  0  0  0
 12 11  1  0  0  0  0
 13 15  1  0  0  0  0
 13 11  1  0  0  0  0
 14 13  1  0  0  0  0
 15 16  1  0  0  0  0
 16 18  1  0  0  0  0
 17 16  1  0  0  0  0
 18 19  1  0  0  0  0
 18 10  1  0  0  0  0
 20 25  1  0  0  0  0
 20 26  1  0  0  0  0
 21 20  2  0  0  0  0
 22 23  2  0  0  0  0
 22 21  1  0  0  0  0
 23 24  1  0  0  0  0
 24 28  1  0  0  0  0
 24 25  2  0  0  0  0
 27 21  1  0  0  0  0
 29 32  1  0  0  0  0
 30 29  1  0  0  0  0
 31 29  1  0  0  0  0
M  END
>  <minimizedAffinity>
-6.09021521

>  <minimizedRMSD>
0.557016969

$$$$
