
 OpenBabel03272504283D

 43 46  0  0  0  0  0  0  0  0999 V2000
   34.7020   29.3190   48.0510 C   0  0  0  0  0  0  0  0  0  0  0  0
   34.6600   28.0350   48.4660 C   0  0  0  0  0  0  0  0  0  0  0  0
   33.6630   27.2200   48.0930 C   0  0  0  0  0  0  0  0  0  0  0  0
   32.6900   27.7090   47.2860 N   0  0  0  0  0  0  0  0  0  0  0  0
   32.7400   28.9730   46.8820 C   0  0  0  0  0  0  0  0  0  0  0  0
   33.7320   29.7950   47.2510 N   0  0  0  0  0  0  0  0  0  0  0  0
   35.4480   27.6630   49.1100 H   0  0  0  0  0  0  0  0  0  0  0  0
   33.6560   26.2030   48.4390 H   0  0  0  0  0  0  0  0  0  0  0  0
   30.3390   29.1780   46.4050 C   0  0  0  0  0  0  0  0  0  0  0  0
   31.6630   29.3700   46.0060 C   0  0  0  0  0  0  0  0  0  0  0  0
   32.0330   29.9040   44.7860 C   0  0  0  0  0  0  0  0  0  0  0  0
   31.0500   30.2740   43.8970 C   0  0  0  0  0  0  0  0  0  0  0  0
   29.7190   30.1220   44.2000 C   0  0  0  0  0  0  0  0  0  0  0  0
   29.4510   29.5910   45.4200 C   0  0  0  0  0  0  0  0  0  0  0  0
   33.0720   30.0350   44.5210 H   0  0  0  0  0  0  0  0  0  0  0  0
   31.3520   30.6940   42.9390 H   0  0  0  0  0  0  0  0  0  0  0  0
   28.9190   30.4010   43.5270 H   0  0  0  0  0  0  0  0  0  0  0  0
   28.3860   29.4660   45.6710 H   0  0  0  0  0  0  0  0  0  0  0  0
   29.8550   28.5590   47.8750 S   0  0  0  0  0  0  0  0  0  0  0  0
   29.4240   27.1500   47.3500 O   0  0  0  0  0  0  0  0  0  0  0  0
   28.6170   29.3130   48.2900 O   0  0  0  0  0  0  0  0  0  0  0  0
   30.1460   27.8770   49.2860 C   0  0  0  0  0  0  0  0  0  0  0  0
   29.7770   26.5660   49.6490 F   0  0  0  0  0  0  0  0  0  0  0  0
   29.2110   28.4030   50.2950 F   0  0  0  0  0  0  0  0  0  0  0  0
   31.1890   28.3410   50.1380 F   0  0  0  0  0  0  0  0  0  0  0  0
   36.7550   31.7560   49.8690 C   0  0  0  0  0  0  0  0  0  0  0  0
   37.8770   31.9130   49.0340 C   0  0  0  0  0  0  0  0  0  0  0  0
   37.8900   31.1580   47.8460 C   0  0  0  0  0  0  0  0  0  0  0  0
   36.8390   30.3490   47.5970 N   0  0  0  0  0  0  0  0  0  0  0  0
   35.7710   30.2280   48.4340 C   0  0  0  0  0  0  0  0  0  0  0  0
   35.7450   30.9390   49.5680 N   0  0  0  0  0  0  0  0  0  0  0  0
   36.7960   32.3630   50.7740 H   0  0  0  0  0  0  0  0  0  0  0  0
   38.6980   32.5760   49.2760 H   0  0  0  0  0  0  0  0  0  0  0  0
   39.0310   31.2540   46.8970 C   0  0  0  0  0  0  0  0  0  0  0  0
   39.2330   32.6750   46.4110 C   0  0  0  0  0  0  0  0  0  0  0  0
   38.3680   33.0470   45.8540 H   0  0  0  0  0  0  0  0  0  0  0  0
   40.5070   32.6710   45.5950 C   0  0  0  0  0  0  0  0  0  0  0  0
   41.3600   32.6180   46.3300 H   0  0  0  0  0  0  0  0  0  0  0  0
   40.6260   31.5110   44.8210 O   0  0  0  0  0  0  0  0  0  0  0  0
   39.3600   31.0080   44.5000 C   0  0  0  0  0  0  0  0  0  0  0  0
   39.4440   30.2730   43.7000 H   0  0  0  0  0  0  0  0  0  0  0  0
   38.7100   30.3750   45.7120 C   0  0  0  0  0  0  0  0  0  0  0  0
   37.5900   30.4050   45.5710 H   0  0  0  0  0  0  0  0  0  0  0  0
  1 30  1  0  0  0  0
  1  2  1  0  0  0  0
  2  7  1  0  0  0  0
  3  8  1  0  0  0  0
  3  2  2  0  0  0  0
  4  3  1  0  0  0  0
  5  6  1  0  0  0  0
  5  4  2  0  0  0  0
  6  1  2  0  0  0  0
  9 19  1  0  0  0  0
 10  9  1  0  0  0  0
 10  5  1  0  0  0  0
 11 10  2  0  0  0  0
 12 13  2  0  0  0  0
 12 11  1  0  0  0  0
 13 14  1  0  0  0  0
 14 18  1  0  0  0  0
 14  9  2  0  0  0  0
 15 11  1  0  0  0  0
 16 12  1  0  0  0  0
 17 13  1  0  0  0  0
 19 21  2  0  0  0  0
 19 22  1  0  0  0  0
 20 19  2  0  0  0  0
 22 23  1  0  0  0  0
 22 25  1  0  0  0  0
 22 24  1  0  0  0  0
 26 32  1  0  0  0  0
 27 33  1  0  0  0  0
 27 26  2  0  0  0  0
 28 27  1  0  0  0  0
 29 28  2  0  0  0  0
 29 30  1  0  0  0  0
 30 31  2  0  0  0  0
 31 26  1  0  0  0  0
 34 28  1  0  0  0  0
 35 34  1  0  0  0  0
 36 35  1  0  0  0  0
 37 38  1  0  0  0  0
 37 35  1  0  0  0  0
 39 37  1  0  0  0  0
 40 39  1  0  0  0  0
 40 42  1  0  0  0  0
 41 40  1  0  0  0  0
 42 34  1  0  0  0  0
 43 42  1  0  0  0  0
M  END
>  <minimizedAffinity>
-6.7220068

>  <minimizedRMSD>
1.85753512

$$$$
