
 OpenBabel03272507133D

 41 45  0  0  0  0  0  0  0  0999 V2000
   35.9270   29.1790   49.7800 C   0  0  0  0  0  0  0  0  0  0  0  0
   34.9090   29.7270   50.4790 C   0  0  0  0  0  0  0  0  0  0  0  0
   33.7310   29.1660   49.9820 C   0  0  0  0  0  0  0  0  0  0  0  0
   34.1320   28.2780   48.9740 C   0  0  0  0  0  0  0  0  0  0  0  0
   35.4260   28.3380   48.9120 O   0  0  0  0  0  0  0  0  0  0  0  0
   34.9320   30.4730   51.2900 H   0  0  0  0  0  0  0  0  0  0  0  0
   32.7410   29.4340   50.3750 H   0  0  0  0  0  0  0  0  0  0  0  0
   33.5630   26.5380   47.2840 C   0  0  0  0  0  0  0  0  0  0  0  0
   33.1650   27.4920   48.2130 C   0  0  0  0  0  0  0  0  0  0  0  0
   31.8270   27.7390   48.4620 C   0  0  0  0  0  0  0  0  0  0  0  0
   30.8960   27.0130   47.7640 C   0  0  0  0  0  0  0  0  0  0  0  0
   29.5510   27.0320   47.7970 N   0  0  0  0  0  0  0  0  0  0  0  0
   29.1180   26.1260   46.9250 N   0  0  0  0  0  0  0  0  0  0  0  0
   30.1600   25.5310   46.3380 C   0  0  0  0  0  0  0  0  0  0  0  0
   31.3430   26.0690   46.8440 C   0  0  0  0  0  0  0  0  0  0  0  0
   32.6670   25.8080   46.5820 C   0  0  0  0  0  0  0  0  0  0  0  0
   34.6330   26.4140   47.1570 H   0  0  0  0  0  0  0  0  0  0  0  0
   31.4490   28.4710   49.1740 H   0  0  0  0  0  0  0  0  0  0  0  0
   28.9170   27.6270   48.3800 H   0  0  0  0  0  0  0  0  0  0  0  0
   30.1630   24.7390   45.5710 H   0  0  0  0  0  0  0  0  0  0  0  0
   32.9470   25.0720   45.8670 H   0  0  0  0  0  0  0  0  0  0  0  0
   37.3200   29.5350   50.0290 C   0  0  0  0  0  0  0  0  0  0  0  0
   37.9830   28.8570   50.8530 O   0  0  0  0  0  0  0  0  0  0  0  0
   37.8600   30.6590   49.3050 C   0  0  0  0  0  0  0  0  0  0  0  0
   38.0660   31.8310   50.0020 C   0  0  0  0  0  0  0  0  0  0  0  0
   38.5830   32.9370   49.3430 C   0  0  0  0  0  0  0  0  0  0  0  0
   38.8620   32.7950   48.0240 N   0  0  0  0  0  0  0  0  0  0  0  0
   38.6600   31.6620   47.3570 C   0  0  0  0  0  0  0  0  0  0  0  0
   38.1620   30.6070   48.0040 N   0  0  0  0  0  0  0  0  0  0  0  0
   37.8500   31.9760   51.0710 H   0  0  0  0  0  0  0  0  0  0  0  0
   38.7540   33.8550   49.8550 H   0  0  0  0  0  0  0  0  0  0  0  0
   38.9620   31.4930   45.9070 C   0  0  0  0  0  3  0  0  0  0  0  0
   38.6350   30.1080   45.4030 C   0  0  0  0  0  3  0  0  0  0  0  0
   37.5240   29.9480   45.3440 H   0  0  0  0  0  0  0  0  0  0  0  0
   39.2930   29.9940   44.0440 C   0  0  0  0  0  3  0  0  0  0  0  0
   39.0120   29.0570   43.5240 H   0  0  0  0  0  0  0  0  0  0  0  0
   39.1330   31.1210   43.2840 O   0  0  0  0  0  0  0  0  0  0  0  0
   38.0590   31.9240   43.6530 C   0  0  0  0  0  3  0  0  0  0  0  0
   38.0400   32.7820   42.9500 H   0  0  0  0  0  0  0  0  0  0  0  0
   38.2050   32.4750   45.0460 C   0  0  0  0  0  3  0  0  0  0  0  0
   37.1720   32.6560   45.4380 H   0  0  0  0  0  0  0  0  0  0  0  0
  1 22  1  0  0  0  0
  1  2  2  0  0  0  0
  2  6  1  0  0  0  0
  3  7  1  0  0  0  0
  3  2  1  0  0  0  0
  4  3  2  0  0  0  0
  5  4  1  0  0  0  0
  5  1  1  0  0  0  0
  8  9  1  0  0  0  0
  9 10  2  0  0  0  0
  9  4  1  0  0  0  0
 10 18  1  0  0  0  0
 11 12  1  0  0  0  0
 11 10  1  0  0  0  0
 12 19  1  0  0  0  0
 13 12  1  0  0  0  0
 14 15  1  0  0  0  0
 14 13  2  0  0  0  0
 15 11  2  0  0  0  0
 16 15  1  0  0  0  0
 16  8  2  0  0  0  0
 17  8  1  0  0  0  0
 20 14  1  0  0  0  0
 21 16  1  0  0  0  0
 22 23  2  0  0  0  0
 24 25  1  0  0  0  0
 24 22  1  0  0  0  0
 25 30  1  0  0  0  0
 26 31  1  0  0  0  0
 26 25  2  0  0  0  0
 27 26  1  0  0  0  0
 28 29  1  0  0  0  0
 28 27  2  0  0  0  0
 29 24  2  0  0  0  0
 32 28  1  0  0  0  0
 33 32  1  0  0  0  0
 34 33  1  0  0  0  0
 35 33  1  0  0  0  0
 36 35  1  0  0  0  0
 37 38  1  0  0  0  0
 37 35  1  0  0  0  0
 38 40  1  0  0  0  0
 39 38  1  0  0  0  0
 40 41  1  0  0  0  0
 40 32  1  0  0  0  0
M  END
>  <minimizedAffinity>
-6.82558775

>  <minimizedRMSD>
0.357662857

$$$$
