
 OpenBabel03272500123D

 22 23  0  0  0  0  0  0  0  0999 V2000
   35.7040   29.0040   50.0910 C   0  0  0  0  0  0  0  0  0  0  0  0
   36.3320   30.1740   49.6180 C   0  0  0  0  0  0  0  0  0  0  0  0
   36.0820   30.5850   48.2910 C   0  0  0  0  0  0  0  0  0  0  0  0
   35.2380   29.8160   47.5400 N   0  0  0  0  0  0  0  0  0  0  0  0
   34.6560   28.7080   48.0230 C   0  0  0  0  0  0  0  0  0  0  0  0
   34.8800   28.3040   49.2720 N   0  0  0  0  0  0  0  0  0  0  0  0
   35.8550   28.6380   51.0990 H   0  0  0  0  0  0  0  0  0  0  0  0
   36.5680   31.4830   47.9340 H   0  0  0  0  0  0  0  0  0  0  0  0
   33.7380   27.8950   47.1650 C   0  0  0  0  0  0  0  0  0  0  0  0
   33.5860   26.4890   47.6240 C   0  0  0  0  0  0  0  0  0  0  0  0
   34.1050   26.3920   48.6070 H   0  0  0  0  0  0  0  0  0  0  0  0
   32.1720   26.0070   47.7900 C   0  0  0  0  0  0  0  0  0  0  0  0
   32.1710   25.1340   48.4680 H   0  0  0  0  0  0  0  0  0  0  0  0
   31.4550   27.0150   48.4180 O   0  0  0  0  0  0  0  0  0  0  0  0
   31.2120   27.9550   47.4010 C   0  0  0  0  0  0  0  0  0  0  0  0
   30.7150   27.4760   46.5320 H   0  0  0  0  0  0  0  0  0  0  0  0
   32.4690   28.6660   46.9850 C   0  0  0  0  0  0  0  0  0  0  0  0
   32.3340   28.9680   45.9160 H   0  0  0  0  0  0  0  0  0  0  0  0
   37.2410   30.9360   50.5400 C   0  0  0  0  0  0  0  0  0  0  0  0
   38.5610   30.8520   50.1000 F   0  0  0  0  0  0  0  0  0  0  0  0
   36.8600   32.2700   50.4940 F   0  0  0  0  0  0  0  0  0  0  0  0
   37.1600   30.4800   51.8300 F   0  0  0  0  0  0  0  0  0  0  0  0
  1  7  1  0  0  0  0
  2  1  1  0  0  0  0
  2 19  1  0  0  0  0
  3  2  2  0  0  0  0
  4  5  2  0  0  0  0
  4  3  1  0  0  0  0
  5  6  1  0  0  0  0
  6  1  2  0  0  0  0
  8  3  1  0  0  0  0
  9 10  1  0  0  0  0
  9  5  1  0  0  0  0
 10 12  1  0  0  0  0
 10 11  1  0  0  0  0
 12 14  1  0  0  0  0
 12 13  1  0  0  0  0
 15 14  1  0  0  0  0
 16 15  1  0  0  0  0
 17  9  1  0  0  0  0
 17 15  1  0  0  0  0
 18 17  1  0  0  0  0
 19 22  1  0  0  0  0
 20 19  1  0  0  0  0
 21 19  1  0  0  0  0
M  END
>  <minimizedAffinity>
-5.25848198

>  <minimizedRMSD>
0.691742063

$$$$
