
 OpenBabel03272504513D

 43 46  0  0  1  0  0  0  0  0999 V2000
   36.4140   28.8820   32.7080 N   0  0  0  0  0  0  0  0  0  0  0  0
   36.7990   28.7750   31.3050 C   0  0  0  0  0  0  0  0  0  0  0  0
   36.3290   29.9120   30.4630 C   0  0  0  0  0  0  0  0  0  0  0  0
   36.3860   31.2160   31.2530 C   0  0  0  0  0  0  0  0  0  0  0  0
   35.3530   31.0720   32.3330 C   0  0  0  0  0  0  0  0  0  0  0  0
   35.6050   29.9140   33.2580 C   0  0  1  0  0  0  0  0  0  0  0  0
   36.3890   27.8460   30.8450 H   0  0  0  0  0  0  0  0  0  0  0  0
   37.9100   28.7600   31.2830 H   0  0  0  0  0  0  0  0  0  0  0  0
   36.9950   29.9550   29.5590 H   0  0  0  0  0  0  0  0  0  0  0  0
   35.2680   29.7750   30.1650 H   0  0  0  0  0  0  0  0  0  0  0  0
   37.3930   31.3510   31.6800 H   0  0  0  0  0  0  0  0  0  0  0  0
   36.1070   32.0570   30.6160 H   0  0  0  0  0  0  0  0  0  0  0  0
   34.3620   31.0120   31.8090 H   0  0  0  0  0  0  0  0  0  0  0  0
   35.3140   32.0450   32.8850 H   0  0  0  0  0  0  0  0  0  0  0  0
   36.1110   30.3510   34.1420 H   0  0  0  0  0  0  0  0  0  0  0  0
   34.2710   29.3810   33.7180 C   0  0  0  0  0  3  0  0  0  0  0  0
   33.1780   29.6120   32.6930 C   0  0  0  0  0  3  0  0  0  0  0  0
   33.5590   29.2630   31.7210 H   0  0  0  0  0  0  0  0  0  0  0  0
   31.9940   28.7730   33.1900 C   0  0  0  0  0  3  0  0  0  0  0  0
   31.1400   28.8340   32.5070 H   0  0  0  0  0  0  0  0  0  0  0  0
   31.6050   29.3000   34.4020 O   0  0  0  0  0  0  0  0  0  0  0  0
   32.5510   29.2500   35.3990 C   0  0  0  0  0  3  0  0  0  0  0  0
   32.1330   29.7300   36.2890 H   0  0  0  0  0  0  0  0  0  0  0  0
   33.8160   30.0270   35.0070 C   0  0  0  0  0  3  0  0  0  0  0  0
   33.5240   31.0970   34.8670 H   0  0  0  0  0  0  0  0  0  0  0  0
   37.3050   28.1700   34.8710 C   0  0  0  0  0  0  0  0  0  0  0  0
   36.8960   27.8630   33.5620 C   0  0  0  0  0  0  0  0  0  0  0  0
   36.9910   26.5440   33.1540 C   0  0  0  0  0  0  0  0  0  0  0  0
   37.4720   25.6180   34.0340 N   0  0  0  0  0  0  0  0  0  0  0  0
   37.8590   25.9430   35.2850 C   0  0  0  0  0  0  0  0  0  0  0  0
   37.7700   27.2130   35.6870 N   0  0  0  0  0  0  0  0  0  0  0  0
   37.2590   29.1800   35.2560 H   0  0  0  0  0  0  0  0  0  0  0  0
   36.7040   26.2140   32.1860 H   0  0  0  0  0  0  0  0  0  0  0  0
   38.3650   24.9130   36.1690 C   0  0  0  0  0  0  0  0  0  0  0  0
   37.8300   24.7750   37.4340 C   0  0  0  0  0  0  0  0  0  0  0  0
   38.2590   23.8220   38.3270 C   0  0  0  0  0  0  0  0  0  0  0  0
   39.2610   23.0130   37.8720 C   0  0  0  0  0  0  0  0  0  0  0  0
   39.8420   23.1100   36.5910 C   0  0  0  0  0  0  0  0  0  0  0  0
   39.3440   24.0930   35.7730 N   0  0  0  0  0  0  0  0  0  0  0  0
   37.0320   25.4650   37.7160 H   0  0  0  0  0  0  0  0  0  0  0  0
   37.8390   23.7220   39.3060 H   0  0  0  0  0  0  0  0  0  0  0  0
   39.6780   22.2260   38.4900 H   0  0  0  0  0  0  0  0  0  0  0  0
   40.6340   22.4490   36.2680 H   0  0  0  0  0  0  0  0  0  0  0  0
  1  6  1  0  0  0  0
  1 27  1  0  0  0  0
  2  1  1  0  0  0  0
  3  4  1  0  0  0  0
  3  2  1  0  0  0  0
  4 11  1  0  0  0  0
  4  5  1  0  0  0  0
  5 14  1  0  0  0  0
  5  6  1  0  0  0  0
  6 16  1  0  0  0  0
  6 15  1  1  0  0  0
  7  2  1  0  0  0  0
  8  2  1  0  0  0  0
  9  3  1  0  0  0  0
 10  3  1  0  0  0  0
 12  4  1  0  0  0  0
 13  5  1  0  0  0  0
 16 24  1  0  0  0  0
 17 19  1  0  0  0  0
 17 16  1  0  0  0  0
 18 17  1  0  0  0  0
 19 21  1  0  0  0  0
 20 19  1  0  0  0  0
 21 22  1  0  0  0  0
 22 23  1  0  0  0  0
 24 22  1  0  0  0  0
 25 24  1  0  0  0  0
 26 32  1  0  0  0  0
 26 31  1  0  0  0  0
 27 26  2  0  0  0  0
 28 27  1  0  0  0  0
 28 29  2  0  0  0  0
 29 30  1  0  0  0  0
 30 31  2  0  0  0  0
 30 34  1  0  0  0  0
 33 28  1  0  0  0  0
 34 35  1  0  0  0  0
 35 40  1  0  0  0  0
 35 36  2  0  0  0  0
 36 41  1  0  0  0  0
 37 36  1  0  0  0  0
 37 42  1  0  0  0  0
 38 37  2  0  0  0  0
 39 34  2  0  0  0  0
 39 38  1  0  0  0  0
 43 38  1  0  0  0  0
M  END
>  <minimizedAffinity>
-5.80623436

$$$$

 OpenBabel03272504513D

 43 46  0  0  1  0  0  0  0  0999 V2000
   38.3450   24.3570   35.5550 N   0  0  0  0  0  0  0  0  0  0  0  0
   38.0680   24.7530   36.9310 C   0  0  0  0  0  0  0  0  0  0  0  0
   38.3850   23.6990   37.9360 C   0  0  0  0  0  0  0  0  0  0  0  0
   39.6320   22.9260   37.5190 C   0  0  0  0  0  0  0  0  0  0  0  0
   39.2410   22.1800   36.2760 C   0  0  0  0  0  0  0  0  0  0  0  0
   38.8040   23.0740   35.1490 C   0  0  1  0  0  0  0  0  0  0  0  0
   36.9920   25.0110   37.0670 H   0  0  0  0  0  0  0  0  0  0  0  0
   38.7070   25.6370   37.1390 H   0  0  0  0  0  0  0  0  0  0  0  0
   38.5370   24.2140   38.9230 H   0  0  0  0  0  0  0  0  0  0  0  0
   37.5640   22.9530   38.0030 H   0  0  0  0  0  0  0  0  0  0  0  0
   40.4580   23.6280   37.3190 H   0  0  0  0  0  0  0  0  0  0  0  0
   39.9040   22.2000   38.2880 H   0  0  0  0  0  0  0  0  0  0  0  0
   38.4510   21.4460   36.5900 H   0  0  0  0  0  0  0  0  0  0  0  0
   40.1120   21.5390   35.9870 H   0  0  0  0  0  0  0  0  0  0  0  0
   39.6980   23.1860   34.5030 H   0  0  0  0  0  0  0  0  0  0  0  0
   37.7560   22.3420   34.3480 C   0  0  0  0  0  3  0  0  0  0  0  0
   36.9480   21.3830   35.2010 C   0  0  0  0  0  3  0  0  0  0  0  0
   36.6160   21.9380   36.0930 H   0  0  0  0  0  0  0  0  0  0  0  0
   35.7770   20.9580   34.3080 C   0  0  0  0  0  3  0  0  0  0  0  0
   35.0950   20.2790   34.8320 H   0  0  0  0  0  0  0  0  0  0  0  0
   36.3120   20.2770   33.2360 O   0  0  0  0  0  0  0  0  0  0  0  0
   37.1550   21.0090   32.4330 C   0  0  0  0  0  3  0  0  0  0  0  0
   37.5370   20.3480   31.6500 H   0  0  0  0  0  0  0  0  0  0  0  0
   38.3630   21.5330   33.2250 C   0  0  0  0  0  3  0  0  0  0  0  0
   38.9320   20.6450   33.5970 H   0  0  0  0  0  0  0  0  0  0  0  0
   37.1630   26.3500   34.7720 C   0  0  0  0  0  0  0  0  0  0  0  0
   38.1270   25.3470   34.5690 C   0  0  0  0  0  0  0  0  0  0  0  0
   38.8320   25.3690   33.3800 C   0  0  0  0  0  0  0  0  0  0  0  0
   38.5610   26.3530   32.4720 N   0  0  0  0  0  0  0  0  0  0  0  0
   37.6290   27.3030   32.6950 C   0  0  0  0  0  0  0  0  0  0  0  0
   36.9430   27.2890   33.8410 N   0  0  0  0  0  0  0  0  0  0  0  0
   36.5740   26.3940   35.6790 H   0  0  0  0  0  0  0  0  0  0  0  0
   39.5820   24.6560   33.1350 H   0  0  0  0  0  0  0  0  0  0  0  0
   37.3860   28.3180   31.6910 C   0  0  0  0  0  0  0  0  0  0  0  0
   36.3440   29.2090   31.8580 C   0  0  0  0  0  0  0  0  0  0  0  0
   36.0530   30.1970   30.9480 C   0  0  0  0  0  0  0  0  0  0  0  0
   36.8730   30.2370   29.8560 C   0  0  0  0  0  0  0  0  0  0  0  0
   37.9490   29.3530   29.6360 C   0  0  0  0  0  0  0  0  0  0  0  0
   38.1590   28.4020   30.6030 N   0  0  0  0  0  0  0  0  0  0  0  0
   35.7390   29.1040   32.7610 H   0  0  0  0  0  0  0  0  0  0  0  0
   35.2440   30.8830   31.0850 H   0  0  0  0  0  0  0  0  0  0  0  0
   36.7380   30.9740   29.0730 H   0  0  0  0  0  0  0  0  0  0  0  0
   38.5760   29.4180   28.7580 H   0  0  0  0  0  0  0  0  0  0  0  0
  1  2  1  0  0  0  0
  2  7  1  0  0  0  0
  2  8  1  0  0  0  0
  2  3  1  0  0  0  0
  3 10  1  0  0  0  0
  3  9  1  0  0  0  0
  4  3  1  0  0  0  0
  4 12  1  0  0  0  0
  5 13  1  0  0  0  0
  5  4  1  0  0  0  0
  6 15  1  6  0  0  0
  6  1  1  0  0  0  0
  6  5  1  0  0  0  0
 11  4  1  0  0  0  0
 14  5  1  0  0  0  0
 16  6  1  0  0  0  0
 16 17  1  0  0  0  0
 17 18  1  0  0  0  0
 19 20  1  0  0  0  0
 19 17  1  0  0  0  0
 21 19  1  0  0  0  0
 22 24  1  0  0  0  0
 22 21  1  0  0  0  0
 23 22  1  0  0  0  0
 24 25  1  0  0  0  0
 24 16  1  0  0  0  0
 26 32  1  0  0  0  0
 27 26  1  0  0  0  0
 27  1  1  0  0  0  0
 28 27  2  0  0  0  0
 29 30  2  0  0  0  0
 29 28  1  0  0  0  0
 30 31  1  0  0  0  0
 31 26  2  0  0  0  0
 33 28  1  0  0  0  0
 34 35  1  0  0  0  0
 34 30  1  0  0  0  0
 35 40  1  0  0  0  0
 36 41  1  0  0  0  0
 36 35  2  0  0  0  0
 37 36  1  0  0  0  0
 38 37  2  0  0  0  0
 38 39  1  0  0  0  0
 39 34  2  0  0  0  0
 42 37  1  0  0  0  0
 43 38  1  0  0  0  0
M  END
>  <minimizedAffinity>
-5.45624161

$$$$

 OpenBabel03272504513D

 43 46  0  0  1  0  0  0  0  0999 V2000
   37.0480   22.2520   31.0490 N   0  0  0  0  0  0  0  0  0  0  0  0
   38.2160   21.8270   30.2870 C   0  0  0  0  0  0  0  0  0  0  0  0
   38.3940   20.3490   30.2310 C   0  0  0  0  0  0  0  0  0  0  0  0
   37.0380   19.6540   30.1470 C   0  0  0  0  0  0  0  0  0  0  0  0
   36.3720   19.9210   31.4650 C   0  0  0  0  0  0  0  0  0  0  0  0
   36.1700   21.3830   31.7540 C   0  0  1  0  0  0  0  0  0  0  0  0
   39.1530   22.2460   30.7200 H   0  0  0  0  0  0  0  0  0  0  0  0
   38.0690   22.2010   29.2500 H   0  0  0  0  0  0  0  0  0  0  0  0
   39.0230   20.1220   29.3270 H   0  0  0  0  0  0  0  0  0  0  0  0
   38.8810   19.9710   31.1550 H   0  0  0  0  0  0  0  0  0  0  0  0
   36.4530   20.0740   29.3130 H   0  0  0  0  0  0  0  0  0  0  0  0
   37.1710   18.5760   30.0370 H   0  0  0  0  0  0  0  0  0  0  0  0
   36.9960   19.3990   32.2400 H   0  0  0  0  0  0  0  0  0  0  0  0
   35.4050   19.3590   31.4680 H   0  0  0  0  0  0  0  0  0  0  0  0
   35.1220   21.5950   31.4620 H   0  0  0  0  0  0  0  0  0  0  0  0
   36.2750   21.5860   33.2450 C   0  0  0  0  0  3  0  0  0  0  0  0
   37.7140   21.6240   33.7190 C   0  0  0  0  0  3  0  0  0  0  0  0
   38.2560   22.3280   33.0680 H   0  0  0  0  0  0  0  0  0  0  0  0
   37.6340   22.1140   35.1690 C   0  0  0  0  0  3  0  0  0  0  0  0
   38.6290   22.2130   35.6180 H   0  0  0  0  0  0  0  0  0  0  0  0
   36.9420   21.1590   35.8820 O   0  0  0  0  0  0  0  0  0  0  0  0
   35.6440   20.9490   35.4800 C   0  0  0  0  0  3  0  0  0  0  0  0
   35.2230   20.1470   36.0950 H   0  0  0  0  0  0  0  0  0  0  0  0
   35.5810   20.4870   34.0170 C   0  0  0  0  0  3  0  0  0  0  0  0
   36.1220   19.5110   33.9480 H   0  0  0  0  0  0  0  0  0  0  0  0
   37.8610   24.5560   31.1550 C   0  0  0  0  0  0  0  0  0  0  0  0
   36.7950   23.6430   31.0730 C   0  0  0  0  0  0  0  0  0  0  0  0
   35.5130   24.1600   31.0260 C   0  0  0  0  0  0  0  0  0  0  0  0
   35.3480   25.5140   31.0600 N   0  0  0  0  0  0  0  0  0  0  0  0
   36.3910   26.3670   31.1400 C   0  0  0  0  0  0  0  0  0  0  0  0
   37.6330   25.8760   31.1860 N   0  0  0  0  0  0  0  0  0  0  0  0
   38.8900   24.2230   31.1950 H   0  0  0  0  0  0  0  0  0  0  0  0
   34.6440   23.5510   30.9600 H   0  0  0  0  0  0  0  0  0  0  0  0
   36.1490   27.7940   31.1770 C   0  0  0  0  0  0  0  0  0  0  0  0
   36.7570   28.6150   30.2480 C   0  0  0  0  0  0  0  0  0  0  0  0
   36.5750   29.9770   30.2210 C   0  0  0  0  0  0  0  0  0  0  0  0
   35.7430   30.4680   31.1870 C   0  0  0  0  0  0  0  0  0  0  0  0
   35.0980   29.6760   32.1600 C   0  0  0  0  0  0  0  0  0  0  0  0
   35.3440   28.3270   32.1020 N   0  0  0  0  0  0  0  0  0  0  0  0
   37.4060   28.1370   29.5110 H   0  0  0  0  0  0  0  0  0  0  0  0
   37.0490   30.6050   29.4970 H   0  0  0  0  0  0  0  0  0  0  0  0
   35.5260   31.5270   31.2630 H   0  0  0  0  0  0  0  0  0  0  0  0
   34.4470   30.1030   32.9080 H   0  0  0  0  0  0  0  0  0  0  0  0
  1 27  1  0  0  0  0
  1  6  1  0  0  0  0
  2  7  1  0  0  0  0
  2  1  1  0  0  0  0
  3  2  1  0  0  0  0
  3 10  1  0  0  0  0
  4  3  1  0  0  0  0
  4  5  1  0  0  0  0
  5 14  1  0  0  0  0
  5  6  1  0  0  0  0
  5 13  1  0  0  0  0
  6 15  1  6  0  0  0
  6 16  1  0  0  0  0
  8  2  1  0  0  0  0
  9  3  1  0  0  0  0
 11  4  1  0  0  0  0
 12  4  1  0  0  0  0
 16 17  1  0  0  0  0
 16 24  1  0  0  0  0
 17 19  1  0  0  0  0
 18 17  1  0  0  0  0
 19 20  1  0  0  0  0
 19 21  1  0  0  0  0
 22 21  1  0  0  0  0
 22 23  1  0  0  0  0
 24 22  1  0  0  0  0
 25 24  1  0  0  0  0
 26 31  1  0  0  0  0
 26 32  1  0  0  0  0
 27 26  2  0  0  0  0
 28 29  2  0  0  0  0
 28 27  1  0  0  0  0
 29 30  1  0  0  0  0
 30 34  1  0  0  0  0
 30 31  2  0  0  0  0
 33 28  1  0  0  0  0
 34 39  1  0  0  0  0
 35 34  2  0  0  0  0
 36 35  1  0  0  0  0
 36 37  2  0  0  0  0
 37 42  1  0  0  0  0
 37 38  1  0  0  0  0
 38 43  1  0  0  0  0
 39 38  2  0  0  0  0
 40 35  1  0  0  0  0
 41 36  1  0  0  0  0
M  END
>  <minimizedAffinity>
-5.44929171

$$$$

 OpenBabel03272504513D

 43 46  0  0  1  0  0  0  0  0999 V2000
   36.2510   27.3810   31.8010 N   0  0  0  0  0  0  0  0  0  0  0  0
   36.2000   27.9590   33.1380 C   0  0  0  0  0  0  0  0  0  0  0  0
   36.2130   29.4500   33.1510 C   0  0  0  0  0  0  0  0  0  0  0  0
   35.4210   29.9970   31.9680 C   0  0  0  0  0  0  0  0  0  0  0  0
   36.2050   29.6070   30.7480 C   0  0  0  0  0  0  0  0  0  0  0  0
   36.3770   28.1210   30.5930 C   0  0  1  0  0  0  0  0  0  0  0  0
   37.0670   27.6270   33.7540 H   0  0  0  0  0  0  0  0  0  0  0  0
   35.2470   27.6150   33.5950 H   0  0  0  0  0  0  0  0  0  0  0  0
   35.7660   29.7790   34.1280 H   0  0  0  0  0  0  0  0  0  0  0  0
   37.2480   29.8400   33.0400 H   0  0  0  0  0  0  0  0  0  0  0  0
   34.4130   29.5510   31.9530 H   0  0  0  0  0  0  0  0  0  0  0  0
   35.3740   31.0870   32.0150 H   0  0  0  0  0  0  0  0  0  0  0  0
   37.1800   30.1600   30.8160 H   0  0  0  0  0  0  0  0  0  0  0  0
   35.6910   30.0610   29.8650 H   0  0  0  0  0  0  0  0  0  0  0  0
   35.5870   27.8090   29.8810 H   0  0  0  0  0  0  0  0  0  0  0  0
   37.7080   27.8690   29.9300 C   0  0  0  0  0  3  0  0  0  0  0  0
   38.8740   28.1540   30.8560 C   0  0  0  0  0  3  0  0  0  0  0  0
   38.6710   27.6370   31.8080 H   0  0  0  0  0  0  0  0  0  0  0  0
   40.0970   27.5820   30.1310 C   0  0  0  0  0  3  0  0  0  0  0  0
   41.0120   27.7020   30.7240 H   0  0  0  0  0  0  0  0  0  0  0  0
   40.2520   28.3040   28.9670 O   0  0  0  0  0  0  0  0  0  0  0  0
   39.2070   28.2160   28.0760 C   0  0  0  0  0  3  0  0  0  0  0  0
   39.4360   28.8590   27.2200 H   0  0  0  0  0  0  0  0  0  0  0  0
   37.8990   28.7270   28.6990 C   0  0  0  0  0  3  0  0  0  0  0  0
   38.0440   29.8060   28.9500 H   0  0  0  0  0  0  0  0  0  0  0  0
   37.0400   25.1720   32.4940 C   0  0  0  0  0  0  0  0  0  0  0  0
   36.1700   25.9710   31.7310 C   0  0  0  0  0  0  0  0  0  0  0  0
   35.2540   25.3250   30.9210 C   0  0  0  0  0  0  0  0  0  0  0  0
   35.2400   23.9600   30.9020 N   0  0  0  0  0  0  0  0  0  0  0  0
   36.0890   23.2190   31.6450 C   0  0  0  0  0  0  0  0  0  0  0  0
   36.9770   23.8350   32.4300 N   0  0  0  0  0  0  0  0  0  0  0  0
   37.7820   25.6100   33.1490 H   0  0  0  0  0  0  0  0  0  0  0  0
   34.5530   25.8410   30.3100 H   0  0  0  0  0  0  0  0  0  0  0  0
   36.0270   21.7740   31.5770 C   0  0  0  0  0  0  0  0  0  0  0  0
   35.1150   21.0920   32.3580 C   0  0  0  0  0  0  0  0  0  0  0  0
   34.9990   19.7220   32.3470 C   0  0  0  0  0  0  0  0  0  0  0  0
   35.8550   19.0760   31.5010 C   0  0  0  0  0  0  0  0  0  0  0  0
   36.8030   19.7230   30.6820 C   0  0  0  0  0  0  0  0  0  0  0  0
   36.8410   21.0920   30.7650 N   0  0  0  0  0  0  0  0  0  0  0  0
   34.4690   21.6890   33.0060 H   0  0  0  0  0  0  0  0  0  0  0  0
   34.2900   19.2020   32.9560 H   0  0  0  0  0  0  0  0  0  0  0  0
   35.8520   17.9960   31.4100 H   0  0  0  0  0  0  0  0  0  0  0  0
   37.4630   19.1750   30.0250 H   0  0  0  0  0  0  0  0  0  0  0  0
  1  2  1  0  0  0  0
  2  3  1  0  0  0  0
  2  8  1  0  0  0  0
  2  7  1  0  0  0  0
  3  9  1  0  0  0  0
  4 12  1  0  0  0  0
  4  3  1  0  0  0  0
  5 13  1  0  0  0  0
  5  4  1  0  0  0  0
  6 15  1  6  0  0  0
  6  5  1  0  0  0  0
  6  1  1  0  0  0  0
 10  3  1  0  0  0  0
 11  4  1  0  0  0  0
 14  5  1  0  0  0  0
 16  6  1  0  0  0  0
 16 17  1  0  0  0  0
 17 18  1  0  0  0  0
 19 20  1  0  0  0  0
 19 17  1  0  0  0  0
 21 19  1  0  0  0  0
 22 24  1  0  0  0  0
 22 21  1  0  0  0  0
 23 22  1  0  0  0  0
 24 25  1  0  0  0  0
 24 16  1  0  0  0  0
 26 32  1  0  0  0  0
 27  1  1  0  0  0  0
 27 26  2  0  0  0  0
 28 27  1  0  0  0  0
 29 28  2  0  0  0  0
 29 30  1  0  0  0  0
 30 31  2  0  0  0  0
 31 26  1  0  0  0  0
 33 28  1  0  0  0  0
 34 30  1  0  0  0  0
 34 35  1  0  0  0  0
 35 40  1  0  0  0  0
 36 35  2  0  0  0  0
 36 41  1  0  0  0  0
 37 36  1  0  0  0  0
 38 39  1  0  0  0  0
 38 37  2  0  0  0  0
 39 34  2  0  0  0  0
 42 37  1  0  0  0  0
 43 38  1  0  0  0  0
M  END
>  <minimizedAffinity>
-5.43792248

$$$$

 OpenBabel03272504513D

 43 46  0  0  1  0  0  0  0  0999 V2000
   35.9030   29.1540   32.0790 N   0  0  0  0  0  0  0  0  0  0  0  0
   36.1040   29.8020   30.7880 C   0  0  0  0  0  0  0  0  0  0  0  0
   35.9210   31.2810   30.8210 C   0  0  0  0  0  0  0  0  0  0  0  0
   36.4410   31.8510   32.1380 C   0  0  0  0  0  0  0  0  0  0  0  0
   35.5200   31.3160   33.1950 C   0  0  0  0  0  0  0  0  0  0  0  0
   35.4980   29.8140   33.2720 C   0  0  1  0  0  0  0  0  0  0  0  0
   35.3940   29.4090   30.0260 H   0  0  0  0  0  0  0  0  0  0  0  0
   37.1520   29.5870   30.4870 H   0  0  0  0  0  0  0  0  0  0  0  0
   36.4810   31.7060   29.9450 H   0  0  0  0  0  0  0  0  0  0  0  0
   34.8450   31.5500   30.7700 H   0  0  0  0  0  0  0  0  0  0  0  0
   37.4780   31.5160   32.3060 H   0  0  0  0  0  0  0  0  0  0  0  0
   36.3700   32.9400   32.1340 H   0  0  0  0  0  0  0  0  0  0  0  0
   34.5120   31.7630   32.9830 H   0  0  0  0  0  0  0  0  0  0  0  0
   35.8270   31.7780   34.1660 H   0  0  0  0  0  0  0  0  0  0  0  0
   36.1920   29.5540   34.0960 H   0  0  0  0  0  0  0  0  0  0  0  0
   34.1140   29.3860   33.6940 C   0  0  0  0  0  3  0  0  0  0  0  0
   33.0610   29.7570   32.6690 C   0  0  0  0  0  3  0  0  0  0  0  0
   33.4240   29.4150   31.6860 H   0  0  0  0  0  0  0  0  0  0  0  0
   31.8000   29.0090   33.1170 C   0  0  0  0  0  3  0  0  0  0  0  0
   30.9640   29.1750   32.4270 H   0  0  0  0  0  0  0  0  0  0  0  0
   31.4420   29.5200   34.3460 O   0  0  0  0  0  0  0  0  0  0  0  0
   32.3650   29.3430   35.3500 C   0  0  0  0  0  3  0  0  0  0  0  0
   31.9790   29.8230   36.2540 H   0  0  0  0  0  0  0  0  0  0  0  0
   33.7000   30.0180   35.0040 C   0  0  0  0  0  3  0  0  0  0  0  0
   33.5080   31.1150   34.9060 H   0  0  0  0  0  0  0  0  0  0  0  0
   35.5260   26.9150   31.1710 C   0  0  0  0  0  0  0  0  0  0  0  0
   36.1340   27.7600   32.1160 C   0  0  0  0  0  0  0  0  0  0  0  0
   36.9480   27.1730   33.0690 C   0  0  0  0  0  0  0  0  0  0  0  0
   37.1170   25.8180   33.0440 N   0  0  0  0  0  0  0  0  0  0  0  0
   36.5190   25.0330   32.1250 C   0  0  0  0  0  0  0  0  0  0  0  0
   35.7330   25.5910   31.2010 N   0  0  0  0  0  0  0  0  0  0  0  0
   34.8780   27.3050   30.3980 H   0  0  0  0  0  0  0  0  0  0  0  0
   37.4530   27.7270   33.8220 H   0  0  0  0  0  0  0  0  0  0  0  0
   36.7360   23.6010   32.1550 C   0  0  0  0  0  0  0  0  0  0  0  0
   35.8450   22.7610   31.5180 C   0  0  0  0  0  0  0  0  0  0  0  0
   35.9860   21.3930   31.5050 C   0  0  0  0  0  0  0  0  0  0  0  0
   37.0790   20.9180   32.1720 C   0  0  0  0  0  0  0  0  0  0  0  0
   38.0200   21.7310   32.8390 C   0  0  0  0  0  0  0  0  0  0  0  0
   37.7910   23.0830   32.7930 N   0  0  0  0  0  0  0  0  0  0  0  0
   34.9990   23.2260   31.0090 H   0  0  0  0  0  0  0  0  0  0  0  0
   35.2900   20.7490   31.0090 H   0  0  0  0  0  0  0  0  0  0  0  0
   37.2910   19.8570   32.2280 H   0  0  0  0  0  0  0  0  0  0  0  0
   38.8730   21.3160   33.3560 H   0  0  0  0  0  0  0  0  0  0  0  0
  1 27  1  0  0  0  0
  1  6  1  0  0  0  0
  2  3  1  0  0  0  0
  2  1  1  0  0  0  0
  3  4  1  0  0  0  0
  4 11  1  0  0  0  0
  4  5  1  0  0  0  0
  5  6  1  0  0  0  0
  5 14  1  0  0  0  0
  6 16  1  0  0  0  0
  6 15  1  1  0  0  0
  7  2  1  0  0  0  0
  8  2  1  0  0  0  0
  9  3  1  0  0  0  0
 10  3  1  0  0  0  0
 12  4  1  0  0  0  0
 13  5  1  0  0  0  0
 16 24  1  0  0  0  0
 17 19  1  0  0  0  0
 17 16  1  0  0  0  0
 18 17  1  0  0  0  0
 19 21  1  0  0  0  0
 20 19  1  0  0  0  0
 21 22  1  0  0  0  0
 22 23  1  0  0  0  0
 24 22  1  0  0  0  0
 25 24  1  0  0  0  0
 26 31  2  0  0  0  0
 26 27  1  0  0  0  0
 27 28  2  0  0  0  0
 28 33  1  0  0  0  0
 29 28  1  0  0  0  0
 30 34  1  0  0  0  0
 30 29  2  0  0  0  0
 31 30  1  0  0  0  0
 32 26  1  0  0  0  0
 34 39  1  0  0  0  0
 35 34  2  0  0  0  0
 36 35  1  0  0  0  0
 36 37  2  0  0  0  0
 37 42  1  0  0  0  0
 37 38  1  0  0  0  0
 38 43  1  0  0  0  0
 39 38  2  0  0  0  0
 40 35  1  0  0  0  0
 41 36  1  0  0  0  0
M  END
>  <minimizedAffinity>
-5.31303835

$$$$

 OpenBabel03272504513D

 43 46  0  0  1  0  0  0  0  0999 V2000
   36.3400   22.3120   31.7960 N   0  0  0  0  0  0  0  0  0  0  0  0
   36.3800   21.4010   30.6580 C   0  0  0  0  0  0  0  0  0  0  0  0
   36.2500   19.9640   31.0320 C   0  0  0  0  0  0  0  0  0  0  0  0
   35.2840   19.8050   32.2020 C   0  0  0  0  0  0  0  0  0  0  0  0
   35.9640   20.4560   33.3710 C   0  0  0  0  0  0  0  0  0  0  0  0
   36.2610   21.9150   33.1600 C   0  0  1  0  0  0  0  0  0  0  0  0
   37.3380   21.5000   30.0970 H   0  0  0  0  0  0  0  0  0  0  0  0
   35.5210   21.6710   30.0080 H   0  0  0  0  0  0  0  0  0  0  0  0
   35.8820   19.4140   30.1230 H   0  0  0  0  0  0  0  0  0  0  0  0
   37.2240   19.5520   31.3740 H   0  0  0  0  0  0  0  0  0  0  0  0
   34.3290   20.3030   31.9680 H   0  0  0  0  0  0  0  0  0  0  0  0
   35.1370   18.7480   32.4310 H   0  0  0  0  0  0  0  0  0  0  0  0
   36.8830   19.8430   33.5770 H   0  0  0  0  0  0  0  0  0  0  0  0
   35.3150   20.2890   34.2670 H   0  0  0  0  0  0  0  0  0  0  0  0
   35.4320   22.4560   33.6570 H   0  0  0  0  0  0  0  0  0  0  0  0
   37.5300   22.2490   33.9040 C   0  0  0  0  0  3  0  0  0  0  0  0
   38.7300   21.5020   33.3560 C   0  0  0  0  0  3  0  0  0  0  0  0
   38.7290   21.6350   32.2630 H   0  0  0  0  0  0  0  0  0  0  0  0
   39.9400   22.1650   34.0240 C   0  0  0  0  0  3  0  0  0  0  0  0
   40.8840   21.7260   33.6790 H   0  0  0  0  0  0  0  0  0  0  0  0
   39.8350   21.9310   35.3780 O   0  0  0  0  0  0  0  0  0  0  0  0
   38.7250   22.4690   35.9840 C   0  0  0  0  0  3  0  0  0  0  0  0
   38.7410   22.1810   37.0400 H   0  0  0  0  0  0  0  0  0  0  0  0
   37.4300   21.9110   35.3740 C   0  0  0  0  0  3  0  0  0  0  0  0
   37.4190   20.8080   35.5590 H   0  0  0  0  0  0  0  0  0  0  0  0
   37.6190   24.3130   31.2140 C   0  0  0  0  0  0  0  0  0  0  0  0
   36.3890   23.6910   31.4880 C   0  0  0  0  0  0  0  0  0  0  0  0
   35.2520   24.4780   31.4510 C   0  0  0  0  0  0  0  0  0  0  0  0
   35.3790   25.8040   31.1530 N   0  0  0  0  0  0  0  0  0  0  0  0
   36.5750   26.3740   30.8940 C   0  0  0  0  0  0  0  0  0  0  0  0
   37.6780   25.6210   30.9280 N   0  0  0  0  0  0  0  0  0  0  0  0
   38.5490   23.7590   31.2260 H   0  0  0  0  0  0  0  0  0  0  0  0
   34.2770   24.0990   31.6410 H   0  0  0  0  0  0  0  0  0  0  0  0
   36.6430   27.7880   30.5880 C   0  0  0  0  0  0  0  0  0  0  0  0
   36.0110   28.6970   31.4130 C   0  0  0  0  0  0  0  0  0  0  0  0
   36.0320   30.0520   31.1860 C   0  0  0  0  0  0  0  0  0  0  0  0
   36.7290   30.4420   30.0780 C   0  0  0  0  0  0  0  0  0  0  0  0
   37.3920   29.5570   29.2030 C   0  0  0  0  0  0  0  0  0  0  0  0
   37.3120   28.2240   29.5160 N   0  0  0  0  0  0  0  0  0  0  0  0
   35.4770   28.2970   32.2780 H   0  0  0  0  0  0  0  0  0  0  0  0
   35.5390   30.7500   31.8310 H   0  0  0  0  0  0  0  0  0  0  0  0
   36.8130   31.4860   29.8010 H   0  0  0  0  0  0  0  0  0  0  0  0
   37.9330   29.9060   28.3350 H   0  0  0  0  0  0  0  0  0  0  0  0
  1  6  1  0  0  0  0
  2  3  1  0  0  0  0
  2  1  1  0  0  0  0
  3 10  1  0  0  0  0
  3  4  1  0  0  0  0
  4 12  1  0  0  0  0
  4  5  1  0  0  0  0
  5 13  1  0  0  0  0
  5 14  1  0  0  0  0
  6  5  1  0  0  0  0
  6 15  1  1  0  0  0
  6 16  1  0  0  0  0
  7  2  1  0  0  0  0
  8  2  1  0  0  0  0
  9  3  1  0  0  0  0
 11  4  1  0  0  0  0
 16 24  1  0  0  0  0
 17 16  1  0  0  0  0
 17 19  1  0  0  0  0
 18 17  1  0  0  0  0
 19 21  1  0  0  0  0
 20 19  1  0  0  0  0
 21 22  1  0  0  0  0
 22 23  1  0  0  0  0
 24 25  1  0  0  0  0
 24 22  1  0  0  0  0
 26 32  1  0  0  0  0
 26 27  1  0  0  0  0
 27  1  1  0  0  0  0
 28 27  2  0  0  0  0
 28 33  1  0  0  0  0
 29 28  1  0  0  0  0
 30 31  1  0  0  0  0
 30 29  2  0  0  0  0
 31 26  2  0  0  0  0
 34 30  1  0  0  0  0
 34 35  1  0  0  0  0
 35 40  1  0  0  0  0
 36 35  2  0  0  0  0
 36 41  1  0  0  0  0
 37 36  1  0  0  0  0
 38 39  1  0  0  0  0
 38 37  2  0  0  0  0
 39 34  2  0  0  0  0
 42 37  1  0  0  0  0
 43 38  1  0  0  0  0
M  END
>  <minimizedAffinity>
-5.24696875

$$$$

 OpenBabel03272504513D

 43 46  0  0  1  0  0  0  0  0999 V2000
   38.7590   22.7620   35.7100 N   0  0  0  0  0  0  0  0  0  0  0  0
   39.7820   22.1850   36.5750 C   0  0  0  0  0  0  0  0  0  0  0  0
   39.9250   22.8800   37.8850 C   0  0  0  0  0  0  0  0  0  0  0  0
   38.5640   23.3470   38.3900 C   0  0  0  0  0  0  0  0  0  0  0  0
   38.1240   24.4110   37.4270 C   0  0  0  0  0  0  0  0  0  0  0  0
   37.9940   23.9240   36.0100 C   0  0  1  0  0  0  0  0  0  0  0  0
   40.7830   22.2120   36.0870 H   0  0  0  0  0  0  0  0  0  0  0  0
   39.4740   21.1350   36.7690 H   0  0  0  0  0  0  0  0  0  0  0  0
   40.3960   22.1510   38.6000 H   0  0  0  0  0  0  0  0  0  0  0  0
   40.5500   23.7930   37.7850 H   0  0  0  0  0  0  0  0  0  0  0  0
   37.8570   22.5010   38.3990 H   0  0  0  0  0  0  0  0  0  0  0  0
   38.6600   23.7960   39.3820 H   0  0  0  0  0  0  0  0  0  0  0  0
   38.8580   25.2540   37.5390 H   0  0  0  0  0  0  0  0  0  0  0  0
   37.1620   24.8310   37.8120 H   0  0  0  0  0  0  0  0  0  0  0  0
   36.9160   23.7040   35.8750 H   0  0  0  0  0  0  0  0  0  0  0  0
   38.3430   25.0650   35.0870 C   0  0  0  0  0  3  0  0  0  0  0  0
   39.7730   25.5340   35.2690 C   0  0  0  0  0  3  0  0  0  0  0  0
   40.4180   24.6410   35.2440 H   0  0  0  0  0  0  0  0  0  0  0  0
   40.0290   26.4730   34.0850 C   0  0  0  0  0  3  0  0  0  0  0  0
   41.0560   26.8580   34.0890 H   0  0  0  0  0  0  0  0  0  0  0  0
   39.1750   27.5450   34.2250 O   0  0  0  0  0  0  0  0  0  0  0  0
   37.8350   27.2400   34.1840 C   0  0  0  0  0  3  0  0  0  0  0  0
   37.2710   28.1630   34.3440 H   0  0  0  0  0  0  0  0  0  0  0  0
   37.4500   26.2650   35.3070 C   0  0  0  0  0  3  0  0  0  0  0  0
   37.6540   26.7750   36.2810 H   0  0  0  0  0  0  0  0  0  0  0  0
   39.6030   21.8530   33.6030 C   0  0  0  0  0  0  0  0  0  0  0  0
   38.5350   22.0950   34.4840 C   0  0  0  0  0  0  0  0  0  0  0  0
   37.2780   21.6660   34.0980 C   0  0  0  0  0  0  0  0  0  0  0  0
   37.1390   21.0350   32.8960 N   0  0  0  0  0  0  0  0  0  0  0  0
   38.1840   20.8170   32.0700 C   0  0  0  0  0  0  0  0  0  0  0  0
   39.4010   21.2280   32.4350 N   0  0  0  0  0  0  0  0  0  0  0  0
   40.6130   22.1620   33.8400 H   0  0  0  0  0  0  0  0  0  0  0  0
   36.4090   21.8000   34.6970 H   0  0  0  0  0  0  0  0  0  0  0  0
   37.9690   20.1450   30.8050 C   0  0  0  0  0  0  0  0  0  0  0  0
   38.9870   20.1010   29.8730 C   0  0  0  0  0  0  0  0  0  0  0  0
   38.8570   19.4830   28.6520 C   0  0  0  0  0  0  0  0  0  0  0  0
   37.6390   18.9090   28.4220 C   0  0  0  0  0  0  0  0  0  0  0  0
   36.5660   18.9240   29.3380 C   0  0  0  0  0  0  0  0  0  0  0  0
   36.7960   19.5660   30.5290 N   0  0  0  0  0  0  0  0  0  0  0  0
   39.9280   20.5870   30.1410 H   0  0  0  0  0  0  0  0  0  0  0  0
   39.6510   19.4540   27.9360 H   0  0  0  0  0  0  0  0  0  0  0  0
   37.4220   18.3930   27.4940 H   0  0  0  0  0  0  0  0  0  0  0  0
   35.6170   18.4570   29.1180 H   0  0  0  0  0  0  0  0  0  0  0  0
  1  6  1  0  0  0  0
  1  2  1  0  0  0  0
  2  8  1  0  0  0  0
  2  3  1  0  0  0  0
  3  4  1  0  0  0  0
  3  9  1  0  0  0  0
  4 11  1  0  0  0  0
  4 12  1  0  0  0  0
  5 13  1  0  0  0  0
  5 14  1  0  0  0  0
  5  4  1  0  0  0  0
  6 15  1  6  0  0  0
  6  5  1  0  0  0  0
  7  2  1  0  0  0  0
 10  3  1  0  0  0  0
 16 17  1  0  0  0  0
 16 24  1  0  0  0  0
 16  6  1  0  0  0  0
 18 17  1  0  0  0  0
 19 20  1  0  0  0  0
 19 21  1  0  0  0  0
 19 17  1  0  0  0  0
 22 21  1  0  0  0  0
 22 23  1  0  0  0  0
 22 24  1  0  0  0  0
 24 25  1  0  0  0  0
 26 32  1  0  0  0  0
 26 27  1  0  0  0  0
 27  1  1  0  0  0  0
 28 27  2  0  0  0  0
 28 33  1  0  0  0  0
 29 28  1  0  0  0  0
 30 31  1  0  0  0  0
 30 29  2  0  0  0  0
 31 26  2  0  0  0  0
 34 30  1  0  0  0  0
 35 40  1  0  0  0  0
 35 34  2  0  0  0  0
 36 35  1  0  0  0  0
 37 36  2  0  0  0  0
 37 38  1  0  0  0  0
 38 39  2  0  0  0  0
 39 34  1  0  0  0  0
 41 36  1  0  0  0  0
 42 37  1  0  0  0  0
 43 38  1  0  0  0  0
M  END
>  <minimizedAffinity>
-5.21635962

$$$$

 OpenBabel03272504513D

 43 46  0  0  1  0  0  0  0  0999 V2000
   35.6630   29.9360   33.3330 N   0  0  0  0  0  0  0  0  0  0  0  0
   36.1150   30.9580   32.3950 C   0  0  0  0  0  0  0  0  0  0  0  0
   35.8530   32.3530   32.8520 C   0  0  0  0  0  0  0  0  0  0  0  0
   36.0340   32.4600   34.3620 C   0  0  0  0  0  0  0  0  0  0  0  0
   34.9280   31.6370   34.9560 C   0  0  0  0  0  0  0  0  0  0  0  0
   34.9670   30.1910   34.5470 C   0  0  1  0  0  0  0  0  0  0  0  0
   35.6140   30.8460   31.4060 H   0  0  0  0  0  0  0  0  0  0  0  0
   37.2130   30.8260   32.2910 H   0  0  0  0  0  0  0  0  0  0  0  0
   36.5720   33.0220   32.3070 H   0  0  0  0  0  0  0  0  0  0  0  0
   34.8030   32.6490   32.6420 H   0  0  0  0  0  0  0  0  0  0  0  0
   37.0230   32.0650   34.6490 H   0  0  0  0  0  0  0  0  0  0  0  0
   35.9090   33.4950   34.6870 H   0  0  0  0  0  0  0  0  0  0  0  0
   33.9710   32.1520   34.6710 H   0  0  0  0  0  0  0  0  0  0  0  0
   34.9850   31.7580   36.0670 H   0  0  0  0  0  0  0  0  0  0  0  0
   35.4710   29.6650   35.3820 H   0  0  0  0  0  0  0  0  0  0  0  0
   33.5470   29.6820   34.4840 C   0  0  0  0  0  3  0  0  0  0  0  0
   32.7560   30.3290   33.3650 C   0  0  0  0  0  3  0  0  0  0  0  0
   33.3650   30.2600   32.4490 H   0  0  0  0  0  0  0  0  0  0  0  0
   31.4670   29.5050   33.2720 C   0  0  0  0  0  3  0  0  0  0  0  0
   30.8160   29.8610   32.4650 H   0  0  0  0  0  0  0  0  0  0  0  0
   30.7940   29.6700   34.4630 O   0  0  0  0  0  0  0  0  0  0  0  0
   31.4540   29.2170   35.5810 C   0  0  0  0  0  3  0  0  0  0  0  0
   30.8350   29.4400   36.4550 H   0  0  0  0  0  0  0  0  0  0  0  0
   32.7940   29.9430   35.7690 C   0  0  0  0  0  3  0  0  0  0  0  0
   32.5720   31.0280   35.9200 H   0  0  0  0  0  0  0  0  0  0  0  0
   35.4650   28.0630   31.7740 C   0  0  0  0  0  0  0  0  0  0  0  0
   35.9520   28.5980   32.9790 C   0  0  0  0  0  0  0  0  0  0  0  0
   36.7050   27.7690   33.7900 C   0  0  0  0  0  0  0  0  0  0  0  0
   36.9360   26.4860   33.3840 N   0  0  0  0  0  0  0  0  0  0  0  0
   36.4540   25.9990   32.2210 C   0  0  0  0  0  0  0  0  0  0  0  0
   35.7260   26.7940   31.4330 N   0  0  0  0  0  0  0  0  0  0  0  0
   34.8680   28.6540   31.0920 H   0  0  0  0  0  0  0  0  0  0  0  0
   37.1190   28.0820   34.7180 H   0  0  0  0  0  0  0  0  0  0  0  0
   36.7320   24.6270   31.8490 C   0  0  0  0  0  0  0  0  0  0  0  0
   35.6880   23.7810   31.5310 C   0  0  0  0  0  0  0  0  0  0  0  0
   35.8740   22.4680   31.1690 C   0  0  0  0  0  0  0  0  0  0  0  0
   37.1750   22.0530   31.1460 C   0  0  0  0  0  0  0  0  0  0  0  0
   38.2770   22.8740   31.4620 C   0  0  0  0  0  0  0  0  0  0  0  0
   37.9870   24.1700   31.8100 N   0  0  0  0  0  0  0  0  0  0  0  0
   34.6790   24.1970   31.5750 H   0  0  0  0  0  0  0  0  0  0  0  0
   35.0590   21.8190   30.9240 H   0  0  0  0  0  0  0  0  0  0  0  0
   37.4410   21.0380   30.8760 H   0  0  0  0  0  0  0  0  0  0  0  0
   39.2940   22.5080   31.4320 H   0  0  0  0  0  0  0  0  0  0  0  0
  1  6  1  0  0  0  0
  2  3  1  0  0  0  0
  2  1  1  0  0  0  0
  3  4  1  0  0  0  0
  4 11  1  0  0  0  0
  4 12  1  0  0  0  0
  4  5  1  0  0  0  0
  5 14  1  0  0  0  0
  6  5  1  0  0  0  0
  6 15  1  1  0  0  0
  7  2  1  0  0  0  0
  8  2  1  0  0  0  0
  9  3  1  0  0  0  0
 10  3  1  0  0  0  0
 13  5  1  0  0  0  0
 16  6  1  0  0  0  0
 16 24  1  0  0  0  0
 17 16  1  0  0  0  0
 18 17  1  0  0  0  0
 19 17  1  0  0  0  0
 19 21  1  0  0  0  0
 20 19  1  0  0  0  0
 21 22  1  0  0  0  0
 22 24  1  0  0  0  0
 22 23  1  0  0  0  0
 24 25  1  0  0  0  0
 26 27  1  0  0  0  0
 27  1  1  0  0  0  0
 27 28  2  0  0  0  0
 28 33  1  0  0  0  0
 29 28  1  0  0  0  0
 30 29  2  0  0  0  0
 31 26  2  0  0  0  0
 31 30  1  0  0  0  0
 32 26  1  0  0  0  0
 34 30  1  0  0  0  0
 35 40  1  0  0  0  0
 35 34  2  0  0  0  0
 36 35  1  0  0  0  0
 37 36  2  0  0  0  0
 37 38  1  0  0  0  0
 38 39  2  0  0  0  0
 39 34  1  0  0  0  0
 41 36  1  0  0  0  0
 42 37  1  0  0  0  0
 43 38  1  0  0  0  0
M  END
>  <minimizedAffinity>
-5.18513489

$$$$

 OpenBabel03272504513D

 43 46  0  0  1  0  0  0  0  0999 V2000
   38.3170   25.8100   31.5180 N   0  0  0  0  0  0  0  0  0  0  0  0
   39.7560   26.0460   31.4960 C   0  0  0  0  0  0  0  0  0  0  0  0
   40.5090   25.1000   30.6240 C   0  0  0  0  0  0  0  0  0  0  0  0
   39.6940   24.7620   29.3800 C   0  0  0  0  0  0  0  0  0  0  0  0
   38.5110   23.9830   29.8770 C   0  0  0  0  0  0  0  0  0  0  0  0
   37.6520   24.7460   30.8480 C   0  0  1  0  0  0  0  0  0  0  0  0
   40.1940   25.9570   32.5170 H   0  0  0  0  0  0  0  0  0  0  0  0
   39.9010   27.0740   31.1010 H   0  0  0  0  0  0  0  0  0  0  0  0
   41.4800   25.5970   30.3520 H   0  0  0  0  0  0  0  0  0  0  0  0
   40.6920   24.1370   31.1470 H   0  0  0  0  0  0  0  0  0  0  0  0
   39.3760   25.6910   28.8770 H   0  0  0  0  0  0  0  0  0  0  0  0
   40.2720   24.1240   28.7090 H   0  0  0  0  0  0  0  0  0  0  0  0
   38.9240   23.0310   30.3060 H   0  0  0  0  0  0  0  0  0  0  0  0
   37.9310   23.6520   28.9800 H   0  0  0  0  0  0  0  0  0  0  0  0
   36.8180   25.1520   30.2430 H   0  0  0  0  0  0  0  0  0  0  0  0
   37.0640   23.7620   31.8290 C   0  0  0  0  0  3  0  0  0  0  0  0
   38.1260   22.9040   32.4880 C   0  0  0  0  0  3  0  0  0  0  0  0
   38.9140   23.5800   32.8540 H   0  0  0  0  0  0  0  0  0  0  0  0
   37.3950   22.1870   33.6290 C   0  0  0  0  0  3  0  0  0  0  0  0
   38.0740   21.5510   34.2080 H   0  0  0  0  0  0  0  0  0  0  0  0
   36.4430   21.3740   33.0530 O   0  0  0  0  0  0  0  0  0  0  0  0
   35.4710   22.0260   32.3300 C   0  0  0  0  0  3  0  0  0  0  0  0
   34.8060   21.2710   31.8980 H   0  0  0  0  0  0  0  0  0  0  0  0
   36.0810   22.8220   31.1670 C   0  0  0  0  0  3  0  0  0  0  0  0
   36.5820   22.0920   30.4850 H   0  0  0  0  0  0  0  0  0  0  0  0
   36.5260   27.4680   31.6640 C   0  0  0  0  0  0  0  0  0  0  0  0
   37.5500   26.7250   32.2750 C   0  0  0  0  0  0  0  0  0  0  0  0
   37.7730   26.9320   33.6250 C   0  0  0  0  0  0  0  0  0  0  0  0
   36.9960   27.8380   34.2880 N   0  0  0  0  0  0  0  0  0  0  0  0
   36.0190   28.5380   33.6730 C   0  0  0  0  0  0  0  0  0  0  0  0
   35.7980   28.3440   32.3710 N   0  0  0  0  0  0  0  0  0  0  0  0
   36.2970   27.3580   30.6120 H   0  0  0  0  0  0  0  0  0  0  0  0
   38.5210   26.4160   34.1760 H   0  0  0  0  0  0  0  0  0  0  0  0
   35.2320   29.4880   34.4330 C   0  0  0  0  0  0  0  0  0  0  0  0
   35.8610   30.5250   35.0910 C   0  0  0  0  0  0  0  0  0  0  0  0
   35.1810   31.4630   35.8300 C   0  0  0  0  0  0  0  0  0  0  0  0
   33.8250   31.2960   35.8690 C   0  0  0  0  0  0  0  0  0  0  0  0
   33.1330   30.2560   35.2160 C   0  0  0  0  0  0  0  0  0  0  0  0
   33.9020   29.3710   34.5030 N   0  0  0  0  0  0  0  0  0  0  0  0
   36.9490   30.5820   35.0060 H   0  0  0  0  0  0  0  0  0  0  0  0
   35.6760   32.2640   36.3380 H   0  0  0  0  0  0  0  0  0  0  0  0
   33.1870   31.9760   36.4210 H   0  0  0  0  0  0  0  0  0  0  0  0
   32.0580   30.1590   35.2710 H   0  0  0  0  0  0  0  0  0  0  0  0
  1 27  1  0  0  0  0
  2  1  1  0  0  0  0
  2  7  1  0  0  0  0
  3 10  1  0  0  0  0
  3  2  1  0  0  0  0
  4  5  1  0  0  0  0
  4  3  1  0  0  0  0
  5 13  1  0  0  0  0
  5  6  1  0  0  0  0
  6 15  1  6  0  0  0
  6  1  1  0  0  0  0
  6 16  1  0  0  0  0
  8  2  1  0  0  0  0
  9  3  1  0  0  0  0
 11  4  1  0  0  0  0
 12  4  1  0  0  0  0
 14  5  1  0  0  0  0
 16 17  1  0  0  0  0
 17 18  1  0  0  0  0
 17 19  1  0  0  0  0
 19 20  1  0  0  0  0
 21 19  1  0  0  0  0
 22 21  1  0  0  0  0
 23 22  1  0  0  0  0
 24 16  1  0  0  0  0
 24 22  1  0  0  0  0
 25 24  1  0  0  0  0
 26 27  2  0  0  0  0
 26 31  1  0  0  0  0
 27 28  1  0  0  0  0
 28 33  1  0  0  0  0
 28 29  2  0  0  0  0
 30 29  1  0  0  0  0
 30 34  1  0  0  0  0
 31 30  2  0  0  0  0
 32 26  1  0  0  0  0
 34 39  2  0  0  0  0
 34 35  1  0  0  0  0
 35 36  2  0  0  0  0
 36 37  1  0  0  0  0
 36 41  1  0  0  0  0
 37 42  1  0  0  0  0
 38 43  1  0  0  0  0
 38 37  2  0  0  0  0
 39 38  1  0  0  0  0
 40 35  1  0  0  0  0
M  END
>  <minimizedAffinity>
-5.0683465

$$$$
