
 OpenBabel03272505273D

 32 34  0  0  0  0  0  0  0  0999 V2000
   37.4480   31.0900   47.0750 N   0  0  0  0  0  0  0  0  0  0  0  0
   36.8690   30.7150   45.9030 C   0  0  0  0  0  0  0  0  0  0  0  0
   37.3320   31.1690   44.6750 C   0  0  0  0  0  0  0  0  0  0  0  0
   38.4360   32.0410   44.6870 C   0  0  0  0  0  0  0  0  0  0  0  0
   38.8860   32.4740   43.6020 O   0  0  0  0  0  0  0  0  0  0  0  0
   39.0110   32.4100   45.8750 N   0  0  0  0  0  0  0  0  0  0  0  0
   38.4750   31.9080   46.9780 C   0  0  0  0  0  0  0  0  0  0  0  0
   39.0290   32.2720   48.0420 O   0  0  0  0  0  0  0  0  0  0  0  0
   36.0190   30.0430   45.9190 H   0  0  0  0  0  0  0  0  0  0  0  0
   36.6760   30.7400   43.4490 C   0  0  0  0  0  3  0  0  0  0  0  0
   35.4800   31.6000   43.0750 C   0  0  0  0  0  3  0  0  0  0  0  0
   34.6680   31.4630   43.8370 H   0  0  0  0  0  0  0  0  0  0  0  0
   34.9370   31.0480   41.7750 C   0  0  0  0  0  3  0  0  0  0  0  0
   33.9640   30.5130   41.9150 H   0  0  0  0  0  0  0  0  0  0  0  0
   35.7880   30.1360   41.1690 O   0  0  0  0  0  0  0  0  0  0  0  0
   35.9890   28.9950   41.9280 C   0  0  0  0  0  3  0  0  0  0  0  0
   35.1950   28.2520   41.7860 H   0  0  0  0  0  0  0  0  0  0  0  0
   36.2160   29.3170   43.4110 C   0  0  0  0  0  3  0  0  0  0  0  0
   36.9290   28.6040   43.8700 H   0  0  0  0  0  0  0  0  0  0  0  0
   37.3030   29.5900   50.4670 C   0  0  0  0  0  0  0  0  0  0  0  0
   37.7910   30.0530   49.2350 C   0  0  0  0  0  0  0  0  0  0  0  0
   36.9630   30.6220   48.3010 C   0  0  0  0  0  0  0  0  0  0  0  0
   35.6350   30.7220   48.6080 N   0  0  0  0  0  0  0  0  0  0  0  0
   35.1400   30.2790   49.7950 C   0  0  0  0  0  0  0  0  0  0  0  0
   35.9650   29.7150   50.7210 N   0  0  0  0  0  0  0  0  0  0  0  0
   37.8900   29.1370   51.2430 H   0  0  0  0  0  0  0  0  0  0  0  0
   38.8440   29.8780   49.1780 H   0  0  0  0  0  0  0  0  0  0  0  0
   34.0780   30.3960   49.9560 H   0  0  0  0  0  0  0  0  0  0  0  0
   40.1540   33.3050   45.8800 C   0  0  0  0  0  0  0  0  0  0  0  0
   40.0140   34.2630   44.9300 F   0  0  0  0  0  0  0  0  0  0  0  0
   41.3410   32.6490   45.5970 F   0  0  0  0  0  0  0  0  0  0  0  0
   40.2290   33.9300   47.1180 F   0  0  0  0  0  0  0  0  0  0  0  0
  1 22  1  0  0  0  0
  2  9  1  0  0  0  0
  2  1  1  0  0  0  0
  3  4  1  0  0  0  0
  3  2  2  0  0  0  0
  4  6  1  0  0  0  0
  5  4  2  0  0  0  0
  6 29  1  0  0  0  0
  6  7  1  0  0  0  0
  7  1  1  0  0  0  0
  7  8  2  0  0  0  0
 10  3  1  0  0  0  0
 11 10  1  0  0  0  0
 11 12  1  0  0  0  0
 13 14  1  0  0  0  0
 13 11  1  0  0  0  0
 15 13  1  0  0  0  0
 15 16  1  0  0  0  0
 16 18  1  0  0  0  0
 17 16  1  0  0  0  0
 18 10  1  0  0  0  0
 18 19  1  0  0  0  0
 20 25  1  0  0  0  0
 20 26  1  0  0  0  0
 21 20  2  0  0  0  0
 22 23  2  0  0  0  0
 22 21  1  0  0  0  0
 23 24  1  0  0  0  0
 24 28  1  0  0  0  0
 24 25  2  0  0  0  0
 27 21  1  0  0  0  0
 29 32  1  0  0  0  0
 30 29  1  0  0  0  0
 31 29  1  0  0  0  0
M  END
>  <minimizedAffinity>
-6.11565065

>  <minimizedRMSD>
0.717579126

$$$$
