
 OpenBabel03272507143D

 41 45  0  0  0  0  0  0  0  0999 V2000
   35.8790   29.1060   49.8720 C   0  0  0  0  0  0  0  0  0  0  0  0
   34.8550   29.6400   50.5740 C   0  0  0  0  0  0  0  0  0  0  0  0
   33.6810   29.0890   50.0560 C   0  0  0  0  0  0  0  0  0  0  0  0
   34.0910   28.2220   49.0340 C   0  0  0  0  0  0  0  0  0  0  0  0
   35.3850   28.2820   48.9840 O   0  0  0  0  0  0  0  0  0  0  0  0
   34.8710   30.3700   51.4000 H   0  0  0  0  0  0  0  0  0  0  0  0
   32.6890   29.3490   50.4460 H   0  0  0  0  0  0  0  0  0  0  0  0
   33.5360   26.5090   47.3100 C   0  0  0  0  0  0  0  0  0  0  0  0
   33.1310   27.4510   48.2490 C   0  0  0  0  0  0  0  0  0  0  0  0
   31.7910   27.6990   48.4860 C   0  0  0  0  0  0  0  0  0  0  0  0
   30.8660   26.9870   47.7650 C   0  0  0  0  0  0  0  0  0  0  0  0
   29.5200   27.0110   47.7820 N   0  0  0  0  0  0  0  0  0  0  0  0
   29.0950   26.1200   46.8910 N   0  0  0  0  0  0  0  0  0  0  0  0
   30.1420   25.5310   46.3070 C   0  0  0  0  0  0  0  0  0  0  0  0
   31.3200   26.0560   46.8360 C   0  0  0  0  0  0  0  0  0  0  0  0
   32.6460   25.7940   46.5860 C   0  0  0  0  0  0  0  0  0  0  0  0
   34.6080   26.3840   47.1940 H   0  0  0  0  0  0  0  0  0  0  0  0
   31.4060   28.4210   49.2040 H   0  0  0  0  0  0  0  0  0  0  0  0
   28.8820   27.5990   48.3660 H   0  0  0  0  0  0  0  0  0  0  0  0
   30.1510   24.7500   45.5290 H   0  0  0  0  0  0  0  0  0  0  0  0
   32.9320   25.0690   45.8630 H   0  0  0  0  0  0  0  0  0  0  0  0
   37.2700   29.4570   50.1400 C   0  0  0  0  0  0  0  0  0  0  0  0
   37.9110   28.7940   50.9940 O   0  0  0  0  0  0  0  0  0  0  0  0
   37.8340   30.5590   49.4000 C   0  0  0  0  0  0  0  0  0  0  0  0
   38.1750   31.6950   50.1030 C   0  0  0  0  0  0  0  0  0  0  0  0
   38.7190   32.7780   49.4280 C   0  0  0  0  0  0  0  0  0  0  0  0
   38.8880   32.6500   48.0900 N   0  0  0  0  0  0  0  0  0  0  0  0
   38.5560   31.5510   47.4170 C   0  0  0  0  0  0  0  0  0  0  0  0
   38.0340   30.5190   48.0790 N   0  0  0  0  0  0  0  0  0  0  0  0
   38.0500   31.8280   51.1880 H   0  0  0  0  0  0  0  0  0  0  0  0
   38.9930   33.6690   49.9440 H   0  0  0  0  0  0  0  0  0  0  0  0
   38.7360   31.3990   45.9460 C   0  0  0  0  0  3  0  0  0  0  0  0
   37.4400   31.1010   45.2310 C   0  0  0  0  0  3  0  0  0  0  0  0
   36.7710   32.0020   45.2070 H   0  0  0  0  0  0  0  0  0  0  0  0
   37.8280   30.6510   43.8370 C   0  0  0  0  0  3  0  0  0  0  0  0
   36.9460   30.5240   43.1810 H   0  0  0  0  0  0  0  0  0  0  0  0
   38.8210   31.4210   43.2910 O   0  0  0  0  0  0  0  0  0  0  0  0
   38.9490   32.6860   43.8520 C   0  0  0  0  0  3  0  0  0  0  0  0
   39.7710   33.1980   43.3090 H   0  0  0  0  0  0  0  0  0  0  0  0
   39.3260   32.6350   45.3090 C   0  0  0  0  0  3  0  0  0  0  0  0
   38.9330   33.5700   45.7840 H   0  0  0  0  0  0  0  0  0  0  0  0
  1 22  1  0  0  0  0
  1  2  2  0  0  0  0
  2  6  1  0  0  0  0
  3  7  1  0  0  0  0
  3  2  1  0  0  0  0
  4  3  2  0  0  0  0
  5  4  1  0  0  0  0
  5  1  1  0  0  0  0
  8  9  1  0  0  0  0
  9 10  2  0  0  0  0
  9  4  1  0  0  0  0
 10 18  1  0  0  0  0
 11 12  1  0  0  0  0
 11 10  1  0  0  0  0
 12 19  1  0  0  0  0
 13 12  1  0  0  0  0
 14 15  1  0  0  0  0
 14 13  2  0  0  0  0
 15 11  2  0  0  0  0
 16 15  1  0  0  0  0
 16  8  2  0  0  0  0
 17  8  1  0  0  0  0
 20 14  1  0  0  0  0
 21 16  1  0  0  0  0
 22 23  2  0  0  0  0
 24 25  1  0  0  0  0
 24 22  1  0  0  0  0
 25 30  1  0  0  0  0
 26 31  1  0  0  0  0
 26 25  2  0  0  0  0
 27 26  1  0  0  0  0
 28 29  1  0  0  0  0
 28 27  2  0  0  0  0
 29 24  2  0  0  0  0
 32 28  1  0  0  0  0
 33 32  1  0  0  0  0
 34 33  1  0  0  0  0
 35 33  1  0  0  0  0
 36 35  1  0  0  0  0
 37 35  1  0  0  0  0
 37 38  1  0  0  0  0
 38 40  1  0  0  0  0
 39 38  1  0  0  0  0
 40 41  1  0  0  0  0
 40 32  1  0  0  0  0
M  END
>  <minimizedAffinity>
-6.8550024

>  <minimizedRMSD>
0.273869962

$$$$
