
 OpenBabel03272509503D

 34 36  0  0  0  0  0  0  0  0999 V2000
   37.2000   30.1740   51.3370 C   0  0  0  0  0  0  0  0  0  0  0  0
   37.6620   30.9010   50.2170 C   0  0  0  0  0  0  0  0  0  0  0  0
   37.0270   30.6740   49.0080 C   0  0  0  0  0  0  0  0  0  0  0  0
   35.9950   29.7660   48.9620 N   0  0  0  0  0  0  0  0  0  0  0  0
   35.5900   29.1000   50.0480 C   0  0  0  0  0  0  0  0  0  0  0  0
   36.1940   29.3070   51.2290 N   0  0  0  0  0  0  0  0  0  0  0  0
   37.6480   30.3000   52.3140 H   0  0  0  0  0  0  0  0  0  0  0  0
   38.4810   31.6010   50.3280 H   0  0  0  0  0  0  0  0  0  0  0  0
   37.4940   31.4260   47.8170 C   0  0  0  0  0  3  0  0  0  0  0  0
   37.9680   30.5210   46.7380 C   0  0  0  0  0  3  0  0  0  0  0  0
   38.6270   29.7060   47.0770 H   0  0  0  0  0  0  0  0  0  0  0  0
   38.7930   31.3070   45.7370 C   0  0  0  0  0  3  0  0  0  0  0  0
   38.2410   32.1420   45.2670 H   0  0  0  0  0  0  0  0  0  0  0  0
   39.9260   31.7540   46.4440 O   0  0  0  0  0  0  0  0  0  0  0  0
   39.4910   32.8250   47.2170 C   0  0  0  0  0  3  0  0  0  0  0  0
   40.3800   33.2710   47.7100 H   0  0  0  0  0  0  0  0  0  0  0  0
   38.5340   32.4030   48.2980 C   0  0  0  0  0  3  0  0  0  0  0  0
   39.0830   31.9490   49.1490 H   0  0  0  0  0  0  0  0  0  0  0  0
   34.5490   28.2520   49.7620 O   0  0  0  0  0  0  0  0  0  0  0  0
   33.6760   28.5760   48.6900 C   0  0  0  0  0  0  0  0  0  0  0  0
   34.2910   28.8650   47.8150 H   0  0  0  0  0  0  0  0  0  0  0  0
   33.1010   29.4840   48.9600 H   0  0  0  0  0  0  0  0  0  0  0  0
   32.7430   27.4420   48.4140 C   0  0  0  0  0  0  0  0  0  0  0  0
   33.0200   27.0270   47.4070 H   0  0  0  0  0  0  0  0  0  0  0  0
   32.8780   26.6450   49.1740 H   0  0  0  0  0  0  0  0  0  0  0  0
   31.3080   27.8600   48.3850 C   0  0  0  0  0  0  0  0  0  0  0  0
   30.6170   27.7500   49.5690 C   0  0  0  0  0  0  0  0  0  0  0  0
   29.2910   28.1030   49.6680 C   0  0  0  0  0  0  0  0  0  0  0  0
   28.6570   28.5670   48.5830 N   0  0  0  0  0  0  0  0  0  0  0  0
   29.3480   28.6680   47.4330 C   0  0  0  0  0  0  0  0  0  0  0  0
   30.6410   28.3300   47.3100 N   0  0  0  0  0  0  0  0  0  0  0  0
   31.0730   27.3810   50.4910 H   0  0  0  0  0  0  0  0  0  0  0  0
   28.7090   28.0330   50.5850 H   0  0  0  0  0  0  0  0  0  0  0  0
   28.8830   29.0410   46.5090 H   0  0  0  0  0  0  0  0  0  0  0  0
  1  7  1  0  0  0  0
  2  8  1  0  0  0  0
  2  1  2  0  0  0  0
  3  2  1  0  0  0  0
  4  3  2  0  0  0  0
  4  5  1  0  0  0  0
  5  6  2  0  0  0  0
  6  1  1  0  0  0  0
  9 17  1  0  0  0  0
  9  3  1  0  0  0  0
 10 11  1  0  0  0  0
 10  9  1  0  0  0  0
 12 14  1  0  0  0  0
 12 10  1  0  0  0  0
 13 12  1  0  0  0  0
 14 15  1  0  0  0  0
 15 16  1  0  0  0  0
 15 17  1  0  0  0  0
 17 18  1  0  0  0  0
 19  5  1  0  0  0  0
 20 22  1  0  0  0  0
 20 19  1  0  0  0  0
 21 20  1  0  0  0  0
 23 20  1  0  0  0  0
 23 25  1  0  0  0  0
 24 23  1  0  0  0  0
 26 23  1  0  0  0  0
 26 27  1  0  0  0  0
 27 28  2  0  0  0  0
 27 32  1  0  0  0  0
 28 33  1  0  0  0  0
 29 28  1  0  0  0  0
 30 29  2  0  0  0  0
 31 30  1  0  0  0  0
 31 26  2  0  0  0  0
 34 30  1  0  0  0  0
M  END
>  <minimizedAffinity>
-5.64546776

>  <minimizedRMSD>
0.711967409

$$$$
