
 OpenBabel03272507193D

 31 33  0  0  1  0  0  0  0  0999 V2000
   37.1310   31.3110   49.3260 C   0  0  0  0  0  0  0  0  0  0  0  0
   37.3070   32.5690   49.8960 C   0  0  0  0  0  0  0  0  0  0  0  0
   38.2310   33.3760   49.2330 C   0  0  0  0  0  0  0  0  0  0  0  0
   38.8920   32.9310   48.1130 N   0  0  0  0  0  0  0  0  0  0  0  0
   38.6830   31.6960   47.5980 C   0  0  0  0  0  0  0  0  0  0  0  0
   37.7800   30.8720   48.2260 N   0  0  0  0  0  0  0  0  0  0  0  0
   36.7690   32.8620   50.7640 H   0  0  0  0  0  0  0  0  0  0  0  0
   38.4110   34.3680   49.6310 H   0  0  0  0  0  0  0  0  0  0  0  0
   39.4170   31.2770   46.4010 C   0  0  0  0  0  0  0  0  0  0  0  0
   40.0220   32.5250   45.8030 C   0  0  0  0  0  0  0  0  0  0  0  0
   40.8280   32.8550   46.5090 H   0  0  0  0  0  0  0  0  0  0  0  0
   40.5380   32.2180   44.4330 C   0  0  0  0  0  0  0  0  0  0  0  0
   41.5790   32.6530   44.3920 H   0  0  0  0  0  0  0  0  0  0  0  0
   40.7160   30.8460   44.2530 O   0  0  0  0  0  0  0  0  0  0  0  0
   39.5070   30.1590   44.2380 C   0  0  0  0  0  0  0  0  0  0  0  0
   39.7480   29.0810   44.1790 H   0  0  0  0  0  0  0  0  0  0  0  0
   38.6160   30.4870   45.4120 C   0  0  0  0  0  0  0  0  0  0  0  0
   37.6880   31.0090   45.1140 H   0  0  0  0  0  0  0  0  0  0  0  0
   36.1240   30.4170   49.9960 C   0  0  1  0  0  0  0  0  0  0  0  0
   34.9350   29.9350   49.2950 C   0  0  2  0  0  0  0  0  0  0  0  0
   36.1060   29.0030   49.3810 C   0  0  0  0  0  0  0  0  0  0  0  0
   36.2460   30.3670   51.1130 H   0  0  0  0  0  0  0  0  0  0  0  0
   34.0410   29.8410   49.9650 H   0  0  0  0  0  0  0  0  0  0  0  0
   35.9320   28.1540   50.0730 H   0  0  0  0  0  0  0  0  0  0  0  0
   36.7040   28.8170   48.4680 H   0  0  0  0  0  0  0  0  0  0  0  0
   34.6320   30.5270   48.0780 O   0  0  0  0  0  0  0  0  0  0  0  0
   33.9200   30.0470   47.0300 C   0  0  0  0  0  0  0  0  0  0  0  0
   34.1420   28.9250   46.5280 O   0  0  0  0  0  0  0  0  0  0  0  0
   32.9710   31.0060   46.6720 N   0  0  0  0  0  0  0  0  0  0  0  0
   33.2190   31.9410   46.2390 H   0  0  0  0  0  0  0  0  0  0  0  0
   31.9630   30.7940   46.8370 H   0  0  0  0  0  0  0  0  0  0  0  0
  1  2  1  0  0  0  0
  1 19  1  0  0  0  0
  2  7  1  0  0  0  0
  3  8  1  0  0  0  0
  3  2  2  0  0  0  0
  4  3  1  0  0  0  0
  5  4  2  0  0  0  0
  5  6  1  0  0  0  0
  6  1  2  0  0  0  0
  9  5  1  0  0  0  0
 10  9  1  0  0  0  0
 10 11  1  0  0  0  0
 12 10  1  0  0  0  0
 13 12  1  0  0  0  0
 14 12  1  0  0  0  0
 15 14  1  0  0  0  0
 15 17  1  0  0  0  0
 16 15  1  0  0  0  0
 17  9  1  0  0  0  0
 18 17  1  0  0  0  0
 19 22  1  1  0  0  0
 20 21  1  0  0  0  0
 20 23  1  1  0  0  0
 20 19  1  0  0  0  0
 21 19  1  0  0  0  0
 21 24  1  0  0  0  0
 25 21  1  0  0  0  0
 26 20  1  0  0  0  0
 27 26  1  0  0  0  0
 28 27  2  0  0  0  0
 29 31  1  0  0  0  0
 29 27  1  0  0  0  0
 30 29  1  0  0  0  0
M  END
>  <minimizedAffinity>
-6.24498987

>  <minimizedRMSD>
2.93617797

$$$$
