
 OpenBabel03272502403D

 41 44  0  0  1  0  0  0  0  0999 V2000
   36.3990   27.7260   32.5570 N   0  0  0  0  0  0  0  0  0  0  0  0
   36.3870   28.8190   31.6030 C   0  0  0  0  0  0  0  0  0  0  0  0
   35.6810   29.9170   32.3480 C   0  0  0  0  0  0  0  0  0  0  0  0
   35.1660   29.2340   33.6890 C   0  0  1  0  0  0  0  0  0  0  0  0
   36.2620   28.2880   33.9210 C   0  0  0  0  0  0  0  0  0  0  0  0
   35.8660   28.5480   30.6660 H   0  0  0  0  0  0  0  0  0  0  0  0
   37.4240   29.1520   31.3800 H   0  0  0  0  0  0  0  0  0  0  0  0
   36.3390   30.7540   32.6360 H   0  0  0  0  0  0  0  0  0  0  0  0
   34.7990   30.2630   31.8340 H   0  0  0  0  0  0  0  0  0  0  0  0
   34.2350   28.8070   33.2990 H   0  0  0  0  0  0  0  0  0  0  0  0
   37.2190   28.7560   34.2200 H   0  0  0  0  0  0  0  0  0  0  0  0
   35.9440   27.4900   34.6230 H   0  0  0  0  0  0  0  0  0  0  0  0
   32.6970   29.6120   35.0010 F   0  0  0  0  0  0  0  0  0  0  0  0
   33.7710   30.3570   35.2950 C   0  0  0  0  0  0  0  0  0  0  0  0
   34.9970   30.2850   34.7000 C   0  0  0  0  0  0  0  0  0  0  0  0
   36.0160   31.1340   35.1640 C   0  0  0  0  0  0  0  0  0  0  0  0
   35.8080   32.0200   36.1900 C   0  0  0  0  0  0  0  0  0  0  0  0
   34.5450   32.0780   36.7820 C   0  0  0  0  0  0  0  0  0  0  0  0
   33.5120   31.2320   36.3250 C   0  0  0  0  0  0  0  0  0  0  0  0
   36.9450   31.0020   34.6300 H   0  0  0  0  0  0  0  0  0  0  0  0
   36.6310   32.6450   36.5050 H   0  0  0  0  0  0  0  0  0  0  0  0
   34.4810   32.7930   37.5640 H   0  0  0  0  0  0  0  0  0  0  0  0
   32.2010   31.3660   37.0120 C   0  0  0  0  0  3  0  0  0  0  0  0
   31.4740   32.6270   36.7590 C   0  0  0  0  0  3  0  0  0  0  0  0
   32.0010   33.5470   37.0730 H   0  0  0  0  0  0  0  0  0  0  0  0
   30.9740   32.6900   35.3410 C   0  0  0  0  0  3  0  0  0  0  0  0
   30.3030   33.5570   35.1620 H   0  0  0  0  0  0  0  0  0  0  0  0
   30.2550   31.5540   34.9870 O   0  0  0  0  0  0  0  0  0  0  0  0
   29.9970   30.6950   36.0270 C   0  0  0  0  0  3  0  0  0  0  0  0
   29.3010   31.1950   36.7290 H   0  0  0  0  0  0  0  0  0  0  0  0
   31.2610   30.2320   36.6990 C   0  0  0  0  0  3  0  0  0  0  0  0
   30.9400   29.7770   37.6600 H   0  0  0  0  0  0  0  0  0  0  0  0
   36.5120   26.3500   32.2820 C   0  0  0  0  0  0  0  0  0  0  0  0
   35.6590   25.8540   31.2840 C   0  0  0  0  0  0  0  0  0  0  0  0
   35.7010   24.4930   30.9600 C   0  0  0  0  0  0  0  0  0  0  0  0
   36.6060   23.7270   31.6720 N   0  0  0  0  0  0  0  0  0  0  0  0
   37.4040   24.2280   32.6160 C   0  0  0  0  0  0  0  0  0  0  0  0
   37.3570   25.5510   32.9240 N   0  0  0  0  0  0  0  0  0  0  0  0
   34.9380   26.4090   30.7020 H   0  0  0  0  0  0  0  0  0  0  0  0
   35.0850   24.0320   30.2130 H   0  0  0  0  0  0  0  0  0  0  0  0
   38.0770   23.5420   33.1130 H   0  0  0  0  0  0  0  0  0  0  0  0
  1  5  1  0  0  0  0
  2  3  1  0  0  0  0
  2  1  1  0  0  0  0
  3  8  1  0  0  0  0
  3  4  1  0  0  0  0
  4 10  1  6  0  0  0
  4  5  1  0  0  0  0
  4 15  1  0  0  0  0
  5 11  1  0  0  0  0
  5 12  1  0  0  0  0
  6  2  1  0  0  0  0
  7  2  1  0  0  0  0
  9  3  1  0  0  0  0
 13 14  1  0  0  0  0
 14 19  1  0  0  0  0
 15 16  1  0  0  0  0
 15 14  2  0  0  0  0
 16 17  2  0  0  0  0
 17 21  1  0  0  0  0
 17 18  1  0  0  0  0
 18 22  1  0  0  0  0
 19 18  2  0  0  0  0
 19 23  1  0  0  0  0
 20 16  1  0  0  0  0
 24 23  1  0  0  0  0
 24 25  1  0  0  0  0
 26 24  1  0  0  0  0
 27 26  1  0  0  0  0
 28 26  1  0  0  0  0
 28 29  1  0  0  0  0
 29 31  1  0  0  0  0
 29 30  1  0  0  0  0
 31 23  1  0  0  0  0
 31 32  1  0  0  0  0
 33  1  1  0  0  0  0
 33 38  1  0  0  0  0
 34 33  2  0  0  0  0
 35 34  1  0  0  0  0
 35 36  2  0  0  0  0
 36 37  1  0  0  0  0
 37 38  2  0  0  0  0
 37 41  1  0  0  0  0
 39 34  1  0  0  0  0
 40 35  1  0  0  0  0
M  END
>  <minimizedAffinity>
-5.90631294

$$$$

 OpenBabel03272502403D

 41 44  0  0  1  0  0  0  0  0999 V2000
   36.0420   29.3750   32.0060 N   0  0  0  0  0  0  0  0  0  0  0  0
   36.1670   28.2250   32.8810 C   0  0  0  0  0  0  0  0  0  0  0  0
   35.9010   28.8010   34.2430 C   0  0  0  0  0  0  0  0  0  0  0  0
   35.8200   30.3720   34.0130 C   0  0  1  0  0  0  0  0  0  0  0  0
   35.2080   30.3960   32.6810 C   0  0  0  0  0  0  0  0  0  0  0  0
   37.1660   27.7550   32.8120 H   0  0  0  0  0  0  0  0  0  0  0  0
   35.3770   27.4760   32.6510 H   0  0  0  0  0  0  0  0  0  0  0  0
   34.9400   28.4810   34.6820 H   0  0  0  0  0  0  0  0  0  0  0  0
   36.7210   28.6430   34.9250 H   0  0  0  0  0  0  0  0  0  0  0  0
   36.8920   30.5920   34.0550 H   0  0  0  0  0  0  0  0  0  0  0  0
   34.1490   30.0740   32.6550 H   0  0  0  0  0  0  0  0  0  0  0  0
   35.3620   31.3830   32.2000 H   0  0  0  0  0  0  0  0  0  0  0  0
   33.2000   29.4650   34.5370 F   0  0  0  0  0  0  0  0  0  0  0  0
   33.7780   30.4140   35.2850 C   0  0  0  0  0  0  0  0  0  0  0  0
   35.0200   30.9500   35.1000 C   0  0  0  0  0  0  0  0  0  0  0  0
   35.4700   31.9220   36.0090 C   0  0  0  0  0  0  0  0  0  0  0  0
   34.7000   32.3360   37.0670 C   0  0  0  0  0  0  0  0  0  0  0  0
   33.4330   31.7740   37.2350 C   0  0  0  0  0  0  0  0  0  0  0  0
   32.9670   30.7980   36.3290 C   0  0  0  0  0  0  0  0  0  0  0  0
   36.4600   32.2850   35.7770 H   0  0  0  0  0  0  0  0  0  0  0  0
   35.1020   33.0840   37.7340 H   0  0  0  0  0  0  0  0  0  0  0  0
   32.9140   32.1570   38.0790 H   0  0  0  0  0  0  0  0  0  0  0  0
   31.6060   30.2590   36.5850 C   0  0  0  0  0  3  0  0  0  0  0  0
   30.4940   31.2080   36.3690 C   0  0  0  0  0  3  0  0  0  0  0  0
   30.5140   32.1120   37.0040 H   0  0  0  0  0  0  0  0  0  0  0  0
   30.3230   31.5200   34.9070 C   0  0  0  0  0  3  0  0  0  0  0  0
   29.4080   32.1140   34.7000 H   0  0  0  0  0  0  0  0  0  0  0  0
   30.2300   30.3690   34.1320 O   0  0  0  0  0  0  0  0  0  0  0  0
   30.1370   29.2030   34.8510 C   0  0  0  0  0  3  0  0  0  0  0  0
   29.1670   29.1970   35.3850 H   0  0  0  0  0  0  0  0  0  0  0  0
   31.3080   29.0220   35.7800 C   0  0  0  0  0  3  0  0  0  0  0  0
   31.0100   28.2180   36.4850 H   0  0  0  0  0  0  0  0  0  0  0  0
   36.6070   29.5440   30.7260 C   0  0  0  0  0  0  0  0  0  0  0  0
   36.6360   30.8610   30.2410 C   0  0  0  0  0  0  0  0  0  0  0  0
   37.1710   31.1120   28.9710 C   0  0  0  0  0  0  0  0  0  0  0  0
   37.6390   30.0090   28.2810 N   0  0  0  0  0  0  0  0  0  0  0  0
   37.5980   28.7680   28.7710 C   0  0  0  0  0  0  0  0  0  0  0  0
   37.0770   28.5350   30.0040 N   0  0  0  0  0  0  0  0  0  0  0  0
   36.2850   31.7530   30.7390 H   0  0  0  0  0  0  0  0  0  0  0  0
   37.2310   32.0840   28.5250 H   0  0  0  0  0  0  0  0  0  0  0  0
   37.9910   27.9750   28.1490 H   0  0  0  0  0  0  0  0  0  0  0  0
  1  5  1  0  0  0  0
  1  2  1  0  0  0  0
  2  3  1  0  0  0  0
  3  8  1  0  0  0  0
  3  9  1  0  0  0  0
  4 10  1  6  0  0  0
  4  3  1  0  0  0  0
  4 15  1  0  0  0  0
  5  4  1  0  0  0  0
  6  2  1  0  0  0  0
  7  2  1  0  0  0  0
 11  5  1  0  0  0  0
 12  5  1  0  0  0  0
 13 14  1  0  0  0  0
 14 19  1  0  0  0  0
 15 14  2  0  0  0  0
 15 16  1  0  0  0  0
 16 17  2  0  0  0  0
 17 18  1  0  0  0  0
 17 21  1  0  0  0  0
 18 22  1  0  0  0  0
 19 23  1  0  0  0  0
 19 18  2  0  0  0  0
 20 16  1  0  0  0  0
 24 23  1  0  0  0  0
 24 25  1  0  0  0  0
 26 24  1  0  0  0  0
 27 26  1  0  0  0  0
 28 29  1  0  0  0  0
 28 26  1  0  0  0  0
 29 30  1  0  0  0  0
 29 31  1  0  0  0  0
 31 32  1  0  0  0  0
 31 23  1  0  0  0  0
 33  1  1  0  0  0  0
 34 33  1  0  0  0  0
 34 39  1  0  0  0  0
 35 34  2  0  0  0  0
 36 37  2  0  0  0  0
 36 35  1  0  0  0  0
 37 38  1  0  0  0  0
 38 33  2  0  0  0  0
 40 35  1  0  0  0  0
 41 37  1  0  0  0  0
M  END
>  <minimizedAffinity>
-5.78866816

$$$$

 OpenBabel03272502403D

 41 44  0  0  1  0  0  0  0  0999 V2000
   38.5670   24.2520   34.3720 N   0  0  0  0  0  0  0  0  0  0  0  0
   38.0350   23.4870   33.2590 C   0  0  0  0  0  0  0  0  0  0  0  0
   37.2220   24.5000   32.5050 C   0  0  0  0  0  0  0  0  0  0  0  0
   37.2260   25.7960   33.4270 C   0  0  1  0  0  0  0  0  0  0  0  0
   38.5710   25.6860   34.0010 C   0  0  0  0  0  0  0  0  0  0  0  0
   37.4260   22.6290   33.5970 H   0  0  0  0  0  0  0  0  0  0  0  0
   38.8600   23.1330   32.6030 H   0  0  0  0  0  0  0  0  0  0  0  0
   37.6580   24.7860   31.5320 H   0  0  0  0  0  0  0  0  0  0  0  0
   36.1890   24.2100   32.4070 H   0  0  0  0  0  0  0  0  0  0  0  0
   36.3960   25.5210   34.0870 H   0  0  0  0  0  0  0  0  0  0  0  0
   39.3940   25.8740   33.2850 H   0  0  0  0  0  0  0  0  0  0  0  0
   38.6550   26.3080   34.9160 H   0  0  0  0  0  0  0  0  0  0  0  0
   35.9910   28.1190   34.4470 F   0  0  0  0  0  0  0  0  0  0  0  0
   36.4110   28.0450   33.1770 C   0  0  0  0  0  0  0  0  0  0  0  0
   36.9850   26.9640   32.5720 C   0  0  0  0  0  0  0  0  0  0  0  0
   37.3880   27.0850   31.2310 C   0  0  0  0  0  0  0  0  0  0  0  0
   37.2230   28.2510   30.5280 C   0  0  0  0  0  0  0  0  0  0  0  0
   36.6320   29.3430   31.1670 C   0  0  0  0  0  0  0  0  0  0  0  0
   36.2210   29.2360   32.5130 C   0  0  0  0  0  0  0  0  0  0  0  0
   37.8280   26.1790   30.8440 H   0  0  0  0  0  0  0  0  0  0  0  0
   37.5560   28.2840   29.5010 H   0  0  0  0  0  0  0  0  0  0  0  0
   36.5470   30.1980   30.5430 H   0  0  0  0  0  0  0  0  0  0  0  0
   35.5990   30.4470   33.1080 C   0  0  0  0  0  3  0  0  0  0  0  0
   34.2970   30.8440   32.5340 C   0  0  0  0  0  3  0  0  0  0  0  0
   34.3120   31.0910   31.4570 H   0  0  0  0  0  0  0  0  0  0  0  0
   33.2210   29.8570   32.8970 C   0  0  0  0  0  3  0  0  0  0  0  0
   32.2070   30.2020   32.6030 H   0  0  0  0  0  0  0  0  0  0  0  0
   33.1720   29.6120   34.2640 O   0  0  0  0  0  0  0  0  0  0  0  0
   33.9780   30.4280   35.0190 C   0  0  0  0  0  3  0  0  0  0  0  0
   33.5840   31.4620   34.9590 H   0  0  0  0  0  0  0  0  0  0  0  0
   35.4210   30.3370   34.6000 C   0  0  0  0  0  3  0  0  0  0  0  0
   35.9260   31.2060   35.0710 H   0  0  0  0  0  0  0  0  0  0  0  0
   39.0090   23.7620   35.6160 C   0  0  0  0  0  0  0  0  0  0  0  0
   40.2840   23.1750   35.6230 C   0  0  0  0  0  0  0  0  0  0  0  0
   40.7920   22.6530   36.8190 C   0  0  0  0  0  0  0  0  0  0  0  0
   39.9690   22.7600   37.9250 N   0  0  0  0  0  0  0  0  0  0  0  0
   38.7600   23.3230   37.8860 C   0  0  0  0  0  0  0  0  0  0  0  0
   38.2760   23.8280   36.7210 N   0  0  0  0  0  0  0  0  0  0  0  0
   40.9620   23.0680   34.7900 H   0  0  0  0  0  0  0  0  0  0  0  0
   41.7530   22.1890   36.9130 H   0  0  0  0  0  0  0  0  0  0  0  0
   38.1970   23.3560   38.8100 H   0  0  0  0  0  0  0  0  0  0  0  0
  1 33  1  0  0  0  0
  2  6  1  0  0  0  0
  2  1  1  0  0  0  0
  3  2  1  0  0  0  0
  3  4  1  0  0  0  0
  4  5  1  0  0  0  0
  4 10  1  1  0  0  0
  5  1  1  0  0  0  0
  5 12  1  0  0  0  0
  7  2  1  0  0  0  0
  8  3  1  0  0  0  0
  9  3  1  0  0  0  0
 11  5  1  0  0  0  0
 14 13  1  0  0  0  0
 15 14  1  0  0  0  0
 15  4  1  0  0  0  0
 16 15  2  0  0  0  0
 17 18  2  0  0  0  0
 17 16  1  0  0  0  0
 18 19  1  0  0  0  0
 19 23  1  0  0  0  0
 19 14  2  0  0  0  0
 20 16  1  0  0  0  0
 21 17  1  0  0  0  0
 22 18  1  0  0  0  0
 23 31  1  0  0  0  0
 24 26  1  0  0  0  0
 24 23  1  0  0  0  0
 25 24  1  0  0  0  0
 26 28  1  0  0  0  0
 27 26  1  0  0  0  0
 28 29  1  0  0  0  0
 30 29  1  0  0  0  0
 31 29  1  0  0  0  0
 31 32  1  0  0  0  0
 33 34  2  0  0  0  0
 33 38  1  0  0  0  0
 34 35  1  0  0  0  0
 35 40  1  0  0  0  0
 35 36  2  0  0  0  0
 37 36  1  0  0  0  0
 37 41  1  0  0  0  0
 38 37  2  0  0  0  0
 39 34  1  0  0  0  0
M  END
>  <minimizedAffinity>
-5.67362452

$$$$

 OpenBabel03272502403D

 41 44  0  0  1  0  0  0  0  0999 V2000
   38.5980   25.4090   34.5380 N   0  0  0  0  0  0  0  0  0  0  0  0
   38.8700   25.0630   33.1560 C   0  0  0  0  0  0  0  0  0  0  0  0
   37.9920   26.0110   32.3870 C   0  0  0  0  0  0  0  0  0  0  0  0
   37.1090   26.7370   33.4920 C   0  0  1  0  0  0  0  0  0  0  0  0
   38.0830   26.7970   34.5860 C   0  0  0  0  0  0  0  0  0  0  0  0
   38.6350   24.0050   32.9370 H   0  0  0  0  0  0  0  0  0  0  0  0
   39.9310   25.2780   32.9030 H   0  0  0  0  0  0  0  0  0  0  0  0
   38.5500   26.7920   31.8440 H   0  0  0  0  0  0  0  0  0  0  0  0
   37.2970   25.4970   31.7420 H   0  0  0  0  0  0  0  0  0  0  0  0
   36.3240   25.9790   33.5870 H   0  0  0  0  0  0  0  0  0  0  0  0
   38.9200   27.5020   34.4190 H   0  0  0  0  0  0  0  0  0  0  0  0
   37.5700   26.9720   35.5540 H   0  0  0  0  0  0  0  0  0  0  0  0
   35.3970   28.4320   34.9610 F   0  0  0  0  0  0  0  0  0  0  0  0
   35.8700   28.7810   33.7580 C   0  0  0  0  0  0  0  0  0  0  0  0
   36.6700   28.0280   32.9480 C   0  0  0  0  0  0  0  0  0  0  0  0
   37.0910   28.5780   31.7250 C   0  0  0  0  0  0  0  0  0  0  0  0
   36.7220   29.8390   31.3340 C   0  0  0  0  0  0  0  0  0  0  0  0
   35.9020   30.5910   32.1770 C   0  0  0  0  0  0  0  0  0  0  0  0
   35.4700   30.0510   33.4080 C   0  0  0  0  0  0  0  0  0  0  0  0
   37.7180   27.9050   31.1590 H   0  0  0  0  0  0  0  0  0  0  0  0
   37.0800   30.2080   30.3840 H   0  0  0  0  0  0  0  0  0  0  0  0
   35.6700   31.5520   31.7880 H   0  0  0  0  0  0  0  0  0  0  0  0
   34.5970   30.9220   34.2370 C   0  0  0  0  0  3  0  0  0  0  0  0
   35.1540   31.3230   35.5450 C   0  0  0  0  0  3  0  0  0  0  0  0
   35.3830   30.4910   36.2360 H   0  0  0  0  0  0  0  0  0  0  0  0
   36.3030   32.2790   35.3760 C   0  0  0  0  0  3  0  0  0  0  0  0
   36.6490   32.7090   36.3400 H   0  0  0  0  0  0  0  0  0  0  0  0
   35.9750   33.3560   34.5600 O   0  0  0  0  0  0  0  0  0  0  0  0
   34.6470   33.4270   34.2180 C   0  0  0  0  0  3  0  0  0  0  0  0
   34.0610   33.6480   35.1310 H   0  0  0  0  0  0  0  0  0  0  0  0
   34.1790   32.1780   33.5200 C   0  0  0  0  0  3  0  0  0  0  0  0
   33.0690   32.2270   33.5310 H   0  0  0  0  0  0  0  0  0  0  0  0
   38.7700   24.5960   35.6760 C   0  0  0  0  0  0  0  0  0  0  0  0
   37.9820   24.9280   36.7890 C   0  0  0  0  0  0  0  0  0  0  0  0
   38.1030   24.1750   37.9630 C   0  0  0  0  0  0  0  0  0  0  0  0
   39.0160   23.1370   37.9270 N   0  0  0  0  0  0  0  0  0  0  0  0
   39.7510   22.8460   36.8520 C   0  0  0  0  0  0  0  0  0  0  0  0
   39.6260   23.5830   35.7170 N   0  0  0  0  0  0  0  0  0  0  0  0
   37.2580   25.7250   36.8660 H   0  0  0  0  0  0  0  0  0  0  0  0
   37.5410   24.3600   38.8570 H   0  0  0  0  0  0  0  0  0  0  0  0
   40.4360   22.0130   36.9290 H   0  0  0  0  0  0  0  0  0  0  0  0
  1  5  1  0  0  0  0
  1 33  1  0  0  0  0
  2  1  1  0  0  0  0
  3  2  1  0  0  0  0
  3  4  1  0  0  0  0
  4 10  1  1  0  0  0
  4  5  1  0  0  0  0
  5 12  1  0  0  0  0
  6  2  1  0  0  0  0
  7  2  1  0  0  0  0
  8  3  1  0  0  0  0
  9  3  1  0  0  0  0
 11  5  1  0  0  0  0
 14 13  1  0  0  0  0
 15  4  1  0  0  0  0
 15 14  2  0  0  0  0
 16 15  1  0  0  0  0
 17 16  2  0  0  0  0
 17 18  1  0  0  0  0
 18 19  2  0  0  0  0
 19 14  1  0  0  0  0
 19 23  1  0  0  0  0
 20 16  1  0  0  0  0
 21 17  1  0  0  0  0
 22 18  1  0  0  0  0
 23 24  1  0  0  0  0
 24 25  1  0  0  0  0
 26 24  1  0  0  0  0
 26 27  1  0  0  0  0
 28 26  1  0  0  0  0
 29 28  1  0  0  0  0
 29 30  1  0  0  0  0
 31 32  1  0  0  0  0
 31 29  1  0  0  0  0
 31 23  1  0  0  0  0
 33 38  2  0  0  0  0
 33 34  1  0  0  0  0
 34 39  1  0  0  0  0
 34 35  2  0  0  0  0
 35 40  1  0  0  0  0
 36 35  1  0  0  0  0
 37 41  1  0  0  0  0
 37 36  2  0  0  0  0
 38 37  1  0  0  0  0
M  END
>  <minimizedAffinity>
-5.59166908

$$$$

 OpenBabel03272502403D

 41 44  0  0  1  0  0  0  0  0999 V2000
   35.1260   30.1470   33.6950 N   0  0  0  0  0  0  0  0  0  0  0  0
   35.0650   30.0320   32.2500 C   0  0  0  0  0  0  0  0  0  0  0  0
   35.9860   28.8800   31.9590 C   0  0  0  0  0  0  0  0  0  0  0  0
   36.6690   28.5410   33.3550 C   0  0  1  0  0  0  0  0  0  0  0  0
   35.5530   28.8450   34.2560 C   0  0  0  0  0  0  0  0  0  0  0  0
   35.3850   30.9620   31.7440 H   0  0  0  0  0  0  0  0  0  0  0  0
   34.0380   29.7560   31.9260 H   0  0  0  0  0  0  0  0  0  0  0  0
   35.4650   27.9700   31.6160 H   0  0  0  0  0  0  0  0  0  0  0  0
   36.7890   29.1530   31.2940 H   0  0  0  0  0  0  0  0  0  0  0  0
   37.4740   29.2830   33.3180 H   0  0  0  0  0  0  0  0  0  0  0  0
   34.7090   28.1310   34.2000 H   0  0  0  0  0  0  0  0  0  0  0  0
   35.9190   28.9870   35.2940 H   0  0  0  0  0  0  0  0  0  0  0  0
   38.2990   27.4710   35.3940 F   0  0  0  0  0  0  0  0  0  0  0  0
   37.8640   26.7200   34.3730 C   0  0  0  0  0  0  0  0  0  0  0  0
   37.1060   27.1410   33.3190 C   0  0  0  0  0  0  0  0  0  0  0  0
   36.7210   26.1950   32.3530 C   0  0  0  0  0  0  0  0  0  0  0  0
   37.0830   24.8760   32.4480 C   0  0  0  0  0  0  0  0  0  0  0  0
   37.8610   24.4690   33.5340 C   0  0  0  0  0  0  0  0  0  0  0  0
   38.2560   25.4070   34.5100 C   0  0  0  0  0  0  0  0  0  0  0  0
   36.1260   26.6260   31.5620 H   0  0  0  0  0  0  0  0  0  0  0  0
   36.7540   24.1960   31.6750 H   0  0  0  0  0  0  0  0  0  0  0  0
   38.0910   23.4320   33.5180 H   0  0  0  0  0  0  0  0  0  0  0  0
   39.0840   24.8830   35.6280 C   0  0  0  0  0  3  0  0  0  0  0  0
   38.3710   24.6670   36.9030 C   0  0  0  0  0  3  0  0  0  0  0  0
   37.9170   25.5710   37.3490 H   0  0  0  0  0  0  0  0  0  0  0  0
   37.4080   23.5160   36.7990 C   0  0  0  0  0  3  0  0  0  0  0  0
   36.9650   23.2380   37.7790 H   0  0  0  0  0  0  0  0  0  0  0  0
   38.0150   22.3680   36.3010 O   0  0  0  0  0  0  0  0  0  0  0  0
   39.3790   22.4550   36.1700 C   0  0  0  0  0  3  0  0  0  0  0  0
   39.8240   22.5270   37.1820 H   0  0  0  0  0  0  0  0  0  0  0  0
   39.7860   23.5980   35.2790 C   0  0  0  0  0  3  0  0  0  0  0  0
   40.8730   23.7420   35.4530 H   0  0  0  0  0  0  0  0  0  0  0  0
   34.8460   31.2850   34.4770 C   0  0  0  0  0  0  0  0  0  0  0  0
   35.4740   31.3340   35.7310 C   0  0  0  0  0  0  0  0  0  0  0  0
   35.2370   32.4270   36.5740 C   0  0  0  0  0  0  0  0  0  0  0  0
   34.3790   33.3940   36.0860 N   0  0  0  0  0  0  0  0  0  0  0  0
   33.7960   33.3190   34.8880 C   0  0  0  0  0  0  0  0  0  0  0  0
   34.0320   32.2540   34.0760 N   0  0  0  0  0  0  0  0  0  0  0  0
   36.1510   30.6070   36.1550 H   0  0  0  0  0  0  0  0  0  0  0  0
   35.6750   32.5430   37.5450 H   0  0  0  0  0  0  0  0  0  0  0  0
   33.1410   34.1310   34.6020 H   0  0  0  0  0  0  0  0  0  0  0  0
  1  5  1  0  0  0  0
  1 33  1  0  0  0  0
  2  1  1  0  0  0  0
  3  2  1  0  0  0  0
  3  4  1  0  0  0  0
  4 10  1  1  0  0  0
  4  5  1  0  0  0  0
  5 12  1  0  0  0  0
  6  2  1  0  0  0  0
  7  2  1  0  0  0  0
  8  3  1  0  0  0  0
  9  3  1  0  0  0  0
 11  5  1  0  0  0  0
 14 19  1  0  0  0  0
 14 13  1  0  0  0  0
 15  4  1  0  0  0  0
 15 14  2  0  0  0  0
 16 17  2  0  0  0  0
 16 15  1  0  0  0  0
 17 18  1  0  0  0  0
 18 19  2  0  0  0  0
 19 23  1  0  0  0  0
 20 16  1  0  0  0  0
 21 17  1  0  0  0  0
 22 18  1  0  0  0  0
 23 24  1  0  0  0  0
 24 25  1  0  0  0  0
 26 24  1  0  0  0  0
 26 27  1  0  0  0  0
 28 26  1  0  0  0  0
 29 28  1  0  0  0  0
 29 30  1  0  0  0  0
 31 32  1  0  0  0  0
 31 23  1  0  0  0  0
 31 29  1  0  0  0  0
 33 34  1  0  0  0  0
 34 39  1  0  0  0  0
 34 35  2  0  0  0  0
 35 40  1  0  0  0  0
 36 35  1  0  0  0  0
 37 36  2  0  0  0  0
 38 33  2  0  0  0  0
 38 37  1  0  0  0  0
 41 37  1  0  0  0  0
M  END
>  <minimizedAffinity>
-5.55395699

$$$$

 OpenBabel03272502403D

 41 44  0  0  1  0  0  0  0  0999 V2000
   36.4940   27.8490   33.2260 N   0  0  0  0  0  0  0  0  0  0  0  0
   36.6440   26.9480   32.0990 C   0  0  0  0  0  0  0  0  0  0  0  0
   37.9950   26.3330   32.3290 C   0  0  0  0  0  0  0  0  0  0  0  0
   38.6040   27.1350   33.5600 C   0  0  1  0  0  0  0  0  0  0  0  0
   37.3770   27.3870   34.3220 C   0  0  0  0  0  0  0  0  0  0  0  0
   36.5840   27.4780   31.1300 H   0  0  0  0  0  0  0  0  0  0  0  0
   35.8760   26.1440   32.1400 H   0  0  0  0  0  0  0  0  0  0  0  0
   37.9570   25.2680   32.6150 H   0  0  0  0  0  0  0  0  0  0  0  0
   38.6700   26.4990   31.5050 H   0  0  0  0  0  0  0  0  0  0  0  0
   39.0110   27.9870   33.0060 H   0  0  0  0  0  0  0  0  0  0  0  0
   36.9330   26.4880   34.7910 H   0  0  0  0  0  0  0  0  0  0  0  0
   37.5320   28.2100   35.0490 H   0  0  0  0  0  0  0  0  0  0  0  0
   37.8910   24.6280   34.6420 F   0  0  0  0  0  0  0  0  0  0  0  0
   39.1540   25.0730   34.6710 C   0  0  0  0  0  0  0  0  0  0  0  0
   39.6020   26.2790   34.2120 C   0  0  0  0  0  0  0  0  0  0  0  0
   40.9760   26.5590   34.3020 C   0  0  0  0  0  0  0  0  0  0  0  0
   41.8650   25.6590   34.8320 C   0  0  0  0  0  0  0  0  0  0  0  0
   41.3840   24.4330   35.2960 C   0  0  0  0  0  0  0  0  0  0  0  0
   40.0070   24.1380   35.2130 C   0  0  0  0  0  0  0  0  0  0  0  0
   41.2290   27.5350   33.9160 H   0  0  0  0  0  0  0  0  0  0  0  0
   42.9100   25.9310   34.8710 H   0  0  0  0  0  0  0  0  0  0  0  0
   42.1460   23.8060   35.6870 H   0  0  0  0  0  0  0  0  0  0  0  0
   39.5860   22.8120   35.7350 C   0  0  0  0  0  3  0  0  0  0  0  0
   39.7030   22.6360   37.1970 C   0  0  0  0  0  3  0  0  0  0  0  0
   40.7250   22.7370   37.6050 H   0  0  0  0  0  0  0  0  0  0  0  0
   38.6920   23.4770   37.9270 C   0  0  0  0  0  3  0  0  0  0  0  0
   38.6580   23.2580   39.0150 H   0  0  0  0  0  0  0  0  0  0  0  0
   37.4020   23.2840   37.4460 O   0  0  0  0  0  0  0  0  0  0  0  0
   37.2790   22.2590   36.5400 C   0  0  0  0  0  3  0  0  0  0  0  0
   37.4710   21.3030   37.0640 H   0  0  0  0  0  0  0  0  0  0  0  0
   38.1760   22.4540   35.3470 C   0  0  0  0  0  3  0  0  0  0  0  0
   38.2010   21.4730   34.8270 H   0  0  0  0  0  0  0  0  0  0  0  0
   35.6690   28.9880   33.3090 C   0  0  0  0  0  0  0  0  0  0  0  0
   35.6720   29.6550   34.5450 C   0  0  0  0  0  0  0  0  0  0  0  0
   34.8690   30.7890   34.7130 C   0  0  0  0  0  0  0  0  0  0  0  0
   34.1180   31.1690   33.6160 N   0  0  0  0  0  0  0  0  0  0  0  0
   34.1370   30.5140   32.4530 C   0  0  0  0  0  0  0  0  0  0  0  0
   34.9200   29.4130   32.2990 N   0  0  0  0  0  0  0  0  0  0  0  0
   36.2380   29.3990   35.4270 H   0  0  0  0  0  0  0  0  0  0  0  0
   34.8110   31.3570   35.6200 H   0  0  0  0  0  0  0  0  0  0  0  0
   33.5110   30.8950   31.6570 H   0  0  0  0  0  0  0  0  0  0  0  0
  1 33  1  0  0  0  0
  1  5  1  0  0  0  0
  2  7  1  0  0  0  0
  2  3  1  0  0  0  0
  2  1  1  0  0  0  0
  3  8  1  0  0  0  0
  3  4  1  0  0  0  0
  4 10  1  6  0  0  0
  4 15  1  0  0  0  0
  4  5  1  0  0  0  0
  5 11  1  0  0  0  0
  5 12  1  0  0  0  0
  6  2  1  0  0  0  0
  9  3  1  0  0  0  0
 13 14  1  0  0  0  0
 14 19  1  0  0  0  0
 15 16  1  0  0  0  0
 15 14  2  0  0  0  0
 16 17  2  0  0  0  0
 17 21  1  0  0  0  0
 17 18  1  0  0  0  0
 18 22  1  0  0  0  0
 19 18  2  0  0  0  0
 19 23  1  0  0  0  0
 20 16  1  0  0  0  0
 23 24  1  0  0  0  0
 24 25  1  0  0  0  0
 24 26  1  0  0  0  0
 26 27  1  0  0  0  0
 28 26  1  0  0  0  0
 29 30  1  0  0  0  0
 29 28  1  0  0  0  0
 31 23  1  0  0  0  0
 31 29  1  0  0  0  0
 32 31  1  0  0  0  0
 33 34  1  0  0  0  0
 34 35  2  0  0  0  0
 34 39  1  0  0  0  0
 35 40  1  0  0  0  0
 36 35  1  0  0  0  0
 37 36  2  0  0  0  0
 38 37  1  0  0  0  0
 38 33  2  0  0  0  0
 41 37  1  0  0  0  0
M  END
>  <minimizedAffinity>
-5.54608727

$$$$

 OpenBabel03272502403D

 41 44  0  0  1  0  0  0  0  0999 V2000
   37.2230   26.3100   33.6090 N   0  0  0  0  0  0  0  0  0  0  0  0
   37.3610   25.1850   32.7030 C   0  0  0  0  0  0  0  0  0  0  0  0
   38.3750   24.3150   33.3900 C   0  0  0  0  0  0  0  0  0  0  0  0
   38.8850   25.1790   34.6240 C   0  0  1  0  0  0  0  0  0  0  0  0
   37.6440   25.8820   34.9630 C   0  0  0  0  0  0  0  0  0  0  0  0
   37.6920   25.4990   31.6960 H   0  0  0  0  0  0  0  0  0  0  0  0
   36.4020   24.6250   32.6320 H   0  0  0  0  0  0  0  0  0  0  0  0
   37.9570   23.3770   33.7940 H   0  0  0  0  0  0  0  0  0  0  0  0
   39.2430   24.1310   32.7780 H   0  0  0  0  0  0  0  0  0  0  0  0
   39.6450   25.7670   34.1000 H   0  0  0  0  0  0  0  0  0  0  0  0
   36.8570   25.2410   35.4030 H   0  0  0  0  0  0  0  0  0  0  0  0
   37.8600   26.7740   35.5860 H   0  0  0  0  0  0  0  0  0  0  0  0
   41.5730   24.3220   34.5880 F   0  0  0  0  0  0  0  0  0  0  0  0
   40.7240   23.9340   35.5490 C   0  0  0  0  0  0  0  0  0  0  0  0
   39.4010   24.2560   35.6430 C   0  0  0  0  0  0  0  0  0  0  0  0
   38.6730   23.7760   36.7450 C   0  0  0  0  0  0  0  0  0  0  0  0
   39.2570   23.0020   37.7160 C   0  0  0  0  0  0  0  0  0  0  0  0
   40.6110   22.6840   37.5970 C   0  0  0  0  0  0  0  0  0  0  0  0
   41.3540   23.1590   36.4950 C   0  0  0  0  0  0  0  0  0  0  0  0
   37.6390   24.0830   36.7280 H   0  0  0  0  0  0  0  0  0  0  0  0
   38.6460   22.6650   38.5410 H   0  0  0  0  0  0  0  0  0  0  0  0
   40.9710   22.0820   38.3950 H   0  0  0  0  0  0  0  0  0  0  0  0
   42.7870   22.7670   36.4520 C   0  0  0  0  0  3  0  0  0  0  0  0
   43.0500   21.3140   36.4040 C   0  0  0  0  0  3  0  0  0  0  0  0
   42.6730   20.7370   37.2690 H   0  0  0  0  0  0  0  0  0  0  0  0
   42.6330   20.7300   35.0820 C   0  0  0  0  0  3  0  0  0  0  0  0
   42.9490   19.6720   34.9610 H   0  0  0  0  0  0  0  0  0  0  0  0
   43.1720   21.4270   34.0060 O   0  0  0  0  0  0  0  0  0  0  0  0
   44.0990   22.3800   34.3520 C   0  0  0  0  0  3  0  0  0  0  0  0
   44.9910   21.8690   34.7620 H   0  0  0  0  0  0  0  0  0  0  0  0
   43.5280   23.3980   35.3030 C   0  0  0  0  0  3  0  0  0  0  0  0
   44.4020   23.9440   35.7170 H   0  0  0  0  0  0  0  0  0  0  0  0
   36.7780   27.6100   33.2990 C   0  0  0  0  0  0  0  0  0  0  0  0
   36.1530   28.3070   34.3460 C   0  0  0  0  0  0  0  0  0  0  0  0
   35.6710   29.6010   34.1160 C   0  0  0  0  0  0  0  0  0  0  0  0
   35.8550   30.0990   32.8390 N   0  0  0  0  0  0  0  0  0  0  0  0
   36.4540   29.4110   31.8640 C   0  0  0  0  0  0  0  0  0  0  0  0
   36.9190   28.1560   32.0980 N   0  0  0  0  0  0  0  0  0  0  0  0
   35.9860   27.9630   35.3560 H   0  0  0  0  0  0  0  0  0  0  0  0
   35.1820   30.2020   34.8560 H   0  0  0  0  0  0  0  0  0  0  0  0
   36.5480   29.8940   30.9010 H   0  0  0  0  0  0  0  0  0  0  0  0
  1  5  1  0  0  0  0
  2  3  1  0  0  0  0
  2  1  1  0  0  0  0
  3  8  1  0  0  0  0
  3  4  1  0  0  0  0
  4 10  1  6  0  0  0
  4  5  1  0  0  0  0
  4 15  1  0  0  0  0
  5 11  1  0  0  0  0
  5 12  1  0  0  0  0
  6  2  1  0  0  0  0
  7  2  1  0  0  0  0
  9  3  1  0  0  0  0
 13 14  1  0  0  0  0
 14 15  2  0  0  0  0
 14 19  1  0  0  0  0
 15 16  1  0  0  0  0
 16 17  2  0  0  0  0
 17 21  1  0  0  0  0
 18 17  1  0  0  0  0
 18 22  1  0  0  0  0
 19 18  2  0  0  0  0
 20 16  1  0  0  0  0
 23 19  1  0  0  0  0
 24 23  1  0  0  0  0
 24 25  1  0  0  0  0
 26 24  1  0  0  0  0
 27 26  1  0  0  0  0
 28 29  1  0  0  0  0
 28 26  1  0  0  0  0
 29 30  1  0  0  0  0
 29 31  1  0  0  0  0
 31 32  1  0  0  0  0
 31 23  1  0  0  0  0
 33  1  1  0  0  0  0
 33 34  1  0  0  0  0
 34 39  1  0  0  0  0
 35 34  2  0  0  0  0
 35 40  1  0  0  0  0
 36 35  1  0  0  0  0
 37 38  1  0  0  0  0
 37 36  2  0  0  0  0
 38 33  2  0  0  0  0
 41 37  1  0  0  0  0
M  END
>  <minimizedAffinity>
-5.34174442

$$$$

 OpenBabel03272502403D

 41 44  0  0  1  0  0  0  0  0999 V2000
   33.7690   31.4990   35.3760 N   0  0  0  0  0  0  0  0  0  0  0  0
   34.9970   31.7150   36.1180 C   0  0  0  0  0  0  0  0  0  0  0  0
   35.9520   30.7400   35.4900 C   0  0  0  0  0  0  0  0  0  0  0  0
   35.0600   29.8760   34.4970 C   0  0  1  0  0  0  0  0  0  0  0  0
   34.1080   30.9030   34.0630 C   0  0  0  0  0  0  0  0  0  0  0  0
   34.8670   31.5360   37.2010 H   0  0  0  0  0  0  0  0  0  0  0  0
   35.3780   32.7460   35.9460 H   0  0  0  0  0  0  0  0  0  0  0  0
   36.7460   31.2180   34.8900 H   0  0  0  0  0  0  0  0  0  0  0  0
   36.3600   30.0440   36.2050 H   0  0  0  0  0  0  0  0  0  0  0  0
   34.6840   29.1450   35.2220 H   0  0  0  0  0  0  0  0  0  0  0  0
   34.5400   31.6840   33.4100 H   0  0  0  0  0  0  0  0  0  0  0  0
   33.2040   30.4340   33.6220 H   0  0  0  0  0  0  0  0  0  0  0  0
   36.5290   27.5050   34.9250 F   0  0  0  0  0  0  0  0  0  0  0  0
   36.5740   28.1600   33.7570 C   0  0  0  0  0  0  0  0  0  0  0  0
   35.9370   29.3290   33.4550 C   0  0  0  0  0  0  0  0  0  0  0  0
   36.0820   29.8540   32.1600 C   0  0  0  0  0  0  0  0  0  0  0  0
   36.8380   29.2240   31.2050 C   0  0  0  0  0  0  0  0  0  0  0  0
   37.4820   28.0300   31.5370 C   0  0  0  0  0  0  0  0  0  0  0  0
   37.3470   27.4920   32.8340 C   0  0  0  0  0  0  0  0  0  0  0  0
   35.5420   30.7780   32.0210 H   0  0  0  0  0  0  0  0  0  0  0  0
   36.9100   29.6750   30.2250 H   0  0  0  0  0  0  0  0  0  0  0  0
   38.0430   27.6200   30.7340 H   0  0  0  0  0  0  0  0  0  0  0  0
   38.0710   26.2210   33.0970 C   0  0  0  0  0  3  0  0  0  0  0  0
   39.5380   26.2780   32.9330 C   0  0  0  0  0  3  0  0  0  0  0  0
   39.8900   26.5450   31.9200 H   0  0  0  0  0  0  0  0  0  0  0  0
   40.1730   27.1080   34.0150 C   0  0  0  0  0  3  0  0  0  0  0  0
   41.2830   27.0510   34.0030 H   0  0  0  0  0  0  0  0  0  0  0  0
   39.7720   26.7110   35.2860 O   0  0  0  0  0  0  0  0  0  0  0  0
   39.0300   25.5560   35.3140 C   0  0  0  0  0  3  0  0  0  0  0  0
   39.6810   24.7140   35.0080 H   0  0  0  0  0  0  0  0  0  0  0  0
   37.7900   25.6640   34.4680 C   0  0  0  0  0  3  0  0  0  0  0  0
   37.4180   24.6250   34.3460 H   0  0  0  0  0  0  0  0  0  0  0  0
   32.4540   31.7830   35.7940 C   0  0  0  0  0  0  0  0  0  0  0  0
   32.2380   33.0780   36.2910 C   0  0  0  0  0  0  0  0  0  0  0  0
   30.9600   33.4360   36.7380 C   0  0  0  0  0  0  0  0  0  0  0  0
   29.9900   32.4550   36.6500 N   0  0  0  0  0  0  0  0  0  0  0  0
   30.2270   31.2320   36.1720 C   0  0  0  0  0  0  0  0  0  0  0  0
   31.4700   30.8940   35.7400 N   0  0  0  0  0  0  0  0  0  0  0  0
   32.9600   33.8770   36.3800 H   0  0  0  0  0  0  0  0  0  0  0  0
   30.7090   34.4010   37.1320 H   0  0  0  0  0  0  0  0  0  0  0  0
   29.3970   30.5390   36.1460 H   0  0  0  0  0  0  0  0  0  0  0  0
  1 33  1  0  0  0  0
  1  2  1  0  0  0  0
  2  6  1  0  0  0  0
  3  2  1  0  0  0  0
  3  9  1  0  0  0  0
  4 10  1  1  0  0  0
  4  3  1  0  0  0  0
  5  4  1  0  0  0  0
  5  1  1  0  0  0  0
  7  2  1  0  0  0  0
  8  3  1  0  0  0  0
 11  5  1  0  0  0  0
 12  5  1  0  0  0  0
 14 13  1  0  0  0  0
 15 14  1  0  0  0  0
 15  4  1  0  0  0  0
 16 15  2  0  0  0  0
 17 18  2  0  0  0  0
 17 16  1  0  0  0  0
 18 19  1  0  0  0  0
 19 23  1  0  0  0  0
 19 14  2  0  0  0  0
 20 16  1  0  0  0  0
 21 17  1  0  0  0  0
 22 18  1  0  0  0  0
 23 31  1  0  0  0  0
 24 23  1  0  0  0  0
 24 26  1  0  0  0  0
 25 24  1  0  0  0  0
 26 28  1  0  0  0  0
 27 26  1  0  0  0  0
 28 29  1  0  0  0  0
 30 29  1  0  0  0  0
 31 29  1  0  0  0  0
 32 31  1  0  0  0  0
 33 34  1  0  0  0  0
 34 39  1  0  0  0  0
 34 35  2  0  0  0  0
 35 40  1  0  0  0  0
 36 35  1  0  0  0  0
 37 36  2  0  0  0  0
 38 33  2  0  0  0  0
 38 37  1  0  0  0  0
 41 37  1  0  0  0  0
M  END
>  <minimizedAffinity>
-5.33895206

$$$$

 OpenBabel03272502403D

 41 44  0  0  1  0  0  0  0  0999 V2000
   38.4290   25.2950   35.2430 N   0  0  0  0  0  0  0  0  0  0  0  0
   38.1990   26.3560   36.2060 C   0  0  0  0  0  0  0  0  0  0  0  0
   37.9030   27.5470   35.3380 C   0  0  0  0  0  0  0  0  0  0  0  0
   38.1880   27.0520   33.8540 C   0  0  1  0  0  0  0  0  0  0  0  0
   37.7570   25.6550   33.9730 C   0  0  0  0  0  0  0  0  0  0  0  0
   39.0760   26.5220   36.8590 H   0  0  0  0  0  0  0  0  0  0  0  0
   37.3010   26.1340   36.8230 H   0  0  0  0  0  0  0  0  0  0  0  0
   36.8520   27.8780   35.3800 H   0  0  0  0  0  0  0  0  0  0  0  0
   38.5840   28.3640   35.5130 H   0  0  0  0  0  0  0  0  0  0  0  0
   39.2690   27.2230   33.8370 H   0  0  0  0  0  0  0  0  0  0  0  0
   36.6650   25.5180   34.0870 H   0  0  0  0  0  0  0  0  0  0  0  0
   38.1750   25.0480   33.1440 H   0  0  0  0  0  0  0  0  0  0  0  0
   38.9170   27.3150   31.1410 F   0  0  0  0  0  0  0  0  0  0  0  0
   37.8300   27.9190   31.6390 C   0  0  0  0  0  0  0  0  0  0  0  0
   37.4070   27.8900   32.9370 C   0  0  0  0  0  0  0  0  0  0  0  0
   36.2200   28.5660   33.2670 C   0  0  0  0  0  0  0  0  0  0  0  0
   35.4870   29.2440   32.3270 C   0  0  0  0  0  0  0  0  0  0  0  0
   35.9400   29.2610   31.0060 C   0  0  0  0  0  0  0  0  0  0  0  0
   37.1310   28.5880   30.6600 C   0  0  0  0  0  0  0  0  0  0  0  0
   35.9710   28.4850   34.3150 H   0  0  0  0  0  0  0  0  0  0  0  0
   34.5810   29.7420   32.6410 H   0  0  0  0  0  0  0  0  0  0  0  0
   35.3070   29.8100   30.3540 H   0  0  0  0  0  0  0  0  0  0  0  0
   37.5370   28.6640   29.2320 C   0  0  0  0  0  3  0  0  0  0  0  0
   37.5730   30.0220   28.6510 C   0  0  0  0  0  3  0  0  0  0  0  0
   36.6080   30.5610   28.6520 H   0  0  0  0  0  0  0  0  0  0  0  0
   38.7000   30.8310   29.2330 C   0  0  0  0  0  3  0  0  0  0  0  0
   38.8420   31.8030   28.7140 H   0  0  0  0  0  0  0  0  0  0  0  0
   39.9180   30.1650   29.1600 O   0  0  0  0  0  0  0  0  0  0  0  0
   39.8880   29.0010   28.4320 C   0  0  0  0  0  3  0  0  0  0  0  0
   39.7050   29.2560   27.3700 H   0  0  0  0  0  0  0  0  0  0  0  0
   38.8770   28.0260   28.9740 C   0  0  0  0  0  3  0  0  0  0  0  0
   38.7440   27.2600   28.1810 H   0  0  0  0  0  0  0  0  0  0  0  0
   39.1640   24.1090   35.4340 C   0  0  0  0  0  0  0  0  0  0  0  0
   39.2670   23.6610   36.7600 C   0  0  0  0  0  0  0  0  0  0  0  0
   39.9930   22.4950   37.0350 C   0  0  0  0  0  0  0  0  0  0  0  0
   40.5640   21.8640   35.9460 N   0  0  0  0  0  0  0  0  0  0  0  0
   40.4470   22.3150   34.6950 C   0  0  0  0  0  0  0  0  0  0  0  0
   39.7410   23.4480   34.4380 N   0  0  0  0  0  0  0  0  0  0  0  0
   38.8410   24.1160   37.6420 H   0  0  0  0  0  0  0  0  0  0  0  0
   40.1220   22.0840   38.0170 H   0  0  0  0  0  0  0  0  0  0  0  0
   40.9330   21.7460   33.9140 H   0  0  0  0  0  0  0  0  0  0  0  0
  1 33  1  0  0  0  0
  1  2  1  0  0  0  0
  2  7  1  0  0  0  0
  2  6  1  0  0  0  0
  3  8  1  0  0  0  0
  3  9  1  0  0  0  0
  3  2  1  0  0  0  0
  4 10  1  6  0  0  0
  4  5  1  0  0  0  0
  4  3  1  0  0  0  0
  5 11  1  0  0  0  0
  5  1  1  0  0  0  0
 12  5  1  0  0  0  0
 13 14  1  0  0  0  0
 14 15  1  0  0  0  0
 15 16  2  0  0  0  0
 15  4  1  0  0  0  0
 16 20  1  0  0  0  0
 17 21  1  0  0  0  0
 17 16  1  0  0  0  0
 18 17  2  0  0  0  0
 19 18  1  0  0  0  0
 19 14  2  0  0  0  0
 22 18  1  0  0  0  0
 23 19  1  0  0  0  0
 24 25  1  0  0  0  0
 24 23  1  0  0  0  0
 24 26  1  0  0  0  0
 27 26  1  0  0  0  0
 28 26  1  0  0  0  0
 29 31  1  0  0  0  0
 29 28  1  0  0  0  0
 30 29  1  0  0  0  0
 31 23  1  0  0  0  0
 32 31  1  0  0  0  0
 33 34  1  0  0  0  0
 34 35  2  0  0  0  0
 34 39  1  0  0  0  0
 35 40  1  0  0  0  0
 36 35  1  0  0  0  0
 37 36  2  0  0  0  0
 38 37  1  0  0  0  0
 38 33  2  0  0  0  0
 41 37  1  0  0  0  0
M  END
>  <minimizedAffinity>
-5.33426189

$$$$
