
 OpenBabel03272507133D

 41 45  0  0  0  0  0  0  0  0999 V2000
   35.8770   29.1680   49.8110 C   0  0  0  0  0  0  0  0  0  0  0  0
   34.8480   29.7250   50.4880 C   0  0  0  0  0  0  0  0  0  0  0  0
   33.6780   29.1590   49.9770 C   0  0  0  0  0  0  0  0  0  0  0  0
   34.0950   28.2610   48.9850 C   0  0  0  0  0  0  0  0  0  0  0  0
   35.3900   28.3190   48.9440 O   0  0  0  0  0  0  0  0  0  0  0  0
   34.8580   30.4800   51.2910 H   0  0  0  0  0  0  0  0  0  0  0  0
   32.6820   29.4330   50.3500 H   0  0  0  0  0  0  0  0  0  0  0  0
   33.5530   26.5060   47.3010 C   0  0  0  0  0  0  0  0  0  0  0  0
   33.1410   27.4670   48.2160 C   0  0  0  0  0  0  0  0  0  0  0  0
   31.7990   27.7150   48.4430 C   0  0  0  0  0  0  0  0  0  0  0  0
   30.8790   26.9830   47.7370 C   0  0  0  0  0  0  0  0  0  0  0  0
   29.5330   27.0000   47.7500 N   0  0  0  0  0  0  0  0  0  0  0  0
   29.1140   26.0870   46.8780 N   0  0  0  0  0  0  0  0  0  0  0  0
   30.1650   25.4880   46.3120 C   0  0  0  0  0  0  0  0  0  0  0  0
   31.3400   26.0320   46.8320 C   0  0  0  0  0  0  0  0  0  0  0  0
   32.6680   25.7690   46.5920 C   0  0  0  0  0  0  0  0  0  0  0  0
   34.6250   26.3820   47.1910 H   0  0  0  0  0  0  0  0  0  0  0  0
   31.4090   28.4520   49.1430 H   0  0  0  0  0  0  0  0  0  0  0  0
   28.8900   27.5990   48.3180 H   0  0  0  0  0  0  0  0  0  0  0  0
   30.1810   24.6900   45.5520 H   0  0  0  0  0  0  0  0  0  0  0  0
   32.9600   25.0280   45.8870 H   0  0  0  0  0  0  0  0  0  0  0  0
   37.2660   29.5260   50.0800 C   0  0  0  0  0  0  0  0  0  0  0  0
   37.9170   28.8520   50.9170 O   0  0  0  0  0  0  0  0  0  0  0  0
   37.8170   30.6470   49.3600 C   0  0  0  0  0  0  0  0  0  0  0  0
   37.9500   31.8410   50.0370 C   0  0  0  0  0  0  0  0  0  0  0  0
   38.4750   32.9450   49.3800 C   0  0  0  0  0  0  0  0  0  0  0  0
   38.8350   32.7780   48.0840 N   0  0  0  0  0  0  0  0  0  0  0  0
   38.7040   31.6230   47.4360 C   0  0  0  0  0  0  0  0  0  0  0  0
   38.1970   30.5710   48.0810 N   0  0  0  0  0  0  0  0  0  0  0  0
   37.6670   32.0060   51.0870 H   0  0  0  0  0  0  0  0  0  0  0  0
   38.5900   33.8800   49.8770 H   0  0  0  0  0  0  0  0  0  0  0  0
   39.0950   31.4280   46.0110 C   0  0  0  0  0  3  0  0  0  0  0  0
   37.9100   31.4490   45.0770 C   0  0  0  0  0  3  0  0  0  0  0  0
   37.4900   32.4850   44.9750 H   0  0  0  0  0  0  0  0  0  0  0  0
   38.4150   30.9150   43.7520 C   0  0  0  0  0  3  0  0  0  0  0  0
   37.6560   31.0020   42.9510 H   0  0  0  0  0  0  0  0  0  0  0  0
   39.6420   31.4210   43.4130 O   0  0  0  0  0  0  0  0  0  0  0  0
   39.9690   32.6200   44.0370 C   0  0  0  0  0  3  0  0  0  0  0  0
   40.9710   32.9160   43.6610 H   0  0  0  0  0  0  0  0  0  0  0  0
   40.0640   32.4840   45.5330 C   0  0  0  0  0  3  0  0  0  0  0  0
   39.8290   33.4860   45.9710 H   0  0  0  0  0  0  0  0  0  0  0  0
  1 22  1  0  0  0  0
  1  2  2  0  0  0  0
  2  6  1  0  0  0  0
  3  7  1  0  0  0  0
  3  2  1  0  0  0  0
  4  3  2  0  0  0  0
  5  4  1  0  0  0  0
  5  1  1  0  0  0  0
  8  9  1  0  0  0  0
  9 10  2  0  0  0  0
  9  4  1  0  0  0  0
 10 18  1  0  0  0  0
 11 12  1  0  0  0  0
 11 10  1  0  0  0  0
 12 19  1  0  0  0  0
 13 12  1  0  0  0  0
 14 15  1  0  0  0  0
 14 13  2  0  0  0  0
 15 11  2  0  0  0  0
 16 15  1  0  0  0  0
 16  8  2  0  0  0  0
 17  8  1  0  0  0  0
 20 14  1  0  0  0  0
 21 16  1  0  0  0  0
 22 23  2  0  0  0  0
 24 25  1  0  0  0  0
 24 22  1  0  0  0  0
 25 30  1  0  0  0  0
 26 31  1  0  0  0  0
 26 25  2  0  0  0  0
 27 26  1  0  0  0  0
 28 29  1  0  0  0  0
 28 27  2  0  0  0  0
 29 24  2  0  0  0  0
 32 28  1  0  0  0  0
 33 32  1  0  0  0  0
 34 33  1  0  0  0  0
 35 33  1  0  0  0  0
 36 35  1  0  0  0  0
 37 35  1  0  0  0  0
 37 38  1  0  0  0  0
 38 40  1  0  0  0  0
 39 38  1  0  0  0  0
 40 41  1  0  0  0  0
 40 32  1  0  0  0  0
M  END
>  <minimizedAffinity>
-6.96046066

>  <minimizedRMSD>
0.437506646

$$$$
