
 OpenBabel03272509503D

 34 36  0  0  0  0  0  0  0  0999 V2000
   38.4770   33.2680   49.2180 C   0  0  0  0  0  0  0  0  0  0  0  0
   38.8680   32.9020   47.9110 C   0  0  0  0  0  0  0  0  0  0  0  0
   38.3540   31.7230   47.4010 C   0  0  0  0  0  0  0  0  0  0  0  0
   37.5010   30.9800   48.1840 N   0  0  0  0  0  0  0  0  0  0  0  0
   37.1580   31.3640   49.4170 C   0  0  0  0  0  0  0  0  0  0  0  0
   37.6470   32.5050   49.9280 N   0  0  0  0  0  0  0  0  0  0  0  0
   38.8390   34.1770   49.6820 H   0  0  0  0  0  0  0  0  0  0  0  0
   39.5440   33.5380   47.3520 H   0  0  0  0  0  0  0  0  0  0  0  0
   38.7490   31.3180   46.0300 C   0  0  0  0  0  3  0  0  0  0  0  0
   40.2250   31.2400   45.8770 C   0  0  0  0  0  3  0  0  0  0  0  0
   40.7780   32.0920   46.3010 H   0  0  0  0  0  0  0  0  0  0  0  0
   40.5860   31.2270   44.4040 C   0  0  0  0  0  3  0  0  0  0  0  0
   40.1380   30.3840   43.8460 H   0  0  0  0  0  0  0  0  0  0  0  0
   40.1740   32.4750   43.8970 O   0  0  0  0  0  0  0  0  0  0  0  0
   38.7930   32.3880   43.7580 C   0  0  0  0  0  3  0  0  0  0  0  0
   38.4430   33.3180   43.2640 H   0  0  0  0  0  0  0  0  0  0  0  0
   38.0860   32.2810   45.0810 C   0  0  0  0  0  3  0  0  0  0  0  0
   38.0230   33.2750   45.5700 H   0  0  0  0  0  0  0  0  0  0  0  0
   36.3000   30.4680   50.0060 O   0  0  0  0  0  0  0  0  0  0  0  0
   36.2580   29.1370   49.5140 C   0  0  0  0  0  0  0  0  0  0  0  0
   37.0600   28.5560   50.0100 H   0  0  0  0  0  0  0  0  0  0  0  0
   36.5210   29.1450   48.4370 H   0  0  0  0  0  0  0  0  0  0  0  0
   34.8960   28.5520   49.7030 C   0  0  0  0  0  0  0  0  0  0  0  0
   35.0320   27.4440   49.8420 H   0  0  0  0  0  0  0  0  0  0  0  0
   34.4270   28.9670   50.6180 H   0  0  0  0  0  0  0  0  0  0  0  0
   33.9930   28.7840   48.5360 C   0  0  0  0  0  0  0  0  0  0  0  0
   32.9050   27.9480   48.4290 C   0  0  0  0  0  0  0  0  0  0  0  0
   32.0030   28.0630   47.3980 C   0  0  0  0  0  0  0  0  0  0  0  0
   32.1880   29.0140   46.4730 N   0  0  0  0  0  0  0  0  0  0  0  0
   33.2560   29.8230   46.5910 C   0  0  0  0  0  0  0  0  0  0  0  0
   34.1520   29.7320   47.5870 N   0  0  0  0  0  0  0  0  0  0  0  0
   32.6950   27.1530   49.1500 H   0  0  0  0  0  0  0  0  0  0  0  0
   31.1300   27.4240   47.2780 H   0  0  0  0  0  0  0  0  0  0  0  0
   33.4620   30.6210   45.8630 H   0  0  0  0  0  0  0  0  0  0  0  0
  1  7  1  0  0  0  0
  1  6  1  0  0  0  0
  2  1  2  0  0  0  0
  3  2  1  0  0  0  0
  3  4  2  0  0  0  0
  4  5  1  0  0  0  0
  5  6  2  0  0  0  0
  5 19  1  0  0  0  0
  8  2  1  0  0  0  0
  9  3  1  0  0  0  0
 10  9  1  0  0  0  0
 10 11  1  0  0  0  0
 12 10  1  0  0  0  0
 13 12  1  0  0  0  0
 14 12  1  0  0  0  0
 15 14  1  0  0  0  0
 15 17  1  0  0  0  0
 16 15  1  0  0  0  0
 17 18  1  0  0  0  0
 17  9  1  0  0  0  0
 20 23  1  0  0  0  0
 20 19  1  0  0  0  0
 20 21  1  0  0  0  0
 22 20  1  0  0  0  0
 23 24  1  0  0  0  0
 23 25  1  0  0  0  0
 26 23  1  0  0  0  0
 27 26  1  0  0  0  0
 27 32  1  0  0  0  0
 28 27  2  0  0  0  0
 29 30  2  0  0  0  0
 29 28  1  0  0  0  0
 30 31  1  0  0  0  0
 31 26  2  0  0  0  0
 33 28  1  0  0  0  0
 34 30  1  0  0  0  0
M  END
>  <minimizedAffinity>
-5.60165644

>  <minimizedRMSD>
3.01998734

$$$$
