
 OpenBabel03262522533D

 34 37  0  0  0  0  0  0  0  0999 V2000
   36.4030   28.2560   33.3800 C   0  0  0  0  0  0  0  0  0  0  0  0
   36.3320   28.5510   32.0480 C   0  0  0  0  0  0  0  0  0  0  0  0
   35.6890   29.7270   31.7130 C   0  0  0  0  0  0  0  0  0  0  0  0
   35.1530   30.5570   32.6300 N   0  0  0  0  0  0  0  0  0  0  0  0
   35.2830   30.1640   33.9300 C   0  0  0  0  0  0  0  0  0  0  0  0
   35.8930   29.0360   34.3400 N   0  0  0  0  0  0  0  0  0  0  0  0
   36.7650   27.8780   31.3170 H   0  0  0  0  0  0  0  0  0  0  0  0
   35.6050   30.0050   30.6650 H   0  0  0  0  0  0  0  0  0  0  0  0
   34.6860   31.0930   34.9250 C   0  0  0  0  0  3  0  0  0  0  0  0
   33.4440   30.5590   35.5860 C   0  0  0  0  0  3  0  0  0  0  0  0
   32.5940   30.3980   34.8780 H   0  0  0  0  0  0  0  0  0  0  0  0
   33.0950   31.5430   36.6850 C   0  0  0  0  0  3  0  0  0  0  0  0
   32.0000   31.7730   36.5640 H   0  0  0  0  0  0  0  0  0  0  0  0
   33.7350   32.7710   36.4990 O   0  0  0  0  0  0  0  0  0  0  0  0
   35.1120   32.6800   36.7130 C   0  0  0  0  0  3  0  0  0  0  0  0
   35.5690   33.5580   36.2370 H   0  0  0  0  0  0  0  0  0  0  0  0
   35.6610   31.4390   36.0320 C   0  0  0  0  0  3  0  0  0  0  0  0
   35.7120   30.5610   36.7080 H   0  0  0  0  0  0  0  0  0  0  0  0
   38.3520   25.0970   35.0490 C   0  0  0  0  0  0  0  0  0  0  0  0
   37.9390   24.8700   33.8040 C   0  0  0  0  0  0  0  0  0  0  0  0
   37.2620   25.8690   33.1320 C   0  0  0  0  0  0  0  0  0  0  0  0
   37.0690   27.0300   33.8120 C   0  0  0  0  0  0  0  0  0  0  0  0
   37.8560   26.7000   35.4210 S   0  0  0  0  0  0  0  0  0  0  0  0
   38.1380   23.8950   33.3250 H   0  0  0  0  0  0  0  0  0  0  0  0
   36.8830   25.7860   32.1150 H   0  0  0  0  0  0  0  0  0  0  0  0
   40.9430   22.8760   36.3350 C   0  0  0  0  0  0  0  0  0  0  0  0
   40.4850   22.5370   37.6030 C   0  0  0  0  0  0  0  0  0  0  0  0
   39.2650   23.0760   38.0280 C   0  0  0  0  0  0  0  0  0  0  0  0
   38.5880   23.9070   37.1780 N   0  0  0  0  0  0  0  0  0  0  0  0
   39.0850   24.2000   35.9590 C   0  0  0  0  0  0  0  0  0  0  0  0
   40.2350   23.7040   35.5290 N   0  0  0  0  0  0  0  0  0  0  0  0
   41.8880   22.4500   36.0220 H   0  0  0  0  0  0  0  0  0  0  0  0
   40.9840   21.8940   38.2910 H   0  0  0  0  0  0  0  0  0  0  0  0
   38.8000   22.8930   38.9840 H   0  0  0  0  0  0  0  0  0  0  0  0
  1 22  1  0  0  0  0
  1  6  1  0  0  0  0
  2  1  2  0  0  0  0
  3  2  1  0  0  0  0
  3  4  2  0  0  0  0
  4  5  1  0  0  0  0
  5  6  2  0  0  0  0
  5  9  1  0  0  0  0
  7  2  1  0  0  0  0
  8  3  1  0  0  0  0
  9 10  1  0  0  0  0
  9 17  1  0  0  0  0
 10 12  1  0  0  0  0
 11 10  1  0  0  0  0
 13 12  1  0  0  0  0
 14 12  1  0  0  0  0
 14 15  1  0  0  0  0
 16 15  1  0  0  0  0
 17 18  1  0  0  0  0
 17 15  1  0  0  0  0
 19 23  1  0  0  0  0
 19 30  1  0  0  0  0
 20 19  2  0  0  0  0
 21 20  1  0  0  0  0
 21 22  2  0  0  0  0
 22 23  1  0  0  0  0
 24 20  1  0  0  0  0
 25 21  1  0  0  0  0
 26 27  1  0  0  0  0
 27 28  2  0  0  0  0
 27 33  1  0  0  0  0
 28 34  1  0  0  0  0
 29 28  1  0  0  0  0
 30 29  2  0  0  0  0
 31 30  1  0  0  0  0
 31 26  2  0  0  0  0
 32 26  1  0  0  0  0
M  END
>  <minimizedAffinity>
-5.81284142

$$$$

 OpenBabel03262522533D

 34 37  0  0  0  0  0  0  0  0999 V2000
   36.4720   28.1570   33.5450 C   0  0  0  0  0  0  0  0  0  0  0  0
   36.3860   28.5100   32.2290 C   0  0  0  0  0  0  0  0  0  0  0  0
   35.7150   29.6850   31.9510 C   0  0  0  0  0  0  0  0  0  0  0  0
   35.1660   30.4610   32.9080 N   0  0  0  0  0  0  0  0  0  0  0  0
   35.3140   30.0130   34.1870 C   0  0  0  0  0  0  0  0  0  0  0  0
   35.9510   28.8810   34.5430 N   0  0  0  0  0  0  0  0  0  0  0  0
   36.8290   27.8800   31.4660 H   0  0  0  0  0  0  0  0  0  0  0  0
   35.6190   30.0090   30.9170 H   0  0  0  0  0  0  0  0  0  0  0  0
   34.7020   30.8820   35.2270 C   0  0  0  0  0  3  0  0  0  0  0  0
   35.7060   31.5950   36.0910 C   0  0  0  0  0  3  0  0  0  0  0  0
   36.3380   30.9070   36.7040 H   0  0  0  0  0  0  0  0  0  0  0  0
   34.9130   32.5620   36.9480 C   0  0  0  0  0  3  0  0  0  0  0  0
   35.2670   32.4060   38.0060 H   0  0  0  0  0  0  0  0  0  0  0  0
   33.5570   32.2280   36.9800 O   0  0  0  0  0  0  0  0  0  0  0  0
   32.9340   32.4600   35.7520 C   0  0  0  0  0  3  0  0  0  0  0  0
   31.9990   31.8820   35.7510 H   0  0  0  0  0  0  0  0  0  0  0  0
   33.8060   31.9420   34.6220 C   0  0  0  0  0  3  0  0  0  0  0  0
   34.4670   32.7230   34.1930 H   0  0  0  0  0  0  0  0  0  0  0  0
   38.5080   24.9730   35.0570 C   0  0  0  0  0  0  0  0  0  0  0  0
   38.0770   24.7860   33.8110 C   0  0  0  0  0  0  0  0  0  0  0  0
   37.3700   25.7980   33.1900 C   0  0  0  0  0  0  0  0  0  0  0  0
   37.1680   26.9280   33.9180 C   0  0  0  0  0  0  0  0  0  0  0  0
   37.9890   26.5510   35.5000 S   0  0  0  0  0  0  0  0  0  0  0  0
   38.2850   23.8350   33.2910 H   0  0  0  0  0  0  0  0  0  0  0  0
   36.9750   25.7470   32.1770 H   0  0  0  0  0  0  0  0  0  0  0  0
   39.4420   22.9390   37.9360 C   0  0  0  0  0  0  0  0  0  0  0  0
   40.6460   22.3610   37.5520 C   0  0  0  0  0  0  0  0  0  0  0  0
   41.1510   22.6720   36.2850 C   0  0  0  0  0  0  0  0  0  0  0  0
   40.4370   23.5270   35.4900 N   0  0  0  0  0  0  0  0  0  0  0  0
   39.2730   24.0560   35.9190 C   0  0  0  0  0  0  0  0  0  0  0  0
   38.7710   23.7800   37.1130 N   0  0  0  0  0  0  0  0  0  0  0  0
   39.0660   22.6880   38.9200 H   0  0  0  0  0  0  0  0  0  0  0  0
   41.2290   21.6930   38.1430 H   0  0  0  0  0  0  0  0  0  0  0  0
   42.0710   22.2930   35.8670 H   0  0  0  0  0  0  0  0  0  0  0  0
  1 22  1  0  0  0  0
  1  6  1  0  0  0  0
  2  1  2  0  0  0  0
  3  2  1  0  0  0  0
  3  4  2  0  0  0  0
  4  5  1  0  0  0  0
  5  6  2  0  0  0  0
  5  9  1  0  0  0  0
  7  2  1  0  0  0  0
  8  3  1  0  0  0  0
  9 10  1  0  0  0  0
 10 11  1  0  0  0  0
 10 12  1  0  0  0  0
 12 14  1  0  0  0  0
 12 13  1  0  0  0  0
 15 14  1  0  0  0  0
 16 15  1  0  0  0  0
 17  9  1  0  0  0  0
 17 15  1  0  0  0  0
 18 17  1  0  0  0  0
 19 23  1  0  0  0  0
 19 30  1  0  0  0  0
 20 19  2  0  0  0  0
 21 20  1  0  0  0  0
 21 22  2  0  0  0  0
 22 23  1  0  0  0  0
 24 20  1  0  0  0  0
 25 21  1  0  0  0  0
 26 32  1  0  0  0  0
 27 26  1  0  0  0  0
 27 33  1  0  0  0  0
 28 27  2  0  0  0  0
 29 30  2  0  0  0  0
 29 28  1  0  0  0  0
 30 31  1  0  0  0  0
 31 26  2  0  0  0  0
 34 28  1  0  0  0  0
M  END
>  <minimizedAffinity>
-5.70303726

$$$$

 OpenBabel03262522533D

 34 37  0  0  0  0  0  0  0  0999 V2000
   38.7150   24.6730   36.0640 C   0  0  0  0  0  0  0  0  0  0  0  0
   38.0260   24.4710   37.2260 C   0  0  0  0  0  0  0  0  0  0  0  0
   38.5450   23.5300   38.0930 C   0  0  0  0  0  0  0  0  0  0  0  0
   39.6710   22.8340   37.8320 N   0  0  0  0  0  0  0  0  0  0  0  0
   40.2780   23.1160   36.6440 C   0  0  0  0  0  0  0  0  0  0  0  0
   39.8370   24.0170   35.7440 N   0  0  0  0  0  0  0  0  0  0  0  0
   37.1220   25.0340   37.4270 H   0  0  0  0  0  0  0  0  0  0  0  0
   38.0320   23.3320   39.0310 H   0  0  0  0  0  0  0  0  0  0  0  0
   41.5160   22.3390   36.3750 C   0  0  0  0  0  3  0  0  0  0  0  0
   42.7570   23.1850   36.2850 C   0  0  0  0  0  3  0  0  0  0  0  0
   42.7460   23.9070   35.4320 H   0  0  0  0  0  0  0  0  0  0  0  0
   43.9210   22.2170   36.2010 C   0  0  0  0  0  3  0  0  0  0  0  0
   44.5550   22.5640   35.3360 H   0  0  0  0  0  0  0  0  0  0  0  0
   43.5000   20.9360   35.8350 O   0  0  0  0  0  0  0  0  0  0  0  0
   42.7710   20.3160   36.8520 C   0  0  0  0  0  3  0  0  0  0  0  0
   42.2090   19.4930   36.3890 H   0  0  0  0  0  0  0  0  0  0  0  0
   41.7700   21.2940   37.4420 C   0  0  0  0  0  3  0  0  0  0  0  0
   42.1590   21.8250   38.3350 H   0  0  0  0  0  0  0  0  0  0  0  0
   37.6920   27.1710   33.0190 C   0  0  0  0  0  0  0  0  0  0  0  0
   37.0600   27.4370   34.1600 C   0  0  0  0  0  0  0  0  0  0  0  0
   37.3230   26.6540   35.2680 C   0  0  0  0  0  0  0  0  0  0  0  0
   38.2280   25.6530   35.0980 C   0  0  0  0  0  0  0  0  0  0  0  0
   38.7080   25.8250   33.3490 S   0  0  0  0  0  0  0  0  0  0  0  0
   36.3380   28.2710   34.2110 H   0  0  0  0  0  0  0  0  0  0  0  0
   36.8630   26.7870   36.2450 H   0  0  0  0  0  0  0  0  0  0  0  0
   36.5040   29.4340   30.4170 C   0  0  0  0  0  0  0  0  0  0  0  0
   37.3330   29.1560   29.3370 C   0  0  0  0  0  0  0  0  0  0  0  0
   38.3190   28.1750   29.4990 C   0  0  0  0  0  0  0  0  0  0  0  0
   38.4150   27.5410   30.7080 N   0  0  0  0  0  0  0  0  0  0  0  0
   37.5810   27.8550   31.7190 C   0  0  0  0  0  0  0  0  0  0  0  0
   36.6390   28.7780   31.5950 N   0  0  0  0  0  0  0  0  0  0  0  0
   35.7470   30.1950   30.2750 H   0  0  0  0  0  0  0  0  0  0  0  0
   37.2870   29.6280   28.3820 H   0  0  0  0  0  0  0  0  0  0  0  0
   39.0240   27.8660   28.7430 H   0  0  0  0  0  0  0  0  0  0  0  0
  1  2  1  0  0  0  0
  2  7  1  0  0  0  0
  2  3  2  0  0  0  0
  3  8  1  0  0  0  0
  4  3  1  0  0  0  0
  5  4  2  0  0  0  0
  6  1  2  0  0  0  0
  6  5  1  0  0  0  0
  9  5  1  0  0  0  0
  9 17  1  0  0  0  0
 10  9  1  0  0  0  0
 11 10  1  0  0  0  0
 12 10  1  0  0  0  0
 13 12  1  0  0  0  0
 14 12  1  0  0  0  0
 14 15  1  0  0  0  0
 15 17  1  0  0  0  0
 16 15  1  0  0  0  0
 17 18  1  0  0  0  0
 19 23  1  0  0  0  0
 19 20  2  0  0  0  0
 20 24  1  0  0  0  0
 20 21  1  0  0  0  0
 21 25  1  0  0  0  0
 22 21  2  0  0  0  0
 22  1  1  0  0  0  0
 23 22  1  0  0  0  0
 26 31  1  0  0  0  0
 27 28  1  0  0  0  0
 27 26  2  0  0  0  0
 28 29  2  0  0  0  0
 29 30  1  0  0  0  0
 30 19  1  0  0  0  0
 31 30  2  0  0  0  0
 32 26  1  0  0  0  0
 33 27  1  0  0  0  0
 34 28  1  0  0  0  0
M  END
>  <minimizedAffinity>
-5.64383316

$$$$

 OpenBabel03262522533D

 34 37  0  0  0  0  0  0  0  0999 V2000
   36.2590   27.7520   31.8720 C   0  0  0  0  0  0  0  0  0  0  0  0
   36.5590   28.3740   30.6940 C   0  0  0  0  0  0  0  0  0  0  0  0
   36.3350   29.7360   30.6440 C   0  0  0  0  0  0  0  0  0  0  0  0
   35.8490   30.4380   31.6880 N   0  0  0  0  0  0  0  0  0  0  0  0
   35.5860   29.7160   32.8140 C   0  0  0  0  0  0  0  0  0  0  0  0
   35.7750   28.3880   32.9450 N   0  0  0  0  0  0  0  0  0  0  0  0
   36.9490   27.8020   29.8600 H   0  0  0  0  0  0  0  0  0  0  0  0
   36.5580   30.2770   29.7270 H   0  0  0  0  0  0  0  0  0  0  0  0
   35.0500   30.5080   33.9530 C   0  0  0  0  0  3  0  0  0  0  0  0
   33.6920   30.0590   34.4200 C   0  0  0  0  0  3  0  0  0  0  0  0
   32.8900   30.1840   33.6510 H   0  0  0  0  0  0  0  0  0  0  0  0
   33.4020   30.8430   35.6840 C   0  0  0  0  0  3  0  0  0  0  0  0
   32.3660   31.2680   35.5590 H   0  0  0  0  0  0  0  0  0  0  0  0
   34.2280   31.9640   35.7960 O   0  0  0  0  0  0  0  0  0  0  0  0
   35.5540   31.6100   36.0560 C   0  0  0  0  0  3  0  0  0  0  0  0
   36.1740   32.4810   35.8020 H   0  0  0  0  0  0  0  0  0  0  0  0
   35.9700   30.4610   35.1560 C   0  0  0  0  0  3  0  0  0  0  0  0
   35.8350   29.4680   35.6320 H   0  0  0  0  0  0  0  0  0  0  0  0
   36.4150   23.6850   31.9170 C   0  0  0  0  0  0  0  0  0  0  0  0
   37.3720   24.2620   32.6410 C   0  0  0  0  0  0  0  0  0  0  0  0
   37.4240   25.6410   32.7020 C   0  0  0  0  0  0  0  0  0  0  0  0
   36.4710   26.3120   32.0020 C   0  0  0  0  0  0  0  0  0  0  0  0
   35.4930   24.9720   31.2490 S   0  0  0  0  0  0  0  0  0  0  0  0
   38.1080   23.6400   33.1810 H   0  0  0  0  0  0  0  0  0  0  0  0
   38.1620   26.2100   33.2640 H   0  0  0  0  0  0  0  0  0  0  0  0
   36.7950   20.2700   30.6950 C   0  0  0  0  0  0  0  0  0  0  0  0
   35.7250   19.5940   31.2710 C   0  0  0  0  0  0  0  0  0  0  0  0
   34.8550   20.3190   32.0940 C   0  0  0  0  0  0  0  0  0  0  0  0
   35.1000   21.6520   32.2880 N   0  0  0  0  0  0  0  0  0  0  0  0
   36.1560   22.2510   31.7020 C   0  0  0  0  0  0  0  0  0  0  0  0
   36.9950   21.5910   30.9180 N   0  0  0  0  0  0  0  0  0  0  0  0
   37.4580   19.6940   30.0610 H   0  0  0  0  0  0  0  0  0  0  0  0
   35.5040   18.5600   31.1420 H   0  0  0  0  0  0  0  0  0  0  0  0
   33.9910   19.9170   32.5990 H   0  0  0  0  0  0  0  0  0  0  0  0
  1 22  1  0  0  0  0
  1  6  1  0  0  0  0
  2  1  2  0  0  0  0
  3  2  1  0  0  0  0
  3  4  2  0  0  0  0
  4  5  1  0  0  0  0
  5  6  2  0  0  0  0
  5  9  1  0  0  0  0
  7  2  1  0  0  0  0
  8  3  1  0  0  0  0
  9 10  1  0  0  0  0
  9 17  1  0  0  0  0
 10 12  1  0  0  0  0
 11 10  1  0  0  0  0
 12 14  1  0  0  0  0
 13 12  1  0  0  0  0
 14 15  1  0  0  0  0
 16 15  1  0  0  0  0
 17 18  1  0  0  0  0
 17 15  1  0  0  0  0
 19 20  2  0  0  0  0
 20 21  1  0  0  0  0
 20 24  1  0  0  0  0
 21 25  1  0  0  0  0
 22 21  2  0  0  0  0
 23 19  1  0  0  0  0
 23 22  1  0  0  0  0
 26 31  2  0  0  0  0
 26 27  1  0  0  0  0
 27 28  2  0  0  0  0
 28 29  1  0  0  0  0
 28 34  1  0  0  0  0
 30 19  1  0  0  0  0
 30 29  2  0  0  0  0
 31 30  1  0  0  0  0
 32 26  1  0  0  0  0
 33 27  1  0  0  0  0
M  END
>  <minimizedAffinity>
-5.48367929

$$$$

 OpenBabel03262522533D

 34 37  0  0  0  0  0  0  0  0999 V2000
   35.4920   29.9230   34.0920 C   0  0  0  0  0  0  0  0  0  0  0  0
   35.2160   30.0610   32.7610 C   0  0  0  0  0  0  0  0  0  0  0  0
   35.6660   29.0530   31.9320 C   0  0  0  0  0  0  0  0  0  0  0  0
   36.3440   27.9780   32.3850 N   0  0  0  0  0  0  0  0  0  0  0  0
   36.5640   27.9430   33.7310 C   0  0  0  0  0  0  0  0  0  0  0  0
   36.1590   28.8830   34.6060 N   0  0  0  0  0  0  0  0  0  0  0  0
   34.6710   30.9280   32.4060 H   0  0  0  0  0  0  0  0  0  0  0  0
   35.4720   29.1170   30.8640 H   0  0  0  0  0  0  0  0  0  0  0  0
   37.3120   26.7510   34.2100 C   0  0  0  0  0  3  0  0  0  0  0  0
   38.4100   26.3090   33.2810 C   0  0  0  0  0  3  0  0  0  0  0  0
   38.0410   25.9660   32.2830 H   0  0  0  0  0  0  0  0  0  0  0  0
   39.1700   25.2220   34.0150 C   0  0  0  0  0  3  0  0  0  0  0  0
   39.2670   24.3640   33.2910 H   0  0  0  0  0  0  0  0  0  0  0  0
   38.4270   24.7020   35.0770 O   0  0  0  0  0  0  0  0  0  0  0  0
   38.2950   25.6210   36.1200 C   0  0  0  0  0  3  0  0  0  0  0  0
   37.4530   25.2830   36.7410 H   0  0  0  0  0  0  0  0  0  0  0  0
   37.9480   26.9900   35.5640 C   0  0  0  0  0  3  0  0  0  0  0  0
   38.8400   27.6280   35.3980 H   0  0  0  0  0  0  0  0  0  0  0  0
   33.7790   32.7640   36.4480 C   0  0  0  0  0  0  0  0  0  0  0  0
   35.0420   32.4960   36.7720 C   0  0  0  0  0  0  0  0  0  0  0  0
   35.7310   31.5450   36.0440 C   0  0  0  0  0  0  0  0  0  0  0  0
   35.0460   30.9480   35.0310 C   0  0  0  0  0  0  0  0  0  0  0  0
   33.4100   31.7440   35.1160 S   0  0  0  0  0  0  0  0  0  0  0  0
   35.5230   33.0290   37.6110 H   0  0  0  0  0  0  0  0  0  0  0  0
   36.7630   31.2520   36.2250 H   0  0  0  0  0  0  0  0  0  0  0  0
   32.5470   35.5370   38.4730 C   0  0  0  0  0  0  0  0  0  0  0  0
   31.1770   35.5310   38.2380 C   0  0  0  0  0  0  0  0  0  0  0  0
   30.6610   34.5600   37.3710 C   0  0  0  0  0  0  0  0  0  0  0  0
   31.5290   33.6680   36.8010 N   0  0  0  0  0  0  0  0  0  0  0  0
   32.8500   33.7250   37.0670 C   0  0  0  0  0  0  0  0  0  0  0  0
   33.3660   34.6320   37.8840 N   0  0  0  0  0  0  0  0  0  0  0  0
   32.9280   36.2940   39.1460 H   0  0  0  0  0  0  0  0  0  0  0  0
   30.4720   36.2070   38.6640 H   0  0  0  0  0  0  0  0  0  0  0  0
   29.6220   34.4470   37.1060 H   0  0  0  0  0  0  0  0  0  0  0  0
  1  6  1  0  0  0  0
  1 22  1  0  0  0  0
  2  1  2  0  0  0  0
  3  4  2  0  0  0  0
  3  2  1  0  0  0  0
  4  5  1  0  0  0  0
  5  9  1  0  0  0  0
  5  6  2  0  0  0  0
  7  2  1  0  0  0  0
  8  3  1  0  0  0  0
  9 17  1  0  0  0  0
 10 12  1  0  0  0  0
 10  9  1  0  0  0  0
 11 10  1  0  0  0  0
 12 14  1  0  0  0  0
 13 12  1  0  0  0  0
 14 15  1  0  0  0  0
 15 16  1  0  0  0  0
 17 15  1  0  0  0  0
 18 17  1  0  0  0  0
 19 20  2  0  0  0  0
 19 30  1  0  0  0  0
 20 24  1  0  0  0  0
 21 25  1  0  0  0  0
 21 20  1  0  0  0  0
 22 23  1  0  0  0  0
 22 21  2  0  0  0  0
 23 19  1  0  0  0  0
 26 32  1  0  0  0  0
 27 26  1  0  0  0  0
 27 33  1  0  0  0  0
 28 27  2  0  0  0  0
 29 30  2  0  0  0  0
 29 28  1  0  0  0  0
 30 31  1  0  0  0  0
 31 26  2  0  0  0  0
 34 28  1  0  0  0  0
M  END
>  <minimizedAffinity>
-5.32260752

$$$$

 OpenBabel03262522533D

 34 37  0  0  0  0  0  0  0  0999 V2000
   37.5640   26.3480   33.6060 C   0  0  0  0  0  0  0  0  0  0  0  0
   38.1030   25.7750   32.4900 C   0  0  0  0  0  0  0  0  0  0  0  0
   38.8970   24.6630   32.6940 C   0  0  0  0  0  0  0  0  0  0  0  0
   39.1420   24.1500   33.9170 N   0  0  0  0  0  0  0  0  0  0  0  0
   38.5520   24.8020   34.9590 C   0  0  0  0  0  0  0  0  0  0  0  0
   37.7660   25.8910   34.8470 N   0  0  0  0  0  0  0  0  0  0  0  0
   37.9020   26.1940   31.5110 H   0  0  0  0  0  0  0  0  0  0  0  0
   39.3510   24.1710   31.8370 H   0  0  0  0  0  0  0  0  0  0  0  0
   38.8340   24.2220   36.2990 C   0  0  0  0  0  3  0  0  0  0  0  0
   37.6200   24.1060   37.1790 C   0  0  0  0  0  3  0  0  0  0  0  0
   37.1620   25.0900   37.4440 H   0  0  0  0  0  0  0  0  0  0  0  0
   38.0610   23.3320   38.4050 C   0  0  0  0  0  3  0  0  0  0  0  0
   37.6960   23.9180   39.2950 H   0  0  0  0  0  0  0  0  0  0  0  0
   39.4520   23.3250   38.5370 O   0  0  0  0  0  0  0  0  0  0  0  0
   40.0650   22.5470   37.5520 C   0  0  0  0  0  3  0  0  0  0  0  0
   41.1200   22.8520   37.5130 H   0  0  0  0  0  0  0  0  0  0  0  0
   39.4430   22.8390   36.1990 C   0  0  0  0  0  3  0  0  0  0  0  0
   38.6220   22.1390   35.9400 H   0  0  0  0  0  0  0  0  0  0  0  0
   35.1710   29.5140   32.7020 C   0  0  0  0  0  0  0  0  0  0  0  0
   35.4880   29.4390   33.9930 C   0  0  0  0  0  0  0  0  0  0  0  0
   36.2960   28.4040   34.4230 C   0  0  0  0  0  0  0  0  0  0  0  0
   36.7110   27.5270   33.4710 C   0  0  0  0  0  0  0  0  0  0  0  0
   35.9470   28.1780   31.9510 S   0  0  0  0  0  0  0  0  0  0  0  0
   35.1070   30.1950   34.7020 H   0  0  0  0  0  0  0  0  0  0  0  0
   36.6130   28.2510   35.4530 H   0  0  0  0  0  0  0  0  0  0  0  0
   32.2190   31.3010   31.5220 C   0  0  0  0  0  0  0  0  0  0  0  0
   32.7460   32.3360   30.7590 C   0  0  0  0  0  0  0  0  0  0  0  0
   34.1370   32.4270   30.6430 C   0  0  0  0  0  0  0  0  0  0  0  0
   34.9070   31.4950   31.2850 N   0  0  0  0  0  0  0  0  0  0  0  0
   34.3370   30.5130   32.0120 C   0  0  0  0  0  0  0  0  0  0  0  0
   33.0230   30.4020   32.1390 N   0  0  0  0  0  0  0  0  0  0  0  0
   31.1400   31.2450   31.6000 H   0  0  0  0  0  0  0  0  0  0  0  0
   32.1780   33.0780   30.2450 H   0  0  0  0  0  0  0  0  0  0  0  0
   34.6710   33.1790   30.0830 H   0  0  0  0  0  0  0  0  0  0  0  0
  1  6  1  0  0  0  0
  2  3  1  0  0  0  0
  2  1  2  0  0  0  0
  3  4  2  0  0  0  0
  4  5  1  0  0  0  0
  5  9  1  0  0  0  0
  6  5  2  0  0  0  0
  7  2  1  0  0  0  0
  8  3  1  0  0  0  0
  9 10  1  0  0  0  0
 10 11  1  0  0  0  0
 10 12  1  0  0  0  0
 12 14  1  0  0  0  0
 12 13  1  0  0  0  0
 15 14  1  0  0  0  0
 16 15  1  0  0  0  0
 17  9  1  0  0  0  0
 17 15  1  0  0  0  0
 18 17  1  0  0  0  0
 19 20  2  0  0  0  0
 20 21  1  0  0  0  0
 20 24  1  0  0  0  0
 21 25  1  0  0  0  0
 22  1  1  0  0  0  0
 22 21  2  0  0  0  0
 23 19  1  0  0  0  0
 23 22  1  0  0  0  0
 26 32  1  0  0  0  0
 26 31  1  0  0  0  0
 27 26  2  0  0  0  0
 28 27  1  0  0  0  0
 28 29  2  0  0  0  0
 29 30  1  0  0  0  0
 30 31  2  0  0  0  0
 30 19  1  0  0  0  0
 33 27  1  0  0  0  0
 34 28  1  0  0  0  0
M  END
>  <minimizedAffinity>
-5.3195467

$$$$

 OpenBabel03262522533D

 34 37  0  0  0  0  0  0  0  0999 V2000
   36.6590   28.1050   33.1710 C   0  0  0  0  0  0  0  0  0  0  0  0
   37.0670   28.1500   31.8680 C   0  0  0  0  0  0  0  0  0  0  0  0
   36.3220   28.9440   31.0190 C   0  0  0  0  0  0  0  0  0  0  0  0
   35.2460   29.6480   31.4270 N   0  0  0  0  0  0  0  0  0  0  0  0
   34.9290   29.5300   32.7480 C   0  0  0  0  0  0  0  0  0  0  0  0
   35.6020   28.7780   33.6410 N   0  0  0  0  0  0  0  0  0  0  0  0
   37.9320   27.5810   31.5490 H   0  0  0  0  0  0  0  0  0  0  0  0
   36.6060   29.0130   29.9710 H   0  0  0  0  0  0  0  0  0  0  0  0
   33.7410   30.3130   33.1780 C   0  0  0  0  0  3  0  0  0  0  0  0
   32.4300   29.7070   32.7570 C   0  0  0  0  0  3  0  0  0  0  0  0
   32.2910   29.6640   31.6490 H   0  0  0  0  0  0  0  0  0  0  0  0
   31.3500   30.5260   33.4370 C   0  0  0  0  0  3  0  0  0  0  0  0
   30.6040   30.7890   32.6360 H   0  0  0  0  0  0  0  0  0  0  0  0
   31.8390   31.7590   33.8770 O   0  0  0  0  0  0  0  0  0  0  0  0
   32.7190   31.6170   34.9520 C   0  0  0  0  0  3  0  0  0  0  0  0
   33.2980   32.5480   35.0180 H   0  0  0  0  0  0  0  0  0  0  0  0
   33.6880   30.4800   34.6830 C   0  0  0  0  0  3  0  0  0  0  0  0
   33.3490   29.5120   35.1070 H   0  0  0  0  0  0  0  0  0  0  0  0
   38.7000   25.4390   35.4700 C   0  0  0  0  0  0  0  0  0  0  0  0
   38.5000   26.6120   36.0670 C   0  0  0  0  0  0  0  0  0  0  0  0
   37.8180   27.6010   35.3850 C   0  0  0  0  0  0  0  0  0  0  0  0
   37.3970   27.2880   34.1300 C   0  0  0  0  0  0  0  0  0  0  0  0
   37.9760   25.5740   33.9180 S   0  0  0  0  0  0  0  0  0  0  0  0
   38.8760   26.7830   37.0910 H   0  0  0  0  0  0  0  0  0  0  0  0
   37.6020   28.5920   35.7800 H   0  0  0  0  0  0  0  0  0  0  0  0
   39.6070   22.6800   37.6770 C   0  0  0  0  0  0  0  0  0  0  0  0
   40.6290   22.0340   36.9910 C   0  0  0  0  0  0  0  0  0  0  0  0
   41.0180   22.5500   35.7500 C   0  0  0  0  0  0  0  0  0  0  0  0
   40.3750   23.6620   35.2750 N   0  0  0  0  0  0  0  0  0  0  0  0
   39.3900   24.2440   35.9870 C   0  0  0  0  0  0  0  0  0  0  0  0
   39.0000   23.7790   37.1650 N   0  0  0  0  0  0  0  0  0  0  0  0
   39.3190   22.2670   38.6350 H   0  0  0  0  0  0  0  0  0  0  0  0
   41.1510   21.1680   37.3280 H   0  0  0  0  0  0  0  0  0  0  0  0
   41.7940   22.1460   35.1190 H   0  0  0  0  0  0  0  0  0  0  0  0
  1  6  1  0  0  0  0
  1 22  1  0  0  0  0
  2  1  2  0  0  0  0
  3  4  2  0  0  0  0
  3  2  1  0  0  0  0
  4  5  1  0  0  0  0
  5  9  1  0  0  0  0
  5  6  2  0  0  0  0
  7  2  1  0  0  0  0
  8  3  1  0  0  0  0
  9 17  1  0  0  0  0
 10  9  1  0  0  0  0
 10 12  1  0  0  0  0
 11 10  1  0  0  0  0
 12 14  1  0  0  0  0
 13 12  1  0  0  0  0
 14 15  1  0  0  0  0
 15 16  1  0  0  0  0
 17 15  1  0  0  0  0
 17 18  1  0  0  0  0
 19 30  1  0  0  0  0
 19 20  2  0  0  0  0
 20 24  1  0  0  0  0
 21 25  1  0  0  0  0
 21 20  1  0  0  0  0
 22 21  2  0  0  0  0
 23 22  1  0  0  0  0
 23 19  1  0  0  0  0
 26 32  1  0  0  0  0
 27 33  1  0  0  0  0
 27 26  2  0  0  0  0
 28 27  1  0  0  0  0
 29 28  2  0  0  0  0
 29 30  1  0  0  0  0
 30 31  2  0  0  0  0
 31 26  1  0  0  0  0
 34 28  1  0  0  0  0
M  END
>  <minimizedAffinity>
-5.28947926

$$$$

 OpenBabel03262522533D

 34 37  0  0  0  0  0  0  0  0999 V2000
   35.9630   28.4570   32.0420 C   0  0  0  0  0  0  0  0  0  0  0  0
   36.3210   29.2910   31.0210 C   0  0  0  0  0  0  0  0  0  0  0  0
   36.2800   30.6450   31.2910 C   0  0  0  0  0  0  0  0  0  0  0  0
   35.9110   31.1440   32.4890 N   0  0  0  0  0  0  0  0  0  0  0  0
   35.5750   30.2210   33.4340 C   0  0  0  0  0  0  0  0  0  0  0  0
   35.5880   28.8860   33.2530 N   0  0  0  0  0  0  0  0  0  0  0  0
   36.6160   28.8820   30.0620 H   0  0  0  0  0  0  0  0  0  0  0  0
   36.5550   31.3500   30.5100 H   0  0  0  0  0  0  0  0  0  0  0  0
   35.1710   30.7900   34.7470 C   0  0  0  0  0  3  0  0  0  0  0  0
   36.0000   31.9680   35.1790 C   0  0  0  0  0  3  0  0  0  0  0  0
   37.0760   31.7190   35.3540 H   0  0  0  0  0  0  0  0  0  0  0  0
   35.3300   32.5210   36.4220 C   0  0  0  0  0  3  0  0  0  0  0  0
   36.1470   32.6490   37.1880 H   0  0  0  0  0  0  0  0  0  0  0  0
   34.4570   31.5920   36.9920 O   0  0  0  0  0  0  0  0  0  0  0  0
   33.3230   31.3900   36.2020 C   0  0  0  0  0  3  0  0  0  0  0  0
   32.8710   30.4420   36.5270 H   0  0  0  0  0  0  0  0  0  0  0  0
   33.7250   31.2420   34.7460 C   0  0  0  0  0  3  0  0  0  0  0  0
   33.6830   32.2000   34.1870 H   0  0  0  0  0  0  0  0  0  0  0  0
   36.4100   24.4180   31.8300 C   0  0  0  0  0  0  0  0  0  0  0  0
   35.4840   24.8950   31.0010 C   0  0  0  0  0  0  0  0  0  0  0  0
   35.2390   26.2540   30.9830 C   0  0  0  0  0  0  0  0  0  0  0  0
   35.9830   27.0120   31.8330 C   0  0  0  0  0  0  0  0  0  0  0  0
   37.0380   25.7820   32.6650 S   0  0  0  0  0  0  0  0  0  0  0  0
   34.9240   24.2070   30.3430 H   0  0  0  0  0  0  0  0  0  0  0  0
   34.5060   26.7440   30.3460 H   0  0  0  0  0  0  0  0  0  0  0  0
   36.6140   20.7950   31.4570 C   0  0  0  0  0  0  0  0  0  0  0  0
   37.6140   20.4290   32.3510 C   0  0  0  0  0  0  0  0  0  0  0  0
   38.2310   21.4390   33.0980 C   0  0  0  0  0  0  0  0  0  0  0  0
   37.8210   22.7320   32.9110 N   0  0  0  0  0  0  0  0  0  0  0  0
   36.8450   23.0240   32.0280 C   0  0  0  0  0  0  0  0  0  0  0  0
   36.2430   22.0900   31.3080 N   0  0  0  0  0  0  0  0  0  0  0  0
   36.1470   20.0020   30.8880 H   0  0  0  0  0  0  0  0  0  0  0  0
   37.9580   19.4360   32.5220 H   0  0  0  0  0  0  0  0  0  0  0  0
   39.0170   21.2900   33.8220 H   0  0  0  0  0  0  0  0  0  0  0  0
  1  6  1  0  0  0  0
  2  3  1  0  0  0  0
  2  1  2  0  0  0  0
  3  4  2  0  0  0  0
  4  5  1  0  0  0  0
  5  9  1  0  0  0  0
  6  5  2  0  0  0  0
  7  2  1  0  0  0  0
  8  3  1  0  0  0  0
  9 10  1  0  0  0  0
 10 11  1  0  0  0  0
 10 12  1  0  0  0  0
 12 14  1  0  0  0  0
 12 13  1  0  0  0  0
 15 16  1  0  0  0  0
 15 14  1  0  0  0  0
 17  9  1  0  0  0  0
 17 15  1  0  0  0  0
 18 17  1  0  0  0  0
 19 30  1  0  0  0  0
 19 23  1  0  0  0  0
 20 19  2  0  0  0  0
 21 20  1  0  0  0  0
 21 22  2  0  0  0  0
 22  1  1  0  0  0  0
 22 23  1  0  0  0  0
 24 20  1  0  0  0  0
 25 21  1  0  0  0  0
 26 27  1  0  0  0  0
 27 33  1  0  0  0  0
 27 28  2  0  0  0  0
 28 34  1  0  0  0  0
 29 28  1  0  0  0  0
 30 29  2  0  0  0  0
 31 26  2  0  0  0  0
 31 30  1  0  0  0  0
 32 26  1  0  0  0  0
M  END
>  <minimizedAffinity>
-5.27154112

$$$$

 OpenBabel03262522533D

 34 37  0  0  0  0  0  0  0  0999 V2000
   37.4800   25.0370   33.0260 C   0  0  0  0  0  0  0  0  0  0  0  0
   37.1510   23.9360   32.2860 C   0  0  0  0  0  0  0  0  0  0  0  0
   37.3850   22.7090   32.8740 C   0  0  0  0  0  0  0  0  0  0  0  0
   37.9080   22.5740   34.1100 N   0  0  0  0  0  0  0  0  0  0  0  0
   38.1980   23.7390   34.7580 C   0  0  0  0  0  0  0  0  0  0  0  0
   38.0010   24.9740   34.2570 N   0  0  0  0  0  0  0  0  0  0  0  0
   36.7320   24.0540   31.2930 H   0  0  0  0  0  0  0  0  0  0  0  0
   37.1410   21.8030   32.3250 H   0  0  0  0  0  0  0  0  0  0  0  0
   38.7730   23.5700   36.1180 C   0  0  0  0  0  3  0  0  0  0  0  0
   37.7590   23.6700   37.2240 C   0  0  0  0  0  3  0  0  0  0  0  0
   37.2760   24.6750   37.2990 H   0  0  0  0  0  0  0  0  0  0  0  0
   38.4850   23.2870   38.4980 C   0  0  0  0  0  3  0  0  0  0  0  0
   38.2440   24.0900   39.2500 H   0  0  0  0  0  0  0  0  0  0  0  0
   39.8720   23.3600   38.3420 O   0  0  0  0  0  0  0  0  0  0  0  0
   40.3550   22.3540   37.5020 C   0  0  0  0  0  3  0  0  0  0  0  0
   41.3540   22.6670   37.1680 H   0  0  0  0  0  0  0  0  0  0  0  0
   39.4680   22.2330   36.2750 C   0  0  0  0  0  3  0  0  0  0  0  0
   38.6760   21.4640   36.3880 H   0  0  0  0  0  0  0  0  0  0  0  0
   37.1110   28.5690   31.0380 C   0  0  0  0  0  0  0  0  0  0  0  0
   36.6110   28.5980   32.2720 C   0  0  0  0  0  0  0  0  0  0  0  0
   36.6760   27.4560   33.0460 C   0  0  0  0  0  0  0  0  0  0  0  0
   37.2600   26.3700   32.4720 C   0  0  0  0  0  0  0  0  0  0  0  0
   37.7200   26.9770   30.8170 S   0  0  0  0  0  0  0  0  0  0  0  0
   36.1540   29.5250   32.6610 H   0  0  0  0  0  0  0  0  0  0  0  0
   36.2990   27.3730   34.0640 H   0  0  0  0  0  0  0  0  0  0  0  0
   36.6860   31.8420   29.4870 C   0  0  0  0  0  0  0  0  0  0  0  0
   37.2270   31.6760   28.2170 C   0  0  0  0  0  0  0  0  0  0  0  0
   37.7470   30.4200   27.8820 C   0  0  0  0  0  0  0  0  0  0  0  0
   37.6970   29.4230   28.8180 N   0  0  0  0  0  0  0  0  0  0  0  0
   37.1600   29.6460   30.0350 C   0  0  0  0  0  0  0  0  0  0  0  0
   36.6590   30.8230   30.3790 N   0  0  0  0  0  0  0  0  0  0  0  0
   36.2870   32.8190   29.7290 H   0  0  0  0  0  0  0  0  0  0  0  0
   37.2820   32.4270   27.4640 H   0  0  0  0  0  0  0  0  0  0  0  0
   38.1930   30.1600   26.9350 H   0  0  0  0  0  0  0  0  0  0  0  0
  1  6  1  0  0  0  0
  2  3  1  0  0  0  0
  2  1  2  0  0  0  0
  3  4  2  0  0  0  0
  4  5  1  0  0  0  0
  5  9  1  0  0  0  0
  6  5  2  0  0  0  0
  7  2  1  0  0  0  0
  8  3  1  0  0  0  0
  9 17  1  0  0  0  0
  9 10  1  0  0  0  0
 10 11  1  0  0  0  0
 10 12  1  0  0  0  0
 12 13  1  0  0  0  0
 14 12  1  0  0  0  0
 15 14  1  0  0  0  0
 16 15  1  0  0  0  0
 17 18  1  0  0  0  0
 17 15  1  0  0  0  0
 19 20  2  0  0  0  0
 20 24  1  0  0  0  0
 20 21  1  0  0  0  0
 21 25  1  0  0  0  0
 22  1  1  0  0  0  0
 22 21  2  0  0  0  0
 23 19  1  0  0  0  0
 23 22  1  0  0  0  0
 26 32  1  0  0  0  0
 26 31  1  0  0  0  0
 27 26  2  0  0  0  0
 28 27  1  0  0  0  0
 28 29  2  0  0  0  0
 29 30  1  0  0  0  0
 30 31  2  0  0  0  0
 30 19  1  0  0  0  0
 33 27  1  0  0  0  0
 34 28  1  0  0  0  0
M  END
>  <minimizedAffinity>
-5.27013016

$$$$
