
 OpenBabel03272504013D

 32 34  0  0  0  0  0  0  0  0999 V2000
   37.3070   27.8970   35.0000 C   0  0  0  0  0  0  0  0  0  0  0  0
   36.7810   27.6580   33.7440 C   0  0  0  0  0  0  0  0  0  0  0  0
   35.9170   28.6690   33.4320 C   0  0  0  0  0  0  0  0  0  0  0  0
   35.9250   29.4970   34.4800 N   0  0  0  0  0  0  0  0  0  0  0  0
   36.7390   29.0420   35.3920 N   0  0  0  0  0  0  0  0  0  0  0  0
   36.9660   26.8400   33.0590 H   0  0  0  0  0  0  0  0  0  0  0  0
   35.3020   28.8910   32.5890 H   0  0  0  0  0  0  0  0  0  0  0  0
   35.2460   30.7590   34.8190 C   0  0  0  0  0  3  0  0  0  0  0  0
   33.8080   30.4950   35.1110 C   0  0  0  0  0  3  0  0  0  0  0  0
   33.6930   29.4600   35.5330 H   0  0  0  0  0  0  0  0  0  0  0  0
   33.1700   31.4330   36.0870 C   0  0  0  0  0  3  0  0  0  0  0  0
   32.2350   30.9690   36.4500 H   0  0  0  0  0  0  0  0  0  0  0  0
   34.0410   31.6590   37.1710 O   0  0  0  0  0  0  0  0  0  0  0  0
   35.0800   32.4400   36.6140 C   0  0  0  0  0  3  0  0  0  0  0  0
   34.6290   33.2170   35.9870 H   0  0  0  0  0  0  0  0  0  0  0  0
   35.9880   31.5130   35.8770 C   0  0  0  0  0  3  0  0  0  0  0  0
   36.5170   30.8690   36.5940 H   0  0  0  0  0  0  0  0  0  0  0  0
   38.2720   26.9720   35.6250 C   0  0  0  0  0  0  0  0  0  0  0  0
   39.2800   27.0590   35.1110 H   0  0  0  0  0  0  0  0  0  0  0  0
   38.4820   27.3590   36.6270 H   0  0  0  0  0  0  0  0  0  0  0  0
   37.8790   25.5500   35.4990 C   0  0  0  0  0  0  0  0  0  0  0  0
   36.7690   25.5110   35.7350 H   0  0  0  0  0  0  0  0  0  0  0  0
   37.8930   25.1920   34.4220 H   0  0  0  0  0  0  0  0  0  0  0  0
   38.5010   24.5880   36.3750 C   0  0  0  0  0  0  0  0  0  0  0  0
   38.0330   24.3660   37.6400 C   0  0  0  0  0  0  0  0  0  0  0  0
   38.6510   23.4090   38.4770 C   0  0  0  0  0  0  0  0  0  0  0  0
   39.7320   22.7430   37.9180 N   0  0  0  0  0  0  0  0  0  0  0  0
   40.1620   23.0000   36.6510 C   0  0  0  0  0  0  0  0  0  0  0  0
   39.5380   23.9240   35.8920 N   0  0  0  0  0  0  0  0  0  0  0  0
   37.2100   24.8190   38.1630 H   0  0  0  0  0  0  0  0  0  0  0  0
   38.3720   23.1540   39.4750 H   0  0  0  0  0  0  0  0  0  0  0  0
   41.0180   22.4290   36.2970 H   0  0  0  0  0  0  0  0  0  0  0  0
  1  5  2  0  0  0  0
  1 18  1  0  0  0  0
  2  1  1  0  0  0  0
  3  2  2  0  0  0  0
  3  4  1  0  0  0  0
  4  8  1  0  0  0  0
  4  5  1  0  0  0  0
  6  2  1  0  0  0  0
  7  3  1  0  0  0  0
  8  9  1  0  0  0  0
  8 16  1  0  0  0  0
  9 10  1  0  0  0  0
  9 11  1  0  0  0  0
 11 12  1  0  0  0  0
 11 13  1  0  0  0  0
 14 13  1  0  0  0  0
 15 14  1  0  0  0  0
 16 17  1  0  0  0  0
 16 14  1  0  0  0  0
 18 20  1  0  0  0  0
 19 18  1  0  0  0  0
 21 18  1  0  0  0  0
 21 22  1  0  0  0  0
 21 24  1  0  0  0  0
 23 21  1  0  0  0  0
 24 25  1  0  0  0  0
 25 30  1  0  0  0  0
 25 26  2  0  0  0  0
 26 31  1  0  0  0  0
 27 26  1  0  0  0  0
 28 27  2  0  0  0  0
 29 24  2  0  0  0  0
 29 28  1  0  0  0  0
 32 28  1  0  0  0  0
M  END
>  <minimizedAffinity>
-5.10988951

$$$$

 OpenBabel03272504013D

 32 34  0  0  0  0  0  0  0  0999 V2000
   37.1210   27.3530   34.6600 C   0  0  0  0  0  0  0  0  0  0  0  0
   38.1720   27.8880   35.3820 C   0  0  0  0  0  0  0  0  0  0  0  0
   38.6840   26.9140   36.1920 C   0  0  0  0  0  0  0  0  0  0  0  0
   37.9560   25.8200   35.9610 N   0  0  0  0  0  0  0  0  0  0  0  0
   37.0450   26.0820   35.0640 N   0  0  0  0  0  0  0  0  0  0  0  0
   38.5830   28.8890   35.3710 H   0  0  0  0  0  0  0  0  0  0  0  0
   39.4800   26.8790   36.9030 H   0  0  0  0  0  0  0  0  0  0  0  0
   37.9540   24.4390   36.4720 C   0  0  0  0  0  3  0  0  0  0  0  0
   39.0710   23.6700   35.8510 C   0  0  0  0  0  3  0  0  0  0  0  0
   39.9190   24.3660   35.6100 H   0  0  0  0  0  0  0  0  0  0  0  0
   39.6380   22.5710   36.6920 C   0  0  0  0  0  3  0  0  0  0  0  0
   40.6230   22.2910   36.2760 H   0  0  0  0  0  0  0  0  0  0  0  0
   39.7930   23.0180   38.0200 O   0  0  0  0  0  0  0  0  0  0  0  0
   38.4660   23.1290   38.4970 C   0  0  0  0  0  3  0  0  0  0  0  0
   37.9120   22.2370   38.1850 H   0  0  0  0  0  0  0  0  0  0  0  0
   37.9080   24.4080   37.9670 C   0  0  0  0  0  3  0  0  0  0  0  0
   38.4180   25.2570   38.4450 H   0  0  0  0  0  0  0  0  0  0  0  0
   36.3510   28.1640   33.6980 C   0  0  0  0  0  0  0  0  0  0  0  0
   37.0490   28.8490   33.1220 H   0  0  0  0  0  0  0  0  0  0  0  0
   35.9930   27.4820   32.9200 H   0  0  0  0  0  0  0  0  0  0  0  0
   35.3620   29.0550   34.3470 C   0  0  0  0  0  0  0  0  0  0  0  0
   34.4090   28.9600   33.7370 H   0  0  0  0  0  0  0  0  0  0  0  0
   35.0240   28.6610   35.3560 H   0  0  0  0  0  0  0  0  0  0  0  0
   35.6500   30.4670   34.4100 C   0  0  0  0  0  0  0  0  0  0  0  0
   35.9230   31.0890   35.5960 C   0  0  0  0  0  0  0  0  0  0  0  0
   36.2160   32.4720   35.6310 C   0  0  0  0  0  0  0  0  0  0  0  0
   36.2010   33.1110   34.4010 N   0  0  0  0  0  0  0  0  0  0  0  0
   35.9210   32.4470   33.2440 C   0  0  0  0  0  0  0  0  0  0  0  0
   35.6490   31.1270   33.2640 N   0  0  0  0  0  0  0  0  0  0  0  0
   35.9640   30.6900   36.5930 H   0  0  0  0  0  0  0  0  0  0  0  0
   36.4430   33.0570   36.4930 H   0  0  0  0  0  0  0  0  0  0  0  0
   35.9330   33.0320   32.3270 H   0  0  0  0  0  0  0  0  0  0  0  0
  1  5  2  0  0  0  0
  1  2  1  0  0  0  0
  2  3  2  0  0  0  0
  3  7  1  0  0  0  0
  4  3  1  0  0  0  0
  4  8  1  0  0  0  0
  5  4  1  0  0  0  0
  6  2  1  0  0  0  0
  8 16  1  0  0  0  0
  9  8  1  0  0  0  0
  9 11  1  0  0  0  0
 10  9  1  0  0  0  0
 11 13  1  0  0  0  0
 12 11  1  0  0  0  0
 13 14  1  0  0  0  0
 15 14  1  0  0  0  0
 16 17  1  0  0  0  0
 16 14  1  0  0  0  0
 18 21  1  0  0  0  0
 18  1  1  0  0  0  0
 19 18  1  0  0  0  0
 20 18  1  0  0  0  0
 21 24  1  0  0  0  0
 21 23  1  0  0  0  0
 22 21  1  0  0  0  0
 24 25  1  0  0  0  0
 25 26  2  0  0  0  0
 25 30  1  0  0  0  0
 26 31  1  0  0  0  0
 27 26  1  0  0  0  0
 28 29  1  0  0  0  0
 28 27  2  0  0  0  0
 29 24  2  0  0  0  0
 32 28  1  0  0  0  0
M  END
>  <minimizedAffinity>
-5.07150841

$$$$

 OpenBabel03272504013D

 32 34  0  0  0  0  0  0  0  0999 V2000
   37.2530   27.2140   34.5060 C   0  0  0  0  0  0  0  0  0  0  0  0
   38.0750   27.8540   35.4160 C   0  0  0  0  0  0  0  0  0  0  0  0
   38.4920   26.9420   36.3440 C   0  0  0  0  0  0  0  0  0  0  0  0
   37.9320   25.7800   35.9970 N   0  0  0  0  0  0  0  0  0  0  0  0
   37.2110   25.9450   34.9230 N   0  0  0  0  0  0  0  0  0  0  0  0
   38.3850   28.8900   35.4610 H   0  0  0  0  0  0  0  0  0  0  0  0
   39.1190   26.9890   37.2050 H   0  0  0  0  0  0  0  0  0  0  0  0
   37.9490   24.4110   36.5370 C   0  0  0  0  0  3  0  0  0  0  0  0
   39.0190   23.6170   35.8660 C   0  0  0  0  0  3  0  0  0  0  0  0
   39.8580   24.3000   35.5590 H   0  0  0  0  0  0  0  0  0  0  0  0
   39.6270   22.5300   36.6950 C   0  0  0  0  0  3  0  0  0  0  0  0
   40.5820   22.2320   36.2260 H   0  0  0  0  0  0  0  0  0  0  0  0
   39.8660   23.0030   38.0010 O   0  0  0  0  0  0  0  0  0  0  0  0
   38.5720   23.1380   38.5550 C   0  0  0  0  0  3  0  0  0  0  0  0
   37.9920   22.2460   38.2970 H   0  0  0  0  0  0  0  0  0  0  0  0
   37.9940   24.4120   38.0330 C   0  0  0  0  0  3  0  0  0  0  0  0
   38.5390   25.2650   38.4610 H   0  0  0  0  0  0  0  0  0  0  0  0
   36.6330   27.9380   33.3800 C   0  0  0  0  0  0  0  0  0  0  0  0
   35.5250   27.6960   33.3270 H   0  0  0  0  0  0  0  0  0  0  0  0
   36.6320   29.0000   33.6460 H   0  0  0  0  0  0  0  0  0  0  0  0
   37.1910   27.5540   32.0630 C   0  0  0  0  0  0  0  0  0  0  0  0
   36.6860   28.2290   31.3020 H   0  0  0  0  0  0  0  0  0  0  0  0
   38.2770   27.8590   31.9490 H   0  0  0  0  0  0  0  0  0  0  0  0
   36.9770   26.2060   31.5960 C   0  0  0  0  0  0  0  0  0  0  0  0
   38.0210   25.3990   31.2410 C   0  0  0  0  0  0  0  0  0  0  0  0
   37.7870   24.0760   30.7990 C   0  0  0  0  0  0  0  0  0  0  0  0
   36.4550   23.6910   30.7610 N   0  0  0  0  0  0  0  0  0  0  0  0
   35.4480   24.5340   31.1250 C   0  0  0  0  0  0  0  0  0  0  0  0
   35.7230   25.7860   31.5400 N   0  0  0  0  0  0  0  0  0  0  0  0
   39.0770   25.5950   31.2370 H   0  0  0  0  0  0  0  0  0  0  0  0
   38.5200   23.3620   30.4990 H   0  0  0  0  0  0  0  0  0  0  0  0
   34.4340   24.1440   31.0630 H   0  0  0  0  0  0  0  0  0  0  0  0
  1  5  2  0  0  0  0
  1  2  1  0  0  0  0
  2  6  1  0  0  0  0
  2  3  2  0  0  0  0
  3  7  1  0  0  0  0
  4  3  1  0  0  0  0
  4  8  1  0  0  0  0
  5  4  1  0  0  0  0
  8 16  1  0  0  0  0
  9  8  1  0  0  0  0
  9 11  1  0  0  0  0
 10  9  1  0  0  0  0
 11 13  1  0  0  0  0
 12 11  1  0  0  0  0
 13 14  1  0  0  0  0
 15 14  1  0  0  0  0
 16 17  1  0  0  0  0
 16 14  1  0  0  0  0
 18 20  1  0  0  0  0
 18  1  1  0  0  0  0
 19 18  1  0  0  0  0
 21 18  1  0  0  0  0
 22 21  1  0  0  0  0
 23 21  1  0  0  0  0
 24 21  1  0  0  0  0
 25 24  2  0  0  0  0
 26 25  1  0  0  0  0
 27 26  2  0  0  0  0
 27 28  1  0  0  0  0
 28 29  2  0  0  0  0
 29 24  1  0  0  0  0
 30 25  1  0  0  0  0
 31 26  1  0  0  0  0
 32 28  1  0  0  0  0
M  END
>  <minimizedAffinity>
-5.03719473

$$$$

 OpenBabel03272504013D

 32 34  0  0  0  0  0  0  0  0999 V2000
   35.9930   24.5510   31.5310 C   0  0  0  0  0  0  0  0  0  0  0  0
   35.2770   25.5940   30.9750 C   0  0  0  0  0  0  0  0  0  0  0  0
   35.7400   26.7680   31.4960 C   0  0  0  0  0  0  0  0  0  0  0  0
   36.7140   26.4370   32.3470 N   0  0  0  0  0  0  0  0  0  0  0  0
   36.8580   25.1400   32.3630 N   0  0  0  0  0  0  0  0  0  0  0  0
   34.4740   25.5740   30.2490 H   0  0  0  0  0  0  0  0  0  0  0  0
   35.4870   27.7960   31.3580 H   0  0  0  0  0  0  0  0  0  0  0  0
   37.6240   27.1800   33.2330 C   0  0  0  0  0  3  0  0  0  0  0  0
   37.0760   27.1960   34.6200 C   0  0  0  0  0  3  0  0  0  0  0  0
   36.4710   26.2650   34.7970 H   0  0  0  0  0  0  0  0  0  0  0  0
   38.0960   27.2620   35.7120 C   0  0  0  0  0  3  0  0  0  0  0  0
   37.6100   26.9620   36.6580 H   0  0  0  0  0  0  0  0  0  0  0  0
   39.1600   26.3840   35.4260 O   0  0  0  0  0  0  0  0  0  0  0  0
   39.8210   26.9980   34.3360 C   0  0  0  0  0  3  0  0  0  0  0  0
   39.9190   28.0670   34.5500 H   0  0  0  0  0  0  0  0  0  0  0  0
   39.0330   26.6920   33.1060 C   0  0  0  0  0  3  0  0  0  0  0  0
   39.1130   25.6200   32.8760 H   0  0  0  0  0  0  0  0  0  0  0  0
   35.7200   23.1450   31.1740 C   0  0  0  0  0  0  0  0  0  0  0  0
   34.6600   23.0450   30.7800 H   0  0  0  0  0  0  0  0  0  0  0  0
   36.3250   22.9180   30.2910 H   0  0  0  0  0  0  0  0  0  0  0  0
   35.8060   22.2240   32.3300 C   0  0  0  0  0  0  0  0  0  0  0  0
   36.7750   22.4830   32.8630 H   0  0  0  0  0  0  0  0  0  0  0  0
   35.0380   22.4620   33.1300 H   0  0  0  0  0  0  0  0  0  0  0  0
   35.8670   20.8060   32.0720 C   0  0  0  0  0  0  0  0  0  0  0  0
   35.4450   19.8930   32.9970 C   0  0  0  0  0  0  0  0  0  0  0  0
   35.5010   18.5080   32.7150 C   0  0  0  0  0  0  0  0  0  0  0  0
   36.0030   18.1770   31.4660 N   0  0  0  0  0  0  0  0  0  0  0  0
   36.4130   19.1250   30.5770 C   0  0  0  0  0  0  0  0  0  0  0  0
   36.3380   20.4340   30.8930 N   0  0  0  0  0  0  0  0  0  0  0  0
   35.0400   20.0400   33.9810 H   0  0  0  0  0  0  0  0  0  0  0  0
   35.2010   17.7110   33.3580 H   0  0  0  0  0  0  0  0  0  0  0  0
   36.7920   18.7720   29.6210 H   0  0  0  0  0  0  0  0  0  0  0  0
  1  5  2  0  0  0  0
  2  3  2  0  0  0  0
  2  1  1  0  0  0  0
  3  4  1  0  0  0  0
  4  5  1  0  0  0  0
  4  8  1  0  0  0  0
  6  2  1  0  0  0  0
  7  3  1  0  0  0  0
  8  9  1  0  0  0  0
  9 10  1  0  0  0  0
  9 11  1  0  0  0  0
 11 12  1  0  0  0  0
 13 11  1  0  0  0  0
 14 15  1  0  0  0  0
 14 13  1  0  0  0  0
 16  8  1  0  0  0  0
 16 14  1  0  0  0  0
 17 16  1  0  0  0  0
 18  1  1  0  0  0  0
 18 21  1  0  0  0  0
 19 18  1  0  0  0  0
 20 18  1  0  0  0  0
 21 22  1  0  0  0  0
 21 23  1  0  0  0  0
 24 21  1  0  0  0  0
 24 25  1  0  0  0  0
 25 30  1  0  0  0  0
 26 25  2  0  0  0  0
 26 31  1  0  0  0  0
 27 26  1  0  0  0  0
 28 29  1  0  0  0  0
 28 27  2  0  0  0  0
 29 24  2  0  0  0  0
 32 28  1  0  0  0  0
M  END
>  <minimizedAffinity>
-4.96319771

$$$$

 OpenBabel03272504013D

 32 34  0  0  0  0  0  0  0  0999 V2000
   37.4190   24.0360   32.6310 C   0  0  0  0  0  0  0  0  0  0  0  0
   36.4710   24.8000   31.9780 C   0  0  0  0  0  0  0  0  0  0  0  0
   35.6190   23.9650   31.3130 C   0  0  0  0  0  0  0  0  0  0  0  0
   36.0480   22.7250   31.5630 N   0  0  0  0  0  0  0  0  0  0  0  0
   37.0990   22.7730   32.3340 N   0  0  0  0  0  0  0  0  0  0  0  0
   36.3490   25.8760   31.9450 H   0  0  0  0  0  0  0  0  0  0  0  0
   34.7620   24.1120   30.6950 H   0  0  0  0  0  0  0  0  0  0  0  0
   35.6140   21.3730   31.1770 C   0  0  0  0  0  3  0  0  0  0  0  0
   36.7830   20.5910   30.6790 C   0  0  0  0  0  3  0  0  0  0  0  0
   37.7190   20.9480   31.1880 H   0  0  0  0  0  0  0  0  0  0  0  0
   36.7060   19.1130   30.9000 C   0  0  0  0  0  3  0  0  0  0  0  0
   37.7220   18.6940   30.7820 H   0  0  0  0  0  0  0  0  0  0  0  0
   36.2310   18.8490   32.2000 O   0  0  0  0  0  0  0  0  0  0  0  0
   34.8710   19.2320   32.1480 C   0  0  0  0  0  3  0  0  0  0  0  0
   34.4380   18.8420   31.2210 H   0  0  0  0  0  0  0  0  0  0  0  0
   34.8220   20.7190   32.2650 C   0  0  0  0  0  3  0  0  0  0  0  0
   35.1270   21.0190   33.2780 H   0  0  0  0  0  0  0  0  0  0  0  0
   38.4920   24.6530   33.4350 C   0  0  0  0  0  0  0  0  0  0  0  0
   39.3210   23.9000   33.6180 H   0  0  0  0  0  0  0  0  0  0  0  0
   38.9820   25.3950   32.7960 H   0  0  0  0  0  0  0  0  0  0  0  0
   38.0390   25.0850   34.7770 C   0  0  0  0  0  0  0  0  0  0  0  0
   38.4130   26.1500   34.9040 H   0  0  0  0  0  0  0  0  0  0  0  0
   36.9150   25.2340   34.8260 H   0  0  0  0  0  0  0  0  0  0  0  0
   38.5180   24.3590   35.9270 C   0  0  0  0  0  0  0  0  0  0  0  0
   37.8580   24.3980   37.1230 C   0  0  0  0  0  0  0  0  0  0  0  0
   38.3400   23.6670   38.2340 C   0  0  0  0  0  0  0  0  0  0  0  0
   39.4960   22.9370   38.0060 N   0  0  0  0  0  0  0  0  0  0  0  0
   40.1190   22.9300   36.7940 C   0  0  0  0  0  0  0  0  0  0  0  0
   39.6200   23.6440   35.7650 N   0  0  0  0  0  0  0  0  0  0  0  0
   36.9630   24.9230   37.4030 H   0  0  0  0  0  0  0  0  0  0  0  0
   37.9090   23.6240   39.2080 H   0  0  0  0  0  0  0  0  0  0  0  0
   41.0210   22.3270   36.7080 H   0  0  0  0  0  0  0  0  0  0  0  0
  1 18  1  0  0  0  0
  2  1  1  0  0  0  0
  3  4  1  0  0  0  0
  3  2  2  0  0  0  0
  4  5  1  0  0  0  0
  5  1  2  0  0  0  0
  6  2  1  0  0  0  0
  7  3  1  0  0  0  0
  8  4  1  0  0  0  0
  8 16  1  0  0  0  0
  9 11  1  0  0  0  0
  9  8  1  0  0  0  0
  9 10  1  0  0  0  0
 11 13  1  0  0  0  0
 12 11  1  0  0  0  0
 14 13  1  0  0  0  0
 14 16  1  0  0  0  0
 15 14  1  0  0  0  0
 16 17  1  0  0  0  0
 18 19  1  0  0  0  0
 18 21  1  0  0  0  0
 20 18  1  0  0  0  0
 21 23  1  0  0  0  0
 21 22  1  0  0  0  0
 21 24  1  0  0  0  0
 24 25  1  0  0  0  0
 25 30  1  0  0  0  0
 25 26  2  0  0  0  0
 26 31  1  0  0  0  0
 27 26  1  0  0  0  0
 28 27  2  0  0  0  0
 29 24  2  0  0  0  0
 29 28  1  0  0  0  0
 32 28  1  0  0  0  0
M  END
>  <minimizedAffinity>
-4.8614645

$$$$

 OpenBabel03272504013D

 32 34  0  0  0  0  0  0  0  0999 V2000
   37.5510   27.3300   33.8640 C   0  0  0  0  0  0  0  0  0  0  0  0
   36.5490   28.0750   34.4570 C   0  0  0  0  0  0  0  0  0  0  0  0
   35.9260   28.8150   33.4920 C   0  0  0  0  0  0  0  0  0  0  0  0
   36.5420   28.5200   32.3450 N   0  0  0  0  0  0  0  0  0  0  0  0
   37.4900   27.6510   32.5680 N   0  0  0  0  0  0  0  0  0  0  0  0
   36.2420   28.1250   35.4940 H   0  0  0  0  0  0  0  0  0  0  0  0
   35.1200   29.5130   33.4930 H   0  0  0  0  0  0  0  0  0  0  0  0
   36.3940   28.9390   30.9420 C   0  0  0  0  0  3  0  0  0  0  0  0
   36.4660   30.4260   30.8500 C   0  0  0  0  0  3  0  0  0  0  0  0
   37.1200   30.8230   31.6730 H   0  0  0  0  0  0  0  0  0  0  0  0
   37.0140   30.9630   29.5660 C   0  0  0  0  0  3  0  0  0  0  0  0
   37.3030   32.0180   29.7280 H   0  0  0  0  0  0  0  0  0  0  0  0
   38.1440   30.2150   29.1790 O   0  0  0  0  0  0  0  0  0  0  0  0
   37.6060   28.9640   28.7950 C   0  0  0  0  0  3  0  0  0  0  0  0
   36.7200   29.1440   28.1780 H   0  0  0  0  0  0  0  0  0  0  0  0
   37.3330   28.1950   30.0450 C   0  0  0  0  0  3  0  0  0  0  0  0
   38.2830   27.9220   30.5240 H   0  0  0  0  0  0  0  0  0  0  0  0
   38.4150   26.4290   34.6510 C   0  0  0  0  0  0  0  0  0  0  0  0
   38.8430   25.6190   33.9810 H   0  0  0  0  0  0  0  0  0  0  0  0
   39.3050   27.0040   34.9280 H   0  0  0  0  0  0  0  0  0  0  0  0
   37.6880   25.7170   35.7270 C   0  0  0  0  0  0  0  0  0  0  0  0
   37.3930   26.5120   36.4820 H   0  0  0  0  0  0  0  0  0  0  0  0
   36.6720   25.3430   35.3860 H   0  0  0  0  0  0  0  0  0  0  0  0
   38.3920   24.7050   36.4740 C   0  0  0  0  0  0  0  0  0  0  0  0
   38.0200   24.3680   37.7460 C   0  0  0  0  0  0  0  0  0  0  0  0
   38.7180   23.3620   38.4550 C   0  0  0  0  0  0  0  0  0  0  0  0
   39.7690   22.7740   37.7680 N   0  0  0  0  0  0  0  0  0  0  0  0
   40.1010   23.1450   36.5000 C   0  0  0  0  0  0  0  0  0  0  0  0
   39.4050   24.1100   35.8660 N   0  0  0  0  0  0  0  0  0  0  0  0
   37.2280   24.7540   38.3610 H   0  0  0  0  0  0  0  0  0  0  0  0
   38.5170   23.0200   39.4450 H   0  0  0  0  0  0  0  0  0  0  0  0
   40.9410   22.6280   36.0410 H   0  0  0  0  0  0  0  0  0  0  0  0
  1  2  1  0  0  0  0
  1 18  1  0  0  0  0
  2  6  1  0  0  0  0
  3  7  1  0  0  0  0
  3  2  2  0  0  0  0
  4  5  1  0  0  0  0
  4  3  1  0  0  0  0
  5  1  2  0  0  0  0
  8  4  1  0  0  0  0
  9  8  1  0  0  0  0
  9 10  1  0  0  0  0
 11 12  1  0  0  0  0
 11  9  1  0  0  0  0
 13 11  1  0  0  0  0
 14 13  1  0  0  0  0
 14 16  1  0  0  0  0
 15 14  1  0  0  0  0
 16 17  1  0  0  0  0
 16  8  1  0  0  0  0
 18 20  1  0  0  0  0
 18 21  1  0  0  0  0
 19 18  1  0  0  0  0
 21 24  1  0  0  0  0
 21 22  1  0  0  0  0
 23 21  1  0  0  0  0
 24 25  1  0  0  0  0
 25 30  1  0  0  0  0
 25 26  2  0  0  0  0
 26 31  1  0  0  0  0
 27 26  1  0  0  0  0
 28 27  2  0  0  0  0
 29 24  2  0  0  0  0
 29 28  1  0  0  0  0
 32 28  1  0  0  0  0
M  END
>  <minimizedAffinity>
-4.8086462

$$$$

 OpenBabel03272504013D

 32 34  0  0  0  0  0  0  0  0999 V2000
   36.9480   27.0950   33.5960 C   0  0  0  0  0  0  0  0  0  0  0  0
   36.3870   27.9700   32.6850 C   0  0  0  0  0  0  0  0  0  0  0  0
   36.0890   27.2810   31.5440 C   0  0  0  0  0  0  0  0  0  0  0  0
   36.4650   26.0180   31.7660 N   0  0  0  0  0  0  0  0  0  0  0  0
   36.9650   25.9160   32.9670 N   0  0  0  0  0  0  0  0  0  0  0  0
   36.1820   29.0290   32.7760 H   0  0  0  0  0  0  0  0  0  0  0  0
   35.6560   27.5450   30.6050 H   0  0  0  0  0  0  0  0  0  0  0  0
   36.4390   24.7690   30.9880 C   0  0  0  0  0  3  0  0  0  0  0  0
   37.8260   24.2410   30.8350 C   0  0  0  0  0  3  0  0  0  0  0  0
   38.4440   24.5450   31.7230 H   0  0  0  0  0  0  0  0  0  0  0  0
   37.9360   22.7540   30.7180 C   0  0  0  0  0  3  0  0  0  0  0  0
   38.9850   22.4690   30.9200 H   0  0  0  0  0  0  0  0  0  0  0  0
   37.0880   22.1370   31.6590 O   0  0  0  0  0  0  0  0  0  0  0  0
   35.7880   22.3980   31.1640 C   0  0  0  0  0  3  0  0  0  0  0  0
   35.7860   22.2110   30.0850 H   0  0  0  0  0  0  0  0  0  0  0  0
   35.4420   23.8000   31.5400 C   0  0  0  0  0  3  0  0  0  0  0  0
   35.3130   23.8670   32.6300 H   0  0  0  0  0  0  0  0  0  0  0  0
   37.3870   27.5430   34.9310 C   0  0  0  0  0  0  0  0  0  0  0  0
   37.4380   28.6760   34.9620 H   0  0  0  0  0  0  0  0  0  0  0  0
   36.5710   27.3220   35.6260 H   0  0  0  0  0  0  0  0  0  0  0  0
   38.7460   27.0710   35.2860 C   0  0  0  0  0  0  0  0  0  0  0  0
   39.3660   27.1690   34.3390 H   0  0  0  0  0  0  0  0  0  0  0  0
   39.2830   27.7880   35.9820 H   0  0  0  0  0  0  0  0  0  0  0  0
   38.9040   25.7050   35.7210 C   0  0  0  0  0  0  0  0  0  0  0  0
   39.8830   24.9010   35.2080 C   0  0  0  0  0  0  0  0  0  0  0  0
   40.0270   23.5690   35.6610 C   0  0  0  0  0  0  0  0  0  0  0  0
   39.1200   23.1710   36.6320 N   0  0  0  0  0  0  0  0  0  0  0  0
   38.1600   24.0110   37.1110 C   0  0  0  0  0  0  0  0  0  0  0  0
   38.0640   25.2740   36.6470 N   0  0  0  0  0  0  0  0  0  0  0  0
   40.6300   25.1080   34.4650 H   0  0  0  0  0  0  0  0  0  0  0  0
   40.7500   22.8560   35.3340 H   0  0  0  0  0  0  0  0  0  0  0  0
   37.4930   23.6120   37.8730 H   0  0  0  0  0  0  0  0  0  0  0  0
  1 18  1  0  0  0  0
  2  6  1  0  0  0  0
  2  1  1  0  0  0  0
  3  4  1  0  0  0  0
  3  2  2  0  0  0  0
  4  5  1  0  0  0  0
  5  1  2  0  0  0  0
  7  3  1  0  0  0  0
  8 16  1  0  0  0  0
  8  4  1  0  0  0  0
  9  8  1  0  0  0  0
  9 10  1  0  0  0  0
 11  9  1  0  0  0  0
 11 12  1  0  0  0  0
 11 13  1  0  0  0  0
 14 16  1  0  0  0  0
 14 13  1  0  0  0  0
 15 14  1  0  0  0  0
 16 17  1  0  0  0  0
 18 19  1  0  0  0  0
 18 21  1  0  0  0  0
 18 20  1  0  0  0  0
 21 24  1  0  0  0  0
 21 23  1  0  0  0  0
 22 21  1  0  0  0  0
 24 29  1  0  0  0  0
 25 26  1  0  0  0  0
 25 24  2  0  0  0  0
 26 27  2  0  0  0  0
 27 28  1  0  0  0  0
 28 32  1  0  0  0  0
 29 28  2  0  0  0  0
 30 25  1  0  0  0  0
 31 26  1  0  0  0  0
M  END
>  <minimizedAffinity>
-4.77515316

$$$$

 OpenBabel03272504013D

 32 34  0  0  0  0  0  0  0  0999 V2000
   38.0720   25.4490   36.1170 C   0  0  0  0  0  0  0  0  0  0  0  0
   38.3750   26.7890   36.2770 C   0  0  0  0  0  0  0  0  0  0  0  0
   38.2870   27.4040   35.0600 C   0  0  0  0  0  0  0  0  0  0  0  0
   37.9390   26.4530   34.1900 N   0  0  0  0  0  0  0  0  0  0  0  0
   37.8140   25.3130   34.8130 N   0  0  0  0  0  0  0  0  0  0  0  0
   38.6450   27.3370   37.1700 H   0  0  0  0  0  0  0  0  0  0  0  0
   38.4320   28.4040   34.7190 H   0  0  0  0  0  0  0  0  0  0  0  0
   37.6750   26.4080   32.7430 C   0  0  0  0  0  3  0  0  0  0  0  0
   36.9870   25.1310   32.3940 C   0  0  0  0  0  3  0  0  0  0  0  0
   36.3690   24.7860   33.2670 H   0  0  0  0  0  0  0  0  0  0  0  0
   36.0690   25.1990   31.2150 C   0  0  0  0  0  3  0  0  0  0  0  0
   35.4030   24.3170   31.2440 H   0  0  0  0  0  0  0  0  0  0  0  0
   35.2980   26.3770   31.2770 O   0  0  0  0  0  0  0  0  0  0  0  0
   36.2310   27.4060   31.0110 C   0  0  0  0  0  3  0  0  0  0  0  0
   36.8550   27.0960   30.1650 H   0  0  0  0  0  0  0  0  0  0  0  0
   36.9930   27.6530   32.2710 C   0  0  0  0  0  3  0  0  0  0  0  0
   36.3270   28.1060   33.0190 H   0  0  0  0  0  0  0  0  0  0  0  0
   38.0890   24.5100   37.2560 C   0  0  0  0  0  0  0  0  0  0  0  0
   38.9920   24.7140   37.9130 H   0  0  0  0  0  0  0  0  0  0  0  0
   37.2530   24.7850   37.9080 H   0  0  0  0  0  0  0  0  0  0  0  0
   38.2070   23.0940   36.8400 C   0  0  0  0  0  0  0  0  0  0  0  0
   37.8400   22.4790   37.7220 H   0  0  0  0  0  0  0  0  0  0  0  0
   37.4530   22.8140   36.0410 H   0  0  0  0  0  0  0  0  0  0  0  0
   39.5170   22.5820   36.5220 C   0  0  0  0  0  0  0  0  0  0  0  0
   40.4270   22.2880   37.4990 C   0  0  0  0  0  0  0  0  0  0  0  0
   41.7000   21.7740   37.1630 C   0  0  0  0  0  0  0  0  0  0  0  0
   41.9310   21.6030   35.8060 N   0  0  0  0  0  0  0  0  0  0  0  0
   40.9920   21.9120   34.8690 C   0  0  0  0  0  0  0  0  0  0  0  0
   39.7910   22.3990   35.2410 N   0  0  0  0  0  0  0  0  0  0  0  0
   40.3490   22.3780   38.5670 H   0  0  0  0  0  0  0  0  0  0  0  0
   42.4830   21.5100   37.8380 H   0  0  0  0  0  0  0  0  0  0  0  0
   41.2620   21.7450   33.8280 H   0  0  0  0  0  0  0  0  0  0  0  0
  1  2  1  0  0  0  0
  1 18  1  0  0  0  0
  2  6  1  0  0  0  0
  3  2  2  0  0  0  0
  4  5  1  0  0  0  0
  4  3  1  0  0  0  0
  5  1  2  0  0  0  0
  7  3  1  0  0  0  0
  8  4  1  0  0  0  0
  9  8  1  0  0  0  0
  9 10  1  0  0  0  0
 11 12  1  0  0  0  0
 11 13  1  0  0  0  0
 11  9  1  0  0  0  0
 14 13  1  0  0  0  0
 14 16  1  0  0  0  0
 15 14  1  0  0  0  0
 16  8  1  0  0  0  0
 16 17  1  0  0  0  0
 18 20  1  0  0  0  0
 18 19  1  0  0  0  0
 21 18  1  0  0  0  0
 21 22  1  0  0  0  0
 23 21  1  0  0  0  0
 24 21  1  0  0  0  0
 24 25  1  0  0  0  0
 25 30  1  0  0  0  0
 26 25  2  0  0  0  0
 26 31  1  0  0  0  0
 27 26  1  0  0  0  0
 28 29  1  0  0  0  0
 28 27  2  0  0  0  0
 29 24  2  0  0  0  0
 32 28  1  0  0  0  0
M  END
>  <minimizedAffinity>
-4.72114229

$$$$

 OpenBabel03272504013D

 32 34  0  0  0  0  0  0  0  0999 V2000
   36.0730   28.5440   33.9040 C   0  0  0  0  0  0  0  0  0  0  0  0
   36.4210   28.2770   32.5930 C   0  0  0  0  0  0  0  0  0  0  0  0
   37.3350   27.2620   32.5820 C   0  0  0  0  0  0  0  0  0  0  0  0
   37.5320   26.9290   33.8610 N   0  0  0  0  0  0  0  0  0  0  0  0
   36.7910   27.6810   34.6270 N   0  0  0  0  0  0  0  0  0  0  0  0
   36.0790   28.7400   31.6760 H   0  0  0  0  0  0  0  0  0  0  0  0
   37.8650   26.7440   31.8150 H   0  0  0  0  0  0  0  0  0  0  0  0
   38.3640   25.9410   34.5660 C   0  0  0  0  0  3  0  0  0  0  0  0
   38.1040   26.0170   36.0320 C   0  0  0  0  0  3  0  0  0  0  0  0
   37.0460   26.3510   36.2110 H   0  0  0  0  0  0  0  0  0  0  0  0
   38.2850   24.7350   36.7830 C   0  0  0  0  0  3  0  0  0  0  0  0
   37.7800   24.8340   37.7620 H   0  0  0  0  0  0  0  0  0  0  0  0
   37.7110   23.6720   36.0580 O   0  0  0  0  0  0  0  0  0  0  0  0
   38.5740   23.5140   34.9490 C   0  0  0  0  0  3  0  0  0  0  0  0
   39.6080   23.5550   35.3070 H   0  0  0  0  0  0  0  0  0  0  0  0
   38.2290   24.5790   33.9610 C   0  0  0  0  0  3  0  0  0  0  0  0
   37.2360   24.3770   33.5350 H   0  0  0  0  0  0  0  0  0  0  0  0
   35.1040   29.6030   34.2470 C   0  0  0  0  0  0  0  0  0  0  0  0
   34.6920   30.0730   33.3000 H   0  0  0  0  0  0  0  0  0  0  0  0
   34.2250   29.1060   34.6690 H   0  0  0  0  0  0  0  0  0  0  0  0
   35.7070   30.7160   35.0170 C   0  0  0  0  0  0  0  0  0  0  0  0
   36.4950   30.2420   35.6840 H   0  0  0  0  0  0  0  0  0  0  0  0
   36.3420   31.3960   34.3670 H   0  0  0  0  0  0  0  0  0  0  0  0
   34.8560   31.4810   35.8940 C   0  0  0  0  0  0  0  0  0  0  0  0
   35.2810   32.6480   36.4640 C   0  0  0  0  0  0  0  0  0  0  0  0
   34.4240   33.3880   37.3110 C   0  0  0  0  0  0  0  0  0  0  0  0
   33.1640   32.8420   37.5010 N   0  0  0  0  0  0  0  0  0  0  0  0
   32.7850   31.6730   36.9100 C   0  0  0  0  0  0  0  0  0  0  0  0
   33.6400   31.0050   36.1110 N   0  0  0  0  0  0  0  0  0  0  0  0
   36.2250   33.1550   36.3810 H   0  0  0  0  0  0  0  0  0  0  0  0
   34.6480   34.3050   37.8070 H   0  0  0  0  0  0  0  0  0  0  0  0
   31.7770   31.3220   37.1170 H   0  0  0  0  0  0  0  0  0  0  0  0
  1 18  1  0  0  0  0
  1  5  2  0  0  0  0
  2  1  1  0  0  0  0
  3  2  2  0  0  0  0
  3  4  1  0  0  0  0
  4  8  1  0  0  0  0
  4  5  1  0  0  0  0
  6  2  1  0  0  0  0
  7  3  1  0  0  0  0
  8  9  1  0  0  0  0
  9 10  1  0  0  0  0
  9 11  1  0  0  0  0
 11 12  1  0  0  0  0
 13 11  1  0  0  0  0
 14 15  1  0  0  0  0
 14 13  1  0  0  0  0
 16  8  1  0  0  0  0
 16 14  1  0  0  0  0
 17 16  1  0  0  0  0
 18 20  1  0  0  0  0
 18 21  1  0  0  0  0
 19 18  1  0  0  0  0
 21 22  1  0  0  0  0
 21 24  1  0  0  0  0
 23 21  1  0  0  0  0
 24 29  2  0  0  0  0
 24 25  1  0  0  0  0
 25 26  2  0  0  0  0
 26 27  1  0  0  0  0
 26 31  1  0  0  0  0
 28 32  1  0  0  0  0
 28 27  2  0  0  0  0
 29 28  1  0  0  0  0
 30 25  1  0  0  0  0
M  END
>  <minimizedAffinity>
-4.63273859

$$$$
