
 OpenBabel03272507143D

 41 45  0  0  0  0  0  0  0  0999 V2000
   35.8670   29.1050   49.8820 C   0  0  0  0  0  0  0  0  0  0  0  0
   34.8430   29.6240   50.5950 C   0  0  0  0  0  0  0  0  0  0  0  0
   33.6710   29.0680   50.0770 C   0  0  0  0  0  0  0  0  0  0  0  0
   34.0820   28.2150   49.0430 C   0  0  0  0  0  0  0  0  0  0  0  0
   35.3760   28.2880   48.9870 O   0  0  0  0  0  0  0  0  0  0  0  0
   34.8570   30.3440   51.4290 H   0  0  0  0  0  0  0  0  0  0  0  0
   32.6780   29.3160   50.4750 H   0  0  0  0  0  0  0  0  0  0  0  0
   33.5330   26.5020   47.3190 C   0  0  0  0  0  0  0  0  0  0  0  0
   33.1250   27.4450   48.2550 C   0  0  0  0  0  0  0  0  0  0  0  0
   31.7840   27.6950   48.4860 C   0  0  0  0  0  0  0  0  0  0  0  0
   30.8610   26.9840   47.7620 C   0  0  0  0  0  0  0  0  0  0  0  0
   29.5150   27.0090   47.7740 N   0  0  0  0  0  0  0  0  0  0  0  0
   29.0920   26.1180   46.8820 N   0  0  0  0  0  0  0  0  0  0  0  0
   30.1410   25.5270   46.3030 C   0  0  0  0  0  0  0  0  0  0  0  0
   31.3180   26.0510   46.8360 C   0  0  0  0  0  0  0  0  0  0  0  0
   32.6450   25.7870   46.5920 C   0  0  0  0  0  0  0  0  0  0  0  0
   34.6040   26.3760   47.2080 H   0  0  0  0  0  0  0  0  0  0  0  0
   31.3970   28.4180   49.2020 H   0  0  0  0  0  0  0  0  0  0  0  0
   28.8750   27.5990   48.3550 H   0  0  0  0  0  0  0  0  0  0  0  0
   30.1530   24.7460   45.5250 H   0  0  0  0  0  0  0  0  0  0  0  0
   32.9330   25.0610   45.8710 H   0  0  0  0  0  0  0  0  0  0  0  0
   37.2560   29.4650   50.1470 C   0  0  0  0  0  0  0  0  0  0  0  0
   37.8940   28.8270   51.0210 O   0  0  0  0  0  0  0  0  0  0  0  0
   37.8230   30.5460   49.3790 C   0  0  0  0  0  0  0  0  0  0  0  0
   38.1790   31.6950   50.0550 C   0  0  0  0  0  0  0  0  0  0  0  0
   38.7270   32.7590   49.3530 C   0  0  0  0  0  0  0  0  0  0  0  0
   38.8820   32.6010   48.0160 N   0  0  0  0  0  0  0  0  0  0  0  0
   38.5360   31.4910   47.3700 C   0  0  0  0  0  0  0  0  0  0  0  0
   38.0110   30.4770   48.0580 N   0  0  0  0  0  0  0  0  0  0  0  0
   38.0650   31.8510   51.1380 H   0  0  0  0  0  0  0  0  0  0  0  0
   39.0130   33.6580   49.8480 H   0  0  0  0  0  0  0  0  0  0  0  0
   38.7020   31.3070   45.9000 C   0  0  0  0  0  3  0  0  0  0  0  0
   37.4960   30.6660   45.2560 C   0  0  0  0  0  3  0  0  0  0  0  0
   36.6270   31.3770   45.2210 H   0  0  0  0  0  0  0  0  0  0  0  0
   37.9380   30.2480   43.8690 C   0  0  0  0  0  3  0  0  0  0  0  0
   37.0920   29.8760   43.2580 H   0  0  0  0  0  0  0  0  0  0  0  0
   38.6970   31.2030   43.2470 O   0  0  0  0  0  0  0  0  0  0  0  0
   38.5310   32.4920   43.7430 C   0  0  0  0  0  3  0  0  0  0  0  0
   39.1860   33.1550   43.1420 H   0  0  0  0  0  0  0  0  0  0  0  0
   38.9530   32.6120   45.1830 C   0  0  0  0  0  3  0  0  0  0  0  0
   38.3610   33.4490   45.6310 H   0  0  0  0  0  0  0  0  0  0  0  0
  1 22  1  0  0  0  0
  1  2  2  0  0  0  0
  2  6  1  0  0  0  0
  3  7  1  0  0  0  0
  3  2  1  0  0  0  0
  4  3  2  0  0  0  0
  5  4  1  0  0  0  0
  5  1  1  0  0  0  0
  8  9  1  0  0  0  0
  9 10  2  0  0  0  0
  9  4  1  0  0  0  0
 10 18  1  0  0  0  0
 11 12  1  0  0  0  0
 11 10  1  0  0  0  0
 12 19  1  0  0  0  0
 13 12  1  0  0  0  0
 14 15  1  0  0  0  0
 14 13  2  0  0  0  0
 15 11  2  0  0  0  0
 16 15  1  0  0  0  0
 16  8  2  0  0  0  0
 17  8  1  0  0  0  0
 20 14  1  0  0  0  0
 21 16  1  0  0  0  0
 22 23  2  0  0  0  0
 24 25  1  0  0  0  0
 24 22  1  0  0  0  0
 25 30  1  0  0  0  0
 26 31  1  0  0  0  0
 26 25  2  0  0  0  0
 27 26  1  0  0  0  0
 28 27  2  0  0  0  0
 28 29  1  0  0  0  0
 29 24  2  0  0  0  0
 32 28  1  0  0  0  0
 33 32  1  0  0  0  0
 34 33  1  0  0  0  0
 35 33  1  0  0  0  0
 36 35  1  0  0  0  0
 37 38  1  0  0  0  0
 37 35  1  0  0  0  0
 38 40  1  0  0  0  0
 39 38  1  0  0  0  0
 40 41  1  0  0  0  0
 40 32  1  0  0  0  0
M  END
>  <minimizedAffinity>
-6.87322664

>  <minimizedRMSD>
0.206771418

$$$$
