
 OpenBabel03272507533D

 33 35  0  0  0  0  0  0  0  0999 V2000
   36.5340   31.2220   48.6880 N   0  0  0  0  0  0  0  0  0  0  0  0
   36.8280   32.0440   49.6890 C   0  0  0  0  0  0  0  0  0  0  0  0
   37.8980   32.9330   49.5570 C   0  0  0  0  0  0  0  0  0  0  0  0
   38.5620   32.8660   48.3720 C   0  0  0  0  0  0  0  0  0  0  0  0
   39.5300   33.6880   48.2860 O   0  0  0  0  0  0  0  0  0  0  0  0
   38.3000   32.0610   47.3490 N   0  0  0  0  0  0  0  0  0  0  0  0
   37.2550   31.2240   47.5290 C   0  0  0  0  0  0  0  0  0  0  0  0
   36.9840   30.4390   46.5560 O   0  0  0  0  0  0  0  0  0  0  0  0
   36.2110   31.9860   50.5750 H   0  0  0  0  0  0  0  0  0  0  0  0
   38.0980   33.5710   50.3810 H   0  0  0  0  0  0  0  0  0  0  0  0
   39.0950   32.1220   46.1770 C   0  0  0  0  0  3  0  0  0  0  0  0
   40.1830   31.0860   46.0790 C   0  0  0  0  0  3  0  0  0  0  0  0
   40.8140   31.2130   46.9930 H   0  0  0  0  0  0  0  0  0  0  0  0
   41.0500   31.4120   44.8850 C   0  0  0  0  0  3  0  0  0  0  0  0
   42.0670   31.7690   45.1660 H   0  0  0  0  0  0  0  0  0  0  0  0
   40.4420   32.2690   43.9750 O   0  0  0  0  0  0  0  0  0  0  0  0
   40.1300   33.5140   44.4790 C   0  0  0  0  0  3  0  0  0  0  0  0
   39.2360   33.8780   43.8930 H   0  0  0  0  0  0  0  0  0  0  0  0
   39.7830   33.4510   45.9670 C   0  0  0  0  0  3  0  0  0  0  0  0
   40.7840   33.4050   46.4730 H   0  0  0  0  0  0  0  0  0  0  0  0
   35.2840   29.5620   49.9500 C   0  0  0  0  0  0  0  0  0  0  0  0
   35.4540   30.2810   48.7470 C   0  0  0  0  0  0  0  0  0  0  0  0
   34.5740   30.0430   47.6880 C   0  0  0  0  0  0  0  0  0  0  0  0
   33.5900   29.1210   47.8750 N   0  0  0  0  0  0  0  0  0  0  0  0
   33.4370   28.4490   49.0050 C   0  0  0  0  0  0  0  0  0  0  0  0
   34.2770   28.6660   50.0360 N   0  0  0  0  0  0  0  0  0  0  0  0
   34.7180   30.6010   46.7780 H   0  0  0  0  0  0  0  0  0  0  0  0
   32.6460   27.7210   49.1260 H   0  0  0  0  0  0  0  0  0  0  0  0
   37.3840   29.1940   51.4440 C   0  0  0  0  0  0  0  0  0  0  0  0
   38.0610   28.5030   50.6620 O   0  0  0  0  0  0  0  0  0  0  0  0
   36.1060   29.7370   51.0840 N   0  0  0  0  0  0  0  0  0  0  0  0
   37.8510   29.3350   52.3930 H   0  0  0  0  0  0  0  0  0  0  0  0
   35.7720   30.3870   51.8510 H   0  0  0  0  0  0  0  0  0  0  0  0
  1 22  1  0  0  0  0
  1  2  1  0  0  0  0
  2  9  1  0  0  0  0
  3  2  2  0  0  0  0
  3 10  1  0  0  0  0
  4  3  1  0  0  0  0
  5  4  2  0  0  0  0
  6  7  1  0  0  0  0
  6  4  1  0  0  0  0
  7  1  1  0  0  0  0
  8  7  2  0  0  0  0
 11  6  1  0  0  0  0
 12 11  1  0  0  0  0
 12 13  1  0  0  0  0
 14 15  1  0  0  0  0
 14 12  1  0  0  0  0
 16 17  1  0  0  0  0
 16 14  1  0  0  0  0
 17 19  1  0  0  0  0
 18 17  1  0  0  0  0
 19 11  1  0  0  0  0
 19 20  1  0  0  0  0
 21 26  1  0  0  0  0
 21 31  1  0  0  0  0
 22 21  2  0  0  0  0
 23 24  2  0  0  0  0
 23 22  1  0  0  0  0
 24 25  1  0  0  0  0
 25 28  1  0  0  0  0
 25 26  2  0  0  0  0
 27 23  1  0  0  0  0
 29 32  1  0  0  0  0
 30 29  2  0  0  0  0
 31 29  1  0  0  0  0
 31 33  1  0  0  0  0
M  END
>  <minimizedAffinity>
-6.32410145

>  <minimizedRMSD>
1.34771001

$$$$
