
 OpenBabel03272508033D

 29 31  0  0  0  0  0  0  0  0999 V2000
   37.3460   30.8520   45.4410 C   0  0  0  0  0  0  0  0  0  0  0  0
   37.9500   32.0650   45.6390 C   0  0  0  0  0  0  0  0  0  0  0  0
   39.1070   32.1490   44.8550 C   0  0  0  0  0  0  0  0  0  0  0  0
   39.1520   30.9500   44.2010 N   0  0  0  0  0  0  0  0  0  0  0  0
   38.1220   30.2190   44.5590 N   0  0  0  0  0  0  0  0  0  0  0  0
   37.6120   32.8750   46.3000 H   0  0  0  0  0  0  0  0  0  0  0  0
   39.8090   32.9890   44.7880 H   0  0  0  0  0  0  0  0  0  0  0  0
   40.2060   30.6060   43.2690 C   0  0  0  0  0  3  0  0  0  0  0  0
   40.1540   31.5180   42.0360 C   0  0  0  0  0  3  0  0  0  0  0  0
   39.1020   31.8230   41.8640 H   0  0  0  0  0  0  0  0  0  0  0  0
   40.5740   30.6570   40.8630 C   0  0  0  0  0  3  0  0  0  0  0  0
   40.7800   31.3270   39.9980 H   0  0  0  0  0  0  0  0  0  0  0  0
   39.5920   29.7400   40.5000 O   0  0  0  0  0  0  0  0  0  0  0  0
   38.9400   29.2720   41.6190 C   0  0  0  0  0  3  0  0  0  0  0  0
   38.4960   28.2570   41.4490 H   0  0  0  0  0  0  0  0  0  0  0  0
   39.9660   29.2040   42.7450 C   0  0  0  0  0  3  0  0  0  0  0  0
   40.8770   28.6850   42.4310 H   0  0  0  0  0  0  0  0  0  0  0  0
   36.1240   30.3480   46.0550 C   0  0  0  0  0  0  0  0  0  0  0  0
   36.0410   30.3590   47.4740 C   0  0  0  0  0  0  0  0  0  0  0  0
   34.8650   29.8750   48.0460 C   0  0  0  0  0  0  0  0  0  0  0  0
   33.8750   29.4240   47.2400 N   0  0  0  0  0  0  0  0  0  0  0  0
   33.9790   29.4260   45.8960 C   0  0  0  0  0  0  0  0  0  0  0  0
   35.1100   29.8910   45.3190 N   0  0  0  0  0  0  0  0  0  0  0  0
   36.8660   30.7310   48.0630 H   0  0  0  0  0  0  0  0  0  0  0  0
   33.1970   29.0690   45.2380 H   0  0  0  0  0  0  0  0  0  0  0  0
   34.7570   29.8760   49.5310 C   0  0  0  0  0  0  0  0  0  0  0  0
   34.3550   31.1330   49.8940 F   0  0  0  0  0  0  0  0  0  0  0  0
   33.8210   28.9630   50.0000 F   0  0  0  0  0  0  0  0  0  0  0  0
   35.9820   29.6310   50.1420 F   0  0  0  0  0  0  0  0  0  0  0  0
  1  2  1  0  0  0  0
  1 18  1  0  0  0  0
  2  6  1  0  0  0  0
  3  2  2  0  0  0  0
  4  5  1  0  0  0  0
  4  3  1  0  0  0  0
  5  1  2  0  0  0  0
  7  3  1  0  0  0  0
  8  4  1  0  0  0  0
  9  8  1  0  0  0  0
 10  9  1  0  0  0  0
 11  9  1  0  0  0  0
 12 11  1  0  0  0  0
 13 11  1  0  0  0  0
 13 14  1  0  0  0  0
 14 16  1  0  0  0  0
 15 14  1  0  0  0  0
 16  8  1  0  0  0  0
 17 16  1  0  0  0  0
 18 19  1  0  0  0  0
 19 20  2  0  0  0  0
 19 24  1  0  0  0  0
 20 26  1  0  0  0  0
 21 20  1  0  0  0  0
 22 21  2  0  0  0  0
 23 22  1  0  0  0  0
 23 18  2  0  0  0  0
 25 22  1  0  0  0  0
 26 27  1  0  0  0  0
 26 28  1  0  0  0  0
 26 29  1  0  0  0  0
M  END
>  <minimizedAffinity>
-4.83392811

>  <minimizedRMSD>
2.24718523

$$$$
