
 OpenBabel03272508253D

 26 28  0  0  1  0  0  0  0  0999 V2000
   37.3750   26.3100   35.3070 C   0  0  1  0  0  0  0  0  0  0  0  0
   38.6330   25.5610   35.4040 C   0  0  1  0  0  0  0  0  0  0  0  0
   38.4610   26.7690   36.2400 C   0  0  0  0  0  0  0  0  0  0  0  0
   36.4170   26.0150   35.8060 H   0  0  0  0  0  0  0  0  0  0  0  0
   39.3670   25.6370   34.5770 H   0  0  0  0  0  0  0  0  0  0  0  0
   38.2150   26.7040   37.3160 H   0  0  0  0  0  0  0  0  0  0  0  0
   39.0830   27.6500   36.0110 H   0  0  0  0  0  0  0  0  0  0  0  0
   38.4450   24.1560   35.8950 C   0  0  0  0  0  3  0  0  0  0  0  0
   39.8440   23.6180   36.1290 C   0  0  0  0  0  3  0  0  0  0  0  0
   40.2760   23.1890   35.2040 H   0  0  0  0  0  0  0  0  0  0  0  0
   39.8800   22.6780   37.3100 C   0  0  0  0  0  3  0  0  0  0  0  0
   39.3590   21.7330   37.1580 H   0  0  0  0  0  0  0  0  0  0  0  0
   39.4430   23.4270   38.3910 O   0  0  0  0  0  0  0  0  0  0  0  0
   38.0850   23.6830   38.3660 C   0  0  0  0  0  3  0  0  0  0  0  0
   37.9080   24.5010   39.0990 H   0  0  0  0  0  0  0  0  0  0  0  0
   37.5170   23.9940   37.0370 C   0  0  0  0  0  3  0  0  0  0  0  0
   36.7080   23.2390   36.8350 H   0  0  0  0  0  0  0  0  0  0  0  0
   37.1100   27.2270   34.1520 C   0  0  0  0  0  0  0  0  0  0  0  0
   37.8590   27.0050   32.9840 C   0  0  0  0  0  0  0  0  0  0  0  0
   37.6190   27.8870   31.9210 C   0  0  0  0  0  0  0  0  0  0  0  0
   36.6950   28.8840   32.0820 N   0  0  0  0  0  0  0  0  0  0  0  0
   35.9960   29.0600   33.2300 C   0  0  0  0  0  0  0  0  0  0  0  0
   36.2060   28.2200   34.2770 N   0  0  0  0  0  0  0  0  0  0  0  0
   38.5680   26.1910   32.9470 H   0  0  0  0  0  0  0  0  0  0  0  0
   38.1700   27.7520   31.0080 H   0  0  0  0  0  0  0  0  0  0  0  0
   35.2890   29.8760   33.2580 H   0  0  0  0  0  0  0  0  0  0  0  0
  1  2  1  0  0  0  0
  1  4  1  1  0  0  0
  1  3  1  0  0  0  0
  2  5  1  6  0  0  0
  2  8  1  0  0  0  0
  2  3  1  0  0  0  0
  3  6  1  0  0  0  0
  7  3  1  0  0  0  0
  8  9  1  0  0  0  0
  8 16  1  0  0  0  0
  9 11  1  0  0  0  0
 10  9  1  0  0  0  0
 11 13  1  0  0  0  0
 12 11  1  0  0  0  0
 14 13  1  0  0  0  0
 14 15  1  0  0  0  0
 16 14  1  0  0  0  0
 17 16  1  0  0  0  0
 18 23  1  0  0  0  0
 18  1  1  0  0  0  0
 19 18  2  0  0  0  0
 20 21  2  0  0  0  0
 20 19  1  0  0  0  0
 21 22  1  0  0  0  0
 22 26  1  0  0  0  0
 22 23  2  0  0  0  0
 24 19  1  0  0  0  0
 25 20  1  0  0  0  0
M  END
>  <minimizedAffinity>
-4.61068726

$$$$

 OpenBabel03272508253D

 26 28  0  0  1  0  0  0  0  0999 V2000
   37.5930   25.9950   35.3720 C   0  0  1  0  0  0  0  0  0  0  0  0
   38.6890   25.0450   35.1530 C   0  0  1  0  0  0  0  0  0  0  0  0
   38.9970   26.3500   35.7760 C   0  0  0  0  0  0  0  0  0  0  0  0
   36.8590   25.9380   36.2160 H   0  0  0  0  0  0  0  0  0  0  0  0
   39.0670   24.8910   34.1230 H   0  0  0  0  0  0  0  0  0  0  0  0
   39.1610   26.4540   36.8650 H   0  0  0  0  0  0  0  0  0  0  0  0
   39.5970   27.0710   35.1980 H   0  0  0  0  0  0  0  0  0  0  0  0
   38.5170   23.7620   35.9120 C   0  0  0  0  0  3  0  0  0  0  0  0
   39.9170   23.3410   36.3200 C   0  0  0  0  0  3  0  0  0  0  0  0
   40.4120   22.7510   35.5250 H   0  0  0  0  0  0  0  0  0  0  0  0
   39.9140   22.6630   37.6690 C   0  0  0  0  0  3  0  0  0  0  0  0
   39.4320   21.6870   37.6890 H   0  0  0  0  0  0  0  0  0  0  0  0
   39.3950   23.5970   38.5510 O   0  0  0  0  0  0  0  0  0  0  0  0
   38.0330   23.7870   38.4070 C   0  0  0  0  0  3  0  0  0  0  0  0
   37.7900   24.7290   38.9470 H   0  0  0  0  0  0  0  0  0  0  0  0
   37.5320   23.7980   37.0160 C   0  0  0  0  0  3  0  0  0  0  0  0
   36.7580   22.9840   36.9350 H   0  0  0  0  0  0  0  0  0  0  0  0
   37.0390   26.8080   34.2420 C   0  0  0  0  0  0  0  0  0  0  0  0
   36.5330   28.0780   34.5670 C   0  0  0  0  0  0  0  0  0  0  0  0
   35.9930   28.8160   33.5050 C   0  0  0  0  0  0  0  0  0  0  0  0
   35.9900   28.2690   32.2500 N   0  0  0  0  0  0  0  0  0  0  0  0
   36.4900   27.0380   31.9850 C   0  0  0  0  0  0  0  0  0  0  0  0
   37.0210   26.2990   32.9940 N   0  0  0  0  0  0  0  0  0  0  0  0
   36.5770   28.4290   35.5880 H   0  0  0  0  0  0  0  0  0  0  0  0
   35.5960   29.7940   33.7090 H   0  0  0  0  0  0  0  0  0  0  0  0
   36.4420   26.6950   30.9610 H   0  0  0  0  0  0  0  0  0  0  0  0
  1  3  1  0  0  0  0
  1  4  1  1  0  0  0
  2  5  1  6  0  0  0
  2  1  1  0  0  0  0
  2  3  1  0  0  0  0
  2  8  1  0  0  0  0
  3  6  1  0  0  0  0
  7  3  1  0  0  0  0
  8  9  1  0  0  0  0
  8 16  1  0  0  0  0
  9 11  1  0  0  0  0
 10  9  1  0  0  0  0
 11 12  1  0  0  0  0
 11 13  1  0  0  0  0
 14 13  1  0  0  0  0
 14 15  1  0  0  0  0
 16 14  1  0  0  0  0
 17 16  1  0  0  0  0
 18 19  1  0  0  0  0
 18  1  1  0  0  0  0
 19 24  1  0  0  0  0
 20 25  1  0  0  0  0
 20 19  2  0  0  0  0
 21 20  1  0  0  0  0
 22 21  2  0  0  0  0
 22 23  1  0  0  0  0
 23 18  2  0  0  0  0
 26 22  1  0  0  0  0
M  END
>  <minimizedAffinity>
-4.47424078

$$$$

 OpenBabel03272508253D

 26 28  0  0  1  0  0  0  0  0999 V2000
   37.6910   26.3970   35.2640 C   0  0  1  0  0  0  0  0  0  0  0  0
   39.0110   25.7610   35.1940 C   0  0  1  0  0  0  0  0  0  0  0  0
   38.9250   27.1670   35.6440 C   0  0  0  0  0  0  0  0  0  0  0  0
   36.9540   26.2470   36.0940 H   0  0  0  0  0  0  0  0  0  0  0  0
   39.4720   25.5910   34.2010 H   0  0  0  0  0  0  0  0  0  0  0  0
   38.9960   27.4440   36.7120 H   0  0  0  0  0  0  0  0  0  0  0  0
   39.3420   27.9470   34.9860 H   0  0  0  0  0  0  0  0  0  0  0  0
   39.1470   24.5830   36.1130 C   0  0  0  0  0  3  0  0  0  0  0  0
   37.8090   24.4630   36.8200 C   0  0  0  0  0  3  0  0  0  0  0  0
   37.7650   25.1040   37.7210 H   0  0  0  0  0  0  0  0  0  0  0  0
   37.4540   23.0200   37.0810 C   0  0  0  0  0  3  0  0  0  0  0  0
   38.0800   22.5220   37.8210 H   0  0  0  0  0  0  0  0  0  0  0  0
   37.4190   22.4160   35.8340 O   0  0  0  0  0  0  0  0  0  0  0  0
   38.6720   22.2290   35.2820 C   0  0  0  0  0  3  0  0  0  0  0  0
   38.5090   22.0100   34.2030 H   0  0  0  0  0  0  0  0  0  0  0  0
   39.6330   23.3330   35.4870 C   0  0  0  0  0  3  0  0  0  0  0  0
   40.5280   22.9030   36.0160 H   0  0  0  0  0  0  0  0  0  0  0  0
   37.0020   26.8840   34.0260 C   0  0  0  0  0  0  0  0  0  0  0  0
   37.0090   26.0210   32.9180 C   0  0  0  0  0  0  0  0  0  0  0  0
   36.3850   26.5010   31.7590 C   0  0  0  0  0  0  0  0  0  0  0  0
   35.8210   27.7480   31.7760 N   0  0  0  0  0  0  0  0  0  0  0  0
   35.8390   28.5460   32.8710 C   0  0  0  0  0  0  0  0  0  0  0  0
   36.4370   28.1080   34.0100 N   0  0  0  0  0  0  0  0  0  0  0  0
   37.4790   25.0510   32.9950 H   0  0  0  0  0  0  0  0  0  0  0  0
   36.3670   25.8710   30.8870 H   0  0  0  0  0  0  0  0  0  0  0  0
   35.3670   29.5150   32.7850 H   0  0  0  0  0  0  0  0  0  0  0  0
  1  3  1  0  0  0  0
  1  4  1  1  0  0  0
  2  5  1  6  0  0  0
  2  1  1  0  0  0  0
  2  3  1  0  0  0  0
  2  8  1  0  0  0  0
  3  6  1  0  0  0  0
  7  3  1  0  0  0  0
  8  9  1  0  0  0  0
  9 11  1  0  0  0  0
  9 10  1  0  0  0  0
 11 12  1  0  0  0  0
 13 11  1  0  0  0  0
 14 16  1  0  0  0  0
 14 13  1  0  0  0  0
 15 14  1  0  0  0  0
 16 17  1  0  0  0  0
 16  8  1  0  0  0  0
 18  1  1  0  0  0  0
 19 24  1  0  0  0  0
 19 18  2  0  0  0  0
 20 21  2  0  0  0  0
 20 19  1  0  0  0  0
 21 22  1  0  0  0  0
 22 23  2  0  0  0  0
 23 18  1  0  0  0  0
 25 20  1  0  0  0  0
 26 22  1  0  0  0  0
M  END
>  <minimizedAffinity>
-4.38902187

$$$$

 OpenBabel03272508253D

 26 28  0  0  1  0  0  0  0  0999 V2000
   38.6420   25.3890   34.9800 C   0  0  1  0  0  0  0  0  0  0  0  0
   37.7160   26.5240   34.9120 C   0  0  1  0  0  0  0  0  0  0  0  0
   39.1600   26.7970   35.0760 C   0  0  0  0  0  0  0  0  0  0  0  0
   39.0090   24.8110   34.0940 H   0  0  0  0  0  0  0  0  0  0  0  0
   37.0720   26.7430   35.7870 H   0  0  0  0  0  0  0  0  0  0  0  0
   39.7920   27.1250   34.2300 H   0  0  0  0  0  0  0  0  0  0  0  0
   39.5000   27.2210   36.0350 H   0  0  0  0  0  0  0  0  0  0  0  0
   36.9800   26.6050   33.6070 C   0  0  0  0  0  3  0  0  0  0  0  0
   36.6780   28.0780   33.4030 C   0  0  0  0  0  3  0  0  0  0  0  0
   35.7340   28.3740   33.9010 H   0  0  0  0  0  0  0  0  0  0  0  0
   36.7370   28.4530   31.9420 C   0  0  0  0  0  3  0  0  0  0  0  0
   35.9410   28.0320   31.3290 H   0  0  0  0  0  0  0  0  0  0  0  0
   38.0250   28.1430   31.5330 O   0  0  0  0  0  0  0  0  0  0  0  0
   38.2480   26.7850   31.4130 C   0  0  0  0  0  3  0  0  0  0  0  0
   39.3520   26.6530   31.3610 H   0  0  0  0  0  0  0  0  0  0  0  0
   37.6350   25.9400   32.4590 C   0  0  0  0  0  3  0  0  0  0  0  0
   36.9590   25.2050   31.9390 H   0  0  0  0  0  0  0  0  0  0  0  0
   38.7830   24.5800   36.2340 C   0  0  0  0  0  0  0  0  0  0  0  0
   39.7780   23.5880   36.2370 C   0  0  0  0  0  0  0  0  0  0  0  0
   39.8790   22.8220   37.4060 C   0  0  0  0  0  0  0  0  0  0  0  0
   39.0260   23.0790   38.4450 N   0  0  0  0  0  0  0  0  0  0  0  0
   38.0800   24.0490   38.3950 C   0  0  0  0  0  0  0  0  0  0  0  0
   37.9580   24.8080   37.2750 N   0  0  0  0  0  0  0  0  0  0  0  0
   40.4080   23.4560   35.3700 H   0  0  0  0  0  0  0  0  0  0  0  0
   40.6280   22.0520   37.4520 H   0  0  0  0  0  0  0  0  0  0  0  0
   37.4540   24.1740   39.2670 H   0  0  0  0  0  0  0  0  0  0  0  0
  1  4  1  6  0  0  0
  1  3  1  0  0  0  0
  1 18  1  0  0  0  0
  2  1  1  0  0  0  0
  2  3  1  0  0  0  0
  2  5  1  1  0  0  0
  3  7  1  0  0  0  0
  6  3  1  0  0  0  0
  8  2  1  0  0  0  0
  9  8  1  0  0  0  0
  9 10  1  0  0  0  0
 11  9  1  0  0  0  0
 12 11  1  0  0  0  0
 13 11  1  0  0  0  0
 14 13  1  0  0  0  0
 14 16  1  0  0  0  0
 15 14  1  0  0  0  0
 16  8  1  0  0  0  0
 17 16  1  0  0  0  0
 18 19  2  0  0  0  0
 18 23  1  0  0  0  0
 19 20  1  0  0  0  0
 20 25  1  0  0  0  0
 20 21  2  0  0  0  0
 22 21  1  0  0  0  0
 22 26  1  0  0  0  0
 23 22  2  0  0  0  0
 24 19  1  0  0  0  0
M  END
>  <minimizedAffinity>
-4.34071875

$$$$

 OpenBabel03272508253D

 26 28  0  0  1  0  0  0  0  0999 V2000
   38.5540   26.3750   34.4610 C   0  0  1  0  0  0  0  0  0  0  0  0
   38.6640   26.1190   35.9010 C   0  0  1  0  0  0  0  0  0  0  0  0
   38.0710   27.3970   35.4510 C   0  0  0  0  0  0  0  0  0  0  0  0
   37.7590   25.9490   33.7960 H   0  0  0  0  0  0  0  0  0  0  0  0
   39.6610   26.1830   36.3810 H   0  0  0  0  0  0  0  0  0  0  0  0
   36.9790   27.5680   35.4570 H   0  0  0  0  0  0  0  0  0  0  0  0
   38.6350   28.3250   35.6430 H   0  0  0  0  0  0  0  0  0  0  0  0
   37.8710   24.9280   36.3500 C   0  0  0  0  0  3  0  0  0  0  0  0
   38.1720   23.8360   35.3390 C   0  0  0  0  0  3  0  0  0  0  0  0
   37.5000   23.8960   34.4620 H   0  0  0  0  0  0  0  0  0  0  0  0
   38.1990   22.4760   35.9940 C   0  0  0  0  0  3  0  0  0  0  0  0
   37.2320   22.1180   36.3450 H   0  0  0  0  0  0  0  0  0  0  0  0
   39.1880   22.5500   36.9620 O   0  0  0  0  0  0  0  0  0  0  0  0
   38.8220   23.3060   38.0590 C   0  0  0  0  0  3  0  0  0  0  0  0
   39.7610   23.5250   38.6150 H   0  0  0  0  0  0  0  0  0  0  0  0
   38.0510   24.5330   37.7640 C   0  0  0  0  0  3  0  0  0  0  0  0
   37.0760   24.4560   38.3220 H   0  0  0  0  0  0  0  0  0  0  0  0
   39.7470   26.7930   33.6570 C   0  0  0  0  0  0  0  0  0  0  0  0
   40.9800   26.8320   34.3300 C   0  0  0  0  0  0  0  0  0  0  0  0
   42.0820   27.2500   33.5730 C   0  0  0  0  0  0  0  0  0  0  0  0
   41.8960   27.5870   32.2590 N   0  0  0  0  0  0  0  0  0  0  0  0
   40.6860   27.5330   31.6520 C   0  0  0  0  0  0  0  0  0  0  0  0
   39.5990   27.1310   32.3610 N   0  0  0  0  0  0  0  0  0  0  0  0
   41.0330   26.5480   35.3710 H   0  0  0  0  0  0  0  0  0  0  0  0
   43.0460   27.2940   34.0490 H   0  0  0  0  0  0  0  0  0  0  0  0
   40.6410   27.8200   30.6110 H   0  0  0  0  0  0  0  0  0  0  0  0
  1  4  1  6  0  0  0
  1  3  1  0  0  0  0
  1  2  1  0  0  0  0
  2  8  1  0  0  0  0
  2  5  1  1  0  0  0
  3  6  1  0  0  0  0
  3  7  1  0  0  0  0
  3  2  1  0  0  0  0
  8 16  1  0  0  0  0
  9 11  1  0  0  0  0
  9  8  1  0  0  0  0
 10  9  1  0  0  0  0
 11 12  1  0  0  0  0
 11 13  1  0  0  0  0
 13 14  1  0  0  0  0
 14 15  1  0  0  0  0
 16 14  1  0  0  0  0
 16 17  1  0  0  0  0
 18 19  1  0  0  0  0
 18  1  1  0  0  0  0
 19 24  1  0  0  0  0
 20 25  1  0  0  0  0
 20 19  2  0  0  0  0
 21 20  1  0  0  0  0
 22 21  2  0  0  0  0
 22 23  1  0  0  0  0
 23 18  2  0  0  0  0
 26 22  1  0  0  0  0
M  END
>  <minimizedAffinity>
-4.31843853

$$$$

 OpenBabel03272508253D

 26 28  0  0  1  0  0  0  0  0999 V2000
   39.3580   25.4110   34.6710 C   0  0  1  0  0  0  0  0  0  0  0  0
   38.9880   26.8300   34.6570 C   0  0  1  0  0  0  0  0  0  0  0  0
   40.4170   26.4720   34.7830 C   0  0  0  0  0  0  0  0  0  0  0  0
   39.4330   24.7630   33.7600 H   0  0  0  0  0  0  0  0  0  0  0  0
   38.5110   27.2680   35.5570 H   0  0  0  0  0  0  0  0  0  0  0  0
   41.1120   26.5350   33.9250 H   0  0  0  0  0  0  0  0  0  0  0  0
   40.9210   26.6830   35.7400 H   0  0  0  0  0  0  0  0  0  0  0  0
   38.3290   27.2550   33.3780 C   0  0  0  0  0  3  0  0  0  0  0  0
   39.2760   26.8270   32.2720 C   0  0  0  0  0  3  0  0  0  0  0  0
   40.0480   27.5950   32.0760 H   0  0  0  0  0  0  0  0  0  0  0  0
   38.5190   26.3960   31.0390 C   0  0  0  0  0  3  0  0  0  0  0  0
   38.0020   27.2000   30.5160 H   0  0  0  0  0  0  0  0  0  0  0  0
   37.7150   25.3440   31.4470 O   0  0  0  0  0  0  0  0  0  0  0  0
   36.6440   25.7430   32.2240 C   0  0  0  0  0  3  0  0  0  0  0  0
   36.2510   24.8230   32.7120 H   0  0  0  0  0  0  0  0  0  0  0  0
   36.9270   26.8150   33.2020 C   0  0  0  0  0  3  0  0  0  0  0  0
   36.2290   27.6680   32.9730 H   0  0  0  0  0  0  0  0  0  0  0  0
   39.1720   24.5760   35.9010 C   0  0  0  0  0  0  0  0  0  0  0  0
   38.0990   24.9190   36.7410 C   0  0  0  0  0  0  0  0  0  0  0  0
   37.9530   24.1460   37.9010 C   0  0  0  0  0  0  0  0  0  0  0  0
   38.8420   23.1320   38.1390 N   0  0  0  0  0  0  0  0  0  0  0  0
   39.8630   22.8380   37.2980 C   0  0  0  0  0  0  0  0  0  0  0  0
   40.0290   23.5700   36.1650 N   0  0  0  0  0  0  0  0  0  0  0  0
   37.4460   25.7370   36.4720 H   0  0  0  0  0  0  0  0  0  0  0  0
   37.1450   24.3740   38.5720 H   0  0  0  0  0  0  0  0  0  0  0  0
   40.5110   22.0190   37.5740 H   0  0  0  0  0  0  0  0  0  0  0  0
  1  4  1  6  0  0  0
  1  3  1  0  0  0  0
  1 18  1  0  0  0  0
  2  1  1  0  0  0  0
  2  3  1  0  0  0  0
  2  5  1  1  0  0  0
  3  7  1  0  0  0  0
  6  3  1  0  0  0  0
  8  2  1  0  0  0  0
  9  8  1  0  0  0  0
 10  9  1  0  0  0  0
 11 13  1  0  0  0  0
 11  9  1  0  0  0  0
 12 11  1  0  0  0  0
 13 14  1  0  0  0  0
 14 15  1  0  0  0  0
 14 16  1  0  0  0  0
 16  8  1  0  0  0  0
 17 16  1  0  0  0  0
 18 23  2  0  0  0  0
 18 19  1  0  0  0  0
 19 20  2  0  0  0  0
 20 21  1  0  0  0  0
 20 25  1  0  0  0  0
 22 26  1  0  0  0  0
 22 21  2  0  0  0  0
 23 22  1  0  0  0  0
 24 19  1  0  0  0  0
M  END
>  <minimizedAffinity>
-4.28942013

$$$$

 OpenBabel03272508253D

 26 28  0  0  1  0  0  0  0  0999 V2000
   39.3740   25.2670   34.7980 C   0  0  1  0  0  0  0  0  0  0  0  0
   38.4060   26.1720   35.4270 C   0  0  1  0  0  0  0  0  0  0  0  0
   39.7500   26.6920   35.0940 C   0  0  0  0  0  0  0  0  0  0  0  0
   39.3790   24.9930   33.7120 H   0  0  0  0  0  0  0  0  0  0  0  0
   38.1800   26.0490   36.5050 H   0  0  0  0  0  0  0  0  0  0  0  0
   39.9270   27.3260   34.2060 H   0  0  0  0  0  0  0  0  0  0  0  0
   40.4260   26.9480   35.9260 H   0  0  0  0  0  0  0  0  0  0  0  0
   37.1800   26.3940   34.5920 C   0  0  0  0  0  3  0  0  0  0  0  0
   36.9050   27.8850   34.6640 C   0  0  0  0  0  3  0  0  0  0  0  0
   36.2940   28.1450   35.5500 H   0  0  0  0  0  0  0  0  0  0  0  0
   36.3420   28.4020   33.3620 C   0  0  0  0  0  3  0  0  0  0  0  0
   35.3340   28.0570   33.1310 H   0  0  0  0  0  0  0  0  0  0  0  0
   37.3000   28.1140   32.4040 O   0  0  0  0  0  0  0  0  0  0  0  0
   37.3680   26.7700   32.0860 C   0  0  0  0  0  3  0  0  0  0  0  0
   38.3280   26.6260   31.5430 H   0  0  0  0  0  0  0  0  0  0  0  0
   37.2260   25.8350   33.2230 C   0  0  0  0  0  3  0  0  0  0  0  0
   36.3490   25.1670   32.9960 H   0  0  0  0  0  0  0  0  0  0  0  0
   40.1100   24.2410   35.6060 C   0  0  0  0  0  0  0  0  0  0  0  0
   39.3710   23.5610   36.5880 C   0  0  0  0  0  0  0  0  0  0  0  0
   40.0790   22.6240   37.3530 C   0  0  0  0  0  0  0  0  0  0  0  0
   41.4120   22.4350   37.1040 N   0  0  0  0  0  0  0  0  0  0  0  0
   42.0840   23.1160   36.1440 C   0  0  0  0  0  0  0  0  0  0  0  0
   41.4240   24.0300   35.3860 N   0  0  0  0  0  0  0  0  0  0  0  0
   38.3200   23.7750   36.7140 H   0  0  0  0  0  0  0  0  0  0  0  0
   39.5520   22.0800   38.1160 H   0  0  0  0  0  0  0  0  0  0  0  0
   43.1350   22.8960   36.0250 H   0  0  0  0  0  0  0  0  0  0  0  0
  1  4  1  6  0  0  0
  1  3  1  0  0  0  0
  1  2  1  0  0  0  0
  1 18  1  0  0  0  0
  2  5  1  1  0  0  0
  3  2  1  0  0  0  0
  3  7  1  0  0  0  0
  6  3  1  0  0  0  0
  8  9  1  0  0  0  0
  8  2  1  0  0  0  0
  9 10  1  0  0  0  0
 11  9  1  0  0  0  0
 12 11  1  0  0  0  0
 13 11  1  0  0  0  0
 14 13  1  0  0  0  0
 14 16  1  0  0  0  0
 15 14  1  0  0  0  0
 16  8  1  0  0  0  0
 17 16  1  0  0  0  0
 18 19  1  0  0  0  0
 19 24  1  0  0  0  0
 19 20  2  0  0  0  0
 20 25  1  0  0  0  0
 21 20  1  0  0  0  0
 22 21  2  0  0  0  0
 23 18  2  0  0  0  0
 23 22  1  0  0  0  0
 26 22  1  0  0  0  0
M  END
>  <minimizedAffinity>
-4.11768198

$$$$

 OpenBabel03272508253D

 26 28  0  0  1  0  0  0  0  0999 V2000
   35.1550   31.9790   34.9320 C   0  0  1  0  0  0  0  0  0  0  0  0
   35.4000   31.7630   36.3620 C   0  0  1  0  0  0  0  0  0  0  0  0
   36.3290   32.6320   35.6070 C   0  0  0  0  0  0  0  0  0  0  0  0
   34.3950   32.6890   34.5150 H   0  0  0  0  0  0  0  0  0  0  0  0
   35.8020   30.7850   36.6940 H   0  0  0  0  0  0  0  0  0  0  0  0
   36.2810   33.7340   35.6730 H   0  0  0  0  0  0  0  0  0  0  0  0
   37.3580   32.2710   35.4460 H   0  0  0  0  0  0  0  0  0  0  0  0
   34.2870   32.2660   37.2330 C   0  0  0  0  0  3  0  0  0  0  0  0
   34.0330   33.6930   36.7830 C   0  0  0  0  0  3  0  0  0  0  0  0
   34.7010   34.4090   37.3000 H   0  0  0  0  0  0  0  0  0  0  0  0
   32.5690   34.0470   36.8810 C   0  0  0  0  0  3  0  0  0  0  0  0
   32.1830   34.1200   37.8970 H   0  0  0  0  0  0  0  0  0  0  0  0
   31.9140   33.1390   36.0640 O   0  0  0  0  0  0  0  0  0  0  0  0
   31.8600   31.8650   36.5970 C   0  0  0  0  0  3  0  0  0  0  0  0
   31.5780   31.1880   35.7600 H   0  0  0  0  0  0  0  0  0  0  0  0
   33.0820   31.4090   37.2930 C   0  0  0  0  0  3  0  0  0  0  0  0
   32.7870   31.1480   38.3470 H   0  0  0  0  0  0  0  0  0  0  0  0
   35.5120   30.9330   33.9200 C   0  0  0  0  0  0  0  0  0  0  0  0
   35.5810   29.6080   34.3800 C   0  0  0  0  0  0  0  0  0  0  0  0
   35.9430   28.6440   33.4290 C   0  0  0  0  0  0  0  0  0  0  0  0
   36.2000   29.0430   32.1450 N   0  0  0  0  0  0  0  0  0  0  0  0
   36.1200   30.3360   31.7470 C   0  0  0  0  0  0  0  0  0  0  0  0
   35.7720   31.2920   32.6470 N   0  0  0  0  0  0  0  0  0  0  0  0
   35.3610   29.3850   35.4140 H   0  0  0  0  0  0  0  0  0  0  0  0
   36.0070   27.6160   33.7380 H   0  0  0  0  0  0  0  0  0  0  0  0
   36.3420   30.5500   30.7110 H   0  0  0  0  0  0  0  0  0  0  0  0
  1  4  1  6  0  0  0
  1  3  1  0  0  0  0
  1  2  1  0  0  0  0
  2  5  1  1  0  0  0
  2  8  1  0  0  0  0
  3  6  1  0  0  0  0
  3  2  1  0  0  0  0
  7  3  1  0  0  0  0
  8 16  1  0  0  0  0
  9 11  1  0  0  0  0
  9  8  1  0  0  0  0
  9 10  1  0  0  0  0
 11 12  1  0  0  0  0
 13 14  1  0  0  0  0
 13 11  1  0  0  0  0
 14 16  1  0  0  0  0
 15 14  1  0  0  0  0
 16 17  1  0  0  0  0
 18 19  1  0  0  0  0
 18  1  1  0  0  0  0
 19 24  1  0  0  0  0
 20 25  1  0  0  0  0
 20 19  2  0  0  0  0
 21 20  1  0  0  0  0
 22 21  2  0  0  0  0
 22 23  1  0  0  0  0
 23 18  2  0  0  0  0
 26 22  1  0  0  0  0
M  END
>  <minimizedAffinity>
-4.04589224

$$$$

 OpenBabel03272508253D

 26 28  0  0  1  0  0  0  0  0999 V2000
   36.2620   23.3820   31.9550 C   0  0  1  0  0  0  0  0  0  0  0  0
   36.9230   24.2710   30.9950 C   0  0  1  0  0  0  0  0  0  0  0  0
   35.4490   24.3160   31.1030 C   0  0  0  0  0  0  0  0  0  0  0  0
   36.1960   23.5690   33.0570 H   0  0  0  0  0  0  0  0  0  0  0  0
   37.3330   23.8400   30.0600 H   0  0  0  0  0  0  0  0  0  0  0  0
   34.9280   25.1210   31.6540 H   0  0  0  0  0  0  0  0  0  0  0  0
   34.8560   23.9490   30.2500 H   0  0  0  0  0  0  0  0  0  0  0  0
   37.8520   25.2530   31.6450 C   0  0  0  0  0  3  0  0  0  0  0  0
   37.5760   26.5830   30.9670 C   0  0  0  0  0  3  0  0  0  0  0  0
   38.1720   26.7010   30.0420 H   0  0  0  0  0  0  0  0  0  0  0  0
   37.7210   27.7320   31.9350 C   0  0  0  0  0  3  0  0  0  0  0  0
   38.7400   27.9220   32.2690 H   0  0  0  0  0  0  0  0  0  0  0  0
   36.8050   27.4840   32.9440 O   0  0  0  0  0  0  0  0  0  0  0  0
   37.1810   26.4520   33.7830 C   0  0  0  0  0  3  0  0  0  0  0  0
   36.2710   26.1650   34.3540 H   0  0  0  0  0  0  0  0  0  0  0  0
   37.8140   25.2900   33.1240 C   0  0  0  0  0  3  0  0  0  0  0  0
   38.8310   25.1560   33.5880 H   0  0  0  0  0  0  0  0  0  0  0  0
   36.0680   21.9270   31.6530 C   0  0  0  0  0  0  0  0  0  0  0  0
   35.0320   21.2720   32.3400 C   0  0  0  0  0  0  0  0  0  0  0  0
   34.8800   19.9050   32.0690 C   0  0  0  0  0  0  0  0  0  0  0  0
   35.7280   19.3080   31.1750 N   0  0  0  0  0  0  0  0  0  0  0  0
   36.7150   19.9820   30.5360 C   0  0  0  0  0  0  0  0  0  0  0  0
   36.8860   21.3070   30.7790 N   0  0  0  0  0  0  0  0  0  0  0  0
   34.4100   21.8250   33.0290 H   0  0  0  0  0  0  0  0  0  0  0  0
   34.0980   19.3650   32.5720 H   0  0  0  0  0  0  0  0  0  0  0  0
   37.3320   19.4210   29.8490 H   0  0  0  0  0  0  0  0  0  0  0  0
  1  4  1  1  0  0  0
  2  5  1  6  0  0  0
  2  3  1  0  0  0  0
  2  8  1  0  0  0  0
  2  1  1  0  0  0  0
  3  6  1  0  0  0  0
  3  1  1  0  0  0  0
  7  3  1  0  0  0  0
  8 16  1  0  0  0  0
  9  8  1  0  0  0  0
  9 11  1  0  0  0  0
 10  9  1  0  0  0  0
 11 12  1  0  0  0  0
 11 13  1  0  0  0  0
 13 14  1  0  0  0  0
 14 15  1  0  0  0  0
 16 17  1  0  0  0  0
 16 14  1  0  0  0  0
 18  1  1  0  0  0  0
 18 19  1  0  0  0  0
 19 24  1  0  0  0  0
 20 19  2  0  0  0  0
 20 25  1  0  0  0  0
 21 20  1  0  0  0  0
 22 23  1  0  0  0  0
 22 21  2  0  0  0  0
 23 18  2  0  0  0  0
 26 22  1  0  0  0  0
M  END
>  <minimizedAffinity>
-4.01852465

$$$$
