
 OpenBabel03272501583D

 32 34  0  0  0  0  0  0  0  0999 V2000
   32.9700   28.3230   47.8280 C   0  0  0  0  0  0  0  0  0  0  0  0
   32.1940   27.7340   48.7870 C   0  0  0  0  0  0  0  0  0  0  0  0
   30.8810   27.5930   48.3630 C   0  0  0  0  0  0  0  0  0  0  0  0
   30.9100   28.1260   47.1080 N   0  0  0  0  0  0  0  0  0  0  0  0
   32.1280   28.5430   46.8150 N   0  0  0  0  0  0  0  0  0  0  0  0
   32.5770   27.4190   49.7630 H   0  0  0  0  0  0  0  0  0  0  0  0
   30.0370   27.1630   48.9050 H   0  0  0  0  0  0  0  0  0  0  0  0
   29.7200   28.1940   46.2570 C   0  0  0  0  0  3  0  0  0  0  0  0
   30.0910   27.9550   44.8370 C   0  0  0  0  0  3  0  0  0  0  0  0
   29.5070   27.1220   44.3600 H   0  0  0  0  0  0  0  0  0  0  0  0
   30.0050   29.1410   43.9300 C   0  0  0  0  0  3  0  0  0  0  0  0
   30.8950   29.7970   43.9560 H   0  0  0  0  0  0  0  0  0  0  0  0
   28.8240   29.8050   44.1600 O   0  0  0  0  0  0  0  0  0  0  0  0
   28.9420   30.4190   45.3970 C   0  0  0  0  0  3  0  0  0  0  0  0
   29.8160   31.1040   45.4330 H   0  0  0  0  0  0  0  0  0  0  0  0
   28.9540   29.4370   46.5350 C   0  0  0  0  0  3  0  0  0  0  0  0
   29.3730   29.9640   47.4190 H   0  0  0  0  0  0  0  0  0  0  0  0
   34.4360   28.6250   47.9540 C   0  0  0  0  0  0  0  0  0  0  0  0
   34.9440   27.8740   47.3180 H   0  0  0  0  0  0  0  0  0  0  0  0
   34.6170   29.6570   47.6350 H   0  0  0  0  0  0  0  0  0  0  0  0
   34.8020   28.3430   49.3920 C   0  0  0  0  0  0  0  0  0  0  0  0
   35.1370   27.2850   49.5170 H   0  0  0  0  0  0  0  0  0  0  0  0
   33.9460   28.5080   50.0800 H   0  0  0  0  0  0  0  0  0  0  0  0
   37.2720   30.1740   51.4450 C   0  0  0  0  0  0  0  0  0  0  0  0
   38.1010   30.7470   50.4750 C   0  0  0  0  0  0  0  0  0  0  0  0
   37.8100   30.5030   49.1100 C   0  0  0  0  0  0  0  0  0  0  0  0
   36.7370   29.7220   48.8230 N   0  0  0  0  0  0  0  0  0  0  0  0
   35.9630   29.1900   49.7920 C   0  0  0  0  0  0  0  0  0  0  0  0
   36.2290   29.4140   51.0830 N   0  0  0  0  0  0  0  0  0  0  0  0
   37.4220   30.3100   52.5120 H   0  0  0  0  0  0  0  0  0  0  0  0
   38.9360   31.3560   50.7930 H   0  0  0  0  0  0  0  0  0  0  0  0
   38.4460   30.9400   48.3610 H   0  0  0  0  0  0  0  0  0  0  0  0
  1 18  1  0  0  0  0
  1  2  1  0  0  0  0
  2  6  1  0  0  0  0
  3  2  2  0  0  0  0
  3  7  1  0  0  0  0
  4  3  1  0  0  0  0
  5  4  1  0  0  0  0
  5  1  2  0  0  0  0
  8 16  1  0  0  0  0
  8  4  1  0  0  0  0
  9  8  1  0  0  0  0
 10  9  1  0  0  0  0
 11 12  1  0  0  0  0
 11 13  1  0  0  0  0
 11  9  1  0  0  0  0
 13 14  1  0  0  0  0
 14 15  1  0  0  0  0
 14 16  1  0  0  0  0
 16 17  1  0  0  0  0
 18 21  1  0  0  0  0
 19 18  1  0  0  0  0
 20 18  1  0  0  0  0
 21 22  1  0  0  0  0
 21 28  1  0  0  0  0
 21 23  1  0  0  0  0
 24 30  1  0  0  0  0
 25 31  1  0  0  0  0
 25 24  2  0  0  0  0
 26 25  1  0  0  0  0
 27 26  2  0  0  0  0
 27 28  1  0  0  0  0
 28 29  2  0  0  0  0
 29 24  1  0  0  0  0
 32 26  1  0  0  0  0
M  END
>  <minimizedAffinity>
-4.6169796

>  <minimizedRMSD>
0.9017995

$$$$
