
 OpenBabel03262521573D

 37 39  0  0  1  0  0  0  0  0999 V2000
   37.0790   26.5580   34.7110 C   0  0  1  0  0  0  0  0  0  0  0  0
   37.5970   25.9000   33.4510 C   0  0  2  0  0  0  0  0  0  0  0  0
   38.9850   26.3780   33.2250 C   0  0  0  0  0  0  0  0  0  0  0  0
   39.4160   27.2920   34.1820 O   0  0  0  0  0  0  0  0  0  0  0  0
   39.3770   26.7520   35.4690 C   0  0  0  0  0  0  0  0  0  0  0  0
   38.0480   26.1810   35.8230 C   0  0  2  0  0  0  0  0  0  0  0  0
   36.0510   26.2030   34.9150 H   0  0  0  0  0  0  0  0  0  0  0  0
   37.5860   24.8030   33.6210 H   0  0  0  0  0  0  0  0  0  0  0  0
   39.7270   25.5370   33.1860 H   0  0  0  0  0  0  0  0  0  0  0  0
   39.0660   26.8810   32.2420 H   0  0  0  0  0  0  0  0  0  0  0  0
   39.5500   27.6120   36.1560 H   0  0  0  0  0  0  0  0  0  0  0  0
   40.2420   26.0630   35.6450 H   0  0  0  0  0  0  0  0  0  0  0  0
   37.6440   26.5230   36.7980 H   0  0  0  0  0  0  0  0  0  0  0  0
   37.1090   27.9500   34.6010 O   0  0  0  0  0  0  0  0  0  0  0  0
   36.8350   28.3050   35.4850 H   0  0  0  0  0  0  0  0  0  0  0  0
   36.5270   26.2450   32.0270 S   0  0  0  0  0  0  0  0  0  0  0  0
   35.9460   24.6940   31.2950 C   0  0  0  0  0  0  0  0  0  0  0  0
   35.1370   24.3090   31.9590 H   0  0  0  0  0  0  0  0  0  0  0  0
   35.5760   24.9550   30.2810 H   0  0  0  0  0  0  0  0  0  0  0  0
   37.2230   23.4570   31.1080 S   0  0  0  0  0  0  0  0  0  0  0  0
   36.4970   21.8350   31.2610 C   0  0  0  0  0  0  0  0  0  0  0  0
   35.4070   21.7860   32.0950 C   0  0  0  0  0  0  0  0  0  0  0  0
   34.7690   20.5370   32.2730 C   0  0  0  0  0  0  0  0  0  0  0  0
   35.2750   19.4640   31.6090 N   0  0  0  0  0  0  0  0  0  0  0  0
   36.3500   19.5890   30.8040 C   0  0  0  0  0  0  0  0  0  0  0  0
   36.9480   20.7490   30.6340 N   0  0  0  0  0  0  0  0  0  0  0  0
   34.9650   22.6060   32.6460 H   0  0  0  0  0  0  0  0  0  0  0  0
   33.9140   20.4110   32.9060 H   0  0  0  0  0  0  0  0  0  0  0  0
   36.7430   18.7120   30.2770 H   0  0  0  0  0  0  0  0  0  0  0  0
   38.0750   24.7900   35.8260 O   0  0  0  0  0  0  0  0  0  0  0  0
   38.5870   23.9750   36.8180 C   0  0  0  0  0  0  0  0  0  0  0  0
   39.7540   23.3610   36.5270 N   0  0  0  0  0  0  0  0  0  0  0  0
   40.0930   22.6140   37.6080 C   0  0  0  0  0  0  0  0  0  0  0  0
   40.9260   21.9500   37.8650 H   0  0  0  0  0  0  0  0  0  0  0  0
   39.1020   22.8110   38.5210 N   0  0  0  0  0  0  0  0  0  0  0  0
   39.0270   22.3910   39.4830 H   0  0  0  0  0  0  0  0  0  0  0  0
   38.1700   23.6450   38.0500 N   0  0  0  0  0  0  0  0  0  0  0  0
  1  7  1  1  0  0  0
  1  6  1  0  0  0  0
  2  8  1  1  0  0  0
  2  1  1  0  0  0  0
  3  2  1  0  0  0  0
  3  4  1  0  0  0  0
  4  5  1  0  0  0  0
  5 12  1  0  0  0  0
  5  6  1  0  0  0  0
  5 11  1  0  0  0  0
  6 30  1  0  0  0  0
  6 13  1  1  0  0  0
  9  3  1  0  0  0  0
 10  3  1  0  0  0  0
 14  1  1  0  0  0  0
 14 15  1  0  0  0  0
 16  2  1  0  0  0  0
 17 18  1  0  0  0  0
 17 16  1  0  0  0  0
 19 17  1  0  0  0  0
 20 21  1  0  0  0  0
 20 17  1  0  0  0  0
 21 22  1  0  0  0  0
 22 23  2  0  0  0  0
 22 27  1  0  0  0  0
 23 28  1  0  0  0  0
 24 23  1  0  0  0  0
 25 24  2  0  0  0  0
 26 25  1  0  0  0  0
 26 21  2  0  0  0  0
 29 25  1  0  0  0  0
 30 31  1  0  0  0  0
 31 37  2  0  0  0  0
 32 31  1  0  0  0  0
 32 33  2  0  0  0  0
 33 34  1  0  0  0  0
 33 35  1  0  0  0  0
 35 36  1  0  0  0  0
 37 35  1  0  0  0  0
M  END
>  <minimizedAffinity>
-5.36435461

$$$$

 OpenBabel03262521573D

 37 39  0  0  1  0  0  0  0  0999 V2000
   37.5130   26.0680   34.1650 C   0  0  1  0  0  0  0  0  0  0  0  0
   38.9020   25.7710   33.6450 C   0  0  2  0  0  0  0  0  0  0  0  0
   39.8660   26.5820   34.4330 C   0  0  0  0  0  0  0  0  0  0  0  0
   39.2560   27.3900   35.3870 O   0  0  0  0  0  0  0  0  0  0  0  0
   38.5120   26.6420   36.3020 C   0  0  0  0  0  0  0  0  0  0  0  0
   37.5280   25.7340   35.6500 C   0  0  2  0  0  0  0  0  0  0  0  0
   36.7740   25.4600   33.6080 H   0  0  0  0  0  0  0  0  0  0  0  0
   39.0880   24.6880   33.7980 H   0  0  0  0  0  0  0  0  0  0  0  0
   40.6350   25.9490   34.9510 H   0  0  0  0  0  0  0  0  0  0  0  0
   40.4440   27.2520   33.7670 H   0  0  0  0  0  0  0  0  0  0  0  0
   37.9240   27.3870   36.8840 H   0  0  0  0  0  0  0  0  0  0  0  0
   39.1770   26.1460   37.0540 H   0  0  0  0  0  0  0  0  0  0  0  0
   36.4980   25.8030   36.0560 H   0  0  0  0  0  0  0  0  0  0  0  0
   37.2150   27.4290   34.0580 O   0  0  0  0  0  0  0  0  0  0  0  0
   36.3320   27.5550   34.4890 H   0  0  0  0  0  0  0  0  0  0  0  0
   39.0380   26.1050   31.8670 S   0  0  0  0  0  0  0  0  0  0  0  0
   38.7140   24.5940   30.9230 C   0  0  0  0  0  0  0  0  0  0  0  0
   39.1280   24.7600   29.9010 H   0  0  0  0  0  0  0  0  0  0  0  0
   39.2350   23.7780   31.4660 H   0  0  0  0  0  0  0  0  0  0  0  0
   36.9830   24.1620   30.8180 S   0  0  0  0  0  0  0  0  0  0  0  0
   36.6400   22.8320   31.9560 C   0  0  0  0  0  0  0  0  0  0  0  0
   35.5070   22.1170   31.6560 C   0  0  0  0  0  0  0  0  0  0  0  0
   35.1600   21.0440   32.5080 C   0  0  0  0  0  0  0  0  0  0  0  0
   35.9690   20.7870   33.5700 N   0  0  0  0  0  0  0  0  0  0  0  0
   37.0680   21.5340   33.8010 C   0  0  0  0  0  0  0  0  0  0  0  0
   37.3960   22.5350   33.0130 N   0  0  0  0  0  0  0  0  0  0  0  0
   34.8300   22.2780   30.8270 H   0  0  0  0  0  0  0  0  0  0  0  0
   34.2930   20.4350   32.3450 H   0  0  0  0  0  0  0  0  0  0  0  0
   37.7080   21.3120   34.6640 H   0  0  0  0  0  0  0  0  0  0  0  0
   37.9370   24.4060   35.7200 O   0  0  0  0  0  0  0  0  0  0  0  0
   38.5080   23.7730   36.8080 C   0  0  0  0  0  0  0  0  0  0  0  0
   39.7380   23.2540   36.6040 N   0  0  0  0  0  0  0  0  0  0  0  0
   40.1290   22.6810   37.7700 C   0  0  0  0  0  0  0  0  0  0  0  0
   41.0200   22.1430   38.1130 H   0  0  0  0  0  0  0  0  0  0  0  0
   39.1020   22.8800   38.6430 N   0  0  0  0  0  0  0  0  0  0  0  0
   39.0510   22.5720   39.6480 H   0  0  0  0  0  0  0  0  0  0  0  0
   38.1000   23.5500   38.0670 N   0  0  0  0  0  0  0  0  0  0  0  0
  1  7  1  6  0  0  0
  1  6  1  0  0  0  0
  2  8  1  1  0  0  0
  2  1  1  0  0  0  0
  2  3  1  0  0  0  0
  3  9  1  0  0  0  0
  3  4  1  0  0  0  0
  4  5  1  0  0  0  0
  5 11  1  0  0  0  0
  5 12  1  0  0  0  0
  6 30  1  0  0  0  0
  6 13  1  1  0  0  0
  6  5  1  0  0  0  0
 10  3  1  0  0  0  0
 14  1  1  0  0  0  0
 14 15  1  0  0  0  0
 16  2  1  0  0  0  0
 17 19  1  0  0  0  0
 17 16  1  0  0  0  0
 18 17  1  0  0  0  0
 20 17  1  0  0  0  0
 20 21  1  0  0  0  0
 21 26  1  0  0  0  0
 22 21  2  0  0  0  0
 22 23  1  0  0  0  0
 23 24  2  0  0  0  0
 24 25  1  0  0  0  0
 25 29  1  0  0  0  0
 26 25  2  0  0  0  0
 27 22  1  0  0  0  0
 28 23  1  0  0  0  0
 30 31  1  0  0  0  0
 31 37  2  0  0  0  0
 32 31  1  0  0  0  0
 32 33  2  0  0  0  0
 33 34  1  0  0  0  0
 33 35  1  0  0  0  0
 35 36  1  0  0  0  0
 37 35  1  0  0  0  0
M  END
>  <minimizedAffinity>
-5.11853886

$$$$

 OpenBabel03262521573D

 37 39  0  0  1  0  0  0  0  0999 V2000
   38.8510   26.3340   34.6930 C   0  0  1  0  0  0  0  0  0  0  0  0
   37.3730   26.3540   34.3740 C   0  0  2  0  0  0  0  0  0  0  0  0
   37.2010   25.8810   32.9770 C   0  0  0  0  0  0  0  0  0  0  0  0
   38.4040   25.5810   32.3450 O   0  0  0  0  0  0  0  0  0  0  0  0
   39.1140   24.5890   33.0260 C   0  0  0  0  0  0  0  0  0  0  0  0
   39.3210   24.9030   34.4670 C   0  0  2  0  0  0  0  0  0  0  0  0
   39.0060   26.6630   35.7390 H   0  0  0  0  0  0  0  0  0  0  0  0
   36.8700   25.6640   35.0830 H   0  0  0  0  0  0  0  0  0  0  0  0
   36.5360   24.9790   32.9080 H   0  0  0  0  0  0  0  0  0  0  0  0
   36.7020   26.6560   32.3630 H   0  0  0  0  0  0  0  0  0  0  0  0
   40.1220   24.5710   32.5540 H   0  0  0  0  0  0  0  0  0  0  0  0
   38.6830   23.5750   32.8270 H   0  0  0  0  0  0  0  0  0  0  0  0
   40.3680   24.7970   34.8160 H   0  0  0  0  0  0  0  0  0  0  0  0
   39.5690   27.1410   33.8080 O   0  0  0  0  0  0  0  0  0  0  0  0
   40.5260   27.0120   34.0280 H   0  0  0  0  0  0  0  0  0  0  0  0
   36.6580   28.0040   34.6170 S   0  0  0  0  0  0  0  0  0  0  0  0
   35.9070   28.5910   33.0770 C   0  0  0  0  0  0  0  0  0  0  0  0
   36.6130   28.3270   32.2560 H   0  0  0  0  0  0  0  0  0  0  0  0
   34.9360   28.0610   32.9910 H   0  0  0  0  0  0  0  0  0  0  0  0
   35.5760   30.3470   33.0560 S   0  0  0  0  0  0  0  0  0  0  0  0
   34.8250   30.8220   34.6030 C   0  0  0  0  0  0  0  0  0  0  0  0
   35.6500   31.5470   35.4270 C   0  0  0  0  0  0  0  0  0  0  0  0
   35.1340   31.9650   36.6750 C   0  0  0  0  0  0  0  0  0  0  0  0
   33.8550   31.6220   36.9810 N   0  0  0  0  0  0  0  0  0  0  0  0
   33.1030   30.9070   36.1200 C   0  0  0  0  0  0  0  0  0  0  0  0
   33.5770   30.5150   34.9570 N   0  0  0  0  0  0  0  0  0  0  0  0
   36.6720   31.8460   35.2330 H   0  0  0  0  0  0  0  0  0  0  0  0
   35.7110   32.5340   37.3750 H   0  0  0  0  0  0  0  0  0  0  0  0
   32.0730   30.6400   36.3850 H   0  0  0  0  0  0  0  0  0  0  0  0
   38.5070   24.1210   35.2800 O   0  0  0  0  0  0  0  0  0  0  0  0
   38.8280   23.6110   36.5250 C   0  0  0  0  0  0  0  0  0  0  0  0
   38.0530   24.0330   37.5470 N   0  0  0  0  0  0  0  0  0  0  0  0
   38.5150   23.4330   38.6740 C   0  0  0  0  0  0  0  0  0  0  0  0
   38.2350   23.4460   39.7330 H   0  0  0  0  0  0  0  0  0  0  0  0
   39.5670   22.6620   38.2780 N   0  0  0  0  0  0  0  0  0  0  0  0
   40.1720   22.0510   38.8840 H   0  0  0  0  0  0  0  0  0  0  0  0
   39.7700   22.7610   36.9610 N   0  0  0  0  0  0  0  0  0  0  0  0
  1  7  1  1  0  0  0
  2 16  1  0  0  0  0
  2  1  1  0  0  0  0
  2  8  1  1  0  0  0
  3  2  1  0  0  0  0
  4  3  1  0  0  0  0
  4  5  1  0  0  0  0
  5  6  1  0  0  0  0
  6  1  1  0  0  0  0
  6 13  1  1  0  0  0
  6 30  1  0  0  0  0
  9  3  1  0  0  0  0
 10  3  1  0  0  0  0
 11  5  1  0  0  0  0
 12  5  1  0  0  0  0
 14 15  1  0  0  0  0
 14  1  1  0  0  0  0
 17 16  1  0  0  0  0
 18 17  1  0  0  0  0
 19 17  1  0  0  0  0
 20 17  1  0  0  0  0
 20 21  1  0  0  0  0
 21 26  2  0  0  0  0
 21 22  1  0  0  0  0
 22 23  2  0  0  0  0
 23 24  1  0  0  0  0
 23 28  1  0  0  0  0
 25 29  1  0  0  0  0
 25 24  2  0  0  0  0
 26 25  1  0  0  0  0
 27 22  1  0  0  0  0
 30 31  1  0  0  0  0
 31 37  2  0  0  0  0
 31 32  1  0  0  0  0
 32 33  2  0  0  0  0
 33 34  1  0  0  0  0
 35 33  1  0  0  0  0
 35 36  1  0  0  0  0
 37 35  1  0  0  0  0
M  END
>  <minimizedAffinity>
-4.93531561

$$$$

 OpenBabel03262521573D

 37 39  0  0  1  0  0  0  0  0999 V2000
   37.4520   26.1200   34.3230 C   0  0  1  0  0  0  0  0  0  0  0  0
   38.8620   26.0820   33.7780 C   0  0  2  0  0  0  0  0  0  0  0  0
   39.7140   26.9230   34.6570 C   0  0  0  0  0  0  0  0  0  0  0  0
   39.0090   27.5230   35.6960 O   0  0  0  0  0  0  0  0  0  0  0  0
   38.3890   26.5780   36.5150 C   0  0  0  0  0  0  0  0  0  0  0  0
   37.5320   25.6220   35.7600 C   0  0  2  0  0  0  0  0  0  0  0  0
   36.7980   25.4830   33.6970 H   0  0  0  0  0  0  0  0  0  0  0  0
   39.1990   25.0250   33.8040 H   0  0  0  0  0  0  0  0  0  0  0  0
   40.5700   26.3490   35.1010 H   0  0  0  0  0  0  0  0  0  0  0  0
   40.1840   27.7400   34.0750 H   0  0  0  0  0  0  0  0  0  0  0  0
   37.7100   27.1620   37.1780 H   0  0  0  0  0  0  0  0  0  0  0  0
   39.1260   26.0970   37.2080 H   0  0  0  0  0  0  0  0  0  0  0  0
   36.5080   25.5000   36.1670 H   0  0  0  0  0  0  0  0  0  0  0  0
   36.9660   27.4290   34.3740 O   0  0  0  0  0  0  0  0  0  0  0  0
   36.0790   27.3800   34.8130 H   0  0  0  0  0  0  0  0  0  0  0  0
   38.9270   26.6340   32.0500 S   0  0  0  0  0  0  0  0  0  0  0  0
   37.7270   25.7120   31.0560 C   0  0  0  0  0  0  0  0  0  0  0  0
   38.1660   25.6110   30.0360 H   0  0  0  0  0  0  0  0  0  0  0  0
   37.5990   24.7330   31.5640 H   0  0  0  0  0  0  0  0  0  0  0  0
   36.1210   26.4890   30.9540 S   0  0  0  0  0  0  0  0  0  0  0  0
   36.3240   28.2610   30.9660 C   0  0  0  0  0  0  0  0  0  0  0  0
   36.9010   28.7660   29.8260 C   0  0  0  0  0  0  0  0  0  0  0  0
   37.0990   30.1630   29.7510 C   0  0  0  0  0  0  0  0  0  0  0  0
   36.7070   30.9190   30.8110 N   0  0  0  0  0  0  0  0  0  0  0  0
   36.1460   30.3520   31.8980 C   0  0  0  0  0  0  0  0  0  0  0  0
   35.9590   29.0520   31.9750 N   0  0  0  0  0  0  0  0  0  0  0  0
   37.2290   28.2120   28.9570 H   0  0  0  0  0  0  0  0  0  0  0  0
   37.5410   30.6380   28.8980 H   0  0  0  0  0  0  0  0  0  0  0  0
   35.8370   30.9790   32.7440 H   0  0  0  0  0  0  0  0  0  0  0  0
   38.1230   24.3660   35.6770 O   0  0  0  0  0  0  0  0  0  0  0  0
   38.7260   23.6660   36.7050 C   0  0  0  0  0  0  0  0  0  0  0  0
   39.9840   23.2370   36.4620 N   0  0  0  0  0  0  0  0  0  0  0  0
   40.4040   22.5800   37.5730 C   0  0  0  0  0  0  0  0  0  0  0  0
   41.3230   22.0620   37.8700 H   0  0  0  0  0  0  0  0  0  0  0  0
   39.3670   22.6400   38.4540 N   0  0  0  0  0  0  0  0  0  0  0  0
   39.3310   22.2370   39.4250 H   0  0  0  0  0  0  0  0  0  0  0  0
   38.3300   23.3050   37.9350 N   0  0  0  0  0  0  0  0  0  0  0  0
  1  7  1  6  0  0  0
  1 14  1  0  0  0  0
  1  6  1  0  0  0  0
  2  8  1  1  0  0  0
  2  1  1  0  0  0  0
  2  3  1  0  0  0  0
  3  9  1  0  0  0  0
  3  4  1  0  0  0  0
  4  5  1  0  0  0  0
  5 11  1  0  0  0  0
  5 12  1  0  0  0  0
  6 13  1  1  0  0  0
  6  5  1  0  0  0  0
 10  3  1  0  0  0  0
 14 15  1  0  0  0  0
 16  2  1  0  0  0  0
 17 19  1  0  0  0  0
 17 16  1  0  0  0  0
 18 17  1  0  0  0  0
 20 21  1  0  0  0  0
 20 17  1  0  0  0  0
 21 26  1  0  0  0  0
 22 21  2  0  0  0  0
 23 22  1  0  0  0  0
 23 24  2  0  0  0  0
 24 25  1  0  0  0  0
 25 26  2  0  0  0  0
 25 29  1  0  0  0  0
 27 22  1  0  0  0  0
 28 23  1  0  0  0  0
 30  6  1  0  0  0  0
 30 31  1  0  0  0  0
 31 37  2  0  0  0  0
 32 31  1  0  0  0  0
 32 33  2  0  0  0  0
 33 34  1  0  0  0  0
 33 35  1  0  0  0  0
 35 36  1  0  0  0  0
 37 35  1  0  0  0  0
M  END
>  <minimizedAffinity>
-4.91567707

$$$$

 OpenBabel03262521573D

 37 39  0  0  1  0  0  0  0  0999 V2000
   38.8820   26.2650   34.5860 C   0  0  1  0  0  0  0  0  0  0  0  0
   37.4020   26.2920   34.2750 C   0  0  2  0  0  0  0  0  0  0  0  0
   37.2190   25.7870   32.8900 C   0  0  0  0  0  0  0  0  0  0  0  0
   38.4160   25.4610   32.2600 O   0  0  0  0  0  0  0  0  0  0  0  0
   39.1200   24.4790   32.9590 C   0  0  0  0  0  0  0  0  0  0  0  0
   39.3370   24.8260   34.3910 C   0  0  2  0  0  0  0  0  0  0  0  0
   39.0450   26.6180   35.6230 H   0  0  0  0  0  0  0  0  0  0  0  0
   36.8980   25.6230   35.0030 H   0  0  0  0  0  0  0  0  0  0  0  0
   36.5450   24.8900   32.8460 H   0  0  0  0  0  0  0  0  0  0  0  0
   36.7230   26.5520   32.2610 H   0  0  0  0  0  0  0  0  0  0  0  0
   40.1260   24.4410   32.4830 H   0  0  0  0  0  0  0  0  0  0  0  0
   38.6790   23.4640   32.7870 H   0  0  0  0  0  0  0  0  0  0  0  0
   40.3860   24.7190   34.7380 H   0  0  0  0  0  0  0  0  0  0  0  0
   39.6020   27.0450   33.6780 O   0  0  0  0  0  0  0  0  0  0  0  0
   40.5600   26.9130   33.8960 H   0  0  0  0  0  0  0  0  0  0  0  0
   36.7030   27.9530   34.4820 S   0  0  0  0  0  0  0  0  0  0  0  0
   36.1800   28.6140   32.8790 C   0  0  0  0  0  0  0  0  0  0  0  0
   37.1090   28.8730   32.3200 H   0  0  0  0  0  0  0  0  0  0  0  0
   35.6010   27.8030   32.3910 H   0  0  0  0  0  0  0  0  0  0  0  0
   35.1190   30.0470   32.9980 S   0  0  0  0  0  0  0  0  0  0  0  0
   33.5210   29.5470   33.6120 C   0  0  0  0  0  0  0  0  0  0  0  0
   33.3580   29.7290   34.9630 C   0  0  0  0  0  0  0  0  0  0  0  0
   32.1190   29.3580   35.5340 C   0  0  0  0  0  0  0  0  0  0  0  0
   31.1680   28.8430   34.7100 N   0  0  0  0  0  0  0  0  0  0  0  0
   31.4000   28.6940   33.3900 C   0  0  0  0  0  0  0  0  0  0  0  0
   32.5510   29.0370   32.8520 N   0  0  0  0  0  0  0  0  0  0  0  0
   34.0790   30.1320   35.6620 H   0  0  0  0  0  0  0  0  0  0  0  0
   31.9100   29.4680   36.5790 H   0  0  0  0  0  0  0  0  0  0  0  0
   30.6200   28.2770   32.7420 H   0  0  0  0  0  0  0  0  0  0  0  0
   38.5220   24.0700   35.2280 O   0  0  0  0  0  0  0  0  0  0  0  0
   38.8520   23.5690   36.4730 C   0  0  0  0  0  0  0  0  0  0  0  0
   38.1000   24.0140   37.5010 N   0  0  0  0  0  0  0  0  0  0  0  0
   38.5690   23.4190   38.6280 C   0  0  0  0  0  0  0  0  0  0  0  0
   38.3050   23.4480   39.6910 H   0  0  0  0  0  0  0  0  0  0  0  0
   39.6010   22.6260   38.2250 N   0  0  0  0  0  0  0  0  0  0  0  0
   40.2050   22.0110   38.8290 H   0  0  0  0  0  0  0  0  0  0  0  0
   39.7870   22.7080   36.9050 N   0  0  0  0  0  0  0  0  0  0  0  0
  1  7  1  1  0  0  0
  2 16  1  0  0  0  0
  2  1  1  0  0  0  0
  2  8  1  1  0  0  0
  3  2  1  0  0  0  0
  4  3  1  0  0  0  0
  4  5  1  0  0  0  0
  5  6  1  0  0  0  0
  6  1  1  0  0  0  0
  6 13  1  1  0  0  0
  6 30  1  0  0  0  0
  9  3  1  0  0  0  0
 10  3  1  0  0  0  0
 11  5  1  0  0  0  0
 12  5  1  0  0  0  0
 14 15  1  0  0  0  0
 14  1  1  0  0  0  0
 17 20  1  0  0  0  0
 17 16  1  0  0  0  0
 18 17  1  0  0  0  0
 19 17  1  0  0  0  0
 20 21  1  0  0  0  0
 21 22  1  0  0  0  0
 22 23  2  0  0  0  0
 22 27  1  0  0  0  0
 23 28  1  0  0  0  0
 24 23  1  0  0  0  0
 25 24  2  0  0  0  0
 26 25  1  0  0  0  0
 26 21  2  0  0  0  0
 29 25  1  0  0  0  0
 30 31  1  0  0  0  0
 31 37  2  0  0  0  0
 31 32  1  0  0  0  0
 32 33  2  0  0  0  0
 33 34  1  0  0  0  0
 35 33  1  0  0  0  0
 35 36  1  0  0  0  0
 37 35  1  0  0  0  0
M  END
>  <minimizedAffinity>
-4.81096315

$$$$

 OpenBabel03262521573D

 37 39  0  0  1  0  0  0  0  0999 V2000
   37.9060   25.5330   31.6910 C   0  0  1  0  0  0  0  0  0  0  0  0
   36.4980   25.9920   31.9990 C   0  0  2  0  0  0  0  0  0  0  0  0
   35.5590   24.9760   31.4580 C   0  0  0  0  0  0  0  0  0  0  0  0
   36.1990   23.9230   30.8120 O   0  0  0  0  0  0  0  0  0  0  0  0
   37.0790   23.2510   31.6620 C   0  0  0  0  0  0  0  0  0  0  0  0
   38.0580   24.1560   32.3240 C   0  0  2  0  0  0  0  0  0  0  0  0
   38.6290   26.2630   32.1030 H   0  0  0  0  0  0  0  0  0  0  0  0
   36.4050   26.0600   33.1030 H   0  0  0  0  0  0  0  0  0  0  0  0
   34.8910   24.5450   32.2500 H   0  0  0  0  0  0  0  0  0  0  0  0
   34.8740   25.4370   30.7200 H   0  0  0  0  0  0  0  0  0  0  0  0
   37.6660   22.5720   31.0020 H   0  0  0  0  0  0  0  0  0  0  0  0
   36.5270   22.5710   32.3600 H   0  0  0  0  0  0  0  0  0  0  0  0
   39.1150   23.8280   32.2470 H   0  0  0  0  0  0  0  0  0  0  0  0
   38.0940   25.3700   30.3170 O   0  0  0  0  0  0  0  0  0  0  0  0
   39.0040   24.9940   30.2030 H   0  0  0  0  0  0  0  0  0  0  0  0
   36.1680   27.6420   31.3200 S   0  0  0  0  0  0  0  0  0  0  0  0
   36.0910   28.8620   32.6570 C   0  0  0  0  0  0  0  0  0  0  0  0
   36.5750   28.3940   33.5450 H   0  0  0  0  0  0  0  0  0  0  0  0
   36.6440   29.7510   32.2890 H   0  0  0  0  0  0  0  0  0  0  0  0
   34.4310   29.3810   33.0680 S   0  0  0  0  0  0  0  0  0  0  0  0
   34.4740   30.3560   34.5610 C   0  0  0  0  0  0  0  0  0  0  0  0
   35.7180   30.8440   34.8760 C   0  0  0  0  0  0  0  0  0  0  0  0
   35.8430   31.6280   36.0450 C   0  0  0  0  0  0  0  0  0  0  0  0
   34.7230   31.8500   36.7840 N   0  0  0  0  0  0  0  0  0  0  0  0
   33.5330   31.3380   36.4110 C   0  0  0  0  0  0  0  0  0  0  0  0
   33.4100   30.6070   35.3240 N   0  0  0  0  0  0  0  0  0  0  0  0
   36.6380   30.6970   34.3250 H   0  0  0  0  0  0  0  0  0  0  0  0
   36.7770   32.0460   36.3620 H   0  0  0  0  0  0  0  0  0  0  0  0
   32.6410   31.5280   37.0210 H   0  0  0  0  0  0  0  0  0  0  0  0
   37.7540   24.3390   33.6690 O   0  0  0  0  0  0  0  0  0  0  0  0
   38.1190   23.5160   34.7180 C   0  0  0  0  0  0  0  0  0  0  0  0
   38.4730   24.1460   35.8590 N   0  0  0  0  0  0  0  0  0  0  0  0
   38.7950   23.1850   36.7630 C   0  0  0  0  0  0  0  0  0  0  0  0
   39.1350   23.1790   37.8050 H   0  0  0  0  0  0  0  0  0  0  0  0
   38.6200   21.9970   36.1200 N   0  0  0  0  0  0  0  0  0  0  0  0
   38.7740   21.0320   36.5090 H   0  0  0  0  0  0  0  0  0  0  0  0
   38.2040   22.1850   34.8640 N   0  0  0  0  0  0  0  0  0  0  0  0
  1  2  1  0  0  0  0
  1  7  1  1  0  0  0
  1  6  1  0  0  0  0
  2  8  1  1  0  0  0
  3  2  1  0  0  0  0
  3  9  1  0  0  0  0
  4  3  1  0  0  0  0
  4  5  1  0  0  0  0
  5  6  1  0  0  0  0
  5 12  1  0  0  0  0
  6 13  1  6  0  0  0
  6 30  1  0  0  0  0
 10  3  1  0  0  0  0
 11  5  1  0  0  0  0
 14  1  1  0  0  0  0
 15 14  1  0  0  0  0
 16  2  1  0  0  0  0
 16 17  1  0  0  0  0
 17 20  1  0  0  0  0
 17 18  1  0  0  0  0
 19 17  1  0  0  0  0
 20 21  1  0  0  0  0
 21 22  2  0  0  0  0
 21 26  1  0  0  0  0
 22 23  1  0  0  0  0
 23 28  1  0  0  0  0
 23 24  2  0  0  0  0
 25 24  1  0  0  0  0
 25 29  1  0  0  0  0
 26 25  2  0  0  0  0
 27 22  1  0  0  0  0
 30 31  1  0  0  0  0
 31 37  2  0  0  0  0
 31 32  1  0  0  0  0
 32 33  2  0  0  0  0
 33 34  1  0  0  0  0
 35 36  1  0  0  0  0
 35 33  1  0  0  0  0
 37 35  1  0  0  0  0
M  END
>  <minimizedAffinity>
-4.76925516

$$$$

 OpenBabel03262521573D

 37 39  0  0  1  0  0  0  0  0999 V2000
   39.0750   23.6830   32.6700 C   0  0  1  0  0  0  0  0  0  0  0  0
   37.5750   23.8640   32.6090 C   0  0  2  0  0  0  0  0  0  0  0  0
   36.9500   22.5180   32.6700 C   0  0  0  0  0  0  0  0  0  0  0  0
   37.8780   21.4830   32.7380 O   0  0  0  0  0  0  0  0  0  0  0  0
   38.7030   21.5980   33.8580 C   0  0  0  0  0  0  0  0  0  0  0  0
   39.3660   22.9280   33.9600 C   0  0  2  0  0  0  0  0  0  0  0  0
   39.5660   24.6750   32.6480 H   0  0  0  0  0  0  0  0  0  0  0  0
   37.2780   24.4710   33.4900 H   0  0  0  0  0  0  0  0  0  0  0  0
   36.2440   22.4110   33.5370 H   0  0  0  0  0  0  0  0  0  0  0  0
   36.3320   22.3360   31.7690 H   0  0  0  0  0  0  0  0  0  0  0  0
   39.5120   20.8480   33.7070 H   0  0  0  0  0  0  0  0  0  0  0  0
   38.1730   21.2690   34.7870 H   0  0  0  0  0  0  0  0  0  0  0  0
   40.4620   22.8860   34.1260 H   0  0  0  0  0  0  0  0  0  0  0  0
   39.5290   22.8810   31.6210 O   0  0  0  0  0  0  0  0  0  0  0  0
   40.4980   22.7430   31.7740 H   0  0  0  0  0  0  0  0  0  0  0  0
   37.0690   24.7730   31.1220 S   0  0  0  0  0  0  0  0  0  0  0  0
   35.9200   26.1010   31.5640 C   0  0  0  0  0  0  0  0  0  0  0  0
   35.2380   26.2380   30.6930 H   0  0  0  0  0  0  0  0  0  0  0  0
   35.3850   25.7500   32.4720 H   0  0  0  0  0  0  0  0  0  0  0  0
   36.7190   27.6480   31.9640 S   0  0  0  0  0  0  0  0  0  0  0  0
   37.8380   27.3960   33.3290 C   0  0  0  0  0  0  0  0  0  0  0  0
   37.2350   27.4370   34.5630 C   0  0  0  0  0  0  0  0  0  0  0  0
   38.0500   27.2470   35.7020 C   0  0  0  0  0  0  0  0  0  0  0  0
   39.3780   27.0350   35.5050 N   0  0  0  0  0  0  0  0  0  0  0  0
   39.9000   27.0060   34.2620 C   0  0  0  0  0  0  0  0  0  0  0  0
   39.1480   27.1830   33.1970 N   0  0  0  0  0  0  0  0  0  0  0  0
   36.1870   27.6020   34.7740 H   0  0  0  0  0  0  0  0  0  0  0  0
   37.6590   27.2640   36.6990 H   0  0  0  0  0  0  0  0  0  0  0  0
   40.9750   26.8340   34.1240 H   0  0  0  0  0  0  0  0  0  0  0  0
   38.8010   23.7020   34.9690 O   0  0  0  0  0  0  0  0  0  0  0  0
   38.8020   23.4230   36.3230 C   0  0  0  0  0  0  0  0  0  0  0  0
   37.7020   23.8160   37.0020 N   0  0  0  0  0  0  0  0  0  0  0  0
   37.8850   23.4610   38.3000 C   0  0  0  0  0  0  0  0  0  0  0  0
   37.3000   23.5550   39.2220 H   0  0  0  0  0  0  0  0  0  0  0  0
   39.1060   22.8590   38.3510 N   0  0  0  0  0  0  0  0  0  0  0  0
   39.5830   22.4540   39.1970 H   0  0  0  0  0  0  0  0  0  0  0  0
   39.6800   22.8280   37.1450 N   0  0  0  0  0  0  0  0  0  0  0  0
  1  7  1  6  0  0  0
  1  6  1  0  0  0  0
  2  1  1  0  0  0  0
  2  3  1  0  0  0  0
  2  8  1  1  0  0  0
  3  4  1  0  0  0  0
  3  9  1  0  0  0  0
  4  5  1  0  0  0  0
  5  6  1  0  0  0  0
  5 12  1  0  0  0  0
  6 13  1  1  0  0  0
  6 30  1  0  0  0  0
 10  3  1  0  0  0  0
 11  5  1  0  0  0  0
 14 15  1  0  0  0  0
 14  1  1  0  0  0  0
 16 17  1  0  0  0  0
 16  2  1  0  0  0  0
 17 20  1  0  0  0  0
 17 19  1  0  0  0  0
 18 17  1  0  0  0  0
 20 21  1  0  0  0  0
 21 22  1  0  0  0  0
 22 27  1  0  0  0  0
 22 23  2  0  0  0  0
 23 28  1  0  0  0  0
 24 23  1  0  0  0  0
 25 24  2  0  0  0  0
 26 21  2  0  0  0  0
 26 25  1  0  0  0  0
 29 25  1  0  0  0  0
 30 31  1  0  0  0  0
 31 32  1  0  0  0  0
 31 37  2  0  0  0  0
 32 33  2  0  0  0  0
 33 35  1  0  0  0  0
 33 34  1  0  0  0  0
 35 36  1  0  0  0  0
 37 35  1  0  0  0  0
M  END
>  <minimizedAffinity>
-4.68465567

$$$$

 OpenBabel03262521573D

 37 39  0  0  1  0  0  0  0  0999 V2000
   38.7080   26.4050   34.3340 C   0  0  1  0  0  0  0  0  0  0  0  0
   37.2470   26.3390   33.9490 C   0  0  2  0  0  0  0  0  0  0  0  0
   37.1410   25.5350   32.7040 C   0  0  0  0  0  0  0  0  0  0  0  0
   38.3700   25.0940   32.2260 O   0  0  0  0  0  0  0  0  0  0  0  0
   39.0380   24.3040   33.1640 C   0  0  0  0  0  0  0  0  0  0  0  0
   39.1780   24.9650   34.4910 C   0  0  2  0  0  0  0  0  0  0  0  0
   38.8150   26.9830   35.2730 H   0  0  0  0  0  0  0  0  0  0  0  0
   36.7060   25.8430   34.7810 H   0  0  0  0  0  0  0  0  0  0  0  0
   36.4720   24.6420   32.8280 H   0  0  0  0  0  0  0  0  0  0  0  0
   36.6770   26.1330   31.8950 H   0  0  0  0  0  0  0  0  0  0  0  0
   40.0680   24.1750   32.7600 H   0  0  0  0  0  0  0  0  0  0  0  0
   38.6100   23.2700   33.2010 H   0  0  0  0  0  0  0  0  0  0  0  0
   40.2060   24.9540   34.9060 H   0  0  0  0  0  0  0  0  0  0  0  0
   39.4740   26.9720   33.3130 O   0  0  0  0  0  0  0  0  0  0  0  0
   40.4190   26.9070   33.6050 H   0  0  0  0  0  0  0  0  0  0  0  0
   36.5340   27.9950   33.7420 S   0  0  0  0  0  0  0  0  0  0  0  0
   35.6860   28.1140   32.1460 C   0  0  0  0  0  0  0  0  0  0  0  0
   35.8160   27.1290   31.6400 H   0  0  0  0  0  0  0  0  0  0  0  0
   34.6240   28.3350   32.3810 H   0  0  0  0  0  0  0  0  0  0  0  0
   36.2980   29.4250   31.0970 S   0  0  0  0  0  0  0  0  0  0  0  0
   37.6790   28.8190   30.1450 C   0  0  0  0  0  0  0  0  0  0  0  0
   37.6310   29.1510   28.8130 C   0  0  0  0  0  0  0  0  0  0  0  0
   38.6880   28.7110   27.9850 C   0  0  0  0  0  0  0  0  0  0  0  0
   39.6850   27.9850   28.5580 N   0  0  0  0  0  0  0  0  0  0  0  0
   39.6650   27.6970   29.8750 C   0  0  0  0  0  0  0  0  0  0  0  0
   38.6850   28.1040   30.6520 N   0  0  0  0  0  0  0  0  0  0  0  0
   36.8640   29.7240   28.3080 H   0  0  0  0  0  0  0  0  0  0  0  0
   38.7270   28.9270   26.9360 H   0  0  0  0  0  0  0  0  0  0  0  0
   40.4790   27.1110   30.3190 H   0  0  0  0  0  0  0  0  0  0  0  0
   38.3200   24.4040   35.4320 O   0  0  0  0  0  0  0  0  0  0  0  0
   38.6810   23.7930   36.6180 C   0  0  0  0  0  0  0  0  0  0  0  0
   38.0620   24.2560   37.7260 N   0  0  0  0  0  0  0  0  0  0  0  0
   38.5400   23.5450   38.7790 C   0  0  0  0  0  0  0  0  0  0  0  0
   38.3600   23.5380   39.8600 H   0  0  0  0  0  0  0  0  0  0  0  0
   39.4410   22.6680   38.2540 N   0  0  0  0  0  0  0  0  0  0  0  0
   40.0130   21.9530   38.7740 H   0  0  0  0  0  0  0  0  0  0  0  0
   39.5380   22.8080   36.9290 N   0  0  0  0  0  0  0  0  0  0  0  0
  1  6  1  0  0  0  0
  1  7  1  1  0  0  0
  2  1  1  0  0  0  0
  2  8  1  1  0  0  0
  3  9  1  0  0  0  0
  3  2  1  0  0  0  0
  4  3  1  0  0  0  0
  4  5  1  0  0  0  0
  5 12  1  0  0  0  0
  5  6  1  0  0  0  0
  6 13  1  1  0  0  0
  6 30  1  0  0  0  0
 10  3  1  0  0  0  0
 11  5  1  0  0  0  0
 14 15  1  0  0  0  0
 14  1  1  0  0  0  0
 16  2  1  0  0  0  0
 17 19  1  0  0  0  0
 17 16  1  0  0  0  0
 18 17  1  0  0  0  0
 20 17  1  0  0  0  0
 21 26  1  0  0  0  0
 21 20  1  0  0  0  0
 22 21  2  0  0  0  0
 23 24  2  0  0  0  0
 23 22  1  0  0  0  0
 24 25  1  0  0  0  0
 25 29  1  0  0  0  0
 25 26  2  0  0  0  0
 27 22  1  0  0  0  0
 28 23  1  0  0  0  0
 30 31  1  0  0  0  0
 31 37  2  0  0  0  0
 31 32  1  0  0  0  0
 32 33  2  0  0  0  0
 33 34  1  0  0  0  0
 35 36  1  0  0  0  0
 35 33  1  0  0  0  0
 37 35  1  0  0  0  0
M  END
>  <minimizedAffinity>
-4.56934881

$$$$

 OpenBabel03262521573D

 37 39  0  0  1  0  0  0  0  0999 V2000
   37.8340   27.0040   32.4630 C   0  0  1  0  0  0  0  0  0  0  0  0
   38.2990   25.6190   32.0730 C   0  0  2  0  0  0  0  0  0  0  0  0
   37.1010   24.8260   31.6970 C   0  0  0  0  0  0  0  0  0  0  0  0
   35.9100   25.5330   31.8240 O   0  0  0  0  0  0  0  0  0  0  0  0
   35.9010   26.6820   31.0310 C   0  0  0  0  0  0  0  0  0  0  0  0
   37.0810   27.5600   31.2630 C   0  0  2  0  0  0  0  0  0  0  0  0
   38.7110   27.6250   32.7290 H   0  0  0  0  0  0  0  0  0  0  0  0
   38.9810   25.7310   31.2040 H   0  0  0  0  0  0  0  0  0  0  0  0
   37.1620   24.4290   30.6480 H   0  0  0  0  0  0  0  0  0  0  0  0
   37.0130   23.9290   32.3400 H   0  0  0  0  0  0  0  0  0  0  0  0
   35.0040   27.2570   31.3540 H   0  0  0  0  0  0  0  0  0  0  0  0
   35.7120   26.4300   29.9560 H   0  0  0  0  0  0  0  0  0  0  0  0
   36.8340   28.6270   31.4410 H   0  0  0  0  0  0  0  0  0  0  0  0
   36.9250   26.9510   33.5230 O   0  0  0  0  0  0  0  0  0  0  0  0
   36.6080   27.8790   33.6650 H   0  0  0  0  0  0  0  0  0  0  0  0
   39.2380   24.8270   33.4080 S   0  0  0  0  0  0  0  0  0  0  0  0
   39.3080   23.0360   33.1430 C   0  0  0  0  0  0  0  0  0  0  0  0
   39.0400   22.8600   32.0760 H   0  0  0  0  0  0  0  0  0  0  0  0
   40.3500   22.7350   33.3760 H   0  0  0  0  0  0  0  0  0  0  0  0
   38.2180   22.1040   34.2090 S   0  0  0  0  0  0  0  0  0  0  0  0
   38.5130   22.5700   35.9050 C   0  0  0  0  0  0  0  0  0  0  0  0
   39.7860   22.3040   36.3450 C   0  0  0  0  0  0  0  0  0  0  0  0
   40.1070   22.6430   37.6790 C   0  0  0  0  0  0  0  0  0  0  0  0
   39.1350   23.2100   38.4430 N   0  0  0  0  0  0  0  0  0  0  0  0
   37.9050   23.4430   37.9400 C   0  0  0  0  0  0  0  0  0  0  0  0
   37.6000   23.1300   36.6990 N   0  0  0  0  0  0  0  0  0  0  0  0
   40.5950   21.8560   35.7820 H   0  0  0  0  0  0  0  0  0  0  0  0
   41.0760   22.4690   38.1020 H   0  0  0  0  0  0  0  0  0  0  0  0
   37.1350   23.9010   38.5720 H   0  0  0  0  0  0  0  0  0  0  0  0
   37.9820   27.4920   30.2050 O   0  0  0  0  0  0  0  0  0  0  0  0
   38.1150   28.4010   29.1720 C   0  0  0  0  0  0  0  0  0  0  0  0
   37.4370   29.5600   29.3220 N   0  0  0  0  0  0  0  0  0  0  0  0
   37.6880   30.3150   28.2220 C   0  0  0  0  0  0  0  0  0  0  0  0
   37.3830   31.3090   27.8740 H   0  0  0  0  0  0  0  0  0  0  0  0
   38.5190   29.5690   27.4420 N   0  0  0  0  0  0  0  0  0  0  0  0
   38.9250   29.8340   26.5080 H   0  0  0  0  0  0  0  0  0  0  0  0
   38.7910   28.3920   28.0130 N   0  0  0  0  0  0  0  0  0  0  0  0
  1  7  1  1  0  0  0
  1 14  1  0  0  0  0
  2  8  1  6  0  0  0
  2  1  1  0  0  0  0
  2 16  1  0  0  0  0
  3  4  1  0  0  0  0
  3  2  1  0  0  0  0
  3 10  1  0  0  0  0
  5  6  1  0  0  0  0
  5 11  1  0  0  0  0
  5  4  1  0  0  0  0
  6 13  1  1  0  0  0
  6  1  1  0  0  0  0
  9  3  1  0  0  0  0
 12  5  1  0  0  0  0
 14 15  1  0  0  0  0
 17 19  1  0  0  0  0
 17 16  1  0  0  0  0
 17 20  1  0  0  0  0
 18 17  1  0  0  0  0
 20 21  1  0  0  0  0
 21 22  2  0  0  0  0
 21 26  1  0  0  0  0
 22 23  1  0  0  0  0
 23 28  1  0  0  0  0
 23 24  2  0  0  0  0
 25 24  1  0  0  0  0
 25 29  1  0  0  0  0
 26 25  2  0  0  0  0
 27 22  1  0  0  0  0
 30  6  1  0  0  0  0
 31 32  1  0  0  0  0
 31 30  1  0  0  0  0
 33 32  2  0  0  0  0
 34 33  1  0  0  0  0
 35 37  1  0  0  0  0
 35 33  1  0  0  0  0
 36 35  1  0  0  0  0
 37 31  2  0  0  0  0
M  END
>  <minimizedAffinity>
-4.50603008

$$$$
