
 OpenBabel03272505013D

 26 28  0  0  0  0  0  0  0  0999 V2000
   39.5410   25.4980   31.9220 Cl  0  0  0  0  0  0  0  0  0  0  0  0
   38.8960   26.2820   33.3450 C   0  0  0  0  0  0  0  0  0  0  0  0
   39.7500   26.6040   34.3600 C   0  0  0  0  0  0  0  0  0  0  0  0
   39.1690   27.2250   35.4630 C   0  0  0  0  0  0  0  0  0  0  0  0
   37.8000   27.4870   35.5000 C   0  0  0  0  0  0  0  0  0  0  0  0
   36.9860   27.1420   34.4520 C   0  0  0  0  0  0  0  0  0  0  0  0
   37.5510   26.5290   33.3590 C   0  0  0  0  0  0  0  0  0  0  0  0
   39.7870   27.5110   36.3120 H   0  0  0  0  0  0  0  0  0  0  0  0
   37.4280   27.9710   36.3920 H   0  0  0  0  0  0  0  0  0  0  0  0
   35.9280   27.3590   34.5090 H   0  0  0  0  0  0  0  0  0  0  0  0
   42.0850   27.2410   33.7380 C   0  0  0  0  0  0  0  0  0  0  0  0
   41.1830   26.3420   34.3470 C   0  0  0  0  0  0  0  0  0  0  0  0
   41.7030   25.2010   34.9350 C   0  0  0  0  0  0  0  0  0  0  0  0
   43.0460   25.0000   34.8980 N   0  0  0  0  0  0  0  0  0  0  0  0
   43.8850   25.8740   34.3090 C   0  0  0  0  0  0  0  0  0  0  0  0
   43.4050   26.9980   33.7270 N   0  0  0  0  0  0  0  0  0  0  0  0
   41.6420   28.1210   33.2900 H   0  0  0  0  0  0  0  0  0  0  0  0
   41.0250   24.4950   35.4100 H   0  0  0  0  0  0  0  0  0  0  0  0
   44.9570   25.6590   34.3100 H   0  0  0  0  0  0  0  0  0  0  0  0
   36.6960   26.1530   32.2280 C   0  0  0  0  0  0  0  0  0  0  0  0
   36.1310   24.9570   32.0510 N   0  0  0  0  0  0  0  0  0  0  0  0
   35.4110   24.9740   30.8990 C   0  0  0  0  0  0  0  0  0  0  0  0
   34.7940   24.2620   30.3490 H   0  0  0  0  0  0  0  0  0  0  0  0
   35.5790   26.2240   30.4140 N   0  0  0  0  0  0  0  0  0  0  0  0
   35.2070   26.6820   29.5510 H   0  0  0  0  0  0  0  0  0  0  0  0
   36.3610   26.9680   31.2080 N   0  0  0  0  0  0  0  0  0  0  0  0
  1  2  1  0  0  0  0
  2  7  2  0  0  0  0
  2  3  1  0  0  0  0
  3  4  2  0  0  0  0
  4  5  1  0  0  0  0
  4  8  1  0  0  0  0
  5  9  1  0  0  0  0
  6 10  1  0  0  0  0
  6  5  2  0  0  0  0
  7  6  1  0  0  0  0
 11 12  1  0  0  0  0
 12  3  1  0  0  0  0
 12 13  2  0  0  0  0
 13 18  1  0  0  0  0
 14 13  1  0  0  0  0
 15 19  1  0  0  0  0
 15 14  2  0  0  0  0
 16 11  2  0  0  0  0
 16 15  1  0  0  0  0
 17 11  1  0  0  0  0
 20  7  1  0  0  0  0
 21 20  1  0  0  0  0
 22 21  2  0  0  0  0
 23 22  1  0  0  0  0
 24 22  1  0  0  0  0
 24 26  1  0  0  0  0
 25 24  1  0  0  0  0
 26 20  2  0  0  0  0
M  END
>  <minimizedAffinity>
-4.9771409

$$$$

 OpenBabel03272505013D

 26 28  0  0  0  0  0  0  0  0999 V2000
   38.6900   25.8260   35.3490 Cl  0  0  0  0  0  0  0  0  0  0  0  0
   38.1670   24.4220   34.4480 C   0  0  0  0  0  0  0  0  0  0  0  0
   37.8040   24.5800   33.1410 C   0  0  0  0  0  0  0  0  0  0  0  0
   37.3960   23.4210   32.4850 C   0  0  0  0  0  0  0  0  0  0  0  0
   37.3690   22.1940   33.1460 C   0  0  0  0  0  0  0  0  0  0  0  0
   37.7440   22.0910   34.4610 C   0  0  0  0  0  0  0  0  0  0  0  0
   38.1490   23.2300   35.1170 C   0  0  0  0  0  0  0  0  0  0  0  0
   37.0910   23.4680   31.4400 H   0  0  0  0  0  0  0  0  0  0  0  0
   37.0400   21.3430   32.5650 H   0  0  0  0  0  0  0  0  0  0  0  0
   37.7140   21.1250   34.9470 H   0  0  0  0  0  0  0  0  0  0  0  0
   36.6910   26.6930   32.4060 C   0  0  0  0  0  0  0  0  0  0  0  0
   37.8220   25.8490   32.4270 C   0  0  0  0  0  0  0  0  0  0  0  0
   38.9550   26.2670   31.7480 C   0  0  0  0  0  0  0  0  0  0  0  0
   38.9250   27.4580   31.0960 N   0  0  0  0  0  0  0  0  0  0  0  0
   37.8310   28.2450   31.0920 C   0  0  0  0  0  0  0  0  0  0  0  0
   36.7110   27.8620   31.7480 N   0  0  0  0  0  0  0  0  0  0  0  0
   35.8260   26.3340   32.9490 H   0  0  0  0  0  0  0  0  0  0  0  0
   39.8380   25.6310   31.7510 H   0  0  0  0  0  0  0  0  0  0  0  0
   37.8650   29.1930   30.5500 H   0  0  0  0  0  0  0  0  0  0  0  0
   38.5540   23.1400   36.5230 C   0  0  0  0  0  0  0  0  0  0  0  0
   37.8320   23.5610   37.5640 N   0  0  0  0  0  0  0  0  0  0  0  0
   38.5210   23.3150   38.7090 C   0  0  0  0  0  0  0  0  0  0  0  0
   38.3530   23.4730   39.7740 H   0  0  0  0  0  0  0  0  0  0  0  0
   39.6690   22.7350   38.2940 N   0  0  0  0  0  0  0  0  0  0  0  0
   40.4930   22.3800   38.8320 H   0  0  0  0  0  0  0  0  0  0  0  0
   39.7170   22.6150   36.9600 N   0  0  0  0  0  0  0  0  0  0  0  0
  2  7  1  0  0  0  0
  2  1  1  0  0  0  0
  3  2  2  0  0  0  0
  4  3  1  0  0  0  0
  4  5  2  0  0  0  0
  5  6  1  0  0  0  0
  6 10  1  0  0  0  0
  6  7  2  0  0  0  0
  7 20  1  0  0  0  0
  8  4  1  0  0  0  0
  9  5  1  0  0  0  0
 11 12  1  0  0  0  0
 11 17  1  0  0  0  0
 12  3  1  0  0  0  0
 13 18  1  0  0  0  0
 13 12  2  0  0  0  0
 14 13  1  0  0  0  0
 15 14  2  0  0  0  0
 15 16  1  0  0  0  0
 16 11  2  0  0  0  0
 19 15  1  0  0  0  0
 20 26  2  0  0  0  0
 20 21  1  0  0  0  0
 21 22  2  0  0  0  0
 22 23  1  0  0  0  0
 24 22  1  0  0  0  0
 24 25  1  0  0  0  0
 26 24  1  0  0  0  0
M  END
>  <minimizedAffinity>
-4.78370857

$$$$

 OpenBabel03272505013D

 26 28  0  0  0  0  0  0  0  0999 V2000
   39.8830   26.1300   31.8790 Cl  0  0  0  0  0  0  0  0  0  0  0  0
   39.0580   26.7050   33.3090 C   0  0  0  0  0  0  0  0  0  0  0  0
   39.6160   26.4610   34.5310 C   0  0  0  0  0  0  0  0  0  0  0  0
   38.9050   26.9450   35.6260 C   0  0  0  0  0  0  0  0  0  0  0  0
   37.7040   27.6320   35.4550 C   0  0  0  0  0  0  0  0  0  0  0  0
   37.1870   27.8510   34.2040 C   0  0  0  0  0  0  0  0  0  0  0  0
   37.8820   27.3760   33.1170 C   0  0  0  0  0  0  0  0  0  0  0  0
   39.2880   26.7890   36.6340 H   0  0  0  0  0  0  0  0  0  0  0  0
   37.2150   27.9750   36.3560 H   0  0  0  0  0  0  0  0  0  0  0  0
   36.2530   28.3880   34.1020 H   0  0  0  0  0  0  0  0  0  0  0  0
   40.8810   24.3960   35.1490 C   0  0  0  0  0  0  0  0  0  0  0  0
   40.8680   25.7470   34.7380 C   0  0  0  0  0  0  0  0  0  0  0  0
   42.0870   26.3740   34.5350 C   0  0  0  0  0  0  0  0  0  0  0  0
   43.2290   25.6680   34.7400 N   0  0  0  0  0  0  0  0  0  0  0  0
   43.2120   24.3790   35.1330 C   0  0  0  0  0  0  0  0  0  0  0  0
   42.0370   23.7400   35.3380 N   0  0  0  0  0  0  0  0  0  0  0  0
   39.9110   23.9400   35.2960 H   0  0  0  0  0  0  0  0  0  0  0  0
   42.0990   27.4150   34.2180 H   0  0  0  0  0  0  0  0  0  0  0  0
   44.1630   23.8610   35.2830 H   0  0  0  0  0  0  0  0  0  0  0  0
   37.3450   27.6000   31.7710 C   0  0  0  0  0  0  0  0  0  0  0  0
   37.6410   28.6370   30.9840 N   0  0  0  0  0  0  0  0  0  0  0  0
   36.9600   28.5140   29.8150 C   0  0  0  0  0  0  0  0  0  0  0  0
   36.8760   29.0880   28.8920 H   0  0  0  0  0  0  0  0  0  0  0  0
   36.2590   27.3670   29.9510 N   0  0  0  0  0  0  0  0  0  0  0  0
   35.6010   26.8820   29.3000 H   0  0  0  0  0  0  0  0  0  0  0  0
   36.4760   26.7860   31.1400 N   0  0  0  0  0  0  0  0  0  0  0  0
  1  2  1  0  0  0  0
  2  3  1  0  0  0  0
  3 12  1  0  0  0  0
  3  4  2  0  0  0  0
  4  8  1  0  0  0  0
  5  4  1  0  0  0  0
  5  9  1  0  0  0  0
  6  5  2  0  0  0  0
  7  2  2  0  0  0  0
  7  6  1  0  0  0  0
 10  6  1  0  0  0  0
 11 17  1  0  0  0  0
 11 16  1  0  0  0  0
 12 11  2  0  0  0  0
 13 12  1  0  0  0  0
 13 14  2  0  0  0  0
 14 15  1  0  0  0  0
 15 19  1  0  0  0  0
 15 16  2  0  0  0  0
 18 13  1  0  0  0  0
 20  7  1  0  0  0  0
 21 20  1  0  0  0  0
 22 24  1  0  0  0  0
 22 21  2  0  0  0  0
 23 22  1  0  0  0  0
 24 26  1  0  0  0  0
 25 24  1  0  0  0  0
 26 20  2  0  0  0  0
M  END
>  <minimizedAffinity>
-4.74122429

$$$$

 OpenBabel03272505013D

 26 28  0  0  0  0  0  0  0  0999 V2000
   37.9370   23.3390   33.8290 Cl  0  0  0  0  0  0  0  0  0  0  0  0
   36.9900   24.3120   32.7280 C   0  0  0  0  0  0  0  0  0  0  0  0
   36.2130   23.6820   31.7980 C   0  0  0  0  0  0  0  0  0  0  0  0
   35.4870   24.5170   30.9530 C   0  0  0  0  0  0  0  0  0  0  0  0
   35.5680   25.9040   31.0720 C   0  0  0  0  0  0  0  0  0  0  0  0
   36.3650   26.4860   32.0240 C   0  0  0  0  0  0  0  0  0  0  0  0
   37.0850   25.6690   32.8630 C   0  0  0  0  0  0  0  0  0  0  0  0
   34.8450   24.0860   30.1860 H   0  0  0  0  0  0  0  0  0  0  0  0
   34.9730   26.4800   30.3770 H   0  0  0  0  0  0  0  0  0  0  0  0
   36.4070   27.5650   32.0930 H   0  0  0  0  0  0  0  0  0  0  0  0
   35.0890   21.5070   32.3000 C   0  0  0  0  0  0  0  0  0  0  0  0
   36.1100   22.2360   31.6530 C   0  0  0  0  0  0  0  0  0  0  0  0
   37.0130   21.5330   30.8710 C   0  0  0  0  0  0  0  0  0  0  0  0
   36.8760   20.1850   30.7660 N   0  0  0  0  0  0  0  0  0  0  0  0
   35.8920   19.5140   31.3950 C   0  0  0  0  0  0  0  0  0  0  0  0
   34.9960   20.1750   32.1640 N   0  0  0  0  0  0  0  0  0  0  0  0
   34.4020   22.0900   32.9000 H   0  0  0  0  0  0  0  0  0  0  0  0
   37.8080   22.0760   30.3640 H   0  0  0  0  0  0  0  0  0  0  0  0
   35.8320   18.4300   31.2740 H   0  0  0  0  0  0  0  0  0  0  0  0
   37.9420   26.2730   33.8880 C   0  0  0  0  0  0  0  0  0  0  0  0
   37.5520   26.6180   35.1160 N   0  0  0  0  0  0  0  0  0  0  0  0
   38.6100   27.1460   35.7850 C   0  0  0  0  0  0  0  0  0  0  0  0
   38.7830   27.5560   36.7810 H   0  0  0  0  0  0  0  0  0  0  0  0
   39.6300   27.0940   34.9000 N   0  0  0  0  0  0  0  0  0  0  0  0
   40.6280   27.3920   34.9830 H   0  0  0  0  0  0  0  0  0  0  0  0
   39.2490   26.5640   33.7290 N   0  0  0  0  0  0  0  0  0  0  0  0
  2  7  1  0  0  0  0
  2  1  1  0  0  0  0
  3  2  2  0  0  0  0
  4  5  2  0  0  0  0
  4  3  1  0  0  0  0
  5  6  1  0  0  0  0
  6 10  1  0  0  0  0
  6  7  2  0  0  0  0
  7 20  1  0  0  0  0
  8  4  1  0  0  0  0
  9  5  1  0  0  0  0
 11 17  1  0  0  0  0
 12  3  1  0  0  0  0
 12 11  2  0  0  0  0
 13 12  1  0  0  0  0
 14 13  2  0  0  0  0
 14 15  1  0  0  0  0
 15 16  2  0  0  0  0
 16 11  1  0  0  0  0
 18 13  1  0  0  0  0
 19 15  1  0  0  0  0
 20 21  1  0  0  0  0
 21 22  2  0  0  0  0
 22 23  1  0  0  0  0
 24 25  1  0  0  0  0
 24 22  1  0  0  0  0
 26 20  2  0  0  0  0
 26 24  1  0  0  0  0
M  END
>  <minimizedAffinity>
-4.73408508

$$$$

 OpenBabel03272505013D

 26 28  0  0  0  0  0  0  0  0999 V2000
   39.2730   25.5030   35.0980 Cl  0  0  0  0  0  0  0  0  0  0  0  0
   38.4260   24.2210   34.2650 C   0  0  0  0  0  0  0  0  0  0  0  0
   37.7940   24.5080   33.0890 C   0  0  0  0  0  0  0  0  0  0  0  0
   37.1390   23.4400   32.4810 C   0  0  0  0  0  0  0  0  0  0  0  0
   37.1450   22.1710   33.0590 C   0  0  0  0  0  0  0  0  0  0  0  0
   37.7960   21.9370   34.2430 C   0  0  0  0  0  0  0  0  0  0  0  0
   38.4460   22.9850   34.8500 C   0  0  0  0  0  0  0  0  0  0  0  0
   36.6120   23.5920   31.5400 H   0  0  0  0  0  0  0  0  0  0  0  0
   36.6120   21.3980   32.5230 H   0  0  0  0  0  0  0  0  0  0  0  0
   37.7840   20.9420   34.6670 H   0  0  0  0  0  0  0  0  0  0  0  0
   36.7870   26.7760   32.7990 C   0  0  0  0  0  0  0  0  0  0  0  0
   37.7730   25.8230   32.4640 C   0  0  0  0  0  0  0  0  0  0  0  0
   38.7240   26.1780   31.5210 C   0  0  0  0  0  0  0  0  0  0  0  0
   38.6630   27.4160   30.9650 N   0  0  0  0  0  0  0  0  0  0  0  0
   37.7100   28.3070   31.3030 C   0  0  0  0  0  0  0  0  0  0  0  0
   36.7690   27.9880   32.2220 N   0  0  0  0  0  0  0  0  0  0  0  0
   36.0620   26.4630   33.5400 H   0  0  0  0  0  0  0  0  0  0  0  0
   39.4930   25.4580   31.2480 H   0  0  0  0  0  0  0  0  0  0  0  0
   37.7110   29.2890   30.8220 H   0  0  0  0  0  0  0  0  0  0  0  0
   39.1480   22.7540   36.1160 C   0  0  0  0  0  0  0  0  0  0  0  0
   40.3870   22.2720   36.2360 N   0  0  0  0  0  0  0  0  0  0  0  0
   40.7060   22.1930   37.5540 C   0  0  0  0  0  0  0  0  0  0  0  0
   41.5730   21.8740   38.1340 H   0  0  0  0  0  0  0  0  0  0  0  0
   39.6060   22.6470   38.1960 N   0  0  0  0  0  0  0  0  0  0  0  0
   39.4040   22.7630   39.2150 H   0  0  0  0  0  0  0  0  0  0  0  0
   38.6370   22.9980   37.3400 N   0  0  0  0  0  0  0  0  0  0  0  0
  2  7  1  0  0  0  0
  2  1  1  0  0  0  0
  3  2  2  0  0  0  0
  4  5  2  0  0  0  0
  4  3  1  0  0  0  0
  5  6  1  0  0  0  0
  6 10  1  0  0  0  0
  6  7  2  0  0  0  0
  7 20  1  0  0  0  0
  8  4  1  0  0  0  0
  9  5  1  0  0  0  0
 11 17  1  0  0  0  0
 12 11  1  0  0  0  0
 12  3  1  0  0  0  0
 13 12  2  0  0  0  0
 14 15  2  0  0  0  0
 14 13  1  0  0  0  0
 15 16  1  0  0  0  0
 16 11  2  0  0  0  0
 18 13  1  0  0  0  0
 19 15  1  0  0  0  0
 20 21  1  0  0  0  0
 20 26  2  0  0  0  0
 21 22  2  0  0  0  0
 22 23  1  0  0  0  0
 22 24  1  0  0  0  0
 24 25  1  0  0  0  0
 26 24  1  0  0  0  0
M  END
>  <minimizedAffinity>
-4.66282558

$$$$

 OpenBabel03272505013D

 26 28  0  0  0  0  0  0  0  0999 V2000
   37.8730   23.1070   34.5770 Cl  0  0  0  0  0  0  0  0  0  0  0  0
   39.0060   24.4180   34.3440 C   0  0  0  0  0  0  0  0  0  0  0  0
   38.7430   25.3480   33.3800 C   0  0  0  0  0  0  0  0  0  0  0  0
   39.6870   26.3630   33.2480 C   0  0  0  0  0  0  0  0  0  0  0  0
   40.8190   26.4010   34.0620 C   0  0  0  0  0  0  0  0  0  0  0  0
   41.0350   25.4400   35.0170 C   0  0  0  0  0  0  0  0  0  0  0  0
   40.1070   24.4340   35.1540 C   0  0  0  0  0  0  0  0  0  0  0  0
   39.5460   27.1410   32.4990 H   0  0  0  0  0  0  0  0  0  0  0  0
   41.5020   27.2210   33.8950 H   0  0  0  0  0  0  0  0  0  0  0  0
   41.9210   25.4960   35.6340 H   0  0  0  0  0  0  0  0  0  0  0  0
   37.2860   24.2250   31.6890 C   0  0  0  0  0  0  0  0  0  0  0  0
   37.5700   25.3320   32.5170 C   0  0  0  0  0  0  0  0  0  0  0  0
   36.6960   26.4070   32.4850 C   0  0  0  0  0  0  0  0  0  0  0  0
   35.6150   26.3460   31.6640 N   0  0  0  0  0  0  0  0  0  0  0  0
   35.3670   25.2760   30.8830 C   0  0  0  0  0  0  0  0  0  0  0  0
   36.2040   24.2130   30.8950 N   0  0  0  0  0  0  0  0  0  0  0  0
   37.9900   23.4050   31.7420 H   0  0  0  0  0  0  0  0  0  0  0  0
   36.8960   27.2710   33.1150 H   0  0  0  0  0  0  0  0  0  0  0  0
   34.4820   25.2840   30.2420 H   0  0  0  0  0  0  0  0  0  0  0  0
   40.3210   23.3990   36.1700 C   0  0  0  0  0  0  0  0  0  0  0  0
   41.2330   22.4270   36.1020 N   0  0  0  0  0  0  0  0  0  0  0  0
   41.1420   21.6560   37.2170 C   0  0  0  0  0  0  0  0  0  0  0  0
   41.6560   20.7760   37.6070 H   0  0  0  0  0  0  0  0  0  0  0  0
   40.1440   22.2170   37.9350 N   0  0  0  0  0  0  0  0  0  0  0  0
   39.7330   21.9570   38.8610 H   0  0  0  0  0  0  0  0  0  0  0  0
   39.6230   23.2860   37.3180 N   0  0  0  0  0  0  0  0  0  0  0  0
  2  1  1  0  0  0  0
  2  7  1  0  0  0  0
  3  2  2  0  0  0  0
  4  3  1  0  0  0  0
  4  5  2  0  0  0  0
  5  6  1  0  0  0  0
  6  7  2  0  0  0  0
  6 10  1  0  0  0  0
  7 20  1  0  0  0  0
  8  4  1  0  0  0  0
  9  5  1  0  0  0  0
 11 17  1  0  0  0  0
 11 12  1  0  0  0  0
 12  3  1  0  0  0  0
 13 12  2  0  0  0  0
 13 18  1  0  0  0  0
 14 13  1  0  0  0  0
 15 16  1  0  0  0  0
 15 14  2  0  0  0  0
 16 11  2  0  0  0  0
 19 15  1  0  0  0  0
 20 26  2  0  0  0  0
 21 20  1  0  0  0  0
 21 22  2  0  0  0  0
 22 23  1  0  0  0  0
 22 24  1  0  0  0  0
 24 25  1  0  0  0  0
 26 24  1  0  0  0  0
M  END
>  <minimizedAffinity>
-4.63938904

$$$$

 OpenBabel03272505013D

 26 28  0  0  0  0  0  0  0  0999 V2000
   40.8030   24.5850   34.3660 Cl  0  0  0  0  0  0  0  0  0  0  0  0
   39.9960   24.0760   35.8310 C   0  0  0  0  0  0  0  0  0  0  0  0
   38.8190   24.6770   36.1750 C   0  0  0  0  0  0  0  0  0  0  0  0
   38.2330   24.2240   37.3540 C   0  0  0  0  0  0  0  0  0  0  0  0
   38.8320   23.2210   38.1140 C   0  0  0  0  0  0  0  0  0  0  0  0
   40.0160   22.6500   37.7230 C   0  0  0  0  0  0  0  0  0  0  0  0
   40.6020   23.0910   36.5600 C   0  0  0  0  0  0  0  0  0  0  0  0
   37.2920   24.6570   37.6920 H   0  0  0  0  0  0  0  0  0  0  0  0
   38.3120   22.9270   39.0150 H   0  0  0  0  0  0  0  0  0  0  0  0
   40.4570   21.8730   38.3330 H   0  0  0  0  0  0  0  0  0  0  0  0
   37.5850   25.4520   34.1440 C   0  0  0  0  0  0  0  0  0  0  0  0
   38.1720   25.7260   35.3990 C   0  0  0  0  0  0  0  0  0  0  0  0
   38.1110   27.0260   35.8720 C   0  0  0  0  0  0  0  0  0  0  0  0
   37.4970   27.9710   35.1130 N   0  0  0  0  0  0  0  0  0  0  0  0
   36.9450   27.6820   33.9180 C   0  0  0  0  0  0  0  0  0  0  0  0
   36.9890   26.4200   33.4310 N   0  0  0  0  0  0  0  0  0  0  0  0
   37.6510   24.4250   33.8080 H   0  0  0  0  0  0  0  0  0  0  0  0
   38.5570   27.2600   36.8370 H   0  0  0  0  0  0  0  0  0  0  0  0
   36.4640   28.4830   33.3510 H   0  0  0  0  0  0  0  0  0  0  0  0
   41.8680   22.4920   36.1270 C   0  0  0  0  0  0  0  0  0  0  0  0
   43.0820   22.8770   36.5270 N   0  0  0  0  0  0  0  0  0  0  0  0
   44.0160   22.0980   35.9210 C   0  0  0  0  0  0  0  0  0  0  0  0
   45.1040   22.0280   35.9280 H   0  0  0  0  0  0  0  0  0  0  0  0
   43.2990   21.2470   35.1530 N   0  0  0  0  0  0  0  0  0  0  0  0
   43.6020   20.4750   34.5160 H   0  0  0  0  0  0  0  0  0  0  0  0
   41.9810   21.4650   35.2600 N   0  0  0  0  0  0  0  0  0  0  0  0
  1  2  1  0  0  0  0
  2  3  2  0  0  0  0
  2  7  1  0  0  0  0
  3  4  1  0  0  0  0
  4  8  1  0  0  0  0
  4  5  2  0  0  0  0
  5  9  1  0  0  0  0
  6  5  1  0  0  0  0
  6 10  1  0  0  0  0
  7  6  2  0  0  0  0
 11 12  1  0  0  0  0
 12 13  2  0  0  0  0
 12  3  1  0  0  0  0
 13 18  1  0  0  0  0
 14 13  1  0  0  0  0
 15 14  2  0  0  0  0
 16 15  1  0  0  0  0
 16 11  2  0  0  0  0
 17 11  1  0  0  0  0
 19 15  1  0  0  0  0
 20 21  1  0  0  0  0
 20  7  1  0  0  0  0
 22 23  1  0  0  0  0
 22 21  2  0  0  0  0
 24 26  1  0  0  0  0
 24 22  1  0  0  0  0
 25 24  1  0  0  0  0
 26 20  2  0  0  0  0
M  END
>  <minimizedAffinity>
-4.59029388

$$$$

 OpenBabel03272505013D

 26 28  0  0  0  0  0  0  0  0999 V2000
   36.1190   28.4300   34.5290 Cl  0  0  0  0  0  0  0  0  0  0  0  0
   35.9470   29.5190   33.1720 C   0  0  0  0  0  0  0  0  0  0  0  0
   36.2570   29.0630   31.9230 C   0  0  0  0  0  0  0  0  0  0  0  0
   36.0980   29.9820   30.8890 C   0  0  0  0  0  0  0  0  0  0  0  0
   35.6510   31.2780   31.1440 C   0  0  0  0  0  0  0  0  0  0  0  0
   35.3540   31.6850   32.4190 C   0  0  0  0  0  0  0  0  0  0  0  0
   35.5070   30.7830   33.4460 C   0  0  0  0  0  0  0  0  0  0  0  0
   36.3260   29.6910   29.8650 H   0  0  0  0  0  0  0  0  0  0  0  0
   35.5550   31.9290   30.2870 H   0  0  0  0  0  0  0  0  0  0  0  0
   35.0080   32.6960   32.5860 H   0  0  0  0  0  0  0  0  0  0  0  0
   35.8190   26.6740   31.3350 C   0  0  0  0  0  0  0  0  0  0  0  0
   36.7260   27.7150   31.6300 C   0  0  0  0  0  0  0  0  0  0  0  0
   38.0790   27.4170   31.6290 C   0  0  0  0  0  0  0  0  0  0  0  0
   38.4680   26.1460   31.3490 N   0  0  0  0  0  0  0  0  0  0  0  0
   37.5810   25.1700   31.0720 C   0  0  0  0  0  0  0  0  0  0  0  0
   36.2540   25.4330   31.0640 N   0  0  0  0  0  0  0  0  0  0  0  0
   34.7720   26.9450   31.3430 H   0  0  0  0  0  0  0  0  0  0  0  0
   38.7940   28.2050   31.8540 H   0  0  0  0  0  0  0  0  0  0  0  0
   37.9530   24.1650   30.8540 H   0  0  0  0  0  0  0  0  0  0  0  0
   35.1930   31.2000   34.8160 C   0  0  0  0  0  0  0  0  0  0  0  0
   33.9870   31.1440   35.3850 N   0  0  0  0  0  0  0  0  0  0  0  0
   34.0740   31.6120   36.6570 C   0  0  0  0  0  0  0  0  0  0  0  0
   33.3840   31.7570   37.4880 H   0  0  0  0  0  0  0  0  0  0  0  0
   35.3760   31.9410   36.8070 N   0  0  0  0  0  0  0  0  0  0  0  0
   35.8950   32.3390   37.6230 H   0  0  0  0  0  0  0  0  0  0  0  0
   36.0850   31.7000   35.6960 N   0  0  0  0  0  0  0  0  0  0  0  0
  2  7  1  0  0  0  0
  2  1  1  0  0  0  0
  3  2  2  0  0  0  0
  4  5  2  0  0  0  0
  4  3  1  0  0  0  0
  5  6  1  0  0  0  0
  6 10  1  0  0  0  0
  6  7  2  0  0  0  0
  7 20  1  0  0  0  0
  8  4  1  0  0  0  0
  9  5  1  0  0  0  0
 11 17  1  0  0  0  0
 11 12  1  0  0  0  0
 12  3  1  0  0  0  0
 13 12  2  0  0  0  0
 13 18  1  0  0  0  0
 14 13  1  0  0  0  0
 15 14  2  0  0  0  0
 16 15  1  0  0  0  0
 16 11  2  0  0  0  0
 19 15  1  0  0  0  0
 20 21  1  0  0  0  0
 20 26  2  0  0  0  0
 21 22  2  0  0  0  0
 22 24  1  0  0  0  0
 22 23  1  0  0  0  0
 24 25  1  0  0  0  0
 26 24  1  0  0  0  0
M  END
>  <minimizedAffinity>
-4.52249432

$$$$

 OpenBabel03272505013D

 26 28  0  0  0  0  0  0  0  0999 V2000
   38.7670   22.8860   34.3260 Cl  0  0  0  0  0  0  0  0  0  0  0  0
   38.7000   24.6190   34.5460 C   0  0  0  0  0  0  0  0  0  0  0  0
   38.7670   25.4230   33.4440 C   0  0  0  0  0  0  0  0  0  0  0  0
   38.7090   26.7920   33.6920 C   0  0  0  0  0  0  0  0  0  0  0  0
   38.5910   27.2810   34.9930 C   0  0  0  0  0  0  0  0  0  0  0  0
   38.5280   26.4290   36.0650 C   0  0  0  0  0  0  0  0  0  0  0  0
   38.5840   25.0750   35.8290 C   0  0  0  0  0  0  0  0  0  0  0  0
   38.7560   27.4960   32.8630 H   0  0  0  0  0  0  0  0  0  0  0  0
   38.5530   28.3560   35.0990 H   0  0  0  0  0  0  0  0  0  0  0  0
   38.4360   26.8370   37.0620 H   0  0  0  0  0  0  0  0  0  0  0  0
   40.1450   24.8730   31.4330 C   0  0  0  0  0  0  0  0  0  0  0  0
   38.8890   24.9390   32.0760 C   0  0  0  0  0  0  0  0  0  0  0  0
   37.7750   24.5250   31.3650 C   0  0  0  0  0  0  0  0  0  0  0  0
   37.9390   24.0810   30.0910 N   0  0  0  0  0  0  0  0  0  0  0  0
   39.1490   24.0300   29.5010 C   0  0  0  0  0  0  0  0  0  0  0  0
   40.2550   24.4260   30.1730 N   0  0  0  0  0  0  0  0  0  0  0  0
   40.9920   25.2030   32.0210 H   0  0  0  0  0  0  0  0  0  0  0  0
   36.7980   24.5670   31.8410 H   0  0  0  0  0  0  0  0  0  0  0  0
   39.2200   23.6630   28.4740 H   0  0  0  0  0  0  0  0  0  0  0  0
   38.5180   24.1490   36.9630 C   0  0  0  0  0  0  0  0  0  0  0  0
   37.4350   23.9140   37.7080 N   0  0  0  0  0  0  0  0  0  0  0  0
   37.7440   23.0010   38.6650 C   0  0  0  0  0  0  0  0  0  0  0  0
   37.2130   22.5080   39.4800 H   0  0  0  0  0  0  0  0  0  0  0  0
   39.0470   22.7130   38.4480 N   0  0  0  0  0  0  0  0  0  0  0  0
   39.6980   22.0620   38.9430 H   0  0  0  0  0  0  0  0  0  0  0  0
   39.5460   23.4010   37.4120 N   0  0  0  0  0  0  0  0  0  0  0  0
  1  2  1  0  0  0  0
  2  7  1  0  0  0  0
  3  4  1  0  0  0  0
  3  2  2  0  0  0  0
  4  5  2  0  0  0  0
  5  9  1  0  0  0  0
  5  6  1  0  0  0  0
  6 10  1  0  0  0  0
  7  6  2  0  0  0  0
  7 20  1  0  0  0  0
  8  4  1  0  0  0  0
 11 17  1  0  0  0  0
 11 12  1  0  0  0  0
 12  3  1  0  0  0  0
 13 18  1  0  0  0  0
 13 12  2  0  0  0  0
 14 13  1  0  0  0  0
 15 14  2  0  0  0  0
 15 16  1  0  0  0  0
 16 11  2  0  0  0  0
 19 15  1  0  0  0  0
 20 26  2  0  0  0  0
 20 21  1  0  0  0  0
 21 22  2  0  0  0  0
 22 23  1  0  0  0  0
 24 22  1  0  0  0  0
 24 25  1  0  0  0  0
 26 24  1  0  0  0  0
M  END
>  <minimizedAffinity>
-4.51081896

$$$$
