
 OpenBabel03272509303D

 36 38  0  0  1  0  0  0  0  0999 V2000
   36.2810   30.6970   48.9840 C   0  0  2  0  0  0  0  0  0  0  0  0
   37.2540   31.5830   49.7070 C   0  0  0  0  0  0  0  0  0  0  0  0
   38.1620   30.8140   50.6440 C   0  0  0  0  0  0  0  0  0  0  0  0
   37.3270   30.0400   51.6600 C   0  0  0  0  0  0  0  0  0  0  0  0
   36.0660   29.4430   51.0880 C   0  0  0  0  0  0  0  0  0  0  0  0
   36.2410   29.3210   49.5620 C   0  0  1  0  0  0  0  0  0  0  0  0
   35.2180   31.0730   49.0110 H   0  0  0  0  0  0  0  0  0  0  0  0
   36.5980   32.1850   50.4210 H   0  0  0  0  0  0  0  0  0  0  0  0
   37.7730   32.3210   49.1260 H   0  0  0  0  0  0  0  0  0  0  0  0
   38.7710   31.5400   51.1870 H   0  0  0  0  0  0  0  0  0  0  0  0
   38.8080   30.0870   50.1350 H   0  0  0  0  0  0  0  0  0  0  0  0
   37.9740   29.2260   52.0620 H   0  0  0  0  0  0  0  0  0  0  0  0
   37.1340   30.7140   52.5030 H   0  0  0  0  0  0  0  0  0  0  0  0
   35.9360   28.4250   51.4970 H   0  0  0  0  0  0  0  0  0  0  0  0
   35.2160   30.0740   51.3570 H   0  0  0  0  0  0  0  0  0  0  0  0
   37.1960   28.8550   49.5300 H   0  0  0  0  0  0  0  0  0  0  0  0
   36.6200   30.6000   47.5400 C   0  0  0  0  0  0  0  0  0  0  0  0
   37.9730   30.7900   47.2190 C   0  0  0  0  0  0  0  0  0  0  0  0
   38.3170   30.6960   45.8630 C   0  0  0  0  0  0  0  0  0  0  0  0
   37.3250   30.4280   44.9450 N   0  0  0  0  0  0  0  0  0  0  0  0
   36.0180   30.2500   45.3150 C   0  0  0  0  0  0  0  0  0  0  0  0
   35.6880   30.3410   46.6140 N   0  0  0  0  0  0  0  0  0  0  0  0
   38.8290   30.9920   47.8290 H   0  0  0  0  0  0  0  0  0  0  0  0
   39.3060   30.8180   45.4730 H   0  0  0  0  0  0  0  0  0  0  0  0
   35.2880   30.0410   44.5450 H   0  0  0  0  0  0  0  0  0  0  0  0
   33.9390   28.3350   49.1160 C   0  0  0  0  0  0  0  0  0  0  0  0
   33.1420   29.0250   49.8460 O   0  0  0  0  0  0  0  0  0  0  0  0
   35.3430   28.4270   48.9270 N   0  0  0  0  0  0  0  0  0  0  0  0
   35.7040   27.7170   48.2110 H   0  0  0  0  0  0  0  0  0  0  0  0
   33.1290   27.3030   48.4040 C   0  0  0  0  0  0  0  0  0  0  0  0
   33.5660   26.3360   47.6090 N   0  0  0  0  0  0  0  0  0  0  0  0
   32.4780   25.6330   47.1820 C   0  0  0  0  0  0  0  0  0  0  0  0
   32.5390   24.7840   46.5190 H   0  0  0  0  0  0  0  0  0  0  0  0
   31.4150   26.2030   47.7370 N   0  0  0  0  0  0  0  0  0  0  0  0
   30.4060   25.9150   47.6220 H   0  0  0  0  0  0  0  0  0  0  0  0
   31.7910   27.2130   48.4770 N   0  0  0  0  0  0  0  0  0  0  0  0
  1  7  1  1  0  0  0
  1  6  1  0  0  0  0
  1  2  1  0  0  0  0
  2  8  1  0  0  0  0
  2  3  1  0  0  0  0
  3 10  1  0  0  0  0
  3  4  1  0  0  0  0
  4 12  1  0  0  0  0
  4 13  1  0  0  0  0
  5 15  1  0  0  0  0
  5 14  1  0  0  0  0
  5  4  1  0  0  0  0
  6 16  1  6  0  0  0
  6  5  1  0  0  0  0
  9  2  1  0  0  0  0
 11  3  1  0  0  0  0
 17  1  1  0  0  0  0
 18 17  1  0  0  0  0
 18 23  1  0  0  0  0
 19 18  2  0  0  0  0
 20 21  2  0  0  0  0
 20 19  1  0  0  0  0
 21 22  1  0  0  0  0
 22 17  2  0  0  0  0
 24 19  1  0  0  0  0
 25 21  1  0  0  0  0
 26 27  2  0  0  0  0
 28 26  1  0  0  0  0
 28  6  1  0  0  0  0
 29 28  1  0  0  0  0
 30 36  2  0  0  0  0
 30 26  1  0  0  0  0
 31 30  1  0  0  0  0
 32 31  2  0  0  0  0
 32 34  1  0  0  0  0
 33 32  1  0  0  0  0
 34 36  1  0  0  0  0
 35 34  1  0  0  0  0
M  END
>  <minimizedAffinity>
-5.75813818

>  <minimizedRMSD>
0.614804029

$$$$
