
 OpenBabel03272509303D

 36 38  0  0  1  0  0  0  0  0999 V2000
   36.2490   30.7050   48.9890 C   0  0  2  0  0  0  0  0  0  0  0  0
   37.2300   31.5910   49.7000 C   0  0  0  0  0  0  0  0  0  0  0  0
   38.1540   30.8210   50.6210 C   0  0  0  0  0  0  0  0  0  0  0  0
   37.3360   30.0400   51.6460 C   0  0  0  0  0  0  0  0  0  0  0  0
   36.0690   29.4420   51.0900 C   0  0  0  0  0  0  0  0  0  0  0  0
   36.2220   29.3270   49.5620 C   0  0  1  0  0  0  0  0  0  0  0  0
   35.1860   31.0780   49.0320 H   0  0  0  0  0  0  0  0  0  0  0  0
   36.5830   32.1890   50.4260 H   0  0  0  0  0  0  0  0  0  0  0  0
   37.7390   32.3330   49.1150 H   0  0  0  0  0  0  0  0  0  0  0  0
   38.7690   31.5470   51.1580 H   0  0  0  0  0  0  0  0  0  0  0  0
   38.7950   30.0980   50.1010 H   0  0  0  0  0  0  0  0  0  0  0  0
   37.9910   29.2270   52.0350 H   0  0  0  0  0  0  0  0  0  0  0  0
   37.1530   30.7110   52.4950 H   0  0  0  0  0  0  0  0  0  0  0  0
   35.9470   28.4220   51.4970 H   0  0  0  0  0  0  0  0  0  0  0  0
   35.2210   30.0700   51.3740 H   0  0  0  0  0  0  0  0  0  0  0  0
   37.1780   28.8630   49.5130 H   0  0  0  0  0  0  0  0  0  0  0  0
   36.5680   30.6150   47.5390 C   0  0  0  0  0  0  0  0  0  0  0  0
   37.9040   30.8700   47.1930 C   0  0  0  0  0  0  0  0  0  0  0  0
   38.2290   30.7840   45.8320 C   0  0  0  0  0  0  0  0  0  0  0  0
   37.2360   30.4590   44.9330 N   0  0  0  0  0  0  0  0  0  0  0  0
   35.9460   30.2180   45.3270 C   0  0  0  0  0  0  0  0  0  0  0  0
   35.6350   30.3010   46.6320 N   0  0  0  0  0  0  0  0  0  0  0  0
   38.7590   31.1210   47.7870 H   0  0  0  0  0  0  0  0  0  0  0  0
   39.2030   30.9540   45.4240 H   0  0  0  0  0  0  0  0  0  0  0  0
   35.2150   29.9660   44.5720 H   0  0  0  0  0  0  0  0  0  0  0  0
   33.9150   28.3460   49.1330 C   0  0  0  0  0  0  0  0  0  0  0  0
   33.1240   29.0430   49.8640 O   0  0  0  0  0  0  0  0  0  0  0  0
   35.3180   28.4320   48.9360 N   0  0  0  0  0  0  0  0  0  0  0  0
   35.6720   27.7170   48.2220 H   0  0  0  0  0  0  0  0  0  0  0  0
   33.0970   27.3130   48.4310 C   0  0  0  0  0  0  0  0  0  0  0  0
   31.7810   27.1570   48.4700 N   0  0  0  0  0  0  0  0  0  0  0  0
   31.4720   26.0890   47.6800 C   0  0  0  0  0  0  0  0  0  0  0  0
   30.4650   25.7330   47.5260 H   0  0  0  0  0  0  0  0  0  0  0  0
   32.6170   25.6350   47.1880 N   0  0  0  0  0  0  0  0  0  0  0  0
   32.7500   24.8140   46.5360 H   0  0  0  0  0  0  0  0  0  0  0  0
   33.6080   26.3630   47.6320 N   0  0  0  0  0  0  0  0  0  0  0  0
  1  7  1  1  0  0  0
  1  6  1  0  0  0  0
  1  2  1  0  0  0  0
  2  8  1  0  0  0  0
  2  3  1  0  0  0  0
  3 10  1  0  0  0  0
  3  4  1  0  0  0  0
  4 12  1  0  0  0  0
  4 13  1  0  0  0  0
  5 15  1  0  0  0  0
  5 14  1  0  0  0  0
  5  4  1  0  0  0  0
  6 16  1  6  0  0  0
  6  5  1  0  0  0  0
  9  2  1  0  0  0  0
 11  3  1  0  0  0  0
 17  1  1  0  0  0  0
 18 17  1  0  0  0  0
 18 23  1  0  0  0  0
 19 18  2  0  0  0  0
 20 21  2  0  0  0  0
 20 19  1  0  0  0  0
 21 22  1  0  0  0  0
 22 17  2  0  0  0  0
 24 19  1  0  0  0  0
 25 21  1  0  0  0  0
 26 27  2  0  0  0  0
 28 26  1  0  0  0  0
 28  6  1  0  0  0  0
 29 28  1  0  0  0  0
 30 31  1  0  0  0  0
 30 26  1  0  0  0  0
 32 31  2  0  0  0  0
 33 32  1  0  0  0  0
 34 36  1  0  0  0  0
 34 32  1  0  0  0  0
 35 34  1  0  0  0  0
 36 30  2  0  0  0  0
M  END
>  <minimizedAffinity>
-5.7648344

>  <minimizedRMSD>
0.577010989

$$$$
