
 OpenBabel03272506133D

 42 45  0  0  1  0  0  0  0  0999 V2000
   38.4040   25.5190   33.2400 C   0  0  1  0  0  0  0  0  0  0  0  0
   39.0280   26.9410   32.9400 C   0  0  0  0  0  0  0  0  0  0  0  0
   40.3600   27.1270   33.6480 C   0  0  0  0  0  0  0  0  0  0  0  0
   40.2330   26.6680   35.0700 C   0  0  0  0  0  0  0  0  0  0  0  0
   38.7960   26.6650   35.4500 C   0  0  0  0  0  0  0  0  0  0  0  0
   38.0830   25.5740   34.6960 C   0  0  2  0  0  0  0  0  0  0  0  0
   39.1780   24.8190   33.2350 H   0  0  0  0  0  0  0  0  0  0  0  0
   38.3100   27.6290   33.4210 H   0  0  0  0  0  0  0  0  0  0  0  0
   39.0230   27.1570   31.8840 H   0  0  0  0  0  0  0  0  0  0  0  0
   40.5380   28.2150   33.6550 H   0  0  0  0  0  0  0  0  0  0  0  0
   41.1880   26.6600   33.1020 H   0  0  0  0  0  0  0  0  0  0  0  0
   40.7640   27.3860   35.7450 H   0  0  0  0  0  0  0  0  0  0  0  0
   40.6590   25.6720   35.1740 H   0  0  0  0  0  0  0  0  0  0  0  0
   38.3080   27.6370   35.4580 H   0  0  0  0  0  0  0  0  0  0  0  0
   38.7720   26.3290   36.5200 H   0  0  0  0  0  0  0  0  0  0  0  0
   37.0260   25.6930   34.9730 H   0  0  0  0  0  0  0  0  0  0  0  0
   36.8670   24.2630   31.8490 C   0  0  0  0  0  0  0  0  0  0  0  0
   35.6750   24.2850   31.1000 C   0  0  0  0  0  0  0  0  0  0  0  0
   34.9180   25.3840   30.8450 C   0  0  0  0  0  0  0  0  0  0  0  0
   35.3230   26.6110   31.3470 C   0  0  0  0  0  0  0  0  0  0  0  0
   36.4930   26.6110   32.0860 C   0  0  0  0  0  0  0  0  0  0  0  0
   37.2560   25.4840   32.3440 C   0  0  0  0  0  0  0  0  0  0  0  0
   35.1950   23.4000   30.6330 H   0  0  0  0  0  0  0  0  0  0  0  0
   34.0250   25.3570   30.2810 H   0  0  0  0  0  0  0  0  0  0  0  0
   34.7280   27.4960   31.1520 H   0  0  0  0  0  0  0  0  0  0  0  0
   36.7370   27.6110   32.4190 H   0  0  0  0  0  0  0  0  0  0  0  0
   36.8550   22.0210   32.7490 C   0  0  0  0  0  0  0  0  0  0  0  0
   37.4790   22.9910   31.9450 C   0  0  0  0  0  0  0  0  0  0  0  0
   38.6690   22.6260   31.3180 C   0  0  0  0  0  0  0  0  0  0  0  0
   39.1500   21.3580   31.5240 N   0  0  0  0  0  0  0  0  0  0  0  0
   38.5410   20.4580   32.2900 C   0  0  0  0  0  0  0  0  0  0  0  0
   37.3950   20.8010   32.8950 N   0  0  0  0  0  0  0  0  0  0  0  0
   35.9370   22.0610   33.3150 H   0  0  0  0  0  0  0  0  0  0  0  0
   39.3250   23.1260   30.7240 H   0  0  0  0  0  0  0  0  0  0  0  0
   38.9590   19.4490   32.4300 H   0  0  0  0  0  0  0  0  0  0  0  0
   38.3830   24.2450   35.3840 C   0  0  0  0  0  0  0  0  0  0  0  0
   39.2560   23.3220   35.0090 N   0  0  0  0  0  0  0  0  0  0  0  0
   39.2250   22.2810   35.8930 C   0  0  0  0  0  0  0  0  0  0  0  0
   39.7980   21.3660   35.8960 H   0  0  0  0  0  0  0  0  0  0  0  0
   38.3030   22.6100   36.8130 N   0  0  0  0  0  0  0  0  0  0  0  0
   37.9610   22.1050   37.6610 H   0  0  0  0  0  0  0  0  0  0  0  0
   37.8020   23.7840   36.5050 N   0  0  0  0  0  0  0  0  0  0  0  0
  1  7  1  6  0  0  0
  1  6  1  0  0  0  0
  2  1  1  0  0  0  0
  2  8  1  0  0  0  0
  2  3  1  0  0  0  0
  3 10  1  0  0  0  0
  3  4  1  0  0  0  0
  4 13  1  0  0  0  0
  4  5  1  0  0  0  0
  4 12  1  0  0  0  0
  5 14  1  0  0  0  0
  5 15  1  0  0  0  0
  6 16  1  1  0  0  0
  6 36  1  0  0  0  0
  6  5  1  0  0  0  0
  9  2  1  0  0  0  0
 11  3  1  0  0  0  0
 17 28  1  0  0  0  0
 17 22  1  0  0  0  0
 18 17  2  0  0  0  0
 19 18  1  0  0  0  0
 19 20  2  0  0  0  0
 20 21  1  0  0  0  0
 21 22  2  0  0  0  0
 21 26  1  0  0  0  0
 22  1  1  0  0  0  0
 23 18  1  0  0  0  0
 24 19  1  0  0  0  0
 25 20  1  0  0  0  0
 27 32  1  0  0  0  0
 27 33  1  0  0  0  0
 28 27  2  0  0  0  0
 29 30  2  0  0  0  0
 29 28  1  0  0  0  0
 30 31  1  0  0  0  0
 31 35  1  0  0  0  0
 31 32  2  0  0  0  0
 34 29  1  0  0  0  0
 36 42  2  0  0  0  0
 37 36  1  0  0  0  0
 37 38  2  0  0  0  0
 38 39  1  0  0  0  0
 38 40  1  0  0  0  0
 40 41  1  0  0  0  0
 42 40  1  0  0  0  0
M  END
>  <minimizedAffinity>
-5.70106363

$$$$

 OpenBabel03272506133D

 42 45  0  0  1  0  0  0  0  0999 V2000
   39.4680   24.7280   34.6980 C   0  0  1  0  0  0  0  0  0  0  0  0
   38.0850   24.5880   33.9450 C   0  0  0  0  0  0  0  0  0  0  0  0
   38.2140   24.9330   32.4700 C   0  0  0  0  0  0  0  0  0  0  0  0
   39.0010   26.2000   32.3250 C   0  0  0  0  0  0  0  0  0  0  0  0
   38.9590   26.9440   33.6120 C   0  0  0  0  0  0  0  0  0  0  0  0
   39.7500   26.1930   34.6490 C   0  0  2  0  0  0  0  0  0  0  0  0
   40.2170   24.3620   34.0700 H   0  0  0  0  0  0  0  0  0  0  0  0
   37.4730   25.3830   34.4080 H   0  0  0  0  0  0  0  0  0  0  0  0
   37.6110   23.6460   34.1670 H   0  0  0  0  0  0  0  0  0  0  0  0
   37.1850   25.1270   32.1240 H   0  0  0  0  0  0  0  0  0  0  0  0
   38.6070   24.0950   31.8820 H   0  0  0  0  0  0  0  0  0  0  0  0
   38.5320   26.8460   31.5410 H   0  0  0  0  0  0  0  0  0  0  0  0
   40.0280   25.9660   32.0520 H   0  0  0  0  0  0  0  0  0  0  0  0
   37.9780   27.2950   33.9220 H   0  0  0  0  0  0  0  0  0  0  0  0
   39.5500   27.8820   33.4330 H   0  0  0  0  0  0  0  0  0  0  0  0
   39.6020   26.7640   35.5760 H   0  0  0  0  0  0  0  0  0  0  0  0
   40.0190   23.2490   36.5370 C   0  0  0  0  0  0  0  0  0  0  0  0
   39.7410   22.8720   37.8650 C   0  0  0  0  0  0  0  0  0  0  0  0
   38.7280   23.3560   38.6320 C   0  0  0  0  0  0  0  0  0  0  0  0
   37.8710   24.3030   38.0950 C   0  0  0  0  0  0  0  0  0  0  0  0
   38.1270   24.6860   36.7900 C   0  0  0  0  0  0  0  0  0  0  0  0
   39.1640   24.1900   36.0170 C   0  0  0  0  0  0  0  0  0  0  0  0
   40.3250   22.1400   38.4590 H   0  0  0  0  0  0  0  0  0  0  0  0
   38.5570   23.0500   39.6290 H   0  0  0  0  0  0  0  0  0  0  0  0
   37.0590   24.6980   38.6950 H   0  0  0  0  0  0  0  0  0  0  0  0
   37.3980   25.4110   36.4520 H   0  0  0  0  0  0  0  0  0  0  0  0
   42.3650   22.6760   36.5910 C   0  0  0  0  0  0  0  0  0  0  0  0
   41.1170   22.5760   35.9510 C   0  0  0  0  0  0  0  0  0  0  0  0
   41.0640   21.8320   34.7740 C   0  0  0  0  0  0  0  0  0  0  0  0
   42.2210   21.2530   34.3190 N   0  0  0  0  0  0  0  0  0  0  0  0
   43.3900   21.3630   34.9420 C   0  0  0  0  0  0  0  0  0  0  0  0
   43.4490   22.0750   36.0750 N   0  0  0  0  0  0  0  0  0  0  0  0
   42.6500   23.1760   37.5030 H   0  0  0  0  0  0  0  0  0  0  0  0
   40.3200   21.6290   34.1120 H   0  0  0  0  0  0  0  0  0  0  0  0
   44.2980   20.8820   34.5430 H   0  0  0  0  0  0  0  0  0  0  0  0
   41.2320   26.4680   34.4100 C   0  0  0  0  0  0  0  0  0  0  0  0
   42.2570   25.6840   34.7110 N   0  0  0  0  0  0  0  0  0  0  0  0
   43.4210   26.2910   34.3330 C   0  0  0  0  0  0  0  0  0  0  0  0
   44.4380   25.9430   34.4260 H   0  0  0  0  0  0  0  0  0  0  0  0
   43.0600   27.4680   33.7940 N   0  0  0  0  0  0  0  0  0  0  0  0
   43.6270   28.2420   33.3810 H   0  0  0  0  0  0  0  0  0  0  0  0
   41.7520   27.5700   33.8420 N   0  0  0  0  0  0  0  0  0  0  0  0
  1  7  1  6  0  0  0
  1 22  1  0  0  0  0
  2  9  1  0  0  0  0
  2  8  1  0  0  0  0
  2  1  1  0  0  0  0
  3  2  1  0  0  0  0
  4  3  1  0  0  0  0
  4  5  1  0  0  0  0
  5 14  1  0  0  0  0
  5  6  1  0  0  0  0
  6  1  1  0  0  0  0
  6 16  1  1  0  0  0
 10  3  1  0  0  0  0
 11  3  1  0  0  0  0
 12  4  1  0  0  0  0
 13  4  1  0  0  0  0
 15  5  1  0  0  0  0
 17 18  1  0  0  0  0
 18 23  1  0  0  0  0
 18 19  2  0  0  0  0
 19 24  1  0  0  0  0
 20 19  1  0  0  0  0
 20 25  1  0  0  0  0
 21 20  2  0  0  0  0
 22 17  2  0  0  0  0
 22 21  1  0  0  0  0
 26 21  1  0  0  0  0
 27 33  1  0  0  0  0
 28 17  1  0  0  0  0
 28 27  2  0  0  0  0
 29 28  1  0  0  0  0
 30 29  2  0  0  0  0
 30 31  1  0  0  0  0
 31 32  2  0  0  0  0
 32 27  1  0  0  0  0
 34 29  1  0  0  0  0
 35 31  1  0  0  0  0
 36  6  1  0  0  0  0
 36 37  1  0  0  0  0
 38 39  1  0  0  0  0
 38 37  2  0  0  0  0
 40 42  1  0  0  0  0
 40 38  1  0  0  0  0
 41 40  1  0  0  0  0
 42 36  2  0  0  0  0
M  END
>  <minimizedAffinity>
-5.66728306

$$$$

 OpenBabel03272506133D

 42 45  0  0  1  0  0  0  0  0999 V2000
   37.9130   26.7780   34.0620 C   0  0  1  0  0  0  0  0  0  0  0  0
   37.7530   28.1040   34.9100 C   0  0  0  0  0  0  0  0  0  0  0  0
   36.3020   28.5510   34.9780 C   0  0  0  0  0  0  0  0  0  0  0  0
   35.6980   28.4810   33.6080 C   0  0  0  0  0  0  0  0  0  0  0  0
   36.7880   28.4940   32.5980 C   0  0  0  0  0  0  0  0  0  0  0  0
   37.5560   27.2010   32.6760 C   0  0  2  0  0  0  0  0  0  0  0  0
   37.1120   26.1500   34.2900 H   0  0  0  0  0  0  0  0  0  0  0  0
   38.2910   28.8510   34.3000 H   0  0  0  0  0  0  0  0  0  0  0  0
   38.2660   28.0300   35.8550 H   0  0  0  0  0  0  0  0  0  0  0  0
   36.3360   29.6100   35.2830 H   0  0  0  0  0  0  0  0  0  0  0  0
   35.7360   28.0060   35.7420 H   0  0  0  0  0  0  0  0  0  0  0  0
   35.0590   29.3830   33.4330 H   0  0  0  0  0  0  0  0  0  0  0  0
   35.1000   27.5760   33.5160 H   0  0  0  0  0  0  0  0  0  0  0  0
   37.3860   29.4010   32.5600 H   0  0  0  0  0  0  0  0  0  0  0  0
   36.2720   28.4540   31.6020 H   0  0  0  0  0  0  0  0  0  0  0  0
   38.3810   27.3260   31.9610 H   0  0  0  0  0  0  0  0  0  0  0  0
   39.5960   25.2420   34.8870 C   0  0  0  0  0  0  0  0  0  0  0  0
   40.9650   24.9150   34.9390 C   0  0  0  0  0  0  0  0  0  0  0  0
   41.9800   25.6720   34.4450 C   0  0  0  0  0  0  0  0  0  0  0  0
   41.6830   26.8790   33.8310 C   0  0  0  0  0  0  0  0  0  0  0  0
   40.3420   27.2170   33.7710 C   0  0  0  0  0  0  0  0  0  0  0  0
   39.3140   26.4380   34.2740 C   0  0  0  0  0  0  0  0  0  0  0  0
   41.3860   23.9880   35.3800 H   0  0  0  0  0  0  0  0  0  0  0  0
   42.9960   25.3880   34.5010 H   0  0  0  0  0  0  0  0  0  0  0  0
   42.4830   27.4920   33.4330 H   0  0  0  0  0  0  0  0  0  0  0  0
   40.2100   28.1790   33.2930 H   0  0  0  0  0  0  0  0  0  0  0  0
   38.2380   24.5930   36.7780 C   0  0  0  0  0  0  0  0  0  0  0  0
   38.7410   24.2940   35.4990 C   0  0  0  0  0  0  0  0  0  0  0  0
   38.3680   23.0730   34.9400 C   0  0  0  0  0  0  0  0  0  0  0  0
   37.5470   22.2490   35.6660 N   0  0  0  0  0  0  0  0  0  0  0  0
   37.0850   22.5540   36.8750 C   0  0  0  0  0  0  0  0  0  0  0  0
   37.4370   23.7280   37.4190 N   0  0  0  0  0  0  0  0  0  0  0  0
   38.3710   25.4640   37.4000 H   0  0  0  0  0  0  0  0  0  0  0  0
   38.6050   22.6060   34.0690 H   0  0  0  0  0  0  0  0  0  0  0  0
   36.4270   21.8650   37.4260 H   0  0  0  0  0  0  0  0  0  0  0  0
   36.7490   26.1240   31.9560 C   0  0  0  0  0  0  0  0  0  0  0  0
   36.7140   24.8270   32.2250 N   0  0  0  0  0  0  0  0  0  0  0  0
   35.8690   24.2030   31.3520 C   0  0  0  0  0  0  0  0  0  0  0  0
   35.6030   23.1600   31.2810 H   0  0  0  0  0  0  0  0  0  0  0  0
   35.3970   25.1700   30.5470 N   0  0  0  0  0  0  0  0  0  0  0  0
   34.7290   25.1370   29.7450 H   0  0  0  0  0  0  0  0  0  0  0  0
   35.9260   26.3160   30.9110 N   0  0  0  0  0  0  0  0  0  0  0  0
  1 22  1  0  0  0  0
  1  7  1  1  0  0  0
  1  2  1  0  0  0  0
  2  3  1  0  0  0  0
  2  9  1  0  0  0  0
  3 10  1  0  0  0  0
  3 11  1  0  0  0  0
  4  3  1  0  0  0  0
  5  6  1  0  0  0  0
  5  4  1  0  0  0  0
  6 16  1  6  0  0  0
  6  1  1  0  0  0  0
  8  2  1  0  0  0  0
 12  4  1  0  0  0  0
 13  4  1  0  0  0  0
 14  5  1  0  0  0  0
 15  5  1  0  0  0  0
 17 18  1  0  0  0  0
 17 28  1  0  0  0  0
 18 23  1  0  0  0  0
 19 24  1  0  0  0  0
 19 18  2  0  0  0  0
 20 19  1  0  0  0  0
 21 20  2  0  0  0  0
 21 22  1  0  0  0  0
 22 17  2  0  0  0  0
 25 20  1  0  0  0  0
 26 21  1  0  0  0  0
 27 33  1  0  0  0  0
 27 32  1  0  0  0  0
 28 27  2  0  0  0  0
 29 28  1  0  0  0  0
 29 30  2  0  0  0  0
 30 31  1  0  0  0  0
 31 32  2  0  0  0  0
 31 35  1  0  0  0  0
 34 29  1  0  0  0  0
 36 37  1  0  0  0  0
 36  6  1  0  0  0  0
 38 37  2  0  0  0  0
 39 38  1  0  0  0  0
 40 42  1  0  0  0  0
 40 38  1  0  0  0  0
 41 40  1  0  0  0  0
 42 36  2  0  0  0  0
M  END
>  <minimizedAffinity>
-5.61312008

$$$$

 OpenBabel03272506133D

 42 45  0  0  1  0  0  0  0  0999 V2000
   39.2450   24.3590   34.4580 C   0  0  1  0  0  0  0  0  0  0  0  0
   38.8740   23.7040   33.0670 C   0  0  0  0  0  0  0  0  0  0  0  0
   37.6570   22.8000   33.1830 C   0  0  0  0  0  0  0  0  0  0  0  0
   37.8050   21.9220   34.3890 C   0  0  0  0  0  0  0  0  0  0  0  0
   39.2420   21.8570   34.7650 C   0  0  0  0  0  0  0  0  0  0  0  0
   39.6820   23.1990   35.2890 C   0  0  2  0  0  0  0  0  0  0  0  0
   38.3570   24.6230   34.9390 H   0  0  0  0  0  0  0  0  0  0  0  0
   39.7410   23.0510   32.8650 H   0  0  0  0  0  0  0  0  0  0  0  0
   38.8370   24.4430   32.2830 H   0  0  0  0  0  0  0  0  0  0  0  0
   37.6830   22.1580   32.2870 H   0  0  0  0  0  0  0  0  0  0  0  0
   36.7170   23.3640   33.1570 H   0  0  0  0  0  0  0  0  0  0  0  0
   37.4690   20.8840   34.1410 H   0  0  0  0  0  0  0  0  0  0  0  0
   37.2120   22.3220   35.2090 H   0  0  0  0  0  0  0  0  0  0  0  0
   39.9000   21.3910   34.0360 H   0  0  0  0  0  0  0  0  0  0  0  0
   39.2850   21.1790   35.6590 H   0  0  0  0  0  0  0  0  0  0  0  0
   40.7600   23.0860   35.4660 H   0  0  0  0  0  0  0  0  0  0  0  0
   39.9290   26.6000   33.8410 C   0  0  0  0  0  0  0  0  0  0  0  0
   41.0050   27.4820   33.6240 C   0  0  0  0  0  0  0  0  0  0  0  0
   42.3220   27.1470   33.6460 C   0  0  0  0  0  0  0  0  0  0  0  0
   42.6780   25.8310   33.8970 C   0  0  0  0  0  0  0  0  0  0  0  0
   41.6340   24.9490   34.1120 C   0  0  0  0  0  0  0  0  0  0  0  0
   40.2940   25.3000   34.0920 C   0  0  0  0  0  0  0  0  0  0  0  0
   40.9120   28.5690   33.4220 H   0  0  0  0  0  0  0  0  0  0  0  0
   43.1010   27.8420   33.4830 H   0  0  0  0  0  0  0  0  0  0  0  0
   43.7250   25.5510   33.9180 H   0  0  0  0  0  0  0  0  0  0  0  0
   42.0070   23.9470   34.2810 H   0  0  0  0  0  0  0  0  0  0  0  0
   38.1640   27.4900   32.4510 C   0  0  0  0  0  0  0  0  0  0  0  0
   38.6500   27.1950   33.7380 C   0  0  0  0  0  0  0  0  0  0  0  0
   37.8340   27.5320   34.8170 C   0  0  0  0  0  0  0  0  0  0  0  0
   36.6240   28.1240   34.5570 N   0  0  0  0  0  0  0  0  0  0  0  0
   36.1880   28.3940   33.3300 C   0  0  0  0  0  0  0  0  0  0  0  0
   36.9660   28.0720   32.2870 N   0  0  0  0  0  0  0  0  0  0  0  0
   38.5990   27.3170   31.4790 H   0  0  0  0  0  0  0  0  0  0  0  0
   37.9480   27.4610   35.8240 H   0  0  0  0  0  0  0  0  0  0  0  0
   35.2090   28.8710   33.1630 H   0  0  0  0  0  0  0  0  0  0  0  0
   39.1950   23.3300   36.7300 C   0  0  0  0  0  0  0  0  0  0  0  0
   38.2420   24.1280   37.1890 N   0  0  0  0  0  0  0  0  0  0  0  0
   38.1060   23.9460   38.5360 C   0  0  0  0  0  0  0  0  0  0  0  0
   37.4320   24.4250   39.2290 H   0  0  0  0  0  0  0  0  0  0  0  0
   39.0110   23.0110   38.8710 N   0  0  0  0  0  0  0  0  0  0  0  0
   39.2480   22.5750   39.7910 H   0  0  0  0  0  0  0  0  0  0  0  0
   39.6600   22.6460   37.7890 N   0  0  0  0  0  0  0  0  0  0  0  0
  1  7  1  1  0  0  0
  1  6  1  0  0  0  0
  2  3  1  0  0  0  0
  2  1  1  0  0  0  0
  3  4  1  0  0  0  0
  4  5  1  0  0  0  0
  4 13  1  0  0  0  0
  5  6  1  0  0  0  0
  5 15  1  0  0  0  0
  6 16  1  1  0  0  0
  6 36  1  0  0  0  0
  8  2  1  0  0  0  0
  9  2  1  0  0  0  0
 10  3  1  0  0  0  0
 11  3  1  0  0  0  0
 12  4  1  0  0  0  0
 14  5  1  0  0  0  0
 17 22  1  0  0  0  0
 18 19  1  0  0  0  0
 18 17  2  0  0  0  0
 19 20  2  0  0  0  0
 20 25  1  0  0  0  0
 20 21  1  0  0  0  0
 21 26  1  0  0  0  0
 22 21  2  0  0  0  0
 22  1  1  0  0  0  0
 23 18  1  0  0  0  0
 24 19  1  0  0  0  0
 27 28  1  0  0  0  0
 28 17  1  0  0  0  0
 28 29  2  0  0  0  0
 29 34  1  0  0  0  0
 30 29  1  0  0  0  0
 31 30  2  0  0  0  0
 32 27  2  0  0  0  0
 32 31  1  0  0  0  0
 33 27  1  0  0  0  0
 35 31  1  0  0  0  0
 36 37  1  0  0  0  0
 36 42  2  0  0  0  0
 37 38  2  0  0  0  0
 38 40  1  0  0  0  0
 38 39  1  0  0  0  0
 40 41  1  0  0  0  0
 42 40  1  0  0  0  0
M  END
>  <minimizedAffinity>
-5.59897995

$$$$

 OpenBabel03272506133D

 42 45  0  0  1  0  0  0  0  0999 V2000
   38.3230   23.9080   33.1280 C   0  0  1  0  0  0  0  0  0  0  0  0
   39.5740   24.1870   32.2020 C   0  0  0  0  0  0  0  0  0  0  0  0
   40.8530   23.6320   32.8080 C   0  0  0  0  0  0  0  0  0  0  0  0
   40.9170   24.0080   34.2580 C   0  0  0  0  0  0  0  0  0  0  0  0
   40.0220   25.1710   34.4950 C   0  0  0  0  0  0  0  0  0  0  0  0
   38.5880   24.7380   34.3400 C   0  0  2  0  0  0  0  0  0  0  0  0
   38.4200   22.9460   33.5220 H   0  0  0  0  0  0  0  0  0  0  0  0
   39.6570   25.2880   32.2290 H   0  0  0  0  0  0  0  0  0  0  0  0
   39.3770   23.9040   31.1810 H   0  0  0  0  0  0  0  0  0  0  0  0
   41.6730   24.1490   32.2840 H   0  0  0  0  0  0  0  0  0  0  0  0
   40.9670   22.5580   32.6220 H   0  0  0  0  0  0  0  0  0  0  0  0
   41.9590   24.3200   34.5190 H   0  0  0  0  0  0  0  0  0  0  0  0
   40.6150   23.1610   34.8710 H   0  0  0  0  0  0  0  0  0  0  0  0
   40.2990   26.0920   33.9880 H   0  0  0  0  0  0  0  0  0  0  0  0
   40.1260   25.4090   35.5870 H   0  0  0  0  0  0  0  0  0  0  0  0
   38.0060   25.6630   34.4520 H   0  0  0  0  0  0  0  0  0  0  0  0
   36.3170   23.3970   31.8680 C   0  0  0  0  0  0  0  0  0  0  0  0
   35.1980   23.9080   31.1820 C   0  0  0  0  0  0  0  0  0  0  0  0
   34.9560   25.2210   30.9270 C   0  0  0  0  0  0  0  0  0  0  0  0
   35.8670   26.1710   31.3630 C   0  0  0  0  0  0  0  0  0  0  0  0
   36.9740   25.6880   32.0380 C   0  0  0  0  0  0  0  0  0  0  0  0
   37.2110   24.3480   32.2960 C   0  0  0  0  0  0  0  0  0  0  0  0
   34.3640   23.3010   30.7740 H   0  0  0  0  0  0  0  0  0  0  0  0
   34.0990   25.5650   30.4120 H   0  0  0  0  0  0  0  0  0  0  0  0
   35.6850   27.2210   31.1670 H   0  0  0  0  0  0  0  0  0  0  0  0
   37.6350   26.4970   32.3210 H   0  0  0  0  0  0  0  0  0  0  0  0
   37.0250   21.2640   30.9790 C   0  0  0  0  0  0  0  0  0  0  0  0
   36.3470   21.9870   31.9770 C   0  0  0  0  0  0  0  0  0  0  0  0
   35.7380   21.2500   32.9920 C   0  0  0  0  0  0  0  0  0  0  0  0
   35.8370   19.8820   32.9510 N   0  0  0  0  0  0  0  0  0  0  0  0
   36.4840   19.2220   31.9950 C   0  0  0  0  0  0  0  0  0  0  0  0
   37.0730   19.9240   31.0170 N   0  0  0  0  0  0  0  0  0  0  0  0
   37.5740   21.6050   30.1160 H   0  0  0  0  0  0  0  0  0  0  0  0
   35.1730   21.5080   33.7960 H   0  0  0  0  0  0  0  0  0  0  0  0
   36.5410   18.1220   31.9980 H   0  0  0  0  0  0  0  0  0  0  0  0
   38.1690   24.0120   35.6160 C   0  0  0  0  0  0  0  0  0  0  0  0
   38.0820   24.5160   36.8380 N   0  0  0  0  0  0  0  0  0  0  0  0
   37.6690   23.5420   37.7030 C   0  0  0  0  0  0  0  0  0  0  0  0
   37.4920   23.5980   38.7660 H   0  0  0  0  0  0  0  0  0  0  0  0
   37.5110   22.4350   36.9580 N   0  0  0  0  0  0  0  0  0  0  0  0
   37.2110   21.4670   37.2120 H   0  0  0  0  0  0  0  0  0  0  0  0
   37.8110   22.7200   35.7120 N   0  0  0  0  0  0  0  0  0  0  0  0
  1  7  1  1  0  0  0
  1  6  1  0  0  0  0
  2  8  1  0  0  0  0
  2  3  1  0  0  0  0
  2  1  1  0  0  0  0
  3  4  1  0  0  0  0
  4  5  1  0  0  0  0
  4 12  1  0  0  0  0
  4 13  1  0  0  0  0
  5 15  1  0  0  0  0
  6 16  1  6  0  0  0
  6  5  1  0  0  0  0
  6 36  1  0  0  0  0
  9  2  1  0  0  0  0
 10  3  1  0  0  0  0
 11  3  1  0  0  0  0
 14  5  1  0  0  0  0
 17 28  1  0  0  0  0
 17 22  1  0  0  0  0
 18 17  2  0  0  0  0
 19 18  1  0  0  0  0
 19 20  2  0  0  0  0
 20 21  1  0  0  0  0
 21 22  2  0  0  0  0
 21 26  1  0  0  0  0
 22  1  1  0  0  0  0
 23 18  1  0  0  0  0
 24 19  1  0  0  0  0
 25 20  1  0  0  0  0
 27 32  2  0  0  0  0
 27 28  1  0  0  0  0
 28 29  2  0  0  0  0
 29 34  1  0  0  0  0
 30 29  1  0  0  0  0
 31 35  1  0  0  0  0
 31 30  2  0  0  0  0
 32 31  1  0  0  0  0
 33 27  1  0  0  0  0
 36 42  2  0  0  0  0
 36 37  1  0  0  0  0
 37 38  2  0  0  0  0
 38 39  1  0  0  0  0
 40 41  1  0  0  0  0
 40 38  1  0  0  0  0
 42 40  1  0  0  0  0
M  END
>  <minimizedAffinity>
-5.55262327

$$$$

 OpenBabel03272506133D

 42 45  0  0  1  0  0  0  0  0999 V2000
   38.7330   23.9940   35.2580 C   0  0  1  0  0  0  0  0  0  0  0  0
   40.2300   24.3090   35.6590 C   0  0  0  0  0  0  0  0  0  0  0  0
   40.9830   23.0450   36.0430 C   0  0  0  0  0  0  0  0  0  0  0  0
   40.1340   22.2250   36.9680 C   0  0  0  0  0  0  0  0  0  0  0  0
   39.1070   23.1040   37.5860 C   0  0  0  0  0  0  0  0  0  0  0  0
   38.1160   23.5290   36.5350 C   0  0  2  0  0  0  0  0  0  0  0  0
   38.7250   23.1110   34.7020 H   0  0  0  0  0  0  0  0  0  0  0  0
   40.1160   24.9070   36.5800 H   0  0  0  0  0  0  0  0  0  0  0  0
   40.7090   24.9360   34.9250 H   0  0  0  0  0  0  0  0  0  0  0  0
   41.8660   23.3900   36.6050 H   0  0  0  0  0  0  0  0  0  0  0  0
   41.3440   22.4950   35.1660 H   0  0  0  0  0  0  0  0  0  0  0  0
   40.7690   21.8100   37.7900 H   0  0  0  0  0  0  0  0  0  0  0  0
   39.6630   21.4160   36.4140 H   0  0  0  0  0  0  0  0  0  0  0  0
   39.4860   23.8930   38.2310 H   0  0  0  0  0  0  0  0  0  0  0  0
   38.5190   22.4380   38.2720 H   0  0  0  0  0  0  0  0  0  0  0  0
   37.4470   24.2300   37.0540 H   0  0  0  0  0  0  0  0  0  0  0  0
   37.8920   25.3640   33.4450 C   0  0  0  0  0  0  0  0  0  0  0  0
   37.3230   26.5970   33.0690 C   0  0  0  0  0  0  0  0  0  0  0  0
   37.1260   27.6620   33.8900 C   0  0  0  0  0  0  0  0  0  0  0  0
   37.5070   27.5670   35.2200 C   0  0  0  0  0  0  0  0  0  0  0  0
   38.0690   26.3640   35.6080 C   0  0  0  0  0  0  0  0  0  0  0  0
   38.2630   25.2820   34.7650 C   0  0  0  0  0  0  0  0  0  0  0  0
   36.9510   26.8480   32.0550 H   0  0  0  0  0  0  0  0  0  0  0  0
   36.6910   28.5700   33.5700 H   0  0  0  0  0  0  0  0  0  0  0  0
   37.3560   28.4090   35.8850 H   0  0  0  0  0  0  0  0  0  0  0  0
   38.3500   26.3900   36.6520 H   0  0  0  0  0  0  0  0  0  0  0  0
   36.8900   23.6300   32.0930 C   0  0  0  0  0  0  0  0  0  0  0  0
   38.0100   24.4260   32.3930 C   0  0  0  0  0  0  0  0  0  0  0  0
   39.1610   24.2130   31.6350 C   0  0  0  0  0  0  0  0  0  0  0  0
   39.1280   23.2500   30.6590 N   0  0  0  0  0  0  0  0  0  0  0  0
   38.0560   22.5090   30.3960 C   0  0  0  0  0  0  0  0  0  0  0  0
   36.9440   22.7090   31.1190 N   0  0  0  0  0  0  0  0  0  0  0  0
   35.9010   23.6180   32.5240 H   0  0  0  0  0  0  0  0  0  0  0  0
   40.0940   24.6140   31.6600 H   0  0  0  0  0  0  0  0  0  0  0  0
   38.0690   21.7450   29.6030 H   0  0  0  0  0  0  0  0  0  0  0  0
   37.1470   22.3740   36.2980 C   0  0  0  0  0  0  0  0  0  0  0  0
   36.9870   21.6710   35.1860 N   0  0  0  0  0  0  0  0  0  0  0  0
   36.0220   20.7230   35.3820 C   0  0  0  0  0  0  0  0  0  0  0  0
   35.6390   19.9830   34.6970 H   0  0  0  0  0  0  0  0  0  0  0  0
   35.6070   20.8820   36.6500 N   0  0  0  0  0  0  0  0  0  0  0  0
   34.8860   20.3740   37.2100 H   0  0  0  0  0  0  0  0  0  0  0  0
   36.2810   21.8690   37.1940 N   0  0  0  0  0  0  0  0  0  0  0  0
  1  7  1  6  0  0  0
  1  2  1  0  0  0  0
  1  6  1  0  0  0  0
  2  3  1  0  0  0  0
  2  8  1  0  0  0  0
  3 10  1  0  0  0  0
  3  4  1  0  0  0  0
  4  5  1  0  0  0  0
  4 12  1  0  0  0  0
  5 14  1  0  0  0  0
  5 15  1  0  0  0  0
  6 16  1  1  0  0  0
  6  5  1  0  0  0  0
  9  2  1  0  0  0  0
 11  3  1  0  0  0  0
 13  4  1  0  0  0  0
 17 22  1  0  0  0  0
 18 17  2  0  0  0  0
 18 19  1  0  0  0  0
 19 20  2  0  0  0  0
 20 21  1  0  0  0  0
 20 25  1  0  0  0  0
 21 26  1  0  0  0  0
 22  1  1  0  0  0  0
 22 21  2  0  0  0  0
 23 18  1  0  0  0  0
 24 19  1  0  0  0  0
 27 28  1  0  0  0  0
 27 33  1  0  0  0  0
 28 17  1  0  0  0  0
 29 34  1  0  0  0  0
 29 28  2  0  0  0  0
 30 29  1  0  0  0  0
 31 30  2  0  0  0  0
 31 32  1  0  0  0  0
 32 27  2  0  0  0  0
 35 31  1  0  0  0  0
 36  6  1  0  0  0  0
 36 42  2  0  0  0  0
 37 38  2  0  0  0  0
 37 36  1  0  0  0  0
 38 40  1  0  0  0  0
 39 38  1  0  0  0  0
 40 42  1  0  0  0  0
 40 41  1  0  0  0  0
M  END
>  <minimizedAffinity>
-5.42226934

$$$$

 OpenBabel03272506133D

 42 45  0  0  1  0  0  0  0  0999 V2000
   37.7940   24.0790   32.3060 C   0  0  1  0  0  0  0  0  0  0  0  0
   37.8510   24.0950   30.7250 C   0  0  0  0  0  0  0  0  0  0  0  0
   38.7460   25.2100   30.2100 C   0  0  0  0  0  0  0  0  0  0  0  0
   38.4290   26.4780   30.9440 C   0  0  0  0  0  0  0  0  0  0  0  0
   37.0700   26.3660   31.5350 C   0  0  0  0  0  0  0  0  0  0  0  0
   37.0910   25.3500   32.6460 C   0  0  2  0  0  0  0  0  0  0  0  0
   38.7520   24.2800   32.6660 H   0  0  0  0  0  0  0  0  0  0  0  0
   36.8150   24.3590   30.4460 H   0  0  0  0  0  0  0  0  0  0  0  0
   38.0510   23.1120   30.3300 H   0  0  0  0  0  0  0  0  0  0  0  0
   38.4640   25.3470   29.1530 H   0  0  0  0  0  0  0  0  0  0  0  0
   39.8070   24.9350   30.2360 H   0  0  0  0  0  0  0  0  0  0  0  0
   38.4200   27.3360   30.2250 H   0  0  0  0  0  0  0  0  0  0  0  0
   39.1720   26.6490   31.7200 H   0  0  0  0  0  0  0  0  0  0  0  0
   36.2510   26.2790   30.8250 H   0  0  0  0  0  0  0  0  0  0  0  0
   36.8890   27.3450   32.0540 H   0  0  0  0  0  0  0  0  0  0  0  0
   36.0430   25.2740   32.9700 H   0  0  0  0  0  0  0  0  0  0  0  0
   37.3240   22.1910   33.7510 C   0  0  0  0  0  0  0  0  0  0  0  0
   36.4790   21.0960   34.0160 C   0  0  0  0  0  0  0  0  0  0  0  0
   35.4570   20.6730   33.2260 C   0  0  0  0  0  0  0  0  0  0  0  0
   35.1930   21.3510   32.0460 C   0  0  0  0  0  0  0  0  0  0  0  0
   36.0130   22.4300   31.7680 C   0  0  0  0  0  0  0  0  0  0  0  0
   37.0510   22.8560   32.5810 C   0  0  0  0  0  0  0  0  0  0  0  0
   36.5340   20.4470   34.9140 H   0  0  0  0  0  0  0  0  0  0  0  0
   34.8420   19.8470   33.4640 H   0  0  0  0  0  0  0  0  0  0  0  0
   34.3810   21.0250   31.4070 H   0  0  0  0  0  0  0  0  0  0  0  0
   35.7450   22.8830   30.8220 H   0  0  0  0  0  0  0  0  0  0  0  0
   37.9390   22.9200   35.9710 C   0  0  0  0  0  0  0  0  0  0  0  0
   38.3310   22.4070   34.7210 C   0  0  0  0  0  0  0  0  0  0  0  0
   39.6910   22.1670   34.5320 C   0  0  0  0  0  0  0  0  0  0  0  0
   40.5500   22.4460   35.5640 N   0  0  0  0  0  0  0  0  0  0  0  0
   40.1550   22.9320   36.7360 C   0  0  0  0  0  0  0  0  0  0  0  0
   38.8480   23.1640   36.9270 N   0  0  0  0  0  0  0  0  0  0  0  0
   36.9620   23.1700   36.3530 H   0  0  0  0  0  0  0  0  0  0  0  0
   40.2350   21.8370   33.7390 H   0  0  0  0  0  0  0  0  0  0  0  0
   40.8770   23.1430   37.5410 H   0  0  0  0  0  0  0  0  0  0  0  0
   37.6970   26.0090   33.8830 C   0  0  0  0  0  0  0  0  0  0  0  0
   38.9480   25.9240   34.3100 N   0  0  0  0  0  0  0  0  0  0  0  0
   39.0900   26.6600   35.4520 C   0  0  0  0  0  0  0  0  0  0  0  0
   39.9650   26.8140   36.0650 H   0  0  0  0  0  0  0  0  0  0  0  0
   37.8800   27.1900   35.6970 N   0  0  0  0  0  0  0  0  0  0  0  0
   37.5410   27.8140   36.4630 H   0  0  0  0  0  0  0  0  0  0  0  0
   37.0500   26.7990   34.7570 N   0  0  0  0  0  0  0  0  0  0  0  0
  1 22  1  0  0  0  0
  1  6  1  0  0  0  0
  1  7  1  1  0  0  0
  2  1  1  0  0  0  0
  3 11  1  0  0  0  0
  3  2  1  0  0  0  0
  3  4  1  0  0  0  0
  4  5  1  0  0  0  0
  4 13  1  0  0  0  0
  5 15  1  0  0  0  0
  5  6  1  0  0  0  0
  6 16  1  1  0  0  0
  6 36  1  0  0  0  0
  8  2  1  0  0  0  0
  9  2  1  0  0  0  0
 10  3  1  0  0  0  0
 12  4  1  0  0  0  0
 14  5  1  0  0  0  0
 17 18  1  0  0  0  0
 17 28  1  0  0  0  0
 18 23  1  0  0  0  0
 19 24  1  0  0  0  0
 19 18  2  0  0  0  0
 20 19  1  0  0  0  0
 21 20  2  0  0  0  0
 21 22  1  0  0  0  0
 22 17  2  0  0  0  0
 25 20  1  0  0  0  0
 26 21  1  0  0  0  0
 27 33  1  0  0  0  0
 27 32  1  0  0  0  0
 28 27  2  0  0  0  0
 29 28  1  0  0  0  0
 29 30  2  0  0  0  0
 30 31  1  0  0  0  0
 31 32  2  0  0  0  0
 31 35  1  0  0  0  0
 34 29  1  0  0  0  0
 36 37  1  0  0  0  0
 36 42  2  0  0  0  0
 37 38  2  0  0  0  0
 38 40  1  0  0  0  0
 38 39  1  0  0  0  0
 40 41  1  0  0  0  0
 42 40  1  0  0  0  0
M  END
>  <minimizedAffinity>
-5.41275311

$$$$

 OpenBabel03272506133D

 42 45  0  0  1  0  0  0  0  0999 V2000
   36.4990   27.5600   31.9140 C   0  0  1  0  0  0  0  0  0  0  0  0
   35.9180   26.5400   30.8540 C   0  0  0  0  0  0  0  0  0  0  0  0
   35.6730   25.1720   31.4700 C   0  0  0  0  0  0  0  0  0  0  0  0
   36.8650   24.7780   32.2890 C   0  0  0  0  0  0  0  0  0  0  0  0
   38.0410   25.5680   31.8410 C   0  0  0  0  0  0  0  0  0  0  0  0
   37.8510   27.0100   32.2290 C   0  0  2  0  0  0  0  0  0  0  0  0
   36.0050   27.4010   32.8200 H   0  0  0  0  0  0  0  0  0  0  0  0
   36.7550   26.4260   30.1410 H   0  0  0  0  0  0  0  0  0  0  0  0
   35.0900   26.9670   30.3120 H   0  0  0  0  0  0  0  0  0  0  0  0
   35.5980   24.4770   30.6180 H   0  0  0  0  0  0  0  0  0  0  0  0
   34.7230   25.1290   32.0170 H   0  0  0  0  0  0  0  0  0  0  0  0
   37.0950   23.6960   32.1190 H   0  0  0  0  0  0  0  0  0  0  0  0
   36.6620   24.9560   33.3430 H   0  0  0  0  0  0  0  0  0  0  0  0
   38.3710   25.3880   30.8210 H   0  0  0  0  0  0  0  0  0  0  0  0
   38.8960   25.2180   32.4790 H   0  0  0  0  0  0  0  0  0  0  0  0
   38.7160   27.5300   31.7950 H   0  0  0  0  0  0  0  0  0  0  0  0
   35.8320   29.8830   31.7460 C   0  0  0  0  0  0  0  0  0  0  0  0
   35.9730   31.0990   31.0500 C   0  0  0  0  0  0  0  0  0  0  0  0
   36.6820   31.2790   29.9040 C   0  0  0  0  0  0  0  0  0  0  0  0
   37.3370   30.1950   29.3400 C   0  0  0  0  0  0  0  0  0  0  0  0
   37.2090   28.9910   30.0100 C   0  0  0  0  0  0  0  0  0  0  0  0
   36.4870   28.8170   31.1790 C   0  0  0  0  0  0  0  0  0  0  0  0
   35.5320   32.0690   31.3580 H   0  0  0  0  0  0  0  0  0  0  0  0
   36.7680   32.2110   29.4140 H   0  0  0  0  0  0  0  0  0  0  0  0
   37.9060   30.3240   28.4270 H   0  0  0  0  0  0  0  0  0  0  0  0
   37.7350   28.2030   29.4880 H   0  0  0  0  0  0  0  0  0  0  0  0
   33.7130   29.4400   32.8180 C   0  0  0  0  0  0  0  0  0  0  0  0
   35.0170   29.9580   32.9010 C   0  0  0  0  0  0  0  0  0  0  0  0
   35.4000   30.5230   34.1160 C   0  0  0  0  0  0  0  0  0  0  0  0
   34.4890   30.5390   35.1410 N   0  0  0  0  0  0  0  0  0  0  0  0
   33.2600   30.0430   35.0380 C   0  0  0  0  0  0  0  0  0  0  0  0
   32.8840   29.4970   33.8730 N   0  0  0  0  0  0  0  0  0  0  0  0
   33.2000   28.9510   32.0040 H   0  0  0  0  0  0  0  0  0  0  0  0
   36.2490   30.9840   34.4320 H   0  0  0  0  0  0  0  0  0  0  0  0
   32.5570   30.0750   35.8850 H   0  0  0  0  0  0  0  0  0  0  0  0
   38.1780   27.1530   33.7120 C   0  0  0  0  0  0  0  0  0  0  0  0
   39.3030   26.8140   34.3260 N   0  0  0  0  0  0  0  0  0  0  0  0
   39.2000   27.1030   35.6570 C   0  0  0  0  0  0  0  0  0  0  0  0
   39.9200   26.9600   36.4480 H   0  0  0  0  0  0  0  0  0  0  0  0
   37.9740   27.6270   35.8230 N   0  0  0  0  0  0  0  0  0  0  0  0
   37.4830   27.9830   36.6740 H   0  0  0  0  0  0  0  0  0  0  0  0
   37.3670   27.6550   34.6590 N   0  0  0  0  0  0  0  0  0  0  0  0
  1  6  1  0  0  0  0
  1  7  1  1  0  0  0
  2  3  1  0  0  0  0
  2  1  1  0  0  0  0
  3 11  1  0  0  0  0
  3  4  1  0  0  0  0
  4 13  1  0  0  0  0
  5  6  1  0  0  0  0
  5  4  1  0  0  0  0
  5 15  1  0  0  0  0
  6 16  1  6  0  0  0
  6 36  1  0  0  0  0
  8  2  1  0  0  0  0
  9  2  1  0  0  0  0
 10  3  1  0  0  0  0
 12  4  1  0  0  0  0
 14  5  1  0  0  0  0
 17 28  1  0  0  0  0
 18 23  1  0  0  0  0
 18 17  2  0  0  0  0
 19 18  1  0  0  0  0
 20 19  2  0  0  0  0
 20 21  1  0  0  0  0
 21 22  2  0  0  0  0
 22 17  1  0  0  0  0
 22  1  1  0  0  0  0
 24 19  1  0  0  0  0
 25 20  1  0  0  0  0
 26 21  1  0  0  0  0
 27 28  2  0  0  0  0
 27 32  1  0  0  0  0
 28 29  1  0  0  0  0
 29 34  1  0  0  0  0
 29 30  2  0  0  0  0
 31 30  1  0  0  0  0
 31 35  1  0  0  0  0
 32 31  2  0  0  0  0
 33 27  1  0  0  0  0
 36 37  1  0  0  0  0
 36 42  2  0  0  0  0
 37 38  2  0  0  0  0
 38 40  1  0  0  0  0
 38 39  1  0  0  0  0
 40 41  1  0  0  0  0
 42 40  1  0  0  0  0
M  END
>  <minimizedAffinity>
-5.38767958

$$$$

 OpenBabel03272506133D

 42 45  0  0  1  0  0  0  0  0999 V2000
   38.0920   26.8120   33.2780 C   0  0  1  0  0  0  0  0  0  0  0  0
   38.9930   27.1400   34.5360 C   0  0  0  0  0  0  0  0  0  0  0  0
   40.1530   26.1660   34.6610 C   0  0  0  0  0  0  0  0  0  0  0  0
   39.6480   24.7680   34.4660 C   0  0  0  0  0  0  0  0  0  0  0  0
   38.1830   24.7450   34.7150 C   0  0  0  0  0  0  0  0  0  0  0  0
   37.4780   25.4950   33.6170 C   0  0  2  0  0  0  0  0  0  0  0  0
   38.7220   26.5400   32.4910 H   0  0  0  0  0  0  0  0  0  0  0  0
   38.3120   26.9400   35.3830 H   0  0  0  0  0  0  0  0  0  0  0  0
   39.2520   28.1860   34.5710 H   0  0  0  0  0  0  0  0  0  0  0  0
   40.5040   26.2610   35.7020 H   0  0  0  0  0  0  0  0  0  0  0  0
   40.9900   26.4320   34.0050 H   0  0  0  0  0  0  0  0  0  0  0  0
   40.1330   24.0870   35.2110 H   0  0  0  0  0  0  0  0  0  0  0  0
   39.8710   24.4350   33.4550 H   0  0  0  0  0  0  0  0  0  0  0  0
   37.8720   24.9810   35.7300 H   0  0  0  0  0  0  0  0  0  0  0  0
   37.8730   23.6760   34.5680 H   0  0  0  0  0  0  0  0  0  0  0  0
   36.4210   25.4970   33.9180 H   0  0  0  0  0  0  0  0  0  0  0  0
   37.0350   28.6200   32.0580 C   0  0  0  0  0  0  0  0  0  0  0  0
   36.0380   29.6140   32.0600 C   0  0  0  0  0  0  0  0  0  0  0  0
   35.2400   29.9340   33.1130 C   0  0  0  0  0  0  0  0  0  0  0  0
   35.3930   29.2470   34.3070 C   0  0  0  0  0  0  0  0  0  0  0  0
   36.3690   28.2660   34.3240 C   0  0  0  0  0  0  0  0  0  0  0  0
   37.1750   27.9440   33.2450 C   0  0  0  0  0  0  0  0  0  0  0  0
   35.7680   30.2530   31.1950 H   0  0  0  0  0  0  0  0  0  0  0  0
   34.4980   30.6850   33.0720 H   0  0  0  0  0  0  0  0  0  0  0  0
   34.7630   29.4920   35.1540 H   0  0  0  0  0  0  0  0  0  0  0  0
   36.4280   27.7990   35.2990 H   0  0  0  0  0  0  0  0  0  0  0  0
   37.0720   28.8380   29.6510 C   0  0  0  0  0  0  0  0  0  0  0  0
   37.7450   28.5010   30.8390 C   0  0  0  0  0  0  0  0  0  0  0  0
   39.0610   28.0570   30.7190 C   0  0  0  0  0  0  0  0  0  0  0  0
   39.6070   27.9770   29.4630 N   0  0  0  0  0  0  0  0  0  0  0  0
   38.9490   28.3010   28.3550 C   0  0  0  0  0  0  0  0  0  0  0  0
   37.6840   28.7300   28.4620 N   0  0  0  0  0  0  0  0  0  0  0  0
   36.0720   29.2110   29.4910 H   0  0  0  0  0  0  0  0  0  0  0  0
   39.7480   27.7290   31.3910 H   0  0  0  0  0  0  0  0  0  0  0  0
   39.4240   28.2220   27.3640 H   0  0  0  0  0  0  0  0  0  0  0  0
   37.3980   24.5860   32.3940 C   0  0  0  0  0  0  0  0  0  0  0  0
   37.0980   23.2950   32.3660 N   0  0  0  0  0  0  0  0  0  0  0  0
   37.1320   22.8480   31.0760 C   0  0  0  0  0  0  0  0  0  0  0  0
   36.9420   21.8590   30.6870 H   0  0  0  0  0  0  0  0  0  0  0  0
   37.4630   23.9140   30.3280 N   0  0  0  0  0  0  0  0  0  0  0  0
   37.6000   24.0210   29.2980 H   0  0  0  0  0  0  0  0  0  0  0  0
   37.6220   24.9500   31.1190 N   0  0  0  0  0  0  0  0  0  0  0  0
  1  7  1  6  0  0  0
  1  6  1  0  0  0  0
  1  2  1  0  0  0  0
  2  9  1  0  0  0  0
  2  3  1  0  0  0  0
  2  8  1  0  0  0  0
  3 10  1  0  0  0  0
  4  3  1  0  0  0  0
  4  5  1  0  0  0  0
  4 12  1  0  0  0  0
  5 14  1  0  0  0  0
  6 16  1  1  0  0  0
  6  5  1  0  0  0  0
 11  3  1  0  0  0  0
 13  4  1  0  0  0  0
 15  5  1  0  0  0  0
 17 18  2  0  0  0  0
 17 22  1  0  0  0  0
 18 19  1  0  0  0  0
 19 20  2  0  0  0  0
 20 21  1  0  0  0  0
 20 25  1  0  0  0  0
 21 26  1  0  0  0  0
 22  1  1  0  0  0  0
 22 21  2  0  0  0  0
 23 18  1  0  0  0  0
 24 19  1  0  0  0  0
 27 28  1  0  0  0  0
 28 17  1  0  0  0  0
 29 28  2  0  0  0  0
 29 34  1  0  0  0  0
 30 29  1  0  0  0  0
 31 32  1  0  0  0  0
 31 30  2  0  0  0  0
 32 27  2  0  0  0  0
 33 27  1  0  0  0  0
 35 31  1  0  0  0  0
 36  6  1  0  0  0  0
 37 36  1  0  0  0  0
 38 37  2  0  0  0  0
 39 38  1  0  0  0  0
 40 38  1  0  0  0  0
 40 42  1  0  0  0  0
 41 40  1  0  0  0  0
 42 36  2  0  0  0  0
M  END
>  <minimizedAffinity>
-5.30780792

$$$$
