
 OpenBabel03272507193D

 28 30  0  0  1  0  0  0  0  0999 V2000
   37.7390   31.3310   49.4210 C   0  0  0  0  0  0  0  0  0  0  0  0
   38.3540   32.5650   49.6190 C   0  0  0  0  0  0  0  0  0  0  0  0
   38.9330   33.1220   48.4820 C   0  0  0  0  0  0  0  0  0  0  0  0
   38.8820   32.4780   47.2690 N   0  0  0  0  0  0  0  0  0  0  0  0
   38.2700   31.2730   47.1270 C   0  0  0  0  0  0  0  0  0  0  0  0
   37.6910   30.6960   48.2180 N   0  0  0  0  0  0  0  0  0  0  0  0
   38.3820   33.0500   50.5680 H   0  0  0  0  0  0  0  0  0  0  0  0
   39.4380   34.0810   48.5260 H   0  0  0  0  0  0  0  0  0  0  0  0
   37.0930   30.7160   50.6210 C   0  0  1  0  0  0  0  0  0  0  0  0
   36.1100   29.6390   50.4990 C   0  0  2  0  0  0  0  0  0  0  0  0
   37.5200   29.2450   50.8120 C   0  0  0  0  0  0  0  0  0  0  0  0
   37.2170   31.3350   51.5480 H   0  0  0  0  0  0  0  0  0  0  0  0
   35.3120   29.7030   51.2920 H   0  0  0  0  0  0  0  0  0  0  0  0
   38.1220   28.7600   50.0360 H   0  0  0  0  0  0  0  0  0  0  0  0
   37.7250   28.9390   51.8530 H   0  0  0  0  0  0  0  0  0  0  0  0
   35.6020   29.3820   49.2330 O   0  0  0  0  0  0  0  0  0  0  0  0
   34.3130   29.2530   48.8360 C   0  0  0  0  0  0  0  0  0  0  0  0
   33.5990   28.2890   49.1860 O   0  0  0  0  0  0  0  0  0  0  0  0
   33.9830   30.3350   48.0230 N   0  0  0  0  0  0  0  0  0  0  0  0
   34.4930   30.7280   47.2320 H   0  0  0  0  0  0  0  0  0  0  0  0
   33.0810   30.7740   48.2980 H   0  0  0  0  0  0  0  0  0  0  0  0
   38.2650   30.6700   45.8210 C   0  0  0  0  0  0  0  0  0  0  0  0
   39.4190   30.2660   45.2120 N   0  0  0  0  0  0  0  0  0  0  0  0
   39.1450   29.7350   43.9990 C   0  0  0  0  0  0  0  0  0  0  0  0
   39.9790   29.3760   43.4180 H   0  0  0  0  0  0  0  0  0  0  0  0
   37.8110   29.8090   43.8520 N   0  0  0  0  0  0  0  0  0  0  0  0
   37.3620   29.4580   42.9890 H   0  0  0  0  0  0  0  0  0  0  0  0
   37.2730   30.3710   44.9430 N   0  0  0  0  0  0  0  0  0  0  0  0
  1  2  1  0  0  0  0
  1  9  1  0  0  0  0
  2  7  1  0  0  0  0
  3  8  1  0  0  0  0
  3  2  2  0  0  0  0
  4  3  1  0  0  0  0
  5  4  2  0  0  0  0
  5  6  1  0  0  0  0
  6  1  2  0  0  0  0
  9 11  1  0  0  0  0
  9 12  1  1  0  0  0
 10  9  1  0  0  0  0
 10 11  1  0  0  0  0
 10 13  1  1  0  0  0
 11 15  1  0  0  0  0
 14 11  1  0  0  0  0
 16 10  1  0  0  0  0
 17 18  2  0  0  0  0
 17 16  1  0  0  0  0
 19 21  1  0  0  0  0
 19 17  1  0  0  0  0
 20 19  1  0  0  0  0
 22  5  1  0  0  0  0
 23 22  1  0  0  0  0
 24 23  2  0  0  0  0
 25 24  1  0  0  0  0
 26 24  1  0  0  0  0
 26 28  1  0  0  0  0
 27 26  1  0  0  0  0
 28 22  2  0  0  0  0
M  END
>  <minimizedAffinity>
-5.42972231

>  <minimizedRMSD>
1.34271693

$$$$
