
 OpenBabel03272508513D

 27 29  0  0  1  0  0  0  0  0999 V2000
   38.6150   31.5840   48.5600 C   0  0  2  0  0  0  0  0  0  0  0  0
   38.8170   33.0060   48.8160 C   0  0  0  0  0  0  0  0  0  0  0  0
   37.9510   32.5100   47.6480 C   0  0  1  0  0  0  0  0  0  0  0  0
   39.4140   30.9540   48.0430 H   0  0  0  0  0  0  0  0  0  0  0  0
   39.7330   33.5050   48.5100 H   0  0  0  0  0  0  0  0  0  0  0  0
   38.3300   33.4930   49.6830 H   0  0  0  0  0  0  0  0  0  0  0  0
   36.9650   32.9640   47.7260 H   0  0  0  0  0  0  0  0  0  0  0  0
   36.1310   29.0820   49.6980 C   0  0  0  0  0  0  0  0  0  0  0  0
   36.2850   29.1320   51.1060 C   0  0  0  0  0  0  0  0  0  0  0  0
   37.2550   30.0370   51.6550 C   0  0  0  0  0  0  0  0  0  0  0  0
   37.9760   30.8010   50.7910 N   0  0  0  0  0  0  0  0  0  0  0  0
   37.7840   30.7100   49.4470 C   0  0  0  0  0  0  0  0  0  0  0  0
   36.8890   29.8780   48.8800 N   0  0  0  0  0  0  0  0  0  0  0  0
   35.3800   28.3730   49.3830 H   0  0  0  0  0  0  0  0  0  0  0  0
   35.7130   28.5270   51.7630 H   0  0  0  0  0  0  0  0  0  0  0  0
   37.3960   30.0980   52.7230 H   0  0  0  0  0  0  0  0  0  0  0  0
   38.0680   31.8770   45.2640 C   0  0  0  0  0  0  0  0  0  0  0  0
   37.0420   31.1700   45.4270 O   0  0  0  0  0  0  0  0  0  0  0  0
   38.5730   32.7010   46.3310 N   0  0  0  0  0  0  0  0  0  0  0  0
   39.3290   33.3840   46.1730 H   0  0  0  0  0  0  0  0  0  0  0  0
   38.7820   31.8880   43.9820 C   0  0  0  0  0  0  0  0  0  0  0  0
   39.6860   30.9950   43.4920 N   0  0  0  0  0  0  0  0  0  0  0  0
   40.0860   31.4080   42.2670 C   0  0  0  0  0  0  0  0  0  0  0  0
   40.8060   30.8500   41.6850 H   0  0  0  0  0  0  0  0  0  0  0  0
   39.4220   32.5700   41.9970 N   0  0  0  0  0  0  0  0  0  0  0  0
   39.6170   33.0280   41.0800 H   0  0  0  0  0  0  0  0  0  0  0  0
   38.6500   32.8350   43.0360 N   0  0  0  0  0  0  0  0  0  0  0  0
  1  4  1  6  0  0  0
  1  2  1  0  0  0  0
  1 12  1  0  0  0  0
  2  6  1  0  0  0  0
  3  7  1  1  0  0  0
  3  1  1  0  0  0  0
  3  2  1  0  0  0  0
  5  2  1  0  0  0  0
  8  9  1  0  0  0  0
  9 10  2  0  0  0  0
  9 15  1  0  0  0  0
 10 16  1  0  0  0  0
 11 10  1  0  0  0  0
 12 11  2  0  0  0  0
 13 12  1  0  0  0  0
 13  8  2  0  0  0  0
 14  8  1  0  0  0  0
 17 18  2  0  0  0  0
 17 19  1  0  0  0  0
 19  3  1  0  0  0  0
 20 19  1  0  0  0  0
 21 17  1  0  0  0  0
 22 21  1  0  0  0  0
 23 22  2  0  0  0  0
 24 23  1  0  0  0  0
 25 23  1  0  0  0  0
 25 27  1  0  0  0  0
 26 25  1  0  0  0  0
 27 21  2  0  0  0  0
M  END
>  <minimizedAffinity>
-5.15030479

>  <minimizedRMSD>
7.37037039

$$$$
