
 OpenBabel03272505483D

 32 35  0  0  0  0  0  0  0  0999 V2000
   38.4920   24.0930   37.0020 C   0  0  0  0  0  0  0  0  0  0  0  0
   37.9560   24.1800   38.3800 C   0  0  0  0  0  0  0  0  0  0  0  0
   37.3390   23.2220   37.3970 C   0  0  0  0  0  0  0  0  0  0  0  0
   38.5480   23.8290   39.2350 H   0  0  0  0  0  0  0  0  0  0  0  0
   37.3580   25.1090   38.6070 H   0  0  0  0  0  0  0  0  0  0  0  0
   36.3030   23.4510   37.0470 H   0  0  0  0  0  0  0  0  0  0  0  0
   37.5310   22.1420   37.4560 H   0  0  0  0  0  0  0  0  0  0  0  0
   41.7110   23.2380   35.3970 C   0  0  0  0  0  0  0  0  0  0  0  0
   42.1700   22.1650   36.1850 C   0  0  0  0  0  0  0  0  0  0  0  0
   41.3620   21.7390   37.2650 C   0  0  0  0  0  0  0  0  0  0  0  0
   40.1890   22.3820   37.4880 N   0  0  0  0  0  0  0  0  0  0  0  0
   39.7740   23.4200   36.7050 C   0  0  0  0  0  0  0  0  0  0  0  0
   40.5250   23.8460   35.6690 N   0  0  0  0  0  0  0  0  0  0  0  0
   42.2550   23.6350   34.5530 H   0  0  0  0  0  0  0  0  0  0  0  0
   43.1190   21.7110   35.9350 H   0  0  0  0  0  0  0  0  0  0  0  0
   41.7120   20.9160   37.8700 H   0  0  0  0  0  0  0  0  0  0  0  0
   38.2200   25.2320   36.0570 C   0  0  0  0  0  0  0  0  0  0  0  0
   38.5010   26.5130   36.4050 C   0  0  0  0  0  0  0  0  0  0  0  0
   38.2540   27.5540   35.5170 C   0  0  0  0  0  0  0  0  0  0  0  0
   37.7130   27.2410   34.2740 C   0  0  0  0  0  0  0  0  0  0  0  0
   37.4250   25.9220   33.9210 C   0  0  0  0  0  0  0  0  0  0  0  0
   37.6940   24.9670   34.8380 N   0  0  0  0  0  0  0  0  0  0  0  0
   38.8930   26.9100   37.3200 H   0  0  0  0  0  0  0  0  0  0  0  0
   38.4300   28.5920   35.6710 H   0  0  0  0  0  0  0  0  0  0  0  0
   37.4890   27.9890   33.5230 H   0  0  0  0  0  0  0  0  0  0  0  0
   36.8570   25.5470   32.6290 C   0  0  0  0  0  0  0  0  0  0  0  0
   36.6120   24.3150   32.0930 N   0  0  0  0  0  0  0  0  0  0  0  0
   36.0710   24.4920   30.8530 C   0  0  0  0  0  0  0  0  0  0  0  0
   35.7950   23.6410   30.2350 H   0  0  0  0  0  0  0  0  0  0  0  0
   35.9820   25.8290   30.6280 N   0  0  0  0  0  0  0  0  0  0  0  0
   35.5960   26.2320   29.7390 H   0  0  0  0  0  0  0  0  0  0  0  0
   36.4570   26.4650   31.7000 N   0  0  0  0  0  0  0  0  0  0  0  0
  1  3  1  0  0  0  0
  1  2  1  0  0  0  0
  2  5  1  0  0  0  0
  2  4  1  0  0  0  0
  3  7  1  0  0  0  0
  3  2  1  0  0  0  0
  6  3  1  0  0  0  0
  8 13  2  0  0  0  0
  8  9  1  0  0  0  0
  9 10  2  0  0  0  0
 10 11  1  0  0  0  0
 10 16  1  0  0  0  0
 12  1  1  0  0  0  0
 12 11  2  0  0  0  0
 13 12  1  0  0  0  0
 14  8  1  0  0  0  0
 15  9  1  0  0  0  0
 17 18  1  0  0  0  0
 17  1  1  0  0  0  0
 18 23  1  0  0  0  0
 19 24  1  0  0  0  0
 19 18  2  0  0  0  0
 20 19  1  0  0  0  0
 21 20  2  0  0  0  0
 21 22  1  0  0  0  0
 22 17  2  0  0  0  0
 25 20  1  0  0  0  0
 26 21  1  0  0  0  0
 27 26  1  0  0  0  0
 28 27  2  0  0  0  0
 29 28  1  0  0  0  0
 30 28  1  0  0  0  0
 30 32  1  0  0  0  0
 31 30  1  0  0  0  0
 32 26  2  0  0  0  0
M  END
>  <minimizedAffinity>
-5.73436117

$$$$

 OpenBabel03272505483D

 32 35  0  0  0  0  0  0  0  0999 V2000
   38.8460   25.7330   34.8400 C   0  0  0  0  0  0  0  0  0  0  0  0
   38.9690   27.1780   35.1390 C   0  0  0  0  0  0  0  0  0  0  0  0
   40.0950   26.4590   34.4480 C   0  0  0  0  0  0  0  0  0  0  0  0
   38.3450   27.9140   34.6150 H   0  0  0  0  0  0  0  0  0  0  0  0
   39.1380   27.4340   36.2240 H   0  0  0  0  0  0  0  0  0  0  0  0
   41.0420   26.3240   35.0260 H   0  0  0  0  0  0  0  0  0  0  0  0
   40.2780   26.5860   33.3720 H   0  0  0  0  0  0  0  0  0  0  0  0
   37.1780   23.4470   32.4610 C   0  0  0  0  0  0  0  0  0  0  0  0
   36.3560   24.3210   31.7230 C   0  0  0  0  0  0  0  0  0  0  0  0
   36.3870   25.6970   32.0480 C   0  0  0  0  0  0  0  0  0  0  0  0
   37.2020   26.1060   33.0510 N   0  0  0  0  0  0  0  0  0  0  0  0
   37.9850   25.2320   33.7480 C   0  0  0  0  0  0  0  0  0  0  0  0
   37.9760   23.9160   33.4580 N   0  0  0  0  0  0  0  0  0  0  0  0
   37.2250   22.3820   32.2880 H   0  0  0  0  0  0  0  0  0  0  0  0
   35.7370   23.9070   30.9390 H   0  0  0  0  0  0  0  0  0  0  0  0
   35.7580   26.3680   31.4830 H   0  0  0  0  0  0  0  0  0  0  0  0
   38.9310   24.7580   35.9840 C   0  0  0  0  0  0  0  0  0  0  0  0
   38.0530   24.8140   37.0170 C   0  0  0  0  0  0  0  0  0  0  0  0
   38.1370   23.9000   38.0620 C   0  0  0  0  0  0  0  0  0  0  0  0
   39.1410   22.9380   38.0130 C   0  0  0  0  0  0  0  0  0  0  0  0
   40.0420   22.8850   36.9470 C   0  0  0  0  0  0  0  0  0  0  0  0
   39.8940   23.8070   35.9710 N   0  0  0  0  0  0  0  0  0  0  0  0
   37.2510   25.4990   37.2070 H   0  0  0  0  0  0  0  0  0  0  0  0
   37.5130   23.8390   38.9220 H   0  0  0  0  0  0  0  0  0  0  0  0
   39.2790   22.1890   38.7820 H   0  0  0  0  0  0  0  0  0  0  0  0
   41.1100   21.8950   36.8530 C   0  0  0  0  0  0  0  0  0  0  0  0
   41.8710   21.5110   35.7870 N   0  0  0  0  0  0  0  0  0  0  0  0
   42.7390   20.5470   36.2100 C   0  0  0  0  0  0  0  0  0  0  0  0
   43.4480   20.0900   35.5230 H   0  0  0  0  0  0  0  0  0  0  0  0
   42.5130   20.3390   37.5330 N   0  0  0  0  0  0  0  0  0  0  0  0
   43.0540   19.6410   38.1000 H   0  0  0  0  0  0  0  0  0  0  0  0
   41.5290   21.1530   37.9210 N   0  0  0  0  0  0  0  0  0  0  0  0
  1  2  1  0  0  0  0
  1 17  1  0  0  0  0
  2  5  1  0  0  0  0
  3  1  1  0  0  0  0
  3  6  1  0  0  0  0
  3  2  1  0  0  0  0
  4  2  1  0  0  0  0
  7  3  1  0  0  0  0
  8 13  1  0  0  0  0
  9 10  1  0  0  0  0
  9  8  2  0  0  0  0
 10 11  2  0  0  0  0
 11 12  1  0  0  0  0
 12  1  1  0  0  0  0
 13 12  2  0  0  0  0
 14  8  1  0  0  0  0
 15  9  1  0  0  0  0
 16 10  1  0  0  0  0
 17 18  1  0  0  0  0
 18 23  1  0  0  0  0
 18 19  2  0  0  0  0
 19 24  1  0  0  0  0
 20 19  1  0  0  0  0
 20 25  1  0  0  0  0
 21 20  2  0  0  0  0
 22 17  2  0  0  0  0
 22 21  1  0  0  0  0
 26 21  1  0  0  0  0
 26 32  2  0  0  0  0
 27 28  2  0  0  0  0
 27 26  1  0  0  0  0
 28 30  1  0  0  0  0
 29 28  1  0  0  0  0
 30 32  1  0  0  0  0
 30 31  1  0  0  0  0
M  END
>  <minimizedAffinity>
-5.37656355

$$$$

 OpenBabel03272505483D

 32 35  0  0  0  0  0  0  0  0999 V2000
   37.3760   25.5930   32.1190 C   0  0  0  0  0  0  0  0  0  0  0  0
   37.4320   24.1780   31.6870 C   0  0  0  0  0  0  0  0  0  0  0  0
   36.1010   24.8620   31.8340 C   0  0  0  0  0  0  0  0  0  0  0  0
   37.8380   23.9080   30.7040 H   0  0  0  0  0  0  0  0  0  0  0  0
   37.7000   23.4380   32.4950 H   0  0  0  0  0  0  0  0  0  0  0  0
   35.4410   24.5160   32.6670 H   0  0  0  0  0  0  0  0  0  0  0  0
   35.5280   25.1890   30.9560 H   0  0  0  0  0  0  0  0  0  0  0  0
   39.3710   27.9650   30.1030 C   0  0  0  0  0  0  0  0  0  0  0  0
   38.3790   28.7570   29.4940 C   0  0  0  0  0  0  0  0  0  0  0  0
   37.0250   28.4710   29.7870 C   0  0  0  0  0  0  0  0  0  0  0  0
   36.7500   27.4510   30.6370 N   0  0  0  0  0  0  0  0  0  0  0  0
   37.7360   26.7020   31.2090 C   0  0  0  0  0  0  0  0  0  0  0  0
   39.0330   26.9540   30.9480 N   0  0  0  0  0  0  0  0  0  0  0  0
   40.4300   28.1050   29.9420 H   0  0  0  0  0  0  0  0  0  0  0  0
   38.6900   29.5510   28.8280 H   0  0  0  0  0  0  0  0  0  0  0  0
   36.2630   29.0780   29.3210 H   0  0  0  0  0  0  0  0  0  0  0  0
   37.6950   25.9150   33.5540 C   0  0  0  0  0  0  0  0  0  0  0  0
   37.4510   27.1490   34.0650 C   0  0  0  0  0  0  0  0  0  0  0  0
   37.7410   27.4290   35.3960 C   0  0  0  0  0  0  0  0  0  0  0  0
   38.2840   26.4130   36.1770 C   0  0  0  0  0  0  0  0  0  0  0  0
   38.5320   25.1460   35.6470 C   0  0  0  0  0  0  0  0  0  0  0  0
   38.2230   24.9530   34.3460 N   0  0  0  0  0  0  0  0  0  0  0  0
   37.0640   28.0290   33.5920 H   0  0  0  0  0  0  0  0  0  0  0  0
   37.5970   28.3490   35.9110 H   0  0  0  0  0  0  0  0  0  0  0  0
   38.5390   26.5440   37.2210 H   0  0  0  0  0  0  0  0  0  0  0  0
   39.1010   24.0510   36.4270 C   0  0  0  0  0  0  0  0  0  0  0  0
   40.1690   23.2410   36.1700 N   0  0  0  0  0  0  0  0  0  0  0  0
   40.2990   22.3680   37.2100 C   0  0  0  0  0  0  0  0  0  0  0  0
   41.0900   21.6220   37.2200 H   0  0  0  0  0  0  0  0  0  0  0  0
   39.3130   22.6400   38.1040 N   0  0  0  0  0  0  0  0  0  0  0  0
   39.1920   22.1040   38.9980 H   0  0  0  0  0  0  0  0  0  0  0  0
   38.5890   23.6560   37.6310 N   0  0  0  0  0  0  0  0  0  0  0  0
  1 17  1  0  0  0  0
  2  3  1  0  0  0  0
  2  1  1  0  0  0  0
  2  5  1  0  0  0  0
  3  1  1  0  0  0  0
  3  6  1  0  0  0  0
  4  2  1  0  0  0  0
  7  3  1  0  0  0  0
  8 13  1  0  0  0  0
  9 10  1  0  0  0  0
  9  8  2  0  0  0  0
 10 11  2  0  0  0  0
 11 12  1  0  0  0  0
 12  1  1  0  0  0  0
 13 12  2  0  0  0  0
 14  8  1  0  0  0  0
 15  9  1  0  0  0  0
 16 10  1  0  0  0  0
 17 18  2  0  0  0  0
 17 22  1  0  0  0  0
 18 19  1  0  0  0  0
 19 24  1  0  0  0  0
 19 20  2  0  0  0  0
 20 25  1  0  0  0  0
 21 20  1  0  0  0  0
 21 26  1  0  0  0  0
 22 21  2  0  0  0  0
 23 18  1  0  0  0  0
 26 32  2  0  0  0  0
 27 26  1  0  0  0  0
 27 28  2  0  0  0  0
 28 29  1  0  0  0  0
 28 30  1  0  0  0  0
 30 31  1  0  0  0  0
 32 30  1  0  0  0  0
M  END
>  <minimizedAffinity>
-5.29171896

$$$$

 OpenBabel03272505483D

 32 35  0  0  0  0  0  0  0  0999 V2000
   37.7790   23.3830   31.8110 C   0  0  0  0  0  0  0  0  0  0  0  0
   37.9370   23.9890   30.4690 C   0  0  0  0  0  0  0  0  0  0  0  0
   39.0860   23.2450   31.0930 C   0  0  0  0  0  0  0  0  0  0  0  0
   37.3900   23.5900   29.6050 H   0  0  0  0  0  0  0  0  0  0  0  0
   38.0250   25.1140   30.4550 H   0  0  0  0  0  0  0  0  0  0  0  0
   39.9740   23.8490   31.4010 H   0  0  0  0  0  0  0  0  0  0  0  0
   39.3620   22.2370   30.7560 H   0  0  0  0  0  0  0  0  0  0  0  0
   34.9240   21.0960   32.3490 C   0  0  0  0  0  0  0  0  0  0  0  0
   35.5470   19.8340   32.3910 C   0  0  0  0  0  0  0  0  0  0  0  0
   36.9520   19.7800   32.2370 C   0  0  0  0  0  0  0  0  0  0  0  0
   37.6280   20.9420   32.0580 N   0  0  0  0  0  0  0  0  0  0  0  0
   36.9920   22.1490   32.0220 C   0  0  0  0  0  0  0  0  0  0  0  0
   35.6550   22.2290   32.1660 N   0  0  0  0  0  0  0  0  0  0  0  0
   33.8590   21.2410   32.4570 H   0  0  0  0  0  0  0  0  0  0  0  0
   34.9290   18.9590   32.5380 H   0  0  0  0  0  0  0  0  0  0  0  0
   37.4310   18.8130   32.2690 H   0  0  0  0  0  0  0  0  0  0  0  0
   37.7270   24.2960   33.0060 C   0  0  0  0  0  0  0  0  0  0  0  0
   37.3260   25.5870   32.8830 C   0  0  0  0  0  0  0  0  0  0  0  0
   37.2730   26.4170   33.9970 C   0  0  0  0  0  0  0  0  0  0  0  0
   37.6430   25.8850   35.2290 C   0  0  0  0  0  0  0  0  0  0  0  0
   38.0550   24.5560   35.3500 C   0  0  0  0  0  0  0  0  0  0  0  0
   38.0780   23.8150   34.2210 N   0  0  0  0  0  0  0  0  0  0  0  0
   37.0370   26.1410   32.0120 H   0  0  0  0  0  0  0  0  0  0  0  0
   36.9790   27.4380   34.0310 H   0  0  0  0  0  0  0  0  0  0  0  0
   37.6320   26.4590   36.1470 H   0  0  0  0  0  0  0  0  0  0  0  0
   38.4510   23.9560   36.6200 C   0  0  0  0  0  0  0  0  0  0  0  0
   38.0170   24.2010   37.8910 N   0  0  0  0  0  0  0  0  0  0  0  0
   38.6970   23.3770   38.7380 C   0  0  0  0  0  0  0  0  0  0  0  0
   38.5130   23.4000   39.8100 H   0  0  0  0  0  0  0  0  0  0  0  0
   39.5480   22.6260   37.9910 N   0  0  0  0  0  0  0  0  0  0  0  0
   40.1890   21.9080   38.4090 H   0  0  0  0  0  0  0  0  0  0  0  0
   39.3990   22.9760   36.7120 N   0  0  0  0  0  0  0  0  0  0  0  0
  1 12  1  0  0  0  0
  1 17  1  0  0  0  0
  2  3  1  0  0  0  0
  2  1  1  0  0  0  0
  3  6  1  0  0  0  0
  3  1  1  0  0  0  0
  4  2  1  0  0  0  0
  5  2  1  0  0  0  0
  7  3  1  0  0  0  0
  8  9  1  0  0  0  0
  8 14  1  0  0  0  0
  9 15  1  0  0  0  0
 10 16  1  0  0  0  0
 10  9  2  0  0  0  0
 11 10  1  0  0  0  0
 12 11  2  0  0  0  0
 12 13  1  0  0  0  0
 13  8  2  0  0  0  0
 17 22  1  0  0  0  0
 18 17  2  0  0  0  0
 18 19  1  0  0  0  0
 19 24  1  0  0  0  0
 19 20  2  0  0  0  0
 20 21  1  0  0  0  0
 20 25  1  0  0  0  0
 21 26  1  0  0  0  0
 22 21  2  0  0  0  0
 23 18  1  0  0  0  0
 26 32  2  0  0  0  0
 26 27  1  0  0  0  0
 27 28  2  0  0  0  0
 28 29  1  0  0  0  0
 30 31  1  0  0  0  0
 30 28  1  0  0  0  0
 32 30  1  0  0  0  0
M  END
>  <minimizedAffinity>
-5.19209719

$$$$

 OpenBabel03272505483D

 32 35  0  0  0  0  0  0  0  0999 V2000
   37.4550   26.9900   33.7740 C   0  0  0  0  0  0  0  0  0  0  0  0
   38.5580   27.0910   34.7570 C   0  0  0  0  0  0  0  0  0  0  0  0
   37.2820   26.3910   35.1350 C   0  0  0  0  0  0  0  0  0  0  0  0
   39.4960   26.5420   34.6060 H   0  0  0  0  0  0  0  0  0  0  0  0
   38.7120   28.1150   35.2050 H   0  0  0  0  0  0  0  0  0  0  0  0
   36.6380   26.8880   35.9020 H   0  0  0  0  0  0  0  0  0  0  0  0
   37.2270   25.2960   35.1920 H   0  0  0  0  0  0  0  0  0  0  0  0
   38.7110   25.0950   30.8580 C   0  0  0  0  0  0  0  0  0  0  0  0
   37.6050   24.2940   30.5150 C   0  0  0  0  0  0  0  0  0  0  0  0
   36.4280   24.4160   31.2910 C   0  0  0  0  0  0  0  0  0  0  0  0
   36.4230   25.2960   32.3230 N   0  0  0  0  0  0  0  0  0  0  0  0
   37.5140   26.0560   32.6290 C   0  0  0  0  0  0  0  0  0  0  0  0
   38.6470   25.9600   31.9060 N   0  0  0  0  0  0  0  0  0  0  0  0
   39.6520   25.0730   30.3280 H   0  0  0  0  0  0  0  0  0  0  0  0
   37.6980   23.6190   29.6750 H   0  0  0  0  0  0  0  0  0  0  0  0
   35.5790   23.8030   31.0290 H   0  0  0  0  0  0  0  0  0  0  0  0
   36.6720   28.2330   33.4490 C   0  0  0  0  0  0  0  0  0  0  0  0
   36.4620   28.6120   32.1630 C   0  0  0  0  0  0  0  0  0  0  0  0
   35.7280   29.7580   31.8770 C   0  0  0  0  0  0  0  0  0  0  0  0
   35.2210   30.4950   32.9430 C   0  0  0  0  0  0  0  0  0  0  0  0
   35.4400   30.1010   34.2640 C   0  0  0  0  0  0  0  0  0  0  0  0
   36.1630   28.9760   34.4590 N   0  0  0  0  0  0  0  0  0  0  0  0
   36.8020   28.1690   31.2480 H   0  0  0  0  0  0  0  0  0  0  0  0
   35.4960   30.1560   30.9180 H   0  0  0  0  0  0  0  0  0  0  0  0
   34.6390   31.3980   32.8120 H   0  0  0  0  0  0  0  0  0  0  0  0
   34.9290   30.8420   35.4130 C   0  0  0  0  0  0  0  0  0  0  0  0
   33.6530   30.9860   35.8790 N   0  0  0  0  0  0  0  0  0  0  0  0
   33.6940   31.7790   36.9880 C   0  0  0  0  0  0  0  0  0  0  0  0
   32.7860   32.0320   37.5310 H   0  0  0  0  0  0  0  0  0  0  0  0
   34.9910   32.1220   37.2040 N   0  0  0  0  0  0  0  0  0  0  0  0
   35.2930   32.7330   38.0030 H   0  0  0  0  0  0  0  0  0  0  0  0
   35.7360   31.5560   36.2530 N   0  0  0  0  0  0  0  0  0  0  0  0
  1  2  1  0  0  0  0
  1  3  1  0  0  0  0
  2  3  1  0  0  0  0
  2  5  1  0  0  0  0
  3  7  1  0  0  0  0
  3  6  1  0  0  0  0
  4  2  1  0  0  0  0
  8 13  1  0  0  0  0
  9  8  2  0  0  0  0
  9 10  1  0  0  0  0
 10 11  2  0  0  0  0
 11 12  1  0  0  0  0
 12  1  1  0  0  0  0
 13 12  2  0  0  0  0
 14  8  1  0  0  0  0
 15  9  1  0  0  0  0
 16 10  1  0  0  0  0
 17  1  1  0  0  0  0
 17 22  1  0  0  0  0
 18 17  2  0  0  0  0
 19 18  1  0  0  0  0
 19 20  2  0  0  0  0
 20 21  1  0  0  0  0
 21 22  2  0  0  0  0
 21 26  1  0  0  0  0
 23 18  1  0  0  0  0
 24 19  1  0  0  0  0
 25 20  1  0  0  0  0
 26 27  1  0  0  0  0
 26 32  2  0  0  0  0
 27 28  2  0  0  0  0
 28 30  1  0  0  0  0
 28 29  1  0  0  0  0
 30 31  1  0  0  0  0
 32 30  1  0  0  0  0
M  END
>  <minimizedAffinity>
-5.17114735

$$$$

 OpenBabel03272505483D

 32 35  0  0  0  0  0  0  0  0999 V2000
   37.9510   24.9760   31.8810 C   0  0  0  0  0  0  0  0  0  0  0  0
   37.8040   26.0870   30.9140 C   0  0  0  0  0  0  0  0  0  0  0  0
   39.1310   25.3950   31.0610 C   0  0  0  0  0  0  0  0  0  0  0  0
   37.1870   25.9690   30.0140 H   0  0  0  0  0  0  0  0  0  0  0  0
   37.7290   27.1160   31.3700 H   0  0  0  0  0  0  0  0  0  0  0  0
   39.9640   25.9860   31.5160 H   0  0  0  0  0  0  0  0  0  0  0  0
   39.4890   24.6820   30.3060 H   0  0  0  0  0  0  0  0  0  0  0  0
   35.5590   22.1710   31.6030 C   0  0  0  0  0  0  0  0  0  0  0  0
   36.3640   21.1310   31.1000 C   0  0  0  0  0  0  0  0  0  0  0  0
   37.7320   21.4040   30.8640 C   0  0  0  0  0  0  0  0  0  0  0  0
   38.1990   22.6480   31.1330 N   0  0  0  0  0  0  0  0  0  0  0  0
   37.3900   23.6330   31.6190 C   0  0  0  0  0  0  0  0  0  0  0  0
   36.0840   23.4000   31.8530 N   0  0  0  0  0  0  0  0  0  0  0  0
   34.5060   22.0610   31.8160 H   0  0  0  0  0  0  0  0  0  0  0  0
   35.9070   20.1680   30.9150 H   0  0  0  0  0  0  0  0  0  0  0  0
   38.3510   20.6080   30.4790 H   0  0  0  0  0  0  0  0  0  0  0  0
   37.9650   25.3040   33.3500 C   0  0  0  0  0  0  0  0  0  0  0  0
   37.3780   26.4340   33.8200 C   0  0  0  0  0  0  0  0  0  0  0  0
   37.3890   26.7200   35.1810 C   0  0  0  0  0  0  0  0  0  0  0  0
   38.0170   25.8180   36.0350 C   0  0  0  0  0  0  0  0  0  0  0  0
   38.6200   24.6580   35.5460 C   0  0  0  0  0  0  0  0  0  0  0  0
   38.5660   24.4520   34.2120 N   0  0  0  0  0  0  0  0  0  0  0  0
   36.8820   27.2250   33.2940 H   0  0  0  0  0  0  0  0  0  0  0  0
   36.9670   27.5650   35.6690 H   0  0  0  0  0  0  0  0  0  0  0  0
   38.0730   25.9620   37.1070 H   0  0  0  0  0  0  0  0  0  0  0  0
   39.2910   23.6850   36.4030 C   0  0  0  0  0  0  0  0  0  0  0  0
   40.3890   22.9070   36.1710 N   0  0  0  0  0  0  0  0  0  0  0  0
   40.6230   22.1600   37.2880 C   0  0  0  0  0  0  0  0  0  0  0  0
   41.4550   21.4600   37.3300 H   0  0  0  0  0  0  0  0  0  0  0  0
   39.6720   22.4760   38.2050 N   0  0  0  0  0  0  0  0  0  0  0  0
   39.6290   22.0360   39.1560 H   0  0  0  0  0  0  0  0  0  0  0  0
   38.8670   23.3970   37.6700 N   0  0  0  0  0  0  0  0  0  0  0  0
  1 17  1  0  0  0  0
  2  3  1  0  0  0  0
  2  5  1  0  0  0  0
  2  1  1  0  0  0  0
  3  6  1  0  0  0  0
  3  1  1  0  0  0  0
  4  2  1  0  0  0  0
  7  3  1  0  0  0  0
  8 14  1  0  0  0  0
  8 13  1  0  0  0  0
  9  8  2  0  0  0  0
 10  9  1  0  0  0  0
 10 11  2  0  0  0  0
 11 12  1  0  0  0  0
 12 13  2  0  0  0  0
 12  1  1  0  0  0  0
 15  9  1  0  0  0  0
 16 10  1  0  0  0  0
 17 18  2  0  0  0  0
 17 22  1  0  0  0  0
 18 19  1  0  0  0  0
 19 24  1  0  0  0  0
 19 20  2  0  0  0  0
 20 25  1  0  0  0  0
 21 20  1  0  0  0  0
 21 26  1  0  0  0  0
 22 21  2  0  0  0  0
 23 18  1  0  0  0  0
 26 32  2  0  0  0  0
 27 26  1  0  0  0  0
 27 28  2  0  0  0  0
 28 29  1  0  0  0  0
 28 30  1  0  0  0  0
 30 31  1  0  0  0  0
 32 30  1  0  0  0  0
M  END
>  <minimizedAffinity>
-5.15887785

$$$$

 OpenBabel03272505483D

 32 35  0  0  0  0  0  0  0  0999 V2000
   38.6130   26.1750   34.7650 C   0  0  0  0  0  0  0  0  0  0  0  0
   39.7390   27.1370   34.7480 C   0  0  0  0  0  0  0  0  0  0  0  0
   38.5820   27.3580   35.6830 C   0  0  0  0  0  0  0  0  0  0  0  0
   40.7310   26.8440   35.1150 H   0  0  0  0  0  0  0  0  0  0  0  0
   39.7830   27.8130   33.8460 H   0  0  0  0  0  0  0  0  0  0  0  0
   37.9170   28.2310   35.4710 H   0  0  0  0  0  0  0  0  0  0  0  0
   38.6710   27.1530   36.7580 H   0  0  0  0  0  0  0  0  0  0  0  0
   37.9180   23.2090   36.8580 C   0  0  0  0  0  0  0  0  0  0  0  0
   38.9730   22.3400   36.5170 C   0  0  0  0  0  0  0  0  0  0  0  0
   39.9220   22.7870   35.5690 C   0  0  0  0  0  0  0  0  0  0  0  0
   39.7710   24.0250   35.0360 N   0  0  0  0  0  0  0  0  0  0  0  0
   38.7360   24.8410   35.3880 C   0  0  0  0  0  0  0  0  0  0  0  0
   37.8170   24.4400   36.2890 N   0  0  0  0  0  0  0  0  0  0  0  0
   37.1450   22.9600   37.5700 H   0  0  0  0  0  0  0  0  0  0  0  0
   39.0150   21.3700   36.9930 H   0  0  0  0  0  0  0  0  0  0  0  0
   40.7320   22.1230   35.3070 H   0  0  0  0  0  0  0  0  0  0  0  0
   37.6630   26.1690   33.5970 C   0  0  0  0  0  0  0  0  0  0  0  0
   37.3580   25.0160   32.9500 C   0  0  0  0  0  0  0  0  0  0  0  0
   36.4700   25.0220   31.8800 C   0  0  0  0  0  0  0  0  0  0  0  0
   35.9120   26.2390   31.4990 C   0  0  0  0  0  0  0  0  0  0  0  0
   36.2300   27.4220   32.1670 C   0  0  0  0  0  0  0  0  0  0  0  0
   37.1000   27.3320   33.1970 N   0  0  0  0  0  0  0  0  0  0  0  0
   37.7170   24.0180   33.1090 H   0  0  0  0  0  0  0  0  0  0  0  0
   36.1520   24.1910   31.2960 H   0  0  0  0  0  0  0  0  0  0  0  0
   35.2130   26.3360   30.6770 H   0  0  0  0  0  0  0  0  0  0  0  0
   35.6700   28.7200   31.8030 C   0  0  0  0  0  0  0  0  0  0  0  0
   34.7220   29.4820   32.4220 N   0  0  0  0  0  0  0  0  0  0  0  0
   34.5430   30.6170   31.6870 C   0  0  0  0  0  0  0  0  0  0  0  0
   33.8270   31.3770   31.9930 H   0  0  0  0  0  0  0  0  0  0  0  0
   35.3790   30.5540   30.6180 N   0  0  0  0  0  0  0  0  0  0  0  0
   35.4350   31.3110   29.8930 H   0  0  0  0  0  0  0  0  0  0  0  0
   36.0600   29.4080   30.6880 N   0  0  0  0  0  0  0  0  0  0  0  0
  1 12  1  0  0  0  0
  1  3  1  0  0  0  0
  2  1  1  0  0  0  0
  2  4  1  0  0  0  0
  2  3  1  0  0  0  0
  3  7  1  0  0  0  0
  5  2  1  0  0  0  0
  6  3  1  0  0  0  0
  8 14  1  0  0  0  0
  9  8  1  0  0  0  0
  9 15  1  0  0  0  0
 10  9  2  0  0  0  0
 11 12  2  0  0  0  0
 11 10  1  0  0  0  0
 12 13  1  0  0  0  0
 13  8  2  0  0  0  0
 16 10  1  0  0  0  0
 17  1  1  0  0  0  0
 18 23  1  0  0  0  0
 18 17  2  0  0  0  0
 19 18  1  0  0  0  0
 20 19  2  0  0  0  0
 20 21  1  0  0  0  0
 21 22  2  0  0  0  0
 22 17  1  0  0  0  0
 24 19  1  0  0  0  0
 25 20  1  0  0  0  0
 26 21  1  0  0  0  0
 26 27  1  0  0  0  0
 28 29  1  0  0  0  0
 28 27  2  0  0  0  0
 30 32  1  0  0  0  0
 30 28  1  0  0  0  0
 31 30  1  0  0  0  0
 32 26  2  0  0  0  0
M  END
>  <minimizedAffinity>
-5.12724304

$$$$

 OpenBabel03272505483D

 32 35  0  0  0  0  0  0  0  0999 V2000
   38.6590   26.4520   34.6080 C   0  0  0  0  0  0  0  0  0  0  0  0
   40.0270   26.9420   34.8910 C   0  0  0  0  0  0  0  0  0  0  0  0
   38.9540   27.0800   35.9350 C   0  0  0  0  0  0  0  0  0  0  0  0
   40.8610   26.2370   35.0090 H   0  0  0  0  0  0  0  0  0  0  0  0
   40.3210   27.8890   34.3550 H   0  0  0  0  0  0  0  0  0  0  0  0
   38.6040   28.1150   36.1700 H   0  0  0  0  0  0  0  0  0  0  0  0
   38.9240   26.4210   36.8130 H   0  0  0  0  0  0  0  0  0  0  0  0
   37.7940   23.0610   33.4180 C   0  0  0  0  0  0  0  0  0  0  0  0
   37.7440   22.3200   34.6150 C   0  0  0  0  0  0  0  0  0  0  0  0
   38.0050   22.9990   35.8280 C   0  0  0  0  0  0  0  0  0  0  0  0
   38.2890   24.3240   35.7800 N   0  0  0  0  0  0  0  0  0  0  0  0
   38.3310   25.0110   34.6020 C   0  0  0  0  0  0  0  0  0  0  0  0
   38.0860   24.3890   33.4320 N   0  0  0  0  0  0  0  0  0  0  0  0
   37.6100   22.6340   32.4430 H   0  0  0  0  0  0  0  0  0  0  0  0
   37.5090   21.2660   34.5590 H   0  0  0  0  0  0  0  0  0  0  0  0
   37.9670   22.4330   36.7470 H   0  0  0  0  0  0  0  0  0  0  0  0
   37.8090   27.2290   33.6380 C   0  0  0  0  0  0  0  0  0  0  0  0
   36.6600   27.8280   34.0390 C   0  0  0  0  0  0  0  0  0  0  0  0
   35.8900   28.5510   33.1350 C   0  0  0  0  0  0  0  0  0  0  0  0
   36.3330   28.6370   31.8180 C   0  0  0  0  0  0  0  0  0  0  0  0
   37.5160   28.0180   31.4110 C   0  0  0  0  0  0  0  0  0  0  0  0
   38.2070   27.3350   32.3490 N   0  0  0  0  0  0  0  0  0  0  0  0
   36.1820   27.8340   34.9990 H   0  0  0  0  0  0  0  0  0  0  0  0
   34.9770   29.0630   33.3250 H   0  0  0  0  0  0  0  0  0  0  0  0
   35.7970   29.1780   31.0490 H   0  0  0  0  0  0  0  0  0  0  0  0
   38.0190   28.0800   30.0420 C   0  0  0  0  0  0  0  0  0  0  0  0
   39.1770   27.6000   29.5000 N   0  0  0  0  0  0  0  0  0  0  0  0
   39.1860   27.9120   28.1730 C   0  0  0  0  0  0  0  0  0  0  0  0
   40.0200   27.6260   27.5350 H   0  0  0  0  0  0  0  0  0  0  0  0
   38.0370   28.5820   27.8980 N   0  0  0  0  0  0  0  0  0  0  0  0
   37.8000   28.9360   26.9380 H   0  0  0  0  0  0  0  0  0  0  0  0
   37.3330   28.6840   29.0260 N   0  0  0  0  0  0  0  0  0  0  0  0
  1  2  1  0  0  0  0
  1  3  1  0  0  0  0
  2  4  1  0  0  0  0
  2  3  1  0  0  0  0
  3  6  1  0  0  0  0
  3  7  1  0  0  0  0
  5  2  1  0  0  0  0
  8 13  2  0  0  0  0
  8  9  1  0  0  0  0
  9 10  2  0  0  0  0
 10 16  1  0  0  0  0
 11 10  1  0  0  0  0
 12  1  1  0  0  0  0
 12 11  2  0  0  0  0
 13 12  1  0  0  0  0
 14  8  1  0  0  0  0
 15  9  1  0  0  0  0
 17 18  1  0  0  0  0
 17  1  1  0  0  0  0
 18 23  1  0  0  0  0
 19 24  1  0  0  0  0
 19 18  2  0  0  0  0
 20 19  1  0  0  0  0
 21 20  2  0  0  0  0
 21 22  1  0  0  0  0
 22 17  2  0  0  0  0
 25 20  1  0  0  0  0
 26 21  1  0  0  0  0
 27 26  1  0  0  0  0
 28 27  2  0  0  0  0
 29 28  1  0  0  0  0
 30 28  1  0  0  0  0
 30 32  1  0  0  0  0
 31 30  1  0  0  0  0
 32 26  2  0  0  0  0
M  END
>  <minimizedAffinity>
-5.10454559

$$$$

 OpenBabel03272505483D

 32 35  0  0  0  0  0  0  0  0999 V2000
   37.1800   26.0720   31.8450 C   0  0  0  0  0  0  0  0  0  0  0  0
   37.3480   24.9630   30.8790 C   0  0  0  0  0  0  0  0  0  0  0  0
   36.1470   24.9910   31.7830 C   0  0  0  0  0  0  0  0  0  0  0  0
   37.2640   25.1430   29.8000 H   0  0  0  0  0  0  0  0  0  0  0  0
   38.1480   24.2120   31.1410 H   0  0  0  0  0  0  0  0  0  0  0  0
   36.0900   24.2060   32.5770 H   0  0  0  0  0  0  0  0  0  0  0  0
   35.1550   25.2740   31.4050 H   0  0  0  0  0  0  0  0  0  0  0  0
   35.5160   29.3730   31.7840 C   0  0  0  0  0  0  0  0  0  0  0  0
   36.0310   29.9530   30.6090 C   0  0  0  0  0  0  0  0  0  0  0  0
   36.9480   29.1980   29.8410 C   0  0  0  0  0  0  0  0  0  0  0  0
   37.2840   27.9570   30.2720 N   0  0  0  0  0  0  0  0  0  0  0  0
   36.7670   27.4250   31.4170 C   0  0  0  0  0  0  0  0  0  0  0  0
   35.8920   28.1230   32.1670 N   0  0  0  0  0  0  0  0  0  0  0  0
   34.8120   29.8680   32.4360 H   0  0  0  0  0  0  0  0  0  0  0  0
   35.7060   30.9490   30.3410 H   0  0  0  0  0  0  0  0  0  0  0  0
   37.3430   29.6410   28.9390 H   0  0  0  0  0  0  0  0  0  0  0  0
   38.0820   26.1120   33.0500 C   0  0  0  0  0  0  0  0  0  0  0  0
   39.1520   26.9460   33.0960 C   0  0  0  0  0  0  0  0  0  0  0  0
   39.9700   26.9800   34.2200 C   0  0  0  0  0  0  0  0  0  0  0  0
   39.6580   26.1390   35.2840 C   0  0  0  0  0  0  0  0  0  0  0  0
   38.5560   25.2830   35.2310 C   0  0  0  0  0  0  0  0  0  0  0  0
   37.8110   25.3100   34.1050 N   0  0  0  0  0  0  0  0  0  0  0  0
   39.5290   27.6260   32.3590 H   0  0  0  0  0  0  0  0  0  0  0  0
   40.8310   27.5850   34.3760 H   0  0  0  0  0  0  0  0  0  0  0  0
   40.2400   26.1010   36.1960 H   0  0  0  0  0  0  0  0  0  0  0  0
   38.1910   24.3840   36.3220 C   0  0  0  0  0  0  0  0  0  0  0  0
   38.1250   24.6040   37.6680 N   0  0  0  0  0  0  0  0  0  0  0  0
   37.7320   23.4440   38.2680 C   0  0  0  0  0  0  0  0  0  0  0  0
   37.6120   23.3850   39.3480 H   0  0  0  0  0  0  0  0  0  0  0  0
   37.5560   22.5130   37.2950 N   0  0  0  0  0  0  0  0  0  0  0  0
   37.2520   21.5290   37.4960 H   0  0  0  0  0  0  0  0  0  0  0  0
   37.8340   23.0810   36.1200 N   0  0  0  0  0  0  0  0  0  0  0  0
  1 17  1  0  0  0  0
  2  5  1  0  0  0  0
  2  3  1  0  0  0  0
  2  1  1  0  0  0  0
  3  1  1  0  0  0  0
  3  6  1  0  0  0  0
  4  2  1  0  0  0  0
  7  3  1  0  0  0  0
  8 13  1  0  0  0  0
  8 14  1  0  0  0  0
  9  8  2  0  0  0  0
 10 11  2  0  0  0  0
 10  9  1  0  0  0  0
 11 12  1  0  0  0  0
 12  1  1  0  0  0  0
 12 13  2  0  0  0  0
 15  9  1  0  0  0  0
 16 10  1  0  0  0  0
 17 18  2  0  0  0  0
 17 22  1  0  0  0  0
 18 19  1  0  0  0  0
 19 24  1  0  0  0  0
 19 20  2  0  0  0  0
 20 25  1  0  0  0  0
 21 20  1  0  0  0  0
 21 26  1  0  0  0  0
 22 21  2  0  0  0  0
 23 18  1  0  0  0  0
 26 27  1  0  0  0  0
 27 28  2  0  0  0  0
 28 29  1  0  0  0  0
 30 31  1  0  0  0  0
 30 28  1  0  0  0  0
 32 26  2  0  0  0  0
 32 30  1  0  0  0  0
M  END
>  <minimizedAffinity>
-5.09032679

$$$$
