
 OpenBabel03272505093D

 27 29  0  0  0  0  0  0  0  0999 V2000
   36.0540   30.6220   46.0790 Cl  0  0  0  0  0  0  0  0  0  0  0  0
   36.5100   30.3500   47.7420 C   0  0  0  0  0  0  0  0  0  0  0  0
   37.7870   30.6760   48.0870 C   0  0  0  0  0  0  0  0  0  0  0  0
   38.1720   30.4660   49.4120 C   0  0  0  0  0  0  0  0  0  0  0  0
   37.2680   29.9480   50.3130 C   0  0  0  0  0  0  0  0  0  0  0  0
   36.0000   29.6440   49.8950 C   0  0  0  0  0  0  0  0  0  0  0  0
   35.5700   29.8260   48.6170 C   0  0  0  0  0  0  0  0  0  0  0  0
   39.1770   30.7160   49.7100 H   0  0  0  0  0  0  0  0  0  0  0  0
   37.5980   29.7980   51.3320 H   0  0  0  0  0  0  0  0  0  0  0  0
   35.2980   29.2370   50.6130 H   0  0  0  0  0  0  0  0  0  0  0  0
   39.9090   33.0850   46.3410 C   0  0  0  0  0  0  0  0  0  0  0  0
   40.4960   32.3290   45.2980 C   0  0  0  0  0  0  0  0  0  0  0  0
   40.1400   30.9790   45.2160 C   0  0  0  0  0  0  0  0  0  0  0  0
   39.2630   30.4690   46.1290 N   0  0  0  0  0  0  0  0  0  0  0  0
   38.7340   31.2300   47.1010 C   0  0  0  0  0  0  0  0  0  0  0  0
   39.0630   32.5130   47.1910 N   0  0  0  0  0  0  0  0  0  0  0  0
   40.1520   34.1230   46.4420 H   0  0  0  0  0  0  0  0  0  0  0  0
   41.1880   32.7930   44.6010 H   0  0  0  0  0  0  0  0  0  0  0  0
   40.5670   30.3660   44.4310 H   0  0  0  0  0  0  0  0  0  0  0  0
   33.9240   29.4440   48.0250 S   0  0  0  0  0  0  0  0  0  0  0  0
   33.9210   27.8900   47.1470 C   0  0  0  0  0  0  0  0  0  0  0  0
   33.8700   26.7880   47.9170 N   0  0  0  0  0  0  0  0  0  0  0  0
   33.8710   25.6750   47.1700 C   0  0  0  0  0  0  0  0  0  0  0  0
   33.8380   24.6330   47.4640 H   0  0  0  0  0  0  0  0  0  0  0  0
   33.9260   26.1020   45.8980 N   0  0  0  0  0  0  0  0  0  0  0  0
   33.9470   25.5830   44.9880 H   0  0  0  0  0  0  0  0  0  0  0  0
   33.9570   27.4440   45.8570 N   0  0  0  0  0  0  0  0  0  0  0  0
  1  2  1  0  0  0  0
  2  3  2  0  0  0  0
  2  7  1  0  0  0  0
  3  4  1  0  0  0  0
  4  8  1  0  0  0  0
  4  5  2  0  0  0  0
  5  9  1  0  0  0  0
  6  5  1  0  0  0  0
  6 10  1  0  0  0  0
  7  6  2  0  0  0  0
 11 17  1  0  0  0  0
 11 16  1  0  0  0  0
 12 11  2  0  0  0  0
 13 12  1  0  0  0  0
 13 14  2  0  0  0  0
 14 15  1  0  0  0  0
 15 16  2  0  0  0  0
 15  3  1  0  0  0  0
 18 12  1  0  0  0  0
 19 13  1  0  0  0  0
 20  7  1  0  0  0  0
 21 22  1  0  0  0  0
 21 20  1  0  0  0  0
 23 24  1  0  0  0  0
 23 22  2  0  0  0  0
 25 23  1  0  0  0  0
 26 25  1  0  0  0  0
 27 25  1  0  0  0  0
 27 21  2  0  0  0  0
M  END
>  <minimizedAffinity>
-5.14371967

>  <minimizedRMSD>
0.973820567

$$$$
