
 OpenBabel03262521523D

 21 22  0  0  0  0  0  0  0  0999 V2000
   38.3390   31.1740   49.3210 C   0  0  0  0  0  0  0  0  0  0  0  0
   38.6100   30.2110   48.8130 H   0  0  0  0  0  0  0  0  0  0  0  0
   39.1240   31.3440   50.0860 H   0  0  0  0  0  0  0  0  0  0  0  0
   36.7450   31.1110   50.1350 S   0  0  0  0  0  0  0  0  0  0  0  0
   35.6410   30.1100   49.1690 C   0  0  0  0  0  0  0  0  0  0  0  0
   35.3200   28.8850   49.7320 C   0  0  0  0  0  0  0  0  0  0  0  0
   34.4530   28.0580   49.0090 C   0  0  0  0  0  0  0  0  0  0  0  0
   33.9580   28.4690   47.7990 N   0  0  0  0  0  0  0  0  0  0  0  0
   34.3150   29.6800   47.3100 C   0  0  0  0  0  0  0  0  0  0  0  0
   35.1300   30.4730   47.9760 N   0  0  0  0  0  0  0  0  0  0  0  0
   35.6960   28.5350   50.6820 H   0  0  0  0  0  0  0  0  0  0  0  0
   34.1830   27.0920   49.4220 H   0  0  0  0  0  0  0  0  0  0  0  0
   33.9430   30.0410   46.3550 H   0  0  0  0  0  0  0  0  0  0  0  0
   38.4070   32.4640   48.0290 S   0  0  0  0  0  0  0  0  0  0  0  0
   39.4330   31.9240   46.6770 C   0  0  0  0  0  0  0  0  0  0  0  0
   40.1030   32.9160   46.0300 N   0  0  0  0  0  0  0  0  0  0  0  0
   40.8360   32.3760   45.0370 C   0  0  0  0  0  0  0  0  0  0  0  0
   41.4830   32.8640   44.3310 H   0  0  0  0  0  0  0  0  0  0  0  0
   40.6140   31.0400   45.0710 N   0  0  0  0  0  0  0  0  0  0  0  0
   40.9960   30.2750   44.4660 H   0  0  0  0  0  0  0  0  0  0  0  0
   39.7780   30.7670   46.0460 N   0  0  0  0  0  0  0  0  0  0  0  0
  1  3  1  0  0  0  0
  1  4  1  0  0  0  0
  2  1  1  0  0  0  0
  5  6  1  0  0  0  0
  5  4  1  0  0  0  0
  6 11  1  0  0  0  0
  7 12  1  0  0  0  0
  7  6  2  0  0  0  0
  8  7  1  0  0  0  0
  9  8  2  0  0  0  0
  9 10  1  0  0  0  0
 10  5  2  0  0  0  0
 13  9  1  0  0  0  0
 14  1  1  0  0  0  0
 15 14  1  0  0  0  0
 16 15  1  0  0  0  0
 17 19  1  0  0  0  0
 17 16  2  0  0  0  0
 18 17  1  0  0  0  0
 19 21  1  0  0  0  0
 20 19  1  0  0  0  0
 21 15  2  0  0  0  0
M  END
>  <minimizedAffinity>
-4.27093077

>  <minimizedRMSD>
6.4277482

$$$$
