
 OpenBabel03272505563D

 32 34  0  0  1  0  0  0  0  0999 V2000
   38.0650   25.8500   33.5550 C   0  0  2  0  0  0  0  0  0  0  0  0
   38.4690   24.7730   34.5320 C   0  0  0  0  0  0  0  0  0  0  0  0
   37.9850   25.0240   35.9210 C   0  0  2  0  0  0  0  0  0  0  0  0
   38.3380   26.3870   36.4530 C   0  0  0  0  0  0  0  0  0  0  0  0
   38.2040   27.4810   35.4480 C   0  0  0  0  0  0  0  0  0  0  0  0
   37.4560   27.0430   34.2040 C   0  0  0  0  0  0  0  0  0  0  0  0
   38.9590   26.1290   32.9540 H   0  0  0  0  0  0  0  0  0  0  0  0
   39.5540   24.6500   34.5610 H   0  0  0  0  0  0  0  0  0  0  0  0
   38.0270   23.8040   34.2090 H   0  0  0  0  0  0  0  0  0  0  0  0
   36.9020   24.7950   36.0230 H   0  0  0  0  0  0  0  0  0  0  0  0
   39.3950   26.3680   36.8230 H   0  0  0  0  0  0  0  0  0  0  0  0
   37.7280   26.5690   37.3620 H   0  0  0  0  0  0  0  0  0  0  0  0
   37.6100   28.3100   35.8970 H   0  0  0  0  0  0  0  0  0  0  0  0
   39.2030   27.8420   35.1140 H   0  0  0  0  0  0  0  0  0  0  0  0
   36.3670   26.9400   34.3960 H   0  0  0  0  0  0  0  0  0  0  0  0
   37.5500   27.9060   33.5010 H   0  0  0  0  0  0  0  0  0  0  0  0
   37.0800   25.3030   32.5830 C   0  0  0  0  0  0  0  0  0  0  0  0
   36.2530   26.2420   31.9400 C   0  0  0  0  0  0  0  0  0  0  0  0
   35.3110   25.7230   31.0310 C   0  0  0  0  0  0  0  0  0  0  0  0
   35.2450   24.3630   30.8180 N   0  0  0  0  0  0  0  0  0  0  0  0
   36.0740   23.5000   31.4700 C   0  0  0  0  0  0  0  0  0  0  0  0
   36.9740   23.9800   32.3380 N   0  0  0  0  0  0  0  0  0  0  0  0
   36.2560   27.2950   32.0650 H   0  0  0  0  0  0  0  0  0  0  0  0
   34.6500   26.3880   30.5070 H   0  0  0  0  0  0  0  0  0  0  0  0
   35.9430   22.4540   31.2340 H   0  0  0  0  0  0  0  0  0  0  0  0
   38.6890   24.0430   36.8050 C   0  0  0  0  0  0  0  0  0  0  0  0
   39.8100   23.3520   36.5220 N   0  0  0  0  0  0  0  0  0  0  0  0
   40.1400   22.5610   37.5810 C   0  0  0  0  0  0  0  0  0  0  0  0
   40.9930   21.8920   37.6420 H   0  0  0  0  0  0  0  0  0  0  0  0
   39.2000   22.7780   38.5190 N   0  0  0  0  0  0  0  0  0  0  0  0
   39.1270   22.3400   39.4740 H   0  0  0  0  0  0  0  0  0  0  0  0
   38.3110   23.6750   38.0660 N   0  0  0  0  0  0  0  0  0  0  0  0
  1  7  1  6  0  0  0
  1  6  1  0  0  0  0
  1  2  1  0  0  0  0
  2  8  1  0  0  0  0
  2  3  1  0  0  0  0
  3 10  1  1  0  0  0
  3  4  1  0  0  0  0
  3 26  1  0  0  0  0
  4 11  1  0  0  0  0
  4 12  1  0  0  0  0
  5 13  1  0  0  0  0
  5  4  1  0  0  0  0
  6 15  1  0  0  0  0
  6  5  1  0  0  0  0
  9  2  1  0  0  0  0
 14  5  1  0  0  0  0
 16  6  1  0  0  0  0
 17  1  1  0  0  0  0
 18 23  1  0  0  0  0
 18 17  2  0  0  0  0
 19 18  1  0  0  0  0
 20 19  2  0  0  0  0
 20 21  1  0  0  0  0
 21 22  2  0  0  0  0
 22 17  1  0  0  0  0
 24 19  1  0  0  0  0
 25 21  1  0  0  0  0
 26 32  2  0  0  0  0
 27 26  1  0  0  0  0
 27 28  2  0  0  0  0
 28 29  1  0  0  0  0
 28 30  1  0  0  0  0
 30 31  1  0  0  0  0
 32 30  1  0  0  0  0
M  END
>  <minimizedAffinity>
-5.61106491

$$$$

 OpenBabel03272505563D

 32 34  0  0  1  0  0  0  0  0999 V2000
   38.6660   26.1830   35.2200 C   0  0  2  0  0  0  0  0  0  0  0  0
   37.5840   25.9100   34.2040 C   0  0  0  0  0  0  0  0  0  0  0  0
   38.1140   25.6310   32.8360 C   0  0  2  0  0  0  0  0  0  0  0  0
   39.0720   26.6760   32.3300 C   0  0  0  0  0  0  0  0  0  0  0  0
   40.0180   27.1820   33.3660 C   0  0  0  0  0  0  0  0  0  0  0  0
   40.0200   26.3320   34.6200 C   0  0  0  0  0  0  0  0  0  0  0  0
   38.3790   27.0890   35.8000 H   0  0  0  0  0  0  0  0  0  0  0  0
   36.8810   26.7450   34.1370 H   0  0  0  0  0  0  0  0  0  0  0  0
   37.0110   25.0090   34.5140 H   0  0  0  0  0  0  0  0  0  0  0  0
   38.5280   24.6020   32.7630 H   0  0  0  0  0  0  0  0  0  0  0  0
   38.4850   27.5400   31.9260 H   0  0  0  0  0  0  0  0  0  0  0  0
   39.5970   26.2590   31.4440 H   0  0  0  0  0  0  0  0  0  0  0  0
   41.0540   27.1430   32.9570 H   0  0  0  0  0  0  0  0  0  0  0  0
   39.7510   28.2180   33.6780 H   0  0  0  0  0  0  0  0  0  0  0  0
   40.5460   25.3670   34.4600 H   0  0  0  0  0  0  0  0  0  0  0  0
   40.6590   26.8970   35.3420 H   0  0  0  0  0  0  0  0  0  0  0  0
   38.7200   25.0710   36.2080 C   0  0  0  0  0  0  0  0  0  0  0  0
   39.5890   24.0090   35.9010 C   0  0  0  0  0  0  0  0  0  0  0  0
   39.6290   22.9500   36.8290 C   0  0  0  0  0  0  0  0  0  0  0  0
   38.8410   23.0020   37.9590 N   0  0  0  0  0  0  0  0  0  0  0  0
   38.0180   24.0600   38.2040 C   0  0  0  0  0  0  0  0  0  0  0  0
   37.9700   25.0730   37.3290 N   0  0  0  0  0  0  0  0  0  0  0  0
   40.2140   23.9130   35.0500 H   0  0  0  0  0  0  0  0  0  0  0  0
   40.2720   22.1090   36.6530 H   0  0  0  0  0  0  0  0  0  0  0  0
   37.4420   24.0060   39.1160 H   0  0  0  0  0  0  0  0  0  0  0  0
   36.9420   25.6630   31.9070 C   0  0  0  0  0  0  0  0  0  0  0  0
   35.9510   24.7550   31.8150 N   0  0  0  0  0  0  0  0  0  0  0  0
   35.0690   25.1350   30.8510 C   0  0  0  0  0  0  0  0  0  0  0  0
   34.1720   24.6010   30.5540 H   0  0  0  0  0  0  0  0  0  0  0  0
   35.5360   26.2940   30.3490 N   0  0  0  0  0  0  0  0  0  0  0  0
   35.1160   26.8840   29.5850 H   0  0  0  0  0  0  0  0  0  0  0  0
   36.6730   26.6300   30.9790 N   0  0  0  0  0  0  0  0  0  0  0  0
  1  7  1  1  0  0  0
  1 17  1  0  0  0  0
  2  9  1  0  0  0  0
  2  1  1  0  0  0  0
  3 10  1  6  0  0  0
  3  2  1  0  0  0  0
  4  3  1  0  0  0  0
  4  5  1  0  0  0  0
  5 14  1  0  0  0  0
  5  6  1  0  0  0  0
  6  1  1  0  0  0  0
  6 16  1  0  0  0  0
  8  2  1  0  0  0  0
 11  4  1  0  0  0  0
 12  4  1  0  0  0  0
 13  5  1  0  0  0  0
 15  6  1  0  0  0  0
 17 22  1  0  0  0  0
 18 17  2  0  0  0  0
 18 19  1  0  0  0  0
 19 20  2  0  0  0  0
 20 21  1  0  0  0  0
 21 25  1  0  0  0  0
 22 21  2  0  0  0  0
 23 18  1  0  0  0  0
 24 19  1  0  0  0  0
 26  3  1  0  0  0  0
 27 26  1  0  0  0  0
 28 27  2  0  0  0  0
 29 28  1  0  0  0  0
 30 28  1  0  0  0  0
 30 32  1  0  0  0  0
 31 30  1  0  0  0  0
 32 26  2  0  0  0  0
M  END
>  <minimizedAffinity>
-4.93497229

$$$$

 OpenBabel03272505563D

 32 34  0  0  1  0  0  0  0  0999 V2000
   37.4300   26.9760   33.2710 C   0  0  2  0  0  0  0  0  0  0  0  0
   38.9210   26.9290   33.0450 C   0  0  0  0  0  0  0  0  0  0  0  0
   39.6860   26.4630   34.2390 C   0  0  2  0  0  0  0  0  0  0  0  0
   39.3600   27.2140   35.5020 C   0  0  0  0  0  0  0  0  0  0  0  0
   37.9100   27.5210   35.6660 C   0  0  0  0  0  0  0  0  0  0  0  0
   37.0370   26.7570   34.6900 C   0  0  0  0  0  0  0  0  0  0  0  0
   37.0490   27.9500   32.8920 H   0  0  0  0  0  0  0  0  0  0  0  0
   39.3080   27.9070   32.7470 H   0  0  0  0  0  0  0  0  0  0  0  0
   39.1430   26.2130   32.2230 H   0  0  0  0  0  0  0  0  0  0  0  0
   39.6100   25.3620   34.3660 H   0  0  0  0  0  0  0  0  0  0  0  0
   39.9330   28.1760   35.5090 H   0  0  0  0  0  0  0  0  0  0  0  0
   39.7710   26.6390   36.3580 H   0  0  0  0  0  0  0  0  0  0  0  0
   37.5890   27.2080   36.6870 H   0  0  0  0  0  0  0  0  0  0  0  0
   37.7090   28.6040   35.4990 H   0  0  0  0  0  0  0  0  0  0  0  0
   36.9510   25.6850   34.9690 H   0  0  0  0  0  0  0  0  0  0  0  0
   36.0140   27.1810   34.8360 H   0  0  0  0  0  0  0  0  0  0  0  0
   36.7630   25.9330   32.4440 C   0  0  0  0  0  0  0  0  0  0  0  0
   35.7620   26.3830   31.5640 C   0  0  0  0  0  0  0  0  0  0  0  0
   35.1230   25.3940   30.7910 C   0  0  0  0  0  0  0  0  0  0  0  0
   35.4940   24.0740   30.9280 N   0  0  0  0  0  0  0  0  0  0  0  0
   36.4730   23.6970   31.7980 C   0  0  0  0  0  0  0  0  0  0  0  0
   37.0890   24.6270   32.5390 N   0  0  0  0  0  0  0  0  0  0  0  0
   35.4340   27.3800   31.4170 H   0  0  0  0  0  0  0  0  0  0  0  0
   34.3500   25.6720   30.0990 H   0  0  0  0  0  0  0  0  0  0  0  0
   36.6900   22.6390   31.8310 H   0  0  0  0  0  0  0  0  0  0  0  0
   41.1300   26.7380   33.9580 C   0  0  0  0  0  0  0  0  0  0  0  0
   42.1960   26.0990   34.4770 N   0  0  0  0  0  0  0  0  0  0  0  0
   43.3420   26.6380   33.9760 C   0  0  0  0  0  0  0  0  0  0  0  0
   44.3540   26.3280   34.2130 H   0  0  0  0  0  0  0  0  0  0  0  0
   42.9600   27.6220   33.1390 N   0  0  0  0  0  0  0  0  0  0  0  0
   43.5740   28.2600   32.5700 H   0  0  0  0  0  0  0  0  0  0  0  0
   41.6200   27.6970   33.1160 N   0  0  0  0  0  0  0  0  0  0  0  0
  1  7  1  6  0  0  0
  1  6  1  0  0  0  0
  2  1  1  0  0  0  0
  2  3  1  0  0  0  0
  3 10  1  1  0  0  0
  3  4  1  0  0  0  0
  4 11  1  0  0  0  0
  4  5  1  0  0  0  0
  4 12  1  0  0  0  0
  5 13  1  0  0  0  0
  6 16  1  0  0  0  0
  6 15  1  0  0  0  0
  6  5  1  0  0  0  0
  8  2  1  0  0  0  0
  9  2  1  0  0  0  0
 14  5  1  0  0  0  0
 17 22  1  0  0  0  0
 17  1  1  0  0  0  0
 18 17  2  0  0  0  0
 19 20  2  0  0  0  0
 19 18  1  0  0  0  0
 20 21  1  0  0  0  0
 21 25  1  0  0  0  0
 21 22  2  0  0  0  0
 23 18  1  0  0  0  0
 24 19  1  0  0  0  0
 26  3  1  0  0  0  0
 26 27  1  0  0  0  0
 28 29  1  0  0  0  0
 28 27  2  0  0  0  0
 30 28  1  0  0  0  0
 31 30  1  0  0  0  0
 32 30  1  0  0  0  0
 32 26  2  0  0  0  0
M  END
>  <minimizedAffinity>
-4.84225655

$$$$

 OpenBabel03272505563D

 32 34  0  0  1  0  0  0  0  0999 V2000
   38.6390   25.7090   35.2890 C   0  0  2  0  0  0  0  0  0  0  0  0
   37.8990   25.3260   34.0300 C   0  0  0  0  0  0  0  0  0  0  0  0
   37.5940   26.4900   33.1470 C   0  0  2  0  0  0  0  0  0  0  0  0
   36.8980   27.6230   33.8520 C   0  0  0  0  0  0  0  0  0  0  0  0
   37.4180   27.8930   35.2240 C   0  0  0  0  0  0  0  0  0  0  0  0
   38.7260   27.1790   35.5030 C   0  0  0  0  0  0  0  0  0  0  0  0
   38.1460   25.2040   36.1500 H   0  0  0  0  0  0  0  0  0  0  0  0
   36.9630   24.8120   34.2600 H   0  0  0  0  0  0  0  0  0  0  0  0
   38.5300   24.6300   33.4340 H   0  0  0  0  0  0  0  0  0  0  0  0
   38.4950   26.8250   32.5890 H   0  0  0  0  0  0  0  0  0  0  0  0
   35.8050   27.3880   33.9220 H   0  0  0  0  0  0  0  0  0  0  0  0
   36.9480   28.5170   33.1960 H   0  0  0  0  0  0  0  0  0  0  0  0
   37.6270   28.9830   35.3210 H   0  0  0  0  0  0  0  0  0  0  0  0
   36.6930   27.5540   36.0000 H   0  0  0  0  0  0  0  0  0  0  0  0
   39.5750   27.6580   34.9710 H   0  0  0  0  0  0  0  0  0  0  0  0
   38.9190   27.3610   36.5880 H   0  0  0  0  0  0  0  0  0  0  0  0
   40.0250   25.1680   35.2420 C   0  0  0  0  0  0  0  0  0  0  0  0
   41.0140   26.0350   34.7430 C   0  0  0  0  0  0  0  0  0  0  0  0
   42.3220   25.5180   34.6860 C   0  0  0  0  0  0  0  0  0  0  0  0
   42.5670   24.2290   35.1080 N   0  0  0  0  0  0  0  0  0  0  0  0
   41.5670   23.4340   35.5840 C   0  0  0  0  0  0  0  0  0  0  0  0
   40.3180   23.9130   35.6430 N   0  0  0  0  0  0  0  0  0  0  0  0
   40.8850   27.0310   34.4030 H   0  0  0  0  0  0  0  0  0  0  0  0
   43.1230   26.1290   34.3150 H   0  0  0  0  0  0  0  0  0  0  0  0
   41.8610   22.4410   35.8890 H   0  0  0  0  0  0  0  0  0  0  0  0
   36.6340   26.0010   32.1080 C   0  0  0  0  0  0  0  0  0  0  0  0
   36.1690   24.7460   31.9570 N   0  0  0  0  0  0  0  0  0  0  0  0
   35.3140   24.6980   30.8980 C   0  0  0  0  0  0  0  0  0  0  0  0
   34.7860   23.8220   30.5370 H   0  0  0  0  0  0  0  0  0  0  0  0
   35.2640   25.9480   30.3990 N   0  0  0  0  0  0  0  0  0  0  0  0
   34.7060   26.2940   29.5760 H   0  0  0  0  0  0  0  0  0  0  0  0
   36.0590   26.7520   31.1220 N   0  0  0  0  0  0  0  0  0  0  0  0
  1  6  1  0  0  0  0
  1  7  1  1  0  0  0
  2  8  1  0  0  0  0
  2  1  1  0  0  0  0
  3 10  1  6  0  0  0
  3  4  1  0  0  0  0
  3  2  1  0  0  0  0
  4 11  1  0  0  0  0
  4  5  1  0  0  0  0
  5 13  1  0  0  0  0
  5  6  1  0  0  0  0
  5 14  1  0  0  0  0
  6 16  1  0  0  0  0
  9  2  1  0  0  0  0
 12  4  1  0  0  0  0
 15  6  1  0  0  0  0
 17  1  1  0  0  0  0
 17 22  1  0  0  0  0
 18 17  2  0  0  0  0
 19 18  1  0  0  0  0
 19 20  2  0  0  0  0
 20 21  1  0  0  0  0
 21 22  2  0  0  0  0
 21 25  1  0  0  0  0
 23 18  1  0  0  0  0
 24 19  1  0  0  0  0
 26  3  1  0  0  0  0
 27 26  1  0  0  0  0
 28 27  2  0  0  0  0
 29 28  1  0  0  0  0
 30 28  1  0  0  0  0
 30 32  1  0  0  0  0
 31 30  1  0  0  0  0
 32 26  2  0  0  0  0
M  END
>  <minimizedAffinity>
-4.82430172

$$$$

 OpenBabel03272505563D

 32 34  0  0  1  0  0  0  0  0999 V2000
   39.2510   25.8910   33.6410 C   0  0  2  0  0  0  0  0  0  0  0  0
   39.2710   24.8840   34.7650 C   0  0  0  0  0  0  0  0  0  0  0  0
   38.2040   25.1130   35.7840 C   0  0  2  0  0  0  0  0  0  0  0  0
   38.1710   26.5170   36.3250 C   0  0  0  0  0  0  0  0  0  0  0  0
   38.4020   27.5690   35.2920 C   0  0  0  0  0  0  0  0  0  0  0  0
   38.3200   27.0280   33.8790 C   0  0  0  0  0  0  0  0  0  0  0  0
   40.2920   26.2480   33.4750 H   0  0  0  0  0  0  0  0  0  0  0  0
   40.2380   24.8750   35.2740 H   0  0  0  0  0  0  0  0  0  0  0  0
   39.1000   23.8670   34.3470 H   0  0  0  0  0  0  0  0  0  0  0  0
   37.2110   24.7740   35.4160 H   0  0  0  0  0  0  0  0  0  0  0  0
   38.9530   26.6170   37.1200 H   0  0  0  0  0  0  0  0  0  0  0  0
   37.2090   26.6550   36.8620 H   0  0  0  0  0  0  0  0  0  0  0  0
   37.6030   28.3410   35.3810 H   0  0  0  0  0  0  0  0  0  0  0  0
   39.4120   28.0250   35.4060 H   0  0  0  0  0  0  0  0  0  0  0  0
   37.2720   26.8160   33.5810 H   0  0  0  0  0  0  0  0  0  0  0  0
   38.6420   27.8800   33.2320 H   0  0  0  0  0  0  0  0  0  0  0  0
   38.8460   25.2220   32.3740 C   0  0  0  0  0  0  0  0  0  0  0  0
   37.4630   25.0930   32.1540 C   0  0  0  0  0  0  0  0  0  0  0  0
   37.0810   24.4480   30.9620 C   0  0  0  0  0  0  0  0  0  0  0  0
   38.0480   23.9880   30.0940 N   0  0  0  0  0  0  0  0  0  0  0  0
   39.3750   24.1430   30.3600 C   0  0  0  0  0  0  0  0  0  0  0  0
   39.7520   24.7540   31.4910 N   0  0  0  0  0  0  0  0  0  0  0  0
   36.6770   25.4230   32.7840 H   0  0  0  0  0  0  0  0  0  0  0  0
   36.0400   24.3180   30.7340 H   0  0  0  0  0  0  0  0  0  0  0  0
   40.0530   23.7480   29.6170 H   0  0  0  0  0  0  0  0  0  0  0  0
   38.5260   24.2310   36.9490 C   0  0  0  0  0  0  0  0  0  0  0  0
   37.9900   24.2850   38.1830 N   0  0  0  0  0  0  0  0  0  0  0  0
   38.5400   23.3150   38.9650 C   0  0  0  0  0  0  0  0  0  0  0  0
   38.3030   23.1180   40.0050 H   0  0  0  0  0  0  0  0  0  0  0  0
   39.4250   22.6640   38.1880 N   0  0  0  0  0  0  0  0  0  0  0  0
   40.0410   21.8510   38.4510 H   0  0  0  0  0  0  0  0  0  0  0  0
   39.4300   23.2060   36.9600 N   0  0  0  0  0  0  0  0  0  0  0  0
  1  7  1  6  0  0  0
  1  6  1  0  0  0  0
  1  2  1  0  0  0  0
  2  8  1  0  0  0  0
  2  3  1  0  0  0  0
  3 10  1  6  0  0  0
  3  4  1  0  0  0  0
  3 26  1  0  0  0  0
  4 12  1  0  0  0  0
  4 11  1  0  0  0  0
  5 13  1  0  0  0  0
  5 14  1  0  0  0  0
  5  4  1  0  0  0  0
  6  5  1  0  0  0  0
  9  2  1  0  0  0  0
 15  6  1  0  0  0  0
 16  6  1  0  0  0  0
 17  1  1  0  0  0  0
 18 17  1  0  0  0  0
 18 23  1  0  0  0  0
 19 18  2  0  0  0  0
 20 21  2  0  0  0  0
 20 19  1  0  0  0  0
 21 22  1  0  0  0  0
 22 17  2  0  0  0  0
 24 19  1  0  0  0  0
 25 21  1  0  0  0  0
 26 32  2  0  0  0  0
 26 27  1  0  0  0  0
 27 28  2  0  0  0  0
 28 29  1  0  0  0  0
 30 31  1  0  0  0  0
 30 28  1  0  0  0  0
 32 30  1  0  0  0  0
M  END
>  <minimizedAffinity>
-4.79878187

$$$$

 OpenBabel03272505563D

 32 34  0  0  1  0  0  0  0  0999 V2000
   38.4980   23.9500   32.8710 C   0  0  2  0  0  0  0  0  0  0  0  0
   38.1900   23.6730   34.3220 C   0  0  0  0  0  0  0  0  0  0  0  0
   39.0220   24.4760   35.2660 C   0  0  2  0  0  0  0  0  0  0  0  0
   40.5010   24.3810   35.0060 C   0  0  0  0  0  0  0  0  0  0  0  0
   40.8630   24.3930   33.5590 C   0  0  0  0  0  0  0  0  0  0  0  0
   39.7040   24.7990   32.6710 C   0  0  0  0  0  0  0  0  0  0  0  0
   38.5980   22.9750   32.3430 H   0  0  0  0  0  0  0  0  0  0  0  0
   38.3210   22.6140   34.5610 H   0  0  0  0  0  0  0  0  0  0  0  0
   37.1290   23.9370   34.5270 H   0  0  0  0  0  0  0  0  0  0  0  0
   38.6670   25.5270   35.3290 H   0  0  0  0  0  0  0  0  0  0  0  0
   40.8900   23.4370   35.4660 H   0  0  0  0  0  0  0  0  0  0  0  0
   41.0020   25.1930   35.5750 H   0  0  0  0  0  0  0  0  0  0  0  0
   41.6660   25.1480   33.3950 H   0  0  0  0  0  0  0  0  0  0  0  0
   41.1910   23.3830   33.2210 H   0  0  0  0  0  0  0  0  0  0  0  0
   39.4990   25.8880   32.7370 H   0  0  0  0  0  0  0  0  0  0  0  0
   40.0750   24.6340   31.6300 H   0  0  0  0  0  0  0  0  0  0  0  0
   37.3410   24.6370   32.2340 C   0  0  0  0  0  0  0  0  0  0  0  0
   37.3620   26.0430   32.2610 C   0  0  0  0  0  0  0  0  0  0  0  0
   36.2610   26.6930   31.6700 C   0  0  0  0  0  0  0  0  0  0  0  0
   35.2460   25.9450   31.1120 N   0  0  0  0  0  0  0  0  0  0  0  0
   35.2800   24.5830   31.1150 C   0  0  0  0  0  0  0  0  0  0  0  0
   36.3220   23.9530   31.6740 N   0  0  0  0  0  0  0  0  0  0  0  0
   38.1110   26.6680   32.6750 H   0  0  0  0  0  0  0  0  0  0  0  0
   36.2160   27.7650   31.6570 H   0  0  0  0  0  0  0  0  0  0  0  0
   34.4370   24.0900   30.6530 H   0  0  0  0  0  0  0  0  0  0  0  0
   38.8060   23.8950   36.6290 C   0  0  0  0  0  0  0  0  0  0  0  0
   37.7600   24.1110   37.4490 N   0  0  0  0  0  0  0  0  0  0  0  0
   37.9270   23.4040   38.6010 C   0  0  0  0  0  0  0  0  0  0  0  0
   37.2460   23.3820   39.4450 H   0  0  0  0  0  0  0  0  0  0  0  0
   39.0970   22.7510   38.4740 N   0  0  0  0  0  0  0  0  0  0  0  0
   39.5550   22.1050   39.1680 H   0  0  0  0  0  0  0  0  0  0  0  0
   39.6450   23.0370   37.2830 N   0  0  0  0  0  0  0  0  0  0  0  0
  1  7  1  6  0  0  0
  1  2  1  0  0  0  0
  2  9  1  0  0  0  0
  2  8  1  0  0  0  0
  2  3  1  0  0  0  0
  3 10  1  6  0  0  0
  3 26  1  0  0  0  0
  4  3  1  0  0  0  0
  4 11  1  0  0  0  0
  4 12  1  0  0  0  0
  5  4  1  0  0  0  0
  6 15  1  0  0  0  0
  6  1  1  0  0  0  0
  6  5  1  0  0  0  0
 13  5  1  0  0  0  0
 14  5  1  0  0  0  0
 16  6  1  0  0  0  0
 17 18  1  0  0  0  0
 17  1  1  0  0  0  0
 18 23  1  0  0  0  0
 19 18  2  0  0  0  0
 20 21  2  0  0  0  0
 20 19  1  0  0  0  0
 21 22  1  0  0  0  0
 22 17  2  0  0  0  0
 24 19  1  0  0  0  0
 25 21  1  0  0  0  0
 26 32  2  0  0  0  0
 26 27  1  0  0  0  0
 27 28  2  0  0  0  0
 28 29  1  0  0  0  0
 30 28  1  0  0  0  0
 30 31  1  0  0  0  0
 32 30  1  0  0  0  0
M  END
>  <minimizedAffinity>
-4.76818657

$$$$

 OpenBabel03272505563D

 32 34  0  0  1  0  0  0  0  0999 V2000
   39.6080   26.6310   34.0500 C   0  0  2  0  0  0  0  0  0  0  0  0
   39.9840   25.3310   34.7180 C   0  0  0  0  0  0  0  0  0  0  0  0
   38.8900   24.7580   35.5550 C   0  0  2  0  0  0  0  0  0  0  0  0
   38.3170   25.7260   36.5550 C   0  0  0  0  0  0  0  0  0  0  0  0
   38.1540   27.1120   36.0290 C   0  0  0  0  0  0  0  0  0  0  0  0
   38.3110   27.1880   34.5240 C   0  0  0  0  0  0  0  0  0  0  0  0
   40.4390   27.3550   34.2020 H   0  0  0  0  0  0  0  0  0  0  0  0
   40.8720   25.4490   35.3440 H   0  0  0  0  0  0  0  0  0  0  0  0
   40.2190   24.5740   33.9370 H   0  0  0  0  0  0  0  0  0  0  0  0
   38.1060   24.2790   34.9280 H   0  0  0  0  0  0  0  0  0  0  0  0
   38.9860   25.7580   37.4510 H   0  0  0  0  0  0  0  0  0  0  0  0
   37.3640   25.3020   36.9350 H   0  0  0  0  0  0  0  0  0  0  0  0
   37.1200   27.4640   36.2560 H   0  0  0  0  0  0  0  0  0  0  0  0
   38.9140   27.7980   36.4690 H   0  0  0  0  0  0  0  0  0  0  0  0
   37.4270   26.7710   33.9970 H   0  0  0  0  0  0  0  0  0  0  0  0
   38.3000   28.2820   34.2940 H   0  0  0  0  0  0  0  0  0  0  0  0
   39.5110   26.4300   32.5780 C   0  0  0  0  0  0  0  0  0  0  0  0
   38.6030   27.2600   31.8960 C   0  0  0  0  0  0  0  0  0  0  0  0
   38.5020   27.0600   30.5050 C   0  0  0  0  0  0  0  0  0  0  0  0
   39.2730   26.0930   29.8960 N   0  0  0  0  0  0  0  0  0  0  0  0
   40.1380   25.3180   30.6100 C   0  0  0  0  0  0  0  0  0  0  0  0
   40.2430   25.4980   31.9330 N   0  0  0  0  0  0  0  0  0  0  0  0
   37.9850   28.0150   32.3090 H   0  0  0  0  0  0  0  0  0  0  0  0
   37.8270   27.6610   29.9260 H   0  0  0  0  0  0  0  0  0  0  0  0
   40.6960   24.5900   30.0410 H   0  0  0  0  0  0  0  0  0  0  0  0
   39.4980   23.6500   36.3570 C   0  0  0  0  0  0  0  0  0  0  0  0
   40.4910   22.8230   35.9800 N   0  0  0  0  0  0  0  0  0  0  0  0
   40.7660   21.9480   36.9860 C   0  0  0  0  0  0  0  0  0  0  0  0
   41.5180   21.1650   36.9690 H   0  0  0  0  0  0  0  0  0  0  0  0
   39.9210   22.2520   37.9890 N   0  0  0  0  0  0  0  0  0  0  0  0
   39.8420   21.7870   38.9310 H   0  0  0  0  0  0  0  0  0  0  0  0
   39.1440   23.2830   37.6250 N   0  0  0  0  0  0  0  0  0  0  0  0
  1  7  1  1  0  0  0
  1  6  1  0  0  0  0
  1  2  1  0  0  0  0
  2  8  1  0  0  0  0
  2  3  1  0  0  0  0
  3 10  1  6  0  0  0
  3 26  1  0  0  0  0
  3  4  1  0  0  0  0
  4 12  1  0  0  0  0
  4 11  1  0  0  0  0
  5 13  1  0  0  0  0
  5 14  1  0  0  0  0
  5  4  1  0  0  0  0
  6  5  1  0  0  0  0
  9  2  1  0  0  0  0
 15  6  1  0  0  0  0
 16  6  1  0  0  0  0
 17  1  1  0  0  0  0
 18 23  1  0  0  0  0
 18 17  2  0  0  0  0
 19 18  1  0  0  0  0
 20 19  2  0  0  0  0
 20 21  1  0  0  0  0
 21 22  2  0  0  0  0
 22 17  1  0  0  0  0
 24 19  1  0  0  0  0
 25 21  1  0  0  0  0
 26 32  2  0  0  0  0
 27 26  1  0  0  0  0
 27 28  2  0  0  0  0
 28 30  1  0  0  0  0
 29 28  1  0  0  0  0
 30 31  1  0  0  0  0
 32 30  1  0  0  0  0
M  END
>  <minimizedAffinity>
-4.76638222

$$$$

 OpenBabel03272505563D

 32 34  0  0  1  0  0  0  0  0999 V2000
   39.6400   26.7390   34.6680 C   0  0  2  0  0  0  0  0  0  0  0  0
   38.6540   26.9820   33.5520 C   0  0  0  0  0  0  0  0  0  0  0  0
   39.2240   26.7360   32.1950 C   0  0  2  0  0  0  0  0  0  0  0  0
   40.5150   27.4650   31.9350 C   0  0  0  0  0  0  0  0  0  0  0  0
   41.4450   27.4820   33.1010 C   0  0  0  0  0  0  0  0  0  0  0  0
   41.0320   26.5140   34.1920 C   0  0  0  0  0  0  0  0  0  0  0  0
   39.5880   27.5990   35.3730 H   0  0  0  0  0  0  0  0  0  0  0  0
   38.2630   28.0020   33.5820 H   0  0  0  0  0  0  0  0  0  0  0  0
   37.7930   26.2860   33.6680 H   0  0  0  0  0  0  0  0  0  0  0  0
   39.2980   25.6480   31.9750 H   0  0  0  0  0  0  0  0  0  0  0  0
   40.2820   28.5210   31.6460 H   0  0  0  0  0  0  0  0  0  0  0  0
   40.9810   27.0250   31.0280 H   0  0  0  0  0  0  0  0  0  0  0  0
   42.4560   27.1610   32.7600 H   0  0  0  0  0  0  0  0  0  0  0  0
   41.4840   28.4940   33.5660 H   0  0  0  0  0  0  0  0  0  0  0  0
   41.2410   25.4610   33.9050 H   0  0  0  0  0  0  0  0  0  0  0  0
   41.7280   26.7310   35.0380 H   0  0  0  0  0  0  0  0  0  0  0  0
   39.2250   25.5460   35.4550 C   0  0  0  0  0  0  0  0  0  0  0  0
   40.0280   24.3990   35.3170 C   0  0  0  0  0  0  0  0  0  0  0  0
   39.6270   23.2670   36.0510 C   0  0  0  0  0  0  0  0  0  0  0  0
   38.5020   23.3310   36.8460 N   0  0  0  0  0  0  0  0  0  0  0  0
   37.7620   24.4710   36.9410 C   0  0  0  0  0  0  0  0  0  0  0  0
   38.1320   25.5550   36.2470 N   0  0  0  0  0  0  0  0  0  0  0  0
   40.8990   24.2910   34.7230 H   0  0  0  0  0  0  0  0  0  0  0  0
   40.1980   22.3590   35.9900 H   0  0  0  0  0  0  0  0  0  0  0  0
   36.9000   24.4190   37.5890 H   0  0  0  0  0  0  0  0  0  0  0  0
   38.2390   27.2810   31.2090 C   0  0  0  0  0  0  0  0  0  0  0  0
   38.3860   28.3670   30.4270 N   0  0  0  0  0  0  0  0  0  0  0  0
   37.2700   28.5380   29.6650 C   0  0  0  0  0  0  0  0  0  0  0  0
   37.1010   29.3290   28.9420 H   0  0  0  0  0  0  0  0  0  0  0  0
   36.4330   27.5360   29.9950 N   0  0  0  0  0  0  0  0  0  0  0  0
   35.4720   27.3430   29.6090 H   0  0  0  0  0  0  0  0  0  0  0  0
   37.0050   26.7620   30.9300 N   0  0  0  0  0  0  0  0  0  0  0  0
  1  7  1  1  0  0  0
  1 17  1  0  0  0  0
  2  8  1  0  0  0  0
  2  9  1  0  0  0  0
  2  1  1  0  0  0  0
  3 10  1  6  0  0  0
  3  2  1  0  0  0  0
  4  3  1  0  0  0  0
  4  5  1  0  0  0  0
  5 14  1  0  0  0  0
  5  6  1  0  0  0  0
  6  1  1  0  0  0  0
  6 16  1  0  0  0  0
 11  4  1  0  0  0  0
 12  4  1  0  0  0  0
 13  5  1  0  0  0  0
 15  6  1  0  0  0  0
 17 22  1  0  0  0  0
 18 17  2  0  0  0  0
 18 19  1  0  0  0  0
 19 20  2  0  0  0  0
 20 21  1  0  0  0  0
 21 25  1  0  0  0  0
 22 21  2  0  0  0  0
 23 18  1  0  0  0  0
 24 19  1  0  0  0  0
 26  3  1  0  0  0  0
 27 26  1  0  0  0  0
 28 30  1  0  0  0  0
 28 27  2  0  0  0  0
 29 28  1  0  0  0  0
 30 32  1  0  0  0  0
 31 30  1  0  0  0  0
 32 26  2  0  0  0  0
M  END
>  <minimizedAffinity>
-4.72106457

$$$$

 OpenBabel03272505563D

 32 34  0  0  1  0  0  0  0  0999 V2000
   37.8840   23.2320   32.9430 C   0  0  2  0  0  0  0  0  0  0  0  0
   37.8060   23.2910   34.4490 C   0  0  0  0  0  0  0  0  0  0  0  0
   39.0910   23.6970   35.0930 C   0  0  2  0  0  0  0  0  0  0  0  0
   40.2770   22.8840   34.6500 C   0  0  0  0  0  0  0  0  0  0  0  0
   40.2840   22.5680   33.1930 C   0  0  0  0  0  0  0  0  0  0  0  0
   39.2680   23.3790   32.4140 C   0  0  0  0  0  0  0  0  0  0  0  0
   37.4220   22.2770   32.6070 H   0  0  0  0  0  0  0  0  0  0  0  0
   37.4990   22.3300   34.8690 H   0  0  0  0  0  0  0  0  0  0  0  0
   37.0470   24.0490   34.7460 H   0  0  0  0  0  0  0  0  0  0  0  0
   39.2650   24.7910   34.9980 H   0  0  0  0  0  0  0  0  0  0  0  0
   40.2920   21.9240   35.2260 H   0  0  0  0  0  0  0  0  0  0  0  0
   41.1970   23.4160   34.9730 H   0  0  0  0  0  0  0  0  0  0  0  0
   41.2840   22.8290   32.7730 H   0  0  0  0  0  0  0  0  0  0  0  0
   40.0450   21.4940   33.0150 H   0  0  0  0  0  0  0  0  0  0  0  0
   39.5910   24.4350   32.2950 H   0  0  0  0  0  0  0  0  0  0  0  0
   39.2930   22.9470   31.3840 H   0  0  0  0  0  0  0  0  0  0  0  0
   37.0500   24.3150   32.3540 C   0  0  0  0  0  0  0  0  0  0  0  0
   35.9650   23.9010   31.5600 C   0  0  0  0  0  0  0  0  0  0  0  0
   35.1840   24.9260   30.9910 C   0  0  0  0  0  0  0  0  0  0  0  0
   35.5070   26.2440   31.2310 N   0  0  0  0  0  0  0  0  0  0  0  0
   36.5710   26.5850   32.0110 C   0  0  0  0  0  0  0  0  0  0  0  0
   37.3220   25.6210   32.5580 N   0  0  0  0  0  0  0  0  0  0  0  0
   35.6710   22.9070   31.3390 H   0  0  0  0  0  0  0  0  0  0  0  0
   34.3410   24.6760   30.3750 H   0  0  0  0  0  0  0  0  0  0  0  0
   36.7400   27.6440   32.1380 H   0  0  0  0  0  0  0  0  0  0  0  0
   38.9380   23.4380   36.5580 C   0  0  0  0  0  0  0  0  0  0  0  0
   37.8580   23.6950   37.3220 N   0  0  0  0  0  0  0  0  0  0  0  0
   38.1050   23.3180   38.6070 C   0  0  0  0  0  0  0  0  0  0  0  0
   37.4210   23.4040   39.4440 H   0  0  0  0  0  0  0  0  0  0  0  0
   39.3580   22.8250   38.6190 N   0  0  0  0  0  0  0  0  0  0  0  0
   39.8920   22.4380   39.4400 H   0  0  0  0  0  0  0  0  0  0  0  0
   39.8790   22.8900   37.3840 N   0  0  0  0  0  0  0  0  0  0  0  0
  1  7  1  6  0  0  0
  1  2  1  0  0  0  0
  2  9  1  0  0  0  0
  2  8  1  0  0  0  0
  2  3  1  0  0  0  0
  3 10  1  6  0  0  0
  3 26  1  0  0  0  0
  4 12  1  0  0  0  0
  4  3  1  0  0  0  0
  4 11  1  0  0  0  0
  5  4  1  0  0  0  0
  6  1  1  0  0  0  0
  6  5  1  0  0  0  0
 13  5  1  0  0  0  0
 14  5  1  0  0  0  0
 15  6  1  0  0  0  0
 16  6  1  0  0  0  0
 17 22  1  0  0  0  0
 17  1  1  0  0  0  0
 18 17  2  0  0  0  0
 19 20  2  0  0  0  0
 19 18  1  0  0  0  0
 20 21  1  0  0  0  0
 21 25  1  0  0  0  0
 21 22  2  0  0  0  0
 23 18  1  0  0  0  0
 24 19  1  0  0  0  0
 26 27  1  0  0  0  0
 26 32  2  0  0  0  0
 27 28  2  0  0  0  0
 28 30  1  0  0  0  0
 28 29  1  0  0  0  0
 30 31  1  0  0  0  0
 32 30  1  0  0  0  0
M  END
>  <minimizedAffinity>
-4.64719057

$$$$
