
 OpenBabel03272509183D

 31 33  0  0  0  0  0  0  0  0999 V2000
   38.0660   31.2300   47.7350 C   0  0  0  0  0  0  0  0  0  0  0  0
   37.0910   31.2680   48.7130 C   0  0  0  0  0  0  0  0  0  0  0  0
   37.1730   32.3930   49.5570 C   0  0  0  0  0  0  0  0  0  0  0  0
   38.1610   33.3630   49.3950 C   0  0  0  0  0  0  0  0  0  0  0  0
   39.0970   33.2330   48.3790 C   0  0  0  0  0  0  0  0  0  0  0  0
   39.0420   32.1360   47.5320 C   0  0  0  0  0  0  0  0  0  0  0  0
   36.4490   32.4850   50.3350 H   0  0  0  0  0  0  0  0  0  0  0  0
   38.1980   34.2160   50.0590 H   0  0  0  0  0  0  0  0  0  0  0  0
   39.8810   33.9670   48.2220 H   0  0  0  0  0  0  0  0  0  0  0  0
   34.9300   30.3150   48.0720 C   0  0  0  0  0  0  0  0  0  0  0  0
   36.0760   30.2770   48.8840 C   0  0  0  0  0  0  0  0  0  0  0  0
   36.1850   29.2630   49.8380 C   0  0  0  0  0  0  0  0  0  0  0  0
   35.1600   28.3670   49.9210 N   0  0  0  0  0  0  0  0  0  0  0  0
   34.0730   28.4270   49.1300 C   0  0  0  0  0  0  0  0  0  0  0  0
   33.9600   29.3920   48.2140 N   0  0  0  0  0  0  0  0  0  0  0  0
   34.8340   31.1010   47.3250 H   0  0  0  0  0  0  0  0  0  0  0  0
   33.3260   27.6660   49.2840 H   0  0  0  0  0  0  0  0  0  0  0  0
   37.3740   29.1850   50.7160 C   0  0  0  0  0  0  0  0  0  0  0  0
   37.6670   28.1480   50.9830 H   0  0  0  0  0  0  0  0  0  0  0  0
   38.1960   29.7580   50.2180 H   0  0  0  0  0  0  0  0  0  0  0  0
   37.1250   29.7870   51.6260 H   0  0  0  0  0  0  0  0  0  0  0  0
   38.0630   30.1440   46.8490 O   0  0  0  0  0  0  0  0  0  0  0  0
   37.2760   29.8850   46.2720 H   0  0  0  0  0  0  0  0  0  0  0  0
   39.9940   32.0240   46.5150 O   0  0  0  0  0  0  0  0  0  0  0  0
   39.4980   32.0200   45.2180 C   0  0  0  0  0  0  0  0  0  0  0  0
   39.4280   31.0300   44.3100 N   0  0  0  0  0  0  0  0  0  0  0  0
   38.8600   31.5370   43.2010 C   0  0  0  0  0  0  0  0  0  0  0  0
   38.6670   30.9810   42.2900 H   0  0  0  0  0  0  0  0  0  0  0  0
   38.5810   32.8330   43.4190 N   0  0  0  0  0  0  0  0  0  0  0  0
   38.1350   33.4880   42.7370 H   0  0  0  0  0  0  0  0  0  0  0  0
   38.9760   33.1010   44.6450 N   0  0  0  0  0  0  0  0  0  0  0  0
  1  2  1  0  0  0  0
  2 11  1  0  0  0  0
  2  3  2  0  0  0  0
  3  7  1  0  0  0  0
  4  3  1  0  0  0  0
  4  8  1  0  0  0  0
  5  4  2  0  0  0  0
  6  1  2  0  0  0  0
  6  5  1  0  0  0  0
  9  5  1  0  0  0  0
 10 15  2  0  0  0  0
 10 11  1  0  0  0  0
 11 12  2  0  0  0  0
 12 13  1  0  0  0  0
 12 18  1  0  0  0  0
 14 17  1  0  0  0  0
 14 13  2  0  0  0  0
 15 14  1  0  0  0  0
 16 10  1  0  0  0  0
 18 19  1  0  0  0  0
 18 21  1  0  0  0  0
 20 18  1  0  0  0  0
 22  1  1  0  0  0  0
 23 22  1  0  0  0  0
 24  6  1  0  0  0  0
 25 24  1  0  0  0  0
 26 25  1  0  0  0  0
 27 29  1  0  0  0  0
 27 26  2  0  0  0  0
 28 27  1  0  0  0  0
 29 31  1  0  0  0  0
 30 29  1  0  0  0  0
 31 25  2  0  0  0  0
M  END
>  <minimizedAffinity>
-6.07379055

>  <minimizedRMSD>
0.331473589

$$$$
