
 OpenBabel03272506273D

 40 43  0  0  0  0  0  0  0  0999 V2000
   33.3220   27.9650   44.6190 C   0  0  0  0  0  0  0  0  0  0  0  0
   33.1300   26.9270   43.7280 C   0  0  0  0  0  0  0  0  0  0  0  0
   33.5860   26.9230   42.4120 C   0  0  0  0  0  0  0  0  0  0  0  0
   34.2920   28.0520   41.9530 C   0  0  0  0  0  0  0  0  0  0  0  0
   34.4760   29.0790   42.8550 C   0  0  0  0  0  0  0  0  0  0  0  0
   34.0250   29.0700   44.1410 C   0  0  0  0  0  0  0  0  0  0  0  0
   32.5810   26.0260   44.0500 H   0  0  0  0  0  0  0  0  0  0  0  0
   33.3710   26.0340   41.7940 H   0  0  0  0  0  0  0  0  0  0  0  0
   34.5940   27.9420   40.9330 H   0  0  0  0  0  0  0  0  0  0  0  0
   35.0110   29.8220   42.3230 H   0  0  0  0  0  0  0  0  0  0  0  0
   33.5730   27.1010   46.8610 C   0  0  0  0  0  0  0  0  0  0  0  0
   32.7780   27.7960   45.9360 C   0  0  0  0  0  0  0  0  0  0  0  0
   31.5290   28.2680   46.3620 C   0  0  0  0  0  0  0  0  0  0  0  0
   31.1370   28.0350   47.6430 N   0  0  0  0  0  0  0  0  0  0  0  0
   31.9300   27.3560   48.5220 C   0  0  0  0  0  0  0  0  0  0  0  0
   33.1460   26.8910   48.1260 N   0  0  0  0  0  0  0  0  0  0  0  0
   34.5310   26.7250   46.5720 H   0  0  0  0  0  0  0  0  0  0  0  0
   31.6300   27.1650   49.5430 H   0  0  0  0  0  0  0  0  0  0  0  0
   30.5800   29.0180   45.4890 C   0  0  0  0  0  0  0  0  0  0  0  0
   29.3920   29.2670   46.2000 F   0  0  0  0  0  0  0  0  0  0  0  0
   31.0330   30.1810   44.9850 F   0  0  0  0  0  0  0  0  0  0  0  0
   30.1640   28.1930   44.4360 F   0  0  0  0  0  0  0  0  0  0  0  0
   34.2700   30.3860   45.2760 S   0  0  0  0  0  0  0  0  0  0  0  0
   34.6360   30.0910   48.3490 Cl  0  0  0  0  0  0  0  0  0  0  0  0
   36.0160   30.3090   47.3090 C   0  0  0  0  0  0  0  0  0  0  0  0
   35.9140   30.4700   45.9270 C   0  0  0  0  0  0  0  0  0  0  0  0
   37.0270   30.6630   45.1630 C   0  0  0  0  0  0  0  0  0  0  0  0
   38.2650   30.6940   45.7880 C   0  0  0  0  0  0  0  0  0  0  0  0
   38.3730   30.5330   47.1730 C   0  0  0  0  0  0  0  0  0  0  0  0
   37.2480   30.3390   47.9460 C   0  0  0  0  0  0  0  0  0  0  0  0
   37.0490   30.8310   44.1170 H   0  0  0  0  0  0  0  0  0  0  0  0
   39.1800   30.8440   45.2230 H   0  0  0  0  0  0  0  0  0  0  0  0
   39.3790   30.5680   47.5990 H   0  0  0  0  0  0  0  0  0  0  0  0
   37.3990   30.1750   49.3870 C   0  0  0  0  0  0  0  0  0  0  0  0
   36.9790   29.0690   50.0260 N   0  0  0  0  0  0  0  0  0  0  0  0
   37.2610   29.2240   51.3540 C   0  0  0  0  0  0  0  0  0  0  0  0
   37.1150   28.6150   52.2390 H   0  0  0  0  0  0  0  0  0  0  0  0
   37.8560   30.4480   51.4770 N   0  0  0  0  0  0  0  0  0  0  0  0
   38.2250   30.9550   52.3110 H   0  0  0  0  0  0  0  0  0  0  0  0
   37.9360   31.0200   50.2860 N   0  0  0  0  0  0  0  0  0  0  0  0
  1 12  1  0  0  0  0
  2  7  1  0  0  0  0
  2  1  2  0  0  0  0
  3  2  1  0  0  0  0
  4  3  2  0  0  0  0
  4  5  1  0  0  0  0
  5  6  2  0  0  0  0
  6  1  1  0  0  0  0
  6 23  1  0  0  0  0
  8  3  1  0  0  0  0
  9  4  1  0  0  0  0
 10  5  1  0  0  0  0
 11 16  1  0  0  0  0
 12 13  1  0  0  0  0
 12 11  2  0  0  0  0
 13 14  2  0  0  0  0
 14 15  1  0  0  0  0
 15 18  1  0  0  0  0
 16 15  2  0  0  0  0
 17 11  1  0  0  0  0
 19 20  1  0  0  0  0
 19 13  1  0  0  0  0
 21 19  1  0  0  0  0
 22 19  1  0  0  0  0
 23 26  1  0  0  0  0
 25 30  1  0  0  0  0
 25 24  1  0  0  0  0
 26 25  2  0  0  0  0
 27 28  2  0  0  0  0
 27 26  1  0  0  0  0
 28 29  1  0  0  0  0
 29 33  1  0  0  0  0
 29 30  2  0  0  0  0
 30 34  1  0  0  0  0
 31 27  1  0  0  0  0
 32 28  1  0  0  0  0
 34 35  1  0  0  0  0
 34 40  2  0  0  0  0
 35 36  2  0  0  0  0
 36 38  1  0  0  0  0
 36 37  1  0  0  0  0
 38 39  1  0  0  0  0
 40 38  1  0  0  0  0
M  END
>  <minimizedAffinity>
-4.7577219

>  <minimizedRMSD>
2.46270633

$$$$
