
 OpenBabel03272506283D

 40 43  0  0  0  0  0  0  0  0999 V2000
   39.5160   24.3090   35.2840 C   0  0  0  0  0  0  0  0  0  0  0  0
   40.8180   23.8440   35.2980 C   0  0  0  0  0  0  0  0  0  0  0  0
   41.9430   24.6470   35.1240 C   0  0  0  0  0  0  0  0  0  0  0  0
   41.7470   26.0270   34.9200 C   0  0  0  0  0  0  0  0  0  0  0  0
   40.4430   26.4740   34.9100 C   0  0  0  0  0  0  0  0  0  0  0  0
   39.3500   25.6790   35.0810 C   0  0  0  0  0  0  0  0  0  0  0  0
   41.0110   22.7700   35.4540 H   0  0  0  0  0  0  0  0  0  0  0  0
   42.9320   24.1590   35.1560 H   0  0  0  0  0  0  0  0  0  0  0  0
   42.6750   26.5430   34.8000 H   0  0  0  0  0  0  0  0  0  0  0  0
   40.5100   27.5170   34.7380 H   0  0  0  0  0  0  0  0  0  0  0  0
   38.0210   22.6690   34.3300 C   0  0  0  0  0  0  0  0  0  0  0  0
   38.4790   23.3370   35.4760 C   0  0  0  0  0  0  0  0  0  0  0  0
   37.8980   23.0080   36.7090 C   0  0  0  0  0  0  0  0  0  0  0  0
   36.9200   22.0640   36.7470 N   0  0  0  0  0  0  0  0  0  0  0  0
   36.4930   21.4300   35.6160 C   0  0  0  0  0  0  0  0  0  0  0  0
   37.0460   21.7360   34.4120 N   0  0  0  0  0  0  0  0  0  0  0  0
   38.4400   22.8940   33.3730 H   0  0  0  0  0  0  0  0  0  0  0  0
   35.7170   20.6770   35.6340 H   0  0  0  0  0  0  0  0  0  0  0  0
   38.2830   23.6370   38.0050 C   0  0  0  0  0  0  0  0  0  0  0  0
   39.6150   23.3010   38.3080 F   0  0  0  0  0  0  0  0  0  0  0  0
   38.1480   24.9750   38.0770 F   0  0  0  0  0  0  0  0  0  0  0  0
   37.5520   23.0480   39.0450 F   0  0  0  0  0  0  0  0  0  0  0  0
   37.6970   26.2670   35.0660 S   0  0  0  0  0  0  0  0  0  0  0  0
   36.3110   28.9630   34.3760 Cl  0  0  0  0  0  0  0  0  0  0  0  0
   36.4340   27.6990   33.1840 C   0  0  0  0  0  0  0  0  0  0  0  0
   37.0230   26.4620   33.4410 C   0  0  0  0  0  0  0  0  0  0  0  0
   37.0700   25.4970   32.4770 C   0  0  0  0  0  0  0  0  0  0  0  0
   36.5210   25.7740   31.2340 C   0  0  0  0  0  0  0  0  0  0  0  0
   35.9300   27.0130   30.9700 C   0  0  0  0  0  0  0  0  0  0  0  0
   35.8810   27.9870   31.9440 C   0  0  0  0  0  0  0  0  0  0  0  0
   37.4610   24.5190   32.5860 H   0  0  0  0  0  0  0  0  0  0  0  0
   36.5340   25.0400   30.4340 H   0  0  0  0  0  0  0  0  0  0  0  0
   35.5170   27.1630   29.9690 H   0  0  0  0  0  0  0  0  0  0  0  0
   35.2550   29.2680   31.6350 C   0  0  0  0  0  0  0  0  0  0  0  0
   34.0990   29.6510   32.2030 N   0  0  0  0  0  0  0  0  0  0  0  0
   33.7820   30.8850   31.7080 C   0  0  0  0  0  0  0  0  0  0  0  0
   32.9650   31.5810   31.8650 H   0  0  0  0  0  0  0  0  0  0  0  0
   34.7820   31.2140   30.8380 N   0  0  0  0  0  0  0  0  0  0  0  0
   34.9320   32.0630   30.2490 H   0  0  0  0  0  0  0  0  0  0  0  0
   35.6700   30.2350   30.7970 N   0  0  0  0  0  0  0  0  0  0  0  0
  1  2  1  0  0  0  0
  1 12  1  0  0  0  0
  2  7  1  0  0  0  0
  3  8  1  0  0  0  0
  3  2  2  0  0  0  0
  4  3  1  0  0  0  0
  5  4  2  0  0  0  0
  5  6  1  0  0  0  0
  6  1  2  0  0  0  0
  9  4  1  0  0  0  0
 10  5  1  0  0  0  0
 11 16  2  0  0  0  0
 11 12  1  0  0  0  0
 12 13  2  0  0  0  0
 13 14  1  0  0  0  0
 13 19  1  0  0  0  0
 15 18  1  0  0  0  0
 15 14  2  0  0  0  0
 16 15  1  0  0  0  0
 17 11  1  0  0  0  0
 19 21  1  0  0  0  0
 19 20  1  0  0  0  0
 19 22  1  0  0  0  0
 23  6  1  0  0  0  0
 25 26  1  0  0  0  0
 25 24  1  0  0  0  0
 26 23  1  0  0  0  0
 27 31  1  0  0  0  0
 27 26  2  0  0  0  0
 28 27  1  0  0  0  0
 29 28  2  0  0  0  0
 29 30  1  0  0  0  0
 30 25  2  0  0  0  0
 32 28  1  0  0  0  0
 33 29  1  0  0  0  0
 34 30  1  0  0  0  0
 34 35  1  0  0  0  0
 36 37  1  0  0  0  0
 36 35  2  0  0  0  0
 38 36  1  0  0  0  0
 39 38  1  0  0  0  0
 40 38  1  0  0  0  0
 40 34  2  0  0  0  0
M  END
>  <minimizedAffinity>
-6.38181925

$$$$

 OpenBabel03272506283D

 40 43  0  0  0  0  0  0  0  0999 V2000
   39.3160   24.6060   34.9700 C   0  0  0  0  0  0  0  0  0  0  0  0
   40.6660   24.3130   35.0010 C   0  0  0  0  0  0  0  0  0  0  0  0
   41.6800   25.2630   34.9080 C   0  0  0  0  0  0  0  0  0  0  0  0
   41.3110   26.6160   34.7710 C   0  0  0  0  0  0  0  0  0  0  0  0
   39.9600   26.8910   34.7420 C   0  0  0  0  0  0  0  0  0  0  0  0
   38.9760   25.9520   34.8350 C   0  0  0  0  0  0  0  0  0  0  0  0
   40.9940   23.2660   35.1060 H   0  0  0  0  0  0  0  0  0  0  0  0
   42.7240   24.9070   34.9460 H   0  0  0  0  0  0  0  0  0  0  0  0
   42.1660   27.2540   34.7090 H   0  0  0  0  0  0  0  0  0  0  0  0
   39.8940   27.9420   34.6280 H   0  0  0  0  0  0  0  0  0  0  0  0
   37.9970   22.9040   33.8740 C   0  0  0  0  0  0  0  0  0  0  0  0
   38.4110   23.4980   35.0770 C   0  0  0  0  0  0  0  0  0  0  0  0
   37.9160   22.9710   36.2780 C   0  0  0  0  0  0  0  0  0  0  0  0
   37.0610   21.9150   36.2330 N   0  0  0  0  0  0  0  0  0  0  0  0
   36.6740   21.3560   35.0480 C   0  0  0  0  0  0  0  0  0  0  0  0
   37.1450   21.8550   33.8730 N   0  0  0  0  0  0  0  0  0  0  0  0
   38.3520   23.2800   32.9390 H   0  0  0  0  0  0  0  0  0  0  0  0
   35.9950   20.5160   35.0000 H   0  0  0  0  0  0  0  0  0  0  0  0
   38.2670   23.5010   37.6270 C   0  0  0  0  0  0  0  0  0  0  0  0
   37.4390   22.9000   38.5930 F   0  0  0  0  0  0  0  0  0  0  0  0
   39.5500   23.3540   38.0060 F   0  0  0  0  0  0  0  0  0  0  0  0
   37.9210   24.8570   37.6990 F   0  0  0  0  0  0  0  0  0  0  0  0
   37.2610   26.3210   34.7980 S   0  0  0  0  0  0  0  0  0  0  0  0
   38.2850   26.3880   31.8630 Cl  0  0  0  0  0  0  0  0  0  0  0  0
   37.3250   27.6960   32.4970 C   0  0  0  0  0  0  0  0  0  0  0  0
   36.8570   27.7330   33.8100 C   0  0  0  0  0  0  0  0  0  0  0  0
   36.1300   28.7950   34.2610 C   0  0  0  0  0  0  0  0  0  0  0  0
   35.8630   29.8380   33.3860 C   0  0  0  0  0  0  0  0  0  0  0  0
   36.3300   29.8050   32.0680 C   0  0  0  0  0  0  0  0  0  0  0  0
   37.0660   28.7330   31.6120 C   0  0  0  0  0  0  0  0  0  0  0  0
   35.7630   28.9330   35.2460 H   0  0  0  0  0  0  0  0  0  0  0  0
   35.2880   30.7050   33.6980 H   0  0  0  0  0  0  0  0  0  0  0  0
   36.0830   30.6600   31.4340 H   0  0  0  0  0  0  0  0  0  0  0  0
   37.5370   28.7330   30.2320 C   0  0  0  0  0  0  0  0  0  0  0  0
   38.7020   29.3020   29.8780 N   0  0  0  0  0  0  0  0  0  0  0  0
   38.8530   29.1350   28.5300 C   0  0  0  0  0  0  0  0  0  0  0  0
   39.6140   29.4150   27.8080 H   0  0  0  0  0  0  0  0  0  0  0  0
   37.7490   28.4530   28.1050 N   0  0  0  0  0  0  0  0  0  0  0  0
   37.4650   28.1220   27.1570 H   0  0  0  0  0  0  0  0  0  0  0  0
   36.9560   28.2130   29.1370 N   0  0  0  0  0  0  0  0  0  0  0  0
  1  2  1  0  0  0  0
  1 12  1  0  0  0  0
  2  7  1  0  0  0  0
  3  8  1  0  0  0  0
  3  2  2  0  0  0  0
  4  3  1  0  0  0  0
  5  4  2  0  0  0  0
  5  6  1  0  0  0  0
  6  1  2  0  0  0  0
  9  4  1  0  0  0  0
 10  5  1  0  0  0  0
 11 12  1  0  0  0  0
 12 13  2  0  0  0  0
 13 19  1  0  0  0  0
 14 13  1  0  0  0  0
 15 14  2  0  0  0  0
 16 11  2  0  0  0  0
 16 15  1  0  0  0  0
 17 11  1  0  0  0  0
 18 15  1  0  0  0  0
 19 22  1  0  0  0  0
 19 21  1  0  0  0  0
 19 20  1  0  0  0  0
 23  6  1  0  0  0  0
 24 25  1  0  0  0  0
 25 26  1  0  0  0  0
 26 27  2  0  0  0  0
 26 23  1  0  0  0  0
 27 31  1  0  0  0  0
 28 32  1  0  0  0  0
 28 27  1  0  0  0  0
 29 28  2  0  0  0  0
 30 29  1  0  0  0  0
 30 25  2  0  0  0  0
 33 29  1  0  0  0  0
 34 30  1  0  0  0  0
 35 34  1  0  0  0  0
 36 35  2  0  0  0  0
 37 36  1  0  0  0  0
 38 36  1  0  0  0  0
 38 40  1  0  0  0  0
 39 38  1  0  0  0  0
 40 34  2  0  0  0  0
M  END
>  <minimizedAffinity>
-6.26574898

$$$$

 OpenBabel03272506283D

 40 43  0  0  0  0  0  0  0  0999 V2000
   38.2490   22.6660   34.0470 C   0  0  0  0  0  0  0  0  0  0  0  0
   37.5390   21.4990   33.8360 C   0  0  0  0  0  0  0  0  0  0  0  0
   36.5250   21.3530   32.8920 C   0  0  0  0  0  0  0  0  0  0  0  0
   36.1980   22.4660   32.0940 C   0  0  0  0  0  0  0  0  0  0  0  0
   36.9160   23.6220   32.3160 C   0  0  0  0  0  0  0  0  0  0  0  0
   37.9060   23.7530   33.2430 C   0  0  0  0  0  0  0  0  0  0  0  0
   37.7660   20.6060   34.4420 H   0  0  0  0  0  0  0  0  0  0  0  0
   36.0300   20.3690   32.8160 H   0  0  0  0  0  0  0  0  0  0  0  0
   35.4110   22.2420   31.4070 H   0  0  0  0  0  0  0  0  0  0  0  0
   36.5200   24.3290   31.6340 H   0  0  0  0  0  0  0  0  0  0  0  0
   40.5630   22.3280   34.6510 C   0  0  0  0  0  0  0  0  0  0  0  0
   39.2580   22.6340   35.0660 C   0  0  0  0  0  0  0  0  0  0  0  0
   39.0390   22.8830   36.4280 C   0  0  0  0  0  0  0  0  0  0  0  0
   40.0900   22.8180   37.2880 N   0  0  0  0  0  0  0  0  0  0  0  0
   41.3510   22.5180   36.8580 C   0  0  0  0  0  0  0  0  0  0  0  0
   41.5800   22.2740   35.5400 N   0  0  0  0  0  0  0  0  0  0  0  0
   40.7680   22.1310   33.6210 H   0  0  0  0  0  0  0  0  0  0  0  0
   42.1940   22.4640   37.5320 H   0  0  0  0  0  0  0  0  0  0  0  0
   37.7070   23.2160   37.0100 C   0  0  0  0  0  0  0  0  0  0  0  0
   37.3110   24.4910   36.5660 F   0  0  0  0  0  0  0  0  0  0  0  0
   36.7140   22.3430   36.7560 F   0  0  0  0  0  0  0  0  0  0  0  0
   37.8310   23.3780   38.3960 F   0  0  0  0  0  0  0  0  0  0  0  0
   38.8110   25.2320   33.5110 S   0  0  0  0  0  0  0  0  0  0  0  0
   36.5830   26.9290   34.8610 Cl  0  0  0  0  0  0  0  0  0  0  0  0
   37.1960   27.3610   33.2890 C   0  0  0  0  0  0  0  0  0  0  0  0
   38.1780   26.6270   32.6230 C   0  0  0  0  0  0  0  0  0  0  0  0
   38.6030   26.9960   31.3810 C   0  0  0  0  0  0  0  0  0  0  0  0
   38.0410   28.1190   30.7930 C   0  0  0  0  0  0  0  0  0  0  0  0
   37.0570   28.8590   31.4560 C   0  0  0  0  0  0  0  0  0  0  0  0
   36.6260   28.4860   32.7110 C   0  0  0  0  0  0  0  0  0  0  0  0
   39.3130   26.4860   30.7830 H   0  0  0  0  0  0  0  0  0  0  0  0
   38.3470   28.4540   29.8060 H   0  0  0  0  0  0  0  0  0  0  0  0
   36.6570   29.7330   30.9340 H   0  0  0  0  0  0  0  0  0  0  0  0
   35.5970   29.2800   33.3720 C   0  0  0  0  0  0  0  0  0  0  0  0
   34.2980   29.1810   33.0400 N   0  0  0  0  0  0  0  0  0  0  0  0
   33.6000   30.0480   33.8340 C   0  0  0  0  0  0  0  0  0  0  0  0
   32.5530   30.3140   33.9330 H   0  0  0  0  0  0  0  0  0  0  0  0
   34.5220   30.6550   34.6380 N   0  0  0  0  0  0  0  0  0  0  0  0
   34.4170   31.3770   35.3830 H   0  0  0  0  0  0  0  0  0  0  0  0
   35.7270   30.1880   34.3550 N   0  0  0  0  0  0  0  0  0  0  0  0
  1 12  1  0  0  0  0
  2  1  1  0  0  0  0
  2  7  1  0  0  0  0
  3  2  2  0  0  0  0
  4  5  2  0  0  0  0
  4  3  1  0  0  0  0
  5  6  1  0  0  0  0
  6 23  1  0  0  0  0
  6  1  2  0  0  0  0
  8  3  1  0  0  0  0
  9  4  1  0  0  0  0
 10  5  1  0  0  0  0
 11 12  2  0  0  0  0
 11 16  1  0  0  0  0
 12 13  1  0  0  0  0
 13 19  1  0  0  0  0
 13 14  2  0  0  0  0
 15 14  1  0  0  0  0
 15 18  1  0  0  0  0
 16 15  2  0  0  0  0
 17 11  1  0  0  0  0
 19 22  1  0  0  0  0
 20 19  1  0  0  0  0
 21 19  1  0  0  0  0
 25 24  1  0  0  0  0
 26 25  2  0  0  0  0
 26 23  1  0  0  0  0
 27 26  1  0  0  0  0
 28 27  2  0  0  0  0
 28 29  1  0  0  0  0
 29 30  2  0  0  0  0
 30 25  1  0  0  0  0
 30 34  1  0  0  0  0
 31 27  1  0  0  0  0
 32 28  1  0  0  0  0
 33 29  1  0  0  0  0
 34 40  2  0  0  0  0
 35 34  1  0  0  0  0
 35 36  2  0  0  0  0
 36 37  1  0  0  0  0
 36 38  1  0  0  0  0
 38 39  1  0  0  0  0
 40 38  1  0  0  0  0
M  END
>  <minimizedAffinity>
-5.97273111

$$$$

 OpenBabel03272506283D

 40 43  0  0  0  0  0  0  0  0999 V2000
   39.4670   24.8740   33.7470 C   0  0  0  0  0  0  0  0  0  0  0  0
   40.7430   24.8380   34.2790 C   0  0  0  0  0  0  0  0  0  0  0  0
   41.5800   25.9450   34.3940 C   0  0  0  0  0  0  0  0  0  0  0  0
   41.1000   27.1890   33.9390 C   0  0  0  0  0  0  0  0  0  0  0  0
   39.8260   27.2080   33.4120 C   0  0  0  0  0  0  0  0  0  0  0  0
   39.0150   26.1180   33.3050 C   0  0  0  0  0  0  0  0  0  0  0  0
   41.1530   23.8820   34.6440 H   0  0  0  0  0  0  0  0  0  0  0  0
   42.5790   25.7910   34.8370 H   0  0  0  0  0  0  0  0  0  0  0  0
   41.8220   27.9650   34.0760 H   0  0  0  0  0  0  0  0  0  0  0  0
   39.6600   28.2150   33.1270 H   0  0  0  0  0  0  0  0  0  0  0  0
   38.7370   22.9530   32.4770 C   0  0  0  0  0  0  0  0  0  0  0  0
   38.7480   23.6340   33.7050 C   0  0  0  0  0  0  0  0  0  0  0  0
   38.0650   23.0590   34.7850 C   0  0  0  0  0  0  0  0  0  0  0  0
   37.4220   21.8740   34.6040 N   0  0  0  0  0  0  0  0  0  0  0  0
   37.4270   21.2330   33.3980 C   0  0  0  0  0  0  0  0  0  0  0  0
   38.0850   21.7770   32.3400 N   0  0  0  0  0  0  0  0  0  0  0  0
   39.2460   23.3620   31.6310 H   0  0  0  0  0  0  0  0  0  0  0  0
   36.9200   20.2910   33.2430 H   0  0  0  0  0  0  0  0  0  0  0  0
   37.9900   23.6700   36.1440 C   0  0  0  0  0  0  0  0  0  0  0  0
   37.0380   22.9760   36.9140 F   0  0  0  0  0  0  0  0  0  0  0  0
   39.1450   23.7250   36.8330 F   0  0  0  0  0  0  0  0  0  0  0  0
   37.4520   24.9590   36.0460 F   0  0  0  0  0  0  0  0  0  0  0  0
   37.3950   26.1620   32.6330 S   0  0  0  0  0  0  0  0  0  0  0  0
   36.4770   27.7510   35.1430 Cl  0  0  0  0  0  0  0  0  0  0  0  0
   36.3910   28.4690   33.5580 C   0  0  0  0  0  0  0  0  0  0  0  0
   36.7660   27.7990   32.3940 C   0  0  0  0  0  0  0  0  0  0  0  0
   36.6540   28.4010   31.1750 C   0  0  0  0  0  0  0  0  0  0  0  0
   36.1600   29.6960   31.1170 C   0  0  0  0  0  0  0  0  0  0  0  0
   35.7830   30.3730   32.2810 C   0  0  0  0  0  0  0  0  0  0  0  0
   35.8950   29.7640   33.5130 C   0  0  0  0  0  0  0  0  0  0  0  0
   36.8770   27.9650   30.2360 H   0  0  0  0  0  0  0  0  0  0  0  0
   36.0530   30.2190   30.1710 H   0  0  0  0  0  0  0  0  0  0  0  0
   35.4020   31.3910   32.1620 H   0  0  0  0  0  0  0  0  0  0  0  0
   35.4910   30.5000   34.7060 C   0  0  0  0  0  0  0  0  0  0  0  0
   34.1980   30.6680   35.0350 N   0  0  0  0  0  0  0  0  0  0  0  0
   34.1550   31.3930   36.1920 C   0  0  0  0  0  0  0  0  0  0  0  0
   33.3590   31.7670   36.8270 H   0  0  0  0  0  0  0  0  0  0  0  0
   35.4540   31.6430   36.5330 N   0  0  0  0  0  0  0  0  0  0  0  0
   35.8680   32.1600   37.3390 H   0  0  0  0  0  0  0  0  0  0  0  0
   36.2570   31.1020   35.6320 N   0  0  0  0  0  0  0  0  0  0  0  0
  1  2  1  0  0  0  0
  2  3  2  0  0  0  0
  2  7  1  0  0  0  0
  3  8  1  0  0  0  0
  4  9  1  0  0  0  0
  4  3  1  0  0  0  0
  5  4  2  0  0  0  0
  6  5  1  0  0  0  0
  6  1  2  0  0  0  0
 10  5  1  0  0  0  0
 11 12  1  0  0  0  0
 12  1  1  0  0  0  0
 12 13  2  0  0  0  0
 13 19  1  0  0  0  0
 14 13  1  0  0  0  0
 15 14  2  0  0  0  0
 16 11  2  0  0  0  0
 16 15  1  0  0  0  0
 17 11  1  0  0  0  0
 18 15  1  0  0  0  0
 19 21  1  0  0  0  0
 19 20  1  0  0  0  0
 22 19  1  0  0  0  0
 23  6  1  0  0  0  0
 25 24  1  0  0  0  0
 26 23  1  0  0  0  0
 26 25  2  0  0  0  0
 27 26  1  0  0  0  0
 28 27  2  0  0  0  0
 28 29  1  0  0  0  0
 29 30  2  0  0  0  0
 30 25  1  0  0  0  0
 30 34  1  0  0  0  0
 31 27  1  0  0  0  0
 32 28  1  0  0  0  0
 33 29  1  0  0  0  0
 34 35  1  0  0  0  0
 34 40  2  0  0  0  0
 35 36  2  0  0  0  0
 36 38  1  0  0  0  0
 36 37  1  0  0  0  0
 38 39  1  0  0  0  0
 40 38  1  0  0  0  0
M  END
>  <minimizedAffinity>
-5.86794806

$$$$

 OpenBabel03272506283D

 40 43  0  0  0  0  0  0  0  0999 V2000
   38.1760   22.6150   34.1960 C   0  0  0  0  0  0  0  0  0  0  0  0
   37.4830   21.4490   33.9330 C   0  0  0  0  0  0  0  0  0  0  0  0
   36.5180   21.3130   32.9390 C   0  0  0  0  0  0  0  0  0  0  0  0
   36.2230   22.4370   32.1430 C   0  0  0  0  0  0  0  0  0  0  0  0
   36.9240   23.5930   32.4170 C   0  0  0  0  0  0  0  0  0  0  0  0
   37.8670   23.7140   33.3930 C   0  0  0  0  0  0  0  0  0  0  0  0
   37.6850   20.5470   34.5360 H   0  0  0  0  0  0  0  0  0  0  0  0
   36.0320   20.3280   32.8240 H   0  0  0  0  0  0  0  0  0  0  0  0
   35.4710   22.2200   31.4150 H   0  0  0  0  0  0  0  0  0  0  0  0
   36.5570   24.3090   31.7280 H   0  0  0  0  0  0  0  0  0  0  0  0
   40.4290   22.1460   34.9290 C   0  0  0  0  0  0  0  0  0  0  0  0
   39.1340   22.5730   35.2630 C   0  0  0  0  0  0  0  0  0  0  0  0
   38.8760   22.9210   36.5960 C   0  0  0  0  0  0  0  0  0  0  0  0
   39.8810   22.8330   37.5080 N   0  0  0  0  0  0  0  0  0  0  0  0
   41.1320   22.4140   37.1560 C   0  0  0  0  0  0  0  0  0  0  0  0
   41.4000   22.0720   35.8670 N   0  0  0  0  0  0  0  0  0  0  0  0
   40.6630   21.8710   33.9230 H   0  0  0  0  0  0  0  0  0  0  0  0
   41.9390   22.3400   37.8720 H   0  0  0  0  0  0  0  0  0  0  0  0
   37.5500   23.3870   37.0930 C   0  0  0  0  0  0  0  0  0  0  0  0
   37.6020   23.5320   38.4920 F   0  0  0  0  0  0  0  0  0  0  0  0
   37.0860   24.5320   36.5580 F   0  0  0  0  0  0  0  0  0  0  0  0
   36.5990   22.3760   36.9050 F   0  0  0  0  0  0  0  0  0  0  0  0
   38.7500   25.1930   33.7270 S   0  0  0  0  0  0  0  0  0  0  0  0
   39.6600   26.3840   31.0040 Cl  0  0  0  0  0  0  0  0  0  0  0  0
   38.3730   27.1290   31.9120 C   0  0  0  0  0  0  0  0  0  0  0  0
   37.9370   26.6550   33.1480 C   0  0  0  0  0  0  0  0  0  0  0  0
   36.9410   27.2930   33.8290 C   0  0  0  0  0  0  0  0  0  0  0  0
   36.3700   28.4230   33.2640 C   0  0  0  0  0  0  0  0  0  0  0  0
   36.8030   28.9030   32.0230 C   0  0  0  0  0  0  0  0  0  0  0  0
   37.8100   28.2590   31.3360 C   0  0  0  0  0  0  0  0  0  0  0  0
   36.5680   27.0330   34.7850 H   0  0  0  0  0  0  0  0  0  0  0  0
   35.5740   28.9650   33.7650 H   0  0  0  0  0  0  0  0  0  0  0  0
   36.3090   29.7980   31.6380 H   0  0  0  0  0  0  0  0  0  0  0  0
   38.2370   28.7880   30.0460 C   0  0  0  0  0  0  0  0  0  0  0  0
   37.3900   28.9040   29.0090 N   0  0  0  0  0  0  0  0  0  0  0  0
   38.0900   29.4260   27.9570 C   0  0  0  0  0  0  0  0  0  0  0  0
   37.8430   29.6930   26.9350 H   0  0  0  0  0  0  0  0  0  0  0  0
   39.3670   29.6140   28.4070 N   0  0  0  0  0  0  0  0  0  0  0  0
   40.2160   29.9890   27.9310 H   0  0  0  0  0  0  0  0  0  0  0  0
   39.4500   29.2270   29.6680 N   0  0  0  0  0  0  0  0  0  0  0  0
  1 12  1  0  0  0  0
  2  1  1  0  0  0  0
  2  7  1  0  0  0  0
  3  2  2  0  0  0  0
  4  5  2  0  0  0  0
  4  3  1  0  0  0  0
  5  6  1  0  0  0  0
  6 23  1  0  0  0  0
  6  1  2  0  0  0  0
  8  3  1  0  0  0  0
  9  4  1  0  0  0  0
 10  5  1  0  0  0  0
 11 12  2  0  0  0  0
 11 16  1  0  0  0  0
 12 13  1  0  0  0  0
 13 19  1  0  0  0  0
 13 14  2  0  0  0  0
 15 14  1  0  0  0  0
 15 18  1  0  0  0  0
 16 15  2  0  0  0  0
 17 11  1  0  0  0  0
 19 20  1  0  0  0  0
 21 19  1  0  0  0  0
 22 19  1  0  0  0  0
 24 25  1  0  0  0  0
 25 26  1  0  0  0  0
 26 23  1  0  0  0  0
 26 27  2  0  0  0  0
 27 31  1  0  0  0  0
 28 32  1  0  0  0  0
 28 27  1  0  0  0  0
 29 28  2  0  0  0  0
 30 25  2  0  0  0  0
 30 29  1  0  0  0  0
 33 29  1  0  0  0  0
 34 30  1  0  0  0  0
 35 34  1  0  0  0  0
 36 38  1  0  0  0  0
 36 35  2  0  0  0  0
 37 36  1  0  0  0  0
 38 40  1  0  0  0  0
 39 38  1  0  0  0  0
 40 34  2  0  0  0  0
M  END
>  <minimizedAffinity>
-5.84716749

$$$$

 OpenBabel03272506283D

 40 43  0  0  0  0  0  0  0  0999 V2000
   38.1210   23.6300   33.0000 C   0  0  0  0  0  0  0  0  0  0  0  0
   37.4750   22.4160   32.8610 C   0  0  0  0  0  0  0  0  0  0  0  0
   36.2650   22.2400   32.1930 C   0  0  0  0  0  0  0  0  0  0  0  0
   35.6550   23.3720   31.6180 C   0  0  0  0  0  0  0  0  0  0  0  0
   36.3130   24.5740   31.7650 C   0  0  0  0  0  0  0  0  0  0  0  0
   37.4970   24.7340   32.4210 C   0  0  0  0  0  0  0  0  0  0  0  0
   37.9210   21.5080   33.2980 H   0  0  0  0  0  0  0  0  0  0  0  0
   35.8460   21.2200   32.1480 H   0  0  0  0  0  0  0  0  0  0  0  0
   34.7360   23.1220   31.1330 H   0  0  0  0  0  0  0  0  0  0  0  0
   35.6990   25.2870   31.2800 H   0  0  0  0  0  0  0  0  0  0  0  0
   40.5320   23.4850   32.9650 C   0  0  0  0  0  0  0  0  0  0  0  0
   39.3600   23.6230   33.7240 C   0  0  0  0  0  0  0  0  0  0  0  0
   39.4840   23.7440   35.1150 C   0  0  0  0  0  0  0  0  0  0  0  0
   40.7250   23.7210   35.6710 N   0  0  0  0  0  0  0  0  0  0  0  0
   41.8490   23.5850   34.9090 C   0  0  0  0  0  0  0  0  0  0  0  0
   41.7470   23.4680   33.5580 N   0  0  0  0  0  0  0  0  0  0  0  0
   40.4770   23.3900   31.9020 H   0  0  0  0  0  0  0  0  0  0  0  0
   42.8410   23.5660   35.3400 H   0  0  0  0  0  0  0  0  0  0  0  0
   38.3280   23.8940   36.0450 C   0  0  0  0  0  0  0  0  0  0  0  0
   38.8040   24.0360   37.3610 F   0  0  0  0  0  0  0  0  0  0  0  0
   37.4830   24.9070   35.7790 F   0  0  0  0  0  0  0  0  0  0  0  0
   37.6050   22.6940   36.0870 F   0  0  0  0  0  0  0  0  0  0  0  0
   38.3220   26.2730   32.5970 S   0  0  0  0  0  0  0  0  0  0  0  0
   36.6770   27.6630   34.8400 Cl  0  0  0  0  0  0  0  0  0  0  0  0
   36.6310   28.2630   33.2060 C   0  0  0  0  0  0  0  0  0  0  0  0
   37.3280   27.6700   32.1540 C   0  0  0  0  0  0  0  0  0  0  0  0
   37.2350   28.1670   30.8870 C   0  0  0  0  0  0  0  0  0  0  0  0
   36.4340   29.2780   30.6660 C   0  0  0  0  0  0  0  0  0  0  0  0
   35.7340   29.8770   31.7180 C   0  0  0  0  0  0  0  0  0  0  0  0
   35.8270   29.3750   32.9980 C   0  0  0  0  0  0  0  0  0  0  0  0
   37.6940   27.7670   30.0200 H   0  0  0  0  0  0  0  0  0  0  0  0
   36.3290   29.7110   29.6760 H   0  0  0  0  0  0  0  0  0  0  0  0
   35.1220   30.7490   31.4720 H   0  0  0  0  0  0  0  0  0  0  0  0
   35.0810   30.0250   34.0690 C   0  0  0  0  0  0  0  0  0  0  0  0
   35.6110   31.0190   34.8040 N   0  0  0  0  0  0  0  0  0  0  0  0
   34.6700   31.4090   35.7150 C   0  0  0  0  0  0  0  0  0  0  0  0
   34.6350   32.1550   36.5010 H   0  0  0  0  0  0  0  0  0  0  0  0
   33.5770   30.6200   35.4940 N   0  0  0  0  0  0  0  0  0  0  0  0
   32.6450   30.5860   35.9630 H   0  0  0  0  0  0  0  0  0  0  0  0
   33.8300   29.7850   34.5000 N   0  0  0  0  0  0  0  0  0  0  0  0
  1 12  1  0  0  0  0
  2  1  1  0  0  0  0
  2  7  1  0  0  0  0
  3  2  2  0  0  0  0
  4  5  2  0  0  0  0
  4  3  1  0  0  0  0
  5  6  1  0  0  0  0
  6 23  1  0  0  0  0
  6  1  2  0  0  0  0
  8  3  1  0  0  0  0
  9  4  1  0  0  0  0
 10  5  1  0  0  0  0
 11 16  2  0  0  0  0
 11 12  1  0  0  0  0
 12 13  2  0  0  0  0
 13 14  1  0  0  0  0
 13 19  1  0  0  0  0
 15 18  1  0  0  0  0
 15 14  2  0  0  0  0
 16 15  1  0  0  0  0
 17 11  1  0  0  0  0
 19 22  1  0  0  0  0
 19 20  1  0  0  0  0
 21 19  1  0  0  0  0
 25 24  1  0  0  0  0
 26 23  1  0  0  0  0
 26 25  2  0  0  0  0
 27 26  1  0  0  0  0
 28 27  2  0  0  0  0
 28 29  1  0  0  0  0
 29 30  2  0  0  0  0
 30 25  1  0  0  0  0
 30 34  1  0  0  0  0
 31 27  1  0  0  0  0
 32 28  1  0  0  0  0
 33 29  1  0  0  0  0
 34 40  2  0  0  0  0
 34 35  1  0  0  0  0
 35 36  2  0  0  0  0
 36 37  1  0  0  0  0
 38 36  1  0  0  0  0
 38 39  1  0  0  0  0
 40 38  1  0  0  0  0
M  END
>  <minimizedAffinity>
-5.84257603

$$$$

 OpenBabel03272506283D

 40 43  0  0  0  0  0  0  0  0999 V2000
   38.7950   26.5810   30.6750 C   0  0  0  0  0  0  0  0  0  0  0  0
   39.3380   27.3770   29.6840 C   0  0  0  0  0  0  0  0  0  0  0  0
   38.6500   28.3930   29.0250 C   0  0  0  0  0  0  0  0  0  0  0  0
   37.3110   28.6310   29.3890 C   0  0  0  0  0  0  0  0  0  0  0  0
   36.7850   27.8290   30.3800 C   0  0  0  0  0  0  0  0  0  0  0  0
   37.4680   26.8370   31.0180 C   0  0  0  0  0  0  0  0  0  0  0  0
   40.3840   27.2200   29.3710 H   0  0  0  0  0  0  0  0  0  0  0  0
   39.1920   28.9620   28.2500 H   0  0  0  0  0  0  0  0  0  0  0  0
   36.8830   29.4300   28.8230 H   0  0  0  0  0  0  0  0  0  0  0  0
   35.7840   28.1560   30.4990 H   0  0  0  0  0  0  0  0  0  0  0  0
   40.5190   25.9960   32.2640 C   0  0  0  0  0  0  0  0  0  0  0  0
   39.6520   25.5790   31.2420 C   0  0  0  0  0  0  0  0  0  0  0  0
   39.6850   24.2320   30.8560 C   0  0  0  0  0  0  0  0  0  0  0  0
   40.5500   23.3880   31.4800 N   0  0  0  0  0  0  0  0  0  0  0  0
   41.3840   23.8210   32.4710 C   0  0  0  0  0  0  0  0  0  0  0  0
   41.3630   25.1240   32.8580 N   0  0  0  0  0  0  0  0  0  0  0  0
   40.5220   27.0160   32.5840 H   0  0  0  0  0  0  0  0  0  0  0  0
   42.0750   23.1590   32.9740 H   0  0  0  0  0  0  0  0  0  0  0  0
   38.8250   23.6500   29.7850 C   0  0  0  0  0  0  0  0  0  0  0  0
   39.1750   22.3020   29.5890 F   0  0  0  0  0  0  0  0  0  0  0  0
   37.4960   23.7260   29.9880 F   0  0  0  0  0  0  0  0  0  0  0  0
   39.1370   24.2510   28.5590 F   0  0  0  0  0  0  0  0  0  0  0  0
   36.7820   25.8270   32.2790 S   0  0  0  0  0  0  0  0  0  0  0  0
   37.9180   23.4510   33.9300 Cl  0  0  0  0  0  0  0  0  0  0  0  0
   37.9360   25.0680   34.5760 C   0  0  0  0  0  0  0  0  0  0  0  0
   37.4210   26.1690   33.8940 C   0  0  0  0  0  0  0  0  0  0  0  0
   37.4380   27.4110   34.4590 C   0  0  0  0  0  0  0  0  0  0  0  0
   37.9800   27.5560   35.7270 C   0  0  0  0  0  0  0  0  0  0  0  0
   38.4990   26.4560   36.4160 C   0  0  0  0  0  0  0  0  0  0  0  0
   38.4810   25.2010   35.8460 C   0  0  0  0  0  0  0  0  0  0  0  0
   37.0400   28.2980   34.0380 H   0  0  0  0  0  0  0  0  0  0  0  0
   38.0170   28.5240   36.2190 H   0  0  0  0  0  0  0  0  0  0  0  0
   38.9100   26.6420   37.4110 H   0  0  0  0  0  0  0  0  0  0  0  0
   39.0290   24.0750   36.5940 C   0  0  0  0  0  0  0  0  0  0  0  0
   40.2230   23.5340   36.2930 N   0  0  0  0  0  0  0  0  0  0  0  0
   40.4460   22.5090   37.1700 C   0  0  0  0  0  0  0  0  0  0  0  0
   41.2510   21.7970   37.3180 H   0  0  0  0  0  0  0  0  0  0  0  0
   39.3550   22.4660   37.9900 N   0  0  0  0  0  0  0  0  0  0  0  0
   39.1200   21.8390   38.7910 H   0  0  0  0  0  0  0  0  0  0  0  0
   38.5020   23.4130   37.6390 N   0  0  0  0  0  0  0  0  0  0  0  0
  1  6  1  0  0  0  0
  1 12  1  0  0  0  0
  2  1  2  0  0  0  0
  3  4  2  0  0  0  0
  3  2  1  0  0  0  0
  4  5  1  0  0  0  0
  5 10  1  0  0  0  0
  5  6  2  0  0  0  0
  6 23  1  0  0  0  0
  7  2  1  0  0  0  0
  8  3  1  0  0  0  0
  9  4  1  0  0  0  0
 11 17  1  0  0  0  0
 11 16  1  0  0  0  0
 12 11  2  0  0  0  0
 13 12  1  0  0  0  0
 13 14  2  0  0  0  0
 14 15  1  0  0  0  0
 15 16  2  0  0  0  0
 15 18  1  0  0  0  0
 19 21  1  0  0  0  0
 19 13  1  0  0  0  0
 20 19  1  0  0  0  0
 22 19  1  0  0  0  0
 23 26  1  0  0  0  0
 24 25  1  0  0  0  0
 25 30  1  0  0  0  0
 26 27  1  0  0  0  0
 26 25  2  0  0  0  0
 27 28  2  0  0  0  0
 28 32  1  0  0  0  0
 28 29  1  0  0  0  0
 29 33  1  0  0  0  0
 30 29  2  0  0  0  0
 30 34  1  0  0  0  0
 31 27  1  0  0  0  0
 34 40  2  0  0  0  0
 35 34  1  0  0  0  0
 35 36  2  0  0  0  0
 36 37  1  0  0  0  0
 36 38  1  0  0  0  0
 38 39  1  0  0  0  0
 40 38  1  0  0  0  0
M  END
>  <minimizedAffinity>
-5.84151173

$$$$

 OpenBabel03272506283D

 40 43  0  0  0  0  0  0  0  0999 V2000
   37.5900   27.7790   31.8440 C   0  0  0  0  0  0  0  0  0  0  0  0
   38.1470   27.8910   30.5840 C   0  0  0  0  0  0  0  0  0  0  0  0
   37.8180   28.8820   29.6620 C   0  0  0  0  0  0  0  0  0  0  0  0
   36.8530   29.8380   30.0340 C   0  0  0  0  0  0  0  0  0  0  0  0
   36.3080   29.7140   31.2940 C   0  0  0  0  0  0  0  0  0  0  0  0
   36.6390   28.7390   32.1880 C   0  0  0  0  0  0  0  0  0  0  0  0
   38.9050   27.1600   30.2570 H   0  0  0  0  0  0  0  0  0  0  0  0
   38.3310   28.8670   28.6860 H   0  0  0  0  0  0  0  0  0  0  0  0
   36.6800   30.5480   29.2540 H   0  0  0  0  0  0  0  0  0  0  0  0
   35.6120   30.5080   31.3750 H   0  0  0  0  0  0  0  0  0  0  0  0
   39.0970   26.9700   33.5500 C   0  0  0  0  0  0  0  0  0  0  0  0
   38.0480   26.6920   32.6600 C   0  0  0  0  0  0  0  0  0  0  0  0
   37.5320   25.3890   32.6340 C   0  0  0  0  0  0  0  0  0  0  0  0
   38.0630   24.4520   33.4650 N   0  0  0  0  0  0  0  0  0  0  0  0
   39.0840   24.7500   34.3210 C   0  0  0  0  0  0  0  0  0  0  0  0
   39.5960   26.0090   34.3590 N   0  0  0  0  0  0  0  0  0  0  0  0
   39.5160   27.9520   33.5970 H   0  0  0  0  0  0  0  0  0  0  0  0
   39.5130   24.0130   34.9860 H   0  0  0  0  0  0  0  0  0  0  0  0
   36.4220   24.9500   31.7390 C   0  0  0  0  0  0  0  0  0  0  0  0
   36.0060   23.6580   32.1130 F   0  0  0  0  0  0  0  0  0  0  0  0
   35.3440   25.7550   31.6950 F   0  0  0  0  0  0  0  0  0  0  0  0
   36.9140   24.7720   30.4400 F   0  0  0  0  0  0  0  0  0  0  0  0
   35.9350   28.5970   33.7900 S   0  0  0  0  0  0  0  0  0  0  0  0
   36.2230   30.9220   35.8340 Cl  0  0  0  0  0  0  0  0  0  0  0  0
   34.7330   30.6870   34.9620 C   0  0  0  0  0  0  0  0  0  0  0  0
   34.5370   29.6500   34.0510 C   0  0  0  0  0  0  0  0  0  0  0  0
   33.3390   29.4980   33.4140 C   0  0  0  0  0  0  0  0  0  0  0  0
   32.3210   30.3980   33.6910 C   0  0  0  0  0  0  0  0  0  0  0  0
   32.5130   31.4400   34.6030 C   0  0  0  0  0  0  0  0  0  0  0  0
   33.7220   31.5940   35.2470 C   0  0  0  0  0  0  0  0  0  0  0  0
   33.0820   28.7250   32.7370 H   0  0  0  0  0  0  0  0  0  0  0  0
   31.3510   30.3200   33.2090 H   0  0  0  0  0  0  0  0  0  0  0  0
   31.6680   32.1120   34.7730 H   0  0  0  0  0  0  0  0  0  0  0  0
   33.8860   32.6910   36.1930 C   0  0  0  0  0  0  0  0  0  0  0  0
   34.3230   33.9030   35.8090 N   0  0  0  0  0  0  0  0  0  0  0  0
   34.3670   34.6990   36.9190 C   0  0  0  0  0  0  0  0  0  0  0  0
   34.6470   35.7310   37.1060 H   0  0  0  0  0  0  0  0  0  0  0  0
   33.9430   33.9240   37.9610 N   0  0  0  0  0  0  0  0  0  0  0  0
   33.8250   34.1380   38.9750 H   0  0  0  0  0  0  0  0  0  0  0  0
   33.6540   32.7120   37.5180 N   0  0  0  0  0  0  0  0  0  0  0  0
  1  6  1  0  0  0  0
  1 12  1  0  0  0  0
  2  1  2  0  0  0  0
  3  4  2  0  0  0  0
  3  2  1  0  0  0  0
  4  5  1  0  0  0  0
  5 10  1  0  0  0  0
  5  6  2  0  0  0  0
  6 23  1  0  0  0  0
  7  2  1  0  0  0  0
  8  3  1  0  0  0  0
  9  4  1  0  0  0  0
 11 17  1  0  0  0  0
 11 16  1  0  0  0  0
 12 11  2  0  0  0  0
 13 12  1  0  0  0  0
 13 14  2  0  0  0  0
 14 15  1  0  0  0  0
 15 16  2  0  0  0  0
 15 18  1  0  0  0  0
 19 20  1  0  0  0  0
 19 13  1  0  0  0  0
 21 19  1  0  0  0  0
 22 19  1  0  0  0  0
 23 26  1  0  0  0  0
 25 30  1  0  0  0  0
 25 24  1  0  0  0  0
 26 25  2  0  0  0  0
 27 28  2  0  0  0  0
 27 26  1  0  0  0  0
 28 29  1  0  0  0  0
 29 33  1  0  0  0  0
 29 30  2  0  0  0  0
 30 34  1  0  0  0  0
 31 27  1  0  0  0  0
 32 28  1  0  0  0  0
 34 40  2  0  0  0  0
 35 34  1  0  0  0  0
 35 36  2  0  0  0  0
 36 37  1  0  0  0  0
 36 38  1  0  0  0  0
 38 39  1  0  0  0  0
 40 38  1  0  0  0  0
M  END
>  <minimizedAffinity>
-5.76660347

$$$$

 OpenBabel03272506283D

 40 43  0  0  0  0  0  0  0  0999 V2000
   42.0590   23.6140   34.6810 C   0  0  0  0  0  0  0  0  0  0  0  0
   42.6370   22.7570   35.5990 C   0  0  0  0  0  0  0  0  0  0  0  0
   43.5840   23.1400   36.5460 C   0  0  0  0  0  0  0  0  0  0  0  0
   43.9850   24.4900   36.5750 C   0  0  0  0  0  0  0  0  0  0  0  0
   43.3980   25.3310   35.6540 C   0  0  0  0  0  0  0  0  0  0  0  0
   42.4710   24.9460   34.7320 C   0  0  0  0  0  0  0  0  0  0  0  0
   42.3500   21.6930   35.6070 H   0  0  0  0  0  0  0  0  0  0  0  0
   43.9730   22.3630   37.2270 H   0  0  0  0  0  0  0  0  0  0  0  0
   44.7110   24.6700   37.3380 H   0  0  0  0  0  0  0  0  0  0  0  0
   43.8310   26.2810   35.8320 H   0  0  0  0  0  0  0  0  0  0  0  0
   41.5740   22.6840   32.5050 C   0  0  0  0  0  0  0  0  0  0  0  0
   41.1020   23.0440   33.7770 C   0  0  0  0  0  0  0  0  0  0  0  0
   39.7480   22.8240   34.0670 C   0  0  0  0  0  0  0  0  0  0  0  0
   38.9500   22.2750   33.1120 N   0  0  0  0  0  0  0  0  0  0  0  0
   39.4350   21.9330   31.8820 C   0  0  0  0  0  0  0  0  0  0  0  0
   40.7460   22.1400   31.5850 N   0  0  0  0  0  0  0  0  0  0  0  0
   42.6000   22.8380   32.2480 H   0  0  0  0  0  0  0  0  0  0  0  0
   38.8110   21.4960   31.1160 H   0  0  0  0  0  0  0  0  0  0  0  0
   39.1100   23.1600   35.3720 C   0  0  0  0  0  0  0  0  0  0  0  0
   38.8980   21.9770   36.1040 F   0  0  0  0  0  0  0  0  0  0  0  0
   39.7760   24.0350   36.1490 F   0  0  0  0  0  0  0  0  0  0  0  0
   37.8140   23.6420   35.1470 F   0  0  0  0  0  0  0  0  0  0  0  0
   41.7350   26.0320   33.5670 S   0  0  0  0  0  0  0  0  0  0  0  0
   39.5800   25.5080   31.3880 Cl  0  0  0  0  0  0  0  0  0  0  0  0
   39.1330   26.1710   32.9360 C   0  0  0  0  0  0  0  0  0  0  0  0
   40.0560   26.4490   33.9430 C   0  0  0  0  0  0  0  0  0  0  0  0
   39.6530   26.9920   35.1280 C   0  0  0  0  0  0  0  0  0  0  0  0
   38.3050   27.2610   35.3110 C   0  0  0  0  0  0  0  0  0  0  0  0
   37.3750   26.9830   34.3040 C   0  0  0  0  0  0  0  0  0  0  0  0
   37.7820   26.4350   33.1070 C   0  0  0  0  0  0  0  0  0  0  0  0
   40.2790   27.2710   35.9360 H   0  0  0  0  0  0  0  0  0  0  0  0
   37.9350   27.6920   36.2360 H   0  0  0  0  0  0  0  0  0  0  0  0
   36.3290   27.2210   34.5160 H   0  0  0  0  0  0  0  0  0  0  0  0
   36.7840   26.1610   32.0790 C   0  0  0  0  0  0  0  0  0  0  0  0
   36.1320   24.9870   32.0150 N   0  0  0  0  0  0  0  0  0  0  0  0
   35.2750   25.0450   30.9520 C   0  0  0  0  0  0  0  0  0  0  0  0
   34.5590   24.3580   30.5130 H   0  0  0  0  0  0  0  0  0  0  0  0
   35.4420   26.2810   30.3960 N   0  0  0  0  0  0  0  0  0  0  0  0
   34.9870   26.7340   29.5740 H   0  0  0  0  0  0  0  0  0  0  0  0
   36.3540   26.9520   31.0800 N   0  0  0  0  0  0  0  0  0  0  0  0
  1  6  2  0  0  0  0
  1  2  1  0  0  0  0
  2  7  1  0  0  0  0
  2  3  2  0  0  0  0
  3  4  1  0  0  0  0
  3  8  1  0  0  0  0
  4  9  1  0  0  0  0
  5 10  1  0  0  0  0
  5  4  2  0  0  0  0
  6  5  1  0  0  0  0
 11 12  1  0  0  0  0
 12 13  2  0  0  0  0
 12  1  1  0  0  0  0
 13 19  1  0  0  0  0
 14 13  1  0  0  0  0
 15 14  2  0  0  0  0
 16 15  1  0  0  0  0
 16 11  2  0  0  0  0
 17 11  1  0  0  0  0
 18 15  1  0  0  0  0
 19 20  1  0  0  0  0
 19 21  1  0  0  0  0
 22 19  1  0  0  0  0
 23 26  1  0  0  0  0
 23  6  1  0  0  0  0
 24 25  1  0  0  0  0
 25 30  2  0  0  0  0
 25 26  1  0  0  0  0
 26 27  2  0  0  0  0
 27 28  1  0  0  0  0
 27 31  1  0  0  0  0
 28 32  1  0  0  0  0
 29 33  1  0  0  0  0
 29 28  2  0  0  0  0
 30 29  1  0  0  0  0
 34 30  1  0  0  0  0
 35 34  1  0  0  0  0
 36 35  2  0  0  0  0
 37 36  1  0  0  0  0
 38 36  1  0  0  0  0
 38 40  1  0  0  0  0
 39 38  1  0  0  0  0
 40 34  2  0  0  0  0
M  END
>  <minimizedAffinity>
-5.71221638

$$$$
