
 OpenBabel03272507193D

 28 30  0  0  1  0  0  0  0  0999 V2000
   37.3340   31.2650   49.4140 C   0  0  0  0  0  0  0  0  0  0  0  0
   38.2960   32.2690   49.4930 C   0  0  0  0  0  0  0  0  0  0  0  0
   38.8040   32.6920   48.2670 C   0  0  0  0  0  0  0  0  0  0  0  0
   38.3660   32.1410   47.0870 N   0  0  0  0  0  0  0  0  0  0  0  0
   37.4250   31.1620   47.0630 C   0  0  0  0  0  0  0  0  0  0  0  0
   36.9030   30.7210   48.2430 N   0  0  0  0  0  0  0  0  0  0  0  0
   38.6220   32.6850   50.4180 H   0  0  0  0  0  0  0  0  0  0  0  0
   39.5580   33.4700   48.2140 H   0  0  0  0  0  0  0  0  0  0  0  0
   36.7580   30.8010   50.7140 C   0  0  1  0  0  0  0  0  0  0  0  0
   36.0430   29.5290   50.8290 C   0  0  2  0  0  0  0  0  0  0  0  0
   37.4800   29.5470   51.2480 C   0  0  0  0  0  0  0  0  0  0  0  0
   36.6790   31.6230   51.4730 H   0  0  0  0  0  0  0  0  0  0  0  0
   35.1980   29.5850   51.5730 H   0  0  0  0  0  0  0  0  0  0  0  0
   38.2250   29.0510   50.6160 H   0  0  0  0  0  0  0  0  0  0  0  0
   37.6750   29.5350   52.3350 H   0  0  0  0  0  0  0  0  0  0  0  0
   35.6900   28.8890   49.6490 O   0  0  0  0  0  0  0  0  0  0  0  0
   34.4790   28.4300   49.2500 C   0  0  0  0  0  0  0  0  0  0  0  0
   34.3550   27.4420   48.4960 O   0  0  0  0  0  0  0  0  0  0  0  0
   33.4880   29.2300   49.8150 N   0  0  0  0  0  0  0  0  0  0  0  0
   33.4190   30.2470   49.8460 H   0  0  0  0  0  0  0  0  0  0  0  0
   32.7330   28.6680   50.2570 H   0  0  0  0  0  0  0  0  0  0  0  0
   37.0260   30.6420   45.7820 C   0  0  0  0  0  0  0  0  0  0  0  0
   37.9140   30.5060   44.7540 N   0  0  0  0  0  0  0  0  0  0  0  0
   37.2930   29.9980   43.6660 C   0  0  0  0  0  0  0  0  0  0  0  0
   37.8930   29.8420   42.7830 H   0  0  0  0  0  0  0  0  0  0  0  0
   36.0090   29.8170   44.0190 N   0  0  0  0  0  0  0  0  0  0  0  0
   35.3320   29.4320   43.3390 H   0  0  0  0  0  0  0  0  0  0  0  0
   35.8400   30.2020   45.2910 N   0  0  0  0  0  0  0  0  0  0  0  0
  1  2  1  0  0  0  0
  1  9  1  0  0  0  0
  2  7  1  0  0  0  0
  3  2  2  0  0  0  0
  4  3  1  0  0  0  0
  5  4  2  0  0  0  0
  5  6  1  0  0  0  0
  6  1  2  0  0  0  0
  8  3  1  0  0  0  0
  9 10  1  0  0  0  0
  9 11  1  0  0  0  0
  9 12  1  1  0  0  0
 10 11  1  0  0  0  0
 10 13  1  1  0  0  0
 11 15  1  0  0  0  0
 14 11  1  0  0  0  0
 16 10  1  0  0  0  0
 17 16  1  0  0  0  0
 17 19  1  0  0  0  0
 18 17  2  0  0  0  0
 19 20  1  0  0  0  0
 19 21  1  0  0  0  0
 22  5  1  0  0  0  0
 23 22  1  0  0  0  0
 24 26  1  0  0  0  0
 24 23  2  0  0  0  0
 25 24  1  0  0  0  0
 26 28  1  0  0  0  0
 27 26  1  0  0  0  0
 28 22  2  0  0  0  0
M  END
>  <minimizedAffinity>
-5.20318556

>  <minimizedRMSD>
0.217158347

$$$$
