
 OpenBabel03272507193D

 28 30  0  0  1  0  0  0  0  0999 V2000
   37.4950   31.4450   49.4600 C   0  0  0  0  0  0  0  0  0  0  0  0
   38.3580   32.4470   49.8950 C   0  0  0  0  0  0  0  0  0  0  0  0
   38.9850   33.1640   48.8790 C   0  0  0  0  0  0  0  0  0  0  0  0
   38.7480   32.8790   47.5560 N   0  0  0  0  0  0  0  0  0  0  0  0
   37.8960   31.8890   47.1820 C   0  0  0  0  0  0  0  0  0  0  0  0
   37.2620   31.1650   48.1480 N   0  0  0  0  0  0  0  0  0  0  0  0
   38.5280   32.6550   50.9270 H   0  0  0  0  0  0  0  0  0  0  0  0
   39.6780   33.9670   49.1080 H   0  0  0  0  0  0  0  0  0  0  0  0
   36.7930   30.6690   50.5290 C   0  0  1  0  0  0  0  0  0  0  0  0
   36.0230   29.4630   50.2250 C   0  0  2  0  0  0  0  0  0  0  0  0
   37.4190   29.2740   50.7300 C   0  0  0  0  0  0  0  0  0  0  0  0
   36.6840   31.2460   51.4850 H   0  0  0  0  0  0  0  0  0  0  0  0
   35.1210   29.3580   50.8930 H   0  0  0  0  0  0  0  0  0  0  0  0
   38.1940   28.9310   50.0360 H   0  0  0  0  0  0  0  0  0  0  0  0
   37.5210   28.9430   51.7790 H   0  0  0  0  0  0  0  0  0  0  0  0
   35.7460   29.2050   48.8890 O   0  0  0  0  0  0  0  0  0  0  0  0
   34.5510   28.9910   48.2860 C   0  0  0  0  0  0  0  0  0  0  0  0
   34.4440   28.8470   47.0500 O   0  0  0  0  0  0  0  0  0  0  0  0
   33.5550   28.9680   49.2600 N   0  0  0  0  0  0  0  0  0  0  0  0
   33.3820   29.6210   50.0230 H   0  0  0  0  0  0  0  0  0  0  0  0
   32.9200   28.1500   49.1540 H   0  0  0  0  0  0  0  0  0  0  0  0
   37.7070   31.6590   45.7750 C   0  0  0  0  0  0  0  0  0  0  0  0
   37.1790   30.4910   45.3030 N   0  0  0  0  0  0  0  0  0  0  0  0
   37.1050   30.5240   43.9530 C   0  0  0  0  0  0  0  0  0  0  0  0
   36.7030   29.6540   43.4590 H   0  0  0  0  0  0  0  0  0  0  0  0
   37.5920   31.7220   43.5830 N   0  0  0  0  0  0  0  0  0  0  0  0
   37.6370   31.9770   42.5810 H   0  0  0  0  0  0  0  0  0  0  0  0
   37.9570   32.4100   44.6720 N   0  0  0  0  0  0  0  0  0  0  0  0
  1  2  1  0  0  0  0
  1  9  1  0  0  0  0
  2  7  1  0  0  0  0
  3  8  1  0  0  0  0
  3  2  2  0  0  0  0
  4  3  1  0  0  0  0
  5  4  2  0  0  0  0
  5  6  1  0  0  0  0
  6  1  2  0  0  0  0
  9 11  1  0  0  0  0
  9 12  1  1  0  0  0
 10  9  1  0  0  0  0
 10 11  1  0  0  0  0
 10 13  1  1  0  0  0
 11 15  1  0  0  0  0
 14 11  1  0  0  0  0
 16 10  1  0  0  0  0
 17 16  1  0  0  0  0
 17 19  1  0  0  0  0
 18 17  2  0  0  0  0
 19 20  1  0  0  0  0
 21 19  1  0  0  0  0
 22  5  1  0  0  0  0
 23 22  1  0  0  0  0
 24 23  2  0  0  0  0
 25 24  1  0  0  0  0
 26 24  1  0  0  0  0
 26 28  1  0  0  0  0
 27 26  1  0  0  0  0
 28 22  2  0  0  0  0
M  END
>  <minimizedAffinity>
-5.01982784

>  <minimizedRMSD>
1.17597568

$$$$
