
 OpenBabel03272509403D

 33 35  0  0  0  0  0  0  0  0999 V2000
   37.0600   30.9580   49.0690 C   0  0  0  0  0  0  0  0  0  0  0  0
   36.8110   31.9220   50.0500 C   0  0  0  0  0  0  0  0  0  0  0  0
   37.4340   33.1620   50.0460 C   0  0  0  0  0  0  0  0  0  0  0  0
   38.3460   33.4650   49.0270 C   0  0  0  0  0  0  0  0  0  0  0  0
   38.5780   32.5140   48.0760 C   0  0  0  0  0  0  0  0  0  0  0  0
   37.9430   31.2850   48.1040 C   0  0  0  0  0  0  0  0  0  0  0  0
   36.1000   31.6700   50.8350 H   0  0  0  0  0  0  0  0  0  0  0  0
   37.1710   33.8340   50.8510 H   0  0  0  0  0  0  0  0  0  0  0  0
   38.8100   34.4340   49.0520 H   0  0  0  0  0  0  0  0  0  0  0  0
   39.2950   32.8330   47.3290 H   0  0  0  0  0  0  0  0  0  0  0  0
   36.3620   29.6870   49.1540 C   0  0  0  0  0  0  0  0  0  0  0  0
   36.8790   28.8520   49.9780 O   0  0  0  0  0  0  0  0  0  0  0  0
   33.5980   30.1310   46.8530 C   0  0  0  0  0  0  0  0  0  0  0  0
   32.9460   28.9120   46.8590 C   0  0  0  0  0  0  0  0  0  0  0  0
   33.4550   27.9010   47.6690 C   0  0  0  0  0  0  0  0  0  0  0  0
   34.5660   28.1540   48.4150 N   0  0  0  0  0  0  0  0  0  0  0  0
   35.1650   29.3370   48.3830 C   0  0  0  0  0  0  0  0  0  0  0  0
   34.6720   30.3200   47.5980 N   0  0  0  0  0  0  0  0  0  0  0  0
   33.1590   30.8930   46.2010 H   0  0  0  0  0  0  0  0  0  0  0  0
   32.0600   28.6490   46.2900 H   0  0  0  0  0  0  0  0  0  0  0  0
   33.0710   26.8960   47.7920 H   0  0  0  0  0  0  0  0  0  0  0  0
   38.3060   30.3950   47.0230 C   0  0  0  0  0  3  0  0  0  0  0  0
   38.8710   30.7400   45.8740 C   0  0  0  0  0  3  0  0  0  0  0  0
   39.2950   29.9580   44.7030 C   0  0  0  0  0  0  0  0  0  0  0  0
   38.6660   29.0430   44.6260 H   0  0  0  0  0  0  0  0  0  0  0  0
   40.3360   29.5830   44.7580 H   0  0  0  0  0  0  0  0  0  0  0  0
   39.1530   30.7290   43.4360 C   0  0  0  0  0  0  0  0  0  0  0  0
   38.1090   30.7730   42.5780 N   0  0  0  0  0  0  0  0  0  0  0  0
   38.4460   31.6120   41.5720 C   0  0  0  0  0  0  0  0  0  0  0  0
   37.9720   31.9730   40.6690 H   0  0  0  0  0  0  0  0  0  0  0  0
   39.6900   32.0630   41.8350 N   0  0  0  0  0  0  0  0  0  0  0  0
   40.3450   32.7260   41.3340 H   0  0  0  0  0  0  0  0  0  0  0  0
   40.1310   31.5370   42.9620 N   0  0  0  0  0  0  0  0  0  0  0  0
  1 11  1  0  0  0  0
  1  2  1  0  0  0  0
  2  7  1  0  0  0  0
  3  2  2  0  0  0  0
  3  8  1  0  0  0  0
  4  9  1  0  0  0  0
  4  3  1  0  0  0  0
  5  6  1  0  0  0  0
  5  4  2  0  0  0  0
  6  1  2  0  0  0  0
 10  5  1  0  0  0  0
 11 12  2  0  0  0  0
 13 14  2  0  0  0  0
 13 18  1  0  0  0  0
 14 15  1  0  0  0  0
 15 21  1  0  0  0  0
 15 16  2  0  0  0  0
 17 16  1  0  0  0  0
 17 11  1  0  0  0  0
 18 17  2  0  0  0  0
 19 13  1  0  0  0  0
 20 14  1  0  0  0  0
 22  6  1  0  0  0  0
 23 22  2  0  0  0  0
 24 26  1  0  0  0  0
 24 23  1  0  0  0  0
 25 24  1  0  0  0  0
 27 24  1  0  0  0  0
 28 27  1  0  0  0  0
 29 31  1  0  0  0  0
 29 28  2  0  0  0  0
 30 29  1  0  0  0  0
 31 33  1  0  0  0  0
 32 31  1  0  0  0  0
 33 27  2  0  0  0  0
M  END
>  <minimizedAffinity>
-5.76915503

>  <minimizedRMSD>
1.70538676

$$$$
