
 OpenBabel03272505093D

 27 29  0  0  0  0  0  0  0  0999 V2000
   38.7680   23.5370   33.6920 Cl  0  0  0  0  0  0  0  0  0  0  0  0
   37.5250   22.3240   33.8760 C   0  0  0  0  0  0  0  0  0  0  0  0
   37.2690   21.9000   35.1450 C   0  0  0  0  0  0  0  0  0  0  0  0
   36.2780   20.9310   35.3140 C   0  0  0  0  0  0  0  0  0  0  0  0
   35.6040   20.4430   34.2160 C   0  0  0  0  0  0  0  0  0  0  0  0
   35.9160   20.9160   32.9700 C   0  0  0  0  0  0  0  0  0  0  0  0
   36.8710   21.8600   32.7450 C   0  0  0  0  0  0  0  0  0  0  0  0
   36.0560   20.5780   36.3080 H   0  0  0  0  0  0  0  0  0  0  0  0
   34.8430   19.6930   34.3820 H   0  0  0  0  0  0  0  0  0  0  0  0
   35.3780   20.5250   32.1140 H   0  0  0  0  0  0  0  0  0  0  0  0
   40.0150   22.5640   37.4620 C   0  0  0  0  0  0  0  0  0  0  0  0
   39.4400   23.4130   38.4380 C   0  0  0  0  0  0  0  0  0  0  0  0
   38.0910   23.7440   38.2740 C   0  0  0  0  0  0  0  0  0  0  0  0
   37.4120   23.2430   37.2020 N   0  0  0  0  0  0  0  0  0  0  0  0
   38.0050   22.4400   36.3030 C   0  0  0  0  0  0  0  0  0  0  0  0
   39.2850   22.1170   36.4460 N   0  0  0  0  0  0  0  0  0  0  0  0
   41.0450   22.2830   37.5470 H   0  0  0  0  0  0  0  0  0  0  0  0
   40.0340   23.7800   39.2700 H   0  0  0  0  0  0  0  0  0  0  0  0
   37.6130   24.3910   39.0000 H   0  0  0  0  0  0  0  0  0  0  0  0
   37.3120   22.5090   31.1360 S   0  0  0  0  0  0  0  0  0  0  0  0
   36.6930   24.1730   30.9430 C   0  0  0  0  0  0  0  0  0  0  0  0
   35.3540   24.3030   30.9860 N   0  0  0  0  0  0  0  0  0  0  0  0
   34.9890   25.5830   30.8330 C   0  0  0  0  0  0  0  0  0  0  0  0
   34.0030   26.0330   30.8160 H   0  0  0  0  0  0  0  0  0  0  0  0
   36.1360   26.2660   30.6890 N   0  0  0  0  0  0  0  0  0  0  0  0
   36.3280   27.2860   30.5450 H   0  0  0  0  0  0  0  0  0  0  0  0
   37.1860   25.4310   30.7530 N   0  0  0  0  0  0  0  0  0  0  0  0
  1  2  1  0  0  0  0
  2  3  1  0  0  0  0
  3  4  2  0  0  0  0
  3 15  1  0  0  0  0
  4  8  1  0  0  0  0
  5  9  1  0  0  0  0
  5  4  1  0  0  0  0
  6  5  2  0  0  0  0
  7  6  1  0  0  0  0
  7  2  2  0  0  0  0
 10  6  1  0  0  0  0
 11 17  1  0  0  0  0
 11 12  1  0  0  0  0
 12 18  1  0  0  0  0
 13 12  2  0  0  0  0
 13 19  1  0  0  0  0
 14 13  1  0  0  0  0
 15 16  1  0  0  0  0
 15 14  2  0  0  0  0
 16 11  2  0  0  0  0
 20  7  1  0  0  0  0
 21 22  1  0  0  0  0
 21 20  1  0  0  0  0
 23 22  2  0  0  0  0
 24 23  1  0  0  0  0
 25 27  1  0  0  0  0
 25 23  1  0  0  0  0
 26 25  1  0  0  0  0
 27 21  2  0  0  0  0
M  END
>  <minimizedAffinity>
-5.30462074

$$$$

 OpenBabel03272505093D

 27 29  0  0  0  0  0  0  0  0999 V2000
   38.2300   26.7860   33.1730 Cl  0  0  0  0  0  0  0  0  0  0  0  0
   37.1660   25.6420   32.3940 C   0  0  0  0  0  0  0  0  0  0  0  0
   36.1720   26.1610   31.6210 C   0  0  0  0  0  0  0  0  0  0  0  0
   35.3100   25.2620   30.9890 C   0  0  0  0  0  0  0  0  0  0  0  0
   35.4880   23.9070   31.1620 C   0  0  0  0  0  0  0  0  0  0  0  0
   36.5100   23.4580   31.9540 C   0  0  0  0  0  0  0  0  0  0  0  0
   37.3800   24.2860   32.5940 C   0  0  0  0  0  0  0  0  0  0  0  0
   34.5150   25.6470   30.3720 H   0  0  0  0  0  0  0  0  0  0  0  0
   34.8040   23.2390   30.6580 H   0  0  0  0  0  0  0  0  0  0  0  0
   36.6400   22.3900   32.0820 H   0  0  0  0  0  0  0  0  0  0  0  0
   36.5290   29.5200   30.2290 C   0  0  0  0  0  0  0  0  0  0  0  0
   35.7370   30.3280   31.0800 C   0  0  0  0  0  0  0  0  0  0  0  0
   35.0850   29.6840   32.1360 C   0  0  0  0  0  0  0  0  0  0  0  0
   35.2410   28.3380   32.2900 N   0  0  0  0  0  0  0  0  0  0  0  0
   36.0050   27.6160   31.4530 C   0  0  0  0  0  0  0  0  0  0  0  0
   36.6300   28.2130   30.4460 N   0  0  0  0  0  0  0  0  0  0  0  0
   37.0480   29.9690   29.4070 H   0  0  0  0  0  0  0  0  0  0  0  0
   35.6520   31.3960   30.9050 H   0  0  0  0  0  0  0  0  0  0  0  0
   34.4690   30.2670   32.8110 H   0  0  0  0  0  0  0  0  0  0  0  0
   38.7300   23.7460   33.6390 S   0  0  0  0  0  0  0  0  0  0  0  0
   38.1270   23.3070   35.2610 C   0  0  0  0  0  0  0  0  0  0  0  0
   38.1450   24.2950   36.1740 N   0  0  0  0  0  0  0  0  0  0  0  0
   37.6760   23.8690   37.3550 C   0  0  0  0  0  0  0  0  0  0  0  0
   37.5550   24.3990   38.2930 H   0  0  0  0  0  0  0  0  0  0  0  0
   37.3590   22.5780   37.1680 N   0  0  0  0  0  0  0  0  0  0  0  0
   36.9600   21.8560   37.8140 H   0  0  0  0  0  0  0  0  0  0  0  0
   37.6240   22.2120   35.9030 N   0  0  0  0  0  0  0  0  0  0  0  0
  2  7  1  0  0  0  0
  2  1  1  0  0  0  0
  3  2  2  0  0  0  0
  4  5  2  0  0  0  0
  4  3  1  0  0  0  0
  5  6  1  0  0  0  0
  6 10  1  0  0  0  0
  6  7  2  0  0  0  0
  7 20  1  0  0  0  0
  8  4  1  0  0  0  0
  9  5  1  0  0  0  0
 11 16  2  0  0  0  0
 11 12  1  0  0  0  0
 12 13  2  0  0  0  0
 13 14  1  0  0  0  0
 13 19  1  0  0  0  0
 15  3  1  0  0  0  0
 15 14  2  0  0  0  0
 16 15  1  0  0  0  0
 17 11  1  0  0  0  0
 18 12  1  0  0  0  0
 20 21  1  0  0  0  0
 21 27  2  0  0  0  0
 21 22  1  0  0  0  0
 22 23  2  0  0  0  0
 23 24  1  0  0  0  0
 25 23  1  0  0  0  0
 25 26  1  0  0  0  0
 27 25  1  0  0  0  0
M  END
>  <minimizedAffinity>
-5.14236832

$$$$

 OpenBabel03272505093D

 27 29  0  0  0  0  0  0  0  0999 V2000
   37.7830   24.5040   33.4190 Cl  0  0  0  0  0  0  0  0  0  0  0  0
   39.2850   25.3390   33.7330 C   0  0  0  0  0  0  0  0  0  0  0  0
   39.3880   26.6100   33.2530 C   0  0  0  0  0  0  0  0  0  0  0  0
   40.5810   27.2950   33.4940 C   0  0  0  0  0  0  0  0  0  0  0  0
   41.5950   26.6790   34.1930 C   0  0  0  0  0  0  0  0  0  0  0  0
   41.4190   25.3990   34.6450 C   0  0  0  0  0  0  0  0  0  0  0  0
   40.2800   24.6830   34.4410 C   0  0  0  0  0  0  0  0  0  0  0  0
   40.6880   28.3020   33.1240 H   0  0  0  0  0  0  0  0  0  0  0  0
   42.5050   27.2380   34.3620 H   0  0  0  0  0  0  0  0  0  0  0  0
   42.2240   24.9250   35.1950 H   0  0  0  0  0  0  0  0  0  0  0  0
   37.3780   27.7910   30.4390 C   0  0  0  0  0  0  0  0  0  0  0  0
   36.2640   28.4120   31.0530 C   0  0  0  0  0  0  0  0  0  0  0  0
   36.2300   28.4120   32.4510 C   0  0  0  0  0  0  0  0  0  0  0  0
   37.2510   27.8230   33.1380 N   0  0  0  0  0  0  0  0  0  0  0  0
   38.2860   27.2460   32.5070 C   0  0  0  0  0  0  0  0  0  0  0  0
   38.3330   27.2390   31.1810 N   0  0  0  0  0  0  0  0  0  0  0  0
   37.4480   27.7670   29.3710 H   0  0  0  0  0  0  0  0  0  0  0  0
   35.4820   28.8640   30.4500 H   0  0  0  0  0  0  0  0  0  0  0  0
   35.3940   28.8780   32.9600 H   0  0  0  0  0  0  0  0  0  0  0  0
   40.0050   23.0090   35.0130 S   0  0  0  0  0  0  0  0  0  0  0  0
   39.4650   23.0110   36.7150 C   0  0  0  0  0  0  0  0  0  0  0  0
   38.2080   23.4430   36.9240 N   0  0  0  0  0  0  0  0  0  0  0  0
   37.8960   23.4080   38.2280 C   0  0  0  0  0  0  0  0  0  0  0  0
   36.9800   23.6830   38.7370 H   0  0  0  0  0  0  0  0  0  0  0  0
   38.9950   22.9420   38.8440 N   0  0  0  0  0  0  0  0  0  0  0  0
   39.2030   22.7530   39.8530 H   0  0  0  0  0  0  0  0  0  0  0  0
   39.9620   22.6940   37.9450 N   0  0  0  0  0  0  0  0  0  0  0  0
  1  2  1  0  0  0  0
  2  7  1  0  0  0  0
  3  4  1  0  0  0  0
  3  2  2  0  0  0  0
  4  5  2  0  0  0  0
  5  9  1  0  0  0  0
  5  6  1  0  0  0  0
  6 10  1  0  0  0  0
  7  6  2  0  0  0  0
  7 20  1  0  0  0  0
  8  4  1  0  0  0  0
 11 12  2  0  0  0  0
 11 16  1  0  0  0  0
 12 13  1  0  0  0  0
 13 19  1  0  0  0  0
 13 14  2  0  0  0  0
 15 14  1  0  0  0  0
 15  3  1  0  0  0  0
 16 15  2  0  0  0  0
 17 11  1  0  0  0  0
 18 12  1  0  0  0  0
 20 21  1  0  0  0  0
 21 22  1  0  0  0  0
 21 27  2  0  0  0  0
 22 23  2  0  0  0  0
 23 24  1  0  0  0  0
 23 25  1  0  0  0  0
 25 26  1  0  0  0  0
 27 25  1  0  0  0  0
M  END
>  <minimizedAffinity>
-5.00235558

$$$$

 OpenBabel03272505093D

 27 29  0  0  0  0  0  0  0  0999 V2000
   37.8260   24.4860   32.3940 Cl  0  0  0  0  0  0  0  0  0  0  0  0
   38.0280   25.4330   33.8480 C   0  0  0  0  0  0  0  0  0  0  0  0
   37.9680   26.7870   33.7080 C   0  0  0  0  0  0  0  0  0  0  0  0
   38.1270   27.5610   34.8590 C   0  0  0  0  0  0  0  0  0  0  0  0
   38.3360   26.9470   36.0740 C   0  0  0  0  0  0  0  0  0  0  0  0
   38.3840   25.5800   36.1380 C   0  0  0  0  0  0  0  0  0  0  0  0
   38.2360   24.7750   35.0510 C   0  0  0  0  0  0  0  0  0  0  0  0
   38.0830   28.6350   34.7760 H   0  0  0  0  0  0  0  0  0  0  0  0
   38.4540   27.5760   36.9450 H   0  0  0  0  0  0  0  0  0  0  0  0
   38.5490   25.1090   37.1000 H   0  0  0  0  0  0  0  0  0  0  0  0
   38.6670   28.1920   30.4090 C   0  0  0  0  0  0  0  0  0  0  0  0
   37.3950   28.5900   29.9310 C   0  0  0  0  0  0  0  0  0  0  0  0
   36.3020   28.3610   30.7740 C   0  0  0  0  0  0  0  0  0  0  0  0
   36.5140   27.7770   31.9890 N   0  0  0  0  0  0  0  0  0  0  0  0
   37.7430   27.4180   32.3950 C   0  0  0  0  0  0  0  0  0  0  0  0
   38.7890   27.6290   31.6060 N   0  0  0  0  0  0  0  0  0  0  0  0
   39.5320   28.3480   29.7980 H   0  0  0  0  0  0  0  0  0  0  0  0
   37.2910   29.0510   28.9530 H   0  0  0  0  0  0  0  0  0  0  0  0
   35.3110   28.6510   30.4460 H   0  0  0  0  0  0  0  0  0  0  0  0
   38.2920   22.9860   35.0860 S   0  0  0  0  0  0  0  0  0  0  0  0
   39.4800   22.4210   36.2930 C   0  0  0  0  0  0  0  0  0  0  0  0
   40.6020   21.8740   35.7920 N   0  0  0  0  0  0  0  0  0  0  0  0
   41.4280   21.4830   36.7720 C   0  0  0  0  0  0  0  0  0  0  0  0
   42.4020   21.0100   36.7210 H   0  0  0  0  0  0  0  0  0  0  0  0
   40.7970   21.7970   37.9160 N   0  0  0  0  0  0  0  0  0  0  0  0
   41.0690   21.6740   38.9200 H   0  0  0  0  0  0  0  0  0  0  0  0
   39.6110   22.3690   37.6510 N   0  0  0  0  0  0  0  0  0  0  0  0
  1  2  1  0  0  0  0
  2  7  1  0  0  0  0
  3  2  2  0  0  0  0
  3  4  1  0  0  0  0
  4  5  2  0  0  0  0
  5  6  1  0  0  0  0
  5  9  1  0  0  0  0
  6 10  1  0  0  0  0
  7 20  1  0  0  0  0
  7  6  2  0  0  0  0
  8  4  1  0  0  0  0
 11 16  1  0  0  0  0
 12 11  2  0  0  0  0
 12 13  1  0  0  0  0
 13 14  2  0  0  0  0
 14 15  1  0  0  0  0
 15  3  1  0  0  0  0
 16 15  2  0  0  0  0
 17 11  1  0  0  0  0
 18 12  1  0  0  0  0
 19 13  1  0  0  0  0
 20 21  1  0  0  0  0
 21 27  2  0  0  0  0
 22 21  1  0  0  0  0
 22 23  2  0  0  0  0
 23 25  1  0  0  0  0
 24 23  1  0  0  0  0
 25 26  1  0  0  0  0
 27 25  1  0  0  0  0
M  END
>  <minimizedAffinity>
-4.91313648

$$$$

 OpenBabel03272505093D

 27 29  0  0  0  0  0  0  0  0999 V2000
   38.1590   24.2360   32.4810 Cl  0  0  0  0  0  0  0  0  0  0  0  0
   38.1830   25.1260   33.9830 C   0  0  0  0  0  0  0  0  0  0  0  0
   37.9110   26.4590   33.9070 C   0  0  0  0  0  0  0  0  0  0  0  0
   37.9250   27.1890   35.0980 C   0  0  0  0  0  0  0  0  0  0  0  0
   38.2070   26.5530   36.2860 C   0  0  0  0  0  0  0  0  0  0  0  0
   38.4710   25.2100   36.2850 C   0  0  0  0  0  0  0  0  0  0  0  0
   38.4720   24.4480   35.1570 C   0  0  0  0  0  0  0  0  0  0  0  0
   37.7130   28.2450   35.0660 H   0  0  0  0  0  0  0  0  0  0  0  0
   38.2100   27.1470   37.1900 H   0  0  0  0  0  0  0  0  0  0  0  0
   38.6920   24.7210   37.2270 H   0  0  0  0  0  0  0  0  0  0  0  0
   35.9910   27.8580   31.1310 C   0  0  0  0  0  0  0  0  0  0  0  0
   36.9800   28.3290   30.2350 C   0  0  0  0  0  0  0  0  0  0  0  0
   38.3140   28.1490   30.6140 C   0  0  0  0  0  0  0  0  0  0  0  0
   38.5890   27.5430   31.8050 N   0  0  0  0  0  0  0  0  0  0  0  0
   37.6110   27.1140   32.6210 C   0  0  0  0  0  0  0  0  0  0  0  0
   36.3410   27.2780   32.2740 N   0  0  0  0  0  0  0  0  0  0  0  0
   34.9560   27.9740   30.8830 H   0  0  0  0  0  0  0  0  0  0  0  0
   36.6980   28.8040   29.3000 H   0  0  0  0  0  0  0  0  0  0  0  0
   39.1030   28.4950   29.9560 H   0  0  0  0  0  0  0  0  0  0  0  0
   38.8100   22.6910   35.1070 S   0  0  0  0  0  0  0  0  0  0  0  0
   37.2890   21.7600   35.1930 C   0  0  0  0  0  0  0  0  0  0  0  0
   36.8060   21.3260   34.0150 N   0  0  0  0  0  0  0  0  0  0  0  0
   35.6660   20.6400   34.1830 C   0  0  0  0  0  0  0  0  0  0  0  0
   35.0240   20.1600   33.4540 H   0  0  0  0  0  0  0  0  0  0  0  0
   35.4360   20.6520   35.5060 N   0  0  0  0  0  0  0  0  0  0  0  0
   34.6640   20.2420   36.0840 H   0  0  0  0  0  0  0  0  0  0  0  0
   36.4080   21.3260   36.1420 N   0  0  0  0  0  0  0  0  0  0  0  0
  1  2  1  0  0  0  0
  2  7  1  0  0  0  0
  3  2  2  0  0  0  0
  3  4  1  0  0  0  0
  4  5  2  0  0  0  0
  5  9  1  0  0  0  0
  6  5  1  0  0  0  0
  6 10  1  0  0  0  0
  7  6  2  0  0  0  0
  8  4  1  0  0  0  0
 11 16  1  0  0  0  0
 12 13  1  0  0  0  0
 12 11  2  0  0  0  0
 13 14  2  0  0  0  0
 14 15  1  0  0  0  0
 15  3  1  0  0  0  0
 16 15  2  0  0  0  0
 17 11  1  0  0  0  0
 18 12  1  0  0  0  0
 19 13  1  0  0  0  0
 20  7  1  0  0  0  0
 20 21  1  0  0  0  0
 21 27  2  0  0  0  0
 22 23  2  0  0  0  0
 22 21  1  0  0  0  0
 23 25  1  0  0  0  0
 24 23  1  0  0  0  0
 25 26  1  0  0  0  0
 25 27  1  0  0  0  0
M  END
>  <minimizedAffinity>
-4.87634563

$$$$

 OpenBabel03272505093D

 27 29  0  0  0  0  0  0  0  0999 V2000
   39.7280   26.3310   34.9240 Cl  0  0  0  0  0  0  0  0  0  0  0  0
   38.9400   25.1640   33.8920 C   0  0  0  0  0  0  0  0  0  0  0  0
   38.4950   24.0220   34.4880 C   0  0  0  0  0  0  0  0  0  0  0  0
   37.8620   23.0770   33.6790 C   0  0  0  0  0  0  0  0  0  0  0  0
   37.7090   23.3210   32.3320 C   0  0  0  0  0  0  0  0  0  0  0  0
   38.1820   24.4910   31.8020 C   0  0  0  0  0  0  0  0  0  0  0  0
   38.8070   25.4480   32.5410 C   0  0  0  0  0  0  0  0  0  0  0  0
   37.5010   22.1650   34.1260 H   0  0  0  0  0  0  0  0  0  0  0  0
   37.2140   22.5680   31.7340 H   0  0  0  0  0  0  0  0  0  0  0  0
   38.0560   24.6720   30.7410 H   0  0  0  0  0  0  0  0  0  0  0  0
   37.8620   24.1190   38.0850 C   0  0  0  0  0  0  0  0  0  0  0  0
   38.9380   23.3860   38.6400 C   0  0  0  0  0  0  0  0  0  0  0  0
   39.8770   22.8650   37.7450 C   0  0  0  0  0  0  0  0  0  0  0  0
   39.7120   23.0840   36.4090 N   0  0  0  0  0  0  0  0  0  0  0  0
   38.6710   23.7870   35.9330 C   0  0  0  0  0  0  0  0  0  0  0  0
   37.7720   24.2880   36.7700 N   0  0  0  0  0  0  0  0  0  0  0  0
   37.1180   24.5380   38.7320 H   0  0  0  0  0  0  0  0  0  0  0  0
   39.0140   23.2460   39.7150 H   0  0  0  0  0  0  0  0  0  0  0  0
   40.7160   22.2970   38.1300 H   0  0  0  0  0  0  0  0  0  0  0  0
   39.4410   26.9930   31.8930 S   0  0  0  0  0  0  0  0  0  0  0  0
   38.3440   27.6410   30.6420 C   0  0  0  0  0  0  0  0  0  0  0  0
   38.9430   28.2800   29.6200 N   0  0  0  0  0  0  0  0  0  0  0  0
   38.0400   28.7290   28.7360 C   0  0  0  0  0  0  0  0  0  0  0  0
   38.1780   29.2780   27.8120 H   0  0  0  0  0  0  0  0  0  0  0  0
   36.8470   28.3570   29.2270 N   0  0  0  0  0  0  0  0  0  0  0  0
   35.8710   28.4940   28.8690 H   0  0  0  0  0  0  0  0  0  0  0  0
   37.0050   27.6940   30.3840 N   0  0  0  0  0  0  0  0  0  0  0  0
  2  3  1  0  0  0  0
  2  1  1  0  0  0  0
  3 15  1  0  0  0  0
  4  8  1  0  0  0  0
  4  3  2  0  0  0  0
  5  4  1  0  0  0  0
  6  5  2  0  0  0  0
  6  7  1  0  0  0  0
  7  2  2  0  0  0  0
  9  5  1  0  0  0  0
 10  6  1  0  0  0  0
 11 12  1  0  0  0  0
 11 17  1  0  0  0  0
 12 18  1  0  0  0  0
 13 19  1  0  0  0  0
 13 12  2  0  0  0  0
 14 13  1  0  0  0  0
 15 14  2  0  0  0  0
 15 16  1  0  0  0  0
 16 11  2  0  0  0  0
 20  7  1  0  0  0  0
 21 20  1  0  0  0  0
 22 21  1  0  0  0  0
 23 25  1  0  0  0  0
 23 22  2  0  0  0  0
 24 23  1  0  0  0  0
 25 27  1  0  0  0  0
 26 25  1  0  0  0  0
 27 21  2  0  0  0  0
M  END
>  <minimizedAffinity>
-4.78299809

$$$$

 OpenBabel03272505093D

 27 29  0  0  0  0  0  0  0  0999 V2000
   38.1930   24.0870   33.0430 Cl  0  0  0  0  0  0  0  0  0  0  0  0
   38.0020   25.5440   33.9880 C   0  0  0  0  0  0  0  0  0  0  0  0
   38.6710   25.5950   35.1740 C   0  0  0  0  0  0  0  0  0  0  0  0
   38.5310   26.7520   35.9430 C   0  0  0  0  0  0  0  0  0  0  0  0
   37.7390   27.7830   35.4910 C   0  0  0  0  0  0  0  0  0  0  0  0
   37.0970   27.6610   34.2880 C   0  0  0  0  0  0  0  0  0  0  0  0
   37.1950   26.5590   33.4960 C   0  0  0  0  0  0  0  0  0  0  0  0
   39.0500   26.8170   36.8860 H   0  0  0  0  0  0  0  0  0  0  0  0
   37.6530   28.6650   36.1110 H   0  0  0  0  0  0  0  0  0  0  0  0
   36.4770   28.4800   33.9420 H   0  0  0  0  0  0  0  0  0  0  0  0
   39.6750   22.5430   36.9130 C   0  0  0  0  0  0  0  0  0  0  0  0
   41.0250   22.3610   36.5300 C   0  0  0  0  0  0  0  0  0  0  0  0
   41.5720   23.3140   35.6650 C   0  0  0  0  0  0  0  0  0  0  0  0
   40.7910   24.3490   35.2410 N   0  0  0  0  0  0  0  0  0  0  0  0
   39.5120   24.4750   35.6340 C   0  0  0  0  0  0  0  0  0  0  0  0
   38.9810   23.5790   36.4550 N   0  0  0  0  0  0  0  0  0  0  0  0
   39.2140   21.8390   37.5750 H   0  0  0  0  0  0  0  0  0  0  0  0
   41.5960   21.5150   36.9030 H   0  0  0  0  0  0  0  0  0  0  0  0
   42.6030   23.2110   35.3480 H   0  0  0  0  0  0  0  0  0  0  0  0
   36.3760   26.3540   31.9170 S   0  0  0  0  0  0  0  0  0  0  0  0
   36.3800   27.8910   31.0080 C   0  0  0  0  0  0  0  0  0  0  0  0
   37.2550   27.9610   29.9890 N   0  0  0  0  0  0  0  0  0  0  0  0
   37.1830   29.1480   29.3710 C   0  0  0  0  0  0  0  0  0  0  0  0
   37.7400   29.5320   28.5240 H   0  0  0  0  0  0  0  0  0  0  0  0
   36.2350   29.8350   30.0290 N   0  0  0  0  0  0  0  0  0  0  0  0
   35.8490   30.8000   29.8920 H   0  0  0  0  0  0  0  0  0  0  0  0
   35.7310   29.0920   31.0280 N   0  0  0  0  0  0  0  0  0  0  0  0
  1  2  1  0  0  0  0
  2  3  1  0  0  0  0
  3 15  1  0  0  0  0
  3  4  2  0  0  0  0
  4  8  1  0  0  0  0
  5  4  1  0  0  0  0
  5  9  1  0  0  0  0
  6  5  2  0  0  0  0
  7  2  2  0  0  0  0
  7  6  1  0  0  0  0
 10  6  1  0  0  0  0
 11 17  1  0  0  0  0
 12 18  1  0  0  0  0
 12 11  1  0  0  0  0
 13 12  2  0  0  0  0
 14 15  2  0  0  0  0
 14 13  1  0  0  0  0
 15 16  1  0  0  0  0
 16 11  2  0  0  0  0
 19 13  1  0  0  0  0
 20  7  1  0  0  0  0
 21 27  2  0  0  0  0
 21 20  1  0  0  0  0
 22 21  1  0  0  0  0
 23 22  2  0  0  0  0
 23 25  1  0  0  0  0
 24 23  1  0  0  0  0
 25 27  1  0  0  0  0
 26 25  1  0  0  0  0
M  END
>  <minimizedAffinity>
-4.77300549

$$$$

 OpenBabel03272505093D

 27 29  0  0  0  0  0  0  0  0999 V2000
   38.4430   21.6430   33.6890 Cl  0  0  0  0  0  0  0  0  0  0  0  0
   37.4420   22.8090   32.8600 C   0  0  0  0  0  0  0  0  0  0  0  0
   36.4570   22.3100   32.0610 C   0  0  0  0  0  0  0  0  0  0  0  0
   35.6450   23.2260   31.3900 C   0  0  0  0  0  0  0  0  0  0  0  0
   35.8590   24.5770   31.5520 C   0  0  0  0  0  0  0  0  0  0  0  0
   36.8680   25.0060   32.3720 C   0  0  0  0  0  0  0  0  0  0  0  0
   37.6900   24.1600   33.0510 C   0  0  0  0  0  0  0  0  0  0  0  0
   34.8590   22.8570   30.7520 H   0  0  0  0  0  0  0  0  0  0  0  0
   35.2110   25.2600   31.0180 H   0  0  0  0  0  0  0  0  0  0  0  0
   37.0250   26.0710   32.4910 H   0  0  0  0  0  0  0  0  0  0  0  0
   36.6440   18.9470   30.6460 C   0  0  0  0  0  0  0  0  0  0  0  0
   35.9060   18.1530   31.5560 C   0  0  0  0  0  0  0  0  0  0  0  0
   35.3480   18.8070   32.6590 C   0  0  0  0  0  0  0  0  0  0  0  0
   35.5400   20.1500   32.8000 N   0  0  0  0  0  0  0  0  0  0  0  0
   36.2500   20.8580   31.9060 C   0  0  0  0  0  0  0  0  0  0  0  0
   36.7850   20.2510   30.8550 N   0  0  0  0  0  0  0  0  0  0  0  0
   37.0890   18.4890   29.7870 H   0  0  0  0  0  0  0  0  0  0  0  0
   35.7870   17.0860   31.3890 H   0  0  0  0  0  0  0  0  0  0  0  0
   34.7740   18.2350   33.3790 H   0  0  0  0  0  0  0  0  0  0  0  0
   39.0210   24.6730   34.1330 S   0  0  0  0  0  0  0  0  0  0  0  0
   38.6280   24.2860   35.8310 C   0  0  0  0  0  0  0  0  0  0  0  0
   39.4930   23.4660   36.4550 N   0  0  0  0  0  0  0  0  0  0  0  0
   39.1140   23.2360   37.7200 C   0  0  0  0  0  0  0  0  0  0  0  0
   39.5750   22.6300   38.4910 H   0  0  0  0  0  0  0  0  0  0  0  0
   37.9790   23.9350   37.8840 N   0  0  0  0  0  0  0  0  0  0  0  0
   37.3410   24.0480   38.7070 H   0  0  0  0  0  0  0  0  0  0  0  0
   37.6630   24.5820   36.7500 N   0  0  0  0  0  0  0  0  0  0  0  0
  2  7  1  0  0  0  0
  2  1  1  0  0  0  0
  3  2  2  0  0  0  0
  4  5  2  0  0  0  0
  4  3  1  0  0  0  0
  5  6  1  0  0  0  0
  6 10  1  0  0  0  0
  6  7  2  0  0  0  0
  7 20  1  0  0  0  0
  8  4  1  0  0  0  0
  9  5  1  0  0  0  0
 11 16  2  0  0  0  0
 11 12  1  0  0  0  0
 12 13  2  0  0  0  0
 13 14  1  0  0  0  0
 13 19  1  0  0  0  0
 15  3  1  0  0  0  0
 15 14  2  0  0  0  0
 16 15  1  0  0  0  0
 17 11  1  0  0  0  0
 18 12  1  0  0  0  0
 20 21  1  0  0  0  0
 21 22  1  0  0  0  0
 21 27  2  0  0  0  0
 22 23  2  0  0  0  0
 23 25  1  0  0  0  0
 23 24  1  0  0  0  0
 25 26  1  0  0  0  0
 27 25  1  0  0  0  0
M  END
>  <minimizedAffinity>
-4.76139116

$$$$

 OpenBabel03272505093D

 27 29  0  0  0  0  0  0  0  0999 V2000
   38.1130   23.7070   33.5690 Cl  0  0  0  0  0  0  0  0  0  0  0  0
   37.9540   25.2920   34.2840 C   0  0  0  0  0  0  0  0  0  0  0  0
   38.5300   25.4710   35.5060 C   0  0  0  0  0  0  0  0  0  0  0  0
   38.4140   26.7320   36.0940 C   0  0  0  0  0  0  0  0  0  0  0  0
   37.7360   27.7340   35.4370 C   0  0  0  0  0  0  0  0  0  0  0  0
   37.1820   27.4810   34.2110 C   0  0  0  0  0  0  0  0  0  0  0  0
   37.2630   26.2730   33.5890 C   0  0  0  0  0  0  0  0  0  0  0  0
   38.8610   26.9000   37.0610 H   0  0  0  0  0  0  0  0  0  0  0  0
   37.6650   28.6990   35.9210 H   0  0  0  0  0  0  0  0  0  0  0  0
   36.6510   28.2780   33.7040 H   0  0  0  0  0  0  0  0  0  0  0  0
   39.2870   22.8430   37.9290 C   0  0  0  0  0  0  0  0  0  0  0  0
   40.5400   22.3400   37.5050 C   0  0  0  0  0  0  0  0  0  0  0  0
   41.1090   22.9290   36.3720 C   0  0  0  0  0  0  0  0  0  0  0  0
   40.4400   23.9380   35.7440 N   0  0  0  0  0  0  0  0  0  0  0  0
   39.2510   24.3800   36.1870 C   0  0  0  0  0  0  0  0  0  0  0  0
   38.6990   23.8300   37.2610 N   0  0  0  0  0  0  0  0  0  0  0  0
   38.8140   22.4230   38.7920 H   0  0  0  0  0  0  0  0  0  0  0  0
   41.0240   21.5330   38.0480 H   0  0  0  0  0  0  0  0  0  0  0  0
   42.0680   22.5730   36.0150 H   0  0  0  0  0  0  0  0  0  0  0  0
   36.5560   25.8950   31.9880 S   0  0  0  0  0  0  0  0  0  0  0  0
   37.8350   25.8230   30.7430 C   0  0  0  0  0  0  0  0  0  0  0  0
   38.2820   27.0130   30.3010 N   0  0  0  0  0  0  0  0  0  0  0  0
   39.2360   26.8550   29.3730 C   0  0  0  0  0  0  0  0  0  0  0  0
   39.8020   27.5940   28.8170 H   0  0  0  0  0  0  0  0  0  0  0  0
   39.3820   25.5270   29.2350 N   0  0  0  0  0  0  0  0  0  0  0  0
   40.0110   24.9540   28.6240 H   0  0  0  0  0  0  0  0  0  0  0  0
   38.5410   24.8780   30.0570 N   0  0  0  0  0  0  0  0  0  0  0  0
  1  2  1  0  0  0  0
  2  3  1  0  0  0  0
  3  4  2  0  0  0  0
  3 15  1  0  0  0  0
  4  8  1  0  0  0  0
  5  9  1  0  0  0  0
  5  4  1  0  0  0  0
  6  5  2  0  0  0  0
  7  6  1  0  0  0  0
  7  2  2  0  0  0  0
 10  6  1  0  0  0  0
 11 17  1  0  0  0  0
 12 11  1  0  0  0  0
 12 18  1  0  0  0  0
 13 12  2  0  0  0  0
 14 15  2  0  0  0  0
 14 13  1  0  0  0  0
 15 16  1  0  0  0  0
 16 11  2  0  0  0  0
 19 13  1  0  0  0  0
 20  7  1  0  0  0  0
 21 20  1  0  0  0  0
 22 21  1  0  0  0  0
 23 22  2  0  0  0  0
 24 23  1  0  0  0  0
 25 23  1  0  0  0  0
 25 27  1  0  0  0  0
 26 25  1  0  0  0  0
 27 21  2  0  0  0  0
M  END
>  <minimizedAffinity>
-4.71180773

$$$$
