
 OpenBabel03272509313D

 36 38  0  0  1  0  0  0  0  0999 V2000
   36.2490   30.7030   48.9860 C   0  0  2  0  0  0  0  0  0  0  0  0
   37.2270   31.5890   49.7010 C   0  0  0  0  0  0  0  0  0  0  0  0
   38.1490   30.8190   50.6230 C   0  0  0  0  0  0  0  0  0  0  0  0
   37.3290   30.0360   51.6450 C   0  0  0  0  0  0  0  0  0  0  0  0
   36.0640   29.4370   51.0850 C   0  0  0  0  0  0  0  0  0  0  0  0
   36.2220   29.3240   49.5560 C   0  0  1  0  0  0  0  0  0  0  0  0
   35.1860   31.0750   49.0260 H   0  0  0  0  0  0  0  0  0  0  0  0
   36.5770   32.1850   50.4260 H   0  0  0  0  0  0  0  0  0  0  0  0
   37.7370   32.3320   49.1180 H   0  0  0  0  0  0  0  0  0  0  0  0
   38.7620   31.5440   51.1630 H   0  0  0  0  0  0  0  0  0  0  0  0
   38.7920   30.0970   50.1040 H   0  0  0  0  0  0  0  0  0  0  0  0
   37.9840   29.2220   52.0350 H   0  0  0  0  0  0  0  0  0  0  0  0
   37.1430   30.7050   52.4940 H   0  0  0  0  0  0  0  0  0  0  0  0
   35.9420   28.4160   51.4900 H   0  0  0  0  0  0  0  0  0  0  0  0
   35.2150   30.0640   51.3670 H   0  0  0  0  0  0  0  0  0  0  0  0
   37.1770   28.8620   49.5100 H   0  0  0  0  0  0  0  0  0  0  0  0
   36.5720   30.6150   47.5370 C   0  0  0  0  0  0  0  0  0  0  0  0
   37.9090   30.8720   47.1950 C   0  0  0  0  0  0  0  0  0  0  0  0
   38.2380   30.7880   45.8350 C   0  0  0  0  0  0  0  0  0  0  0  0
   37.2470   30.4640   44.9330 N   0  0  0  0  0  0  0  0  0  0  0  0
   35.9570   30.2220   45.3230 C   0  0  0  0  0  0  0  0  0  0  0  0
   35.6410   30.3030   46.6260 N   0  0  0  0  0  0  0  0  0  0  0  0
   38.7620   31.1220   47.7910 H   0  0  0  0  0  0  0  0  0  0  0  0
   39.2130   30.9590   45.4290 H   0  0  0  0  0  0  0  0  0  0  0  0
   35.2270   29.9710   44.5650 H   0  0  0  0  0  0  0  0  0  0  0  0
   33.9170   28.3390   49.1230 C   0  0  0  0  0  0  0  0  0  0  0  0
   33.1240   29.0310   49.8570 O   0  0  0  0  0  0  0  0  0  0  0  0
   35.3200   28.4290   48.9270 N   0  0  0  0  0  0  0  0  0  0  0  0
   35.6760   27.7180   48.2100 H   0  0  0  0  0  0  0  0  0  0  0  0
   33.1020   27.3070   48.4170 C   0  0  0  0  0  0  0  0  0  0  0  0
   33.5350   26.3350   47.6260 N   0  0  0  0  0  0  0  0  0  0  0  0
   32.4420   25.6340   47.2020 C   0  0  0  0  0  0  0  0  0  0  0  0
   32.5000   24.7830   46.5430 H   0  0  0  0  0  0  0  0  0  0  0  0
   31.3840   26.2100   47.7560 N   0  0  0  0  0  0  0  0  0  0  0  0
   30.3730   25.9250   47.6450 H   0  0  0  0  0  0  0  0  0  0  0  0
   31.7640   27.2210   48.4930 N   0  0  0  0  0  0  0  0  0  0  0  0
  1  7  1  1  0  0  0
  1  6  1  0  0  0  0
  1  2  1  0  0  0  0
  2  8  1  0  0  0  0
  2  3  1  0  0  0  0
  3 10  1  0  0  0  0
  3  4  1  0  0  0  0
  4 12  1  0  0  0  0
  4 13  1  0  0  0  0
  5 15  1  0  0  0  0
  5 14  1  0  0  0  0
  5  4  1  0  0  0  0
  6 16  1  6  0  0  0
  6  5  1  0  0  0  0
  9  2  1  0  0  0  0
 11  3  1  0  0  0  0
 17  1  1  0  0  0  0
 18 17  1  0  0  0  0
 18 23  1  0  0  0  0
 19 18  2  0  0  0  0
 20 21  2  0  0  0  0
 20 19  1  0  0  0  0
 21 22  1  0  0  0  0
 22 17  2  0  0  0  0
 24 19  1  0  0  0  0
 25 21  1  0  0  0  0
 26 27  2  0  0  0  0
 28 26  1  0  0  0  0
 28  6  1  0  0  0  0
 29 28  1  0  0  0  0
 30 36  2  0  0  0  0
 30 26  1  0  0  0  0
 31 30  1  0  0  0  0
 32 31  2  0  0  0  0
 32 34  1  0  0  0  0
 33 32  1  0  0  0  0
 34 36  1  0  0  0  0
 35 34  1  0  0  0  0
M  END
>  <minimizedAffinity>
-5.76401043

>  <minimizedRMSD>
0.460725158

$$$$
