
 OpenBabel03262521143D

 29 31  0  0  0  0  0  0  0  0999 V2000
   38.3860   26.2480   33.3130 O   0  0  0  0  0  0  0  0  0  0  0  0
   37.4290   25.4510   32.6740 C   0  0  0  0  0  0  0  0  0  0  0  0
   36.3290   25.8210   31.9100 C   0  0  0  0  0  0  0  0  0  0  0  0
   35.7050   24.7060   31.5050 N   0  0  0  0  0  0  0  0  0  0  0  0
   36.3620   23.6420   31.9790 C   0  0  0  0  0  0  0  0  0  0  0  0
   37.4140   24.0880   32.6920 N   0  0  0  0  0  0  0  0  0  0  0  0
   36.0590   26.8500   31.7030 H   0  0  0  0  0  0  0  0  0  0  0  0
   34.8380   24.6360   30.9110 H   0  0  0  0  0  0  0  0  0  0  0  0
   36.0200   22.2400   31.7730 C   0  0  0  0  0  0  0  0  0  0  0  0
   36.6700   21.3610   30.9900 N   0  0  0  0  0  0  0  0  0  0  0  0
   36.0410   20.1520   31.0660 C   0  0  0  0  0  0  0  0  0  0  0  0
   36.3300   19.2420   30.5460 H   0  0  0  0  0  0  0  0  0  0  0  0
   35.0010   20.3150   31.9050 N   0  0  0  0  0  0  0  0  0  0  0  0
   34.3040   19.6070   32.1970 H   0  0  0  0  0  0  0  0  0  0  0  0
   34.9970   21.5710   32.3230 N   0  0  0  0  0  0  0  0  0  0  0  0
   37.0430   27.9250   34.7380 O   0  0  0  0  0  0  0  0  0  0  0  0
   38.0140   26.7630   34.8910 P   0  0  2  0  0  0  0  0  0  0  0  0
   39.4210   27.2370   35.7040 O   0  0  0  0  0  0  0  0  0  0  0  0
   39.3510   26.9910   36.6400 H   0  0  0  0  0  0  0  0  0  0  0  0
   37.3290   25.4660   35.7510 O   0  0  0  0  0  0  0  0  0  0  0  0
   38.1130   24.5940   36.5120 C   0  0  0  0  0  0  0  0  0  0  0  0
   37.8910   24.2240   37.8480 C   0  0  0  0  0  0  0  0  0  0  0  0
   38.7850   23.3490   38.4220 C   0  0  0  0  0  0  0  0  0  0  0  0
   39.8320   22.8710   37.7090 N   0  0  0  0  0  0  0  0  0  0  0  0
   40.0220   23.2560   36.3980 C   0  0  0  0  0  0  0  0  0  0  0  0
   39.1560   24.1150   35.8150 N   0  0  0  0  0  0  0  0  0  0  0  0
   37.0170   24.6810   38.2970 H   0  0  0  0  0  0  0  0  0  0  0  0
   38.5970   23.0830   39.4350 H   0  0  0  0  0  0  0  0  0  0  0  0
   40.8770   22.8480   35.8610 H   0  0  0  0  0  0  0  0  0  0  0  0
  1 17  1  0  0  0  0
  2  6  1  0  0  0  0
  2  1  1  0  0  0  0
  3  2  2  0  0  0  0
  4  3  1  0  0  0  0
  4  5  1  0  0  0  0
  5  6  2  0  0  0  0
  7  3  1  0  0  0  0
  8  4  1  0  0  0  0
  9  5  1  0  0  0  0
  9 15  2  0  0  0  0
 10 11  2  0  0  0  0
 10  9  1  0  0  0  0
 11 13  1  0  0  0  0
 12 11  1  0  0  0  0
 13 14  1  0  0  0  0
 13 15  1  0  0  0  0
 17 16  2  6  0  0  0
 17 18  1  0  0  0  0
 17 20  1  0  0  0  0
 18 19  1  0  0  0  0
 20 21  1  0  0  0  0
 21 22  1  0  0  0  0
 22 27  1  0  0  0  0
 22 23  2  0  0  0  0
 23 28  1  0  0  0  0
 24 23  1  0  0  0  0
 25 24  2  0  0  0  0
 26 25  1  0  0  0  0
 26 21  2  0  0  0  0
 29 25  1  0  0  0  0
M  END
>  <minimizedAffinity>
-5.13879108

$$$$

 OpenBabel03262521143D

 29 31  0  0  0  0  0  0  0  0999 V2000
   39.6500   25.1470   35.5930 O   0  0  0  0  0  0  0  0  0  0  0  0
   38.8320   24.0120   35.6420 C   0  0  0  0  0  0  0  0  0  0  0  0
   38.3200   23.3320   36.7400 C   0  0  0  0  0  0  0  0  0  0  0  0
   37.5880   22.3030   36.2910 N   0  0  0  0  0  0  0  0  0  0  0  0
   37.6130   22.3000   34.9540 C   0  0  0  0  0  0  0  0  0  0  0  0
   38.3690   23.3390   34.5510 N   0  0  0  0  0  0  0  0  0  0  0  0
   38.5080   23.6200   37.7680 H   0  0  0  0  0  0  0  0  0  0  0  0
   37.0640   21.5900   36.8640 H   0  0  0  0  0  0  0  0  0  0  0  0
   36.9470   21.3520   34.0690 C   0  0  0  0  0  0  0  0  0  0  0  0
   37.3940   20.9140   32.8790 N   0  0  0  0  0  0  0  0  0  0  0  0
   36.4850   20.0350   32.3630 C   0  0  0  0  0  0  0  0  0  0  0  0
   36.5640   19.5120   31.4130 H   0  0  0  0  0  0  0  0  0  0  0  0
   35.4840   19.9520   33.2570 N   0  0  0  0  0  0  0  0  0  0  0  0
   34.6230   19.3790   33.1950 H   0  0  0  0  0  0  0  0  0  0  0  0
   35.7700   20.7460   34.2770 N   0  0  0  0  0  0  0  0  0  0  0  0
   39.7850   27.1760   34.0080 O   0  0  0  0  0  0  0  0  0  0  0  0
   38.9070   26.5990   35.1090 P   0  0  2  0  0  0  0  0  0  0  0  0
   38.7830   27.6630   36.4190 O   0  0  0  0  0  0  0  0  0  0  0  0
   37.9550   28.1650   36.3510 H   0  0  0  0  0  0  0  0  0  0  0  0
   37.3330   26.2610   34.5620 O   0  0  0  0  0  0  0  0  0  0  0  0
   36.8900   26.6730   33.3020 C   0  0  0  0  0  0  0  0  0  0  0  0
   36.5980   27.9900   32.9110 C   0  0  0  0  0  0  0  0  0  0  0  0
   36.1700   28.1880   31.6170 C   0  0  0  0  0  0  0  0  0  0  0  0
   36.0430   27.1410   30.7680 N   0  0  0  0  0  0  0  0  0  0  0  0
   36.3380   25.8590   31.1860 C   0  0  0  0  0  0  0  0  0  0  0  0
   36.7590   25.6430   32.4520 N   0  0  0  0  0  0  0  0  0  0  0  0
   36.7430   28.7290   33.6900 H   0  0  0  0  0  0  0  0  0  0  0  0
   35.9550   29.1920   31.3430 H   0  0  0  0  0  0  0  0  0  0  0  0
   36.2220   25.0450   30.4710 H   0  0  0  0  0  0  0  0  0  0  0  0
  1  2  1  0  0  0  0
  2  3  2  0  0  0  0
  3  7  1  0  0  0  0
  4  3  1  0  0  0  0
  4  8  1  0  0  0  0
  5  4  1  0  0  0  0
  6  5  2  0  0  0  0
  6  2  1  0  0  0  0
  9 15  2  0  0  0  0
  9  5  1  0  0  0  0
 10  9  1  0  0  0  0
 11 10  2  0  0  0  0
 11 13  1  0  0  0  0
 12 11  1  0  0  0  0
 13 15  1  0  0  0  0
 14 13  1  0  0  0  0
 17 16  2  6  0  0  0
 17  1  1  0  0  0  0
 17 18  1  0  0  0  0
 19 18  1  0  0  0  0
 20 17  1  0  0  0  0
 21 20  1  0  0  0  0
 22 21  1  0  0  0  0
 22 27  1  0  0  0  0
 23 22  2  0  0  0  0
 24 25  2  0  0  0  0
 24 23  1  0  0  0  0
 25 26  1  0  0  0  0
 26 21  2  0  0  0  0
 28 23  1  0  0  0  0
 29 25  1  0  0  0  0
M  END
>  <minimizedAffinity>
-5.05779696

$$$$

 OpenBabel03262521143D

 29 31  0  0  0  0  0  0  0  0999 V2000
   38.3100   26.0840   33.2590 O   0  0  0  0  0  0  0  0  0  0  0  0
   37.6230   26.6530   32.1800 C   0  0  0  0  0  0  0  0  0  0  0  0
   36.4620   26.2330   31.5440 C   0  0  0  0  0  0  0  0  0  0  0  0
   36.1850   27.1010   30.5600 N   0  0  0  0  0  0  0  0  0  0  0  0
   37.1210   28.0560   30.5450 C   0  0  0  0  0  0  0  0  0  0  0  0
   38.0020   27.7900   31.5290 N   0  0  0  0  0  0  0  0  0  0  0  0
   35.9070   25.3460   31.8280 H   0  0  0  0  0  0  0  0  0  0  0  0
   35.3730   27.0710   29.8890 H   0  0  0  0  0  0  0  0  0  0  0  0
   37.1950   29.1920   29.6350 C   0  0  0  0  0  0  0  0  0  0  0  0
   37.8320   29.2330   28.4510 N   0  0  0  0  0  0  0  0  0  0  0  0
   37.6670   30.4720   27.9030 C   0  0  0  0  0  0  0  0  0  0  0  0
   38.0640   30.8130   26.9500 H   0  0  0  0  0  0  0  0  0  0  0  0
   36.9240   31.1790   28.7750 N   0  0  0  0  0  0  0  0  0  0  0  0
   36.6050   32.1600   28.6870 H   0  0  0  0  0  0  0  0  0  0  0  0
   36.6460   30.4020   29.8100 N   0  0  0  0  0  0  0  0  0  0  0  0
   37.0020   27.8750   34.5730 O   0  0  0  0  0  0  0  0  0  0  0  0
   37.9690   26.7210   34.7980 P   0  0  2  0  0  0  0  0  0  0  0  0
   39.3920   27.2470   35.5480 O   0  0  0  0  0  0  0  0  0  0  0  0
   39.3380   27.0740   36.5010 H   0  0  0  0  0  0  0  0  0  0  0  0
   37.2920   25.4990   35.7670 O   0  0  0  0  0  0  0  0  0  0  0  0
   38.0900   24.6250   36.5110 C   0  0  0  0  0  0  0  0  0  0  0  0
   37.8910   24.2500   37.8490 C   0  0  0  0  0  0  0  0  0  0  0  0
   38.7960   23.3730   38.4040 C   0  0  0  0  0  0  0  0  0  0  0  0
   39.8310   22.9000   37.6710 N   0  0  0  0  0  0  0  0  0  0  0  0
   39.9980   23.2900   36.3580 C   0  0  0  0  0  0  0  0  0  0  0  0
   39.1210   24.1500   35.7940 N   0  0  0  0  0  0  0  0  0  0  0  0
   37.0240   24.7040   38.3150 H   0  0  0  0  0  0  0  0  0  0  0  0
   38.6250   23.1030   39.4180 H   0  0  0  0  0  0  0  0  0  0  0  0
   40.8440   22.8850   35.8040 H   0  0  0  0  0  0  0  0  0  0  0  0
  1 17  1  0  0  0  0
  2  1  1  0  0  0  0
  3  7  1  0  0  0  0
  3  2  2  0  0  0  0
  4  3  1  0  0  0  0
  5  4  1  0  0  0  0
  5  6  2  0  0  0  0
  6  2  1  0  0  0  0
  8  4  1  0  0  0  0
  9 15  2  0  0  0  0
  9  5  1  0  0  0  0
 10  9  1  0  0  0  0
 11 10  2  0  0  0  0
 11 13  1  0  0  0  0
 12 11  1  0  0  0  0
 13 15  1  0  0  0  0
 14 13  1  0  0  0  0
 17 16  2  6  0  0  0
 17 18  1  0  0  0  0
 17 20  1  0  0  0  0
 18 19  1  0  0  0  0
 20 21  1  0  0  0  0
 21 22  1  0  0  0  0
 22 27  1  0  0  0  0
 22 23  2  0  0  0  0
 23 28  1  0  0  0  0
 24 23  1  0  0  0  0
 25 24  2  0  0  0  0
 26 25  1  0  0  0  0
 26 21  2  0  0  0  0
 29 25  1  0  0  0  0
M  END
>  <minimizedAffinity>
-5.05153894

$$$$

 OpenBabel03262521143D

 29 31  0  0  0  0  0  0  0  0999 V2000
   37.3300   24.8260   36.3160 O   0  0  0  0  0  0  0  0  0  0  0  0
   38.2710   23.9870   36.9250 C   0  0  0  0  0  0  0  0  0  0  0  0
   38.4190   23.6390   38.2620 C   0  0  0  0  0  0  0  0  0  0  0  0
   39.4650   22.8070   38.3650 N   0  0  0  0  0  0  0  0  0  0  0  0
   39.9880   22.6110   37.1500 C   0  0  0  0  0  0  0  0  0  0  0  0
   39.2660   23.3270   36.2670 N   0  0  0  0  0  0  0  0  0  0  0  0
   37.7750   24.0030   39.0540 H   0  0  0  0  0  0  0  0  0  0  0  0
   39.8440   22.3590   39.2410 H   0  0  0  0  0  0  0  0  0  0  0  0
   41.1350   21.7750   36.8160 C   0  0  0  0  0  0  0  0  0  0  0  0
   41.8740   21.0460   37.6710 N   0  0  0  0  0  0  0  0  0  0  0  0
   42.8540   20.4040   36.9710 C   0  0  0  0  0  0  0  0  0  0  0  0
   43.6100   19.7410   37.3830 H   0  0  0  0  0  0  0  0  0  0  0  0
   42.6970   20.7580   35.6820 N   0  0  0  0  0  0  0  0  0  0  0  0
   43.2640   20.4600   34.8680 H   0  0  0  0  0  0  0  0  0  0  0  0
   41.6630   21.5800   35.6000 N   0  0  0  0  0  0  0  0  0  0  0  0
   39.1190   26.6530   35.9910 O   0  0  0  0  0  0  0  0  0  0  0  0
   37.9400   26.0180   35.2680 P   0  0  2  0  0  0  0  0  0  0  0  0
   36.7430   27.1620   34.9150 O   0  0  0  0  0  0  0  0  0  0  0  0
   36.8410   27.4580   33.9960 H   0  0  0  0  0  0  0  0  0  0  0  0
   38.4060   25.2860   33.8060 O   0  0  0  0  0  0  0  0  0  0  0  0
   37.4810   24.6350   32.9830 C   0  0  0  0  0  0  0  0  0  0  0  0
   36.5750   25.2470   32.1020 C   0  0  0  0  0  0  0  0  0  0  0  0
   35.7420   24.4250   31.3770 C   0  0  0  0  0  0  0  0  0  0  0  0
   35.8090   23.0800   31.5190 N   0  0  0  0  0  0  0  0  0  0  0  0
   36.7110   22.5120   32.3950 C   0  0  0  0  0  0  0  0  0  0  0  0
   37.5380   23.3010   33.1170 N   0  0  0  0  0  0  0  0  0  0  0  0
   36.6290   26.3290   32.0880 H   0  0  0  0  0  0  0  0  0  0  0  0
   35.0640   24.9100   30.7160 H   0  0  0  0  0  0  0  0  0  0  0  0
   36.7330   21.4260   32.4800 H   0  0  0  0  0  0  0  0  0  0  0  0
  1  2  1  0  0  0  0
  2  3  2  0  0  0  0
  3  4  1  0  0  0  0
  3  7  1  0  0  0  0
  4  8  1  0  0  0  0
  5  4  1  0  0  0  0
  6  2  1  0  0  0  0
  6  5  2  0  0  0  0
  9  5  1  0  0  0  0
  9 10  1  0  0  0  0
 11 12  1  0  0  0  0
 11 10  2  0  0  0  0
 13 11  1  0  0  0  0
 14 13  1  0  0  0  0
 15 13  1  0  0  0  0
 15  9  2  0  0  0  0
 17 16  2  1  0  0  0
 17  1  1  0  0  0  0
 18 17  1  0  0  0  0
 19 18  1  0  0  0  0
 20 17  1  0  0  0  0
 21 26  1  0  0  0  0
 21 20  1  0  0  0  0
 22 21  2  0  0  0  0
 23 24  2  0  0  0  0
 23 22  1  0  0  0  0
 24 25  1  0  0  0  0
 25 29  1  0  0  0  0
 25 26  2  0  0  0  0
 27 22  1  0  0  0  0
 28 23  1  0  0  0  0
M  END
>  <minimizedAffinity>
-5.00016594

$$$$

 OpenBabel03262521143D

 29 31  0  0  0  0  0  0  0  0999 V2000
   36.5990   26.9990   33.2720 O   0  0  0  0  0  0  0  0  0  0  0  0
   37.2770   26.7380   34.4690 C   0  0  0  0  0  0  0  0  0  0  0  0
   37.8440   27.6200   35.3810 C   0  0  0  0  0  0  0  0  0  0  0  0
   38.3850   26.9030   36.3760 N   0  0  0  0  0  0  0  0  0  0  0  0
   38.1860   25.6030   36.1370 C   0  0  0  0  0  0  0  0  0  0  0  0
   37.5110   25.4940   34.9750 N   0  0  0  0  0  0  0  0  0  0  0  0
   37.8290   28.6980   35.2660 H   0  0  0  0  0  0  0  0  0  0  0  0
   38.8920   27.2670   37.2260 H   0  0  0  0  0  0  0  0  0  0  0  0
   38.6120   24.4850   36.9690 C   0  0  0  0  0  0  0  0  0  0  0  0
   39.5670   23.5850   36.6770 N   0  0  0  0  0  0  0  0  0  0  0  0
   39.6690   22.6990   37.7100 C   0  0  0  0  0  0  0  0  0  0  0  0
   40.3520   21.8550   37.7690 H   0  0  0  0  0  0  0  0  0  0  0  0
   38.7600   23.0760   38.6280 N   0  0  0  0  0  0  0  0  0  0  0  0
   38.5580   22.6310   39.5410 H   0  0  0  0  0  0  0  0  0  0  0  0
   38.1310   24.1490   38.1730 N   0  0  0  0  0  0  0  0  0  0  0  0
   38.3900   27.8920   31.6470 O   0  0  0  0  0  0  0  0  0  0  0  0
   37.4560   26.7050   31.8330 P   0  0  2  0  0  0  0  0  0  0  0  0
   36.3870   26.5500   30.5300 O   0  0  0  0  0  0  0  0  0  0  0  0
   36.7250   25.8830   29.9130 H   0  0  0  0  0  0  0  0  0  0  0  0
   38.3070   25.2400   31.9840 O   0  0  0  0  0  0  0  0  0  0  0  0
   37.7240   24.0140   31.6470 C   0  0  0  0  0  0  0  0  0  0  0  0
   38.3850   22.8950   31.1190 C   0  0  0  0  0  0  0  0  0  0  0  0
   37.6270   21.7770   30.8520 C   0  0  0  0  0  0  0  0  0  0  0  0
   36.2960   21.7750   31.0980 N   0  0  0  0  0  0  0  0  0  0  0  0
   35.6770   22.8940   31.6180 C   0  0  0  0  0  0  0  0  0  0  0  0
   36.4030   24.0020   31.8860 N   0  0  0  0  0  0  0  0  0  0  0  0
   39.4500   23.0340   30.9720 H   0  0  0  0  0  0  0  0  0  0  0  0
   38.1500   20.9410   30.4530 H   0  0  0  0  0  0  0  0  0  0  0  0
   34.6050   22.8500   31.8010 H   0  0  0  0  0  0  0  0  0  0  0  0
  1  2  1  0  0  0  0
  2  6  1  0  0  0  0
  2  3  2  0  0  0  0
  3  4  1  0  0  0  0
  4  8  1  0  0  0  0
  5  4  1  0  0  0  0
  5  9  1  0  0  0  0
  6  5  2  0  0  0  0
  7  3  1  0  0  0  0
  9 15  2  0  0  0  0
 10  9  1  0  0  0  0
 10 11  2  0  0  0  0
 11 12  1  0  0  0  0
 11 13  1  0  0  0  0
 13 14  1  0  0  0  0
 15 13  1  0  0  0  0
 17 16  2  6  0  0  0
 17 20  1  0  0  0  0
 17  1  1  0  0  0  0
 18 17  1  0  0  0  0
 19 18  1  0  0  0  0
 21 26  1  0  0  0  0
 21 20  1  0  0  0  0
 22 21  2  0  0  0  0
 23 24  2  0  0  0  0
 23 22  1  0  0  0  0
 24 25  1  0  0  0  0
 25 29  1  0  0  0  0
 25 26  2  0  0  0  0
 27 22  1  0  0  0  0
 28 23  1  0  0  0  0
M  END
>  <minimizedAffinity>
-4.98476219

$$$$

 OpenBabel03262521143D

 29 31  0  0  0  0  0  0  0  0999 V2000
   36.8680   27.4620   33.9260 O   0  0  0  0  0  0  0  0  0  0  0  0
   36.7880   27.4530   32.5280 C   0  0  0  0  0  0  0  0  0  0  0  0
   35.8310   26.8870   31.6960 C   0  0  0  0  0  0  0  0  0  0  0  0
   36.1780   27.1390   30.4260 N   0  0  0  0  0  0  0  0  0  0  0  0
   37.3150   27.8420   30.4150 C   0  0  0  0  0  0  0  0  0  0  0  0
   37.6930   28.0380   31.6930 N   0  0  0  0  0  0  0  0  0  0  0  0
   34.9660   26.3410   32.0560 H   0  0  0  0  0  0  0  0  0  0  0  0
   35.6660   26.8480   29.5510 H   0  0  0  0  0  0  0  0  0  0  0  0
   38.0350   28.3230   29.2430 C   0  0  0  0  0  0  0  0  0  0  0  0
   39.1800   27.8260   28.7430 N   0  0  0  0  0  0  0  0  0  0  0  0
   39.5320   28.5500   27.6400 C   0  0  0  0  0  0  0  0  0  0  0  0
   40.4090   28.3900   27.0190 H   0  0  0  0  0  0  0  0  0  0  0  0
   38.5830   29.4910   27.4830 N   0  0  0  0  0  0  0  0  0  0  0  0
   38.5270   30.2180   26.7480 H   0  0  0  0  0  0  0  0  0  0  0  0
   37.6900   29.3470   28.4490 N   0  0  0  0  0  0  0  0  0  0  0  0
   38.9370   27.4580   35.4640 O   0  0  0  0  0  0  0  0  0  0  0  0
   38.0940   26.5100   34.6220 P   0  0  2  0  0  0  0  0  0  0  0  0
   39.0200   25.7650   33.4170 O   0  0  0  0  0  0  0  0  0  0  0  0
   39.2860   24.8810   33.7150 H   0  0  0  0  0  0  0  0  0  0  0  0
   37.3790   25.2850   35.5600 O   0  0  0  0  0  0  0  0  0  0  0  0
   38.1350   24.4840   36.4210 C   0  0  0  0  0  0  0  0  0  0  0  0
   37.8860   24.2610   37.7850 C   0  0  0  0  0  0  0  0  0  0  0  0
   38.7540   23.4350   38.4620 C   0  0  0  0  0  0  0  0  0  0  0  0
   39.8030   22.8670   37.8210 N   0  0  0  0  0  0  0  0  0  0  0  0
   40.0200   23.1090   36.4800 C   0  0  0  0  0  0  0  0  0  0  0  0
   39.1790   23.9180   35.7960 N   0  0  0  0  0  0  0  0  0  0  0  0
   37.0140   24.7770   38.1690 H   0  0  0  0  0  0  0  0  0  0  0  0
   38.5460   23.2790   39.4930 H   0  0  0  0  0  0  0  0  0  0  0  0
   40.8750   22.6330   36.0030 H   0  0  0  0  0  0  0  0  0  0  0  0
  1 17  1  0  0  0  0
  2  1  1  0  0  0  0
  3  7  1  0  0  0  0
  3  2  2  0  0  0  0
  4  3  1  0  0  0  0
  5  4  1  0  0  0  0
  5  6  2  0  0  0  0
  6  2  1  0  0  0  0
  8  4  1  0  0  0  0
  9  5  1  0  0  0  0
 10  9  1  0  0  0  0
 11 10  2  0  0  0  0
 12 11  1  0  0  0  0
 13 11  1  0  0  0  0
 13 15  1  0  0  0  0
 14 13  1  0  0  0  0
 15  9  2  0  0  0  0
 17 16  2  1  0  0  0
 17 20  1  0  0  0  0
 18 19  1  0  0  0  0
 18 17  1  0  0  0  0
 20 21  1  0  0  0  0
 21 22  1  0  0  0  0
 22 27  1  0  0  0  0
 22 23  2  0  0  0  0
 23 28  1  0  0  0  0
 24 23  1  0  0  0  0
 25 24  2  0  0  0  0
 26 21  2  0  0  0  0
 26 25  1  0  0  0  0
 29 25  1  0  0  0  0
M  END
>  <minimizedAffinity>
-4.98396444

$$$$

 OpenBabel03262521143D

 29 31  0  0  0  0  0  0  0  0999 V2000
   36.6450   29.6590   31.5450 O   0  0  0  0  0  0  0  0  0  0  0  0
   35.6110   30.0060   32.4230 C   0  0  0  0  0  0  0  0  0  0  0  0
   34.2360   29.9000   32.2620 C   0  0  0  0  0  0  0  0  0  0  0  0
   33.6480   30.3600   33.3760 N   0  0  0  0  0  0  0  0  0  0  0  0
   34.5910   30.7530   34.2370 C   0  0  0  0  0  0  0  0  0  0  0  0
   35.7910   30.5410   33.6630 N   0  0  0  0  0  0  0  0  0  0  0  0
   33.7620   29.5070   31.3700 H   0  0  0  0  0  0  0  0  0  0  0  0
   32.6140   30.4180   33.5780 H   0  0  0  0  0  0  0  0  0  0  0  0
   34.3830   31.3140   35.5670 C   0  0  0  0  0  0  0  0  0  0  0  0
   33.2030   31.4950   36.1870 N   0  0  0  0  0  0  0  0  0  0  0  0
   33.4300   32.0440   37.4160 C   0  0  0  0  0  0  0  0  0  0  0  0
   32.6750   32.3070   38.1520 H   0  0  0  0  0  0  0  0  0  0  0  0
   34.7630   32.1930   37.5270 N   0  0  0  0  0  0  0  0  0  0  0  0
   35.2940   32.5800   38.3280 H   0  0  0  0  0  0  0  0  0  0  0  0
   35.3250   31.7520   36.4130 N   0  0  0  0  0  0  0  0  0  0  0  0
   38.5020   27.8840   31.3280 O   0  0  0  0  0  0  0  0  0  0  0  0
   36.9850   28.0000   31.3890 P   0  0  2  0  0  0  0  0  0  0  0  0
   36.2620   27.3780   29.9910 O   0  0  0  0  0  0  0  0  0  0  0  0
   35.9600   26.4710   30.1590 H   0  0  0  0  0  0  0  0  0  0  0  0
   36.3340   27.1730   32.7230 O   0  0  0  0  0  0  0  0  0  0  0  0
   37.1210   26.8140   33.8220 C   0  0  0  0  0  0  0  0  0  0  0  0
   37.4580   27.6370   34.9090 C   0  0  0  0  0  0  0  0  0  0  0  0
   38.2510   27.0930   35.8940 C   0  0  0  0  0  0  0  0  0  0  0  0
   38.6780   25.8120   35.8030 N   0  0  0  0  0  0  0  0  0  0  0  0
   38.3280   25.0310   34.7200 C   0  0  0  0  0  0  0  0  0  0  0  0
   37.5510   25.5460   33.7410 N   0  0  0  0  0  0  0  0  0  0  0  0
   37.0490   28.6390   34.8530 H   0  0  0  0  0  0  0  0  0  0  0  0
   38.4930   27.7340   36.7080 H   0  0  0  0  0  0  0  0  0  0  0  0
   38.6930   24.0050   34.6860 H   0  0  0  0  0  0  0  0  0  0  0  0
  1  2  1  0  0  0  0
  2  6  1  0  0  0  0
  3  2  2  0  0  0  0
  3  4  1  0  0  0  0
  4  8  1  0  0  0  0
  4  5  1  0  0  0  0
  5  9  1  0  0  0  0
  6  5  2  0  0  0  0
  7  3  1  0  0  0  0
  9 10  1  0  0  0  0
  9 15  2  0  0  0  0
 10 11  2  0  0  0  0
 11 13  1  0  0  0  0
 11 12  1  0  0  0  0
 13 14  1  0  0  0  0
 15 13  1  0  0  0  0
 17 16  2  6  0  0  0
 17  1  1  0  0  0  0
 17 20  1  0  0  0  0
 18 19  1  0  0  0  0
 18 17  1  0  0  0  0
 20 21  1  0  0  0  0
 21 22  1  0  0  0  0
 22 23  2  0  0  0  0
 23 28  1  0  0  0  0
 24 23  1  0  0  0  0
 25 24  2  0  0  0  0
 26 21  2  0  0  0  0
 26 25  1  0  0  0  0
 27 22  1  0  0  0  0
 29 25  1  0  0  0  0
M  END
>  <minimizedAffinity>
-4.93527365

$$$$

 OpenBabel03262521143D

 29 31  0  0  0  0  0  0  0  0999 V2000
   36.9370   25.7770   32.5130 O   0  0  0  0  0  0  0  0  0  0  0  0
   37.9040   25.2340   33.3680 C   0  0  0  0  0  0  0  0  0  0  0  0
   39.2600   25.0220   33.1540 C   0  0  0  0  0  0  0  0  0  0  0  0
   39.7780   24.4780   34.2650 N   0  0  0  0  0  0  0  0  0  0  0  0
   38.8100   24.3370   35.1750 C   0  0  0  0  0  0  0  0  0  0  0  0
   37.6630   24.7950   34.6350 N   0  0  0  0  0  0  0  0  0  0  0  0
   39.7710   25.2680   32.2310 H   0  0  0  0  0  0  0  0  0  0  0  0
   40.7800   24.1950   34.4330 H   0  0  0  0  0  0  0  0  0  0  0  0
   38.9450   23.7870   36.5180 C   0  0  0  0  0  0  0  0  0  0  0  0
   38.2020   24.1030   37.5940 N   0  0  0  0  0  0  0  0  0  0  0  0
   38.6390   23.3730   38.6620 C   0  0  0  0  0  0  0  0  0  0  0  0
   38.2380   23.4070   39.6710 H   0  0  0  0  0  0  0  0  0  0  0  0
   39.6560   22.6140   38.2150 N   0  0  0  0  0  0  0  0  0  0  0  0
   40.2260   21.9360   38.7520 H   0  0  0  0  0  0  0  0  0  0  0  0
   39.8320   22.8700   36.9280 N   0  0  0  0  0  0  0  0  0  0  0  0
   37.5710   24.4660   30.3860 O   0  0  0  0  0  0  0  0  0  0  0  0
   36.3680   24.7650   31.2690 P   0  0  2  0  0  0  0  0  0  0  0  0
   35.1390   25.5350   30.3980 O   0  0  0  0  0  0  0  0  0  0  0  0
   34.4760   24.8800   30.1270 H   0  0  0  0  0  0  0  0  0  0  0  0
   35.7130   23.3550   31.9570 O   0  0  0  0  0  0  0  0  0  0  0  0
   36.3450   22.1150   31.8330 C   0  0  0  0  0  0  0  0  0  0  0  0
   37.4930   21.6920   32.5220 C   0  0  0  0  0  0  0  0  0  0  0  0
   37.9640   20.4260   32.2550 C   0  0  0  0  0  0  0  0  0  0  0  0
   37.3290   19.6320   31.3610 N   0  0  0  0  0  0  0  0  0  0  0  0
   36.2040   20.0790   30.7000 C   0  0  0  0  0  0  0  0  0  0  0  0
   35.7250   21.3190   30.9470 N   0  0  0  0  0  0  0  0  0  0  0  0
   37.8980   22.4270   33.2070 H   0  0  0  0  0  0  0  0  0  0  0  0
   38.8340   20.1270   32.7890 H   0  0  0  0  0  0  0  0  0  0  0  0
   35.7240   19.4090   29.9880 H   0  0  0  0  0  0  0  0  0  0  0  0
  1  2  1  0  0  0  0
  2  6  1  0  0  0  0
  3  2  2  0  0  0  0
  3  4  1  0  0  0  0
  4  8  1  0  0  0  0
  4  5  1  0  0  0  0
  5  9  1  0  0  0  0
  6  5  2  0  0  0  0
  7  3  1  0  0  0  0
  9 15  2  0  0  0  0
  9 10  1  0  0  0  0
 10 11  2  0  0  0  0
 11 12  1  0  0  0  0
 13 11  1  0  0  0  0
 13 14  1  0  0  0  0
 15 13  1  0  0  0  0
 17 16  2  6  0  0  0
 17 20  1  0  0  0  0
 17  1  1  0  0  0  0
 18 17  1  0  0  0  0
 19 18  1  0  0  0  0
 21 20  1  0  0  0  0
 21 22  1  0  0  0  0
 22 27  1  0  0  0  0
 23 22  2  0  0  0  0
 23 28  1  0  0  0  0
 24 23  1  0  0  0  0
 25 26  1  0  0  0  0
 25 24  2  0  0  0  0
 26 21  2  0  0  0  0
 29 25  1  0  0  0  0
M  END
>  <minimizedAffinity>
-4.88394403

$$$$

 OpenBabel03262521143D

 29 31  0  0  0  0  0  0  0  0999 V2000
   37.7000   25.0340   36.4450 O   0  0  0  0  0  0  0  0  0  0  0  0
   38.5200   24.0620   37.0320 C   0  0  0  0  0  0  0  0  0  0  0  0
   38.5010   23.5430   38.3210 C   0  0  0  0  0  0  0  0  0  0  0  0
   39.4800   22.6330   38.4200 N   0  0  0  0  0  0  0  0  0  0  0  0
   40.1200   22.5500   37.2490 C   0  0  0  0  0  0  0  0  0  0  0  0
   39.5410   23.4190   36.3970 N   0  0  0  0  0  0  0  0  0  0  0  0
   37.7970   23.8520   39.0840 H   0  0  0  0  0  0  0  0  0  0  0  0
   39.7360   22.0550   39.2640 H   0  0  0  0  0  0  0  0  0  0  0  0
   41.2460   21.6830   36.9270 C   0  0  0  0  0  0  0  0  0  0  0  0
   41.7790   21.4760   35.7100 N   0  0  0  0  0  0  0  0  0  0  0  0
   42.8180   20.5980   35.8250 C   0  0  0  0  0  0  0  0  0  0  0  0
   43.4460   20.2350   35.0160 H   0  0  0  0  0  0  0  0  0  0  0  0
   42.9030   20.2770   37.1290 N   0  0  0  0  0  0  0  0  0  0  0  0
   43.5760   19.6340   37.5820 H   0  0  0  0  0  0  0  0  0  0  0  0
   41.9550   20.9330   37.7820 N   0  0  0  0  0  0  0  0  0  0  0  0
   37.0740   26.4860   34.4100 O   0  0  0  0  0  0  0  0  0  0  0  0
   38.2500   25.7110   34.9850 P   0  0  2  0  0  0  0  0  0  0  0  0
   38.7630   24.4940   33.9260 O   0  0  0  0  0  0  0  0  0  0  0  0
   39.5270   24.8090   33.4180 H   0  0  0  0  0  0  0  0  0  0  0  0
   39.5830   26.7160   35.3070 O   0  0  0  0  0  0  0  0  0  0  0  0
   40.7670   26.6230   34.5690 C   0  0  0  0  0  0  0  0  0  0  0  0
   41.1520   27.4530   33.5040 C   0  0  0  0  0  0  0  0  0  0  0  0
   42.3640   27.1950   32.9050 C   0  0  0  0  0  0  0  0  0  0  0  0
   43.1430   26.1760   33.3400 N   0  0  0  0  0  0  0  0  0  0  0  0
   42.7330   25.3790   34.3890 C   0  0  0  0  0  0  0  0  0  0  0  0
   41.5470   25.6150   34.9910 N   0  0  0  0  0  0  0  0  0  0  0  0
   40.4350   28.2280   33.2610 H   0  0  0  0  0  0  0  0  0  0  0  0
   42.6360   27.8370   32.1010 H   0  0  0  0  0  0  0  0  0  0  0  0
   43.3890   24.5700   34.7070 H   0  0  0  0  0  0  0  0  0  0  0  0
  1  2  1  0  0  0  0
  2  3  2  0  0  0  0
  3  4  1  0  0  0  0
  3  7  1  0  0  0  0
  4  8  1  0  0  0  0
  5  4  1  0  0  0  0
  6  2  1  0  0  0  0
  6  5  2  0  0  0  0
  9  5  1  0  0  0  0
  9 15  2  0  0  0  0
 10 11  2  0  0  0  0
 10  9  1  0  0  0  0
 11 13  1  0  0  0  0
 12 11  1  0  0  0  0
 13 14  1  0  0  0  0
 13 15  1  0  0  0  0
 17 16  2  6  0  0  0
 17 20  1  0  0  0  0
 17  1  1  0  0  0  0
 18 17  1  0  0  0  0
 19 18  1  0  0  0  0
 21 26  1  0  0  0  0
 21 20  1  0  0  0  0
 22 21  2  0  0  0  0
 23 24  2  0  0  0  0
 23 22  1  0  0  0  0
 24 25  1  0  0  0  0
 25 29  1  0  0  0  0
 25 26  2  0  0  0  0
 27 22  1  0  0  0  0
 28 23  1  0  0  0  0
M  END
>  <minimizedAffinity>
-4.81849289

$$$$
