
 OpenBabel03272501033D

 35 37  0  0  0  0  0  0  0  0999 V2000
   37.7540   29.8030   47.3570 F   0  0  0  0  0  0  0  0  0  0  0  0
   36.8410   30.0780   46.3730 C   0  0  0  0  0  0  0  0  0  0  0  0
   37.1300   30.9050   45.2970 C   0  0  0  0  0  0  0  0  0  0  0  0
   36.1580   31.1250   44.3560 C   0  0  0  0  0  0  0  0  0  0  0  0
   34.8890   30.5600   44.4250 C   0  0  0  0  0  0  0  0  0  0  0  0
   34.6280   29.7350   45.5140 C   0  0  0  0  0  0  0  0  0  0  0  0
   35.5870   29.4880   46.4870 C   0  0  0  0  0  0  0  0  0  0  0  0
   36.4420   31.7820   43.5360 H   0  0  0  0  0  0  0  0  0  0  0  0
   34.1490   30.7620   43.6570 H   0  0  0  0  0  0  0  0  0  0  0  0
   33.6660   29.2690   45.6240 H   0  0  0  0  0  0  0  0  0  0  0  0
   39.7150   33.4260   44.7780 C   0  0  0  0  0  0  0  0  0  0  0  0
   40.9210   32.7500   45.0100 C   0  0  0  0  0  0  0  0  0  0  0  0
   40.8160   31.4020   45.3500 C   0  0  0  0  0  0  0  0  0  0  0  0
   39.5990   30.8060   45.4430 N   0  0  0  0  0  0  0  0  0  0  0  0
   38.4510   31.5050   45.2080 C   0  0  0  0  0  0  0  0  0  0  0  0
   38.5180   32.8210   44.8750 N   0  0  0  0  0  0  0  0  0  0  0  0
   39.6760   34.4810   44.5060 H   0  0  0  0  0  0  0  0  0  0  0  0
   41.7950   33.3410   44.9010 H   0  0  0  0  0  0  0  0  0  0  0  0
   41.7380   30.9010   45.5220 H   0  0  0  0  0  0  0  0  0  0  0  0
   35.3010   28.6840   47.5300 O   0  0  0  0  0  0  0  0  0  0  0  0
   35.0560   28.0310   50.0250 O   0  0  0  0  0  0  0  0  0  0  0  0
   34.6290   29.0880   49.0180 P   0  0  2  0  0  0  0  0  0  0  0  0
   32.9580   29.1290   49.0620 O   0  0  0  0  0  0  0  0  0  0  0  0
   32.2390   27.9880   48.7290 C   0  0  0  0  0  0  0  0  0  0  0  0
   30.9600   27.8470   49.1640 N   0  0  0  0  0  0  0  0  0  0  0  0
   30.4440   26.6720   48.7320 C   0  0  0  0  0  0  0  0  0  0  0  0
   29.4360   26.3510   48.9620 H   0  0  0  0  0  0  0  0  0  0  0  0
   31.4350   26.0840   48.0150 N   0  0  0  0  0  0  0  0  0  0  0  0
   31.3370   25.1550   47.5490 H   0  0  0  0  0  0  0  0  0  0  0  0
   32.5080   26.8610   48.0080 N   0  0  0  0  0  0  0  0  0  0  0  0
   35.2480   30.5730   49.6000 O   0  0  0  0  0  0  0  0  0  0  0  0
   36.3890   30.4170   50.3410 C   0  0  0  0  0  0  0  0  0  0  0  0
   37.3140   29.5920   49.7360 F   0  0  0  0  0  0  0  0  0  0  0  0
   36.9550   31.6600   50.4780 F   0  0  0  0  0  0  0  0  0  0  0  0
   36.0780   29.9150   51.6010 F   0  0  0  0  0  0  0  0  0  0  0  0
  2  7  1  0  0  0  0
  2  1  1  0  0  0  0
  3  2  2  0  0  0  0
  4  5  2  0  0  0  0
  4  3  1  0  0  0  0
  5  6  1  0  0  0  0
  6 10  1  0  0  0  0
  6  7  2  0  0  0  0
  7 20  1  0  0  0  0
  8  4  1  0  0  0  0
  9  5  1  0  0  0  0
 11 16  2  0  0  0  0
 11 12  1  0  0  0  0
 12 13  2  0  0  0  0
 13 14  1  0  0  0  0
 13 19  1  0  0  0  0
 15  3  1  0  0  0  0
 15 14  2  0  0  0  0
 16 15  1  0  0  0  0
 17 11  1  0  0  0  0
 18 12  1  0  0  0  0
 20 22  1  0  0  0  0
 22 23  1  0  0  0  0
 22 31  1  0  0  0  0
 22 21  2  1  0  0  0
 24 23  1  0  0  0  0
 24 25  1  0  0  0  0
 26 27  1  0  0  0  0
 26 25  2  0  0  0  0
 28 26  1  0  0  0  0
 29 28  1  0  0  0  0
 30 28  1  0  0  0  0
 30 24  2  0  0  0  0
 31 32  1  0  0  0  0
 32 34  1  0  0  0  0
 32 35  1  0  0  0  0
 33 32  1  0  0  0  0
M  END
>  <minimizedAffinity>
-4.25949335

>  <minimizedRMSD>
1.55617476

$$$$
