
 OpenBabel03272503043D

 30 32  0  0  0  0  0  0  0  0999 V2000
   38.4720   30.4350   47.3070 F   0  0  0  0  0  0  0  0  0  0  0  0
   38.7520   31.6580   47.7980 C   0  0  0  0  0  0  0  0  0  0  0  0
   38.2000   32.0780   48.9830 C   0  0  0  0  0  0  0  0  0  0  0  0
   38.5260   33.3280   49.4220 C   0  0  0  0  0  0  0  0  0  0  0  0
   39.3700   34.1580   48.7280 C   0  0  0  0  0  0  0  0  0  0  0  0
   39.9180   33.7240   47.5380 C   0  0  0  0  0  0  0  0  0  0  0  0
   39.6090   32.4600   47.0620 C   0  0  0  0  0  0  0  0  0  0  0  0
   38.0920   33.6570   50.3520 H   0  0  0  0  0  0  0  0  0  0  0  0
   39.5860   35.1350   49.1320 H   0  0  0  0  0  0  0  0  0  0  0  0
   40.5850   34.3580   46.9730 H   0  0  0  0  0  0  0  0  0  0  0  0
   36.7980   29.5810   51.4610 C   0  0  0  0  0  0  0  0  0  0  0  0
   37.6810   30.4640   50.8190 C   0  0  0  0  0  0  0  0  0  0  0  0
   37.3070   31.1520   49.6780 C   0  0  0  0  0  0  0  0  0  0  0  0
   36.0330   30.9250   49.2140 N   0  0  0  0  0  0  0  0  0  0  0  0
   35.2050   30.0730   49.8490 C   0  0  0  0  0  0  0  0  0  0  0  0
   35.5740   29.4160   50.9450 N   0  0  0  0  0  0  0  0  0  0  0  0
   37.1150   29.0480   52.3610 H   0  0  0  0  0  0  0  0  0  0  0  0
   38.6710   30.6300   51.1930 H   0  0  0  0  0  0  0  0  0  0  0  0
   34.2300   29.9820   49.3830 H   0  0  0  0  0  0  0  0  0  0  0  0
   39.3030   32.1920   44.7050 C   0  0  0  0  0  0  0  0  0  0  0  0
   38.2060   32.7750   44.9460 O   0  0  0  0  0  0  0  0  0  0  0  0
   40.1580   31.9710   45.8290 N   0  0  0  0  0  0  0  0  0  0  0  0
   41.0600   31.4970   45.6520 H   0  0  0  0  0  0  0  0  0  0  0  0
   39.6520   31.7790   43.3510 C   0  0  0  0  0  0  0  0  0  0  0  0
   40.4140   30.7030   43.0870 N   0  0  0  0  0  0  0  0  0  0  0  0
   40.5550   30.5890   41.7320 C   0  0  0  0  0  0  0  0  0  0  0  0
   41.0760   29.8830   41.1000 H   0  0  0  0  0  0  0  0  0  0  0  0
   39.8510   31.6310   41.2080 N   0  0  0  0  0  0  0  0  0  0  0  0
   39.6880   31.9290   40.2220 H   0  0  0  0  0  0  0  0  0  0  0  0
   39.3130   32.3380   42.2010 N   0  0  0  0  0  0  0  0  0  0  0  0
  1  2  1  0  0  0  0
  2  3  1  0  0  0  0
  3  4  2  0  0  0  0
  3 13  1  0  0  0  0
  4  8  1  0  0  0  0
  5  9  1  0  0  0  0
  5  4  1  0  0  0  0
  6  5  2  0  0  0  0
  7  6  1  0  0  0  0
  7  2  2  0  0  0  0
 10  6  1  0  0  0  0
 11 17  1  0  0  0  0
 12 18  1  0  0  0  0
 12 11  2  0  0  0  0
 13 12  1  0  0  0  0
 14 13  2  0  0  0  0
 14 15  1  0  0  0  0
 15 16  2  0  0  0  0
 16 11  1  0  0  0  0
 19 15  1  0  0  0  0
 20 21  2  0  0  0  0
 20 22  1  0  0  0  0
 22  7  1  0  0  0  0
 23 22  1  0  0  0  0
 24 20  1  0  0  0  0
 25 24  1  0  0  0  0
 26 25  2  0  0  0  0
 27 26  1  0  0  0  0
 28 26  1  0  0  0  0
 28 30  1  0  0  0  0
 29 28  1  0  0  0  0
 30 24  2  0  0  0  0
M  END
>  <minimizedAffinity>
-6.49080181

>  <minimizedRMSD>
0.130846232

$$$$
