
 OpenBabel03262523543D

 32 34  0  0  1  0  0  0  0  0999 V2000
   37.4180   30.0670   46.9710 C   0  0  1  0  0  0  0  0  0  0  0  0
   36.8560   30.8010   45.8360 C   0  0  0  0  0  0  0  0  0  0  0  0
   37.6090   30.3870   44.6000 C   0  0  0  0  0  0  0  0  0  0  0  0
   39.0660   30.3030   44.8530 C   0  0  0  0  0  0  0  0  0  0  0  0
   39.5570   31.0150   46.0600 C   0  0  0  0  0  0  0  0  0  0  0  0
   38.7790   30.6960   47.3100 C   0  0  1  0  0  0  0  0  0  0  0  0
   37.6430   29.0040   46.6760 H   0  0  0  0  0  0  0  0  0  0  0  0
   36.9830   31.9060   45.9410 H   0  0  0  0  0  0  0  0  0  0  0  0
   35.7700   30.5860   45.7270 H   0  0  0  0  0  0  0  0  0  0  0  0
   37.1690   29.3910   44.3060 H   0  0  0  0  0  0  0  0  0  0  0  0
   37.4050   31.0780   43.7510 H   0  0  0  0  0  0  0  0  0  0  0  0
   39.2990   29.2090   45.0230 H   0  0  0  0  0  0  0  0  0  0  0  0
   39.6890   30.5850   43.9920 H   0  0  0  0  0  0  0  0  0  0  0  0
   39.3730   32.1140   45.8740 H   0  0  0  0  0  0  0  0  0  0  0  0
   40.6290   30.8880   46.1710 H   0  0  0  0  0  0  0  0  0  0  0  0
   39.3550   29.8880   47.8050 H   0  0  0  0  0  0  0  0  0  0  0  0
   36.3440   29.3360   50.4710 C   0  0  0  0  0  0  0  0  0  0  0  0
   37.1400   29.3120   49.2920 C   0  0  0  0  0  0  0  0  0  0  0  0
   36.6440   30.0620   48.2220 C   0  0  0  0  0  0  0  0  0  0  0  0
   35.4620   30.7590   48.3500 N   0  0  0  0  0  0  0  0  0  0  0  0
   34.7480   30.7460   49.4910 C   0  0  0  0  0  0  0  0  0  0  0  0
   35.1860   30.0390   50.5480 N   0  0  0  0  0  0  0  0  0  0  0  0
   36.6340   28.7920   51.3620 H   0  0  0  0  0  0  0  0  0  0  0  0
   38.0290   28.7370   49.3140 H   0  0  0  0  0  0  0  0  0  0  0  0
   33.8700   31.3450   49.3850 H   0  0  0  0  0  0  0  0  0  0  0  0
   38.6620   31.8450   48.2230 C   0  0  0  0  0  0  0  0  0  0  0  0
   38.5310   32.0630   49.5620 N   0  0  0  0  0  0  0  0  0  0  0  0
   38.4710   33.3760   49.8220 C   0  0  0  0  0  0  0  0  0  0  0  0
   38.3660   33.6580   50.8600 H   0  0  0  0  0  0  0  0  0  0  0  0
   38.5600   34.0080   48.6560 N   0  0  0  0  0  0  0  0  0  0  0  0
   38.5350   35.0470   48.6050 H   0  0  0  0  0  0  0  0  0  0  0  0
   38.6720   33.0920   47.7220 N   0  0  0  0  0  0  0  0  0  0  0  0
  1  7  1  6  0  0  0
  1  6  1  0  0  0  0
  1 19  1  0  0  0  0
  2  8  1  0  0  0  0
  2  1  1  0  0  0  0
  3  4  1  0  0  0  0
  3  2  1  0  0  0  0
  4 12  1  0  0  0  0
  4  5  1  0  0  0  0
  5 15  1  0  0  0  0
  5  6  1  0  0  0  0
  6 16  1  1  0  0  0
  6 26  1  0  0  0  0
  9  2  1  0  0  0  0
 10  3  1  0  0  0  0
 11  3  1  0  0  0  0
 13  4  1  0  0  0  0
 14  5  1  0  0  0  0
 17 22  1  0  0  0  0
 17 23  1  0  0  0  0
 18 24  1  0  0  0  0
 18 17  2  0  0  0  0
 19 20  2  0  0  0  0
 19 18  1  0  0  0  0
 20 21  1  0  0  0  0
 21 22  2  0  0  0  0
 25 21  1  0  0  0  0
 26 27  1  0  0  0  0
 27 28  2  0  0  0  0
 28 29  1  0  0  0  0
 30 28  1  0  0  0  0
 31 30  1  0  0  0  0
 32 26  2  0  0  0  0
 32 30  1  0  0  0  0
M  END
>  <minimizedAffinity>
-4.47080898

>  <minimizedRMSD>
1.87732661

$$$$
