
 OpenBabel03272501083D

 38 41  0  0  1  0  0  0  0  0999 V2000
   38.9730   32.4410   47.5880 C   0  0  2  0  0  0  0  0  0  0  0  0
   37.9890   32.6130   48.7780 C   0  0  2  0  0  0  0  0  0  0  0  0
   38.8240   33.3100   49.7440 C   0  0  0  0  0  0  0  0  0  0  0  0
   39.6560   34.1740   49.0390 O   0  0  0  0  0  0  0  0  0  0  0  0
   39.5930   33.8630   47.7190 C   0  0  0  0  0  0  0  0  0  0  0  0
   39.7310   31.7000   47.8330 H   0  0  0  0  0  0  0  0  0  0  0  0
   37.1780   33.2510   48.3270 H   0  0  0  0  0  0  0  0  0  0  0  0
   38.1650   33.9810   50.3670 H   0  0  0  0  0  0  0  0  0  0  0  0
   39.3760   32.6760   50.4280 H   0  0  0  0  0  0  0  0  0  0  0  0
   40.6280   33.7430   47.3330 H   0  0  0  0  0  0  0  0  0  0  0  0
   39.0480   34.5570   47.0660 H   0  0  0  0  0  0  0  0  0  0  0  0
   37.3410   29.3180   50.4840 C   0  0  0  0  0  0  0  0  0  0  0  0
   37.9920   30.5410   50.1560 C   0  0  0  0  0  0  0  0  0  0  0  0
   37.3780   31.3610   49.1660 C   0  0  0  0  0  0  0  0  0  0  0  0
   36.2030   30.9420   48.5830 N   0  0  0  0  0  0  0  0  0  0  0  0
   35.6340   29.7860   48.9270 C   0  0  0  0  0  0  0  0  0  0  0  0
   36.1870   28.9690   49.8700 N   0  0  0  0  0  0  0  0  0  0  0  0
   37.7510   28.6480   51.2250 H   0  0  0  0  0  0  0  0  0  0  0  0
   38.8950   30.7890   50.6500 H   0  0  0  0  0  0  0  0  0  0  0  0
   34.7180   29.5770   48.3960 H   0  0  0  0  0  0  0  0  0  0  0  0
   38.3290   32.3590   46.4000 O   0  0  0  0  0  0  0  0  0  0  0  0
   40.7660   31.9920   44.5480 Cl  0  0  0  0  0  0  0  0  0  0  0  0
   39.2330   31.1730   44.3790 C   0  0  0  0  0  0  0  0  0  0  0  0
   38.3000   31.5160   45.3460 C   0  0  0  0  0  0  0  0  0  0  0  0
   37.0800   30.8700   45.2210 C   0  0  0  0  0  0  0  0  0  0  0  0
   36.8180   29.9630   44.2180 C   0  0  0  0  0  0  0  0  0  0  0  0
   37.7910   29.6730   43.2960 C   0  0  0  0  0  0  0  0  0  0  0  0
   39.0310   30.2770   43.3580 C   0  0  0  0  0  0  0  0  0  0  0  0
   36.2330   31.0100   45.8790 H   0  0  0  0  0  0  0  0  0  0  0  0
   35.8840   29.4440   44.0910 H   0  0  0  0  0  0  0  0  0  0  0  0
   37.6310   28.9670   42.4920 H   0  0  0  0  0  0  0  0  0  0  0  0
   40.1370   30.0440   42.4340 C   0  0  0  0  0  0  0  0  0  0  0  0
   40.4490   30.6900   41.2950 N   0  0  0  0  0  0  0  0  0  0  0  0
   41.5720   30.1140   40.7790 C   0  0  0  0  0  0  0  0  0  0  0  0
   41.8700   30.6060   39.8460 H   0  0  0  0  0  0  0  0  0  0  0  0
   41.9460   29.1050   41.6130 N   0  0  0  0  0  0  0  0  0  0  0  0
   42.7950   28.6100   41.2950 H   0  0  0  0  0  0  0  0  0  0  0  0
   41.0680   29.0820   42.6020 N   0  0  0  0  0  0  0  0  0  0  0  0
  1  5  1  0  0  0  0
  1  6  1  1  0  0  0
  1  2  1  0  0  0  0
  2  7  1  6  0  0  0
  2 14  1  0  0  0  0
  2  3  1  0  0  0  0
  3  8  1  0  0  0  0
  3  9  1  0  0  0  0
  4  3  1  0  0  0  0
  5  4  1  0  0  0  0
 10  5  1  0  0  0  0
 11  5  1  0  0  0  0
 12 18  1  0  0  0  0
 13 12  1  0  0  0  0
 13 19  1  0  0  0  0
 14 13  2  0  0  0  0
 15 16  2  0  0  0  0
 15 14  1  0  0  0  0
 16 17  1  0  0  0  0
 17 12  2  0  0  0  0
 20 16  1  0  0  0  0
 21  1  1  0  0  0  0
 23 22  1  0  0  0  0
 23 24  1  0  0  0  0
 24 21  1  0  0  0  0
 25 24  2  0  0  0  0
 25 29  1  0  0  0  0
 26 25  1  0  0  0  0
 27 28  1  0  0  0  0
 27 26  2  0  0  0  0
 28 23  2  0  0  0  0
 30 26  1  0  0  0  0
 31 27  1  0  0  0  0
 32 38  2  0  0  0  0
 32 28  1  0  0  0  0
 33 32  1  0  0  0  0
 34 33  2  0  0  0  0
 34 36  1  0  0  0  0
 35 34  1  0  0  0  0
 36 38  1  0  0  0  0
 37 36  1  0  0  0  0
M  END
>  <minimizedAffinity>
-6.23223495

>  <minimizedRMSD>
0.937248886

$$$$
