
 OpenBabel03272510243D

 30 33  0  0  0  0  0  0  0  0999 V2000
   36.2250   30.2000   46.8490 C   0  0  0  0  0  0  0  0  0  0  0  0
   37.0910   30.7630   47.7920 C   0  0  0  0  0  0  0  0  0  0  0  0
   38.0720   31.6480   47.4070 C   0  0  0  0  0  0  0  0  0  0  0  0
   38.1470   31.9440   46.0370 C   0  0  0  0  0  0  0  0  0  0  0  0
   39.0370   32.7890   45.4380 N   0  0  0  0  0  0  0  0  0  0  0  0
   38.7460   32.7680   44.1400 C   0  0  0  0  0  0  0  0  0  0  0  0
   37.7130   31.9470   43.8920 N   0  0  0  0  0  0  0  0  0  0  0  0
   37.3180   31.4150   45.0810 C   0  0  0  0  0  0  0  0  0  0  0  0
   36.3350   30.5220   45.4980 C   0  0  0  0  0  0  0  0  0  0  0  0
   35.4270   29.4920   47.0920 H   0  0  0  0  0  0  0  0  0  0  0  0
   38.7350   32.0790   48.1260 H   0  0  0  0  0  0  0  0  0  0  0  0
   39.7990   33.3420   45.9270 H   0  0  0  0  0  0  0  0  0  0  0  0
   35.6750   30.0990   44.7490 H   0  0  0  0  0  0  0  0  0  0  0  0
   37.5170   30.1760   51.4820 C   0  0  0  0  0  0  0  0  0  0  0  0
   37.7980   30.6000   50.1880 C   0  0  0  0  0  0  0  0  0  0  0  0
   36.8900   30.3600   49.1710 C   0  0  0  0  0  0  0  0  0  0  0  0
   35.7410   29.7050   49.5030 N   0  0  0  0  0  0  0  0  0  0  0  0
   35.4800   29.2960   50.7710 C   0  0  0  0  0  0  0  0  0  0  0  0
   36.3510   29.5270   51.7380 N   0  0  0  0  0  0  0  0  0  0  0  0
   38.2950   30.4150   52.1990 H   0  0  0  0  0  0  0  0  0  0  0  0
   38.7070   31.1210   49.9200 H   0  0  0  0  0  0  0  0  0  0  0  0
   34.5370   28.7730   50.9720 H   0  0  0  0  0  0  0  0  0  0  0  0
   39.4400   33.5110   43.1800 O   0  0  0  0  0  0  0  0  0  0  0  0
   39.0910   33.2900   41.8540 C   0  0  0  0  0  0  0  0  0  0  0  0
   38.3520   34.1060   41.0810 N   0  0  0  0  0  0  0  0  0  0  0  0
   38.2130   33.5730   39.8480 C   0  0  0  0  0  0  0  0  0  0  0  0
   37.7310   33.8340   38.9160 H   0  0  0  0  0  0  0  0  0  0  0  0
   38.8970   32.3920   39.8920 N   0  0  0  0  0  0  0  0  0  0  0  0
   39.1130   31.5920   39.2290 H   0  0  0  0  0  0  0  0  0  0  0  0
   39.4160   32.2290   41.0860 N   0  0  0  0  0  0  0  0  0  0  0  0
  1 10  1  0  0  0  0
  1  2  1  0  0  0  0
  2 16  1  0  0  0  0
  3  2  2  0  0  0  0
  3 11  1  0  0  0  0
  4  3  1  0  0  0  0
  5 12  1  0  0  0  0
  5  4  1  0  0  0  0
  6  5  1  0  0  0  0
  7  6  2  0  0  0  0
  7  8  1  0  0  0  0
  8  9  1  0  0  0  0
  8  4  2  0  0  0  0
  9  1  2  0  0  0  0
 13  9  1  0  0  0  0
 14 19  1  0  0  0  0
 14 20  1  0  0  0  0
 15 14  2  0  0  0  0
 16 17  2  0  0  0  0
 16 15  1  0  0  0  0
 17 18  1  0  0  0  0
 18 22  1  0  0  0  0
 18 19  2  0  0  0  0
 21 15  1  0  0  0  0
 23  6  1  0  0  0  0
 24 23  1  0  0  0  0
 25 24  1  0  0  0  0
 26 28  1  0  0  0  0
 26 25  2  0  0  0  0
 27 26  1  0  0  0  0
 28 30  1  0  0  0  0
 29 28  1  0  0  0  0
 30 24  2  0  0  0  0
M  END
>  <minimizedAffinity>
-5.57746696

>  <minimizedRMSD>
1.3153708

$$$$
