
 OpenBabel03272506513D

 32 34  0  0  1  0  0  0  0  0999 V2000
   34.8050   30.4450   48.7800 C   0  0  1  0  0  0  0  0  0  0  0  0
   33.7940   30.3980   47.7260 C   0  0  0  0  0  0  0  0  0  0  0  0
   33.5310   29.0650   47.0830 C   0  0  0  0  0  0  0  0  0  0  0  0
   33.6160   27.8870   47.9740 C   0  0  2  0  0  0  0  0  0  0  0  0
   34.6310   27.9190   49.0610 C   0  0  0  0  0  0  0  0  0  0  0  0
   34.7330   29.2640   49.7060 C   0  0  0  0  0  0  0  0  0  0  0  0
   34.5600   31.3260   49.4570 H   0  0  0  0  0  0  0  0  0  0  0  0
   32.7980   30.6400   48.2270 H   0  0  0  0  0  0  0  0  0  0  0  0
   33.8540   31.1360   46.9330 H   0  0  0  0  0  0  0  0  0  0  0  0
   32.5390   29.0910   46.6010 H   0  0  0  0  0  0  0  0  0  0  0  0
   34.2780   28.9610   46.2590 H   0  0  0  0  0  0  0  0  0  0  0  0
   32.6050   27.7370   48.4410 H   0  0  0  0  0  0  0  0  0  0  0  0
   34.2990   27.2190   49.8590 H   0  0  0  0  0  0  0  0  0  0  0  0
   35.6270   27.5510   48.7260 H   0  0  0  0  0  0  0  0  0  0  0  0
   35.4570   29.2310   50.5050 H   0  0  0  0  0  0  0  0  0  0  0  0
   33.7340   29.3920   50.2380 H   0  0  0  0  0  0  0  0  0  0  0  0
   36.6230   30.5570   47.0120 C   0  0  0  0  0  0  0  0  0  0  0  0
   36.1900   30.7520   48.3480 C   0  0  0  0  0  0  0  0  0  0  0  0
   37.1210   31.2530   49.2420 C   0  0  0  0  0  0  0  0  0  0  0  0
   38.3790   31.5280   48.8110 N   0  0  0  0  0  0  0  0  0  0  0  0
   38.7520   31.3260   47.5290 C   0  0  0  0  0  0  0  0  0  0  0  0
   37.8640   30.8370   46.6300 N   0  0  0  0  0  0  0  0  0  0  0  0
   35.9710   30.1720   46.2440 H   0  0  0  0  0  0  0  0  0  0  0  0
   36.9500   31.4590   50.2840 H   0  0  0  0  0  0  0  0  0  0  0  0
   39.7530   31.5390   47.1660 H   0  0  0  0  0  0  0  0  0  0  0  0
   33.8480   26.6750   47.1430 C   0  0  0  0  0  0  0  0  0  0  0  0
   33.9810   25.3840   47.5020 N   0  0  0  0  0  0  0  0  0  0  0  0
   34.1790   24.6090   46.4380 C   0  0  0  0  0  0  0  0  0  0  0  0
   34.3150   23.5320   46.4680 H   0  0  0  0  0  0  0  0  0  0  0  0
   34.1720   25.4340   45.3620 N   0  0  0  0  0  0  0  0  0  0  0  0
   34.3040   25.1210   44.3780 H   0  0  0  0  0  0  0  0  0  0  0  0
   33.9730   26.6760   45.7910 N   0  0  0  0  0  0  0  0  0  0  0  0
  1  7  1  1  0  0  0
  1  6  1  0  0  0  0
  2  8  1  0  0  0  0
  2  1  1  0  0  0  0
  3  2  1  0  0  0  0
  3  4  1  0  0  0  0
  4 12  1  1  0  0  0
  4  5  1  0  0  0  0
  5  6  1  0  0  0  0
  5 13  1  0  0  0  0
  6 16  1  0  0  0  0
  6 15  1  0  0  0  0
  9  2  1  0  0  0  0
 10  3  1  0  0  0  0
 11  3  1  0  0  0  0
 14  5  1  0  0  0  0
 17 18  1  0  0  0  0
 18  1  1  0  0  0  0
 18 19  2  0  0  0  0
 19 24  1  0  0  0  0
 20 19  1  0  0  0  0
 21 20  2  0  0  0  0
 22 17  2  0  0  0  0
 22 21  1  0  0  0  0
 23 17  1  0  0  0  0
 25 21  1  0  0  0  0
 26 27  1  0  0  0  0
 26  4  1  0  0  0  0
 28 29  1  0  0  0  0
 28 27  2  0  0  0  0
 30 32  1  0  0  0  0
 30 28  1  0  0  0  0
 31 30  1  0  0  0  0
 32 26  2  0  0  0  0
M  END
>  <minimizedAffinity>
-4.36111498

>  <minimizedRMSD>
1.61813056

$$$$
