
 OpenBabel03272501083D

 38 41  0  0  1  0  0  0  0  0999 V2000
   39.0070   32.4180   47.4370 C   0  0  2  0  0  0  0  0  0  0  0  0
   38.1030   32.7360   48.6600 C   0  0  2  0  0  0  0  0  0  0  0  0
   39.0200   33.4810   49.5090 C   0  0  0  0  0  0  0  0  0  0  0  0
   39.8380   34.2440   48.6820 O   0  0  0  0  0  0  0  0  0  0  0  0
   39.6850   33.8190   47.4020 C   0  0  0  0  0  0  0  0  0  0  0  0
   39.7500   31.6700   47.7050 H   0  0  0  0  0  0  0  0  0  0  0  0
   37.2900   33.3650   48.1990 H   0  0  0  0  0  0  0  0  0  0  0  0
   38.4240   34.2320   50.1040 H   0  0  0  0  0  0  0  0  0  0  0  0
   39.5890   32.8890   50.2150 H   0  0  0  0  0  0  0  0  0  0  0  0
   40.6890   33.6210   46.9700 H   0  0  0  0  0  0  0  0  0  0  0  0
   39.1270   34.4740   46.7200 H   0  0  0  0  0  0  0  0  0  0  0  0
   37.3720   29.7130   50.7850 C   0  0  0  0  0  0  0  0  0  0  0  0
   38.0410   30.8790   50.3140 C   0  0  0  0  0  0  0  0  0  0  0  0
   37.4710   31.5510   49.1950 C   0  0  0  0  0  0  0  0  0  0  0  0
   36.3180   31.0530   48.6300 N   0  0  0  0  0  0  0  0  0  0  0  0
   35.7310   29.9560   49.1100 C   0  0  0  0  0  0  0  0  0  0  0  0
   36.2420   29.2800   50.1800 N   0  0  0  0  0  0  0  0  0  0  0  0
   37.7490   29.1550   51.6290 H   0  0  0  0  0  0  0  0  0  0  0  0
   38.9240   31.1950   50.8050 H   0  0  0  0  0  0  0  0  0  0  0  0
   34.8360   29.6730   48.5760 H   0  0  0  0  0  0  0  0  0  0  0  0
   38.2890   32.2580   46.3000 O   0  0  0  0  0  0  0  0  0  0  0  0
   40.7190   31.9880   44.4220 Cl  0  0  0  0  0  0  0  0  0  0  0  0
   39.2180   31.1100   44.2680 C   0  0  0  0  0  0  0  0  0  0  0  0
   38.2820   31.4150   45.2450 C   0  0  0  0  0  0  0  0  0  0  0  0
   37.0870   30.7220   45.1310 C   0  0  0  0  0  0  0  0  0  0  0  0
   36.8500   29.8070   44.1300 C   0  0  0  0  0  0  0  0  0  0  0  0
   37.8230   29.5570   43.1970 C   0  0  0  0  0  0  0  0  0  0  0  0
   39.0400   30.2080   43.2470 C   0  0  0  0  0  0  0  0  0  0  0  0
   36.2420   30.8290   45.7980 H   0  0  0  0  0  0  0  0  0  0  0  0
   35.9360   29.2530   44.0110 H   0  0  0  0  0  0  0  0  0  0  0  0
   37.6830   28.8460   42.3930 H   0  0  0  0  0  0  0  0  0  0  0  0
   40.1440   30.0200   42.3110 C   0  0  0  0  0  0  0  0  0  0  0  0
   40.4220   30.6830   41.1730 N   0  0  0  0  0  0  0  0  0  0  0  0
   41.5600   30.1490   40.6420 C   0  0  0  0  0  0  0  0  0  0  0  0
   41.8310   30.6570   39.7090 H   0  0  0  0  0  0  0  0  0  0  0  0
   41.9780   29.1510   41.4680 N   0  0  0  0  0  0  0  0  0  0  0  0
   42.8410   28.6880   41.1390 H   0  0  0  0  0  0  0  0  0  0  0  0
   41.1110   29.0910   42.4650 N   0  0  0  0  0  0  0  0  0  0  0  0
  1  6  1  1  0  0  0
  1  2  1  0  0  0  0
  2  7  1  6  0  0  0
  2 14  1  0  0  0  0
  2  3  1  0  0  0  0
  3  8  1  0  0  0  0
  3  9  1  0  0  0  0
  4  3  1  0  0  0  0
  5  1  1  0  0  0  0
  5  4  1  0  0  0  0
 10  5  1  0  0  0  0
 11  5  1  0  0  0  0
 12 18  1  0  0  0  0
 13 12  1  0  0  0  0
 13 19  1  0  0  0  0
 14 13  2  0  0  0  0
 15 16  2  0  0  0  0
 15 14  1  0  0  0  0
 16 17  1  0  0  0  0
 17 12  2  0  0  0  0
 20 16  1  0  0  0  0
 21  1  1  0  0  0  0
 23 22  1  0  0  0  0
 23 24  1  0  0  0  0
 24 21  1  0  0  0  0
 25 24  2  0  0  0  0
 25 29  1  0  0  0  0
 26 25  1  0  0  0  0
 27 28  1  0  0  0  0
 27 26  2  0  0  0  0
 28 23  2  0  0  0  0
 30 26  1  0  0  0  0
 31 27  1  0  0  0  0
 32 38  2  0  0  0  0
 32 28  1  0  0  0  0
 33 32  1  0  0  0  0
 34 33  2  0  0  0  0
 34 36  1  0  0  0  0
 35 34  1  0  0  0  0
 36 38  1  0  0  0  0
 37 36  1  0  0  0  0
M  END
>  <minimizedAffinity>
-6.22245979

>  <minimizedRMSD>
0.92197293

$$$$
