
 OpenBabel03272506273D

 40 43  0  0  0  0  0  0  0  0999 V2000
   33.7590   28.5520   45.7030 C   0  0  0  0  0  0  0  0  0  0  0  0
   33.8620   28.0260   44.4290 C   0  0  0  0  0  0  0  0  0  0  0  0
   34.7900   28.4430   43.4780 C   0  0  0  0  0  0  0  0  0  0  0  0
   35.6860   29.4700   43.8320 C   0  0  0  0  0  0  0  0  0  0  0  0
   35.5710   29.9830   45.1070 C   0  0  0  0  0  0  0  0  0  0  0  0
   34.6590   29.5660   46.0300 C   0  0  0  0  0  0  0  0  0  0  0  0
   33.1770   27.2220   44.1150 H   0  0  0  0  0  0  0  0  0  0  0  0
   34.7760   27.9470   42.4930 H   0  0  0  0  0  0  0  0  0  0  0  0
   36.3510   29.7090   43.0300 H   0  0  0  0  0  0  0  0  0  0  0  0
   36.3140   30.7350   45.1720 H   0  0  0  0  0  0  0  0  0  0  0  0
   33.0930   26.8750   47.3100 C   0  0  0  0  0  0  0  0  0  0  0  0
   32.7400   28.0010   46.5500 C   0  0  0  0  0  0  0  0  0  0  0  0
   31.4350   28.4980   46.6720 C   0  0  0  0  0  0  0  0  0  0  0  0
   30.5680   27.8750   47.5150 N   0  0  0  0  0  0  0  0  0  0  0  0
   30.9380   26.7810   48.2430 C   0  0  0  0  0  0  0  0  0  0  0  0
   32.2000   26.2860   48.1360 N   0  0  0  0  0  0  0  0  0  0  0  0
   34.0790   26.4680   47.2410 H   0  0  0  0  0  0  0  0  0  0  0  0
   30.2580   26.2780   48.9160 H   0  0  0  0  0  0  0  0  0  0  0  0
   30.9210   29.6820   45.9260 C   0  0  0  0  0  0  0  0  0  0  0  0
   29.5850   29.9240   46.2980 F   0  0  0  0  0  0  0  0  0  0  0  0
   31.6220   30.8230   46.0700 F   0  0  0  0  0  0  0  0  0  0  0  0
   30.8290   29.3710   44.5640 F   0  0  0  0  0  0  0  0  0  0  0  0
   34.5270   30.2300   47.6490 S   0  0  0  0  0  0  0  0  0  0  0  0
   35.4080   28.5210   50.0920 Cl  0  0  0  0  0  0  0  0  0  0  0  0
   36.4380   29.7830   49.4750 C   0  0  0  0  0  0  0  0  0  0  0  0
   36.0880   30.5970   48.3990 C   0  0  0  0  0  0  0  0  0  0  0  0
   36.9220   31.5890   47.9740 C   0  0  0  0  0  0  0  0  0  0  0  0
   38.1290   31.7700   48.6330 C   0  0  0  0  0  0  0  0  0  0  0  0
   38.4850   30.9560   49.7130 C   0  0  0  0  0  0  0  0  0  0  0  0
   37.6420   29.9550   50.1440 C   0  0  0  0  0  0  0  0  0  0  0  0
   36.7310   32.2790   47.1930 H   0  0  0  0  0  0  0  0  0  0  0  0
   38.8270   32.5450   48.3320 H   0  0  0  0  0  0  0  0  0  0  0  0
   39.4500   31.1550   50.1870 H   0  0  0  0  0  0  0  0  0  0  0  0
   38.0450   29.1260   51.2740 C   0  0  0  0  0  0  0  0  0  0  0  0
   38.4990   27.8710   51.1100 N   0  0  0  0  0  0  0  0  0  0  0  0
   38.7890   27.3700   52.3470 C   0  0  0  0  0  0  0  0  0  0  0  0
   39.1730   26.4250   52.7160 H   0  0  0  0  0  0  0  0  0  0  0  0
   38.4940   28.3630   53.2390 N   0  0  0  0  0  0  0  0  0  0  0  0
   38.5680   28.3980   54.2800 H   0  0  0  0  0  0  0  0  0  0  0  0
   38.0450   29.4200   52.5870 N   0  0  0  0  0  0  0  0  0  0  0  0
  1  6  1  0  0  0  0
  1 12  1  0  0  0  0
  2  1  2  0  0  0  0
  3  4  2  0  0  0  0
  3  2  1  0  0  0  0
  4  5  1  0  0  0  0
  5 10  1  0  0  0  0
  5  6  2  0  0  0  0
  6 23  1  0  0  0  0
  7  2  1  0  0  0  0
  8  3  1  0  0  0  0
  9  4  1  0  0  0  0
 11 16  1  0  0  0  0
 12 13  1  0  0  0  0
 12 11  2  0  0  0  0
 13 14  2  0  0  0  0
 14 15  1  0  0  0  0
 15 18  1  0  0  0  0
 16 15  2  0  0  0  0
 17 11  1  0  0  0  0
 19 21  1  0  0  0  0
 19 20  1  0  0  0  0
 19 13  1  0  0  0  0
 22 19  1  0  0  0  0
 23 26  1  0  0  0  0
 25 24  1  0  0  0  0
 25 30  1  0  0  0  0
 26 25  2  0  0  0  0
 27 26  1  0  0  0  0
 27 28  2  0  0  0  0
 28 29  1  0  0  0  0
 29 30  2  0  0  0  0
 29 33  1  0  0  0  0
 30 34  1  0  0  0  0
 31 27  1  0  0  0  0
 32 28  1  0  0  0  0
 34 40  2  0  0  0  0
 35 34  1  0  0  0  0
 35 36  2  0  0  0  0
 36 37  1  0  0  0  0
 36 38  1  0  0  0  0
 38 39  1  0  0  0  0
 40 38  1  0  0  0  0
M  END
>  <minimizedAffinity>
-3.57128406

>  <minimizedRMSD>
0.826677561

$$$$
