
 OpenBabel03272501133D

 26 28  0  0  1  0  0  0  0  0999 V2000
   37.4250   26.5730   35.2860 C   0  0  1  0  0  0  0  0  0  0  0  0
   38.2340   25.4170   35.5870 C   0  0  1  0  0  0  0  0  0  0  0  0
   38.9320   26.7500   35.4610 C   0  0  0  0  0  0  0  0  0  0  0  0
   36.7890   27.0510   36.0690 H   0  0  0  0  0  0  0  0  0  0  0  0
   38.4950   24.7530   34.7060 H   0  0  0  0  0  0  0  0  0  0  0  0
   39.2150   27.2270   36.4200 H   0  0  0  0  0  0  0  0  0  0  0  0
   39.5460   27.0000   34.5890 H   0  0  0  0  0  0  0  0  0  0  0  0
   36.9830   26.8650   33.8650 C   0  0  0  0  0  0  0  0  0  0  0  0
   36.5040   28.1530   33.6240 C   0  0  0  0  0  0  0  0  0  0  0  0
   36.0820   28.3890   32.3150 C   0  0  0  0  0  0  0  0  0  0  0  0
   36.1500   27.4020   31.3670 N   0  0  0  0  0  0  0  0  0  0  0  0
   36.6280   26.1580   31.6610 C   0  0  0  0  0  0  0  0  0  0  0  0
   37.0490   25.8980   32.9360 N   0  0  0  0  0  0  0  0  0  0  0  0
   36.4660   28.9030   34.3990 H   0  0  0  0  0  0  0  0  0  0  0  0
   35.6970   29.3640   32.0460 H   0  0  0  0  0  0  0  0  0  0  0  0
   36.6680   25.4010   30.8890 H   0  0  0  0  0  0  0  0  0  0  0  0
   38.0800   24.7630   36.9310 C   0  0  0  0  0  0  0  0  0  0  0  0
   38.3360   25.5520   37.6940 H   0  0  0  0  0  0  0  0  0  0  0  0
   37.0220   24.4920   37.0790 H   0  0  0  0  0  0  0  0  0  0  0  0
   38.9930   23.6030   37.1270 C   0  0  0  0  0  0  0  0  0  0  0  0
   39.5510   23.0020   36.0390 N   0  0  0  0  0  0  0  0  0  0  0  0
   40.3060   22.0140   36.5330 C   0  0  0  0  0  0  0  0  0  0  0  0
   40.8860   21.3450   35.8960 H   0  0  0  0  0  0  0  0  0  0  0  0
   40.2060   22.0200   37.8820 N   0  0  0  0  0  0  0  0  0  0  0  0
   40.7520   21.2880   38.4260 H   0  0  0  0  0  0  0  0  0  0  0  0
   39.3940   23.0010   38.2650 N   0  0  0  0  0  0  0  0  0  0  0  0
  1  3  1  0  0  0  0
  1  2  1  0  0  0  0
  1  4  1  1  0  0  0
  2  5  1  6  0  0  0
  2 17  1  0  0  0  0
  3  2  1  0  0  0  0
  3  6  1  0  0  0  0
  7  3  1  0  0  0  0
  8  1  1  0  0  0  0
  9  8  1  0  0  0  0
  9 14  1  0  0  0  0
 10  9  2  0  0  0  0
 11 12  2  0  0  0  0
 11 10  1  0  0  0  0
 12 13  1  0  0  0  0
 13  8  2  0  0  0  0
 15 10  1  0  0  0  0
 16 12  1  0  0  0  0
 17 19  1  0  0  0  0
 17 20  1  0  0  0  0
 17 18  1  0  0  0  0
 20 26  2  0  0  0  0
 21 22  2  0  0  0  0
 21 20  1  0  0  0  0
 22 24  1  0  0  0  0
 23 22  1  0  0  0  0
 24 26  1  0  0  0  0
 24 25  1  0  0  0  0
M  END
>  <minimizedAffinity>
-4.72451544

$$$$

 OpenBabel03272501133D

 26 28  0  0  1  0  0  0  0  0999 V2000
   38.7300   26.3200   34.7520 C   0  0  1  0  0  0  0  0  0  0  0  0
   37.4320   26.8600   34.4240 C   0  0  1  0  0  0  0  0  0  0  0  0
   38.1820   27.4820   35.5780 C   0  0  0  0  0  0  0  0  0  0  0  0
   39.6240   26.5540   34.1260 H   0  0  0  0  0  0  0  0  0  0  0  0
   36.5410   26.2720   34.8070 H   0  0  0  0  0  0  0  0  0  0  0  0
   38.6670   28.4530   35.3560 H   0  0  0  0  0  0  0  0  0  0  0  0
   37.8890   27.3070   36.6180 H   0  0  0  0  0  0  0  0  0  0  0  0
   38.8620   25.0540   35.5750 C   0  0  0  0  0  0  0  0  0  0  0  0
   40.0620   24.3560   35.4390 C   0  0  0  0  0  0  0  0  0  0  0  0
   40.1490   23.1830   36.1890 C   0  0  0  0  0  0  0  0  0  0  0  0
   39.1100   22.7810   36.9870 N   0  0  0  0  0  0  0  0  0  0  0  0
   37.9570   23.5060   37.0800 C   0  0  0  0  0  0  0  0  0  0  0  0
   37.8440   24.6600   36.3570 N   0  0  0  0  0  0  0  0  0  0  0  0
   40.8570   24.7060   34.7980 H   0  0  0  0  0  0  0  0  0  0  0  0
   41.0490   22.5830   36.1390 H   0  0  0  0  0  0  0  0  0  0  0  0
   37.1560   23.1600   37.7190 H   0  0  0  0  0  0  0  0  0  0  0  0
   37.2700   27.6060   33.1300 C   0  0  0  0  0  0  0  0  0  0  0  0
   36.6420   28.5110   33.3670 H   0  0  0  0  0  0  0  0  0  0  0  0
   38.2570   27.9670   32.7980 H   0  0  0  0  0  0  0  0  0  0  0  0
   36.5750   26.8130   32.0780 C   0  0  0  0  0  0  0  0  0  0  0  0
   36.4270   25.4680   32.2460 N   0  0  0  0  0  0  0  0  0  0  0  0
   35.7770   25.0490   31.1550 C   0  0  0  0  0  0  0  0  0  0  0  0
   35.5090   24.0030   30.9980 H   0  0  0  0  0  0  0  0  0  0  0  0
   35.5380   26.1120   30.3520 N   0  0  0  0  0  0  0  0  0  0  0  0
   35.0250   25.9400   29.4380 H   0  0  0  0  0  0  0  0  0  0  0  0
   36.0290   27.2130   30.9130 N   0  0  0  0  0  0  0  0  0  0  0  0
  1  4  1  6  0  0  0
  1  8  1  0  0  0  0
  1  3  1  0  0  0  0
  2  1  1  0  0  0  0
  2  5  1  1  0  0  0
  2  3  1  0  0  0  0
  3  7  1  0  0  0  0
  6  3  1  0  0  0  0
  8 13  1  0  0  0  0
  9  8  2  0  0  0  0
  9 10  1  0  0  0  0
 10 11  2  0  0  0  0
 11 12  1  0  0  0  0
 12 16  1  0  0  0  0
 13 12  2  0  0  0  0
 14  9  1  0  0  0  0
 15 10  1  0  0  0  0
 17 18  1  0  0  0  0
 17  2  1  0  0  0  0
 19 17  1  0  0  0  0
 20 21  1  0  0  0  0
 20 17  1  0  0  0  0
 22 21  2  0  0  0  0
 23 22  1  0  0  0  0
 24 26  1  0  0  0  0
 24 22  1  0  0  0  0
 25 24  1  0  0  0  0
 26 20  2  0  0  0  0
M  END
>  <minimizedAffinity>
-4.43963337

$$$$

 OpenBabel03272501133D

 26 28  0  0  1  0  0  0  0  0999 V2000
   38.6450   26.2330   34.3320 C   0  0  1  0  0  0  0  0  0  0  0  0
   38.6320   26.1110   35.7700 C   0  0  1  0  0  0  0  0  0  0  0  0
   38.0100   27.3460   35.1630 C   0  0  0  0  0  0  0  0  0  0  0  0
   37.9410   25.6420   33.6980 H   0  0  0  0  0  0  0  0  0  0  0  0
   39.5990   26.3790   36.2980 H   0  0  0  0  0  0  0  0  0  0  0  0
   36.9020   27.3480   35.1300 H   0  0  0  0  0  0  0  0  0  0  0  0
   38.5010   28.3230   35.2110 H   0  0  0  0  0  0  0  0  0  0  0  0
   39.8850   26.7100   33.6020 C   0  0  0  0  0  0  0  0  0  0  0  0
   41.0600   26.7550   34.3540 C   0  0  0  0  0  0  0  0  0  0  0  0
   42.1810   27.2190   33.6660 C   0  0  0  0  0  0  0  0  0  0  0  0
   42.0940   27.5940   32.3510 N   0  0  0  0  0  0  0  0  0  0  0  0
   40.9140   27.5280   31.6650 C   0  0  0  0  0  0  0  0  0  0  0  0
   39.7990   27.0770   32.3140 N   0  0  0  0  0  0  0  0  0  0  0  0
   41.0880   26.4520   35.3890 H   0  0  0  0  0  0  0  0  0  0  0  0
   43.1330   27.2840   34.1780 H   0  0  0  0  0  0  0  0  0  0  0  0
   40.8790   27.8320   30.6280 H   0  0  0  0  0  0  0  0  0  0  0  0
   37.7690   25.0510   36.3930 C   0  0  0  0  0  0  0  0  0  0  0  0
   37.0980   25.5840   37.1250 H   0  0  0  0  0  0  0  0  0  0  0  0
   37.1250   24.6090   35.6160 H   0  0  0  0  0  0  0  0  0  0  0  0
   38.5490   24.0200   37.1350 C   0  0  0  0  0  0  0  0  0  0  0  0
   39.6370   23.4540   36.5410 N   0  0  0  0  0  0  0  0  0  0  0  0
   40.1130   22.5850   37.4410 C   0  0  0  0  0  0  0  0  0  0  0  0
   40.9950   21.9700   37.2530 H   0  0  0  0  0  0  0  0  0  0  0  0
   39.3330   22.6280   38.5460 N   0  0  0  0  0  0  0  0  0  0  0  0
   39.5840   21.9890   39.3580 H   0  0  0  0  0  0  0  0  0  0  0  0
   38.3570   23.5140   38.3700 N   0  0  0  0  0  0  0  0  0  0  0  0
  1  4  1  6  0  0  0
  1  3  1  0  0  0  0
  1  2  1  0  0  0  0
  2  5  1  1  0  0  0
  2 17  1  0  0  0  0
  3  7  1  0  0  0  0
  3  2  1  0  0  0  0
  6  3  1  0  0  0  0
  8  1  1  0  0  0  0
  8  9  1  0  0  0  0
  9 14  1  0  0  0  0
 10 15  1  0  0  0  0
 10  9  2  0  0  0  0
 11 10  1  0  0  0  0
 12 13  1  0  0  0  0
 12 11  2  0  0  0  0
 13  8  2  0  0  0  0
 16 12  1  0  0  0  0
 17 18  1  0  0  0  0
 17 20  1  0  0  0  0
 19 17  1  0  0  0  0
 20 26  2  0  0  0  0
 21 20  1  0  0  0  0
 21 22  2  0  0  0  0
 22 24  1  0  0  0  0
 23 22  1  0  0  0  0
 24 25  1  0  0  0  0
 26 24  1  0  0  0  0
M  END
>  <minimizedAffinity>
-4.39066792

$$$$

 OpenBabel03272501133D

 26 28  0  0  1  0  0  0  0  0999 V2000
   38.4470   26.1010   33.6310 C   0  0  1  0  0  0  0  0  0  0  0  0
   38.1960   25.1360   34.6750 C   0  0  1  0  0  0  0  0  0  0  0  0
   37.7750   24.7780   33.2700 C   0  0  0  0  0  0  0  0  0  0  0  0
   39.4740   26.2480   33.2190 H   0  0  0  0  0  0  0  0  0  0  0  0
   37.2840   25.3320   35.3200 H   0  0  0  0  0  0  0  0  0  0  0  0
   38.4440   24.0680   32.7440 H   0  0  0  0  0  0  0  0  0  0  0  0
   36.7230   24.7790   32.9640 H   0  0  0  0  0  0  0  0  0  0  0  0
   37.5200   27.2820   33.4220 C   0  0  0  0  0  0  0  0  0  0  0  0
   36.8060   27.7060   34.5430 C   0  0  0  0  0  0  0  0  0  0  0  0
   35.9430   28.7790   34.3190 C   0  0  0  0  0  0  0  0  0  0  0  0
   35.8330   29.3450   33.0760 N   0  0  0  0  0  0  0  0  0  0  0  0
   36.5580   28.8860   32.0140 C   0  0  0  0  0  0  0  0  0  0  0  0
   37.4130   27.8360   32.2050 N   0  0  0  0  0  0  0  0  0  0  0  0
   36.9190   27.2330   35.5070 H   0  0  0  0  0  0  0  0  0  0  0  0
   35.3520   29.1690   35.1390 H   0  0  0  0  0  0  0  0  0  0  0  0
   36.4480   29.3550   31.0460 H   0  0  0  0  0  0  0  0  0  0  0  0
   39.3690   24.4510   35.3170 C   0  0  0  0  0  0  0  0  0  0  0  0
   39.6740   23.6280   34.6110 H   0  0  0  0  0  0  0  0  0  0  0  0
   40.2090   25.1610   35.3810 H   0  0  0  0  0  0  0  0  0  0  0  0
   39.0420   23.8420   36.6370 C   0  0  0  0  0  0  0  0  0  0  0  0
   37.8930   24.2080   37.2740 N   0  0  0  0  0  0  0  0  0  0  0  0
   37.8840   23.5030   38.4110 C   0  0  0  0  0  0  0  0  0  0  0  0
   37.0780   23.5810   39.1420 H   0  0  0  0  0  0  0  0  0  0  0  0
   38.9960   22.7330   38.4570 N   0  0  0  0  0  0  0  0  0  0  0  0
   39.1350   22.1090   39.3060 H   0  0  0  0  0  0  0  0  0  0  0  0
   39.7240   22.9330   37.3630 N   0  0  0  0  0  0  0  0  0  0  0  0
  1  4  1  6  0  0  0
  1  2  1  0  0  0  0
  2 17  1  0  0  0  0
  2  5  1  1  0  0  0
  3  1  1  0  0  0  0
  3  2  1  0  0  0  0
  6  3  1  0  0  0  0
  7  3  1  0  0  0  0
  8  1  1  0  0  0  0
  8  9  1  0  0  0  0
  9 14  1  0  0  0  0
 10  9  2  0  0  0  0
 10 15  1  0  0  0  0
 11 10  1  0  0  0  0
 12 13  1  0  0  0  0
 12 11  2  0  0  0  0
 13  8  2  0  0  0  0
 16 12  1  0  0  0  0
 17 19  1  0  0  0  0
 17 20  1  0  0  0  0
 18 17  1  0  0  0  0
 20 21  1  0  0  0  0
 20 26  2  0  0  0  0
 21 22  2  0  0  0  0
 22 24  1  0  0  0  0
 22 23  1  0  0  0  0
 24 25  1  0  0  0  0
 26 24  1  0  0  0  0
M  END
>  <minimizedAffinity>
-4.33379698

$$$$

 OpenBabel03272501133D

 26 28  0  0  1  0  0  0  0  0999 V2000
   37.1470   26.8330   34.9970 C   0  0  1  0  0  0  0  0  0  0  0  0
   38.3010   26.0650   35.4020 C   0  0  1  0  0  0  0  0  0  0  0  0
   38.3730   27.5670   35.5370 C   0  0  0  0  0  0  0  0  0  0  0  0
   36.2350   26.8820   35.6370 H   0  0  0  0  0  0  0  0  0  0  0  0
   38.9800   25.7140   34.5650 H   0  0  0  0  0  0  0  0  0  0  0  0
   38.2400   27.9550   36.5670 H   0  0  0  0  0  0  0  0  0  0  0  0
   38.9720   28.1810   34.8560 H   0  0  0  0  0  0  0  0  0  0  0  0
   36.8970   27.1500   33.5350 C   0  0  0  0  0  0  0  0  0  0  0  0
   37.2680   26.1630   32.6220 C   0  0  0  0  0  0  0  0  0  0  0  0
   37.0490   26.4880   31.2830 C   0  0  0  0  0  0  0  0  0  0  0  0
   36.5080   27.6980   30.9330 N   0  0  0  0  0  0  0  0  0  0  0  0
   36.1650   28.6270   31.8730 C   0  0  0  0  0  0  0  0  0  0  0  0
   36.3680   28.3350   33.1930 N   0  0  0  0  0  0  0  0  0  0  0  0
   37.6920   25.2220   32.9370 H   0  0  0  0  0  0  0  0  0  0  0  0
   37.3090   25.7750   30.5110 H   0  0  0  0  0  0  0  0  0  0  0  0
   35.7410   29.5720   31.5630 H   0  0  0  0  0  0  0  0  0  0  0  0
   38.1910   25.1950   36.6220 C   0  0  0  0  0  0  0  0  0  0  0  0
   39.2040   25.2190   37.1150 H   0  0  0  0  0  0  0  0  0  0  0  0
   37.4720   25.6480   37.3230 H   0  0  0  0  0  0  0  0  0  0  0  0
   37.8550   23.7790   36.3040 C   0  0  0  0  0  0  0  0  0  0  0  0
   38.1890   23.2720   35.0840 N   0  0  0  0  0  0  0  0  0  0  0  0
   37.7630   22.0040   35.1030 C   0  0  0  0  0  0  0  0  0  0  0  0
   37.8890   21.3300   34.2540 H   0  0  0  0  0  0  0  0  0  0  0  0
   37.1900   21.7530   36.3030 N   0  0  0  0  0  0  0  0  0  0  0  0
   36.7990   20.7800   36.4750 H   0  0  0  0  0  0  0  0  0  0  0  0
   37.2400   22.8460   37.0590 N   0  0  0  0  0  0  0  0  0  0  0  0
  1  2  1  0  0  0  0
  1  3  1  0  0  0  0
  1  4  1  1  0  0  0
  2  5  1  6  0  0  0
  2  3  1  0  0  0  0
  2 17  1  0  0  0  0
  3  6  1  0  0  0  0
  7  3  1  0  0  0  0
  8  1  1  0  0  0  0
  9 14  1  0  0  0  0
  9  8  2  0  0  0  0
 10  9  1  0  0  0  0
 11 10  2  0  0  0  0
 11 12  1  0  0  0  0
 12 13  2  0  0  0  0
 13  8  1  0  0  0  0
 15 10  1  0  0  0  0
 16 12  1  0  0  0  0
 17 18  1  0  0  0  0
 17 19  1  0  0  0  0
 20 17  1  0  0  0  0
 20 26  2  0  0  0  0
 21 22  2  0  0  0  0
 21 20  1  0  0  0  0
 22 24  1  0  0  0  0
 23 22  1  0  0  0  0
 24 25  1  0  0  0  0
 24 26  1  0  0  0  0
M  END
>  <minimizedAffinity>
-4.29877615

$$$$

 OpenBabel03272501133D

 26 28  0  0  1  0  0  0  0  0999 V2000
   38.7600   25.6210   34.9310 C   0  0  1  0  0  0  0  0  0  0  0  0
   37.8350   26.7240   34.8230 C   0  0  1  0  0  0  0  0  0  0  0  0
   39.2580   27.0350   35.2230 C   0  0  0  0  0  0  0  0  0  0  0  0
   39.1890   25.1380   34.0210 H   0  0  0  0  0  0  0  0  0  0  0  0
   37.1380   26.8720   35.7050 H   0  0  0  0  0  0  0  0  0  0  0  0
   39.8910   27.4590   34.4200 H   0  0  0  0  0  0  0  0  0  0  0  0
   39.5220   27.3070   36.2510 H   0  0  0  0  0  0  0  0  0  0  0  0
   38.7870   24.7450   36.1690 C   0  0  0  0  0  0  0  0  0  0  0  0
   39.6900   23.6820   36.1480 C   0  0  0  0  0  0  0  0  0  0  0  0
   39.6790   22.8780   37.2880 C   0  0  0  0  0  0  0  0  0  0  0  0
   38.8290   23.1470   38.3290 N   0  0  0  0  0  0  0  0  0  0  0  0
   37.9650   24.2040   38.2930 C   0  0  0  0  0  0  0  0  0  0  0  0
   37.9540   25.0090   37.1880 N   0  0  0  0  0  0  0  0  0  0  0  0
   40.3430   23.5030   35.3080 H   0  0  0  0  0  0  0  0  0  0  0  0
   40.3510   22.0320   37.3510 H   0  0  0  0  0  0  0  0  0  0  0  0
   37.3070   24.3880   39.1310 H   0  0  0  0  0  0  0  0  0  0  0  0
   37.3270   27.1030   33.4610 C   0  0  0  0  0  0  0  0  0  0  0  0
   38.2180   27.4910   32.8920 H   0  0  0  0  0  0  0  0  0  0  0  0
   36.9730   26.1970   32.9440 H   0  0  0  0  0  0  0  0  0  0  0  0
   36.2900   28.1730   33.5000 C   0  0  0  0  0  0  0  0  0  0  0  0
   35.4880   28.3630   32.4140 N   0  0  0  0  0  0  0  0  0  0  0  0
   34.6780   29.3730   32.7500 C   0  0  0  0  0  0  0  0  0  0  0  0
   33.9130   29.7600   32.0760 H   0  0  0  0  0  0  0  0  0  0  0  0
   34.9840   29.7800   34.0040 N   0  0  0  0  0  0  0  0  0  0  0  0
   34.4230   30.5830   34.4180 H   0  0  0  0  0  0  0  0  0  0  0  0
   35.9830   29.0440   34.4820 N   0  0  0  0  0  0  0  0  0  0  0  0
  1  4  1  6  0  0  0
  1  3  1  0  0  0  0
  1  8  1  0  0  0  0
  2  1  1  0  0  0  0
  2  3  1  0  0  0  0
  2  5  1  1  0  0  0
  3  7  1  0  0  0  0
  6  3  1  0  0  0  0
  8 13  1  0  0  0  0
  9  8  2  0  0  0  0
  9 10  1  0  0  0  0
 10 15  1  0  0  0  0
 10 11  2  0  0  0  0
 12 11  1  0  0  0  0
 12 16  1  0  0  0  0
 13 12  2  0  0  0  0
 14  9  1  0  0  0  0
 17 20  1  0  0  0  0
 17  2  1  0  0  0  0
 18 17  1  0  0  0  0
 19 17  1  0  0  0  0
 20 26  2  0  0  0  0
 21 22  2  0  0  0  0
 21 20  1  0  0  0  0
 22 24  1  0  0  0  0
 23 22  1  0  0  0  0
 24 25  1  0  0  0  0
 24 26  1  0  0  0  0
M  END
>  <minimizedAffinity>
-4.23236942

$$$$

 OpenBabel03272501133D

 26 28  0  0  1  0  0  0  0  0999 V2000
   37.4900   22.8260   33.0850 C   0  0  1  0  0  0  0  0  0  0  0  0
   38.3940   22.7180   34.2050 C   0  0  1  0  0  0  0  0  0  0  0  0
   38.9910   22.7360   32.8170 C   0  0  0  0  0  0  0  0  0  0  0  0
   37.0110   23.8000   32.8240 H   0  0  0  0  0  0  0  0  0  0  0  0
   38.4950   21.6840   34.6610 H   0  0  0  0  0  0  0  0  0  0  0  0
   39.4460   23.6980   32.5120 H   0  0  0  0  0  0  0  0  0  0  0  0
   39.3970   21.8310   32.3510 H   0  0  0  0  0  0  0  0  0  0  0  0
   36.7480   21.6110   32.5630 C   0  0  0  0  0  0  0  0  0  0  0  0
   36.1060   20.8260   33.5210 C   0  0  0  0  0  0  0  0  0  0  0  0
   35.4500   19.7020   33.0180 C   0  0  0  0  0  0  0  0  0  0  0  0
   35.4610   19.4250   31.6760 N   0  0  0  0  0  0  0  0  0  0  0  0
   36.1080   20.2310   30.7830 C   0  0  0  0  0  0  0  0  0  0  0  0
   36.7580   21.3400   31.2480 N   0  0  0  0  0  0  0  0  0  0  0  0
   36.1210   21.0780   34.5700 H   0  0  0  0  0  0  0  0  0  0  0  0
   34.9260   19.0410   33.6960 H   0  0  0  0  0  0  0  0  0  0  0  0
   36.0970   19.9830   29.7310 H   0  0  0  0  0  0  0  0  0  0  0  0
   38.5530   23.9010   35.1170 C   0  0  0  0  0  0  0  0  0  0  0  0
   39.4690   24.4510   34.7580 H   0  0  0  0  0  0  0  0  0  0  0  0
   37.6910   24.5740   34.9850 H   0  0  0  0  0  0  0  0  0  0  0  0
   38.7600   23.5190   36.5420 C   0  0  0  0  0  0  0  0  0  0  0  0
   37.9220   24.0170   37.4940 N   0  0  0  0  0  0  0  0  0  0  0  0
   38.3580   23.5010   38.6490 C   0  0  0  0  0  0  0  0  0  0  0  0
   37.8810   23.7190   39.6050 H   0  0  0  0  0  0  0  0  0  0  0  0
   39.4290   22.7120   38.3980 N   0  0  0  0  0  0  0  0  0  0  0  0
   39.8930   22.2260   39.2220 H   0  0  0  0  0  0  0  0  0  0  0  0
   39.6910   22.7150   37.0950 N   0  0  0  0  0  0  0  0  0  0  0  0
  1  4  1  6  0  0  0
  1  2  1  0  0  0  0
  2  5  1  1  0  0  0
  2 17  1  0  0  0  0
  3  1  1  0  0  0  0
  3  2  1  0  0  0  0
  6  3  1  0  0  0  0
  7  3  1  0  0  0  0
  8  1  1  0  0  0  0
  8  9  1  0  0  0  0
  9 14  1  0  0  0  0
 10  9  2  0  0  0  0
 10 15  1  0  0  0  0
 11 10  1  0  0  0  0
 12 13  1  0  0  0  0
 12 11  2  0  0  0  0
 13  8  2  0  0  0  0
 16 12  1  0  0  0  0
 17 20  1  0  0  0  0
 18 17  1  0  0  0  0
 19 17  1  0  0  0  0
 20 26  2  0  0  0  0
 20 21  1  0  0  0  0
 21 22  2  0  0  0  0
 22 23  1  0  0  0  0
 24 22  1  0  0  0  0
 24 25  1  0  0  0  0
 26 24  1  0  0  0  0
M  END
>  <minimizedAffinity>
-4.22438574

$$$$

 OpenBabel03272501133D

 26 28  0  0  1  0  0  0  0  0999 V2000
   39.1260   25.4610   34.6850 C   0  0  1  0  0  0  0  0  0  0  0  0
   38.3960   26.7020   34.5770 C   0  0  1  0  0  0  0  0  0  0  0  0
   39.8590   26.7750   34.9470 C   0  0  0  0  0  0  0  0  0  0  0  0
   39.4490   24.9030   33.7740 H   0  0  0  0  0  0  0  0  0  0  0  0
   37.7520   26.9750   35.4700 H   0  0  0  0  0  0  0  0  0  0  0  0
   40.5370   27.0770   34.1260 H   0  0  0  0  0  0  0  0  0  0  0  0
   40.1860   27.0110   35.9660 H   0  0  0  0  0  0  0  0  0  0  0  0
   39.0310   24.6080   35.9340 C   0  0  0  0  0  0  0  0  0  0  0  0
   38.0030   24.9300   36.8210 C   0  0  0  0  0  0  0  0  0  0  0  0
   37.9520   24.1450   37.9730 C   0  0  0  0  0  0  0  0  0  0  0  0
   38.8630   23.1430   38.1810 N   0  0  0  0  0  0  0  0  0  0  0  0
   39.8500   22.8730   37.2770 C   0  0  0  0  0  0  0  0  0  0  0  0
   39.9240   23.6260   36.1380 N   0  0  0  0  0  0  0  0  0  0  0  0
   37.3050   25.7290   36.6210 H   0  0  0  0  0  0  0  0  0  0  0  0
   37.1830   24.3310   38.7120 H   0  0  0  0  0  0  0  0  0  0  0  0
   40.5530   22.0740   37.4720 H   0  0  0  0  0  0  0  0  0  0  0  0
   37.9300   27.1460   33.2200 C   0  0  0  0  0  0  0  0  0  0  0  0
   38.7590   27.7820   32.7980 H   0  0  0  0  0  0  0  0  0  0  0  0
   37.8280   26.2620   32.5690 H   0  0  0  0  0  0  0  0  0  0  0  0
   36.6850   27.9620   33.2650 C   0  0  0  0  0  0  0  0  0  0  0  0
   36.3120   28.5450   34.4390 N   0  0  0  0  0  0  0  0  0  0  0  0
   35.1770   29.1960   34.1610 C   0  0  0  0  0  0  0  0  0  0  0  0
   34.6300   29.7680   34.9130 H   0  0  0  0  0  0  0  0  0  0  0  0
   34.8750   29.0110   32.8550 N   0  0  0  0  0  0  0  0  0  0  0  0
   33.9940   29.4700   32.4780 H   0  0  0  0  0  0  0  0  0  0  0  0
   35.8020   28.2470   32.2860 N   0  0  0  0  0  0  0  0  0  0  0  0
  1  4  1  6  0  0  0
  1  3  1  0  0  0  0
  1  8  1  0  0  0  0
  2  1  1  0  0  0  0
  2  3  1  0  0  0  0
  2  5  1  1  0  0  0
  3  7  1  0  0  0  0
  6  3  1  0  0  0  0
  8 13  2  0  0  0  0
  8  9  1  0  0  0  0
  9 10  2  0  0  0  0
 10 11  1  0  0  0  0
 10 15  1  0  0  0  0
 12 16  1  0  0  0  0
 12 11  2  0  0  0  0
 13 12  1  0  0  0  0
 14  9  1  0  0  0  0
 17 20  1  0  0  0  0
 17  2  1  0  0  0  0
 18 17  1  0  0  0  0
 19 17  1  0  0  0  0
 20 21  1  0  0  0  0
 22 21  2  0  0  0  0
 22 23  1  0  0  0  0
 24 22  1  0  0  0  0
 25 24  1  0  0  0  0
 26 24  1  0  0  0  0
 26 20  2  0  0  0  0
M  END
>  <minimizedAffinity>
-4.19856739

$$$$

 OpenBabel03272501133D

 26 28  0  0  1  0  0  0  0  0999 V2000
   35.9190   29.3020   34.1050 C   0  0  1  0  0  0  0  0  0  0  0  0
   35.6020   30.6470   34.5220 C   0  0  1  0  0  0  0  0  0  0  0  0
   34.4630   29.6630   34.3940 C   0  0  0  0  0  0  0  0  0  0  0  0
   36.3850   28.5760   34.8120 H   0  0  0  0  0  0  0  0  0  0  0  0
   35.5460   31.4210   33.6950 H   0  0  0  0  0  0  0  0  0  0  0  0
   34.0850   29.2530   35.3510 H   0  0  0  0  0  0  0  0  0  0  0  0
   33.7500   29.7100   33.5640 H   0  0  0  0  0  0  0  0  0  0  0  0
   36.1400   28.9720   32.6420 C   0  0  0  0  0  0  0  0  0  0  0  0
   36.1960   27.6160   32.3200 C   0  0  0  0  0  0  0  0  0  0  0  0
   36.4230   27.3390   30.9720 C   0  0  0  0  0  0  0  0  0  0  0  0
   36.5750   28.3530   30.0630 N   0  0  0  0  0  0  0  0  0  0  0  0
   36.5110   29.6650   30.4360 C   0  0  0  0  0  0  0  0  0  0  0  0
   36.2890   29.9660   31.7510 N   0  0  0  0  0  0  0  0  0  0  0  0
   36.0720   26.8460   33.0670 H   0  0  0  0  0  0  0  0  0  0  0  0
   36.4790   26.3100   30.6400 H   0  0  0  0  0  0  0  0  0  0  0  0
   36.6350   30.4410   29.6930 H   0  0  0  0  0  0  0  0  0  0  0  0
   36.0620   31.1070   35.8760 C   0  0  0  0  0  0  0  0  0  0  0  0
   36.1380   30.1790   36.5120 H   0  0  0  0  0  0  0  0  0  0  0  0
   37.0760   31.5300   35.7860 H   0  0  0  0  0  0  0  0  0  0  0  0
   35.1120   32.0500   36.5300 C   0  0  0  0  0  0  0  0  0  0  0  0
   35.3180   33.3920   36.4130 N   0  0  0  0  0  0  0  0  0  0  0  0
   34.3170   33.9600   37.0950 C   0  0  0  0  0  0  0  0  0  0  0  0
   34.2090   35.0420   37.1850 H   0  0  0  0  0  0  0  0  0  0  0  0
   33.5290   32.9870   37.6070 N   0  0  0  0  0  0  0  0  0  0  0  0
   32.6830   33.2810   38.1800 H   0  0  0  0  0  0  0  0  0  0  0  0
   34.0110   31.7960   37.2650 N   0  0  0  0  0  0  0  0  0  0  0  0
  1  3  1  0  0  0  0
  1  2  1  0  0  0  0
  1  4  1  1  0  0  0
  2  5  1  6  0  0  0
  2 17  1  0  0  0  0
  3  2  1  0  0  0  0
  3  6  1  0  0  0  0
  7  3  1  0  0  0  0
  8  1  1  0  0  0  0
  9  8  1  0  0  0  0
  9 14  1  0  0  0  0
 10  9  2  0  0  0  0
 11 12  2  0  0  0  0
 11 10  1  0  0  0  0
 12 13  1  0  0  0  0
 13  8  2  0  0  0  0
 15 10  1  0  0  0  0
 16 12  1  0  0  0  0
 17 18  1  0  0  0  0
 17 20  1  0  0  0  0
 19 17  1  0  0  0  0
 20 26  2  0  0  0  0
 21 20  1  0  0  0  0
 21 22  2  0  0  0  0
 22 23  1  0  0  0  0
 22 24  1  0  0  0  0
 24 25  1  0  0  0  0
 26 24  1  0  0  0  0
M  END
>  <minimizedAffinity>
-4.05936813

$$$$
