
 OpenBabel03272510243D

 30 33  0  0  0  0  0  0  0  0999 V2000
   36.2250   30.2020   46.8450 C   0  0  0  0  0  0  0  0  0  0  0  0
   37.0930   30.7650   47.7870 C   0  0  0  0  0  0  0  0  0  0  0  0
   38.0740   31.6480   47.3990 C   0  0  0  0  0  0  0  0  0  0  0  0
   38.1470   31.9430   46.0290 C   0  0  0  0  0  0  0  0  0  0  0  0
   39.0360   32.7870   45.4280 N   0  0  0  0  0  0  0  0  0  0  0  0
   38.7440   32.7670   44.1310 C   0  0  0  0  0  0  0  0  0  0  0  0
   37.7090   31.9460   43.8850 N   0  0  0  0  0  0  0  0  0  0  0  0
   37.3160   31.4150   45.0750 C   0  0  0  0  0  0  0  0  0  0  0  0
   36.3330   30.5230   45.4940 C   0  0  0  0  0  0  0  0  0  0  0  0
   35.4260   29.4940   47.0900 H   0  0  0  0  0  0  0  0  0  0  0  0
   38.7390   32.0800   48.1170 H   0  0  0  0  0  0  0  0  0  0  0  0
   39.8000   33.3400   45.9160 H   0  0  0  0  0  0  0  0  0  0  0  0
   35.6720   30.1010   44.7460 H   0  0  0  0  0  0  0  0  0  0  0  0
   37.5230   30.1820   51.4770 C   0  0  0  0  0  0  0  0  0  0  0  0
   37.8020   30.6060   50.1820 C   0  0  0  0  0  0  0  0  0  0  0  0
   36.8940   30.3630   49.1660 C   0  0  0  0  0  0  0  0  0  0  0  0
   35.7480   29.7040   49.5000 N   0  0  0  0  0  0  0  0  0  0  0  0
   35.4890   29.2950   50.7680 C   0  0  0  0  0  0  0  0  0  0  0  0
   36.3590   29.5300   51.7340 N   0  0  0  0  0  0  0  0  0  0  0  0
   38.3010   30.4250   52.1930 H   0  0  0  0  0  0  0  0  0  0  0  0
   38.7090   31.1300   49.9130 H   0  0  0  0  0  0  0  0  0  0  0  0
   34.5480   28.7700   50.9700 H   0  0  0  0  0  0  0  0  0  0  0  0
   39.4360   33.5080   43.1690 O   0  0  0  0  0  0  0  0  0  0  0  0
   39.0710   33.3020   41.8450 C   0  0  0  0  0  0  0  0  0  0  0  0
   39.4090   32.2460   41.0830 N   0  0  0  0  0  0  0  0  0  0  0  0
   38.8780   32.3790   39.8490 C   0  0  0  0  0  0  0  0  0  0  0  0
   38.8640   31.8200   38.9230 H   0  0  0  0  0  0  0  0  0  0  0  0
   38.1980   33.5620   39.8810 N   0  0  0  0  0  0  0  0  0  0  0  0
   37.6140   34.1420   39.2100 H   0  0  0  0  0  0  0  0  0  0  0  0
   38.3170   34.1060   41.0690 N   0  0  0  0  0  0  0  0  0  0  0  0
  1 10  1  0  0  0  0
  1  2  1  0  0  0  0
  2 16  1  0  0  0  0
  3  2  2  0  0  0  0
  3 11  1  0  0  0  0
  4  3  1  0  0  0  0
  5 12  1  0  0  0  0
  5  4  1  0  0  0  0
  6  5  1  0  0  0  0
  7  6  2  0  0  0  0
  7  8  1  0  0  0  0
  8  9  1  0  0  0  0
  8  4  2  0  0  0  0
  9  1  2  0  0  0  0
 13  9  1  0  0  0  0
 14 19  1  0  0  0  0
 14 20  1  0  0  0  0
 15 14  2  0  0  0  0
 16 17  2  0  0  0  0
 16 15  1  0  0  0  0
 17 18  1  0  0  0  0
 18 22  1  0  0  0  0
 18 19  2  0  0  0  0
 21 15  1  0  0  0  0
 23  6  1  0  0  0  0
 24 23  1  0  0  0  0
 25 24  1  0  0  0  0
 26 28  1  0  0  0  0
 26 25  2  0  0  0  0
 27 26  1  0  0  0  0
 28 30  1  0  0  0  0
 29 28  1  0  0  0  0
 30 24  2  0  0  0  0
M  END
>  <minimizedAffinity>
-5.57045555

>  <minimizedRMSD>
1.24167538

$$$$
