
 OpenBabel03262520123D

 40 42  0  0  0  0  0  0  0  0999 V2000
   34.9410   29.6540   48.5700 C   0  0  0  0  0  0  0  0  0  0  0  0
   35.4860   28.7340   48.9250 H   0  0  0  0  0  0  0  0  0  0  0  0
   35.1690   30.4780   49.2790 H   0  0  0  0  0  0  0  0  0  0  0  0
   37.8650   30.8600   48.5980 Br  0  0  0  0  0  0  0  0  0  0  0  0
   36.7590   30.5210   47.0530 C   0  0  0  0  0  0  0  0  0  0  0  0
   37.2170   30.8080   45.7890 C   0  0  0  0  0  0  0  0  0  0  0  0
   36.3860   30.5480   44.7410 C   0  0  0  0  0  0  0  0  0  0  0  0
   35.1190   30.0150   44.9100 C   0  0  0  0  0  0  0  0  0  0  0  0
   34.6870   29.7370   46.2080 C   0  0  0  0  0  0  0  0  0  0  0  0
   35.5170   29.9940   47.2680 C   0  0  0  0  0  0  0  0  0  0  0  0
   36.7980   30.7940   43.7510 H   0  0  0  0  0  0  0  0  0  0  0  0
   34.5970   29.8730   43.9900 H   0  0  0  0  0  0  0  0  0  0  0  0
   33.6960   29.3530   46.1340 H   0  0  0  0  0  0  0  0  0  0  0  0
   39.8200   33.2950   45.1950 C   0  0  0  0  0  0  0  0  0  0  0  0
   41.0210   32.5350   45.1790 C   0  0  0  0  0  0  0  0  0  0  0  0
   40.8970   31.1790   45.3750 C   0  0  0  0  0  0  0  0  0  0  0  0
   39.6550   30.6140   45.5730 N   0  0  0  0  0  0  0  0  0  0  0  0
   38.5510   31.3810   45.5790 C   0  0  0  0  0  0  0  0  0  0  0  0
   38.6470   32.7060   45.3900 N   0  0  0  0  0  0  0  0  0  0  0  0
   39.8150   34.3610   45.0520 H   0  0  0  0  0  0  0  0  0  0  0  0
   41.9620   33.0420   45.0170 H   0  0  0  0  0  0  0  0  0  0  0  0
   41.8010   30.5900   45.3650 H   0  0  0  0  0  0  0  0  0  0  0  0
   33.4850   29.3450   48.5920 C   0  0  0  0  0  0  0  0  0  0  0  0
   33.0700   30.0250   49.3990 H   0  0  0  0  0  0  0  0  0  0  0  0
   33.0470   29.7040   47.6850 H   0  0  0  0  0  0  0  0  0  0  0  0
   33.2640   28.0320   49.0510 N   0  0  0  0  0  0  0  0  0  0  0  0
   32.8760   27.9230   50.0000 H   0  0  0  0  0  0  0  0  0  0  0  0
   32.5990   27.1360   48.1680 C   0  0  0  0  0  0  0  0  0  0  0  0
   32.4090   26.1370   48.6410 H   0  0  0  0  0  0  0  0  0  0  0  0
   33.1780   26.9330   47.2500 H   0  0  0  0  0  0  0  0  0  0  0  0
   31.3040   27.7530   47.7750 C   0  0  0  0  0  0  0  0  0  0  0  0
   31.2780   28.6630   47.2150 H   0  0  0  0  0  0  0  0  0  0  0  0
   30.8910   26.9920   47.0190 H   0  0  0  0  0  0  0  0  0  0  0  0
   30.2660   27.6700   48.8440 C   0  0  0  0  0  0  0  0  0  0  0  0
   29.1040   27.0520   48.5660 N   0  0  0  0  0  0  0  0  0  0  0  0
   28.3390   27.1110   49.6910 C   0  0  0  0  0  0  0  0  0  0  0  0
   27.3420   26.7140   49.8280 H   0  0  0  0  0  0  0  0  0  0  0  0
   29.0740   27.7640   50.6060 N   0  0  0  0  0  0  0  0  0  0  0  0
   28.7650   27.9700   51.5720 H   0  0  0  0  0  0  0  0  0  0  0  0
   30.2550   28.1120   50.1000 N   0  0  0  0  0  0  0  0  0  0  0  0
  1 23  1  0  0  0  0
  1  2  1  0  0  0  0
  1  3  1  0  0  0  0
  5 10  1  0  0  0  0
  5  4  1  0  0  0  0
  6  5  2  0  0  0  0
  7  8  2  0  0  0  0
  7  6  1  0  0  0  0
  8  9  1  0  0  0  0
  9 10  2  0  0  0  0
 10  1  1  0  0  0  0
 11  7  1  0  0  0  0
 12  8  1  0  0  0  0
 13  9  1  0  0  0  0
 14 19  1  0  0  0  0
 15 14  2  0  0  0  0
 15 16  1  0  0  0  0
 16 17  2  0  0  0  0
 17 18  1  0  0  0  0
 18  6  1  0  0  0  0
 19 18  2  0  0  0  0
 20 14  1  0  0  0  0
 21 15  1  0  0  0  0
 22 16  1  0  0  0  0
 23 26  1  0  0  0  0
 23 24  1  0  0  0  0
 25 23  1  0  0  0  0
 26 27  1  0  0  0  0
 28 29  1  0  0  0  0
 28 26  1  0  0  0  0
 30 28  1  0  0  0  0
 31 28  1  0  0  0  0
 31 34  1  0  0  0  0
 32 31  1  0  0  0  0
 33 31  1  0  0  0  0
 34 40  2  0  0  0  0
 35 34  1  0  0  0  0
 35 36  2  0  0  0  0
 36 37  1  0  0  0  0
 36 38  1  0  0  0  0
 38 39  1  0  0  0  0
 40 38  1  0  0  0  0
M  END
>  <minimizedAffinity>
-5.12006092

>  <minimizedRMSD>
1.35220599

$$$$
