
 OpenBabel03272509323D

 36 38  0  0  1  0  0  0  0  0999 V2000
   36.8010   25.1330   32.2810 C   0  0  2  0  0  0  0  0  0  0  0  0
   36.8540   25.8340   30.9540 C   0  0  0  0  0  0  0  0  0  0  0  0
   38.1580   26.5730   30.7340 C   0  0  0  0  0  0  0  0  0  0  0  0
   38.3790   27.5850   31.8550 C   0  0  0  0  0  0  0  0  0  0  0  0
   37.9480   27.0960   33.2150 C   0  0  0  0  0  0  0  0  0  0  0  0
   37.9120   25.5560   33.1820 C   0  0  1  0  0  0  0  0  0  0  0  0
   35.8490   25.3200   32.8550 H   0  0  0  0  0  0  0  0  0  0  0  0
   36.0940   26.6800   31.0610 H   0  0  0  0  0  0  0  0  0  0  0  0
   36.5290   25.2840   30.0930 H   0  0  0  0  0  0  0  0  0  0  0  0
   38.0750   27.1210   29.7930 H   0  0  0  0  0  0  0  0  0  0  0  0
   39.0380   25.9180   30.7110 H   0  0  0  0  0  0  0  0  0  0  0  0
   39.4690   27.8200   31.8730 H   0  0  0  0  0  0  0  0  0  0  0  0
   37.8760   28.5140   31.5580 H   0  0  0  0  0  0  0  0  0  0  0  0
   38.7040   27.4030   33.9600 H   0  0  0  0  0  0  0  0  0  0  0  0
   36.9750   27.5270   33.4590 H   0  0  0  0  0  0  0  0  0  0  0  0
   38.8640   25.3660   32.7480 H   0  0  0  0  0  0  0  0  0  0  0  0
   36.8630   23.6580   32.1050 C   0  0  0  0  0  0  0  0  0  0  0  0
   35.6690   23.0430   31.6980 C   0  0  0  0  0  0  0  0  0  0  0  0
   35.7060   21.6530   31.5200 C   0  0  0  0  0  0  0  0  0  0  0  0
   36.8910   20.9870   31.7490 N   0  0  0  0  0  0  0  0  0  0  0  0
   38.0290   21.6390   32.1440 C   0  0  0  0  0  0  0  0  0  0  0  0
   37.9930   22.9710   32.3150 N   0  0  0  0  0  0  0  0  0  0  0  0
   34.6990   23.4420   31.4830 H   0  0  0  0  0  0  0  0  0  0  0  0
   34.8740   21.0530   31.2150 H   0  0  0  0  0  0  0  0  0  0  0  0
   38.9260   21.0580   32.3050 H   0  0  0  0  0  0  0  0  0  0  0  0
   39.0480   24.7280   35.3020 C   0  0  0  0  0  0  0  0  0  0  0  0
   40.2770   25.0690   35.1680 O   0  0  0  0  0  0  0  0  0  0  0  0
   37.9280   24.9320   34.4550 N   0  0  0  0  0  0  0  0  0  0  0  0
   37.0220   24.5520   34.8810 H   0  0  0  0  0  0  0  0  0  0  0  0
   38.9140   24.0080   36.6030 C   0  0  0  0  0  0  0  0  0  0  0  0
   38.0160   24.2170   37.5570 N   0  0  0  0  0  0  0  0  0  0  0  0
   38.2710   23.3290   38.5600 C   0  0  0  0  0  0  0  0  0  0  0  0
   37.6920   23.2730   39.4680 H   0  0  0  0  0  0  0  0  0  0  0  0
   39.3190   22.6110   38.1770 N   0  0  0  0  0  0  0  0  0  0  0  0
   39.7860   21.8300   38.7130 H   0  0  0  0  0  0  0  0  0  0  0  0
   39.7180   23.0080   36.9970 N   0  0  0  0  0  0  0  0  0  0  0  0
  1  7  1  1  0  0  0
  1  6  1  0  0  0  0
  2  8  1  0  0  0  0
  2  1  1  0  0  0  0
  3  2  1  0  0  0  0
  3  4  1  0  0  0  0
  4 12  1  0  0  0  0
  4  5  1  0  0  0  0
  5 15  1  0  0  0  0
  5 14  1  0  0  0  0
  6 16  1  6  0  0  0
  6  5  1  0  0  0  0
  6 28  1  0  0  0  0
  9  2  1  0  0  0  0
 10  3  1  0  0  0  0
 11  3  1  0  0  0  0
 13  4  1  0  0  0  0
 17  1  1  0  0  0  0
 17 22  1  0  0  0  0
 18 17  2  0  0  0  0
 19 18  1  0  0  0  0
 19 20  2  0  0  0  0
 20 21  1  0  0  0  0
 21 25  1  0  0  0  0
 21 22  2  0  0  0  0
 23 18  1  0  0  0  0
 24 19  1  0  0  0  0
 26 30  1  0  0  0  0
 27 26  2  0  0  0  0
 28 29  1  0  0  0  0
 28 26  1  0  0  0  0
 30 36  2  0  0  0  0
 30 31  1  0  0  0  0
 31 32  2  0  0  0  0
 32 33  1  0  0  0  0
 34 32  1  0  0  0  0
 34 35  1  0  0  0  0
 36 34  1  0  0  0  0
M  END
>  <minimizedAffinity>
-5.10435486

$$$$

 OpenBabel03272509323D

 36 38  0  0  1  0  0  0  0  0999 V2000
   38.5110   26.5060   32.7570 C   0  0  2  0  0  0  0  0  0  0  0  0
   39.1220   27.1440   31.5430 C   0  0  0  0  0  0  0  0  0  0  0  0
   40.6030   26.8560   31.4130 C   0  0  0  0  0  0  0  0  0  0  0  0
   41.3380   27.3330   32.6630 C   0  0  0  0  0  0  0  0  0  0  0  0
   40.5800   27.0980   33.9450 C   0  0  0  0  0  0  0  0  0  0  0  0
   39.5470   25.9820   33.6950 C   0  0  1  0  0  0  0  0  0  0  0  0
   37.8700   27.2070   33.3640 H   0  0  0  0  0  0  0  0  0  0  0  0
   39.0960   28.2610   31.7780 H   0  0  0  0  0  0  0  0  0  0  0  0
   38.5890   27.0490   30.6160 H   0  0  0  0  0  0  0  0  0  0  0  0
   40.9780   27.4260   30.5600 H   0  0  0  0  0  0  0  0  0  0  0  0
   40.8370   25.7920   31.2860 H   0  0  0  0  0  0  0  0  0  0  0  0
   42.3080   26.7850   32.7000 H   0  0  0  0  0  0  0  0  0  0  0  0
   41.5940   28.3880   32.5070 H   0  0  0  0  0  0  0  0  0  0  0  0
   41.2860   26.7400   34.7160 H   0  0  0  0  0  0  0  0  0  0  0  0
   40.1100   28.0320   34.2600 H   0  0  0  0  0  0  0  0  0  0  0  0
   40.1730   25.2620   33.2260 H   0  0  0  0  0  0  0  0  0  0  0  0
   37.6050   25.3900   32.3720 C   0  0  0  0  0  0  0  0  0  0  0  0
   36.3460   25.7700   31.8820 C   0  0  0  0  0  0  0  0  0  0  0  0
   35.4790   24.7340   31.5080 C   0  0  0  0  0  0  0  0  0  0  0  0
   35.9070   23.4310   31.6400 N   0  0  0  0  0  0  0  0  0  0  0  0
   37.1490   23.1170   32.1240 C   0  0  0  0  0  0  0  0  0  0  0  0
   37.9810   24.1100   32.4840 N   0  0  0  0  0  0  0  0  0  0  0  0
   35.9030   26.7310   31.7250 H   0  0  0  0  0  0  0  0  0  0  0  0
   34.4910   24.8740   31.1200 H   0  0  0  0  0  0  0  0  0  0  0  0
   37.4250   22.0750   32.2010 H   0  0  0  0  0  0  0  0  0  0  0  0
   39.6630   24.3480   35.6400 C   0  0  0  0  0  0  0  0  0  0  0  0
   40.8040   23.7750   35.5170 O   0  0  0  0  0  0  0  0  0  0  0  0
   39.0420   25.3620   34.8660 N   0  0  0  0  0  0  0  0  0  0  0  0
   38.0900   25.6510   35.2630 H   0  0  0  0  0  0  0  0  0  0  0  0
   38.9810   23.7570   36.8300 C   0  0  0  0  0  0  0  0  0  0  0  0
   37.7040   23.8700   37.1720 N   0  0  0  0  0  0  0  0  0  0  0  0
   37.5270   23.1680   38.3290 C   0  0  0  0  0  0  0  0  0  0  0  0
   36.5800   23.0870   38.8370 H   0  0  0  0  0  0  0  0  0  0  0  0
   38.7080   22.6540   38.6470 N   0  0  0  0  0  0  0  0  0  0  0  0
   38.9360   22.0510   39.4840 H   0  0  0  0  0  0  0  0  0  0  0  0
   39.5960   23.0000   37.7520 N   0  0  0  0  0  0  0  0  0  0  0  0
  1  7  1  1  0  0  0
  1  6  1  0  0  0  0
  2  8  1  0  0  0  0
  2  1  1  0  0  0  0
  3  2  1  0  0  0  0
  3  4  1  0  0  0  0
  4 12  1  0  0  0  0
  4  5  1  0  0  0  0
  5 15  1  0  0  0  0
  5 14  1  0  0  0  0
  6 16  1  6  0  0  0
  6  5  1  0  0  0  0
  6 28  1  0  0  0  0
  9  2  1  0  0  0  0
 10  3  1  0  0  0  0
 11  3  1  0  0  0  0
 13  4  1  0  0  0  0
 17 22  1  0  0  0  0
 17  1  1  0  0  0  0
 18 17  2  0  0  0  0
 19 20  2  0  0  0  0
 19 18  1  0  0  0  0
 20 21  1  0  0  0  0
 21 25  1  0  0  0  0
 21 22  2  0  0  0  0
 23 18  1  0  0  0  0
 24 19  1  0  0  0  0
 26 30  1  0  0  0  0
 27 26  2  0  0  0  0
 28 29  1  0  0  0  0
 28 26  1  0  0  0  0
 30 31  1  0  0  0  0
 30 36  2  0  0  0  0
 31 32  2  0  0  0  0
 32 34  1  0  0  0  0
 32 33  1  0  0  0  0
 34 35  1  0  0  0  0
 36 34  1  0  0  0  0
M  END
>  <minimizedAffinity>
-5.09225988

$$$$

 OpenBabel03272509323D

 36 38  0  0  1  0  0  0  0  0999 V2000
   38.4970   25.8430   34.2410 C   0  0  2  0  0  0  0  0  0  0  0  0
   38.3560   27.1910   34.8870 C   0  0  0  0  0  0  0  0  0  0  0  0
   36.9900   27.8060   34.6680 C   0  0  0  0  0  0  0  0  0  0  0  0
   36.7070   27.9260   33.1730 C   0  0  0  0  0  0  0  0  0  0  0  0
   37.2050   26.7580   32.3600 C   0  0  0  0  0  0  0  0  0  0  0  0
   37.3720   25.5520   33.3040 C   0  0  1  0  0  0  0  0  0  0  0  0
   39.4410   25.7250   33.6360 H   0  0  0  0  0  0  0  0  0  0  0  0
   39.0430   27.8630   34.2710 H   0  0  0  0  0  0  0  0  0  0  0  0
   38.7090   27.2920   35.8950 H   0  0  0  0  0  0  0  0  0  0  0  0
   37.0070   28.8130   35.0930 H   0  0  0  0  0  0  0  0  0  0  0  0
   36.1680   27.2260   35.1070 H   0  0  0  0  0  0  0  0  0  0  0  0
   35.6010   28.0150   33.0560 H   0  0  0  0  0  0  0  0  0  0  0  0
   37.1220   28.8850   32.8390 H   0  0  0  0  0  0  0  0  0  0  0  0
   36.4420   26.4970   31.6050 H   0  0  0  0  0  0  0  0  0  0  0  0
   38.1440   27.0350   31.8730 H   0  0  0  0  0  0  0  0  0  0  0  0
   36.4320   25.5820   33.7980 H   0  0  0  0  0  0  0  0  0  0  0  0
   38.5570   24.7660   35.2650 C   0  0  0  0  0  0  0  0  0  0  0  0
   37.9100   25.0430   36.4790 C   0  0  0  0  0  0  0  0  0  0  0  0
   37.9490   24.0390   37.4560 C   0  0  0  0  0  0  0  0  0  0  0  0
   38.6070   22.8620   37.1700 N   0  0  0  0  0  0  0  0  0  0  0  0
   39.2230   22.6440   35.9660 C   0  0  0  0  0  0  0  0  0  0  0  0
   39.1860   23.6070   35.0290 N   0  0  0  0  0  0  0  0  0  0  0  0
   37.3650   25.9000   36.8160 H   0  0  0  0  0  0  0  0  0  0  0  0
   37.5020   24.1110   38.4250 H   0  0  0  0  0  0  0  0  0  0  0  0
   39.7210   21.6990   35.8050 H   0  0  0  0  0  0  0  0  0  0  0  0
   36.4250   23.6680   31.8810 C   0  0  0  0  0  0  0  0  0  0  0  0
   35.2550   24.0710   31.5440 O   0  0  0  0  0  0  0  0  0  0  0  0
   37.4370   24.2920   32.6570 N   0  0  0  0  0  0  0  0  0  0  0  0
   38.3240   23.6970   32.7210 H   0  0  0  0  0  0  0  0  0  0  0  0
   36.6250   22.3090   31.2980 C   0  0  0  0  0  0  0  0  0  0  0  0
   35.7460   21.3170   31.2300 N   0  0  0  0  0  0  0  0  0  0  0  0
   36.3620   20.2650   30.6180 C   0  0  0  0  0  0  0  0  0  0  0  0
   35.8790   19.3210   30.4290 H   0  0  0  0  0  0  0  0  0  0  0  0
   37.5980   20.6590   30.3360 N   0  0  0  0  0  0  0  0  0  0  0  0
   38.3520   20.0950   29.8590 H   0  0  0  0  0  0  0  0  0  0  0  0
   37.7720   21.8900   30.7400 N   0  0  0  0  0  0  0  0  0  0  0  0
  1  7  1  6  0  0  0
  1  2  1  0  0  0  0
  1 17  1  0  0  0  0
  2  9  1  0  0  0  0
  3  2  1  0  0  0  0
  3 10  1  0  0  0  0
  3 11  1  0  0  0  0
  4  3  1  0  0  0  0
  5  4  1  0  0  0  0
  5  6  1  0  0  0  0
  6 16  1  1  0  0  0
  6  1  1  0  0  0  0
  8  2  1  0  0  0  0
 12  4  1  0  0  0  0
 13  4  1  0  0  0  0
 14  5  1  0  0  0  0
 15  5  1  0  0  0  0
 17 18  1  0  0  0  0
 18 23  1  0  0  0  0
 18 19  2  0  0  0  0
 19 24  1  0  0  0  0
 20 19  1  0  0  0  0
 21 20  2  0  0  0  0
 22 17  2  0  0  0  0
 22 21  1  0  0  0  0
 25 21  1  0  0  0  0
 26 28  1  0  0  0  0
 27 26  2  0  0  0  0
 28 29  1  0  0  0  0
 28  6  1  0  0  0  0
 30 26  1  0  0  0  0
 31 30  1  0  0  0  0
 32 31  2  0  0  0  0
 33 32  1  0  0  0  0
 34 32  1  0  0  0  0
 34 36  1  0  0  0  0
 35 34  1  0  0  0  0
 36 30  2  0  0  0  0
M  END
>  <minimizedAffinity>
-5.05787468

$$$$

 OpenBabel03272509323D

 36 38  0  0  1  0  0  0  0  0999 V2000
   37.2480   25.5210   32.9250 C   0  0  2  0  0  0  0  0  0  0  0  0
   36.4630   26.6280   32.2820 C   0  0  0  0  0  0  0  0  0  0  0  0
   36.8580   27.9980   32.7920 C   0  0  0  0  0  0  0  0  0  0  0  0
   36.6800   28.0610   34.3070 C   0  0  0  0  0  0  0  0  0  0  0  0
   37.0680   26.7920   35.0220 C   0  0  0  0  0  0  0  0  0  0  0  0
   38.0210   25.9980   34.1090 C   0  0  1  0  0  0  0  0  0  0  0  0
   36.6090   24.6690   33.2960 H   0  0  0  0  0  0  0  0  0  0  0  0
   35.4080   26.4930   32.6960 H   0  0  0  0  0  0  0  0  0  0  0  0
   36.3440   26.5920   31.2160 H   0  0  0  0  0  0  0  0  0  0  0  0
   36.1830   28.7290   32.3400 H   0  0  0  0  0  0  0  0  0  0  0  0
   37.9010   28.2670   32.5780 H   0  0  0  0  0  0  0  0  0  0  0  0
   37.3120   28.9020   34.6750 H   0  0  0  0  0  0  0  0  0  0  0  0
   35.6420   28.3580   34.5000 H   0  0  0  0  0  0  0  0  0  0  0  0
   37.6190   27.0540   35.9430 H   0  0  0  0  0  0  0  0  0  0  0  0
   36.1640   26.2270   35.2660 H   0  0  0  0  0  0  0  0  0  0  0  0
   38.7010   26.7720   33.8470 H   0  0  0  0  0  0  0  0  0  0  0  0
   38.1890   24.9030   31.9540 C   0  0  0  0  0  0  0  0  0  0  0  0
   37.6220   23.9870   31.0550 C   0  0  0  0  0  0  0  0  0  0  0  0
   38.4910   23.3970   30.1260 C   0  0  0  0  0  0  0  0  0  0  0  0
   39.8240   23.7470   30.1510 N   0  0  0  0  0  0  0  0  0  0  0  0
   40.3240   24.6500   31.0520 C   0  0  0  0  0  0  0  0  0  0  0  0
   39.4920   25.2150   31.9420 N   0  0  0  0  0  0  0  0  0  0  0  0
   36.6170   23.6410   30.9290 H   0  0  0  0  0  0  0  0  0  0  0  0
   38.2000   22.6830   29.3850 H   0  0  0  0  0  0  0  0  0  0  0  0
   41.3800   24.8820   31.0170 H   0  0  0  0  0  0  0  0  0  0  0  0
   38.4430   24.2820   35.9380 C   0  0  0  0  0  0  0  0  0  0  0  0
   37.3820   24.3060   36.6580 O   0  0  0  0  0  0  0  0  0  0  0  0
   38.7900   25.0050   34.7660 N   0  0  0  0  0  0  0  0  0  0  0  0
   39.7480   24.7200   34.3830 H   0  0  0  0  0  0  0  0  0  0  0  0
   39.3830   23.2930   36.5430 C   0  0  0  0  0  0  0  0  0  0  0  0
   40.3000   22.5600   35.9230 N   0  0  0  0  0  0  0  0  0  0  0  0
   40.9240   21.8000   36.8680 C   0  0  0  0  0  0  0  0  0  0  0  0
   41.7170   21.1060   36.6450 H   0  0  0  0  0  0  0  0  0  0  0  0
   40.3600   22.1000   38.0320 N   0  0  0  0  0  0  0  0  0  0  0  0
   40.6000   21.6970   38.9780 H   0  0  0  0  0  0  0  0  0  0  0  0
   39.4290   23.0000   37.8520 N   0  0  0  0  0  0  0  0  0  0  0  0
  1  7  1  1  0  0  0
  1  6  1  0  0  0  0
  2  8  1  0  0  0  0
  2  3  1  0  0  0  0
  2  1  1  0  0  0  0
  3  4  1  0  0  0  0
  4 13  1  0  0  0  0
  4 12  1  0  0  0  0
  4  5  1  0  0  0  0
  5 15  1  0  0  0  0
  5 14  1  0  0  0  0
  6 16  1  6  0  0  0
  6 28  1  0  0  0  0
  6  5  1  0  0  0  0
  9  2  1  0  0  0  0
 10  3  1  0  0  0  0
 11  3  1  0  0  0  0
 17  1  1  0  0  0  0
 18 17  2  0  0  0  0
 19 20  2  0  0  0  0
 19 18  1  0  0  0  0
 20 21  1  0  0  0  0
 21 22  2  0  0  0  0
 22 17  1  0  0  0  0
 23 18  1  0  0  0  0
 24 19  1  0  0  0  0
 25 21  1  0  0  0  0
 26 30  1  0  0  0  0
 26 27  2  0  0  0  0
 28 26  1  0  0  0  0
 29 28  1  0  0  0  0
 30 36  2  0  0  0  0
 31 30  1  0  0  0  0
 31 32  2  0  0  0  0
 32 34  1  0  0  0  0
 33 32  1  0  0  0  0
 34 35  1  0  0  0  0
 36 34  1  0  0  0  0
M  END
>  <minimizedAffinity>
-5.01783037

$$$$

 OpenBabel03272509323D

 36 38  0  0  1  0  0  0  0  0999 V2000
   38.1490   23.7620   31.8240 C   0  0  2  0  0  0  0  0  0  0  0  0
   37.2440   24.1560   30.6930 C   0  0  0  0  0  0  0  0  0  0  0  0
   35.7770   24.0550   31.0540 C   0  0  0  0  0  0  0  0  0  0  0  0
   35.4470   22.6320   31.4980 C   0  0  0  0  0  0  0  0  0  0  0  0
   36.5280   21.9820   32.3240 C   0  0  0  0  0  0  0  0  0  0  0  0
   37.4030   23.0960   32.9320 C   0  0  1  0  0  0  0  0  0  0  0  0
   38.9640   23.0430   31.5250 H   0  0  0  0  0  0  0  0  0  0  0  0
   37.3810   23.3190   29.9290 H   0  0  0  0  0  0  0  0  0  0  0  0
   37.4870   25.0550   30.1590 H   0  0  0  0  0  0  0  0  0  0  0  0
   35.1970   24.2730   30.1540 H   0  0  0  0  0  0  0  0  0  0  0  0
   35.4740   24.7250   31.8680 H   0  0  0  0  0  0  0  0  0  0  0  0
   34.5060   22.6850   32.0930 H   0  0  0  0  0  0  0  0  0  0  0  0
   35.2000   22.0590   30.5950 H   0  0  0  0  0  0  0  0  0  0  0  0
   36.0570   21.4280   33.1560 H   0  0  0  0  0  0  0  0  0  0  0  0
   37.1050   21.3040   31.6910 H   0  0  0  0  0  0  0  0  0  0  0  0
   36.6410   23.7250   33.3250 H   0  0  0  0  0  0  0  0  0  0  0  0
   38.8630   24.9460   32.3720 C   0  0  0  0  0  0  0  0  0  0  0  0
   38.0660   26.0740   32.6250 C   0  0  0  0  0  0  0  0  0  0  0  0
   38.7170   27.2000   33.1480 C   0  0  0  0  0  0  0  0  0  0  0  0
   40.0740   27.1320   33.3790 N   0  0  0  0  0  0  0  0  0  0  0  0
   40.8040   26.0040   33.1150 C   0  0  0  0  0  0  0  0  0  0  0  0
   40.1800   24.9240   32.6130 N   0  0  0  0  0  0  0  0  0  0  0  0
   37.0180   26.2480   32.4990 H   0  0  0  0  0  0  0  0  0  0  0  0
   38.2390   28.1270   33.3870 H   0  0  0  0  0  0  0  0  0  0  0  0
   41.8650   26.0160   33.3200 H   0  0  0  0  0  0  0  0  0  0  0  0
   38.3290   23.3620   35.2860 C   0  0  0  0  0  0  0  0  0  0  0  0
   37.7730   24.4260   35.7370 O   0  0  0  0  0  0  0  0  0  0  0  0
   38.1940   22.6980   34.0380 N   0  0  0  0  0  0  0  0  0  0  0  0
   38.7770   21.8010   33.9910 H   0  0  0  0  0  0  0  0  0  0  0  0
   39.2430   22.8400   36.3440 C   0  0  0  0  0  0  0  0  0  0  0  0
   40.3650   22.1500   36.1800 N   0  0  0  0  0  0  0  0  0  0  0  0
   40.8680   21.8860   37.4200 C   0  0  0  0  0  0  0  0  0  0  0  0
   41.7790   21.3350   37.5880 H   0  0  0  0  0  0  0  0  0  0  0  0
   40.0300   22.4270   38.2950 N   0  0  0  0  0  0  0  0  0  0  0  0
   40.1130   22.4150   39.3480 H   0  0  0  0  0  0  0  0  0  0  0  0
   39.0450   23.0080   37.6610 N   0  0  0  0  0  0  0  0  0  0  0  0
  1  7  1  6  0  0  0
  1 17  1  0  0  0  0
  1  6  1  0  0  0  0
  2  3  1  0  0  0  0
  2  1  1  0  0  0  0
  3  4  1  0  0  0  0
  3 11  1  0  0  0  0
  4 12  1  0  0  0  0
  4  5  1  0  0  0  0
  5  6  1  0  0  0  0
  5 14  1  0  0  0  0
  6 16  1  1  0  0  0
  6 28  1  0  0  0  0
  8  2  1  0  0  0  0
  9  2  1  0  0  0  0
 10  3  1  0  0  0  0
 13  4  1  0  0  0  0
 15  5  1  0  0  0  0
 17 22  2  0  0  0  0
 17 18  1  0  0  0  0
 18 19  2  0  0  0  0
 19 20  1  0  0  0  0
 19 24  1  0  0  0  0
 21 25  1  0  0  0  0
 21 20  2  0  0  0  0
 22 21  1  0  0  0  0
 23 18  1  0  0  0  0
 26 27  2  0  0  0  0
 26 30  1  0  0  0  0
 28 26  1  0  0  0  0
 29 28  1  0  0  0  0
 30 36  2  0  0  0  0
 31 30  1  0  0  0  0
 31 32  2  0  0  0  0
 32 33  1  0  0  0  0
 32 34  1  0  0  0  0
 34 35  1  0  0  0  0
 36 34  1  0  0  0  0
M  END
>  <minimizedAffinity>
-4.95937443

$$$$

 OpenBabel03272509323D

 36 38  0  0  1  0  0  0  0  0999 V2000
   39.9940   24.6270   34.5230 C   0  0  2  0  0  0  0  0  0  0  0  0
   40.9990   25.7350   34.6490 C   0  0  0  0  0  0  0  0  0  0  0  0
   40.4330   27.0860   34.2650 C   0  0  0  0  0  0  0  0  0  0  0  0
   39.9020   27.0400   32.8340 C   0  0  0  0  0  0  0  0  0  0  0  0
   39.2150   25.7460   32.4770 C   0  0  0  0  0  0  0  0  0  0  0  0
   38.7720   25.0610   33.7840 C   0  0  1  0  0  0  0  0  0  0  0  0
   40.3830   23.7230   33.9720 H   0  0  0  0  0  0  0  0  0  0  0  0
   41.7480   25.5230   33.8140 H   0  0  0  0  0  0  0  0  0  0  0  0
   41.5910   25.7630   35.5440 H   0  0  0  0  0  0  0  0  0  0  0  0
   41.2490   27.8110   34.3020 H   0  0  0  0  0  0  0  0  0  0  0  0
   39.6060   27.4170   34.9060 H   0  0  0  0  0  0  0  0  0  0  0  0
   39.1820   27.8850   32.7260 H   0  0  0  0  0  0  0  0  0  0  0  0
   40.7420   27.2740   32.1690 H   0  0  0  0  0  0  0  0  0  0  0  0
   38.3090   25.9740   31.8890 H   0  0  0  0  0  0  0  0  0  0  0  0
   39.9010   25.1250   31.8970 H   0  0  0  0  0  0  0  0  0  0  0  0
   38.2960   25.8820   34.2630 H   0  0  0  0  0  0  0  0  0  0  0  0
   39.5910   24.1200   35.8610 C   0  0  0  0  0  0  0  0  0  0  0  0
   40.4340   23.1500   36.4240 C   0  0  0  0  0  0  0  0  0  0  0  0
   40.0750   22.6620   37.6890 C   0  0  0  0  0  0  0  0  0  0  0  0
   38.9390   23.1570   38.2920 N   0  0  0  0  0  0  0  0  0  0  0  0
   38.1520   24.1060   37.6960 C   0  0  0  0  0  0  0  0  0  0  0  0
   38.4950   24.5730   36.4830 N   0  0  0  0  0  0  0  0  0  0  0  0
   41.3350   22.6960   36.0680 H   0  0  0  0  0  0  0  0  0  0  0  0
   40.6210   21.9230   38.2370 H   0  0  0  0  0  0  0  0  0  0  0  0
   37.2740   24.4540   38.2230 H   0  0  0  0  0  0  0  0  0  0  0  0
   37.8540   22.8830   32.8450 C   0  0  0  0  0  0  0  0  0  0  0  0
   38.8090   22.4060   32.1340 O   0  0  0  0  0  0  0  0  0  0  0  0
   37.7760   24.0650   33.6280 N   0  0  0  0  0  0  0  0  0  0  0  0
   36.8380   24.1540   34.1350 H   0  0  0  0  0  0  0  0  0  0  0  0
   36.6970   21.9460   32.7430 C   0  0  0  0  0  0  0  0  0  0  0  0
   35.8360   21.8250   31.7400 N   0  0  0  0  0  0  0  0  0  0  0  0
   34.9480   20.8470   32.0780 C   0  0  0  0  0  0  0  0  0  0  0  0
   34.1340   20.5370   31.4430 H   0  0  0  0  0  0  0  0  0  0  0  0
   35.3040   20.4080   33.2790 N   0  0  0  0  0  0  0  0  0  0  0  0
   34.8340   19.6490   33.8440 H   0  0  0  0  0  0  0  0  0  0  0  0
   36.3570   21.0610   33.6930 N   0  0  0  0  0  0  0  0  0  0  0  0
  1  7  1  6  0  0  0
  1  2  1  0  0  0  0
  1 17  1  0  0  0  0
  2  9  1  0  0  0  0
  3 10  1  0  0  0  0
  3  2  1  0  0  0  0
  3 11  1  0  0  0  0
  4  3  1  0  0  0  0
  5  4  1  0  0  0  0
  5  6  1  0  0  0  0
  6 16  1  1  0  0  0
  6  1  1  0  0  0  0
  8  2  1  0  0  0  0
 12  4  1  0  0  0  0
 13  4  1  0  0  0  0
 14  5  1  0  0  0  0
 15  5  1  0  0  0  0
 17 18  2  0  0  0  0
 17 22  1  0  0  0  0
 18 19  1  0  0  0  0
 19 24  1  0  0  0  0
 19 20  2  0  0  0  0
 21 25  1  0  0  0  0
 21 20  1  0  0  0  0
 22 21  2  0  0  0  0
 23 18  1  0  0  0  0
 26 28  1  0  0  0  0
 27 26  2  0  0  0  0
 28  6  1  0  0  0  0
 28 29  1  0  0  0  0
 30 26  1  0  0  0  0
 30 36  2  0  0  0  0
 31 32  2  0  0  0  0
 31 30  1  0  0  0  0
 32 34  1  0  0  0  0
 33 32  1  0  0  0  0
 34 36  1  0  0  0  0
 34 35  1  0  0  0  0
M  END
>  <minimizedAffinity>
-4.86673927

$$$$

 OpenBabel03272509323D

 36 38  0  0  1  0  0  0  0  0999 V2000
   38.3740   22.9860   34.3520 C   0  0  2  0  0  0  0  0  0  0  0  0
   38.4160   22.2480   35.6590 C   0  0  0  0  0  0  0  0  0  0  0  0
   37.7170   22.9940   36.7760 C   0  0  0  0  0  0  0  0  0  0  0  0
   38.3440   24.3760   36.9510 C   0  0  0  0  0  0  0  0  0  0  0  0
   38.7300   25.0410   35.6540 C   0  0  0  0  0  0  0  0  0  0  0  0
   37.9110   24.3950   34.5200 C   0  0  1  0  0  0  0  0  0  0  0  0
   39.3730   23.0490   33.8340 H   0  0  0  0  0  0  0  0  0  0  0  0
   39.5150   22.2950   35.9650 H   0  0  0  0  0  0  0  0  0  0  0  0
   38.1840   21.2000   35.6410 H   0  0  0  0  0  0  0  0  0  0  0  0
   37.8720   22.4320   37.7000 H   0  0  0  0  0  0  0  0  0  0  0  0
   36.6440   23.1460   36.6040 H   0  0  0  0  0  0  0  0  0  0  0  0
   37.5960   25.0080   37.4840 H   0  0  0  0  0  0  0  0  0  0  0  0
   39.1890   24.2640   37.6400 H   0  0  0  0  0  0  0  0  0  0  0  0
   38.4550   26.1100   35.7060 H   0  0  0  0  0  0  0  0  0  0  0  0
   39.8060   24.9300   35.5010 H   0  0  0  0  0  0  0  0  0  0  0  0
   36.9410   24.4400   34.9540 H   0  0  0  0  0  0  0  0  0  0  0  0
   37.4790   22.3000   33.3830 C   0  0  0  0  0  0  0  0  0  0  0  0
   36.5730   21.3810   33.9350 C   0  0  0  0  0  0  0  0  0  0  0  0
   35.7150   20.7270   33.0400 C   0  0  0  0  0  0  0  0  0  0  0  0
   35.8100   21.0220   31.6970 N   0  0  0  0  0  0  0  0  0  0  0  0
   36.7130   21.9300   31.2120 C   0  0  0  0  0  0  0  0  0  0  0  0
   37.5360   22.5570   32.0700 N   0  0  0  0  0  0  0  0  0  0  0  0
   36.3970   21.0740   34.9450 H   0  0  0  0  0  0  0  0  0  0  0  0
   34.9780   20.0040   33.3170 H   0  0  0  0  0  0  0  0  0  0  0  0
   36.7360   22.1170   30.1470 H   0  0  0  0  0  0  0  0  0  0  0  0
   37.2440   26.4280   33.1450 C   0  0  0  0  0  0  0  0  0  0  0  0
   36.6640   27.2100   33.9800 O   0  0  0  0  0  0  0  0  0  0  0  0
   37.8430   25.1540   33.3250 N   0  0  0  0  0  0  0  0  0  0  0  0
   38.2790   24.7780   32.4210 H   0  0  0  0  0  0  0  0  0  0  0  0
   37.2120   27.0850   31.8050 C   0  0  0  0  0  0  0  0  0  0  0  0
   38.1400   27.8620   31.2600 N   0  0  0  0  0  0  0  0  0  0  0  0
   37.6890   28.2370   30.0290 C   0  0  0  0  0  0  0  0  0  0  0  0
   38.2440   28.8740   29.3600 H   0  0  0  0  0  0  0  0  0  0  0  0
   36.4980   27.6730   29.8720 N   0  0  0  0  0  0  0  0  0  0  0  0
   35.8620   27.7500   29.0320 H   0  0  0  0  0  0  0  0  0  0  0  0
   36.1970   26.9740   30.9350 N   0  0  0  0  0  0  0  0  0  0  0  0
  1  7  1  6  0  0  0
  1  6  1  0  0  0  0
  1  2  1  0  0  0  0
  2  8  1  0  0  0  0
  2  3  1  0  0  0  0
  3  4  1  0  0  0  0
  3 10  1  0  0  0  0
  4 12  1  0  0  0  0
  4 13  1  0  0  0  0
  5 14  1  0  0  0  0
  5  4  1  0  0  0  0
  6 16  1  1  0  0  0
  6  5  1  0  0  0  0
  9  2  1  0  0  0  0
 11  3  1  0  0  0  0
 15  5  1  0  0  0  0
 17 18  1  0  0  0  0
 17  1  1  0  0  0  0
 18 23  1  0  0  0  0
 19 24  1  0  0  0  0
 19 18  2  0  0  0  0
 20 19  1  0  0  0  0
 21 20  2  0  0  0  0
 21 22  1  0  0  0  0
 22 17  2  0  0  0  0
 25 21  1  0  0  0  0
 26 28  1  0  0  0  0
 26 27  2  0  0  0  0
 28  6  1  0  0  0  0
 29 28  1  0  0  0  0
 30 26  1  0  0  0  0
 31 30  1  0  0  0  0
 32 31  2  0  0  0  0
 33 32  1  0  0  0  0
 34 32  1  0  0  0  0
 34 36  1  0  0  0  0
 35 34  1  0  0  0  0
 36 30  2  0  0  0  0
M  END
>  <minimizedAffinity>
-4.7993679

$$$$

 OpenBabel03272509323D

 36 38  0  0  1  0  0  0  0  0999 V2000
   38.5670   24.9160   33.5650 C   0  0  2  0  0  0  0  0  0  0  0  0
   38.3570   24.6060   35.0190 C   0  0  0  0  0  0  0  0  0  0  0  0
   37.8860   25.8070   35.8120 C   0  0  0  0  0  0  0  0  0  0  0  0
   38.8900   26.9490   35.6750 C   0  0  0  0  0  0  0  0  0  0  0  0
   39.4860   27.0760   34.2960 C   0  0  0  0  0  0  0  0  0  0  0  0
   38.5390   26.3840   33.2970 C   0  0  1  0  0  0  0  0  0  0  0  0
   39.5520   24.5470   33.1600 H   0  0  0  0  0  0  0  0  0  0  0  0
   39.4130   24.4330   35.4180 H   0  0  0  0  0  0  0  0  0  0  0  0
   37.8250   23.7060   35.2590 H   0  0  0  0  0  0  0  0  0  0  0  0
   37.8440   25.5160   36.8640 H   0  0  0  0  0  0  0  0  0  0  0  0
   36.9100   26.1940   35.4910 H   0  0  0  0  0  0  0  0  0  0  0  0
   38.3510   27.8900   35.9350 H   0  0  0  0  0  0  0  0  0  0  0  0
   39.6480   26.8110   36.4560 H   0  0  0  0  0  0  0  0  0  0  0  0
   39.5400   28.1470   34.0280 H   0  0  0  0  0  0  0  0  0  0  0  0
   40.4840   26.6320   34.2950 H   0  0  0  0  0  0  0  0  0  0  0  0
   37.6170   26.8200   33.5960 H   0  0  0  0  0  0  0  0  0  0  0  0
   37.5320   24.2570   32.7260 C   0  0  0  0  0  0  0  0  0  0  0  0
   37.7200   22.8850   32.4940 C   0  0  0  0  0  0  0  0  0  0  0  0
   36.7520   22.2420   31.7110 C   0  0  0  0  0  0  0  0  0  0  0  0
   35.6940   22.9800   31.2260 N   0  0  0  0  0  0  0  0  0  0  0  0
   35.5590   24.3180   31.4850 C   0  0  0  0  0  0  0  0  0  0  0  0
   36.4870   24.9360   32.2350 N   0  0  0  0  0  0  0  0  0  0  0  0
   38.4820   22.2060   32.8160 H   0  0  0  0  0  0  0  0  0  0  0  0
   36.7660   21.2040   31.4510 H   0  0  0  0  0  0  0  0  0  0  0  0
   34.7050   24.8390   31.0750 H   0  0  0  0  0  0  0  0  0  0  0  0
   38.0960   27.8120   31.2390 C   0  0  0  0  0  0  0  0  0  0  0  0
   37.2540   28.6970   31.6320 O   0  0  0  0  0  0  0  0  0  0  0  0
   38.7290   26.7530   31.9410 N   0  0  0  0  0  0  0  0  0  0  0  0
   39.4170   26.2110   31.3250 H   0  0  0  0  0  0  0  0  0  0  0  0
   38.3660   28.0490   29.7910 C   0  0  0  0  0  0  0  0  0  0  0  0
   39.4360   27.6860   29.0940 N   0  0  0  0  0  0  0  0  0  0  0  0
   39.2520   28.1110   27.8110 C   0  0  0  0  0  0  0  0  0  0  0  0
   39.9690   27.9500   27.0230 H   0  0  0  0  0  0  0  0  0  0  0  0
   38.0740   28.7190   27.7760 N   0  0  0  0  0  0  0  0  0  0  0  0
   37.6140   29.1680   26.9370 H   0  0  0  0  0  0  0  0  0  0  0  0
   37.5260   28.6900   28.9620 N   0  0  0  0  0  0  0  0  0  0  0  0
  1  7  1  6  0  0  0
  1  2  1  0  0  0  0
  2  9  1  0  0  0  0
  2  8  1  0  0  0  0
  2  3  1  0  0  0  0
  3 10  1  0  0  0  0
  4  3  1  0  0  0  0
  4 12  1  0  0  0  0
  4 13  1  0  0  0  0
  5  4  1  0  0  0  0
  6  1  1  0  0  0  0
  6 16  1  1  0  0  0
  6  5  1  0  0  0  0
 11  3  1  0  0  0  0
 14  5  1  0  0  0  0
 15  5  1  0  0  0  0
 17  1  1  0  0  0  0
 18 17  1  0  0  0  0
 18 23  1  0  0  0  0
 19 18  2  0  0  0  0
 20 21  2  0  0  0  0
 20 19  1  0  0  0  0
 21 22  1  0  0  0  0
 22 17  2  0  0  0  0
 24 19  1  0  0  0  0
 25 21  1  0  0  0  0
 26 27  2  0  0  0  0
 26 28  1  0  0  0  0
 28  6  1  0  0  0  0
 29 28  1  0  0  0  0
 30 26  1  0  0  0  0
 31 30  1  0  0  0  0
 32 31  2  0  0  0  0
 33 32  1  0  0  0  0
 34 32  1  0  0  0  0
 34 36  1  0  0  0  0
 35 34  1  0  0  0  0
 36 30  2  0  0  0  0
M  END
>  <minimizedAffinity>
-4.78326941

$$$$

 OpenBabel03272509323D

 36 38  0  0  1  0  0  0  0  0999 V2000
   36.4760   23.0760   32.6980 C   0  0  2  0  0  0  0  0  0  0  0  0
   35.7140   23.7000   31.5650 C   0  0  0  0  0  0  0  0  0  0  0  0
   36.5910   24.5430   30.6640 C   0  0  0  0  0  0  0  0  0  0  0  0
   37.2770   25.6370   31.4790 C   0  0  0  0  0  0  0  0  0  0  0  0
   37.7220   25.1910   32.8490 C   0  0  0  0  0  0  0  0  0  0  0  0
   37.8450   23.6550   32.8380 C   0  0  1  0  0  0  0  0  0  0  0  0
   35.9820   23.2060   33.7040 H   0  0  0  0  0  0  0  0  0  0  0  0
   35.0490   24.4750   32.0760 H   0  0  0  0  0  0  0  0  0  0  0  0
   35.0330   23.0710   31.0250 H   0  0  0  0  0  0  0  0  0  0  0  0
   35.9450   25.0250   29.9260 H   0  0  0  0  0  0  0  0  0  0  0  0
   37.3810   23.9750   30.1570 H   0  0  0  0  0  0  0  0  0  0  0  0
   38.1640   25.9730   30.8930 H   0  0  0  0  0  0  0  0  0  0  0  0
   36.5950   26.4950   31.5110 H   0  0  0  0  0  0  0  0  0  0  0  0
   38.7230   25.6100   33.0540 H   0  0  0  0  0  0  0  0  0  0  0  0
   37.0010   25.5420   33.5910 H   0  0  0  0  0  0  0  0  0  0  0  0
   38.4160   23.5290   31.9500 H   0  0  0  0  0  0  0  0  0  0  0  0
   36.5940   21.6060   32.5140 C   0  0  0  0  0  0  0  0  0  0  0  0
   35.5510   20.8380   33.0530 C   0  0  0  0  0  0  0  0  0  0  0  0
   35.6380   19.4490   32.8850 C   0  0  0  0  0  0  0  0  0  0  0  0
   36.7230   18.9310   32.2110 N   0  0  0  0  0  0  0  0  0  0  0  0
   37.7150   19.7280   31.7030 C   0  0  0  0  0  0  0  0  0  0  0  0
   37.6310   21.0590   31.8650 N   0  0  0  0  0  0  0  0  0  0  0  0
   34.6630   21.1160   33.5820 H   0  0  0  0  0  0  0  0  0  0  0  0
   34.9190   18.7430   33.2430 H   0  0  0  0  0  0  0  0  0  0  0  0
   38.5380   19.2590   31.1840 H   0  0  0  0  0  0  0  0  0  0  0  0
   38.5400   23.4140   35.2730 C   0  0  0  0  0  0  0  0  0  0  0  0
   37.7510   24.1950   35.9150 O   0  0  0  0  0  0  0  0  0  0  0  0
   38.6250   23.1110   33.8890 N   0  0  0  0  0  0  0  0  0  0  0  0
   39.3790   22.3800   33.6790 H   0  0  0  0  0  0  0  0  0  0  0  0
   39.4680   22.7890   36.2600 C   0  0  0  0  0  0  0  0  0  0  0  0
   40.5680   22.0910   36.0110 N   0  0  0  0  0  0  0  0  0  0  0  0
   41.0970   21.7160   37.2110 C   0  0  0  0  0  0  0  0  0  0  0  0
   41.9990   21.1350   37.3090 H   0  0  0  0  0  0  0  0  0  0  0  0
   40.2930   22.2010   38.1490 N   0  0  0  0  0  0  0  0  0  0  0  0
   40.4010   22.1000   39.1950 H   0  0  0  0  0  0  0  0  0  0  0  0
   39.3050   22.8520   37.5910 N   0  0  0  0  0  0  0  0  0  0  0  0
  1  6  1  0  0  0  0
  1  7  1  1  0  0  0
  2  8  1  0  0  0  0
  2  1  1  0  0  0  0
  3  4  1  0  0  0  0
  3  2  1  0  0  0  0
  4 13  1  0  0  0  0
  4  5  1  0  0  0  0
  5 14  1  0  0  0  0
  5 15  1  0  0  0  0
  6 16  1  6  0  0  0
  6  5  1  0  0  0  0
  6 28  1  0  0  0  0
  9  2  1  0  0  0  0
 10  3  1  0  0  0  0
 11  3  1  0  0  0  0
 12  4  1  0  0  0  0
 17  1  1  0  0  0  0
 17 18  1  0  0  0  0
 18 23  1  0  0  0  0
 19 18  2  0  0  0  0
 19 24  1  0  0  0  0
 20 19  1  0  0  0  0
 21 22  1  0  0  0  0
 21 20  2  0  0  0  0
 22 17  2  0  0  0  0
 25 21  1  0  0  0  0
 26 27  2  0  0  0  0
 26 30  1  0  0  0  0
 28 26  1  0  0  0  0
 29 28  1  0  0  0  0
 30 36  2  0  0  0  0
 31 30  1  0  0  0  0
 31 32  2  0  0  0  0
 32 33  1  0  0  0  0
 32 34  1  0  0  0  0
 34 35  1  0  0  0  0
 36 34  1  0  0  0  0
M  END
>  <minimizedAffinity>
-4.71494246

$$$$
