
 OpenBabel03272508463D

 25 27  0  0  0  0  0  0  0  0999 V2000
   37.4330   25.9960   34.0290 C   0  0  0  0  0  0  0  0  0  0  0  0
   37.6890   27.0590   34.8820 C   0  0  0  0  0  0  0  0  0  0  0  0
   38.2680   26.4320   35.9780 C   0  0  0  0  0  0  0  0  0  0  0  0
   38.3340   25.0720   35.7510 C   0  0  0  0  0  0  0  0  0  0  0  0
   37.8280   24.8350   34.5740 O   0  0  0  0  0  0  0  0  0  0  0  0
   37.4670   28.0910   34.6810 H   0  0  0  0  0  0  0  0  0  0  0  0
   38.6070   26.9680   36.8690 H   0  0  0  0  0  0  0  0  0  0  0  0
   38.8830   24.0960   36.6850 C   0  0  0  0  0  0  0  0  0  0  0  0
   39.9720   23.3300   36.5010 N   0  0  0  0  0  0  0  0  0  0  0  0
   40.2070   22.5330   37.5580 C   0  0  0  0  0  0  0  0  0  0  0  0
   41.0280   21.8360   37.6290 H   0  0  0  0  0  0  0  0  0  0  0  0
   39.2070   22.8290   38.4320 N   0  0  0  0  0  0  0  0  0  0  0  0
   39.1850   22.3160   39.3510 H   0  0  0  0  0  0  0  0  0  0  0  0
   38.4140   23.7680   37.9020 N   0  0  0  0  0  0  0  0  0  0  0  0
   36.8110   26.1340   32.7030 C   0  0  0  0  0  0  0  0  0  0  0  0
   36.4570   25.0760   32.1140 O   0  0  0  0  0  0  0  0  0  0  0  0
   37.4510   29.1020   30.7130 C   0  0  0  0  0  0  0  0  0  0  0  0
   36.3540   29.9140   30.9700 C   0  0  0  0  0  0  0  0  0  0  0  0
   35.3690   29.4480   31.8400 C   0  0  0  0  0  0  0  0  0  0  0  0
   35.5450   28.2150   32.3880 N   0  0  0  0  0  0  0  0  0  0  0  0
   36.6250   27.4480   32.1180 C   0  0  0  0  0  0  0  0  0  0  0  0
   37.5750   27.8890   31.2840 N   0  0  0  0  0  0  0  0  0  0  0  0
   38.2480   29.4120   30.0460 H   0  0  0  0  0  0  0  0  0  0  0  0
   36.3450   30.8710   30.4630 H   0  0  0  0  0  0  0  0  0  0  0  0
   34.5320   30.0850   32.0260 H   0  0  0  0  0  0  0  0  0  0  0  0
  1  5  1  0  0  0  0
  1  2  2  0  0  0  0
  2  3  1  0  0  0  0
  3  7  1  0  0  0  0
  4  3  2  0  0  0  0
  4  8  1  0  0  0  0
  5  4  1  0  0  0  0
  6  2  1  0  0  0  0
  8 14  2  0  0  0  0
  9  8  1  0  0  0  0
  9 10  2  0  0  0  0
 10 11  1  0  0  0  0
 10 12  1  0  0  0  0
 12 13  1  0  0  0  0
 14 12  1  0  0  0  0
 15  1  1  0  0  0  0
 16 15  2  0  0  0  0
 17 18  2  0  0  0  0
 17 22  1  0  0  0  0
 18 19  1  0  0  0  0
 19 25  1  0  0  0  0
 19 20  2  0  0  0  0
 21 20  1  0  0  0  0
 21 15  1  0  0  0  0
 22 21  2  0  0  0  0
 23 17  1  0  0  0  0
 24 18  1  0  0  0  0
M  END
>  <minimizedAffinity>
-5.01779652

$$$$

 OpenBabel03272508463D

 25 27  0  0  0  0  0  0  0  0999 V2000
   37.9520   25.5010   35.5040 C   0  0  0  0  0  0  0  0  0  0  0  0
   38.1440   26.8260   35.8670 C   0  0  0  0  0  0  0  0  0  0  0  0
   37.7960   27.5080   34.7060 C   0  0  0  0  0  0  0  0  0  0  0  0
   37.4240   26.6040   33.7330 C   0  0  0  0  0  0  0  0  0  0  0  0
   37.5250   25.4050   34.2350 O   0  0  0  0  0  0  0  0  0  0  0  0
   38.4810   27.1700   36.8260 H   0  0  0  0  0  0  0  0  0  0  0  0
   37.8250   28.5970   34.6170 H   0  0  0  0  0  0  0  0  0  0  0  0
   36.9960   26.9580   32.3840 C   0  0  0  0  0  0  0  0  0  0  0  0
   37.3040   28.0800   31.7100 N   0  0  0  0  0  0  0  0  0  0  0  0
   36.7480   28.0970   30.4870 C   0  0  0  0  0  0  0  0  0  0  0  0
   36.8620   28.8990   29.7740 H   0  0  0  0  0  0  0  0  0  0  0  0
   36.0640   26.9240   30.4120 N   0  0  0  0  0  0  0  0  0  0  0  0
   35.5370   26.7140   29.5250 H   0  0  0  0  0  0  0  0  0  0  0  0
   36.2160   26.2430   31.5540 N   0  0  0  0  0  0  0  0  0  0  0  0
   38.1860   24.3590   36.4000 C   0  0  0  0  0  0  0  0  0  0  0  0
   37.2280   23.9890   37.1340 O   0  0  0  0  0  0  0  0  0  0  0  0
   40.8660   22.1370   37.4300 C   0  0  0  0  0  0  0  0  0  0  0  0
   41.8870   22.4140   36.5320 C   0  0  0  0  0  0  0  0  0  0  0  0
   41.6680   23.3790   35.5490 C   0  0  0  0  0  0  0  0  0  0  0  0
   40.4540   23.9930   35.5310 N   0  0  0  0  0  0  0  0  0  0  0  0
   39.4790   23.7010   36.4210 C   0  0  0  0  0  0  0  0  0  0  0  0
   39.6830   22.7770   37.3660 N   0  0  0  0  0  0  0  0  0  0  0  0
   40.9800   21.3970   38.2150 H   0  0  0  0  0  0  0  0  0  0  0  0
   42.8010   21.8460   36.6640 H   0  0  0  0  0  0  0  0  0  0  0  0
   42.4640   23.5790   34.8650 H   0  0  0  0  0  0  0  0  0  0  0  0
  1  2  2  0  0  0  0
  1 15  1  0  0  0  0
  2  6  1  0  0  0  0
  3  2  1  0  0  0  0
  4  5  1  0  0  0  0
  4  3  2  0  0  0  0
  5  1  1  0  0  0  0
  7  3  1  0  0  0  0
  8  4  1  0  0  0  0
  9  8  1  0  0  0  0
 10  9  2  0  0  0  0
 11 10  1  0  0  0  0
 12 10  1  0  0  0  0
 12 14  1  0  0  0  0
 13 12  1  0  0  0  0
 14  8  2  0  0  0  0
 15 21  1  0  0  0  0
 15 16  2  0  0  0  0
 17 23  1  0  0  0  0
 18 24  1  0  0  0  0
 18 17  2  0  0  0  0
 19 18  1  0  0  0  0
 20 19  2  0  0  0  0
 20 21  1  0  0  0  0
 21 22  2  0  0  0  0
 22 17  1  0  0  0  0
 25 19  1  0  0  0  0
M  END
>  <minimizedAffinity>
-4.98337412

$$$$

 OpenBabel03272508463D

 25 27  0  0  0  0  0  0  0  0999 V2000
   37.9790   26.2710   34.2480 C   0  0  0  0  0  0  0  0  0  0  0  0
   37.8900   27.1580   35.3100 C   0  0  0  0  0  0  0  0  0  0  0  0
   38.3190   26.3850   36.3830 C   0  0  0  0  0  0  0  0  0  0  0  0
   38.6360   25.1170   35.9410 C   0  0  0  0  0  0  0  0  0  0  0  0
   38.4250   25.0720   34.6560 O   0  0  0  0  0  0  0  0  0  0  0  0
   37.5600   28.1780   35.2480 H   0  0  0  0  0  0  0  0  0  0  0  0
   38.3820   26.7610   37.4080 H   0  0  0  0  0  0  0  0  0  0  0  0
   39.1220   24.0350   36.7900 C   0  0  0  0  0  0  0  0  0  0  0  0
   40.1820   23.2430   36.5570 N   0  0  0  0  0  0  0  0  0  0  0  0
   40.3600   22.3420   37.5380 C   0  0  0  0  0  0  0  0  0  0  0  0
   41.1490   21.6070   37.5590 H   0  0  0  0  0  0  0  0  0  0  0  0
   39.3540   22.6000   38.4170 N   0  0  0  0  0  0  0  0  0  0  0  0
   39.2890   22.0060   39.2850 H   0  0  0  0  0  0  0  0  0  0  0  0
   38.6130   23.6180   37.9630 N   0  0  0  0  0  0  0  0  0  0  0  0
   37.6310   26.6090   32.8590 C   0  0  0  0  0  0  0  0  0  0  0  0
   38.1320   27.6600   32.3730 O   0  0  0  0  0  0  0  0  0  0  0  0
   34.8160   25.5680   30.8170 C   0  0  0  0  0  0  0  0  0  0  0  0
   35.0150   24.2040   30.6520 C   0  0  0  0  0  0  0  0  0  0  0  0
   36.1310   23.6160   31.2480 C   0  0  0  0  0  0  0  0  0  0  0  0
   36.9630   24.4240   31.9580 N   0  0  0  0  0  0  0  0  0  0  0  0
   36.7420   25.7500   32.1010 C   0  0  0  0  0  0  0  0  0  0  0  0
   35.6730   26.3200   31.5320 N   0  0  0  0  0  0  0  0  0  0  0  0
   33.9660   26.0790   30.3780 H   0  0  0  0  0  0  0  0  0  0  0  0
   34.2710   23.6850   30.0600 H   0  0  0  0  0  0  0  0  0  0  0  0
   36.2690   22.5650   31.1100 H   0  0  0  0  0  0  0  0  0  0  0  0
  1  5  1  0  0  0  0
  1  2  2  0  0  0  0
  2  3  1  0  0  0  0
  3  7  1  0  0  0  0
  4  3  2  0  0  0  0
  4  8  1  0  0  0  0
  5  4  1  0  0  0  0
  6  2  1  0  0  0  0
  8 14  2  0  0  0  0
  9  8  1  0  0  0  0
  9 10  2  0  0  0  0
 10 11  1  0  0  0  0
 10 12  1  0  0  0  0
 12 13  1  0  0  0  0
 14 12  1  0  0  0  0
 15  1  1  0  0  0  0
 16 15  2  0  0  0  0
 17 22  1  0  0  0  0
 18 17  2  0  0  0  0
 18 19  1  0  0  0  0
 19 20  2  0  0  0  0
 20 21  1  0  0  0  0
 21 15  1  0  0  0  0
 22 21  2  0  0  0  0
 23 17  1  0  0  0  0
 24 18  1  0  0  0  0
 25 19  1  0  0  0  0
M  END
>  <minimizedAffinity>
-4.92727137

$$$$

 OpenBabel03272508463D

 25 27  0  0  0  0  0  0  0  0999 V2000
   37.7190   23.4340   33.4040 C   0  0  0  0  0  0  0  0  0  0  0  0
   37.0880   24.0050   32.3090 C   0  0  0  0  0  0  0  0  0  0  0  0
   36.3240   22.9510   31.8200 C   0  0  0  0  0  0  0  0  0  0  0  0
   36.5180   21.8350   32.6090 C   0  0  0  0  0  0  0  0  0  0  0  0
   37.3580   22.1500   33.5540 O   0  0  0  0  0  0  0  0  0  0  0  0
   37.2060   25.0180   31.9740 H   0  0  0  0  0  0  0  0  0  0  0  0
   35.6790   23.0320   30.9410 H   0  0  0  0  0  0  0  0  0  0  0  0
   35.8780   20.5420   32.3980 C   0  0  0  0  0  0  0  0  0  0  0  0
   36.4610   19.3330   32.4720 N   0  0  0  0  0  0  0  0  0  0  0  0
   35.5890   18.3410   32.2210 C   0  0  0  0  0  0  0  0  0  0  0  0
   35.8390   17.2910   32.2280 H   0  0  0  0  0  0  0  0  0  0  0  0
   34.4120   18.9800   31.9820 N   0  0  0  0  0  0  0  0  0  0  0  0
   33.5670   18.3930   31.7570 H   0  0  0  0  0  0  0  0  0  0  0  0
   34.5910   20.3020   32.0890 N   0  0  0  0  0  0  0  0  0  0  0  0
   38.6560   24.1520   34.2810 C   0  0  0  0  0  0  0  0  0  0  0  0
   39.4060   25.0160   33.7490 O   0  0  0  0  0  0  0  0  0  0  0  0
   39.7910   22.7960   37.4520 C   0  0  0  0  0  0  0  0  0  0  0  0
   38.8500   23.2550   38.3630 C   0  0  0  0  0  0  0  0  0  0  0  0
   37.8000   24.0450   37.8950 C   0  0  0  0  0  0  0  0  0  0  0  0
   37.7640   24.3200   36.5640 N   0  0  0  0  0  0  0  0  0  0  0  0
   38.6970   23.8580   35.7010 C   0  0  0  0  0  0  0  0  0  0  0  0
   39.7060   23.0990   36.1430 N   0  0  0  0  0  0  0  0  0  0  0  0
   40.6280   22.1780   37.7580 H   0  0  0  0  0  0  0  0  0  0  0  0
   39.0040   22.9580   39.3930 H   0  0  0  0  0  0  0  0  0  0  0  0
   37.0850   24.3910   38.6100 H   0  0  0  0  0  0  0  0  0  0  0  0
  1  5  1  0  0  0  0
  1 15  1  0  0  0  0
  2  1  2  0  0  0  0
  3  2  1  0  0  0  0
  3  4  2  0  0  0  0
  4  5  1  0  0  0  0
  6  2  1  0  0  0  0
  7  3  1  0  0  0  0
  8  9  1  0  0  0  0
  8  4  1  0  0  0  0
 10 11  1  0  0  0  0
 10  9  2  0  0  0  0
 12 14  1  0  0  0  0
 12 10  1  0  0  0  0
 13 12  1  0  0  0  0
 14  8  2  0  0  0  0
 15 21  1  0  0  0  0
 16 15  2  0  0  0  0
 17 23  1  0  0  0  0
 17 18  1  0  0  0  0
 18 24  1  0  0  0  0
 19 18  2  0  0  0  0
 19 25  1  0  0  0  0
 20 19  1  0  0  0  0
 21 22  1  0  0  0  0
 21 20  2  0  0  0  0
 22 17  2  0  0  0  0
M  END
>  <minimizedAffinity>
-4.86475801

$$$$

 OpenBabel03272508463D

 25 27  0  0  0  0  0  0  0  0999 V2000
   37.6030   26.4730   34.2850 C   0  0  0  0  0  0  0  0  0  0  0  0
   37.8810   27.5070   35.1670 C   0  0  0  0  0  0  0  0  0  0  0  0
   38.2350   26.8260   36.3260 C   0  0  0  0  0  0  0  0  0  0  0  0
   38.1590   25.4660   36.1040 C   0  0  0  0  0  0  0  0  0  0  0  0
   37.7780   25.2790   34.8710 O   0  0  0  0  0  0  0  0  0  0  0  0
   37.8180   28.5550   34.9440 H   0  0  0  0  0  0  0  0  0  0  0  0
   38.5250   27.3260   37.2530 H   0  0  0  0  0  0  0  0  0  0  0  0
   38.4590   24.4400   37.0960 C   0  0  0  0  0  0  0  0  0  0  0  0
   38.0060   24.3850   38.3600 N   0  0  0  0  0  0  0  0  0  0  0  0
   38.4730   23.3070   39.0120 C   0  0  0  0  0  0  0  0  0  0  0  0
   38.2390   23.0630   40.0370 H   0  0  0  0  0  0  0  0  0  0  0  0
   39.2530   22.6710   38.0970 N   0  0  0  0  0  0  0  0  0  0  0  0
   39.7340   21.7810   38.3890 H   0  0  0  0  0  0  0  0  0  0  0  0
   39.2410   23.3560   36.9470 N   0  0  0  0  0  0  0  0  0  0  0  0
   37.1750   26.6710   32.8920 C   0  0  0  0  0  0  0  0  0  0  0  0
   36.3920   27.6320   32.6540 O   0  0  0  0  0  0  0  0  0  0  0  0
   37.3100   23.8290   30.6370 C   0  0  0  0  0  0  0  0  0  0  0  0
   38.4670   24.0460   29.9020 C   0  0  0  0  0  0  0  0  0  0  0  0
   39.2260   25.1840   30.1740 C   0  0  0  0  0  0  0  0  0  0  0  0
   38.7800   26.0190   31.1510 N   0  0  0  0  0  0  0  0  0  0  0  0
   37.6480   25.7800   31.8500 C   0  0  0  0  0  0  0  0  0  0  0  0
   36.9150   24.6890   31.5940 N   0  0  0  0  0  0  0  0  0  0  0  0
   36.6800   22.9620   30.4700 H   0  0  0  0  0  0  0  0  0  0  0  0
   38.7000   23.2980   29.1540 H   0  0  0  0  0  0  0  0  0  0  0  0
   40.1130   25.3370   29.5990 H   0  0  0  0  0  0  0  0  0  0  0  0
  1  5  1  0  0  0  0
  1  2  2  0  0  0  0
  2  3  1  0  0  0  0
  3  7  1  0  0  0  0
  4  3  2  0  0  0  0
  4  8  1  0  0  0  0
  5  4  1  0  0  0  0
  6  2  1  0  0  0  0
  8  9  1  0  0  0  0
  9 10  2  0  0  0  0
 10 11  1  0  0  0  0
 12 13  1  0  0  0  0
 12 10  1  0  0  0  0
 14  8  2  0  0  0  0
 14 12  1  0  0  0  0
 15  1  1  0  0  0  0
 16 15  2  0  0  0  0
 17 22  1  0  0  0  0
 18 19  1  0  0  0  0
 18 17  2  0  0  0  0
 19 20  2  0  0  0  0
 20 21  1  0  0  0  0
 21 15  1  0  0  0  0
 22 21  2  0  0  0  0
 23 17  1  0  0  0  0
 24 18  1  0  0  0  0
 25 19  1  0  0  0  0
M  END
>  <minimizedAffinity>
-4.80950689

$$$$

 OpenBabel03272508463D

 25 27  0  0  0  0  0  0  0  0999 V2000
   37.8300   23.8120   32.9490 C   0  0  0  0  0  0  0  0  0  0  0  0
   38.7000   24.8910   32.9880 C   0  0  0  0  0  0  0  0  0  0  0  0
   39.1580   24.8600   34.3000 C   0  0  0  0  0  0  0  0  0  0  0  0
   38.5690   23.8070   34.9700 C   0  0  0  0  0  0  0  0  0  0  0  0
   37.7760   23.1920   34.1380 O   0  0  0  0  0  0  0  0  0  0  0  0
   38.9200   25.5490   32.1680 H   0  0  0  0  0  0  0  0  0  0  0  0
   39.8760   25.5780   34.7040 H   0  0  0  0  0  0  0  0  0  0  0  0
   38.8120   23.4660   36.3670 C   0  0  0  0  0  0  0  0  0  0  0  0
   38.1470   23.9340   37.4370 N   0  0  0  0  0  0  0  0  0  0  0  0
   38.6210   23.4190   38.5850 C   0  0  0  0  0  0  0  0  0  0  0  0
   38.2370   23.6530   39.5660 H   0  0  0  0  0  0  0  0  0  0  0  0
   39.6290   22.5940   38.1920 N   0  0  0  0  0  0  0  0  0  0  0  0
   40.1590   22.0700   38.9370 H   0  0  0  0  0  0  0  0  0  0  0  0
   39.7400   22.6260   36.8590 N   0  0  0  0  0  0  0  0  0  0  0  0
   37.0710   23.4080   31.7560 C   0  0  0  0  0  0  0  0  0  0  0  0
   36.9570   24.2520   30.8250 O   0  0  0  0  0  0  0  0  0  0  0  0
   36.6790   19.8960   30.9220 C   0  0  0  0  0  0  0  0  0  0  0  0
   35.4550   19.5580   31.4840 C   0  0  0  0  0  0  0  0  0  0  0  0
   34.7400   20.5430   32.1650 C   0  0  0  0  0  0  0  0  0  0  0  0
   35.2910   21.7840   32.2370 N   0  0  0  0  0  0  0  0  0  0  0  0
   36.4860   22.0830   31.6780 C   0  0  0  0  0  0  0  0  0  0  0  0
   37.1770   21.1420   31.0230 N   0  0  0  0  0  0  0  0  0  0  0  0
   37.2790   19.1720   30.3810 H   0  0  0  0  0  0  0  0  0  0  0  0
   35.1400   18.5300   31.3500 H   0  0  0  0  0  0  0  0  0  0  0  0
   33.8010   20.2660   32.5930 H   0  0  0  0  0  0  0  0  0  0  0  0
  1  2  2  0  0  0  0
  1  5  1  0  0  0  0
  2  3  1  0  0  0  0
  3  7  1  0  0  0  0
  3  4  2  0  0  0  0
  4  8  1  0  0  0  0
  5  4  1  0  0  0  0
  6  2  1  0  0  0  0
  8 14  2  0  0  0  0
  8  9  1  0  0  0  0
  9 10  2  0  0  0  0
 10 11  1  0  0  0  0
 12 10  1  0  0  0  0
 12 13  1  0  0  0  0
 14 12  1  0  0  0  0
 15  1  1  0  0  0  0
 16 15  2  0  0  0  0
 17 22  2  0  0  0  0
 17 18  1  0  0  0  0
 18 19  2  0  0  0  0
 19 20  1  0  0  0  0
 19 25  1  0  0  0  0
 21 15  1  0  0  0  0
 21 20  2  0  0  0  0
 22 21  1  0  0  0  0
 23 17  1  0  0  0  0
 24 18  1  0  0  0  0
M  END
>  <minimizedAffinity>
-4.80178547

$$$$

 OpenBabel03272508463D

 25 27  0  0  0  0  0  0  0  0999 V2000
   37.0910   27.4500   34.6700 C   0  0  0  0  0  0  0  0  0  0  0  0
   38.0300   27.8860   35.5930 C   0  0  0  0  0  0  0  0  0  0  0  0
   38.5240   26.6910   36.1040 C   0  0  0  0  0  0  0  0  0  0  0  0
   37.8900   25.6290   35.4930 C   0  0  0  0  0  0  0  0  0  0  0  0
   37.0340   26.1090   34.6350 O   0  0  0  0  0  0  0  0  0  0  0  0
   38.2660   28.9100   35.8120 H   0  0  0  0  0  0  0  0  0  0  0  0
   39.2990   26.6410   36.8740 H   0  0  0  0  0  0  0  0  0  0  0  0
   38.1530   24.2230   35.7770 C   0  0  0  0  0  0  0  0  0  0  0  0
   38.1550   23.2100   34.8950 N   0  0  0  0  0  0  0  0  0  0  0  0
   38.4350   22.0340   35.4840 C   0  0  0  0  0  0  0  0  0  0  0  0
   38.4900   21.0880   34.9670 H   0  0  0  0  0  0  0  0  0  0  0  0
   38.6140   22.3490   36.7950 N   0  0  0  0  0  0  0  0  0  0  0  0
   38.8480   21.5700   37.4640 H   0  0  0  0  0  0  0  0  0  0  0  0
   38.4430   23.6650   36.9660 N   0  0  0  0  0  0  0  0  0  0  0  0
   36.2720   28.3480   33.8420 C   0  0  0  0  0  0  0  0  0  0  0  0
   35.3200   28.9540   34.4060 O   0  0  0  0  0  0  0  0  0  0  0  0
   36.2790   29.7680   30.5000 C   0  0  0  0  0  0  0  0  0  0  0  0
   37.0760   28.8950   29.7730 C   0  0  0  0  0  0  0  0  0  0  0  0
   37.6280   27.7930   30.4270 C   0  0  0  0  0  0  0  0  0  0  0  0
   37.3490   27.6430   31.7500 N   0  0  0  0  0  0  0  0  0  0  0  0
   36.5680   28.5110   32.4310 C   0  0  0  0  0  0  0  0  0  0  0  0
   36.0350   29.5700   31.8090 N   0  0  0  0  0  0  0  0  0  0  0  0
   35.8230   30.6400   30.0450 H   0  0  0  0  0  0  0  0  0  0  0  0
   37.2130   29.1400   28.7260 H   0  0  0  0  0  0  0  0  0  0  0  0
   38.2390   27.1320   29.8520 H   0  0  0  0  0  0  0  0  0  0  0  0
  1  2  2  0  0  0  0
  2  6  1  0  0  0  0
  2  3  1  0  0  0  0
  3  7  1  0  0  0  0
  4  8  1  0  0  0  0
  4  3  2  0  0  0  0
  5  1  1  0  0  0  0
  5  4  1  0  0  0  0
  8 14  2  0  0  0  0
  9 10  2  0  0  0  0
  9  8  1  0  0  0  0
 10 12  1  0  0  0  0
 11 10  1  0  0  0  0
 12 14  1  0  0  0  0
 12 13  1  0  0  0  0
 15 16  2  0  0  0  0
 15  1  1  0  0  0  0
 17 22  1  0  0  0  0
 18 19  1  0  0  0  0
 18 17  2  0  0  0  0
 19 20  2  0  0  0  0
 20 21  1  0  0  0  0
 21 15  1  0  0  0  0
 22 21  2  0  0  0  0
 23 17  1  0  0  0  0
 24 18  1  0  0  0  0
 25 19  1  0  0  0  0
M  END
>  <minimizedAffinity>
-4.79151773

$$$$

 OpenBabel03272508463D

 25 27  0  0  0  0  0  0  0  0999 V2000
   37.8180   26.4020   33.9760 C   0  0  0  0  0  0  0  0  0  0  0  0
   39.1570   26.7570   34.0400 C   0  0  0  0  0  0  0  0  0  0  0  0
   39.6200   25.9880   35.1020 C   0  0  0  0  0  0  0  0  0  0  0  0
   38.5840   25.2320   35.6110 C   0  0  0  0  0  0  0  0  0  0  0  0
   37.5120   25.4970   34.9190 O   0  0  0  0  0  0  0  0  0  0  0  0
   39.6500   27.4620   33.3980 H   0  0  0  0  0  0  0  0  0  0  0  0
   40.6560   26.0060   35.4510 H   0  0  0  0  0  0  0  0  0  0  0  0
   38.6990   24.3060   36.7320 C   0  0  0  0  0  0  0  0  0  0  0  0
   37.9530   24.2960   37.8490 N   0  0  0  0  0  0  0  0  0  0  0  0
   38.3170   23.3090   38.6850 C   0  0  0  0  0  0  0  0  0  0  0  0
   37.8530   23.1140   39.6400 H   0  0  0  0  0  0  0  0  0  0  0  0
   39.3410   22.6840   38.0430 N   0  0  0  0  0  0  0  0  0  0  0  0
   39.7950   21.8620   38.5190 H   0  0  0  0  0  0  0  0  0  0  0  0
   39.5670   23.2870   36.8700 N   0  0  0  0  0  0  0  0  0  0  0  0
   36.8660   26.9500   32.9980 C   0  0  0  0  0  0  0  0  0  0  0  0
   36.4930   26.1920   32.0600 O   0  0  0  0  0  0  0  0  0  0  0  0
   35.9700   30.3500   32.0940 C   0  0  0  0  0  0  0  0  0  0  0  0
   35.5110   30.8980   33.2840 C   0  0  0  0  0  0  0  0  0  0  0  0
   35.5030   30.0980   34.4270 C   0  0  0  0  0  0  0  0  0  0  0  0
   35.9490   28.8190   34.3020 N   0  0  0  0  0  0  0  0  0  0  0  0
   36.3900   28.3150   33.1280 C   0  0  0  0  0  0  0  0  0  0  0  0
   36.4010   29.0770   32.0280 N   0  0  0  0  0  0  0  0  0  0  0  0
   35.9990   30.9250   31.1740 H   0  0  0  0  0  0  0  0  0  0  0  0
   35.1850   31.9300   33.2360 H   0  0  0  0  0  0  0  0  0  0  0  0
   35.1470   30.5350   35.3340 H   0  0  0  0  0  0  0  0  0  0  0  0
  1  2  2  0  0  0  0
  1  5  1  0  0  0  0
  2  3  1  0  0  0  0
  3  7  1  0  0  0  0
  3  4  2  0  0  0  0
  4  8  1  0  0  0  0
  5  4  1  0  0  0  0
  6  2  1  0  0  0  0
  8 14  2  0  0  0  0
  8  9  1  0  0  0  0
  9 10  2  0  0  0  0
 10 11  1  0  0  0  0
 12 13  1  0  0  0  0
 12 10  1  0  0  0  0
 14 12  1  0  0  0  0
 15 21  1  0  0  0  0
 15  1  1  0  0  0  0
 16 15  2  0  0  0  0
 17 18  1  0  0  0  0
 18 19  2  0  0  0  0
 19 25  1  0  0  0  0
 20 19  1  0  0  0  0
 21 20  2  0  0  0  0
 22 17  2  0  0  0  0
 22 21  1  0  0  0  0
 23 17  1  0  0  0  0
 24 18  1  0  0  0  0
M  END
>  <minimizedAffinity>
-4.73673105

$$$$

 OpenBabel03272508463D

 25 27  0  0  0  0  0  0  0  0999 V2000
   38.5270   25.1820   35.9140 C   0  0  0  0  0  0  0  0  0  0  0  0
   37.6880   24.5330   36.8070 C   0  0  0  0  0  0  0  0  0  0  0  0
   38.4280   23.4060   37.1490 C   0  0  0  0  0  0  0  0  0  0  0  0
   39.6320   23.4220   36.4750 C   0  0  0  0  0  0  0  0  0  0  0  0
   39.6690   24.4980   35.7410 O   0  0  0  0  0  0  0  0  0  0  0  0
   36.7170   24.8720   37.1160 H   0  0  0  0  0  0  0  0  0  0  0  0
   38.0750   22.6440   37.8490 H   0  0  0  0  0  0  0  0  0  0  0  0
   40.6640   22.3980   36.5870 C   0  0  0  0  0  0  0  0  0  0  0  0
   41.4880   21.9750   35.6130 N   0  0  0  0  0  0  0  0  0  0  0  0
   42.3250   21.0180   36.0460 C   0  0  0  0  0  0  0  0  0  0  0  0
   43.0720   20.5350   35.4340 H   0  0  0  0  0  0  0  0  0  0  0  0
   41.9940   20.8480   37.3550 N   0  0  0  0  0  0  0  0  0  0  0  0
   42.5290   20.1320   37.9120 H   0  0  0  0  0  0  0  0  0  0  0  0
   40.9960   21.6800   37.6750 N   0  0  0  0  0  0  0  0  0  0  0  0
   38.2000   26.4530   35.2510 C   0  0  0  0  0  0  0  0  0  0  0  0
   38.5700   27.5180   35.8180 O   0  0  0  0  0  0  0  0  0  0  0  0
   36.2710   27.6720   32.4270 C   0  0  0  0  0  0  0  0  0  0  0  0
   36.0980   26.5450   31.6350 C   0  0  0  0  0  0  0  0  0  0  0  0
   36.6470   25.3380   32.0640 C   0  0  0  0  0  0  0  0  0  0  0  0
   37.3250   25.3390   33.2430 N   0  0  0  0  0  0  0  0  0  0  0  0
   37.4760   26.4540   33.9930 C   0  0  0  0  0  0  0  0  0  0  0  0
   36.9520   27.6160   33.5870 N   0  0  0  0  0  0  0  0  0  0  0  0
   35.8660   28.6380   32.1440 H   0  0  0  0  0  0  0  0  0  0  0  0
   35.5360   26.6920   30.7200 H   0  0  0  0  0  0  0  0  0  0  0  0
   36.5050   24.4810   31.4420 H   0  0  0  0  0  0  0  0  0  0  0  0
  1  2  2  0  0  0  0
  2  6  1  0  0  0  0
  2  3  1  0  0  0  0
  3  7  1  0  0  0  0
  4  8  1  0  0  0  0
  4  3  2  0  0  0  0
  5  1  1  0  0  0  0
  5  4  1  0  0  0  0
  8 14  2  0  0  0  0
  9 10  2  0  0  0  0
  9  8  1  0  0  0  0
 10 12  1  0  0  0  0
 11 10  1  0  0  0  0
 12 14  1  0  0  0  0
 12 13  1  0  0  0  0
 15 16  2  0  0  0  0
 15  1  1  0  0  0  0
 17 22  1  0  0  0  0
 18 19  1  0  0  0  0
 18 17  2  0  0  0  0
 19 20  2  0  0  0  0
 20 21  1  0  0  0  0
 21 15  1  0  0  0  0
 22 21  2  0  0  0  0
 23 17  1  0  0  0  0
 24 18  1  0  0  0  0
 25 19  1  0  0  0  0
M  END
>  <minimizedAffinity>
-4.6407876

$$$$
