
 OpenBabel03272510133D

 39 42  0  0  0  0  0  0  0  0999 V2000
   38.4080   31.3110   48.7000 C   0  0  0  0  0  0  0  0  0  0  0  0
   38.4450   32.5190   49.3570 C   0  0  0  0  0  0  0  0  0  0  0  0
   39.0280   33.4400   48.4810 C   0  0  0  0  0  0  0  0  0  0  0  0
   39.3150   32.7760   47.3560 N   0  0  0  0  0  0  0  0  0  0  0  0
   38.9500   31.5420   47.4980 N   0  0  0  0  0  0  0  0  0  0  0  0
   38.1450   32.8870   50.3290 H   0  0  0  0  0  0  0  0  0  0  0  0
   39.2350   34.5040   48.6240 H   0  0  0  0  0  0  0  0  0  0  0  0
   39.9310   33.3300   46.1860 C   0  0  0  0  0  0  0  0  0  0  0  0
   40.5260   34.2070   46.5040 H   0  0  0  0  0  0  0  0  0  0  0  0
   39.1660   33.7660   45.4800 H   0  0  0  0  0  0  0  0  0  0  0  0
   40.7660   32.2970   45.5230 C   0  0  0  0  0  0  0  0  0  0  0  0
   41.8170   32.6770   45.5330 H   0  0  0  0  0  0  0  0  0  0  0  0
   40.8110   31.4220   46.2420 H   0  0  0  0  0  0  0  0  0  0  0  0
   40.4190   31.8640   44.1920 C   0  0  0  0  0  0  0  0  0  0  0  0
   39.7040   32.6490   43.3340 N   0  0  0  0  0  0  0  0  0  0  0  0
   39.5150   32.0260   42.1630 C   0  0  0  0  0  0  0  0  0  0  0  0
   38.9920   32.3790   41.2820 H   0  0  0  0  0  0  0  0  0  0  0  0
   40.1120   30.8290   42.2640 N   0  0  0  0  0  0  0  0  0  0  0  0
   40.1990   30.0460   41.5870 H   0  0  0  0  0  0  0  0  0  0  0  0
   40.6400   30.7510   43.4690 N   0  0  0  0  0  0  0  0  0  0  0  0
   37.8580   30.2730   49.4250 O   0  0  0  0  0  0  0  0  0  0  0  0
   34.0650   28.8280   48.3180 C   0  0  0  0  0  0  0  0  0  0  0  0
   34.6870   28.3870   49.4450 C   0  0  0  0  0  0  0  0  0  0  0  0
   35.9200   28.8130   49.8650 C   0  0  0  0  0  0  0  0  0  0  0  0
   36.6110   29.7350   49.1480 C   0  0  0  0  0  0  0  0  0  0  0  0
   35.9880   30.1980   47.9900 C   0  0  0  0  0  0  0  0  0  0  0  0
   34.7710   29.7560   47.6040 N   0  0  0  0  0  0  0  0  0  0  0  0
   34.2080   27.6540   50.0730 H   0  0  0  0  0  0  0  0  0  0  0  0
   36.4070   28.4530   50.7690 H   0  0  0  0  0  0  0  0  0  0  0  0
   36.4610   30.9390   47.3450 H   0  0  0  0  0  0  0  0  0  0  0  0
   31.9180   27.6090   48.6390 C   0  0  0  0  0  0  0  0  0  0  0  0
   32.7810   28.3910   47.8660 C   0  0  0  0  0  0  0  0  0  0  0  0
   32.3430   28.7410   46.6070 C   0  0  0  0  0  0  0  0  0  0  0  0
   31.1160   28.3230   46.1710 N   0  0  0  0  0  0  0  0  0  0  0  0
   30.3210   27.5660   46.9640 C   0  0  0  0  0  0  0  0  0  0  0  0
   30.7050   27.1940   48.2130 N   0  0  0  0  0  0  0  0  0  0  0  0
   32.2160   27.3100   49.6320 H   0  0  0  0  0  0  0  0  0  0  0  0
   32.9840   29.3500   45.9730 H   0  0  0  0  0  0  0  0  0  0  0  0
   29.3700   27.2940   46.5130 H   0  0  0  0  0  0  0  0  0  0  0  0
  1  2  1  0  0  0  0
  1 21  1  0  0  0  0
  2  6  1  0  0  0  0
  3  7  1  0  0  0  0
  3  2  2  0  0  0  0
  4  5  1  0  0  0  0
  4  3  1  0  0  0  0
  5  1  2  0  0  0  0
  8  9  1  0  0  0  0
  8  4  1  0  0  0  0
 10  8  1  0  0  0  0
 11 12  1  0  0  0  0
 11  8  1  0  0  0  0
 11 13  1  0  0  0  0
 14 11  1  0  0  0  0
 15 14  1  0  0  0  0
 16 18  1  0  0  0  0
 16 15  2  0  0  0  0
 17 16  1  0  0  0  0
 18 20  1  0  0  0  0
 19 18  1  0  0  0  0
 20 14  2  0  0  0  0
 22 23  1  0  0  0  0
 23 24  2  0  0  0  0
 23 28  1  0  0  0  0
 24 29  1  0  0  0  0
 25 21  1  0  0  0  0
 25 24  1  0  0  0  0
 26 25  2  0  0  0  0
 27 26  1  0  0  0  0
 27 22  2  0  0  0  0
 30 26  1  0  0  0  0
 31 37  1  0  0  0  0
 32 22  1  0  0  0  0
 32 31  2  0  0  0  0
 33 32  1  0  0  0  0
 34 33  2  0  0  0  0
 34 35  1  0  0  0  0
 35 36  2  0  0  0  0
 36 31  1  0  0  0  0
 38 33  1  0  0  0  0
 39 35  1  0  0  0  0
M  END
>  <minimizedAffinity>
-6.16238594

>  <minimizedRMSD>
1.15487671

$$$$
