
 OpenBabel03272505093D

 27 29  0  0  0  0  0  0  0  0999 V2000
   36.3770   30.9060   45.3730 Cl  0  0  0  0  0  0  0  0  0  0  0  0
   36.6210   30.5620   47.0670 C   0  0  0  0  0  0  0  0  0  0  0  0
   37.8570   30.8310   47.5730 C   0  0  0  0  0  0  0  0  0  0  0  0
   38.0720   30.5640   48.9270 C   0  0  0  0  0  0  0  0  0  0  0  0
   37.0510   30.0470   49.6930 C   0  0  0  0  0  0  0  0  0  0  0  0
   35.8340   29.8020   49.1160 C   0  0  0  0  0  0  0  0  0  0  0  0
   35.5670   30.0430   47.8030 C   0  0  0  0  0  0  0  0  0  0  0  0
   39.0420   30.7670   49.3520 H   0  0  0  0  0  0  0  0  0  0  0  0
   37.2510   29.8520   50.7380 H   0  0  0  0  0  0  0  0  0  0  0  0
   35.0390   29.3970   49.7290 H   0  0  0  0  0  0  0  0  0  0  0  0
   40.1130   33.2640   46.0410 C   0  0  0  0  0  0  0  0  0  0  0  0
   40.9240   32.4830   45.1840 C   0  0  0  0  0  0  0  0  0  0  0  0
   40.6710   31.1080   45.1500 C   0  0  0  0  0  0  0  0  0  0  0  0
   39.6750   30.5990   45.9310 N   0  0  0  0  0  0  0  0  0  0  0  0
   38.9330   31.3840   46.7300 C   0  0  0  0  0  0  0  0  0  0  0  0
   39.1620   32.6910   46.7710 N   0  0  0  0  0  0  0  0  0  0  0  0
   40.2700   34.3210   46.0990 H   0  0  0  0  0  0  0  0  0  0  0  0
   41.7020   32.9480   44.5850 H   0  0  0  0  0  0  0  0  0  0  0  0
   41.2700   30.4760   44.5060 H   0  0  0  0  0  0  0  0  0  0  0  0
   33.9930   29.7390   47.0050 S   0  0  0  0  0  0  0  0  0  0  0  0
   33.4240   28.0840   47.3570 C   0  0  0  0  0  0  0  0  0  0  0  0
   32.1870   27.9940   47.8800 N   0  0  0  0  0  0  0  0  0  0  0  0
   31.8520   26.7160   48.1080 C   0  0  0  0  0  0  0  0  0  0  0  0
   30.9420   26.2930   48.5180 H   0  0  0  0  0  0  0  0  0  0  0  0
   32.9130   25.9940   47.7160 N   0  0  0  0  0  0  0  0  0  0  0  0
   33.0930   24.9610   47.7130 H   0  0  0  0  0  0  0  0  0  0  0  0
   33.8830   26.8020   47.2560 N   0  0  0  0  0  0  0  0  0  0  0  0
  1  2  1  0  0  0  0
  2  3  2  0  0  0  0
  2  7  1  0  0  0  0
  3  4  1  0  0  0  0
  4  8  1  0  0  0  0
  4  5  2  0  0  0  0
  5  9  1  0  0  0  0
  6  5  1  0  0  0  0
  6 10  1  0  0  0  0
  7  6  2  0  0  0  0
 11 17  1  0  0  0  0
 11 16  1  0  0  0  0
 12 11  2  0  0  0  0
 13 12  1  0  0  0  0
 13 14  2  0  0  0  0
 14 15  1  0  0  0  0
 15 16  2  0  0  0  0
 15  3  1  0  0  0  0
 18 12  1  0  0  0  0
 19 13  1  0  0  0  0
 20 21  1  0  0  0  0
 20  7  1  0  0  0  0
 21 22  1  0  0  0  0
 22 23  2  0  0  0  0
 23 24  1  0  0  0  0
 25 23  1  0  0  0  0
 26 25  1  0  0  0  0
 27 21  2  0  0  0  0
 27 25  1  0  0  0  0
M  END
>  <minimizedAffinity>
-5.25430965

>  <minimizedRMSD>
1.24706852

$$$$
