
 OpenBabel03272506523D

 32 34  0  0  1  0  0  0  0  0999 V2000
   38.2550   26.7460   33.6580 C   0  0  1  0  0  0  0  0  0  0  0  0
   37.7700   25.3850   33.4400 C   0  0  0  0  0  0  0  0  0  0  0  0
   38.0200   24.3820   34.5310 C   0  0  0  0  0  0  0  0  0  0  0  0
   37.9480   24.8980   35.9160 C   0  0  2  0  0  0  0  0  0  0  0  0
   38.4250   26.2870   36.1580 C   0  0  0  0  0  0  0  0  0  0  0  0
   38.0270   27.2260   35.0630 C   0  0  0  0  0  0  0  0  0  0  0  0
   37.6110   27.4480   33.0330 H   0  0  0  0  0  0  0  0  0  0  0  0
   36.6320   25.4510   33.4100 H   0  0  0  0  0  0  0  0  0  0  0  0
   38.0110   24.9070   32.4960 H   0  0  0  0  0  0  0  0  0  0  0  0
   37.3130   23.5440   34.4130 H   0  0  0  0  0  0  0  0  0  0  0  0
   39.0390   23.9640   34.3450 H   0  0  0  0  0  0  0  0  0  0  0  0
   36.8770   24.8310   36.2510 H   0  0  0  0  0  0  0  0  0  0  0  0
   37.9310   26.6620   37.0800 H   0  0  0  0  0  0  0  0  0  0  0  0
   39.5200   26.3340   36.3560 H   0  0  0  0  0  0  0  0  0  0  0  0
   38.3670   28.2220   35.2970 H   0  0  0  0  0  0  0  0  0  0  0  0
   36.8930   27.2890   35.1530 H   0  0  0  0  0  0  0  0  0  0  0  0
   40.7390   27.1070   34.0330 C   0  0  0  0  0  0  0  0  0  0  0  0
   39.6210   27.0440   33.1640 C   0  0  0  0  0  0  0  0  0  0  0  0
   39.8590   27.2700   31.8190 C   0  0  0  0  0  0  0  0  0  0  0  0
   41.1230   27.5360   31.4000 N   0  0  0  0  0  0  0  0  0  0  0  0
   42.1610   27.5870   32.2620 C   0  0  0  0  0  0  0  0  0  0  0  0
   41.9610   27.3710   33.5850 N   0  0  0  0  0  0  0  0  0  0  0  0
   40.6540   26.9460   35.0960 H   0  0  0  0  0  0  0  0  0  0  0  0
   39.1220   27.2540   31.0350 H   0  0  0  0  0  0  0  0  0  0  0  0
   43.1790   27.7990   31.9470 H   0  0  0  0  0  0  0  0  0  0  0  0
   38.6980   23.9760   36.8100 C   0  0  0  0  0  0  0  0  0  0  0  0
   39.8560   23.3190   36.6100 N   0  0  0  0  0  0  0  0  0  0  0  0
   40.1820   22.5890   37.6750 C   0  0  0  0  0  0  0  0  0  0  0  0
   41.0700   21.9700   37.7580 H   0  0  0  0  0  0  0  0  0  0  0  0
   39.1970   22.7880   38.5870 N   0  0  0  0  0  0  0  0  0  0  0  0
   39.1700   22.3480   39.5290 H   0  0  0  0  0  0  0  0  0  0  0  0
   38.3070   23.6220   38.0610 N   0  0  0  0  0  0  0  0  0  0  0  0
  1  7  1  6  0  0  0
  1  6  1  0  0  0  0
  2  1  1  0  0  0  0
  2  3  1  0  0  0  0
  3  4  1  0  0  0  0
  4  5  1  0  0  0  0
  4 12  1  1  0  0  0
  4 26  1  0  0  0  0
  5 14  1  0  0  0  0
  5 13  1  0  0  0  0
  6 16  1  0  0  0  0
  6 15  1  0  0  0  0
  6  5  1  0  0  0  0
  8  2  1  0  0  0  0
  9  2  1  0  0  0  0
 10  3  1  0  0  0  0
 11  3  1  0  0  0  0
 17 23  1  0  0  0  0
 18  1  1  0  0  0  0
 18 17  2  0  0  0  0
 19 18  1  0  0  0  0
 20 19  2  0  0  0  0
 20 21  1  0  0  0  0
 21 22  2  0  0  0  0
 22 17  1  0  0  0  0
 24 19  1  0  0  0  0
 25 21  1  0  0  0  0
 26 32  2  0  0  0  0
 27 26  1  0  0  0  0
 27 28  2  0  0  0  0
 28 29  1  0  0  0  0
 28 30  1  0  0  0  0
 30 31  1  0  0  0  0
 32 30  1  0  0  0  0
M  END
>  <minimizedAffinity>
-5.08340597

$$$$

 OpenBabel03272506523D

 32 34  0  0  1  0  0  0  0  0999 V2000
   39.2740   26.7620   35.3440 C   0  0  1  0  0  0  0  0  0  0  0  0
   39.8840   26.9780   34.0340 C   0  0  0  0  0  0  0  0  0  0  0  0
   38.9820   26.9020   32.8340 C   0  0  0  0  0  0  0  0  0  0  0  0
   37.6090   27.4220   33.0200 C   0  0  2  0  0  0  0  0  0  0  0  0
   36.9740   27.2240   34.3520 C   0  0  0  0  0  0  0  0  0  0  0  0
   37.9360   27.4300   35.4790 C   0  0  0  0  0  0  0  0  0  0  0  0
   39.9150   27.2990   36.1180 H   0  0  0  0  0  0  0  0  0  0  0  0
   40.2380   28.0610   34.0200 H   0  0  0  0  0  0  0  0  0  0  0  0
   40.7870   26.4240   33.7980 H   0  0  0  0  0  0  0  0  0  0  0  0
   39.4640   27.4290   31.9930 H   0  0  0  0  0  0  0  0  0  0  0  0
   38.9330   25.8240   32.5450 H   0  0  0  0  0  0  0  0  0  0  0  0
   37.6280   28.5240   32.8000 H   0  0  0  0  0  0  0  0  0  0  0  0
   36.1870   27.9990   34.4720 H   0  0  0  0  0  0  0  0  0  0  0  0
   36.4540   26.2430   34.4340 H   0  0  0  0  0  0  0  0  0  0  0  0
   37.4250   27.3060   36.4200 H   0  0  0  0  0  0  0  0  0  0  0  0
   38.1770   28.5430   35.4350 H   0  0  0  0  0  0  0  0  0  0  0  0
   38.3140   24.9050   36.7840 C   0  0  0  0  0  0  0  0  0  0  0  0
   39.2730   25.3670   35.8470 C   0  0  0  0  0  0  0  0  0  0  0  0
   40.2140   24.4500   35.4100 C   0  0  0  0  0  0  0  0  0  0  0  0
   40.1810   23.1800   35.8870 N   0  0  0  0  0  0  0  0  0  0  0  0
   39.2510   22.7810   36.7810 C   0  0  0  0  0  0  0  0  0  0  0  0
   38.3150   23.6530   37.2280 N   0  0  0  0  0  0  0  0  0  0  0  0
   37.5420   25.5430   37.1810 H   0  0  0  0  0  0  0  0  0  0  0  0
   41.0020   24.6420   34.7020 H   0  0  0  0  0  0  0  0  0  0  0  0
   39.2080   21.7690   37.1750 H   0  0  0  0  0  0  0  0  0  0  0  0
   36.7280   26.8280   31.9800 C   0  0  0  0  0  0  0  0  0  0  0  0
   36.1110   25.6320   31.9410 N   0  0  0  0  0  0  0  0  0  0  0  0
   35.4090   25.4920   30.8180 C   0  0  0  0  0  0  0  0  0  0  0  0
   34.8240   24.6160   30.5530 H   0  0  0  0  0  0  0  0  0  0  0  0
   35.5840   26.6410   30.1170 N   0  0  0  0  0  0  0  0  0  0  0  0
   35.1570   26.8340   29.1880 H   0  0  0  0  0  0  0  0  0  0  0  0
   36.3780   27.4400   30.8200 N   0  0  0  0  0  0  0  0  0  0  0  0
  1  6  1  0  0  0  0
  1 18  1  0  0  0  0
  1  7  1  1  0  0  0
  2  1  1  0  0  0  0
  3  4  1  0  0  0  0
  3  2  1  0  0  0  0
  4 12  1  6  0  0  0
  4  5  1  0  0  0  0
  5 14  1  0  0  0  0
  5 13  1  0  0  0  0
  5  6  1  0  0  0  0
  6 15  1  0  0  0  0
  8  2  1  0  0  0  0
  9  2  1  0  0  0  0
 10  3  1  0  0  0  0
 11  3  1  0  0  0  0
 16  6  1  0  0  0  0
 17 23  1  0  0  0  0
 17 22  1  0  0  0  0
 18 17  2  0  0  0  0
 19 18  1  0  0  0  0
 19 20  2  0  0  0  0
 20 21  1  0  0  0  0
 21 25  1  0  0  0  0
 21 22  2  0  0  0  0
 24 19  1  0  0  0  0
 26  4  1  0  0  0  0
 27 26  1  0  0  0  0
 28 27  2  0  0  0  0
 29 28  1  0  0  0  0
 30 28  1  0  0  0  0
 30 32  1  0  0  0  0
 31 30  1  0  0  0  0
 32 26  2  0  0  0  0
M  END
>  <minimizedAffinity>
-5.06081772

$$$$

 OpenBabel03272506523D

 32 34  0  0  1  0  0  0  0  0999 V2000
   38.9420   26.1820   32.9530 C   0  0  1  0  0  0  0  0  0  0  0  0
   40.0880   26.3200   33.8490 C   0  0  0  0  0  0  0  0  0  0  0  0
   40.0480   25.5510   35.1410 C   0  0  0  0  0  0  0  0  0  0  0  0
   39.4090   24.2180   35.0830 C   0  0  2  0  0  0  0  0  0  0  0  0
   38.2470   24.0530   34.1680 C   0  0  0  0  0  0  0  0  0  0  0  0
   38.4380   24.7690   32.8680 C   0  0  0  0  0  0  0  0  0  0  0  0
   39.3020   26.3970   31.8950 H   0  0  0  0  0  0  0  0  0  0  0  0
   40.9770   25.8590   33.3050 H   0  0  0  0  0  0  0  0  0  0  0  0
   40.4340   27.3220   34.0780 H   0  0  0  0  0  0  0  0  0  0  0  0
   41.0770   25.4490   35.5250 H   0  0  0  0  0  0  0  0  0  0  0  0
   39.5010   26.1930   35.8720 H   0  0  0  0  0  0  0  0  0  0  0  0
   40.1960   23.4730   34.7910 H   0  0  0  0  0  0  0  0  0  0  0  0
   38.1630   22.9730   33.9150 H   0  0  0  0  0  0  0  0  0  0  0  0
   37.2820   24.3310   34.6480 H   0  0  0  0  0  0  0  0  0  0  0  0
   37.5880   24.5950   32.2290 H   0  0  0  0  0  0  0  0  0  0  0  0
   39.2890   24.2030   32.3640 H   0  0  0  0  0  0  0  0  0  0  0  0
   37.2490   27.4170   34.3850 C   0  0  0  0  0  0  0  0  0  0  0  0
   37.8500   27.1710   33.1250 C   0  0  0  0  0  0  0  0  0  0  0  0
   37.3770   27.9040   32.0500 C   0  0  0  0  0  0  0  0  0  0  0  0
   36.3790   28.8040   32.2440 N   0  0  0  0  0  0  0  0  0  0  0  0
   35.8320   29.0080   33.4620 C   0  0  0  0  0  0  0  0  0  0  0  0
   36.2740   28.3070   34.5340 N   0  0  0  0  0  0  0  0  0  0  0  0
   37.5500   26.8970   35.2800 H   0  0  0  0  0  0  0  0  0  0  0  0
   37.7280   27.8370   31.0350 H   0  0  0  0  0  0  0  0  0  0  0  0
   35.0340   29.7230   33.6370 H   0  0  0  0  0  0  0  0  0  0  0  0
   38.9900   23.8290   36.4560 C   0  0  0  0  0  0  0  0  0  0  0  0
   37.9140   24.1990   37.1770 N   0  0  0  0  0  0  0  0  0  0  0  0
   37.9150   23.6150   38.3730 C   0  0  0  0  0  0  0  0  0  0  0  0
   37.1550   23.7540   39.1360 H   0  0  0  0  0  0  0  0  0  0  0  0
   39.0320   22.8450   38.4170 N   0  0  0  0  0  0  0  0  0  0  0  0
   39.3120   22.2610   39.2310 H   0  0  0  0  0  0  0  0  0  0  0  0
   39.6740   22.9780   37.2620 N   0  0  0  0  0  0  0  0  0  0  0  0
  1  7  1  6  0  0  0
  1 18  1  0  0  0  0
  1  2  1  0  0  0  0
  2  9  1  0  0  0  0
  2  3  1  0  0  0  0
  3 10  1  0  0  0  0
  3 11  1  0  0  0  0
  4 12  1  6  0  0  0
  4  3  1  0  0  0  0
  4 26  1  0  0  0  0
  5 14  1  0  0  0  0
  5  4  1  0  0  0  0
  6  1  1  0  0  0  0
  6  5  1  0  0  0  0
  8  2  1  0  0  0  0
 13  5  1  0  0  0  0
 15  6  1  0  0  0  0
 16  6  1  0  0  0  0
 17 22  1  0  0  0  0
 17 23  1  0  0  0  0
 18 17  2  0  0  0  0
 19 20  2  0  0  0  0
 19 18  1  0  0  0  0
 20 21  1  0  0  0  0
 21 25  1  0  0  0  0
 21 22  2  0  0  0  0
 24 19  1  0  0  0  0
 26 27  1  0  0  0  0
 26 32  2  0  0  0  0
 27 28  2  0  0  0  0
 28 30  1  0  0  0  0
 28 29  1  0  0  0  0
 30 31  1  0  0  0  0
 32 30  1  0  0  0  0
M  END
>  <minimizedAffinity>
-4.8504405

$$$$

 OpenBabel03272506523D

 32 34  0  0  1  0  0  0  0  0999 V2000
   39.7900   27.0130   34.5900 C   0  0  1  0  0  0  0  0  0  0  0  0
   38.8010   27.1240   35.6600 C   0  0  0  0  0  0  0  0  0  0  0  0
   38.1480   25.8530   36.1270 C   0  0  0  0  0  0  0  0  0  0  0  0
   39.0070   24.6480   36.1400 C   0  0  2  0  0  0  0  0  0  0  0  0
   40.0300   24.5220   35.0670 C   0  0  0  0  0  0  0  0  0  0  0  0
   40.6950   25.8260   34.7570 C   0  0  0  0  0  0  0  0  0  0  0  0
   40.5000   27.8990   34.6820 H   0  0  0  0  0  0  0  0  0  0  0  0
   39.3670   27.4740   36.5850 H   0  0  0  0  0  0  0  0  0  0  0  0
   38.0210   27.8700   35.5530 H   0  0  0  0  0  0  0  0  0  0  0  0
   37.7290   26.0170   37.1340 H   0  0  0  0  0  0  0  0  0  0  0  0
   37.2780   25.6790   35.4490 H   0  0  0  0  0  0  0  0  0  0  0  0
   39.5330   24.6130   37.1330 H   0  0  0  0  0  0  0  0  0  0  0  0
   40.8320   23.8470   35.4370 H   0  0  0  0  0  0  0  0  0  0  0  0
   39.6260   24.0420   34.1470 H   0  0  0  0  0  0  0  0  0  0  0  0
   41.4470   25.6790   33.9980 H   0  0  0  0  0  0  0  0  0  0  0  0
   41.2910   26.0620   35.6990 H   0  0  0  0  0  0  0  0  0  0  0  0
   37.9090   27.3910   32.9290 C   0  0  0  0  0  0  0  0  0  0  0  0
   39.2800   27.1570   33.2060 C   0  0  0  0  0  0  0  0  0  0  0  0
   40.1330   27.0720   32.1180 C   0  0  0  0  0  0  0  0  0  0  0  0
   39.6330   27.2120   30.8640 N   0  0  0  0  0  0  0  0  0  0  0  0
   38.3180   27.4340   30.6440 C   0  0  0  0  0  0  0  0  0  0  0  0
   37.4580   27.5220   31.6870 N   0  0  0  0  0  0  0  0  0  0  0  0
   37.1690   27.4730   33.7090 H   0  0  0  0  0  0  0  0  0  0  0  0
   41.1950   26.9020   32.1600 H   0  0  0  0  0  0  0  0  0  0  0  0
   37.8990   27.5490   29.6490 H   0  0  0  0  0  0  0  0  0  0  0  0
   38.1390   23.4410   36.1130 C   0  0  0  0  0  0  0  0  0  0  0  0
   37.9320   22.5390   35.1350 N   0  0  0  0  0  0  0  0  0  0  0  0
   37.0690   21.6020   35.5230 C   0  0  0  0  0  0  0  0  0  0  0  0
   36.7390   20.7660   34.9130 H   0  0  0  0  0  0  0  0  0  0  0  0
   36.7130   21.9180   36.7940 N   0  0  0  0  0  0  0  0  0  0  0  0
   36.0440   21.3690   37.3720 H   0  0  0  0  0  0  0  0  0  0  0  0
   37.3590   23.0250   37.1430 N   0  0  0  0  0  0  0  0  0  0  0  0
  1  7  1  1  0  0  0
  1  6  1  0  0  0  0
  1  2  1  0  0  0  0
  2  3  1  0  0  0  0
  2  8  1  0  0  0  0
  3  4  1  0  0  0  0
  3 10  1  0  0  0  0
  4 12  1  1  0  0  0
  5 13  1  0  0  0  0
  5  4  1  0  0  0  0
  6  5  1  0  0  0  0
  6 16  1  0  0  0  0
  9  2  1  0  0  0  0
 11  3  1  0  0  0  0
 14  5  1  0  0  0  0
 15  6  1  0  0  0  0
 17 18  1  0  0  0  0
 17 23  1  0  0  0  0
 18  1  1  0  0  0  0
 19 24  1  0  0  0  0
 19 18  2  0  0  0  0
 20 19  1  0  0  0  0
 21 20  2  0  0  0  0
 21 22  1  0  0  0  0
 22 17  2  0  0  0  0
 25 21  1  0  0  0  0
 26  4  1  0  0  0  0
 26 32  2  0  0  0  0
 27 28  2  0  0  0  0
 27 26  1  0  0  0  0
 28 30  1  0  0  0  0
 29 28  1  0  0  0  0
 30 32  1  0  0  0  0
 30 31  1  0  0  0  0
M  END
>  <minimizedAffinity>
-4.84819889

$$$$

 OpenBabel03272506523D

 32 34  0  0  1  0  0  0  0  0999 V2000
   39.0180   25.8780   35.5490 C   0  0  1  0  0  0  0  0  0  0  0  0
   39.9590   26.1470   34.4640 C   0  0  0  0  0  0  0  0  0  0  0  0
   39.3940   26.6890   33.1810 C   0  0  0  0  0  0  0  0  0  0  0  0
   38.2540   27.6220   33.3170 C   0  0  2  0  0  0  0  0  0  0  0  0
   37.2900   27.3730   34.4230 C   0  0  0  0  0  0  0  0  0  0  0  0
   37.9690   26.9440   35.6850 C   0  0  0  0  0  0  0  0  0  0  0  0
   39.5920   25.9460   36.5300 H   0  0  0  0  0  0  0  0  0  0  0  0
   40.6300   26.9950   34.8250 H   0  0  0  0  0  0  0  0  0  0  0  0
   40.6690   25.3690   34.2040 H   0  0  0  0  0  0  0  0  0  0  0  0
   40.2040   27.1780   32.6130 H   0  0  0  0  0  0  0  0  0  0  0  0
   39.0770   25.8030   32.5790 H   0  0  0  0  0  0  0  0  0  0  0  0
   38.6730   28.6580   33.4410 H   0  0  0  0  0  0  0  0  0  0  0  0
   36.7840   28.3350   34.6560 H   0  0  0  0  0  0  0  0  0  0  0  0
   36.4820   26.6640   34.1330 H   0  0  0  0  0  0  0  0  0  0  0  0
   37.2360   26.8060   36.4630 H   0  0  0  0  0  0  0  0  0  0  0  0
   38.5530   27.8660   36.0110 H   0  0  0  0  0  0  0  0  0  0  0  0
   38.5620   23.6040   34.5170 C   0  0  0  0  0  0  0  0  0  0  0  0
   38.4550   24.5070   35.6050 C   0  0  0  0  0  0  0  0  0  0  0  0
   37.8000   24.0510   36.7360 C   0  0  0  0  0  0  0  0  0  0  0  0
   37.3000   22.7890   36.7550 N   0  0  0  0  0  0  0  0  0  0  0  0
   37.4240   21.9600   35.6960 C   0  0  0  0  0  0  0  0  0  0  0  0
   38.0590   22.3760   34.5740 N   0  0  0  0  0  0  0  0  0  0  0  0
   39.0550   23.8670   33.5950 H   0  0  0  0  0  0  0  0  0  0  0  0
   37.6390   24.6100   37.6420 H   0  0  0  0  0  0  0  0  0  0  0  0
   37.0310   20.9470   35.6920 H   0  0  0  0  0  0  0  0  0  0  0  0
   37.5050   27.6530   32.0320 C   0  0  0  0  0  0  0  0  0  0  0  0
   37.4290   28.6130   31.0910 N   0  0  0  0  0  0  0  0  0  0  0  0
   36.6400   28.2360   30.0860 C   0  0  0  0  0  0  0  0  0  0  0  0
   36.4190   28.8360   29.2080 H   0  0  0  0  0  0  0  0  0  0  0  0
   36.1990   26.9910   30.3970 N   0  0  0  0  0  0  0  0  0  0  0  0
   35.5600   26.4270   29.8010 H   0  0  0  0  0  0  0  0  0  0  0  0
   36.7220   26.6460   31.5680 N   0  0  0  0  0  0  0  0  0  0  0  0
  1 18  1  0  0  0  0
  1  6  1  0  0  0  0
  1  7  1  1  0  0  0
  2  8  1  0  0  0  0
  2  1  1  0  0  0  0
  3  4  1  0  0  0  0
  3  2  1  0  0  0  0
  4 12  1  1  0  0  0
  4  5  1  0  0  0  0
  5 13  1  0  0  0  0
  5  6  1  0  0  0  0
  6 16  1  0  0  0  0
  6 15  1  0  0  0  0
  9  2  1  0  0  0  0
 10  3  1  0  0  0  0
 11  3  1  0  0  0  0
 14  5  1  0  0  0  0
 17 22  2  0  0  0  0
 17 18  1  0  0  0  0
 18 19  2  0  0  0  0
 19 20  1  0  0  0  0
 19 24  1  0  0  0  0
 21 20  2  0  0  0  0
 22 21  1  0  0  0  0
 23 17  1  0  0  0  0
 25 21  1  0  0  0  0
 26  4  1  0  0  0  0
 27 26  1  0  0  0  0
 28 30  1  0  0  0  0
 28 27  2  0  0  0  0
 29 28  1  0  0  0  0
 30 32  1  0  0  0  0
 31 30  1  0  0  0  0
 32 26  2  0  0  0  0
M  END
>  <minimizedAffinity>
-4.71093559

$$$$

 OpenBabel03272506523D

 32 34  0  0  1  0  0  0  0  0999 V2000
   38.2970   26.4030   35.6240 C   0  0  1  0  0  0  0  0  0  0  0  0
   39.6220   26.8220   35.1710 C   0  0  0  0  0  0  0  0  0  0  0  0
   39.8310   26.9560   33.6880 C   0  0  0  0  0  0  0  0  0  0  0  0
   38.6750   27.4570   32.9120 C   0  0  2  0  0  0  0  0  0  0  0  0
   37.3170   27.0520   33.3650 C   0  0  0  0  0  0  0  0  0  0  0  0
   37.1860   27.0590   34.8550 C   0  0  0  0  0  0  0  0  0  0  0  0
   38.1530   26.7980   36.6830 H   0  0  0  0  0  0  0  0  0  0  0  0
   39.7670   27.8890   35.5460 H   0  0  0  0  0  0  0  0  0  0  0  0
   40.4840   26.3020   35.5760 H   0  0  0  0  0  0  0  0  0  0  0  0
   40.7040   27.6060   33.5090 H   0  0  0  0  0  0  0  0  0  0  0  0
   40.1130   25.9410   33.3180 H   0  0  0  0  0  0  0  0  0  0  0  0
   38.7260   28.5790   32.9100 H   0  0  0  0  0  0  0  0  0  0  0  0
   36.5930   27.8080   32.9890 H   0  0  0  0  0  0  0  0  0  0  0  0
   36.9950   26.0780   32.9320 H   0  0  0  0  0  0  0  0  0  0  0  0
   36.1800   26.7900   35.1330 H   0  0  0  0  0  0  0  0  0  0  0  0
   37.2690   28.1600   35.1340 H   0  0  0  0  0  0  0  0  0  0  0  0
   38.2870   24.0260   34.7370 C   0  0  0  0  0  0  0  0  0  0  0  0
   38.0930   24.9450   35.7990 C   0  0  0  0  0  0  0  0  0  0  0  0
   37.7070   24.4200   37.0200 C   0  0  0  0  0  0  0  0  0  0  0  0
   37.5330   23.0790   37.1450 N   0  0  0  0  0  0  0  0  0  0  0  0
   37.7270   22.2370   36.1070 C   0  0  0  0  0  0  0  0  0  0  0  0
   38.1060   22.7200   34.8990 N   0  0  0  0  0  0  0  0  0  0  0  0
   38.5880   24.3380   33.7500 H   0  0  0  0  0  0  0  0  0  0  0  0
   37.5230   24.9810   37.9200 H   0  0  0  0  0  0  0  0  0  0  0  0
   37.5930   21.1620   36.1880 H   0  0  0  0  0  0  0  0  0  0  0  0
   38.8420   27.0530   31.4910 C   0  0  0  0  0  0  0  0  0  0  0  0
   39.5150   27.6500   30.4890 N   0  0  0  0  0  0  0  0  0  0  0  0
   39.4100   26.9520   29.3590 C   0  0  0  0  0  0  0  0  0  0  0  0
   39.8630   27.2270   28.4120 H   0  0  0  0  0  0  0  0  0  0  0  0
   38.6440   25.8710   29.6520 N   0  0  0  0  0  0  0  0  0  0  0  0
   38.3820   25.1320   28.9680 H   0  0  0  0  0  0  0  0  0  0  0  0
   38.3050   25.9370   30.9350 N   0  0  0  0  0  0  0  0  0  0  0  0
  1 18  1  0  0  0  0
  1  7  1  1  0  0  0
  2  8  1  0  0  0  0
  2  9  1  0  0  0  0
  2  1  1  0  0  0  0
  3  2  1  0  0  0  0
  4 12  1  1  0  0  0
  4  5  1  0  0  0  0
  4  3  1  0  0  0  0
  5  6  1  0  0  0  0
  6 15  1  0  0  0  0
  6 16  1  0  0  0  0
  6  1  1  0  0  0  0
 10  3  1  0  0  0  0
 11  3  1  0  0  0  0
 13  5  1  0  0  0  0
 14  5  1  0  0  0  0
 17 22  2  0  0  0  0
 17 18  1  0  0  0  0
 18 19  2  0  0  0  0
 19 20  1  0  0  0  0
 19 24  1  0  0  0  0
 21 25  1  0  0  0  0
 21 20  2  0  0  0  0
 22 21  1  0  0  0  0
 23 17  1  0  0  0  0
 26  4  1  0  0  0  0
 27 26  1  0  0  0  0
 28 30  1  0  0  0  0
 28 27  2  0  0  0  0
 29 28  1  0  0  0  0
 30 32  1  0  0  0  0
 31 30  1  0  0  0  0
 32 26  2  0  0  0  0
M  END
>  <minimizedAffinity>
-4.68984985

$$$$

 OpenBabel03272506523D

 32 34  0  0  1  0  0  0  0  0999 V2000
   38.6320   27.0850   33.1270 C   0  0  1  0  0  0  0  0  0  0  0  0
   37.3630   27.2110   33.8400 C   0  0  0  0  0  0  0  0  0  0  0  0
   37.1680   26.3480   35.0560 C   0  0  0  0  0  0  0  0  0  0  0  0
   38.3730   26.1090   35.8820 C   0  0  2  0  0  0  0  0  0  0  0  0
   39.6770   25.9900   35.1760 C   0  0  0  0  0  0  0  0  0  0  0  0
   39.8090   26.9690   34.0520 C   0  0  0  0  0  0  0  0  0  0  0  0
   38.8210   28.0660   32.5810 H   0  0  0  0  0  0  0  0  0  0  0  0
   37.3400   28.2660   34.2710 H   0  0  0  0  0  0  0  0  0  0  0  0
   36.4480   27.1650   33.2590 H   0  0  0  0  0  0  0  0  0  0  0  0
   36.3750   26.7890   35.6830 H   0  0  0  0  0  0  0  0  0  0  0  0
   36.7720   25.3710   34.6880 H   0  0  0  0  0  0  0  0  0  0  0  0
   38.4500   26.9480   36.6250 H   0  0  0  0  0  0  0  0  0  0  0  0
   40.4820   26.2430   35.9010 H   0  0  0  0  0  0  0  0  0  0  0  0
   39.8860   24.9500   34.8360 H   0  0  0  0  0  0  0  0  0  0  0  0
   40.7790   26.8660   33.5920 H   0  0  0  0  0  0  0  0  0  0  0  0
   39.8520   27.9820   34.5730 H   0  0  0  0  0  0  0  0  0  0  0  0
   37.5040   25.4220   31.5760 C   0  0  0  0  0  0  0  0  0  0  0  0
   38.6690   26.0960   32.0230 C   0  0  0  0  0  0  0  0  0  0  0  0
   39.8550   25.7930   31.3760 C   0  0  0  0  0  0  0  0  0  0  0  0
   39.8530   24.8850   30.3670 N   0  0  0  0  0  0  0  0  0  0  0  0
   38.7200   24.2650   29.9710 C   0  0  0  0  0  0  0  0  0  0  0  0
   37.5430   24.5390   30.5840 N   0  0  0  0  0  0  0  0  0  0  0  0
   36.5350   25.5910   32.0160 H   0  0  0  0  0  0  0  0  0  0  0  0
   40.8200   26.2180   31.5940 H   0  0  0  0  0  0  0  0  0  0  0  0
   38.6980   23.5360   29.1660 H   0  0  0  0  0  0  0  0  0  0  0  0
   38.1590   24.8830   36.6950 C   0  0  0  0  0  0  0  0  0  0  0  0
   38.0650   24.7270   38.0290 N   0  0  0  0  0  0  0  0  0  0  0  0
   37.8720   23.4490   38.3500 C   0  0  0  0  0  0  0  0  0  0  0  0
   37.7650   23.0690   39.3610 H   0  0  0  0  0  0  0  0  0  0  0  0
   37.8410   22.7650   37.1780 N   0  0  0  0  0  0  0  0  0  0  0  0
   37.7050   21.7370   37.1000 H   0  0  0  0  0  0  0  0  0  0  0  0
   38.0150   23.6320   36.1870 N   0  0  0  0  0  0  0  0  0  0  0  0
  1  7  1  6  0  0  0
  1  2  1  0  0  0  0
  1  6  1  0  0  0  0
  2  8  1  0  0  0  0
  2  3  1  0  0  0  0
  3 10  1  0  0  0  0
  3  4  1  0  0  0  0
  4 12  1  1  0  0  0
  4 26  1  0  0  0  0
  5  4  1  0  0  0  0
  5 13  1  0  0  0  0
  6 16  1  0  0  0  0
  6  5  1  0  0  0  0
  9  2  1  0  0  0  0
 11  3  1  0  0  0  0
 14  5  1  0  0  0  0
 15  6  1  0  0  0  0
 17 23  1  0  0  0  0
 17 18  1  0  0  0  0
 18  1  1  0  0  0  0
 19 24  1  0  0  0  0
 19 18  2  0  0  0  0
 20 19  1  0  0  0  0
 21 20  2  0  0  0  0
 21 22  1  0  0  0  0
 22 17  2  0  0  0  0
 25 21  1  0  0  0  0
 26 27  1  0  0  0  0
 27 28  2  0  0  0  0
 28 29  1  0  0  0  0
 30 28  1  0  0  0  0
 31 30  1  0  0  0  0
 32 26  2  0  0  0  0
 32 30  1  0  0  0  0
M  END
>  <minimizedAffinity>
-4.67879581

$$$$

 OpenBabel03272506523D

 32 34  0  0  1  0  0  0  0  0999 V2000
   39.1850   25.3360   32.6500 C   0  0  1  0  0  0  0  0  0  0  0  0
   39.3380   26.3120   33.7260 C   0  0  0  0  0  0  0  0  0  0  0  0
   39.2250   25.8040   35.1370 C   0  0  0  0  0  0  0  0  0  0  0  0
   39.7700   24.4510   35.3850 C   0  0  2  0  0  0  0  0  0  0  0  0
   39.6360   23.4450   34.2960 C   0  0  0  0  0  0  0  0  0  0  0  0
   39.8760   24.0340   32.9430 C   0  0  0  0  0  0  0  0  0  0  0  0
   39.7460   25.7320   31.7410 H   0  0  0  0  0  0  0  0  0  0  0  0
   40.4160   26.6800   33.6740 H   0  0  0  0  0  0  0  0  0  0  0  0
   38.7640   27.2300   33.6640 H   0  0  0  0  0  0  0  0  0  0  0  0
   39.7100   26.5260   35.8150 H   0  0  0  0  0  0  0  0  0  0  0  0
   38.1370   25.8160   35.3880 H   0  0  0  0  0  0  0  0  0  0  0  0
   40.8610   24.5610   35.6290 H   0  0  0  0  0  0  0  0  0  0  0  0
   40.4250   22.6770   34.4430 H   0  0  0  0  0  0  0  0  0  0  0  0
   38.6660   22.9000   34.3370 H   0  0  0  0  0  0  0  0  0  0  0  0
   39.7980   23.2650   32.1920 H   0  0  0  0  0  0  0  0  0  0  0  0
   40.9820   24.3050   32.9530 H   0  0  0  0  0  0  0  0  0  0  0  0
   37.3330   23.8860   31.6960 C   0  0  0  0  0  0  0  0  0  0  0  0
   37.8120   25.1510   32.1210 C   0  0  0  0  0  0  0  0  0  0  0  0
   36.9350   26.2180   32.0270 C   0  0  0  0  0  0  0  0  0  0  0  0
   35.6840   26.0130   31.5410 N   0  0  0  0  0  0  0  0  0  0  0  0
   35.2660   24.7900   31.1460 C   0  0  0  0  0  0  0  0  0  0  0  0
   36.1010   23.7260   31.2260 N   0  0  0  0  0  0  0  0  0  0  0  0
   37.9410   22.9970   31.7310 H   0  0  0  0  0  0  0  0  0  0  0  0
   37.1440   27.2350   32.3090 H   0  0  0  0  0  0  0  0  0  0  0  0
   34.2700   24.6060   30.7550 H   0  0  0  0  0  0  0  0  0  0  0  0
   39.1450   23.9020   36.6180 C   0  0  0  0  0  0  0  0  0  0  0  0
   37.9460   24.1580   37.1750 N   0  0  0  0  0  0  0  0  0  0  0  0
   37.7730   23.4480   38.2880 C   0  0  0  0  0  0  0  0  0  0  0  0
   36.8890   23.4790   38.9170 H   0  0  0  0  0  0  0  0  0  0  0  0
   38.9020   22.7120   38.4460 N   0  0  0  0  0  0  0  0  0  0  0  0
   39.0700   22.0520   39.2330 H   0  0  0  0  0  0  0  0  0  0  0  0
   39.7240   22.9900   37.4400 N   0  0  0  0  0  0  0  0  0  0  0  0
  1  7  1  6  0  0  0
  1  6  1  0  0  0  0
  1  2  1  0  0  0  0
  2  3  1  0  0  0  0
  3  4  1  0  0  0  0
  3 11  1  0  0  0  0
  3 10  1  0  0  0  0
  4 12  1  1  0  0  0
  4 26  1  0  0  0  0
  5 14  1  0  0  0  0
  5 13  1  0  0  0  0
  5  4  1  0  0  0  0
  6 16  1  0  0  0  0
  6  5  1  0  0  0  0
  8  2  1  0  0  0  0
  9  2  1  0  0  0  0
 15  6  1  0  0  0  0
 17 23  1  0  0  0  0
 17 18  1  0  0  0  0
 18  1  1  0  0  0  0
 19 18  2  0  0  0  0
 19 24  1  0  0  0  0
 20 19  1  0  0  0  0
 21 22  1  0  0  0  0
 21 20  2  0  0  0  0
 22 17  2  0  0  0  0
 25 21  1  0  0  0  0
 26 27  1  0  0  0  0
 26 32  2  0  0  0  0
 27 28  2  0  0  0  0
 28 30  1  0  0  0  0
 28 29  1  0  0  0  0
 30 31  1  0  0  0  0
 32 30  1  0  0  0  0
M  END
>  <minimizedAffinity>
-4.66374493

$$$$

 OpenBabel03272506523D

 32 34  0  0  1  0  0  0  0  0999 V2000
   39.7890   24.4490   34.5760 C   0  0  1  0  0  0  0  0  0  0  0  0
   38.8170   24.1880   33.5170 C   0  0  0  0  0  0  0  0  0  0  0  0
   37.8620   25.2970   33.1710 C   0  0  0  0  0  0  0  0  0  0  0  0
   38.4070   26.6700   33.2480 C   0  0  2  0  0  0  0  0  0  0  0  0
   39.4080   26.9540   34.3120 C   0  0  0  0  0  0  0  0  0  0  0  0
   40.3770   25.8290   34.4990 C   0  0  0  0  0  0  0  0  0  0  0  0
   40.6860   23.7710   34.3980 H   0  0  0  0  0  0  0  0  0  0  0  0
   39.4170   24.0590   32.5560 H   0  0  0  0  0  0  0  0  0  0  0  0
   38.2430   23.2690   33.5710 H   0  0  0  0  0  0  0  0  0  0  0  0
   37.4600   25.1170   32.1590 H   0  0  0  0  0  0  0  0  0  0  0  0
   37.0010   25.2000   33.8750 H   0  0  0  0  0  0  0  0  0  0  0  0
   38.8740   26.9100   32.2540 H   0  0  0  0  0  0  0  0  0  0  0  0
   40.0110   27.8300   33.9890 H   0  0  0  0  0  0  0  0  0  0  0  0
   38.9340   27.2470   35.2760 H   0  0  0  0  0  0  0  0  0  0  0  0
   41.0970   26.0920   35.2560 H   0  0  0  0  0  0  0  0  0  0  0  0
   40.9770   25.8200   33.5310 H   0  0  0  0  0  0  0  0  0  0  0  0
   38.2330   24.6370   36.5730 C   0  0  0  0  0  0  0  0  0  0  0  0
   39.3770   24.0760   35.9510 C   0  0  0  0  0  0  0  0  0  0  0  0
   40.0990   23.1510   36.6860 C   0  0  0  0  0  0  0  0  0  0  0  0
   39.6920   22.8300   37.9410 N   0  0  0  0  0  0  0  0  0  0  0  0
   38.5960   23.3890   38.4970 C   0  0  0  0  0  0  0  0  0  0  0  0
   37.8670   24.2970   37.8040 N   0  0  0  0  0  0  0  0  0  0  0  0
   37.6070   25.3640   36.0810 H   0  0  0  0  0  0  0  0  0  0  0  0
   40.9850   22.6360   36.3570 H   0  0  0  0  0  0  0  0  0  0  0  0
   38.2540   23.1460   39.4990 H   0  0  0  0  0  0  0  0  0  0  0  0
   37.2770   27.6260   33.3920 C   0  0  0  0  0  0  0  0  0  0  0  0
   36.6310   28.3580   32.4650 N   0  0  0  0  0  0  0  0  0  0  0  0
   35.6680   29.0920   33.0200 C   0  0  0  0  0  0  0  0  0  0  0  0
   35.0090   29.7650   32.4810 H   0  0  0  0  0  0  0  0  0  0  0  0
   35.7010   28.8180   34.3480 N   0  0  0  0  0  0  0  0  0  0  0  0
   35.0650   29.2420   35.0530 H   0  0  0  0  0  0  0  0  0  0  0  0
   36.6710   27.9360   34.5670 N   0  0  0  0  0  0  0  0  0  0  0  0
  1  7  1  6  0  0  0
  1 18  1  0  0  0  0
  2  9  1  0  0  0  0
  2  1  1  0  0  0  0
  3  4  1  0  0  0  0
  3  2  1  0  0  0  0
  3 11  1  0  0  0  0
  4 12  1  6  0  0  0
  4 26  1  0  0  0  0
  4  5  1  0  0  0  0
  5  6  1  0  0  0  0
  5 14  1  0  0  0  0
  6  1  1  0  0  0  0
  6 15  1  0  0  0  0
  8  2  1  0  0  0  0
 10  3  1  0  0  0  0
 13  5  1  0  0  0  0
 16  6  1  0  0  0  0
 17 22  1  0  0  0  0
 18 17  2  0  0  0  0
 18 19  1  0  0  0  0
 19 20  2  0  0  0  0
 20 21  1  0  0  0  0
 21 25  1  0  0  0  0
 22 21  2  0  0  0  0
 23 17  1  0  0  0  0
 24 19  1  0  0  0  0
 26 32  2  0  0  0  0
 27 28  2  0  0  0  0
 27 26  1  0  0  0  0
 28 30  1  0  0  0  0
 29 28  1  0  0  0  0
 30 32  1  0  0  0  0
 30 31  1  0  0  0  0
M  END
>  <minimizedAffinity>
-4.65036917

$$$$
