
 OpenBabel03272510133D

 39 42  0  0  0  0  0  0  0  0999 V2000
   38.4260   31.3840   48.7500 C   0  0  0  0  0  0  0  0  0  0  0  0
   38.4710   32.6000   49.3930 C   0  0  0  0  0  0  0  0  0  0  0  0
   39.0590   33.5070   48.5050 C   0  0  0  0  0  0  0  0  0  0  0  0
   39.3400   32.8280   47.3880 N   0  0  0  0  0  0  0  0  0  0  0  0
   38.9670   31.5980   47.5450 N   0  0  0  0  0  0  0  0  0  0  0  0
   38.1750   32.9820   50.3610 H   0  0  0  0  0  0  0  0  0  0  0  0
   39.2720   34.5710   48.6360 H   0  0  0  0  0  0  0  0  0  0  0  0
   39.9580   33.3640   46.2100 C   0  0  0  0  0  0  0  0  0  0  0  0
   40.6200   34.1930   46.5270 H   0  0  0  0  0  0  0  0  0  0  0  0
   39.2040   33.8650   45.5360 H   0  0  0  0  0  0  0  0  0  0  0  0
   40.7020   32.2920   45.5030 C   0  0  0  0  0  0  0  0  0  0  0  0
   41.7850   32.5640   45.5540 H   0  0  0  0  0  0  0  0  0  0  0  0
   40.6430   31.3780   46.1690 H   0  0  0  0  0  0  0  0  0  0  0  0
   40.3450   31.9730   44.1420 C   0  0  0  0  0  0  0  0  0  0  0  0
   40.6780   30.7820   43.5620 N   0  0  0  0  0  0  0  0  0  0  0  0
   40.2310   30.7250   42.3000 C   0  0  0  0  0  0  0  0  0  0  0  0
   40.3330   29.9230   41.5800 H   0  0  0  0  0  0  0  0  0  0  0  0
   39.6040   31.8870   42.0620 N   0  0  0  0  0  0  0  0  0  0  0  0
   39.1210   32.2450   41.2160 H   0  0  0  0  0  0  0  0  0  0  0  0
   39.6810   32.6100   43.1610 N   0  0  0  0  0  0  0  0  0  0  0  0
   37.8700   30.3590   49.4870 O   0  0  0  0  0  0  0  0  0  0  0  0
   34.1210   28.8430   48.3290 C   0  0  0  0  0  0  0  0  0  0  0  0
   34.7450   28.3980   49.4530 C   0  0  0  0  0  0  0  0  0  0  0  0
   35.9640   28.8460   49.8880 C   0  0  0  0  0  0  0  0  0  0  0  0
   36.6390   29.7970   49.1930 C   0  0  0  0  0  0  0  0  0  0  0  0
   36.0120   30.2640   48.0370 C   0  0  0  0  0  0  0  0  0  0  0  0
   34.8090   29.8000   47.6360 N   0  0  0  0  0  0  0  0  0  0  0  0
   34.2790   27.6430   50.0650 H   0  0  0  0  0  0  0  0  0  0  0  0
   36.4540   28.4820   50.7900 H   0  0  0  0  0  0  0  0  0  0  0  0
   36.4730   31.0270   47.4090 H   0  0  0  0  0  0  0  0  0  0  0  0
   32.0070   27.5570   48.6070 C   0  0  0  0  0  0  0  0  0  0  0  0
   32.8500   28.3840   47.8600 C   0  0  0  0  0  0  0  0  0  0  0  0
   32.4060   28.7570   46.6100 C   0  0  0  0  0  0  0  0  0  0  0  0
   31.1930   28.3190   46.1570 N   0  0  0  0  0  0  0  0  0  0  0  0
   30.4160   27.5180   46.9260 C   0  0  0  0  0  0  0  0  0  0  0  0
   30.8080   27.1210   48.1650 N   0  0  0  0  0  0  0  0  0  0  0  0
   32.3110   27.2380   49.5920 H   0  0  0  0  0  0  0  0  0  0  0  0
   33.0330   29.4020   45.9950 H   0  0  0  0  0  0  0  0  0  0  0  0
   29.4750   27.2320   46.4630 H   0  0  0  0  0  0  0  0  0  0  0  0
  1  2  1  0  0  0  0
  1 21  1  0  0  0  0
  2  6  1  0  0  0  0
  3  7  1  0  0  0  0
  3  2  2  0  0  0  0
  4  5  1  0  0  0  0
  4  3  1  0  0  0  0
  5  1  2  0  0  0  0
  8  9  1  0  0  0  0
  8  4  1  0  0  0  0
 10  8  1  0  0  0  0
 11 12  1  0  0  0  0
 11 13  1  0  0  0  0
 11  8  1  0  0  0  0
 14 11  1  0  0  0  0
 15 14  1  0  0  0  0
 16 15  2  0  0  0  0
 17 16  1  0  0  0  0
 18 16  1  0  0  0  0
 18 20  1  0  0  0  0
 19 18  1  0  0  0  0
 20 14  2  0  0  0  0
 22 23  1  0  0  0  0
 23 24  2  0  0  0  0
 23 28  1  0  0  0  0
 24 29  1  0  0  0  0
 25 21  1  0  0  0  0
 25 24  1  0  0  0  0
 26 25  2  0  0  0  0
 27 26  1  0  0  0  0
 27 22  2  0  0  0  0
 30 26  1  0  0  0  0
 31 37  1  0  0  0  0
 32 22  1  0  0  0  0
 32 31  2  0  0  0  0
 33 32  1  0  0  0  0
 34 33  2  0  0  0  0
 34 35  1  0  0  0  0
 35 36  2  0  0  0  0
 36 31  1  0  0  0  0
 38 33  1  0  0  0  0
 39 35  1  0  0  0  0
M  END
>  <minimizedAffinity>
-6.17919397

>  <minimizedRMSD>
1.20078897

$$$$
