
 OpenBabel03272509213D

 44 48  0  0  0  0  0  0  0  0999 V2000
   38.1030   31.3490   47.8650 C   0  0  0  0  0  0  0  0  0  0  0  0
   37.0700   31.3500   48.7810 C   0  0  0  0  0  0  0  0  0  0  0  0
   37.0600   32.4520   49.6360 C   0  0  0  0  0  0  0  0  0  0  0  0
   38.0270   33.4600   49.5550 C   0  0  0  0  0  0  0  0  0  0  0  0
   39.0520   33.3700   48.5800 C   0  0  0  0  0  0  0  0  0  0  0  0
   39.0740   32.2790   47.7220 C   0  0  0  0  0  0  0  0  0  0  0  0
   36.2940   32.5590   50.3960 H   0  0  0  0  0  0  0  0  0  0  0  0
   38.0120   34.3130   50.2230 H   0  0  0  0  0  0  0  0  0  0  0  0
   39.7910   34.1420   48.5180 H   0  0  0  0  0  0  0  0  0  0  0  0
   34.9700   30.3450   48.0400 C   0  0  0  0  0  0  0  0  0  0  0  0
   36.0800   30.3220   48.8670 C   0  0  0  0  0  0  0  0  0  0  0  0
   36.1830   29.2570   49.7790 C   0  0  0  0  0  0  0  0  0  0  0  0
   35.2100   28.3250   49.8000 N   0  0  0  0  0  0  0  0  0  0  0  0
   34.1340   28.3900   48.9650 C   0  0  0  0  0  0  0  0  0  0  0  0
   34.0220   29.3930   48.0970 N   0  0  0  0  0  0  0  0  0  0  0  0
   34.8230   31.1370   47.3110 H   0  0  0  0  0  0  0  0  0  0  0  0
   33.4730   27.5390   49.1520 H   0  0  0  0  0  0  0  0  0  0  0  0
   37.3600   29.1780   50.6980 C   0  0  0  0  0  0  0  0  0  0  0  0
   37.1860   29.7630   51.6300 H   0  0  0  0  0  0  0  0  0  0  0  0
   37.5920   28.1290   50.8860 H   0  0  0  0  0  0  0  0  0  0  0  0
   38.2240   29.6420   50.1410 H   0  0  0  0  0  0  0  0  0  0  0  0
   38.2000   30.2800   46.9580 O   0  0  0  0  0  0  0  0  0  0  0  0
   37.6910   30.3990   46.0800 H   0  0  0  0  0  0  0  0  0  0  0  0
   40.0900   32.2460   46.7970 O   0  0  0  0  0  0  0  0  0  0  0  0
   40.2870   30.9070   44.7030 C   0  0  0  0  0  0  0  0  0  0  0  0
   39.9700   32.0320   45.4570 C   0  0  0  0  0  0  0  0  0  0  0  0
   39.4480   33.1400   44.8110 C   0  0  0  0  0  0  0  0  0  0  0  0
   39.2390   33.1330   43.4160 C   0  0  0  0  0  0  0  0  0  0  0  0
   38.7670   34.0170   42.5240 N   0  0  0  0  0  0  0  0  0  0  0  0
   38.7810   33.4900   41.2870 C   0  0  0  0  0  0  0  0  0  0  0  0
   39.2800   32.2340   41.4060 N   0  0  0  0  0  0  0  0  0  0  0  0
   39.5700   31.9900   42.7090 C   0  0  0  0  0  0  0  0  0  0  0  0
   40.0870   30.8930   43.3450 C   0  0  0  0  0  0  0  0  0  0  0  0
   40.6860   30.0980   45.2950 H   0  0  0  0  0  0  0  0  0  0  0  0
   39.1500   34.0940   45.2600 H   0  0  0  0  0  0  0  0  0  0  0  0
   38.4290   34.9940   42.7660 H   0  0  0  0  0  0  0  0  0  0  0  0
   38.4420   34.0330   40.4190 H   0  0  0  0  0  0  0  0  0  0  0  0
   40.4400   29.6800   42.6110 C   0  0  0  0  0  0  0  0  0  0  0  0
   39.6220   28.6040   42.5250 N   0  0  0  0  0  0  0  0  0  0  0  0
   40.2140   27.6420   41.7860 C   0  0  0  0  0  0  0  0  0  0  0  0
   39.8490   26.6560   41.5150 H   0  0  0  0  0  0  0  0  0  0  0  0
   41.4160   28.1820   41.4330 N   0  0  0  0  0  0  0  0  0  0  0  0
   42.0930   27.6210   40.8370 H   0  0  0  0  0  0  0  0  0  0  0  0
   41.5560   29.4000   41.9240 N   0  0  0  0  0  0  0  0  0  0  0  0
  1  2  1  0  0  0  0
  2 11  1  0  0  0  0
  2  3  2  0  0  0  0
  3  7  1  0  0  0  0
  4  3  1  0  0  0  0
  4  8  1  0  0  0  0
  5  4  2  0  0  0  0
  6  1  2  0  0  0  0
  6  5  1  0  0  0  0
  9  5  1  0  0  0  0
 10 15  2  0  0  0  0
 10 11  1  0  0  0  0
 11 12  2  0  0  0  0
 12 13  1  0  0  0  0
 12 18  1  0  0  0  0
 14 17  1  0  0  0  0
 14 13  2  0  0  0  0
 15 14  1  0  0  0  0
 16 10  1  0  0  0  0
 18 20  1  0  0  0  0
 18 19  1  0  0  0  0
 21 18  1  0  0  0  0
 22  1  1  0  0  0  0
 23 22  1  0  0  0  0
 24  6  1  0  0  0  0
 25 34  1  0  0  0  0
 25 26  1  0  0  0  0
 26 24  1  0  0  0  0
 27 35  1  0  0  0  0
 27 26  2  0  0  0  0
 28 27  1  0  0  0  0
 29 36  1  0  0  0  0
 29 28  1  0  0  0  0
 30 31  2  0  0  0  0
 30 29  1  0  0  0  0
 31 32  1  0  0  0  0
 32 33  1  0  0  0  0
 32 28  2  0  0  0  0
 33 25  2  0  0  0  0
 37 30  1  0  0  0  0
 38 33  1  0  0  0  0
 39 38  1  0  0  0  0
 40 39  2  0  0  0  0
 41 40  1  0  0  0  0
 42 40  1  0  0  0  0
 42 44  1  0  0  0  0
 43 42  1  0  0  0  0
 44 38  2  0  0  0  0
M  END
>  <minimizedAffinity>
-7.33168221

>  <minimizedRMSD>
0.791201174

$$$$
