
 OpenBabel03272502273D

 38 41  0  0  0  0  0  0  0  0999 V2000
   37.6640   30.2120   51.0190 C   0  0  0  0  0  0  0  0  0  0  0  0
   38.1170   30.7820   49.8230 C   0  0  0  0  0  0  0  0  0  0  0  0
   37.4080   30.4930   48.6670 C   0  0  0  0  0  0  0  0  0  0  0  0
   36.3390   29.6860   48.7880 N   0  0  0  0  0  0  0  0  0  0  0  0
   35.9180   29.1470   49.9420 C   0  0  0  0  0  0  0  0  0  0  0  0
   36.5920   29.4170   51.0670 N   0  0  0  0  0  0  0  0  0  0  0  0
   38.2330   30.4520   51.9070 H   0  0  0  0  0  0  0  0  0  0  0  0
   38.9670   31.4230   49.7350 H   0  0  0  0  0  0  0  0  0  0  0  0
   37.7590   31.0170   47.3720 C   0  0  0  0  0  0  0  0  0  0  0  0
   37.0080   30.6990   46.2460 C   0  0  0  0  0  0  0  0  0  0  0  0
   37.2950   31.1760   44.9940 C   0  0  0  0  0  0  0  0  0  0  0  0
   38.3570   31.9930   44.8340 N   0  0  0  0  0  0  0  0  0  0  0  0
   39.0780   32.2940   45.9280 C   0  0  0  0  0  0  0  0  0  0  0  0
   38.8120   31.8390   47.1560 N   0  0  0  0  0  0  0  0  0  0  0  0
   36.1400   30.0430   46.3290 H   0  0  0  0  0  0  0  0  0  0  0  0
   36.6840   30.9030   44.1420 H   0  0  0  0  0  0  0  0  0  0  0  0
   40.2580   33.1940   45.7830 C   0  0  0  0  0  0  0  0  0  0  0  0
   40.3560   33.9430   46.9550 F   0  0  0  0  0  0  0  0  0  0  0  0
   41.4000   32.4620   45.5420 F   0  0  0  0  0  0  0  0  0  0  0  0
   40.0840   34.0960   44.7640 F   0  0  0  0  0  0  0  0  0  0  0  0
   34.7950   28.3370   49.8790 O   0  0  0  0  0  0  0  0  0  0  0  0
   33.6900   26.6100   46.8310 N   0  0  0  0  0  0  0  0  0  0  0  0
   34.2810   26.7480   48.0270 C   0  0  0  0  0  0  0  0  0  0  0  0
   34.2630   27.9680   48.6670 C   0  0  0  0  0  0  0  0  0  0  0  0
   33.6170   29.0410   48.0370 C   0  0  0  0  0  0  0  0  0  0  0  0
   33.4780   30.2350   48.4330 O   0  0  0  0  0  0  0  0  0  0  0  0
   33.0390   28.8320   46.8240 N   0  0  0  0  0  0  0  0  0  0  0  0
   33.0750   27.6310   46.2310 C   0  0  0  0  0  0  0  0  0  0  0  0
   32.5450   27.4110   45.1020 O   0  0  0  0  0  0  0  0  0  0  0  0
   33.7680   25.6470   46.4450 H   0  0  0  0  0  0  0  0  0  0  0  0
   34.7930   25.9860   48.5760 H   0  0  0  0  0  0  0  0  0  0  0  0
   32.3590   29.8420   46.0920 C   0  0  0  0  0  0  0  0  0  0  0  0
   31.1420   30.0460   45.5480 N   0  0  0  0  0  0  0  0  0  0  0  0
   31.1420   31.2670   44.9660 C   0  0  0  0  0  0  0  0  0  0  0  0
   30.2480   31.5880   44.4830 H   0  0  0  0  0  0  0  0  0  0  0  0
   32.3610   31.8060   45.1570 N   0  0  0  0  0  0  0  0  0  0  0  0
   32.5500   32.7540   44.7740 H   0  0  0  0  0  0  0  0  0  0  0  0
   33.1080   30.9510   45.8400 N   0  0  0  0  0  0  0  0  0  0  0  0
  1  6  1  0  0  0  0
  1  7  1  0  0  0  0
  2  1  2  0  0  0  0
  3  4  2  0  0  0  0
  3  2  1  0  0  0  0
  4  5  1  0  0  0  0
  5  6  2  0  0  0  0
  8  2  1  0  0  0  0
  9  3  1  0  0  0  0
 10 15  1  0  0  0  0
 10  9  2  0  0  0  0
 11 10  1  0  0  0  0
 12 11  2  0  0  0  0
 12 13  1  0  0  0  0
 13 14  2  0  0  0  0
 14  9  1  0  0  0  0
 16 11  1  0  0  0  0
 17 13  1  0  0  0  0
 17 18  1  0  0  0  0
 19 17  1  0  0  0  0
 20 17  1  0  0  0  0
 21  5  1  0  0  0  0
 22 23  1  0  0  0  0
 23 31  1  0  0  0  0
 23 24  2  0  0  0  0
 24 21  1  0  0  0  0
 25 26  2  0  0  0  0
 25 24  1  0  0  0  0
 27 25  1  0  0  0  0
 28 27  1  0  0  0  0
 28 22  1  0  0  0  0
 29 28  2  0  0  0  0
 30 22  1  0  0  0  0
 32 27  1  0  0  0  0
 33 32  1  0  0  0  0
 34 36  1  0  0  0  0
 34 33  2  0  0  0  0
 35 34  1  0  0  0  0
 36 38  1  0  0  0  0
 37 36  1  0  0  0  0
 38 32  2  0  0  0  0
M  END
>  <minimizedAffinity>
-6.68607903

>  <minimizedRMSD>
0.898900747

$$$$
