
 OpenBabel03272507193D

 28 30  0  0  1  0  0  0  0  0999 V2000
   37.3270   31.2630   49.4200 C   0  0  0  0  0  0  0  0  0  0  0  0
   38.2970   32.2580   49.5020 C   0  0  0  0  0  0  0  0  0  0  0  0
   38.8060   32.6840   48.2780 C   0  0  0  0  0  0  0  0  0  0  0  0
   38.3620   32.1430   47.0960 N   0  0  0  0  0  0  0  0  0  0  0  0
   37.4120   31.1720   47.0680 C   0  0  0  0  0  0  0  0  0  0  0  0
   36.8900   30.7290   48.2470 N   0  0  0  0  0  0  0  0  0  0  0  0
   38.6280   32.6670   50.4300 H   0  0  0  0  0  0  0  0  0  0  0  0
   39.5660   33.4570   48.2280 H   0  0  0  0  0  0  0  0  0  0  0  0
   36.7490   30.7970   50.7190 C   0  0  1  0  0  0  0  0  0  0  0  0
   36.0410   29.5210   50.8320 C   0  0  2  0  0  0  0  0  0  0  0  0
   37.4770   29.5460   51.2550 C   0  0  0  0  0  0  0  0  0  0  0  0
   36.6650   31.6180   51.4780 H   0  0  0  0  0  0  0  0  0  0  0  0
   35.1940   29.5730   51.5730 H   0  0  0  0  0  0  0  0  0  0  0  0
   38.2260   29.0540   50.6250 H   0  0  0  0  0  0  0  0  0  0  0  0
   37.6690   29.5350   52.3420 H   0  0  0  0  0  0  0  0  0  0  0  0
   35.6950   28.8780   49.6510 O   0  0  0  0  0  0  0  0  0  0  0  0
   34.4830   28.4320   49.2410 C   0  0  0  0  0  0  0  0  0  0  0  0
   34.3570   27.4610   48.4650 O   0  0  0  0  0  0  0  0  0  0  0  0
   33.4930   29.2220   49.8210 N   0  0  0  0  0  0  0  0  0  0  0  0
   33.4260   30.2380   49.8740 H   0  0  0  0  0  0  0  0  0  0  0  0
   32.7350   28.6530   50.2490 H   0  0  0  0  0  0  0  0  0  0  0  0
   37.0060   30.6620   45.7860 C   0  0  0  0  0  0  0  0  0  0  0  0
   35.7560   30.1550   45.5780 N   0  0  0  0  0  0  0  0  0  0  0  0
   35.6270   29.7440   44.2960 C   0  0  0  0  0  0  0  0  0  0  0  0
   34.6770   29.3220   44.0070 H   0  0  0  0  0  0  0  0  0  0  0  0
   36.8060   29.9990   43.7020 N   0  0  0  0  0  0  0  0  0  0  0  0
   36.9470   29.7660   42.7040 H   0  0  0  0  0  0  0  0  0  0  0  0
   37.6420   30.5510   44.5910 N   0  0  0  0  0  0  0  0  0  0  0  0
  1  2  1  0  0  0  0
  1  9  1  0  0  0  0
  2  7  1  0  0  0  0
  3  2  2  0  0  0  0
  4  3  1  0  0  0  0
  5  4  2  0  0  0  0
  5  6  1  0  0  0  0
  6  1  2  0  0  0  0
  8  3  1  0  0  0  0
  9 10  1  0  0  0  0
  9 11  1  0  0  0  0
  9 12  1  1  0  0  0
 10 11  1  0  0  0  0
 10 13  1  1  0  0  0
 11 15  1  0  0  0  0
 14 11  1  0  0  0  0
 16 10  1  0  0  0  0
 17 16  1  0  0  0  0
 17 19  1  0  0  0  0
 18 17  2  0  0  0  0
 19 20  1  0  0  0  0
 19 21  1  0  0  0  0
 22  5  1  0  0  0  0
 23 22  1  0  0  0  0
 24 23  2  0  0  0  0
 25 24  1  0  0  0  0
 26 24  1  0  0  0  0
 26 28  1  0  0  0  0
 27 26  1  0  0  0  0
 28 22  2  0  0  0  0
M  END
>  <minimizedAffinity>
-5.20847225

>  <minimizedRMSD>
0.256894767

$$$$
