
 OpenBabel03272510133D

 39 42  0  0  0  0  0  0  0  0999 V2000
   38.2900   31.4660   48.8320 C   0  0  0  0  0  0  0  0  0  0  0  0
   38.4410   32.7180   49.3850 C   0  0  0  0  0  0  0  0  0  0  0  0
   39.0950   33.5050   48.4310 C   0  0  0  0  0  0  0  0  0  0  0  0
   39.3090   32.7250   47.3660 N   0  0  0  0  0  0  0  0  0  0  0  0
   38.8370   31.5450   47.6140 N   0  0  0  0  0  0  0  0  0  0  0  0
   38.1860   33.1920   50.3220 H   0  0  0  0  0  0  0  0  0  0  0  0
   39.3970   34.5550   48.4830 H   0  0  0  0  0  0  0  0  0  0  0  0
   39.9590   33.1210   46.1510 C   0  0  0  0  0  0  0  0  0  0  0  0
   40.6620   33.9410   46.3980 H   0  0  0  0  0  0  0  0  0  0  0  0
   39.2360   33.5970   45.4280 H   0  0  0  0  0  0  0  0  0  0  0  0
   40.6510   31.9530   45.5500 C   0  0  0  0  0  0  0  0  0  0  0  0
   41.7460   32.1080   45.7150 H   0  0  0  0  0  0  0  0  0  0  0  0
   40.4200   31.0720   46.2230 H   0  0  0  0  0  0  0  0  0  0  0  0
   40.4090   31.6330   44.1650 C   0  0  0  0  0  0  0  0  0  0  0  0
   39.7400   32.4790   43.3280 N   0  0  0  0  0  0  0  0  0  0  0  0
   39.6480   31.9580   42.0960 C   0  0  0  0  0  0  0  0  0  0  0  0
   39.1810   32.3790   41.2150 H   0  0  0  0  0  0  0  0  0  0  0  0
   40.2630   30.7650   42.1380 N   0  0  0  0  0  0  0  0  0  0  0  0
   40.4140   30.0470   41.4040 H   0  0  0  0  0  0  0  0  0  0  0  0
   40.7050   30.5910   43.3670 N   0  0  0  0  0  0  0  0  0  0  0  0
   37.6580   30.5470   49.6450 O   0  0  0  0  0  0  0  0  0  0  0  0
   34.0170   28.8760   48.3610 C   0  0  0  0  0  0  0  0  0  0  0  0
   34.7260   28.3240   49.3820 C   0  0  0  0  0  0  0  0  0  0  0  0
   35.9160   28.8140   49.8510 C   0  0  0  0  0  0  0  0  0  0  0  0
   36.4720   29.9210   49.2980 C   0  0  0  0  0  0  0  0  0  0  0  0
   35.7580   30.5000   48.2480 C   0  0  0  0  0  0  0  0  0  0  0  0
   34.5860   29.9910   47.8100 N   0  0  0  0  0  0  0  0  0  0  0  0
   34.3560   27.4410   49.8790 H   0  0  0  0  0  0  0  0  0  0  0  0
   36.4740   28.3630   50.6700 H   0  0  0  0  0  0  0  0  0  0  0  0
   36.1200   31.3920   47.7370 H   0  0  0  0  0  0  0  0  0  0  0  0
   31.9260   27.5440   48.5960 C   0  0  0  0  0  0  0  0  0  0  0  0
   32.7750   28.3750   47.8590 C   0  0  0  0  0  0  0  0  0  0  0  0
   32.3670   28.7080   46.5860 C   0  0  0  0  0  0  0  0  0  0  0  0
   31.1810   28.2290   46.1020 N   0  0  0  0  0  0  0  0  0  0  0  0
   30.3970   27.4270   46.8620 C   0  0  0  0  0  0  0  0  0  0  0  0
   30.7540   27.0690   48.1230 N   0  0  0  0  0  0  0  0  0  0  0  0
   32.2020   27.2560   49.5990 H   0  0  0  0  0  0  0  0  0  0  0  0
   32.9990   29.3540   45.9780 H   0  0  0  0  0  0  0  0  0  0  0  0
   29.4800   27.1080   46.3740 H   0  0  0  0  0  0  0  0  0  0  0  0
  1  2  1  0  0  0  0
  1 21  1  0  0  0  0
  2  6  1  0  0  0  0
  3  7  1  0  0  0  0
  3  2  2  0  0  0  0
  4  5  1  0  0  0  0
  4  3  1  0  0  0  0
  5  1  2  0  0  0  0
  8  9  1  0  0  0  0
  8  4  1  0  0  0  0
 10  8  1  0  0  0  0
 11 12  1  0  0  0  0
 11  8  1  0  0  0  0
 11 13  1  0  0  0  0
 14 11  1  0  0  0  0
 15 14  1  0  0  0  0
 16 18  1  0  0  0  0
 16 15  2  0  0  0  0
 17 16  1  0  0  0  0
 18 20  1  0  0  0  0
 19 18  1  0  0  0  0
 20 14  2  0  0  0  0
 22 23  1  0  0  0  0
 23 24  2  0  0  0  0
 23 28  1  0  0  0  0
 24 29  1  0  0  0  0
 25 21  1  0  0  0  0
 25 24  1  0  0  0  0
 26 25  2  0  0  0  0
 27 26  1  0  0  0  0
 27 22  2  0  0  0  0
 30 26  1  0  0  0  0
 31 37  1  0  0  0  0
 32 22  1  0  0  0  0
 32 31  2  0  0  0  0
 33 32  1  0  0  0  0
 34 33  2  0  0  0  0
 34 35  1  0  0  0  0
 35 36  2  0  0  0  0
 36 31  1  0  0  0  0
 38 33  1  0  0  0  0
 39 35  1  0  0  0  0
M  END
>  <minimizedAffinity>
-6.18281174

>  <minimizedRMSD>
1.26235485

$$$$
