
 OpenBabel03272510133D

 39 42  0  0  0  0  0  0  0  0999 V2000
   38.3920   31.2940   48.6790 C   0  0  0  0  0  0  0  0  0  0  0  0
   38.4400   32.5040   49.3320 C   0  0  0  0  0  0  0  0  0  0  0  0
   39.0270   33.4180   48.4500 C   0  0  0  0  0  0  0  0  0  0  0  0
   39.3040   32.7480   47.3270 N   0  0  0  0  0  0  0  0  0  0  0  0
   38.9300   31.5170   47.4740 N   0  0  0  0  0  0  0  0  0  0  0  0
   38.1480   32.8780   50.3040 H   0  0  0  0  0  0  0  0  0  0  0  0
   39.2430   34.4810   48.5900 H   0  0  0  0  0  0  0  0  0  0  0  0
   39.9190   33.2930   46.1520 C   0  0  0  0  0  0  0  0  0  0  0  0
   40.5010   34.1830   46.4610 H   0  0  0  0  0  0  0  0  0  0  0  0
   39.1520   33.7100   45.4360 H   0  0  0  0  0  0  0  0  0  0  0  0
   40.7710   32.2620   45.5080 C   0  0  0  0  0  0  0  0  0  0  0  0
   41.8190   32.6510   45.5280 H   0  0  0  0  0  0  0  0  0  0  0  0
   40.8130   31.3930   46.2340 H   0  0  0  0  0  0  0  0  0  0  0  0
   40.4440   31.8160   44.1760 C   0  0  0  0  0  0  0  0  0  0  0  0
   39.7280   32.5860   43.3050 N   0  0  0  0  0  0  0  0  0  0  0  0
   39.5600   31.9530   42.1350 C   0  0  0  0  0  0  0  0  0  0  0  0
   39.0420   32.2940   41.2490 H   0  0  0  0  0  0  0  0  0  0  0  0
   40.1730   30.7650   42.2510 N   0  0  0  0  0  0  0  0  0  0  0  0
   40.2780   29.9800   41.5800 H   0  0  0  0  0  0  0  0  0  0  0  0
   40.6890   30.7020   43.4620 N   0  0  0  0  0  0  0  0  0  0  0  0
   37.8370   30.2630   49.4100 O   0  0  0  0  0  0  0  0  0  0  0  0
   34.0470   28.8140   48.2980 C   0  0  0  0  0  0  0  0  0  0  0  0
   34.6660   28.3770   49.4270 C   0  0  0  0  0  0  0  0  0  0  0  0
   35.8980   28.8050   49.8490 C   0  0  0  0  0  0  0  0  0  0  0  0
   36.5910   29.7250   49.1320 C   0  0  0  0  0  0  0  0  0  0  0  0
   35.9700   30.1840   47.9700 C   0  0  0  0  0  0  0  0  0  0  0  0
   34.7550   29.7410   47.5830 N   0  0  0  0  0  0  0  0  0  0  0  0
   34.1850   27.6450   50.0560 H   0  0  0  0  0  0  0  0  0  0  0  0
   36.3830   28.4470   50.7550 H   0  0  0  0  0  0  0  0  0  0  0  0
   36.4450   30.9230   47.3250 H   0  0  0  0  0  0  0  0  0  0  0  0
   31.9400   27.5160   48.5760 C   0  0  0  0  0  0  0  0  0  0  0  0
   32.7640   28.3760   47.8440 C   0  0  0  0  0  0  0  0  0  0  0  0
   32.2860   28.8050   46.6240 C   0  0  0  0  0  0  0  0  0  0  0  0
   31.0600   28.3870   46.1860 N   0  0  0  0  0  0  0  0  0  0  0  0
   30.3050   27.5520   46.9380 C   0  0  0  0  0  0  0  0  0  0  0  0
   30.7290   27.1000   48.1470 N   0  0  0  0  0  0  0  0  0  0  0  0
   32.2710   27.1540   49.5370 H   0  0  0  0  0  0  0  0  0  0  0  0
   32.8960   29.4770   46.0220 H   0  0  0  0  0  0  0  0  0  0  0  0
   29.3500   27.2860   46.4900 H   0  0  0  0  0  0  0  0  0  0  0  0
  1  2  1  0  0  0  0
  1 21  1  0  0  0  0
  2  6  1  0  0  0  0
  3  7  1  0  0  0  0
  3  2  2  0  0  0  0
  4  5  1  0  0  0  0
  4  3  1  0  0  0  0
  5  1  2  0  0  0  0
  8  9  1  0  0  0  0
  8  4  1  0  0  0  0
 10  8  1  0  0  0  0
 11 12  1  0  0  0  0
 11  8  1  0  0  0  0
 11 13  1  0  0  0  0
 14 11  1  0  0  0  0
 15 14  1  0  0  0  0
 16 18  1  0  0  0  0
 16 15  2  0  0  0  0
 17 16  1  0  0  0  0
 18 20  1  0  0  0  0
 19 18  1  0  0  0  0
 20 14  2  0  0  0  0
 22 23  1  0  0  0  0
 23 24  2  0  0  0  0
 23 28  1  0  0  0  0
 24 29  1  0  0  0  0
 25 21  1  0  0  0  0
 25 24  1  0  0  0  0
 26 25  2  0  0  0  0
 27 26  1  0  0  0  0
 27 22  2  0  0  0  0
 30 26  1  0  0  0  0
 31 37  1  0  0  0  0
 32 22  1  0  0  0  0
 32 31  2  0  0  0  0
 33 32  1  0  0  0  0
 34 33  2  0  0  0  0
 34 35  1  0  0  0  0
 35 36  2  0  0  0  0
 36 31  1  0  0  0  0
 38 33  1  0  0  0  0
 39 35  1  0  0  0  0
M  END
>  <minimizedAffinity>
-6.17086887

>  <minimizedRMSD>
1.16459095

$$$$
