
 OpenBabel03272509213D

 44 48  0  0  0  0  0  0  0  0999 V2000
   38.0270   31.4260   48.2090 C   0  0  0  0  0  0  0  0  0  0  0  0
   37.1410   31.6340   49.2470 C   0  0  0  0  0  0  0  0  0  0  0  0
   37.2880   32.8630   49.8920 C   0  0  0  0  0  0  0  0  0  0  0  0
   38.2590   33.7910   49.5020 C   0  0  0  0  0  0  0  0  0  0  0  0
   39.1250   33.4860   48.4220 C   0  0  0  0  0  0  0  0  0  0  0  0
   38.9900   32.2680   47.7710 C   0  0  0  0  0  0  0  0  0  0  0  0
   36.6460   33.1350   50.7220 H   0  0  0  0  0  0  0  0  0  0  0  0
   38.3670   34.7430   50.0080 H   0  0  0  0  0  0  0  0  0  0  0  0
   39.8680   34.1970   48.1240 H   0  0  0  0  0  0  0  0  0  0  0  0
   35.0000   30.5120   48.8940 C   0  0  0  0  0  0  0  0  0  0  0  0
   36.1460   30.6880   49.6480 C   0  0  0  0  0  0  0  0  0  0  0  0
   36.2830   29.9050   50.8080 C   0  0  0  0  0  0  0  0  0  0  0  0
   35.3030   29.0340   51.1210 N   0  0  0  0  0  0  0  0  0  0  0  0
   34.1900   28.8950   50.3450 C   0  0  0  0  0  0  0  0  0  0  0  0
   34.0470   29.6310   49.2450 N   0  0  0  0  0  0  0  0  0  0  0  0
   34.8250   31.0820   47.9860 H   0  0  0  0  0  0  0  0  0  0  0  0
   33.5310   28.1400   50.7820 H   0  0  0  0  0  0  0  0  0  0  0  0
   37.5000   30.0500   51.6640 C   0  0  0  0  0  0  0  0  0  0  0  0
   37.3760   30.8680   52.4110 H   0  0  0  0  0  0  0  0  0  0  0  0
   37.7320   29.0850   52.1170 H   0  0  0  0  0  0  0  0  0  0  0  0
   38.3420   30.3290   50.9660 H   0  0  0  0  0  0  0  0  0  0  0  0
   37.9590   30.2170   47.4960 O   0  0  0  0  0  0  0  0  0  0  0  0
   37.3290   30.2140   46.6910 H   0  0  0  0  0  0  0  0  0  0  0  0
   39.8570   32.0280   46.7310 O   0  0  0  0  0  0  0  0  0  0  0  0
   40.0580   30.7820   44.5810 C   0  0  0  0  0  0  0  0  0  0  0  0
   39.5270   31.7350   45.4420 C   0  0  0  0  0  0  0  0  0  0  0  0
   38.5020   32.5470   44.9850 C   0  0  0  0  0  0  0  0  0  0  0  0
   38.0040   32.4130   43.6720 C   0  0  0  0  0  0  0  0  0  0  0  0
   37.0520   33.0250   42.9530 N   0  0  0  0  0  0  0  0  0  0  0  0
   36.9810   32.4970   41.7180 C   0  0  0  0  0  0  0  0  0  0  0  0
   37.9220   31.5200   41.6610 N   0  0  0  0  0  0  0  0  0  0  0  0
   38.5660   31.4480   42.8530 C   0  0  0  0  0  0  0  0  0  0  0  0
   39.5790   30.6450   43.3030 C   0  0  0  0  0  0  0  0  0  0  0  0
   40.8500   30.2000   45.0290 H   0  0  0  0  0  0  0  0  0  0  0  0
   37.9820   33.3380   45.5360 H   0  0  0  0  0  0  0  0  0  0  0  0
   36.4410   33.8160   43.3120 H   0  0  0  0  0  0  0  0  0  0  0  0
   36.2810   32.8430   40.9750 H   0  0  0  0  0  0  0  0  0  0  0  0
   40.1810   29.6230   42.4480 C   0  0  0  0  0  0  0  0  0  0  0  0
   41.2720   29.8500   41.6790 N   0  0  0  0  0  0  0  0  0  0  0  0
   41.5940   28.7270   41.0050 C   0  0  0  0  0  0  0  0  0  0  0  0
   42.4050   28.5500   40.3050 H   0  0  0  0  0  0  0  0  0  0  0  0
   40.6550   27.8200   41.3980 N   0  0  0  0  0  0  0  0  0  0  0  0
   40.6790   26.8310   41.0070 H   0  0  0  0  0  0  0  0  0  0  0  0
   39.8070   28.3490   42.2610 N   0  0  0  0  0  0  0  0  0  0  0  0
  1  2  1  0  0  0  0
  2 11  1  0  0  0  0
  2  3  2  0  0  0  0
  3  7  1  0  0  0  0
  4  3  1  0  0  0  0
  4  8  1  0  0  0  0
  5  4  2  0  0  0  0
  6  1  2  0  0  0  0
  6  5  1  0  0  0  0
  9  5  1  0  0  0  0
 10 15  2  0  0  0  0
 10 11  1  0  0  0  0
 11 12  2  0  0  0  0
 12 13  1  0  0  0  0
 12 18  1  0  0  0  0
 14 17  1  0  0  0  0
 14 13  2  0  0  0  0
 15 14  1  0  0  0  0
 16 10  1  0  0  0  0
 18 20  1  0  0  0  0
 18 19  1  0  0  0  0
 21 18  1  0  0  0  0
 22  1  1  0  0  0  0
 23 22  1  0  0  0  0
 24  6  1  0  0  0  0
 25 34  1  0  0  0  0
 25 26  1  0  0  0  0
 26 24  1  0  0  0  0
 27 26  2  0  0  0  0
 27 35  1  0  0  0  0
 28 27  1  0  0  0  0
 29 36  1  0  0  0  0
 29 28  1  0  0  0  0
 30 29  1  0  0  0  0
 31 30  2  0  0  0  0
 31 32  1  0  0  0  0
 32 33  1  0  0  0  0
 32 28  2  0  0  0  0
 33 25  2  0  0  0  0
 37 30  1  0  0  0  0
 38 33  1  0  0  0  0
 39 38  1  0  0  0  0
 40 42  1  0  0  0  0
 40 39  2  0  0  0  0
 41 40  1  0  0  0  0
 42 44  1  0  0  0  0
 43 42  1  0  0  0  0
 44 38  2  0  0  0  0
M  END
>  <minimizedAffinity>
-7.34747601

>  <minimizedRMSD>
0.963560045

$$$$
