
 OpenBabel03272506273D

 40 43  0  0  0  0  0  0  0  0999 V2000
   33.4080   27.7040   44.4870 C   0  0  0  0  0  0  0  0  0  0  0  0
   33.3020   26.6260   43.6280 C   0  0  0  0  0  0  0  0  0  0  0  0
   33.8060   26.6010   42.3300 C   0  0  0  0  0  0  0  0  0  0  0  0
   34.4700   27.7480   41.8540 C   0  0  0  0  0  0  0  0  0  0  0  0
   34.5690   28.8140   42.7240 C   0  0  0  0  0  0  0  0  0  0  0  0
   34.0720   28.8270   43.9930 C   0  0  0  0  0  0  0  0  0  0  0  0
   32.7880   25.7110   43.9640 H   0  0  0  0  0  0  0  0  0  0  0  0
   33.6580   25.6800   41.7390 H   0  0  0  0  0  0  0  0  0  0  0  0
   34.8140   27.6180   40.8510 H   0  0  0  0  0  0  0  0  0  0  0  0
   35.0850   29.5640   42.1830 H   0  0  0  0  0  0  0  0  0  0  0  0
   33.6300   26.9560   46.7730 C   0  0  0  0  0  0  0  0  0  0  0  0
   32.8260   27.5530   45.7900 C   0  0  0  0  0  0  0  0  0  0  0  0
   31.5320   27.9540   46.1480 C   0  0  0  0  0  0  0  0  0  0  0  0
   31.1070   27.7500   47.4230 N   0  0  0  0  0  0  0  0  0  0  0  0
   31.9090   27.1650   48.3610 C   0  0  0  0  0  0  0  0  0  0  0  0
   33.1680   26.7710   48.0300 N   0  0  0  0  0  0  0  0  0  0  0  0
   34.6220   26.6370   46.5360 H   0  0  0  0  0  0  0  0  0  0  0  0
   31.5820   26.9980   49.3770 H   0  0  0  0  0  0  0  0  0  0  0  0
   30.5690   28.5980   45.2080 C   0  0  0  0  0  0  0  0  0  0  0  0
   29.3430   28.8050   45.8670 F   0  0  0  0  0  0  0  0  0  0  0  0
   30.9660   29.7610   44.6590 F   0  0  0  0  0  0  0  0  0  0  0  0
   30.2420   27.6970   44.1860 F   0  0  0  0  0  0  0  0  0  0  0  0
   34.2080   30.1920   45.0860 S   0  0  0  0  0  0  0  0  0  0  0  0
   34.4350   30.0400   48.1830 Cl  0  0  0  0  0  0  0  0  0  0  0  0
   35.8550   30.2690   47.2010 C   0  0  0  0  0  0  0  0  0  0  0  0
   35.8140   30.3690   45.8110 C   0  0  0  0  0  0  0  0  0  0  0  0
   36.9550   30.5750   45.0920 C   0  0  0  0  0  0  0  0  0  0  0  0
   38.1590   30.6810   45.7730 C   0  0  0  0  0  0  0  0  0  0  0  0
   38.2050   30.5820   47.1670 C   0  0  0  0  0  0  0  0  0  0  0  0
   37.0520   30.3750   47.8940 C   0  0  0  0  0  0  0  0  0  0  0  0
   37.0230   30.6990   44.0420 H   0  0  0  0  0  0  0  0  0  0  0  0
   39.0940   30.8440   45.2460 H   0  0  0  0  0  0  0  0  0  0  0  0
   39.1870   30.6750   47.6380 H   0  0  0  0  0  0  0  0  0  0  0  0
   37.1380   30.2780   49.3460 C   0  0  0  0  0  0  0  0  0  0  0  0
   37.1440   29.0920   49.9810 N   0  0  0  0  0  0  0  0  0  0  0  0
   37.2320   29.3410   51.3210 C   0  0  0  0  0  0  0  0  0  0  0  0
   37.2690   28.7200   52.2100 H   0  0  0  0  0  0  0  0  0  0  0  0
   37.2800   30.7000   51.4550 N   0  0  0  0  0  0  0  0  0  0  0  0
   37.3470   31.3070   52.3010 H   0  0  0  0  0  0  0  0  0  0  0  0
   37.2220   31.2620   50.2600 N   0  0  0  0  0  0  0  0  0  0  0  0
  1 12  1  0  0  0  0
  2  7  1  0  0  0  0
  2  1  2  0  0  0  0
  3  2  1  0  0  0  0
  4  3  2  0  0  0  0
  4  5  1  0  0  0  0
  5  6  2  0  0  0  0
  6  1  1  0  0  0  0
  6 23  1  0  0  0  0
  8  3  1  0  0  0  0
  9  4  1  0  0  0  0
 10  5  1  0  0  0  0
 11 16  1  0  0  0  0
 12 13  1  0  0  0  0
 12 11  2  0  0  0  0
 13 14  2  0  0  0  0
 14 15  1  0  0  0  0
 15 18  1  0  0  0  0
 16 15  2  0  0  0  0
 17 11  1  0  0  0  0
 19 20  1  0  0  0  0
 19 13  1  0  0  0  0
 21 19  1  0  0  0  0
 22 19  1  0  0  0  0
 23 26  1  0  0  0  0
 25 30  1  0  0  0  0
 25 24  1  0  0  0  0
 26 25  2  0  0  0  0
 27 28  2  0  0  0  0
 27 26  1  0  0  0  0
 28 29  1  0  0  0  0
 29 33  1  0  0  0  0
 29 30  2  0  0  0  0
 30 34  1  0  0  0  0
 31 27  1  0  0  0  0
 32 28  1  0  0  0  0
 34 35  1  0  0  0  0
 34 40  2  0  0  0  0
 35 36  2  0  0  0  0
 36 38  1  0  0  0  0
 36 37  1  0  0  0  0
 38 39  1  0  0  0  0
 40 38  1  0  0  0  0
M  END
>  <minimizedAffinity>
-4.54317522

>  <minimizedRMSD>
2.60085464

$$$$
