
 OpenBabel03272510253D

 30 33  0  0  0  0  0  0  0  0999 V2000
   36.0460   27.9480   32.3890 C   0  0  0  0  0  0  0  0  0  0  0  0
   36.1570   28.5300   33.6560 C   0  0  0  0  0  0  0  0  0  0  0  0
   36.7610   27.8520   34.6910 C   0  0  0  0  0  0  0  0  0  0  0  0
   37.2470   26.5680   34.4010 C   0  0  0  0  0  0  0  0  0  0  0  0
   37.8770   25.7240   35.2700 N   0  0  0  0  0  0  0  0  0  0  0  0
   38.1630   24.6270   34.5750 C   0  0  0  0  0  0  0  0  0  0  0  0
   37.7400   24.7400   33.3040 N   0  0  0  0  0  0  0  0  0  0  0  0
   37.1580   25.9630   33.1730 C   0  0  0  0  0  0  0  0  0  0  0  0
   36.5420   26.6700   32.1450 C   0  0  0  0  0  0  0  0  0  0  0  0
   35.5770   28.4350   31.5280 H   0  0  0  0  0  0  0  0  0  0  0  0
   36.8470   28.2950   35.6610 H   0  0  0  0  0  0  0  0  0  0  0  0
   38.0870   25.9230   36.2910 H   0  0  0  0  0  0  0  0  0  0  0  0
   36.4680   26.1990   31.1710 H   0  0  0  0  0  0  0  0  0  0  0  0
   35.1120   31.8770   35.0160 C   0  0  0  0  0  0  0  0  0  0  0  0
   35.6700   30.6040   34.9710 C   0  0  0  0  0  0  0  0  0  0  0  0
   35.6070   29.8640   33.8030 C   0  0  0  0  0  0  0  0  0  0  0  0
   34.9850   30.4390   32.7340 N   0  0  0  0  0  0  0  0  0  0  0  0
   34.4450   31.6830   32.7920 C   0  0  0  0  0  0  0  0  0  0  0  0
   34.5080   32.3850   33.9100 N   0  0  0  0  0  0  0  0  0  0  0  0
   35.2190   32.3670   35.9780 H   0  0  0  0  0  0  0  0  0  0  0  0
   36.1640   30.1440   35.8160 H   0  0  0  0  0  0  0  0  0  0  0  0
   33.9590   32.0880   31.8960 H   0  0  0  0  0  0  0  0  0  0  0  0
   38.8150   23.5150   35.1160 O   0  0  0  0  0  0  0  0  0  0  0  0
   38.7130   23.3440   36.4900 C   0  0  0  0  0  0  0  0  0  0  0  0
   37.6330   23.6100   37.2450 N   0  0  0  0  0  0  0  0  0  0  0  0
   37.8920   23.3230   38.5400 C   0  0  0  0  0  0  0  0  0  0  0  0
   37.3700   23.3640   39.4860 H   0  0  0  0  0  0  0  0  0  0  0  0
   39.1790   22.8680   38.5510 N   0  0  0  0  0  0  0  0  0  0  0  0
   39.8730   22.5140   39.2720 H   0  0  0  0  0  0  0  0  0  0  0  0
   39.6610   22.8820   37.3310 N   0  0  0  0  0  0  0  0  0  0  0  0
  1  2  1  0  0  0  0
  2 16  1  0  0  0  0
  2  3  2  0  0  0  0
  3 11  1  0  0  0  0
  4  3  1  0  0  0  0
  4  5  1  0  0  0  0
  5 12  1  0  0  0  0
  6 23  1  0  0  0  0
  6  5  1  0  0  0  0
  7  6  2  0  0  0  0
  8  7  1  0  0  0  0
  8  4  2  0  0  0  0
  9  1  2  0  0  0  0
  9  8  1  0  0  0  0
 10  1  1  0  0  0  0
 13  9  1  0  0  0  0
 14 20  1  0  0  0  0
 15 14  1  0  0  0  0
 15 21  1  0  0  0  0
 16 15  2  0  0  0  0
 17 18  2  0  0  0  0
 17 16  1  0  0  0  0
 18 19  1  0  0  0  0
 19 14  2  0  0  0  0
 22 18  1  0  0  0  0
 23 24  1  0  0  0  0
 24 25  1  0  0  0  0
 24 30  2  0  0  0  0
 25 26  2  0  0  0  0
 26 28  1  0  0  0  0
 26 27  1  0  0  0  0
 28 29  1  0  0  0  0
 30 28  1  0  0  0  0
M  END
>  <minimizedAffinity>
-5.60761738

$$$$

 OpenBabel03272510253D

 30 33  0  0  0  0  0  0  0  0999 V2000
   38.1660   24.7800   33.8090 C   0  0  0  0  0  0  0  0  0  0  0  0
   38.3690   25.1380   35.1460 C   0  0  0  0  0  0  0  0  0  0  0  0
   37.8910   26.3320   35.6350 C   0  0  0  0  0  0  0  0  0  0  0  0
   37.2020   27.1510   34.7280 C   0  0  0  0  0  0  0  0  0  0  0  0
   36.6460   28.3690   34.9950 N   0  0  0  0  0  0  0  0  0  0  0  0
   36.0990   28.7820   33.8560 C   0  0  0  0  0  0  0  0  0  0  0  0
   36.2850   27.8780   32.8790 N   0  0  0  0  0  0  0  0  0  0  0  0
   36.9810   26.8370   33.4110 C   0  0  0  0  0  0  0  0  0  0  0  0
   37.4760   25.6230   32.9420 C   0  0  0  0  0  0  0  0  0  0  0  0
   38.5210   23.8470   33.3610 H   0  0  0  0  0  0  0  0  0  0  0  0
   38.0450   26.6080   36.6570 H   0  0  0  0  0  0  0  0  0  0  0  0
   36.6590   28.8690   35.9310 H   0  0  0  0  0  0  0  0  0  0  0  0
   37.3050   25.3680   31.9030 H   0  0  0  0  0  0  0  0  0  0  0  0
   40.8810   22.6370   36.4040 C   0  0  0  0  0  0  0  0  0  0  0  0
   40.2470   23.5320   35.5490 C   0  0  0  0  0  0  0  0  0  0  0  0
   39.1010   24.1880   35.9630 C   0  0  0  0  0  0  0  0  0  0  0  0
   38.6450   23.9130   37.2180 N   0  0  0  0  0  0  0  0  0  0  0  0
   39.2740   23.0370   38.0420 C   0  0  0  0  0  0  0  0  0  0  0  0
   40.3680   22.4130   37.6420 N   0  0  0  0  0  0  0  0  0  0  0  0
   41.7680   22.1810   35.9790 H   0  0  0  0  0  0  0  0  0  0  0  0
   40.6050   23.7540   34.5530 H   0  0  0  0  0  0  0  0  0  0  0  0
   38.8550   22.8600   39.0410 H   0  0  0  0  0  0  0  0  0  0  0  0
   35.4260   29.9990   33.7160 O   0  0  0  0  0  0  0  0  0  0  0  0
   35.1620   30.7000   34.8850 C   0  0  0  0  0  0  0  0  0  0  0  0
   33.9470   30.9580   35.3990 N   0  0  0  0  0  0  0  0  0  0  0  0
   34.0700   31.6620   36.5460 C   0  0  0  0  0  0  0  0  0  0  0  0
   33.4170   32.0880   37.2940 H   0  0  0  0  0  0  0  0  0  0  0  0
   35.4150   31.8290   36.7160 N   0  0  0  0  0  0  0  0  0  0  0  0
   36.0580   32.2900   37.4230 H   0  0  0  0  0  0  0  0  0  0  0  0
   36.0580   31.2550   35.7270 N   0  0  0  0  0  0  0  0  0  0  0  0
  1  2  1  0  0  0  0
  2  3  2  0  0  0  0
  2 16  1  0  0  0  0
  3 11  1  0  0  0  0
  4  5  1  0  0  0  0
  4  3  1  0  0  0  0
  5 12  1  0  0  0  0
  6  5  1  0  0  0  0
  7  8  1  0  0  0  0
  7  6  2  0  0  0  0
  8  4  2  0  0  0  0
  9  8  1  0  0  0  0
  9  1  2  0  0  0  0
 10  1  1  0  0  0  0
 13  9  1  0  0  0  0
 14 19  1  0  0  0  0
 15 16  1  0  0  0  0
 15 14  2  0  0  0  0
 16 17  2  0  0  0  0
 17 18  1  0  0  0  0
 18 22  1  0  0  0  0
 19 18  2  0  0  0  0
 20 14  1  0  0  0  0
 21 15  1  0  0  0  0
 23  6  1  0  0  0  0
 23 24  1  0  0  0  0
 24 25  1  0  0  0  0
 24 30  2  0  0  0  0
 25 26  2  0  0  0  0
 26 28  1  0  0  0  0
 26 27  1  0  0  0  0
 28 29  1  0  0  0  0
 30 28  1  0  0  0  0
M  END
>  <minimizedAffinity>
-5.4098258

$$$$

 OpenBabel03272510253D

 30 33  0  0  0  0  0  0  0  0999 V2000
   36.3510   26.5000   31.3820 C   0  0  0  0  0  0  0  0  0  0  0  0
   36.6620   27.3980   32.4080 C   0  0  0  0  0  0  0  0  0  0  0  0
   37.2920   26.9660   33.5530 C   0  0  0  0  0  0  0  0  0  0  0  0
   37.5950   25.5980   33.6240 C   0  0  0  0  0  0  0  0  0  0  0  0
   38.2140   24.9570   34.6600 N   0  0  0  0  0  0  0  0  0  0  0  0
   38.2970   23.6790   34.3040 C   0  0  0  0  0  0  0  0  0  0  0  0
   37.7580   23.4820   33.0890 N   0  0  0  0  0  0  0  0  0  0  0  0
   37.3080   24.6860   32.6410 C   0  0  0  0  0  0  0  0  0  0  0  0
   36.6700   25.1490   31.4940 C   0  0  0  0  0  0  0  0  0  0  0  0
   35.8510   26.7810   30.4490 H   0  0  0  0  0  0  0  0  0  0  0  0
   37.5310   27.6510   34.3390 H   0  0  0  0  0  0  0  0  0  0  0  0
   38.5530   25.4080   35.5580 H   0  0  0  0  0  0  0  0  0  0  0  0
   36.4390   24.4350   30.7120 H   0  0  0  0  0  0  0  0  0  0  0  0
   35.9910   30.7560   30.8550 C   0  0  0  0  0  0  0  0  0  0  0  0
   36.3770   29.4260   30.9670 C   0  0  0  0  0  0  0  0  0  0  0  0
   36.2860   28.7820   32.1890 C   0  0  0  0  0  0  0  0  0  0  0  0
   35.8100   29.5070   33.2410 N   0  0  0  0  0  0  0  0  0  0  0  0
   35.4360   30.8060   33.1170 C   0  0  0  0  0  0  0  0  0  0  0  0
   35.5270   31.4160   31.9480 N   0  0  0  0  0  0  0  0  0  0  0  0
   36.1040   31.1610   29.8550 H   0  0  0  0  0  0  0  0  0  0  0  0
   36.7550   28.8470   30.1360 H   0  0  0  0  0  0  0  0  0  0  0  0
   35.0620   31.3330   34.0030 H   0  0  0  0  0  0  0  0  0  0  0  0
   38.8730   22.6880   35.1050 O   0  0  0  0  0  0  0  0  0  0  0  0
   38.7830   22.8700   36.4780 C   0  0  0  0  0  0  0  0  0  0  0  0
   37.7130   23.3320   37.1490 N   0  0  0  0  0  0  0  0  0  0  0  0
   37.9820   23.3770   38.4720 C   0  0  0  0  0  0  0  0  0  0  0  0
   37.4710   23.6620   39.3810 H   0  0  0  0  0  0  0  0  0  0  0  0
   39.2650   22.9230   38.5890 N   0  0  0  0  0  0  0  0  0  0  0  0
   39.9620   22.7540   39.3710 H   0  0  0  0  0  0  0  0  0  0  0  0
   39.7350   22.6230   37.4010 N   0  0  0  0  0  0  0  0  0  0  0  0
  1  9  2  0  0  0  0
  1  2  1  0  0  0  0
  2  3  2  0  0  0  0
  3  4  1  0  0  0  0
  3 11  1  0  0  0  0
  4  5  1  0  0  0  0
  5 12  1  0  0  0  0
  6  5  1  0  0  0  0
  6 23  1  0  0  0  0
  7  6  2  0  0  0  0
  8  7  1  0  0  0  0
  8  4  2  0  0  0  0
  9  8  1  0  0  0  0
 10  1  1  0  0  0  0
 13  9  1  0  0  0  0
 14 15  2  0  0  0  0
 14 19  1  0  0  0  0
 15 16  1  0  0  0  0
 16  2  1  0  0  0  0
 16 17  2  0  0  0  0
 18 17  1  0  0  0  0
 18 22  1  0  0  0  0
 19 18  2  0  0  0  0
 20 14  1  0  0  0  0
 21 15  1  0  0  0  0
 23 24  1  0  0  0  0
 24 25  1  0  0  0  0
 24 30  2  0  0  0  0
 25 26  2  0  0  0  0
 26 28  1  0  0  0  0
 26 27  1  0  0  0  0
 28 29  1  0  0  0  0
 30 28  1  0  0  0  0
M  END
>  <minimizedAffinity>
-5.34245634

$$$$

 OpenBabel03272510253D

 30 33  0  0  0  0  0  0  0  0999 V2000
   38.0610   24.9030   33.7880 C   0  0  0  0  0  0  0  0  0  0  0  0
   37.9790   25.3690   35.1050 C   0  0  0  0  0  0  0  0  0  0  0  0
   37.3970   26.5840   35.3850 C   0  0  0  0  0  0  0  0  0  0  0  0
   36.9030   27.3110   34.2920 C   0  0  0  0  0  0  0  0  0  0  0  0
   36.2920   28.5320   34.3380 N   0  0  0  0  0  0  0  0  0  0  0  0
   35.9890   28.8390   33.0810 C   0  0  0  0  0  0  0  0  0  0  0  0
   36.3830   27.8680   32.2400 N   0  0  0  0  0  0  0  0  0  0  0  0
   36.9640   26.8900   32.9880 C   0  0  0  0  0  0  0  0  0  0  0  0
   37.5570   25.6570   32.7320 C   0  0  0  0  0  0  0  0  0  0  0  0
   38.5110   23.9470   33.5010 H   0  0  0  0  0  0  0  0  0  0  0  0
   37.3340   26.9430   36.3910 H   0  0  0  0  0  0  0  0  0  0  0  0
   36.1060   29.1030   35.2130 H   0  0  0  0  0  0  0  0  0  0  0  0
   37.6090   25.3180   31.7040 H   0  0  0  0  0  0  0  0  0  0  0  0
   38.6140   23.5250   38.3200 C   0  0  0  0  0  0  0  0  0  0  0  0
   38.0110   24.3800   37.4040 C   0  0  0  0  0  0  0  0  0  0  0  0
   38.5340   24.5050   36.1290 C   0  0  0  0  0  0  0  0  0  0  0  0
   39.6400   23.7640   35.8340 N   0  0  0  0  0  0  0  0  0  0  0  0
   40.2190   22.9330   36.7380 C   0  0  0  0  0  0  0  0  0  0  0  0
   39.7150   22.8180   37.9540 N   0  0  0  0  0  0  0  0  0  0  0  0
   38.1220   23.5030   39.2870 H   0  0  0  0  0  0  0  0  0  0  0  0
   37.1330   24.9690   37.6330 H   0  0  0  0  0  0  0  0  0  0  0  0
   41.1070   22.3640   36.4380 H   0  0  0  0  0  0  0  0  0  0  0  0
   35.3480   30.0240   32.7070 O   0  0  0  0  0  0  0  0  0  0  0  0
   33.9600   29.9920   32.6630 C   0  0  0  0  0  0  0  0  0  0  0  0
   33.1580   29.2610   33.4570 N   0  0  0  0  0  0  0  0  0  0  0  0
   31.8650   29.4790   33.1330 C   0  0  0  0  0  0  0  0  0  0  0  0
   30.8920   29.1420   33.4630 H   0  0  0  0  0  0  0  0  0  0  0  0
   31.9030   30.3750   32.1030 N   0  0  0  0  0  0  0  0  0  0  0  0
   31.2040   30.8790   31.4830 H   0  0  0  0  0  0  0  0  0  0  0  0
   33.1510   30.6760   31.8290 N   0  0  0  0  0  0  0  0  0  0  0  0
  1  2  1  0  0  0  0
  2  3  2  0  0  0  0
  2 16  1  0  0  0  0
  3 11  1  0  0  0  0
  4  5  1  0  0  0  0
  4  3  1  0  0  0  0
  5 12  1  0  0  0  0
  6  5  1  0  0  0  0
  7  8  1  0  0  0  0
  7  6  2  0  0  0  0
  8  4  2  0  0  0  0
  9  8  1  0  0  0  0
  9  1  2  0  0  0  0
 10  1  1  0  0  0  0
 13  9  1  0  0  0  0
 14 20  1  0  0  0  0
 15 21  1  0  0  0  0
 15 14  2  0  0  0  0
 16 15  1  0  0  0  0
 17 16  2  0  0  0  0
 17 18  1  0  0  0  0
 18 19  2  0  0  0  0
 19 14  1  0  0  0  0
 22 18  1  0  0  0  0
 23  6  1  0  0  0  0
 24 23  1  0  0  0  0
 24 25  1  0  0  0  0
 26 25  2  0  0  0  0
 26 27  1  0  0  0  0
 28 26  1  0  0  0  0
 29 28  1  0  0  0  0
 30 28  1  0  0  0  0
 30 24  2  0  0  0  0
M  END
>  <minimizedAffinity>
-5.32947969

$$$$

 OpenBabel03272510253D

 30 33  0  0  0  0  0  0  0  0999 V2000
   37.2900   23.6850   32.7900 C   0  0  0  0  0  0  0  0  0  0  0  0
   36.4240   23.3340   31.7500 C   0  0  0  0  0  0  0  0  0  0  0  0
   35.9080   24.2940   30.9100 C   0  0  0  0  0  0  0  0  0  0  0  0
   36.2960   25.6200   31.1590 C   0  0  0  0  0  0  0  0  0  0  0  0
   35.9080   26.7240   30.4560 N   0  0  0  0  0  0  0  0  0  0  0  0
   36.5130   27.7580   31.0330 C   0  0  0  0  0  0  0  0  0  0  0  0
   37.2660   27.3570   32.0710 N   0  0  0  0  0  0  0  0  0  0  0  0
   37.1430   26.0050   32.1670 C   0  0  0  0  0  0  0  0  0  0  0  0
   37.6500   25.0130   33.0020 C   0  0  0  0  0  0  0  0  0  0  0  0
   37.7330   22.9690   33.4910 H   0  0  0  0  0  0  0  0  0  0  0  0
   35.2450   24.0290   30.1140 H   0  0  0  0  0  0  0  0  0  0  0  0
   35.2550   26.7330   29.6200 H   0  0  0  0  0  0  0  0  0  0  0  0
   38.3200   25.3100   33.8010 H   0  0  0  0  0  0  0  0  0  0  0  0
   34.8560   19.9330   32.0930 C   0  0  0  0  0  0  0  0  0  0  0  0
   35.0760   21.2930   32.2830 C   0  0  0  0  0  0  0  0  0  0  0  0
   36.1140   21.9230   31.6180 C   0  0  0  0  0  0  0  0  0  0  0  0
   36.8820   21.1560   30.7930 N   0  0  0  0  0  0  0  0  0  0  0  0
   36.6560   19.8290   30.6170 C   0  0  0  0  0  0  0  0  0  0  0  0
   35.6640   19.2330   31.2550 N   0  0  0  0  0  0  0  0  0  0  0  0
   34.0180   19.5430   32.6610 H   0  0  0  0  0  0  0  0  0  0  0  0
   34.4690   21.9050   32.9360 H   0  0  0  0  0  0  0  0  0  0  0  0
   37.3100   19.2680   29.9390 H   0  0  0  0  0  0  0  0  0  0  0  0
   36.3680   29.0800   30.6000 O   0  0  0  0  0  0  0  0  0  0  0  0
   37.0690   29.4400   29.4570 C   0  0  0  0  0  0  0  0  0  0  0  0
   37.1520   30.6740   28.9320 N   0  0  0  0  0  0  0  0  0  0  0  0
   37.9190   30.6530   27.8200 C   0  0  0  0  0  0  0  0  0  0  0  0
   38.2680   31.3580   27.0780 H   0  0  0  0  0  0  0  0  0  0  0  0
   38.3040   29.3500   27.6800 N   0  0  0  0  0  0  0  0  0  0  0  0
   38.8930   28.7810   27.0050 H   0  0  0  0  0  0  0  0  0  0  0  0
   37.7960   28.6350   28.6560 N   0  0  0  0  0  0  0  0  0  0  0  0
  1  9  1  0  0  0  0
  1 10  1  0  0  0  0
  2  1  2  0  0  0  0
  3  4  2  0  0  0  0
  3  2  1  0  0  0  0
  4  8  1  0  0  0  0
  5  6  1  0  0  0  0
  5  4  1  0  0  0  0
  6  7  2  0  0  0  0
  7  8  1  0  0  0  0
  8  9  2  0  0  0  0
  9 13  1  0  0  0  0
 11  3  1  0  0  0  0
 12  5  1  0  0  0  0
 14 15  1  0  0  0  0
 14 20  1  0  0  0  0
 15 21  1  0  0  0  0
 16  2  1  0  0  0  0
 16 15  2  0  0  0  0
 17 16  1  0  0  0  0
 18 17  2  0  0  0  0
 18 19  1  0  0  0  0
 19 14  2  0  0  0  0
 22 18  1  0  0  0  0
 23  6  1  0  0  0  0
 24 23  1  0  0  0  0
 25 24  1  0  0  0  0
 26 25  2  0  0  0  0
 27 26  1  0  0  0  0
 28 26  1  0  0  0  0
 28 30  1  0  0  0  0
 29 28  1  0  0  0  0
 30 24  2  0  0  0  0
M  END
>  <minimizedAffinity>
-5.29571629

$$$$

 OpenBabel03272510253D

 30 33  0  0  0  0  0  0  0  0999 V2000
   35.4210   30.5920   32.5930 C   0  0  0  0  0  0  0  0  0  0  0  0
   35.4530   29.9080   33.8130 C   0  0  0  0  0  0  0  0  0  0  0  0
   35.9560   28.6290   33.8880 C   0  0  0  0  0  0  0  0  0  0  0  0
   36.4230   28.0670   32.6910 C   0  0  0  0  0  0  0  0  0  0  0  0
   36.9590   26.8200   32.5350 N   0  0  0  0  0  0  0  0  0  0  0  0
   37.2630   26.7100   31.2450 C   0  0  0  0  0  0  0  0  0  0  0  0
   36.9420   27.8310   30.5780 N   0  0  0  0  0  0  0  0  0  0  0  0
   36.4090   28.7040   31.4760 C   0  0  0  0  0  0  0  0  0  0  0  0
   35.8950   29.9960   31.4280 C   0  0  0  0  0  0  0  0  0  0  0  0
   35.0340   31.6090   32.4680 H   0  0  0  0  0  0  0  0  0  0  0  0
   35.9820   28.1040   34.8200 H   0  0  0  0  0  0  0  0  0  0  0  0
   37.0960   26.1000   33.3020 H   0  0  0  0  0  0  0  0  0  0  0  0
   35.8810   30.5060   30.4710 H   0  0  0  0  0  0  0  0  0  0  0  0
   35.0990   32.1200   36.8330 C   0  0  0  0  0  0  0  0  0  0  0  0
   35.6850   31.4810   35.7470 C   0  0  0  0  0  0  0  0  0  0  0  0
   34.9340   30.6200   34.9650 C   0  0  0  0  0  0  0  0  0  0  0  0
   33.6280   30.4440   35.3120 N   0  0  0  0  0  0  0  0  0  0  0  0
   33.0680   31.0740   36.3760 C   0  0  0  0  0  0  0  0  0  0  0  0
   33.7900   31.8940   37.1190 N   0  0  0  0  0  0  0  0  0  0  0  0
   35.7770   32.7700   37.3760 H   0  0  0  0  0  0  0  0  0  0  0  0
   36.7210   31.6190   35.4670 H   0  0  0  0  0  0  0  0  0  0  0  0
   32.0110   30.8890   36.6020 H   0  0  0  0  0  0  0  0  0  0  0  0
   37.8380   25.5670   30.6800 O   0  0  0  0  0  0  0  0  0  0  0  0
   37.1750   24.3670   30.8970 C   0  0  0  0  0  0  0  0  0  0  0  0
   37.7330   23.1440   30.9180 N   0  0  0  0  0  0  0  0  0  0  0  0
   36.7880   22.2090   31.1570 C   0  0  0  0  0  0  0  0  0  0  0  0
   36.7370   21.1340   31.2630 H   0  0  0  0  0  0  0  0  0  0  0  0
   35.6210   22.9080   31.2830 N   0  0  0  0  0  0  0  0  0  0  0  0
   34.5990   22.6890   31.4690 H   0  0  0  0  0  0  0  0  0  0  0  0
   35.8580   24.1890   31.1280 N   0  0  0  0  0  0  0  0  0  0  0  0
  1  2  1  0  0  0  0
  2  3  2  0  0  0  0
  2 16  1  0  0  0  0
  3 11  1  0  0  0  0
  4  3  1  0  0  0  0
  5  4  1  0  0  0  0
  5 12  1  0  0  0  0
  6  5  1  0  0  0  0
  7  6  2  0  0  0  0
  7  8  1  0  0  0  0
  8  4  2  0  0  0  0
  9  8  1  0  0  0  0
  9  1  2  0  0  0  0
 10  1  1  0  0  0  0
 13  9  1  0  0  0  0
 14 19  1  0  0  0  0
 14 20  1  0  0  0  0
 15 14  2  0  0  0  0
 16 17  2  0  0  0  0
 16 15  1  0  0  0  0
 17 18  1  0  0  0  0
 18 22  1  0  0  0  0
 18 19  2  0  0  0  0
 21 15  1  0  0  0  0
 23 24  1  0  0  0  0
 23  6  1  0  0  0  0
 24 25  1  0  0  0  0
 24 30  2  0  0  0  0
 25 26  2  0  0  0  0
 26 27  1  0  0  0  0
 26 28  1  0  0  0  0
 28 29  1  0  0  0  0
 30 28  1  0  0  0  0
M  END
>  <minimizedAffinity>
-5.19731188

$$$$

 OpenBabel03272510253D

 30 33  0  0  0  0  0  0  0  0999 V2000
   37.3380   26.0730   32.7210 C   0  0  0  0  0  0  0  0  0  0  0  0
   37.4940   26.0130   34.1090 C   0  0  0  0  0  0  0  0  0  0  0  0
   37.0710   27.0500   34.9100 C   0  0  0  0  0  0  0  0  0  0  0  0
   36.4860   28.1460   34.2590 C   0  0  0  0  0  0  0  0  0  0  0  0
   35.9980   29.2760   34.8510 N   0  0  0  0  0  0  0  0  0  0  0  0
   35.5400   30.0400   33.8650 C   0  0  0  0  0  0  0  0  0  0  0  0
   35.7170   29.4440   32.6740 N   0  0  0  0  0  0  0  0  0  0  0  0
   36.3140   28.2430   32.9010 C   0  0  0  0  0  0  0  0  0  0  0  0
   36.7510   27.1810   32.1150 C   0  0  0  0  0  0  0  0  0  0  0  0
   37.6540   25.2830   32.0320 H   0  0  0  0  0  0  0  0  0  0  0  0
   37.1890   27.0070   35.9720 H   0  0  0  0  0  0  0  0  0  0  0  0
   35.9950   29.4820   35.8920 H   0  0  0  0  0  0  0  0  0  0  0  0
   36.6190   27.2500   31.0420 H   0  0  0  0  0  0  0  0  0  0  0  0
   39.2160   23.5160   36.3330 C   0  0  0  0  0  0  0  0  0  0  0  0
   38.6360   24.7090   35.9160 C   0  0  0  0  0  0  0  0  0  0  0  0
   38.1180   24.8140   34.6360 C   0  0  0  0  0  0  0  0  0  0  0  0
   38.2080   23.7140   33.8360 N   0  0  0  0  0  0  0  0  0  0  0  0
   38.7770   22.5560   34.2560 C   0  0  0  0  0  0  0  0  0  0  0  0
   39.2700   22.4610   35.4780 N   0  0  0  0  0  0  0  0  0  0  0  0
   39.5880   23.5440   37.3510 H   0  0  0  0  0  0  0  0  0  0  0  0
   38.5620   25.5840   36.5470 H   0  0  0  0  0  0  0  0  0  0  0  0
   38.8180   21.7070   33.5630 H   0  0  0  0  0  0  0  0  0  0  0  0
   34.9570   31.2950   34.0640 O   0  0  0  0  0  0  0  0  0  0  0  0
   34.6560   31.6390   35.3760 C   0  0  0  0  0  0  0  0  0  0  0  0
   33.4260   31.7460   35.9070 N   0  0  0  0  0  0  0  0  0  0  0  0
   33.5140   32.0960   37.2080 C   0  0  0  0  0  0  0  0  0  0  0  0
   32.8370   32.2970   38.0280 H   0  0  0  0  0  0  0  0  0  0  0  0
   34.8520   32.2020   37.4580 N   0  0  0  0  0  0  0  0  0  0  0  0
   35.4730   32.4420   38.2850 H   0  0  0  0  0  0  0  0  0  0  0  0
   35.5260   31.9290   36.3660 N   0  0  0  0  0  0  0  0  0  0  0  0
  1  2  1  0  0  0  0
  2 16  1  0  0  0  0
  2  3  2  0  0  0  0
  3 11  1  0  0  0  0
  4  5  1  0  0  0  0
  4  3  1  0  0  0  0
  5 12  1  0  0  0  0
  6 23  1  0  0  0  0
  6  5  1  0  0  0  0
  7  8  1  0  0  0  0
  7  6  2  0  0  0  0
  8  4  2  0  0  0  0
  9  1  2  0  0  0  0
  9  8  1  0  0  0  0
 10  1  1  0  0  0  0
 13  9  1  0  0  0  0
 14 20  1  0  0  0  0
 15 14  1  0  0  0  0
 15 21  1  0  0  0  0
 16 15  2  0  0  0  0
 17 18  2  0  0  0  0
 17 16  1  0  0  0  0
 18 19  1  0  0  0  0
 19 14  2  0  0  0  0
 22 18  1  0  0  0  0
 23 24  1  0  0  0  0
 24 25  1  0  0  0  0
 24 30  2  0  0  0  0
 25 26  2  0  0  0  0
 26 28  1  0  0  0  0
 26 27  1  0  0  0  0
 28 29  1  0  0  0  0
 30 28  1  0  0  0  0
M  END
>  <minimizedAffinity>
-5.17208338

$$$$

 OpenBabel03272510253D

 30 33  0  0  0  0  0  0  0  0999 V2000
   36.3390   28.0990   32.8340 C   0  0  0  0  0  0  0  0  0  0  0  0
   36.3590   28.4950   34.1750 C   0  0  0  0  0  0  0  0  0  0  0  0
   37.2170   27.8990   35.0710 C   0  0  0  0  0  0  0  0  0  0  0  0
   38.0520   26.8900   34.5650 C   0  0  0  0  0  0  0  0  0  0  0  0
   38.9730   26.1710   35.2700 N   0  0  0  0  0  0  0  0  0  0  0  0
   39.5310   25.3340   34.4000 C   0  0  0  0  0  0  0  0  0  0  0  0
   39.0010   25.4920   33.1750 N   0  0  0  0  0  0  0  0  0  0  0  0
   38.0630   26.4740   33.2580 C   0  0  0  0  0  0  0  0  0  0  0  0
   37.1850   27.0940   32.3730 C   0  0  0  0  0  0  0  0  0  0  0  0
   35.6810   28.5340   32.0740 H   0  0  0  0  0  0  0  0  0  0  0  0
   37.2350   28.1990   36.0970 H   0  0  0  0  0  0  0  0  0  0  0  0
   39.1870   26.2740   36.3040 H   0  0  0  0  0  0  0  0  0  0  0  0
   37.1880   26.7700   31.3380 H   0  0  0  0  0  0  0  0  0  0  0  0
   34.8470   31.6450   35.5640 C   0  0  0  0  0  0  0  0  0  0  0  0
   35.8030   30.6860   35.2500 C   0  0  0  0  0  0  0  0  0  0  0  0
   35.4370   29.5500   34.5490 C   0  0  0  0  0  0  0  0  0  0  0  0
   34.1260   29.4320   34.1960 N   0  0  0  0  0  0  0  0  0  0  0  0
   33.2020   30.3760   34.5090 C   0  0  0  0  0  0  0  0  0  0  0  0
   33.5570   31.4590   35.1790 N   0  0  0  0  0  0  0  0  0  0  0  0
   35.2420   32.4930   36.1140 H   0  0  0  0  0  0  0  0  0  0  0  0
   36.8450   30.7760   35.5280 H   0  0  0  0  0  0  0  0  0  0  0  0
   32.1630   30.2210   34.1960 H   0  0  0  0  0  0  0  0  0  0  0  0
   40.5320   24.4180   34.7380 O   0  0  0  0  0  0  0  0  0  0  0  0
   40.2860   23.6080   35.8380 C   0  0  0  0  0  0  0  0  0  0  0  0
   41.2090   22.9570   36.5670 N   0  0  0  0  0  0  0  0  0  0  0  0
   40.6100   22.2660   37.5610 C   0  0  0  0  0  0  0  0  0  0  0  0
   40.9060   21.6170   38.3730 H   0  0  0  0  0  0  0  0  0  0  0  0
   39.2760   22.5180   37.4140 N   0  0  0  0  0  0  0  0  0  0  0  0
   38.3730   22.2440   37.9010 H   0  0  0  0  0  0  0  0  0  0  0  0
   39.0900   23.3160   36.3890 N   0  0  0  0  0  0  0  0  0  0  0  0
  1  2  1  0  0  0  0
  2 16  1  0  0  0  0
  2  3  2  0  0  0  0
  3 11  1  0  0  0  0
  4  3  1  0  0  0  0
  4  5  1  0  0  0  0
  5 12  1  0  0  0  0
  6 23  1  0  0  0  0
  6  5  1  0  0  0  0
  7  8  1  0  0  0  0
  7  6  2  0  0  0  0
  8  4  2  0  0  0  0
  9  1  2  0  0  0  0
  9  8  1  0  0  0  0
 10  1  1  0  0  0  0
 13  9  1  0  0  0  0
 14 20  1  0  0  0  0
 15 21  1  0  0  0  0
 15 14  1  0  0  0  0
 16 15  2  0  0  0  0
 17 18  2  0  0  0  0
 17 16  1  0  0  0  0
 18 19  1  0  0  0  0
 19 14  2  0  0  0  0
 22 18  1  0  0  0  0
 23 24  1  0  0  0  0
 24 30  2  0  0  0  0
 24 25  1  0  0  0  0
 25 26  2  0  0  0  0
 26 27  1  0  0  0  0
 28 26  1  0  0  0  0
 28 29  1  0  0  0  0
 30 28  1  0  0  0  0
M  END
>  <minimizedAffinity>
-5.07642365

$$$$

 OpenBabel03272510253D

 30 33  0  0  0  0  0  0  0  0999 V2000
   37.5910   27.7850   34.9190 C   0  0  0  0  0  0  0  0  0  0  0  0
   37.3470   27.1670   33.6890 C   0  0  0  0  0  0  0  0  0  0  0  0
   37.5420   25.8140   33.5310 C   0  0  0  0  0  0  0  0  0  0  0  0
   37.9920   25.1090   34.6580 C   0  0  0  0  0  0  0  0  0  0  0  0
   38.2510   23.7700   34.7280 N   0  0  0  0  0  0  0  0  0  0  0  0
   38.6500   23.5370   35.9740 C   0  0  0  0  0  0  0  0  0  0  0  0
   38.6560   24.6700   36.6960 N   0  0  0  0  0  0  0  0  0  0  0  0
   38.2420   25.6780   35.8810 C   0  0  0  0  0  0  0  0  0  0  0  0
   38.0370   27.0480   36.0130 C   0  0  0  0  0  0  0  0  0  0  0  0
   37.4550   28.8550   35.1070 H   0  0  0  0  0  0  0  0  0  0  0  0
   37.3570   25.3380   32.5910 H   0  0  0  0  0  0  0  0  0  0  0  0
   38.1470   23.0730   33.9340 H   0  0  0  0  0  0  0  0  0  0  0  0
   38.2320   27.5050   36.9760 H   0  0  0  0  0  0  0  0  0  0  0  0
   35.5860   29.8240   31.6930 C   0  0  0  0  0  0  0  0  0  0  0  0
   35.9690   29.0510   32.7830 C   0  0  0  0  0  0  0  0  0  0  0  0
   36.8850   28.0270   32.6160 C   0  0  0  0  0  0  0  0  0  0  0  0
   37.3740   27.8290   31.3590 N   0  0  0  0  0  0  0  0  0  0  0  0
   36.9920   28.5910   30.3030 C   0  0  0  0  0  0  0  0  0  0  0  0
   36.1160   29.5670   30.4690 N   0  0  0  0  0  0  0  0  0  0  0  0
   34.8650   30.5970   31.9370 H   0  0  0  0  0  0  0  0  0  0  0  0
   35.5840   29.2050   33.7820 H   0  0  0  0  0  0  0  0  0  0  0  0
   37.4230   28.3800   29.3170 H   0  0  0  0  0  0  0  0  0  0  0  0
   39.0120   22.2720   36.4480 O   0  0  0  0  0  0  0  0  0  0  0  0
   40.3640   21.9610   36.4150 C   0  0  0  0  0  0  0  0  0  0  0  0
   41.1580   21.9820   35.3300 N   0  0  0  0  0  0  0  0  0  0  0  0
   42.4150   21.6230   35.6710 C   0  0  0  0  0  0  0  0  0  0  0  0
   43.3690   21.4930   35.1780 H   0  0  0  0  0  0  0  0  0  0  0  0
   42.3630   21.3780   37.0130 N   0  0  0  0  0  0  0  0  0  0  0  0
   43.0360   21.0740   37.7750 H   0  0  0  0  0  0  0  0  0  0  0  0
   41.1420   21.5810   37.4490 N   0  0  0  0  0  0  0  0  0  0  0  0
  1 10  1  0  0  0  0
  1  9  1  0  0  0  0
  2  1  2  0  0  0  0
  3  2  1  0  0  0  0
  3  4  2  0  0  0  0
  4  5  1  0  0  0  0
  4  8  1  0  0  0  0
  5  6  1  0  0  0  0
  6 23  1  0  0  0  0
  6  7  2  0  0  0  0
  8  9  2  0  0  0  0
  8  7  1  0  0  0  0
  9 13  1  0  0  0  0
 11  3  1  0  0  0  0
 12  5  1  0  0  0  0
 14 20  1  0  0  0  0
 14 15  1  0  0  0  0
 15 21  1  0  0  0  0
 16 15  2  0  0  0  0
 16  2  1  0  0  0  0
 17 16  1  0  0  0  0
 18 19  1  0  0  0  0
 18 17  2  0  0  0  0
 19 14  2  0  0  0  0
 22 18  1  0  0  0  0
 24 23  1  0  0  0  0
 24 30  2  0  0  0  0
 25 26  2  0  0  0  0
 25 24  1  0  0  0  0
 26 28  1  0  0  0  0
 27 26  1  0  0  0  0
 28 30  1  0  0  0  0
 28 29  1  0  0  0  0
M  END
>  <minimizedAffinity>
-5.06322193

$$$$
