
 OpenBabel03272510133D

 39 42  0  0  0  0  0  0  0  0999 V2000
   38.3280   31.6040   48.8280 C   0  0  0  0  0  0  0  0  0  0  0  0
   38.5410   32.8670   49.3340 C   0  0  0  0  0  0  0  0  0  0  0  0
   39.2030   33.5950   48.3400 C   0  0  0  0  0  0  0  0  0  0  0  0
   39.3620   32.7720   47.2980 N   0  0  0  0  0  0  0  0  0  0  0  0
   38.8500   31.6210   47.5960 N   0  0  0  0  0  0  0  0  0  0  0  0
   38.3260   33.3820   50.2600 H   0  0  0  0  0  0  0  0  0  0  0  0
   39.5480   34.6330   48.3490 H   0  0  0  0  0  0  0  0  0  0  0  0
   39.9990   33.1000   46.0560 C   0  0  0  0  0  0  0  0  0  0  0  0
   40.7050   33.9310   46.2510 H   0  0  0  0  0  0  0  0  0  0  0  0
   39.2690   33.5370   45.3160 H   0  0  0  0  0  0  0  0  0  0  0  0
   40.6830   31.9000   45.5120 C   0  0  0  0  0  0  0  0  0  0  0  0
   41.7500   32.1870   45.3420 H   0  0  0  0  0  0  0  0  0  0  0  0
   40.7560   31.1650   46.3700 H   0  0  0  0  0  0  0  0  0  0  0  0
   40.1550   31.2710   44.3260 C   0  0  0  0  0  0  0  0  0  0  0  0
   39.4220   30.1200   44.3780 N   0  0  0  0  0  0  0  0  0  0  0  0
   39.0450   29.7400   43.1500 C   0  0  0  0  0  0  0  0  0  0  0  0
   38.4600   28.8770   42.8570 H   0  0  0  0  0  0  0  0  0  0  0  0
   39.5360   30.6520   42.2970 N   0  0  0  0  0  0  0  0  0  0  0  0
   39.4720   30.7290   41.2640 H   0  0  0  0  0  0  0  0  0  0  0  0
   40.1880   31.5480   43.0100 N   0  0  0  0  0  0  0  0  0  0  0  0
   37.6790   30.7390   49.6850 O   0  0  0  0  0  0  0  0  0  0  0  0
   34.1110   28.9080   48.4130 C   0  0  0  0  0  0  0  0  0  0  0  0
   34.8650   28.3690   49.4090 C   0  0  0  0  0  0  0  0  0  0  0  0
   36.0350   28.9110   49.8730 C   0  0  0  0  0  0  0  0  0  0  0  0
   36.5210   30.0600   49.3400 C   0  0  0  0  0  0  0  0  0  0  0  0
   35.7610   30.6250   48.3160 C   0  0  0  0  0  0  0  0  0  0  0  0
   34.6110   30.0650   47.8830 N   0  0  0  0  0  0  0  0  0  0  0  0
   34.5500   27.4560   49.8880 H   0  0  0  0  0  0  0  0  0  0  0  0
   36.6290   28.4700   50.6710 H   0  0  0  0  0  0  0  0  0  0  0  0
   36.0670   31.5480   47.8230 H   0  0  0  0  0  0  0  0  0  0  0  0
   32.0230   27.5800   48.6950 C   0  0  0  0  0  0  0  0  0  0  0  0
   32.8890   28.3540   47.9170 C   0  0  0  0  0  0  0  0  0  0  0  0
   32.5200   28.5740   46.6080 C   0  0  0  0  0  0  0  0  0  0  0  0
   31.3530   28.0440   46.1290 N   0  0  0  0  0  0  0  0  0  0  0  0
   30.5520   27.3020   46.9300 C   0  0  0  0  0  0  0  0  0  0  0  0
   30.8710   27.0550   48.2270 N   0  0  0  0  0  0  0  0  0  0  0  0
   32.2700   27.3810   49.7270 H   0  0  0  0  0  0  0  0  0  0  0  0
   33.1660   29.1720   45.9670 H   0  0  0  0  0  0  0  0  0  0  0  0
   29.6530   26.9330   46.4430 H   0  0  0  0  0  0  0  0  0  0  0  0
  1  2  1  0  0  0  0
  1 21  1  0  0  0  0
  2  6  1  0  0  0  0
  3  7  1  0  0  0  0
  3  2  2  0  0  0  0
  4  5  1  0  0  0  0
  4  3  1  0  0  0  0
  5  1  2  0  0  0  0
  8  9  1  0  0  0  0
  8  4  1  0  0  0  0
 10  8  1  0  0  0  0
 11  8  1  0  0  0  0
 11 13  1  0  0  0  0
 12 11  1  0  0  0  0
 14 15  1  0  0  0  0
 14 11  1  0  0  0  0
 16 15  2  0  0  0  0
 17 16  1  0  0  0  0
 18 20  1  0  0  0  0
 18 16  1  0  0  0  0
 19 18  1  0  0  0  0
 20 14  2  0  0  0  0
 22 23  1  0  0  0  0
 23 24  2  0  0  0  0
 23 28  1  0  0  0  0
 24 29  1  0  0  0  0
 25 21  1  0  0  0  0
 25 24  1  0  0  0  0
 26 25  2  0  0  0  0
 27 26  1  0  0  0  0
 27 22  2  0  0  0  0
 30 26  1  0  0  0  0
 31 37  1  0  0  0  0
 32 22  1  0  0  0  0
 32 31  2  0  0  0  0
 33 32  1  0  0  0  0
 34 33  2  0  0  0  0
 34 35  1  0  0  0  0
 35 36  2  0  0  0  0
 36 31  1  0  0  0  0
 38 33  1  0  0  0  0
 39 35  1  0  0  0  0
M  END
>  <minimizedAffinity>
-5.98363495

>  <minimizedRMSD>
0.84449172

$$$$
