
 OpenBabel03272507193D

 28 30  0  0  1  0  0  0  0  0999 V2000
   37.5450   31.4480   49.4580 C   0  0  0  0  0  0  0  0  0  0  0  0
   38.2470   32.6330   49.6650 C   0  0  0  0  0  0  0  0  0  0  0  0
   38.9130   33.1240   48.5450 C   0  0  0  0  0  0  0  0  0  0  0  0
   38.8590   32.4650   47.3400 N   0  0  0  0  0  0  0  0  0  0  0  0
   38.1600   31.3100   47.1890 C   0  0  0  0  0  0  0  0  0  0  0  0
   37.4950   30.7980   48.2630 N   0  0  0  0  0  0  0  0  0  0  0  0
   38.2760   33.1300   50.6080 H   0  0  0  0  0  0  0  0  0  0  0  0
   39.4900   34.0410   48.5960 H   0  0  0  0  0  0  0  0  0  0  0  0
   36.8060   30.9060   50.6400 C   0  0  1  0  0  0  0  0  0  0  0  0
   36.0940   29.6290   50.5820 C   0  0  2  0  0  0  0  0  0  0  0  0
   37.4630   29.6220   51.1880 C   0  0  0  0  0  0  0  0  0  0  0  0
   36.6210   31.6790   51.4310 H   0  0  0  0  0  0  0  0  0  0  0  0
   35.1570   29.6380   51.2090 H   0  0  0  0  0  0  0  0  0  0  0  0
   38.2880   29.1660   50.6310 H   0  0  0  0  0  0  0  0  0  0  0  0
   37.5120   29.5430   52.2880 H   0  0  0  0  0  0  0  0  0  0  0  0
   35.9050   29.0610   49.3290 O   0  0  0  0  0  0  0  0  0  0  0  0
   34.7520   28.8240   48.6580 C   0  0  0  0  0  0  0  0  0  0  0  0
   34.3030   27.6710   48.4890 O   0  0  0  0  0  0  0  0  0  0  0  0
   34.2210   30.0410   48.2350 N   0  0  0  0  0  0  0  0  0  0  0  0
   34.6810   30.8150   47.7580 H   0  0  0  0  0  0  0  0  0  0  0  0
   33.2090   30.1280   48.4590 H   0  0  0  0  0  0  0  0  0  0  0  0
   38.1590   30.6880   45.8920 C   0  0  0  0  0  0  0  0  0  0  0  0
   37.0160   30.5670   45.1550 N   0  0  0  0  0  0  0  0  0  0  0  0
   37.2810   29.9490   43.9810 C   0  0  0  0  0  0  0  0  0  0  0  0
   36.4530   29.7940   43.3070 H   0  0  0  0  0  0  0  0  0  0  0  0
   38.5980   29.6830   43.9890 N   0  0  0  0  0  0  0  0  0  0  0  0
   39.0380   29.2070   43.1840 H   0  0  0  0  0  0  0  0  0  0  0  0
   39.1340   30.1240   45.1350 N   0  0  0  0  0  0  0  0  0  0  0  0
  1  2  1  0  0  0  0
  1  9  1  0  0  0  0
  2  7  1  0  0  0  0
  3  8  1  0  0  0  0
  3  2  2  0  0  0  0
  4  3  1  0  0  0  0
  5  4  2  0  0  0  0
  5  6  1  0  0  0  0
  6  1  2  0  0  0  0
  9 11  1  0  0  0  0
  9 12  1  1  0  0  0
 10  9  1  0  0  0  0
 10 11  1  0  0  0  0
 10 13  1  1  0  0  0
 11 15  1  0  0  0  0
 14 11  1  0  0  0  0
 16 10  1  0  0  0  0
 17 16  1  0  0  0  0
 18 17  2  0  0  0  0
 19 21  1  0  0  0  0
 19 17  1  0  0  0  0
 20 19  1  0  0  0  0
 22  5  1  0  0  0  0
 23 22  1  0  0  0  0
 24 26  1  0  0  0  0
 24 23  2  0  0  0  0
 25 24  1  0  0  0  0
 26 28  1  0  0  0  0
 27 26  1  0  0  0  0
 28 22  2  0  0  0  0
M  END
>  <minimizedAffinity>
-5.32973814

>  <minimizedRMSD>
1.10349178

$$$$
