
 OpenBabel03262523323D

 38 42  0  0  1  0  0  0  0  0999 V2000
   35.8960   29.4880   50.7170 C   0  0  0  0  0  0  0  0  0  0  0  0
   36.6390   30.2130   49.8080 C   0  0  0  0  0  0  0  0  0  0  0  0
   36.3300   30.1070   48.4420 C   0  0  0  0  0  0  0  0  0  0  0  0
   35.2980   29.2820   48.0830 N   0  0  0  0  0  0  0  0  0  0  0  0
   34.6000   28.5920   49.0070 C   0  0  0  0  0  0  0  0  0  0  0  0
   34.8800   28.6820   50.3020 N   0  0  0  0  0  0  0  0  0  0  0  0
   36.1060   29.5430   51.7960 H   0  0  0  0  0  0  0  0  0  0  0  0
   37.4420   30.8520   50.1200 H   0  0  0  0  0  0  0  0  0  0  0  0
   36.6510   30.5640   46.0950 C   0  0  0  0  0  0  0  0  0  0  0  0
   37.0450   30.8200   47.4140 C   0  0  0  0  0  0  0  0  0  0  0  0
   38.0630   31.7040   47.6450 C   0  0  0  0  0  0  0  0  0  0  0  0
   38.6790   32.3240   46.5870 C   0  0  0  0  0  0  0  0  0  0  0  0
   39.6920   33.2190   46.5850 N   0  0  0  0  0  0  0  0  0  0  0  0
   39.9480   33.5320   45.3210 C   0  0  0  0  0  0  0  0  0  0  0  0
   39.1290   32.8670   44.5030 N   0  0  0  0  0  0  0  0  0  0  0  0
   38.3230   32.1020   45.2720 C   0  0  0  0  0  0  0  0  0  0  0  0
   37.2900   31.2050   45.0320 C   0  0  0  0  0  0  0  0  0  0  0  0
   35.8530   29.8790   45.7820 H   0  0  0  0  0  0  0  0  0  0  0  0
   38.3760   31.9090   48.6590 H   0  0  0  0  0  0  0  0  0  0  0  0
   40.1740   33.5840   47.4440 H   0  0  0  0  0  0  0  0  0  0  0  0
   40.7290   34.2400   45.0450 H   0  0  0  0  0  0  0  0  0  0  0  0
   36.9960   31.0170   44.0010 H   0  0  0  0  0  0  0  0  0  0  0  0
   33.5230   27.7440   48.5500 C   0  0  0  0  0  0  0  0  0  0  0  0
   33.7030   26.6090   48.0380 O   0  0  0  0  0  0  0  0  0  0  0  0
   32.0930   28.2350   48.6840 C   0  0  1  0  0  0  0  0  0  0  0  0
   31.2000   27.9990   47.4490 C   0  0  0  0  0  0  0  0  0  0  0  0
   30.9890   27.2750   48.7230 C   0  0  2  0  0  0  0  0  0  0  0  0
   31.9870   29.2940   49.0440 H   0  0  0  0  0  0  0  0  0  0  0  0
   30.4600   28.7800   47.1820 H   0  0  0  0  0  0  0  0  0  0  0  0
   31.7120   27.5040   46.6200 H   0  0  0  0  0  0  0  0  0  0  0  0
   31.3010   26.1980   48.7070 H   0  0  0  0  0  0  0  0  0  0  0  0
   29.8580   27.5730   49.6260 C   0  0  0  0  0  0  0  0  0  0  0  0
   29.3320   26.7400   50.5420 N   0  0  0  0  0  0  0  0  0  0  0  0
   28.3080   27.3910   51.1650 C   0  0  0  0  0  0  0  0  0  0  0  0
   27.5900   27.1660   51.9480 H   0  0  0  0  0  0  0  0  0  0  0  0
   28.2260   28.6170   50.6160 N   0  0  0  0  0  0  0  0  0  0  0  0
   27.6280   29.4880   50.7290 H   0  0  0  0  0  0  0  0  0  0  0  0
   29.1500   28.7210   49.7020 N   0  0  0  0  0  0  0  0  0  0  0  0
  1  7  1  0  0  0  0
  2  8  1  0  0  0  0
  2  1  2  0  0  0  0
  3  2  1  0  0  0  0
  4  3  2  0  0  0  0
  4  5  1  0  0  0  0
  5  6  2  0  0  0  0
  6  1  1  0  0  0  0
  9 10  1  0  0  0  0
 10 11  2  0  0  0  0
 10  3  1  0  0  0  0
 11 19  1  0  0  0  0
 12 11  1  0  0  0  0
 13 12  1  0  0  0  0
 13 20  1  0  0  0  0
 14 13  1  0  0  0  0
 15 16  1  0  0  0  0
 15 14  2  0  0  0  0
 16 12  2  0  0  0  0
 17 16  1  0  0  0  0
 17  9  2  0  0  0  0
 18  9  1  0  0  0  0
 21 14  1  0  0  0  0
 22 17  1  0  0  0  0
 23 25  1  0  0  0  0
 23  5  1  0  0  0  0
 24 23  2  0  0  0  0
 25 27  1  0  0  0  0
 25 28  1  1  0  0  0
 26 25  1  0  0  0  0
 26 27  1  0  0  0  0
 27 31  1  6  0  0  0
 27 32  1  0  0  0  0
 29 26  1  0  0  0  0
 30 26  1  0  0  0  0
 32 38  2  0  0  0  0
 32 33  1  0  0  0  0
 33 34  2  0  0  0  0
 34 35  1  0  0  0  0
 36 37  1  0  0  0  0
 36 34  1  0  0  0  0
 38 36  1  0  0  0  0
M  END
>  <minimizedAffinity>
-7.02114582

>  <minimizedRMSD>
0.654447615

$$$$
