
 OpenBabel03272509213D

 44 48  0  0  0  0  0  0  0  0999 V2000
   38.0550   31.4150   47.9980 C   0  0  0  0  0  0  0  0  0  0  0  0
   37.1100   31.5150   48.9990 C   0  0  0  0  0  0  0  0  0  0  0  0
   37.1970   32.6840   49.7570 C   0  0  0  0  0  0  0  0  0  0  0  0
   38.1690   33.6580   49.5060 C   0  0  0  0  0  0  0  0  0  0  0  0
   39.0990   33.4640   48.4530 C   0  0  0  0  0  0  0  0  0  0  0  0
   39.0240   32.3070   47.6900 C   0  0  0  0  0  0  0  0  0  0  0  0
   36.5060   32.8710   50.5710 H   0  0  0  0  0  0  0  0  0  0  0  0
   38.2310   34.5620   50.0980 H   0  0  0  0  0  0  0  0  0  0  0  0
   39.8420   34.2100   48.2600 H   0  0  0  0  0  0  0  0  0  0  0  0
   35.0430   30.3600   48.3990 C   0  0  0  0  0  0  0  0  0  0  0  0
   36.1150   30.5220   49.2590 C   0  0  0  0  0  0  0  0  0  0  0  0
   36.1760   29.6770   50.3810 C   0  0  0  0  0  0  0  0  0  0  0  0
   35.2010   28.7640   50.5580 N   0  0  0  0  0  0  0  0  0  0  0  0
   34.1630   28.6420   49.6830 C   0  0  0  0  0  0  0  0  0  0  0  0
   34.0910   29.4360   48.6170 N   0  0  0  0  0  0  0  0  0  0  0  0
   34.9290   30.9770   47.5120 H   0  0  0  0  0  0  0  0  0  0  0  0
   33.4920   27.8450   50.0180 H   0  0  0  0  0  0  0  0  0  0  0  0
   37.3110   29.8040   51.3460 C   0  0  0  0  0  0  0  0  0  0  0  0
   37.0970   30.5740   52.1240 H   0  0  0  0  0  0  0  0  0  0  0  0
   37.5320   28.8210   51.7640 H   0  0  0  0  0  0  0  0  0  0  0  0
   38.2000   30.1450   50.7410 H   0  0  0  0  0  0  0  0  0  0  0  0
   38.0500   30.2740   47.1780 O   0  0  0  0  0  0  0  0  0  0  0  0
   37.4650   30.3330   46.3420 H   0  0  0  0  0  0  0  0  0  0  0  0
   39.9500   32.1740   46.6830 O   0  0  0  0  0  0  0  0  0  0  0  0
   40.2530   30.9010   44.5600 C   0  0  0  0  0  0  0  0  0  0  0  0
   39.7010   31.8840   45.3760 C   0  0  0  0  0  0  0  0  0  0  0  0
   38.7460   32.7320   44.8410 C   0  0  0  0  0  0  0  0  0  0  0  0
   38.3370   32.6060   43.4970 C   0  0  0  0  0  0  0  0  0  0  0  0
   37.4640   33.2510   42.7080 N   0  0  0  0  0  0  0  0  0  0  0  0
   37.4600   32.7150   41.4740 C   0  0  0  0  0  0  0  0  0  0  0  0
   38.3610   31.7000   41.4900 N   0  0  0  0  0  0  0  0  0  0  0  0
   38.9160   31.6130   42.7260 C   0  0  0  0  0  0  0  0  0  0  0  0
   39.8610   30.7730   43.2520 C   0  0  0  0  0  0  0  0  0  0  0  0
   40.9860   30.2920   45.0670 H   0  0  0  0  0  0  0  0  0  0  0  0
   38.2210   33.5490   45.3490 H   0  0  0  0  0  0  0  0  0  0  0  0
   36.8630   34.0680   43.0180 H   0  0  0  0  0  0  0  0  0  0  0  0
   36.8290   33.0820   40.6810 H   0  0  0  0  0  0  0  0  0  0  0  0
   40.4790   29.7200   42.4490 C   0  0  0  0  0  0  0  0  0  0  0  0
   39.7950   28.6470   41.9840 N   0  0  0  0  0  0  0  0  0  0  0  0
   40.6250   27.8510   41.2790 C   0  0  0  0  0  0  0  0  0  0  0  0
   40.4170   26.9150   40.7690 H   0  0  0  0  0  0  0  0  0  0  0  0
   41.8300   28.4870   41.3370 N   0  0  0  0  0  0  0  0  0  0  0  0
   42.6760   28.0640   40.8530 H   0  0  0  0  0  0  0  0  0  0  0  0
   41.7480   29.6050   42.0360 N   0  0  0  0  0  0  0  0  0  0  0  0
  1  2  1  0  0  0  0
  2 11  1  0  0  0  0
  2  3  2  0  0  0  0
  3  7  1  0  0  0  0
  4  3  1  0  0  0  0
  4  8  1  0  0  0  0
  5  4  2  0  0  0  0
  6  1  2  0  0  0  0
  6  5  1  0  0  0  0
  9  5  1  0  0  0  0
 10 15  2  0  0  0  0
 10 11  1  0  0  0  0
 11 12  2  0  0  0  0
 12 13  1  0  0  0  0
 12 18  1  0  0  0  0
 14 17  1  0  0  0  0
 14 13  2  0  0  0  0
 15 14  1  0  0  0  0
 16 10  1  0  0  0  0
 18 20  1  0  0  0  0
 18 19  1  0  0  0  0
 21 18  1  0  0  0  0
 22  1  1  0  0  0  0
 23 22  1  0  0  0  0
 24  6  1  0  0  0  0
 25 34  1  0  0  0  0
 25 26  1  0  0  0  0
 26 24  1  0  0  0  0
 27 35  1  0  0  0  0
 27 26  2  0  0  0  0
 28 27  1  0  0  0  0
 29 36  1  0  0  0  0
 29 28  1  0  0  0  0
 30 31  2  0  0  0  0
 30 29  1  0  0  0  0
 31 32  1  0  0  0  0
 32 33  1  0  0  0  0
 32 28  2  0  0  0  0
 33 25  2  0  0  0  0
 37 30  1  0  0  0  0
 38 33  1  0  0  0  0
 39 38  1  0  0  0  0
 40 42  1  0  0  0  0
 40 39  2  0  0  0  0
 41 40  1  0  0  0  0
 42 44  1  0  0  0  0
 43 42  1  0  0  0  0
 44 38  2  0  0  0  0
M  END
>  <minimizedAffinity>
-7.47057247

>  <minimizedRMSD>
0.621809065

$$$$
