
 OpenBabel03272507193D

 28 30  0  0  1  0  0  0  0  0999 V2000
   37.7310   31.3270   49.4110 C   0  0  0  0  0  0  0  0  0  0  0  0
   38.2960   32.5780   49.6430 C   0  0  0  0  0  0  0  0  0  0  0  0
   38.9280   33.1500   48.5420 C   0  0  0  0  0  0  0  0  0  0  0  0
   38.9730   32.5010   47.3310 N   0  0  0  0  0  0  0  0  0  0  0  0
   38.4060   31.2790   47.1550 C   0  0  0  0  0  0  0  0  0  0  0  0
   37.7770   30.6870   48.2100 N   0  0  0  0  0  0  0  0  0  0  0  0
   38.2500   33.0660   50.5900 H   0  0  0  0  0  0  0  0  0  0  0  0
   39.4020   34.1230   48.6130 H   0  0  0  0  0  0  0  0  0  0  0  0
   37.0290   30.6950   50.5710 C   0  0  1  0  0  0  0  0  0  0  0  0
   36.1660   29.5250   50.4050 C   0  0  2  0  0  0  0  0  0  0  0  0
   37.5690   29.2800   50.8670 C   0  0  0  0  0  0  0  0  0  0  0  0
   37.0030   31.3560   51.4770 H   0  0  0  0  0  0  0  0  0  0  0  0
   35.2910   29.5410   51.1150 H   0  0  0  0  0  0  0  0  0  0  0  0
   38.2860   28.8270   50.1740 H   0  0  0  0  0  0  0  0  0  0  0  0
   37.6970   29.0320   51.9350 H   0  0  0  0  0  0  0  0  0  0  0  0
   35.8100   29.1760   49.1090 O   0  0  0  0  0  0  0  0  0  0  0  0
   34.5770   29.0080   48.5730 C   0  0  0  0  0  0  0  0  0  0  0  0
   34.0510   27.8820   48.4490 O   0  0  0  0  0  0  0  0  0  0  0  0
   34.0670   30.2560   48.2210 N   0  0  0  0  0  0  0  0  0  0  0  0
   34.5100   31.0110   47.7000 H   0  0  0  0  0  0  0  0  0  0  0  0
   33.0930   30.3930   48.5600 H   0  0  0  0  0  0  0  0  0  0  0  0
   38.5000   30.6740   45.8540 C   0  0  0  0  0  0  0  0  0  0  0  0
   37.3930   30.4300   45.0930 N   0  0  0  0  0  0  0  0  0  0  0  0
   37.7490   29.8580   43.9210 C   0  0  0  0  0  0  0  0  0  0  0  0
   36.9580   29.6160   43.2290 H   0  0  0  0  0  0  0  0  0  0  0  0
   39.0880   29.7460   43.9520 N   0  0  0  0  0  0  0  0  0  0  0  0
   39.5950   29.3310   43.1520 H   0  0  0  0  0  0  0  0  0  0  0  0
   39.5480   30.2340   45.1110 N   0  0  0  0  0  0  0  0  0  0  0  0
  1  2  1  0  0  0  0
  1  9  1  0  0  0  0
  2  7  1  0  0  0  0
  3  8  1  0  0  0  0
  3  2  2  0  0  0  0
  4  3  1  0  0  0  0
  5  4  2  0  0  0  0
  5  6  1  0  0  0  0
  6  1  2  0  0  0  0
  9 11  1  0  0  0  0
  9 12  1  1  0  0  0
 10  9  1  0  0  0  0
 10 11  1  0  0  0  0
 10 13  1  1  0  0  0
 11 15  1  0  0  0  0
 14 11  1  0  0  0  0
 16 10  1  0  0  0  0
 17 16  1  0  0  0  0
 18 17  2  0  0  0  0
 19 21  1  0  0  0  0
 19 17  1  0  0  0  0
 20 19  1  0  0  0  0
 22  5  1  0  0  0  0
 23 22  1  0  0  0  0
 24 26  1  0  0  0  0
 24 23  2  0  0  0  0
 25 24  1  0  0  0  0
 26 28  1  0  0  0  0
 27 26  1  0  0  0  0
 28 22  2  0  0  0  0
M  END
>  <minimizedAffinity>
-5.35924578

>  <minimizedRMSD>
1.35655868

$$$$
