
 OpenBabel03272509183D

 31 33  0  0  0  0  0  0  0  0999 V2000
   37.9810   31.2190   47.8310 C   0  0  0  0  0  0  0  0  0  0  0  0
   36.9980   31.2280   48.8020 C   0  0  0  0  0  0  0  0  0  0  0  0
   37.0620   32.3370   49.6690 C   0  0  0  0  0  0  0  0  0  0  0  0
   38.0420   33.3190   49.5340 C   0  0  0  0  0  0  0  0  0  0  0  0
   38.9870   33.2190   48.5230 C   0  0  0  0  0  0  0  0  0  0  0  0
   38.9490   32.1390   47.6540 C   0  0  0  0  0  0  0  0  0  0  0  0
   36.3310   32.4060   50.4430 H   0  0  0  0  0  0  0  0  0  0  0  0
   38.0650   34.1590   50.2160 H   0  0  0  0  0  0  0  0  0  0  0  0
   39.7640   33.9640   48.3870 H   0  0  0  0  0  0  0  0  0  0  0  0
   34.8520   30.2660   48.1230 C   0  0  0  0  0  0  0  0  0  0  0  0
   35.9920   30.2230   48.9450 C   0  0  0  0  0  0  0  0  0  0  0  0
   36.1030   29.1930   49.8800 C   0  0  0  0  0  0  0  0  0  0  0  0
   35.0860   28.2850   49.9360 N   0  0  0  0  0  0  0  0  0  0  0  0
   34.0060   28.3500   49.1370 C   0  0  0  0  0  0  0  0  0  0  0  0
   33.8910   29.3310   48.2390 N   0  0  0  0  0  0  0  0  0  0  0  0
   34.7540   31.0650   47.3910 H   0  0  0  0  0  0  0  0  0  0  0  0
   33.2660   27.5780   49.2700 H   0  0  0  0  0  0  0  0  0  0  0  0
   37.2850   29.1090   50.7660 C   0  0  0  0  0  0  0  0  0  0  0  0
   37.5870   28.0700   51.0160 H   0  0  0  0  0  0  0  0  0  0  0  0
   38.1050   29.7000   50.2870 H   0  0  0  0  0  0  0  0  0  0  0  0
   37.0220   29.6910   51.6850 H   0  0  0  0  0  0  0  0  0  0  0  0
   37.9950   30.1520   46.9230 O   0  0  0  0  0  0  0  0  0  0  0  0
   37.2160   29.8970   46.3350 H   0  0  0  0  0  0  0  0  0  0  0  0
   39.9110   32.0570   46.6430 O   0  0  0  0  0  0  0  0  0  0  0  0
   39.5040   32.4810   45.3850 C   0  0  0  0  0  0  0  0  0  0  0  0
   40.2220   32.9190   44.3340 N   0  0  0  0  0  0  0  0  0  0  0  0
   39.3550   33.2090   43.3450 C   0  0  0  0  0  0  0  0  0  0  0  0
   39.6310   33.5860   42.3670 H   0  0  0  0  0  0  0  0  0  0  0  0
   38.1100   32.9510   43.7800 N   0  0  0  0  0  0  0  0  0  0  0  0
   37.2300   33.0810   43.2300 H   0  0  0  0  0  0  0  0  0  0  0  0
   38.2270   32.5130   45.0150 N   0  0  0  0  0  0  0  0  0  0  0  0
  1  2  1  0  0  0  0
  2 11  1  0  0  0  0
  2  3  2  0  0  0  0
  3  7  1  0  0  0  0
  4  3  1  0  0  0  0
  4  8  1  0  0  0  0
  5  4  2  0  0  0  0
  6  1  2  0  0  0  0
  6  5  1  0  0  0  0
  9  5  1  0  0  0  0
 10 15  2  0  0  0  0
 10 11  1  0  0  0  0
 11 12  2  0  0  0  0
 12 13  1  0  0  0  0
 12 18  1  0  0  0  0
 14 17  1  0  0  0  0
 14 13  2  0  0  0  0
 15 14  1  0  0  0  0
 16 10  1  0  0  0  0
 18 19  1  0  0  0  0
 18 21  1  0  0  0  0
 20 18  1  0  0  0  0
 22  1  1  0  0  0  0
 23 22  1  0  0  0  0
 24  6  1  0  0  0  0
 25 24  1  0  0  0  0
 26 25  1  0  0  0  0
 27 29  1  0  0  0  0
 27 26  2  0  0  0  0
 28 27  1  0  0  0  0
 29 31  1  0  0  0  0
 30 29  1  0  0  0  0
 31 25  2  0  0  0  0
M  END
>  <minimizedAffinity>
-6.43615484

>  <minimizedRMSD>
0.43384403

$$$$
