
 OpenBabel03272510133D

 39 42  0  0  0  0  0  0  0  0999 V2000
   38.4250   31.3840   48.7500 C   0  0  0  0  0  0  0  0  0  0  0  0
   38.4700   32.6000   49.3930 C   0  0  0  0  0  0  0  0  0  0  0  0
   39.0580   33.5070   48.5050 C   0  0  0  0  0  0  0  0  0  0  0  0
   39.3400   32.8280   47.3880 N   0  0  0  0  0  0  0  0  0  0  0  0
   38.9670   31.5980   47.5450 N   0  0  0  0  0  0  0  0  0  0  0  0
   38.1740   32.9820   50.3610 H   0  0  0  0  0  0  0  0  0  0  0  0
   39.2720   34.5710   48.6360 H   0  0  0  0  0  0  0  0  0  0  0  0
   39.9580   33.3640   46.2100 C   0  0  0  0  0  0  0  0  0  0  0  0
   40.6210   34.1920   46.5270 H   0  0  0  0  0  0  0  0  0  0  0  0
   39.2050   33.8650   45.5370 H   0  0  0  0  0  0  0  0  0  0  0  0
   40.7010   32.2910   45.5030 C   0  0  0  0  0  0  0  0  0  0  0  0
   41.7850   32.5620   45.5540 H   0  0  0  0  0  0  0  0  0  0  0  0
   40.6420   31.3770   46.1690 H   0  0  0  0  0  0  0  0  0  0  0  0
   40.3450   31.9730   44.1420 C   0  0  0  0  0  0  0  0  0  0  0  0
   40.6790   30.7820   43.5620 N   0  0  0  0  0  0  0  0  0  0  0  0
   40.2310   30.7250   42.2990 C   0  0  0  0  0  0  0  0  0  0  0  0
   40.3320   29.9240   41.5790 H   0  0  0  0  0  0  0  0  0  0  0  0
   39.6050   31.8890   42.0620 N   0  0  0  0  0  0  0  0  0  0  0  0
   39.1210   32.2450   41.2160 H   0  0  0  0  0  0  0  0  0  0  0  0
   39.6810   32.6110   43.1610 N   0  0  0  0  0  0  0  0  0  0  0  0
   37.8700   30.3590   49.4880 O   0  0  0  0  0  0  0  0  0  0  0  0
   34.1210   28.8430   48.3290 C   0  0  0  0  0  0  0  0  0  0  0  0
   34.7450   28.3980   49.4520 C   0  0  0  0  0  0  0  0  0  0  0  0
   35.9640   28.8460   49.8880 C   0  0  0  0  0  0  0  0  0  0  0  0
   36.6380   29.7970   49.1930 C   0  0  0  0  0  0  0  0  0  0  0  0
   36.0120   30.2650   48.0380 C   0  0  0  0  0  0  0  0  0  0  0  0
   34.8090   29.8010   47.6360 N   0  0  0  0  0  0  0  0  0  0  0  0
   34.2790   27.6420   50.0640 H   0  0  0  0  0  0  0  0  0  0  0  0
   36.4540   28.4810   50.7890 H   0  0  0  0  0  0  0  0  0  0  0  0
   36.4720   31.0290   47.4110 H   0  0  0  0  0  0  0  0  0  0  0  0
   32.0060   27.5580   48.6070 C   0  0  0  0  0  0  0  0  0  0  0  0
   32.8500   28.3840   47.8600 C   0  0  0  0  0  0  0  0  0  0  0  0
   32.4070   28.7570   46.6090 C   0  0  0  0  0  0  0  0  0  0  0  0
   31.1930   28.3180   46.1570 N   0  0  0  0  0  0  0  0  0  0  0  0
   30.4160   27.5180   46.9250 C   0  0  0  0  0  0  0  0  0  0  0  0
   30.8070   27.1210   48.1650 N   0  0  0  0  0  0  0  0  0  0  0  0
   32.3100   27.2400   49.5930 H   0  0  0  0  0  0  0  0  0  0  0  0
   33.0330   29.4010   45.9940 H   0  0  0  0  0  0  0  0  0  0  0  0
   29.4750   27.2320   46.4630 H   0  0  0  0  0  0  0  0  0  0  0  0
  1  2  1  0  0  0  0
  1 21  1  0  0  0  0
  2  6  1  0  0  0  0
  3  7  1  0  0  0  0
  3  2  2  0  0  0  0
  4  5  1  0  0  0  0
  4  3  1  0  0  0  0
  5  1  2  0  0  0  0
  8  9  1  0  0  0  0
  8  4  1  0  0  0  0
 10  8  1  0  0  0  0
 11 12  1  0  0  0  0
 11 13  1  0  0  0  0
 11  8  1  0  0  0  0
 14 11  1  0  0  0  0
 15 14  1  0  0  0  0
 16 15  2  0  0  0  0
 17 16  1  0  0  0  0
 18 16  1  0  0  0  0
 18 20  1  0  0  0  0
 19 18  1  0  0  0  0
 20 14  2  0  0  0  0
 22 23  1  0  0  0  0
 23 24  2  0  0  0  0
 23 28  1  0  0  0  0
 24 29  1  0  0  0  0
 25 21  1  0  0  0  0
 25 24  1  0  0  0  0
 26 25  2  0  0  0  0
 27 26  1  0  0  0  0
 27 22  2  0  0  0  0
 30 26  1  0  0  0  0
 31 37  1  0  0  0  0
 32 22  1  0  0  0  0
 32 31  2  0  0  0  0
 33 32  1  0  0  0  0
 34 33  2  0  0  0  0
 34 35  1  0  0  0  0
 35 36  2  0  0  0  0
 36 31  1  0  0  0  0
 38 33  1  0  0  0  0
 39 35  1  0  0  0  0
M  END
>  <minimizedAffinity>
-6.17924166

>  <minimizedRMSD>
1.19523335

$$$$
