
 OpenBabel03272502363D

 34 36  0  0  1  0  0  0  0  0999 V2000
   35.4380   29.9520   33.7880 C   0  0  2  0  0  0  0  0  0  0  0  0
   35.8540   30.6530   33.0360 H   0  0  0  0  0  0  0  0  0  0  0  0
   33.9680   29.8470   33.7710 C   0  0  0  0  0  0  0  0  0  0  0  0
   33.4010   29.7480   35.0690 C   0  0  0  0  0  0  0  0  0  0  0  0
   32.0560   29.6400   35.3080 C   0  0  0  0  0  0  0  0  0  0  0  0
   31.1410   29.6220   34.2410 C   0  0  0  0  0  0  0  0  0  0  0  0
   31.7740   29.7240   33.0100 C   0  0  0  0  0  0  0  0  0  0  0  0
   33.0840   29.8300   32.7530 N   0  0  0  0  0  0  0  0  0  0  0  0
   33.9020   29.7400   36.0550 H   0  0  0  0  0  0  0  0  0  0  0  0
   31.5660   29.5600   36.2670 H   0  0  0  0  0  0  0  0  0  0  0  0
   30.0880   29.5470   34.2370 H   0  0  0  0  0  0  0  0  0  0  0  0
   31.1920   29.7250   32.0860 H   0  0  0  0  0  0  0  0  0  0  0  0
   36.5880   28.0060   34.5690 C   0  0  0  0  0  3  0  0  0  0  0  0
   36.0350   28.5940   33.5580 C   0  0  0  0  0  3  0  0  0  0  0  0
   37.9360   24.8720   33.0710 C   0  0  0  0  0  0  0  0  0  0  0  0
   37.3730   26.1250   33.2320 C   0  0  0  0  0  0  0  0  0  0  0  0
   37.1890   26.6960   34.4630 C   0  0  0  0  0  0  0  0  0  0  0  0
   37.5880   25.9700   35.5130 N   0  0  0  0  0  0  0  0  0  0  0  0
   38.1320   24.7650   35.4010 C   0  0  0  0  0  0  0  0  0  0  0  0
   38.3080   24.2110   34.1660 N   0  0  0  0  0  0  0  0  0  0  0  0
   38.0970   24.3900   32.1170 H   0  0  0  0  0  0  0  0  0  0  0  0
   37.1110   26.5680   32.2810 H   0  0  0  0  0  0  0  0  0  0  0  0
   38.5380   24.0450   36.6040 C   0  0  0  0  0  0  0  0  0  0  0  0
   37.9500   24.3890   37.7850 N   0  0  0  0  0  0  0  0  0  0  0  0
   38.5030   23.5750   38.7290 C   0  0  0  0  0  0  0  0  0  0  0  0
   38.2470   23.5950   39.7840 H   0  0  0  0  0  0  0  0  0  0  0  0
   39.4110   22.7490   38.1380 N   0  0  0  0  0  0  0  0  0  0  0  0
   40.0030   22.0130   38.5810 H   0  0  0  0  0  0  0  0  0  0  0  0
   39.4170   23.0550   36.8340 N   0  0  0  0  0  0  0  0  0  0  0  0
   35.8920   30.4580   35.4810 S   0  0  0  0  0  0  0  0  0  0  0  0
   35.8410   32.2320   35.6580 C   0  0  0  0  0  0  0  0  0  0  0  0
   37.0890   32.8270   35.5900 F   0  0  0  0  0  0  0  0  0  0  0  0
   34.9520   32.8120   34.7760 F   0  0  0  0  0  0  0  0  0  0  0  0
   35.3090   32.4830   36.9450 F   0  0  0  0  0  0  0  0  0  0  0  0
  1  2  1  6  0  0  0
  1 30  1  0  0  0  0
  3  1  1  0  0  0  0
  3  4  1  0  0  0  0
  4  5  2  0  0  0  0
  4  9  1  0  0  0  0
  5 10  1  0  0  0  0
  6  5  1  0  0  0  0
  7  6  2  0  0  0  0
  8  7  1  0  0  0  0
  8  3  2  0  0  0  0
 11  6  1  0  0  0  0
 12  7  1  0  0  0  0
 14  1  1  0  0  0  0
 14 13  2  0  0  0  0
 15 16  2  0  0  0  0
 15 20  1  0  0  0  0
 16 17  1  0  0  0  0
 17 13  1  0  0  0  0
 17 18  2  0  0  0  0
 19 18  1  0  0  0  0
 19 23  1  0  0  0  0
 20 19  2  0  0  0  0
 21 15  1  0  0  0  0
 22 16  1  0  0  0  0
 23 29  2  0  0  0  0
 23 24  1  0  0  0  0
 24 25  2  0  0  0  0
 25 26  1  0  0  0  0
 27 28  1  0  0  0  0
 27 25  1  0  0  0  0
 29 27  1  0  0  0  0
 30 31  1  0  0  0  0
 31 34  1  0  0  0  0
 32 31  1  0  0  0  0
 33 31  1  0  0  0  0
M  END
>  <minimizedAffinity>
-5.81611013

$$$$

 OpenBabel03272502363D

 34 36  0  0  1  0  0  0  0  0999 V2000
   35.4570   28.9060   33.2880 C   0  0  2  0  0  0  0  0  0  0  0  0
   34.7390   28.1530   32.9030 H   0  0  0  0  0  0  0  0  0  0  0  0
   34.9080   29.7880   34.3330 C   0  0  0  0  0  0  0  0  0  0  0  0
   35.9010   30.5690   34.9810 C   0  0  0  0  0  0  0  0  0  0  0  0
   35.6350   31.4610   35.9860 C   0  0  0  0  0  0  0  0  0  0  0  0
   34.3190   31.6530   36.4390 C   0  0  0  0  0  0  0  0  0  0  0  0
   33.4110   30.8550   35.7560 C   0  0  0  0  0  0  0  0  0  0  0  0
   33.6490   29.9780   34.7730 N   0  0  0  0  0  0  0  0  0  0  0  0
   36.9930   30.6000   34.8080 H   0  0  0  0  0  0  0  0  0  0  0  0
   36.3440   32.0800   36.5170 H   0  0  0  0  0  0  0  0  0  0  0  0
   33.9340   32.2870   37.1900 H   0  0  0  0  0  0  0  0  0  0  0  0
   32.3470   30.8950   35.9990 H   0  0  0  0  0  0  0  0  0  0  0  0
   36.8240   26.9530   33.4760 C   0  0  0  0  0  3  0  0  0  0  0  0
   36.6610   28.1880   33.8240 C   0  0  0  0  0  3  0  0  0  0  0  0
   40.2060   25.3930   33.5680 C   0  0  0  0  0  0  0  0  0  0  0  0
   39.1010   26.1320   33.1870 C   0  0  0  0  0  0  0  0  0  0  0  0
   37.9500   26.1680   33.9280 C   0  0  0  0  0  0  0  0  0  0  0  0
   37.9510   25.4430   35.0520 N   0  0  0  0  0  0  0  0  0  0  0  0
   38.9910   24.7210   35.4520 C   0  0  0  0  0  0  0  0  0  0  0  0
   40.1300   24.6970   34.7010 N   0  0  0  0  0  0  0  0  0  0  0  0
   41.1300   25.3410   33.0090 H   0  0  0  0  0  0  0  0  0  0  0  0
   39.2730   26.6550   32.2570 H   0  0  0  0  0  0  0  0  0  0  0  0
   38.9020   23.9610   36.6950 C   0  0  0  0  0  0  0  0  0  0  0  0
   37.8280   24.1810   37.5040 N   0  0  0  0  0  0  0  0  0  0  0  0
   37.9920   23.3550   38.5770 C   0  0  0  0  0  0  0  0  0  0  0  0
   37.3020   23.2880   39.4120 H   0  0  0  0  0  0  0  0  0  0  0  0
   39.1440   22.6440   38.4270 N   0  0  0  0  0  0  0  0  0  0  0  0
   39.5530   21.9300   39.0680 H   0  0  0  0  0  0  0  0  0  0  0  0
   39.6870   23.0310   37.2650 N   0  0  0  0  0  0  0  0  0  0  0  0
   36.0380   30.0030   31.9510 S   0  0  0  0  0  0  0  0  0  0  0  0
   36.6920   29.0600   30.5840 C   0  0  0  0  0  0  0  0  0  0  0  0
   36.0610   27.8420   30.4050 F   0  0  0  0  0  0  0  0  0  0  0  0
   36.7200   29.7960   29.4180 F   0  0  0  0  0  0  0  0  0  0  0  0
   38.0490   28.8050   30.8980 F   0  0  0  0  0  0  0  0  0  0  0  0
  1  2  1  6  0  0  0
  1 14  1  0  0  0  0
  1  3  1  0  0  0  0
  3  8  2  0  0  0  0
  3  4  1  0  0  0  0
  4  5  2  0  0  0  0
  5  6  1  0  0  0  0
  5 10  1  0  0  0  0
  6 11  1  0  0  0  0
  7 12  1  0  0  0  0
  7  6  2  0  0  0  0
  8  7  1  0  0  0  0
  9  4  1  0  0  0  0
 13 14  2  0  0  0  0
 13 17  1  0  0  0  0
 15 20  1  0  0  0  0
 16 15  2  0  0  0  0
 16 17  1  0  0  0  0
 17 18  2  0  0  0  0
 18 19  1  0  0  0  0
 19 23  1  0  0  0  0
 20 19  2  0  0  0  0
 21 15  1  0  0  0  0
 22 16  1  0  0  0  0
 23 29  2  0  0  0  0
 23 24  1  0  0  0  0
 24 25  2  0  0  0  0
 25 26  1  0  0  0  0
 27 25  1  0  0  0  0
 27 28  1  0  0  0  0
 29 27  1  0  0  0  0
 30  1  1  0  0  0  0
 31 34  1  0  0  0  0
 31 30  1  0  0  0  0
 32 31  1  0  0  0  0
 33 31  1  0  0  0  0
M  END
>  <minimizedAffinity>
-5.73850822

$$$$

 OpenBabel03272502363D

 34 36  0  0  1  0  0  0  0  0999 V2000
   38.1840   25.2730   33.7800 C   0  0  2  0  0  0  0  0  0  0  0  0
   39.1280   25.8300   33.6070 H   0  0  0  0  0  0  0  0  0  0  0  0
   38.1650   24.4860   35.0250 C   0  0  0  0  0  0  0  0  0  0  0  0
   38.1070   25.2920   36.1930 C   0  0  0  0  0  0  0  0  0  0  0  0
   38.0800   24.7880   37.4670 C   0  0  0  0  0  0  0  0  0  0  0  0
   38.1100   23.4010   37.6870 C   0  0  0  0  0  0  0  0  0  0  0  0
   38.1670   22.6860   36.4970 C   0  0  0  0  0  0  0  0  0  0  0  0
   38.1940   23.1560   35.2440 N   0  0  0  0  0  0  0  0  0  0  0  0
   38.0730   26.3930   36.2850 H   0  0  0  0  0  0  0  0  0  0  0  0
   38.0370   25.3460   38.3910 H   0  0  0  0  0  0  0  0  0  0  0  0
   38.0970   22.8440   38.5830 H   0  0  0  0  0  0  0  0  0  0  0  0
   38.1950   21.5950   36.5080 H   0  0  0  0  0  0  0  0  0  0  0  0
   37.3110   27.4780   33.4700 C   0  0  0  0  0  3  0  0  0  0  0  0
   37.0470   26.2530   33.7940 C   0  0  0  0  0  3  0  0  0  0  0  0
   34.5960   29.6990   32.2130 C   0  0  0  0  0  0  0  0  0  0  0  0
   35.5770   28.7270   32.2980 C   0  0  0  0  0  0  0  0  0  0  0  0
   36.2920   28.5030   33.4440 C   0  0  0  0  0  0  0  0  0  0  0  0
   35.9880   29.2810   34.4880 N   0  0  0  0  0  0  0  0  0  0  0  0
   35.0540   30.2230   34.4470 C   0  0  0  0  0  0  0  0  0  0  0  0
   34.3510   30.4320   33.2970 N   0  0  0  0  0  0  0  0  0  0  0  0
   34.0120   29.9040   31.3270 H   0  0  0  0  0  0  0  0  0  0  0  0
   35.6900   28.1940   31.3640 H   0  0  0  0  0  0  0  0  0  0  0  0
   34.7900   31.0240   35.6380 C   0  0  0  0  0  0  0  0  0  0  0  0
   33.5110   31.0700   36.1080 N   0  0  0  0  0  0  0  0  0  0  0  0
   33.5460   31.8740   37.2090 C   0  0  0  0  0  0  0  0  0  0  0  0
   32.6820   32.1170   37.8200 H   0  0  0  0  0  0  0  0  0  0  0  0
   34.8210   32.3100   37.4100 N   0  0  0  0  0  0  0  0  0  0  0  0
   35.1800   32.9360   38.1630 H   0  0  0  0  0  0  0  0  0  0  0  0
   35.5680   31.7770   36.4350 N   0  0  0  0  0  0  0  0  0  0  0  0
   37.8600   24.0930   32.4270 S   0  0  0  0  0  0  0  0  0  0  0  0
   37.5870   24.9440   30.8830 C   0  0  0  0  0  0  0  0  0  0  0  0
   36.2760   25.3490   30.7030 F   0  0  0  0  0  0  0  0  0  0  0  0
   38.4710   25.9880   30.7080 F   0  0  0  0  0  0  0  0  0  0  0  0
   37.8980   24.0140   29.8620 F   0  0  0  0  0  0  0  0  0  0  0  0
  1  2  1  6  0  0  0
  1 14  1  0  0  0  0
  1  3  1  0  0  0  0
  3  8  2  0  0  0  0
  3  4  1  0  0  0  0
  4  9  1  0  0  0  0
  4  5  2  0  0  0  0
  5  6  1  0  0  0  0
  5 10  1  0  0  0  0
  6 11  1  0  0  0  0
  7 12  1  0  0  0  0
  7  6  2  0  0  0  0
  8  7  1  0  0  0  0
 13 14  2  0  0  0  0
 15 16  2  0  0  0  0
 15 20  1  0  0  0  0
 16 17  1  0  0  0  0
 17 13  1  0  0  0  0
 17 18  2  0  0  0  0
 19 18  1  0  0  0  0
 19 23  1  0  0  0  0
 20 19  2  0  0  0  0
 21 15  1  0  0  0  0
 22 16  1  0  0  0  0
 23 24  1  0  0  0  0
 23 29  2  0  0  0  0
 24 25  2  0  0  0  0
 25 27  1  0  0  0  0
 25 26  1  0  0  0  0
 27 28  1  0  0  0  0
 29 27  1  0  0  0  0
 30  1  1  0  0  0  0
 31 30  1  0  0  0  0
 32 31  1  0  0  0  0
 33 31  1  0  0  0  0
 34 31  1  0  0  0  0
M  END
>  <minimizedAffinity>
-5.57694721

$$$$

 OpenBabel03272502363D

 34 36  0  0  1  0  0  0  0  0999 V2000
   39.2720   23.0530   35.7580 C   0  0  2  0  0  0  0  0  0  0  0  0
   39.8480   22.3560   36.4000 H   0  0  0  0  0  0  0  0  0  0  0  0
   40.0380   24.2240   35.2960 C   0  0  0  0  0  0  0  0  0  0  0  0
   39.2840   25.4270   35.3150 C   0  0  0  0  0  0  0  0  0  0  0  0
   39.7790   26.6450   34.9300 C   0  0  0  0  0  0  0  0  0  0  0  0
   41.1050   26.7660   34.4810 C   0  0  0  0  0  0  0  0  0  0  0  0
   41.7720   25.5480   34.4930 C   0  0  0  0  0  0  0  0  0  0  0  0
   41.3090   24.3480   34.8640 N   0  0  0  0  0  0  0  0  0  0  0  0
   38.2340   25.5920   35.6230 H   0  0  0  0  0  0  0  0  0  0  0  0
   39.2580   27.5910   34.9210 H   0  0  0  0  0  0  0  0  0  0  0  0
   41.6480   27.6090   34.1510 H   0  0  0  0  0  0  0  0  0  0  0  0
   42.8140   25.4840   34.1710 H   0  0  0  0  0  0  0  0  0  0  0  0
   37.5080   21.9580   34.5710 C   0  0  0  0  0  3  0  0  0  0  0  0
   38.7580   22.2950   34.5690 C   0  0  0  0  0  3  0  0  0  0  0  0
   35.0160   20.0180   32.5930 C   0  0  0  0  0  0  0  0  0  0  0  0
   35.6390   20.7270   33.6040 C   0  0  0  0  0  0  0  0  0  0  0  0
   36.9060   21.2310   33.4760 C   0  0  0  0  0  0  0  0  0  0  0  0
   37.5160   20.9990   32.3090 N   0  0  0  0  0  0  0  0  0  0  0  0
   36.9520   20.3240   31.3150 C   0  0  0  0  0  0  0  0  0  0  0  0
   35.6890   19.8290   31.4590 N   0  0  0  0  0  0  0  0  0  0  0  0
   34.0190   19.6060   32.6580 H   0  0  0  0  0  0  0  0  0  0  0  0
   35.0040   20.8200   34.4740 H   0  0  0  0  0  0  0  0  0  0  0  0
   37.6940   20.1210   30.0740 C   0  0  0  0  0  0  0  0  0  0  0  0
   37.1870   19.2450   29.1610 N   0  0  0  0  0  0  0  0  0  0  0  0
   38.0620   19.2470   28.1150 C   0  0  0  0  0  0  0  0  0  0  0  0
   37.9470   18.6490   27.2160 H   0  0  0  0  0  0  0  0  0  0  0  0
   39.0840   20.1070   28.3830 N   0  0  0  0  0  0  0  0  0  0  0  0
   39.9110   20.3360   27.7890 H   0  0  0  0  0  0  0  0  0  0  0  0
   38.8390   20.6320   29.5900 N   0  0  0  0  0  0  0  0  0  0  0  0
   37.8190   23.7130   36.6420 S   0  0  0  0  0  0  0  0  0  0  0  0
   38.0770   23.6940   38.4080 C   0  0  0  0  0  0  0  0  0  0  0  0
   37.9150   24.9340   39.0000 F   0  0  0  0  0  0  0  0  0  0  0  0
   37.3110   22.7290   39.0290 F   0  0  0  0  0  0  0  0  0  0  0  0
   39.4190   23.2900   38.6040 F   0  0  0  0  0  0  0  0  0  0  0  0
  1  2  1  1  0  0  0
  1 30  1  0  0  0  0
  3  4  1  0  0  0  0
  3  1  1  0  0  0  0
  4  9  1  0  0  0  0
  5  4  2  0  0  0  0
  6  7  2  0  0  0  0
  6  5  1  0  0  0  0
  7  8  1  0  0  0  0
  8  3  2  0  0  0  0
 10  5  1  0  0  0  0
 11  6  1  0  0  0  0
 12  7  1  0  0  0  0
 14 13  2  0  0  0  0
 14  1  1  0  0  0  0
 15 21  1  0  0  0  0
 15 16  1  0  0  0  0
 16 22  1  0  0  0  0
 17 16  2  0  0  0  0
 17 13  1  0  0  0  0
 18 17  1  0  0  0  0
 19 20  1  0  0  0  0
 19 18  2  0  0  0  0
 20 15  2  0  0  0  0
 23 19  1  0  0  0  0
 24 23  1  0  0  0  0
 25 27  1  0  0  0  0
 25 24  2  0  0  0  0
 26 25  1  0  0  0  0
 27 29  1  0  0  0  0
 28 27  1  0  0  0  0
 29 23  2  0  0  0  0
 30 31  1  0  0  0  0
 31 34  1  0  0  0  0
 31 32  1  0  0  0  0
 31 33  1  0  0  0  0
M  END
>  <minimizedAffinity>
-5.57673216

$$$$

 OpenBabel03272502363D

 34 36  0  0  1  0  0  0  0  0999 V2000
   39.8570   22.9540   35.6550 C   0  0  2  0  0  0  0  0  0  0  0  0
   39.9510   21.9010   35.3190 H   0  0  0  0  0  0  0  0  0  0  0  0
   41.1200   23.7120   35.6310 C   0  0  0  0  0  0  0  0  0  0  0  0
   42.1330   23.1350   36.4420 C   0  0  0  0  0  0  0  0  0  0  0  0
   43.3910   23.6590   36.5820 C   0  0  0  0  0  0  0  0  0  0  0  0
   43.7520   24.8360   35.9040 C   0  0  0  0  0  0  0  0  0  0  0  0
   42.7100   25.3350   35.1350 C   0  0  0  0  0  0  0  0  0  0  0  0
   41.4750   24.8410   34.9840 N   0  0  0  0  0  0  0  0  0  0  0  0
   42.0970   22.2220   37.0650 H   0  0  0  0  0  0  0  0  0  0  0  0
   44.2000   23.2690   37.1820 H   0  0  0  0  0  0  0  0  0  0  0  0
   44.6610   25.3740   35.8920 H   0  0  0  0  0  0  0  0  0  0  0  0
   42.8420   26.2470   34.5490 H   0  0  0  0  0  0  0  0  0  0  0  0
   38.4500   23.0250   33.7230 C   0  0  0  0  0  3  0  0  0  0  0  0
   38.8460   23.6450   34.7870 C   0  0  0  0  0  3  0  0  0  0  0  0
   35.6800   23.2610   31.2420 C   0  0  0  0  0  0  0  0  0  0  0  0
   36.6260   22.7740   32.1250 C   0  0  0  0  0  0  0  0  0  0  0  0
   37.4760   23.5930   32.8190 C   0  0  0  0  0  0  0  0  0  0  0  0
   37.3410   24.9050   32.5950 N   0  0  0  0  0  0  0  0  0  0  0  0
   36.4450   25.4120   31.7570 C   0  0  0  0  0  0  0  0  0  0  0  0
   35.6060   24.5810   31.0740 N   0  0  0  0  0  0  0  0  0  0  0  0
   34.9930   22.6460   30.6780 H   0  0  0  0  0  0  0  0  0  0  0  0
   36.5960   21.6940   32.1830 H   0  0  0  0  0  0  0  0  0  0  0  0
   36.3690   26.8580   31.5770 C   0  0  0  0  0  0  0  0  0  0  0  0
   36.3090   27.6400   32.6920 N   0  0  0  0  0  0  0  0  0  0  0  0
   36.2470   28.9270   32.2450 C   0  0  0  0  0  0  0  0  0  0  0  0
   36.1890   29.7990   32.8880 H   0  0  0  0  0  0  0  0  0  0  0  0
   36.2680   28.9320   30.8830 N   0  0  0  0  0  0  0  0  0  0  0  0
   36.2340   29.7520   30.2380 H   0  0  0  0  0  0  0  0  0  0  0  0
   36.3430   27.6530   30.4940 N   0  0  0  0  0  0  0  0  0  0  0  0
   39.2420   23.0440   37.3700 S   0  0  0  0  0  0  0  0  0  0  0  0
   38.1580   24.4430   37.5930 C   0  0  0  0  0  0  0  0  0  0  0  0
   37.9980   24.8080   38.9180 F   0  0  0  0  0  0  0  0  0  0  0  0
   38.5340   25.5150   36.8100 F   0  0  0  0  0  0  0  0  0  0  0  0
   36.8940   24.0420   37.0970 F   0  0  0  0  0  0  0  0  0  0  0  0
  1  2  1  6  0  0  0
  1 30  1  0  0  0  0
  3  1  1  0  0  0  0
  3  4  1  0  0  0  0
  4  5  2  0  0  0  0
  4  9  1  0  0  0  0
  5 10  1  0  0  0  0
  6  5  1  0  0  0  0
  7  6  2  0  0  0  0
  8  7  1  0  0  0  0
  8  3  2  0  0  0  0
 11  6  1  0  0  0  0
 12  7  1  0  0  0  0
 13 14  2  0  0  0  0
 14  1  1  0  0  0  0
 15 16  1  0  0  0  0
 16 22  1  0  0  0  0
 16 17  2  0  0  0  0
 17 13  1  0  0  0  0
 18 17  1  0  0  0  0
 19 18  2  0  0  0  0
 20 15  2  0  0  0  0
 20 19  1  0  0  0  0
 21 15  1  0  0  0  0
 23 19  1  0  0  0  0
 23 24  1  0  0  0  0
 25 24  2  0  0  0  0
 25 26  1  0  0  0  0
 27 25  1  0  0  0  0
 28 27  1  0  0  0  0
 29 27  1  0  0  0  0
 29 23  2  0  0  0  0
 30 31  1  0  0  0  0
 31 32  1  0  0  0  0
 33 31  1  0  0  0  0
 34 31  1  0  0  0  0
M  END
>  <minimizedAffinity>
-5.52987385

$$$$

 OpenBabel03272502363D

 34 36  0  0  1  0  0  0  0  0999 V2000
   36.2210   29.2580   32.6190 C   0  0  2  0  0  0  0  0  0  0  0  0
   36.6930   29.7680   33.4840 H   0  0  0  0  0  0  0  0  0  0  0  0
   36.6180   29.7980   31.3070 C   0  0  0  0  0  0  0  0  0  0  0  0
   37.0290   28.7930   30.3920 C   0  0  0  0  0  0  0  0  0  0  0  0
   37.4440   29.0500   29.1110 C   0  0  0  0  0  0  0  0  0  0  0  0
   37.4840   30.3680   28.6260 C   0  0  0  0  0  0  0  0  0  0  0  0
   37.0680   31.2880   29.5790 C   0  0  0  0  0  0  0  0  0  0  0  0
   36.6600   31.0600   30.8330 N   0  0  0  0  0  0  0  0  0  0  0  0
   37.0850   27.6980   30.5310 H   0  0  0  0  0  0  0  0  0  0  0  0
   37.7680   28.3330   28.3710 H   0  0  0  0  0  0  0  0  0  0  0  0
   37.7710   30.7480   27.6830 H   0  0  0  0  0  0  0  0  0  0  0  0
   37.0450   32.3550   29.3460 H   0  0  0  0  0  0  0  0  0  0  0  0
   37.1020   27.3560   33.7690 C   0  0  0  0  0  3  0  0  0  0  0  0
   36.5620   27.7980   32.6790 C   0  0  0  0  0  3  0  0  0  0  0  0
   37.7470   23.7720   32.9760 C   0  0  0  0  0  0  0  0  0  0  0  0
   37.4170   25.1120   32.8700 C   0  0  0  0  0  0  0  0  0  0  0  0
   37.4660   25.9670   33.9380 C   0  0  0  0  0  0  0  0  0  0  0  0
   37.8540   25.4330   35.1020 N   0  0  0  0  0  0  0  0  0  0  0  0
   38.1780   24.1540   35.2440 C   0  0  0  0  0  0  0  0  0  0  0  0
   38.1250   23.3160   34.1690 N   0  0  0  0  0  0  0  0  0  0  0  0
   37.7210   23.0680   32.1560 H   0  0  0  0  0  0  0  0  0  0  0  0
   37.1280   25.3710   31.8610 H   0  0  0  0  0  0  0  0  0  0  0  0
   38.5920   23.6600   36.5540 C   0  0  0  0  0  0  0  0  0  0  0  0
   37.9410   24.1370   37.6530 N   0  0  0  0  0  0  0  0  0  0  0  0
   38.5160   23.5200   38.7250 C   0  0  0  0  0  0  0  0  0  0  0  0
   38.2240   23.6840   39.7570 H   0  0  0  0  0  0  0  0  0  0  0  0
   39.4990   22.6820   38.2900 N   0  0  0  0  0  0  0  0  0  0  0  0
   40.1240   22.0690   38.8570 H   0  0  0  0  0  0  0  0  0  0  0  0
   39.5280   22.7830   36.9550 N   0  0  0  0  0  0  0  0  0  0  0  0
   34.4030   29.3880   32.6930 S   0  0  0  0  0  0  0  0  0  0  0  0
   33.8670   30.0160   34.2740 C   0  0  0  0  0  0  0  0  0  0  0  0
   32.9360   31.0360   34.1740 F   0  0  0  0  0  0  0  0  0  0  0  0
   33.4290   29.0080   35.1070 F   0  0  0  0  0  0  0  0  0  0  0  0
   35.0220   30.5430   34.8990 F   0  0  0  0  0  0  0  0  0  0  0  0
  1 14  1  0  0  0  0
  1 30  1  0  0  0  0
  1  2  1  1  0  0  0
  3  1  1  0  0  0  0
  4  9  1  0  0  0  0
  4  3  2  0  0  0  0
  5  4  1  0  0  0  0
  6  5  2  0  0  0  0
  6  7  1  0  0  0  0
  7  8  2  0  0  0  0
  8  3  1  0  0  0  0
 10  5  1  0  0  0  0
 11  6  1  0  0  0  0
 12  7  1  0  0  0  0
 13 17  1  0  0  0  0
 14 13  2  0  0  0  0
 15 20  1  0  0  0  0
 16 15  2  0  0  0  0
 16 17  1  0  0  0  0
 17 18  2  0  0  0  0
 18 19  1  0  0  0  0
 19 23  1  0  0  0  0
 20 19  2  0  0  0  0
 21 15  1  0  0  0  0
 22 16  1  0  0  0  0
 23 29  2  0  0  0  0
 23 24  1  0  0  0  0
 24 25  2  0  0  0  0
 25 26  1  0  0  0  0
 27 25  1  0  0  0  0
 27 28  1  0  0  0  0
 29 27  1  0  0  0  0
 30 31  1  0  0  0  0
 31 34  1  0  0  0  0
 31 33  1  0  0  0  0
 32 31  1  0  0  0  0
M  END
>  <minimizedAffinity>
-5.5259676

$$$$

 OpenBabel03272502363D

 34 36  0  0  1  0  0  0  0  0999 V2000
   38.3070   24.3830   34.0800 C   0  0  2  0  0  0  0  0  0  0  0  0
   39.2620   24.6980   33.6110 H   0  0  0  0  0  0  0  0  0  0  0  0
   38.4050   24.1070   35.5240 C   0  0  0  0  0  0  0  0  0  0  0  0
   39.5250   23.3040   35.8640 C   0  0  0  0  0  0  0  0  0  0  0  0
   39.8260   22.9150   37.1430 C   0  0  0  0  0  0  0  0  0  0  0  0
   39.0090   23.3050   38.2180 C   0  0  0  0  0  0  0  0  0  0  0  0
   37.9390   24.0860   37.8020 C   0  0  0  0  0  0  0  0  0  0  0  0
   37.6270   24.4780   36.5610 N   0  0  0  0  0  0  0  0  0  0  0  0
   40.3070   22.8770   35.2090 H   0  0  0  0  0  0  0  0  0  0  0  0
   40.6590   22.3060   37.4640 H   0  0  0  0  0  0  0  0  0  0  0  0
   39.0850   23.1030   39.2510 H   0  0  0  0  0  0  0  0  0  0  0  0
   37.2160   24.4660   38.5280 H   0  0  0  0  0  0  0  0  0  0  0  0
   37.7140   26.6600   33.6490 C   0  0  0  0  0  3  0  0  0  0  0  0
   37.2830   25.4560   33.8470 C   0  0  0  0  0  3  0  0  0  0  0  0
   35.4270   29.0040   31.8730 C   0  0  0  0  0  0  0  0  0  0  0  0
   36.2850   27.9580   32.1620 C   0  0  0  0  0  0  0  0  0  0  0  0
   36.8180   27.7680   33.4090 C   0  0  0  0  0  0  0  0  0  0  0  0
   36.4620   28.6560   34.3420 N   0  0  0  0  0  0  0  0  0  0  0  0
   35.6420   29.6730   34.1050 C   0  0  0  0  0  0  0  0  0  0  0  0
   35.1200   29.8480   32.8570 N   0  0  0  0  0  0  0  0  0  0  0  0
   34.9880   29.1860   30.9020 H   0  0  0  0  0  0  0  0  0  0  0  0
   36.4630   27.3390   31.2940 H   0  0  0  0  0  0  0  0  0  0  0  0
   35.3090   30.5940   35.1870 C   0  0  0  0  0  0  0  0  0  0  0  0
   33.9920   30.7800   35.4870 N   0  0  0  0  0  0  0  0  0  0  0  0
   33.9650   31.6720   36.5180 C   0  0  0  0  0  0  0  0  0  0  0  0
   33.0590   32.0350   36.9940 H   0  0  0  0  0  0  0  0  0  0  0  0
   35.2400   32.0250   36.8430 N   0  0  0  0  0  0  0  0  0  0  0  0
   35.5610   32.6850   37.5850 H   0  0  0  0  0  0  0  0  0  0  0  0
   36.0490   31.3520   36.0150 N   0  0  0  0  0  0  0  0  0  0  0  0
   37.6700   22.8570   33.3120 S   0  0  0  0  0  0  0  0  0  0  0  0
   36.9210   23.1970   31.7290 C   0  0  0  0  0  0  0  0  0  0  0  0
   35.6170   23.6490   31.8240 F   0  0  0  0  0  0  0  0  0  0  0  0
   37.6980   24.0410   30.9630 F   0  0  0  0  0  0  0  0  0  0  0  0
   36.9040   21.9660   31.0300 F   0  0  0  0  0  0  0  0  0  0  0  0
  1  2  1  6  0  0  0
  1  3  1  0  0  0  0
  3  4  2  0  0  0  0
  3  8  1  0  0  0  0
  4  5  1  0  0  0  0
  5 10  1  0  0  0  0
  5  6  2  0  0  0  0
  6 11  1  0  0  0  0
  7  6  1  0  0  0  0
  7 12  1  0  0  0  0
  8  7  2  0  0  0  0
  9  4  1  0  0  0  0
 13 14  2  0  0  0  0
 14  1  1  0  0  0  0
 15 16  2  0  0  0  0
 15 20  1  0  0  0  0
 16 17  1  0  0  0  0
 17 13  1  0  0  0  0
 17 18  2  0  0  0  0
 19 18  1  0  0  0  0
 19 23  1  0  0  0  0
 20 19  2  0  0  0  0
 21 15  1  0  0  0  0
 22 16  1  0  0  0  0
 23 24  1  0  0  0  0
 23 29  2  0  0  0  0
 24 25  2  0  0  0  0
 25 27  1  0  0  0  0
 25 26  1  0  0  0  0
 27 28  1  0  0  0  0
 29 27  1  0  0  0  0
 30  1  1  0  0  0  0
 31 32  1  0  0  0  0
 31 30  1  0  0  0  0
 33 31  1  0  0  0  0
 34 31  1  0  0  0  0
M  END
>  <minimizedAffinity>
-5.45654297

$$$$

 OpenBabel03272502363D

 34 36  0  0  1  0  0  0  0  0999 V2000
   34.9130   29.7880   34.3770 C   0  0  2  0  0  0  0  0  0  0  0  0
   34.1950   29.7640   35.2220 H   0  0  0  0  0  0  0  0  0  0  0  0
   35.5610   31.0950   34.1700 C   0  0  0  0  0  0  0  0  0  0  0  0
   35.9670   31.7140   35.3820 C   0  0  0  0  0  0  0  0  0  0  0  0
   36.5890   32.9330   35.4450 C   0  0  0  0  0  0  0  0  0  0  0  0
   36.8660   33.6540   34.2720 C   0  0  0  0  0  0  0  0  0  0  0  0
   36.4400   32.9820   33.1340 C   0  0  0  0  0  0  0  0  0  0  0  0
   35.8300   31.7930   33.0490 N   0  0  0  0  0  0  0  0  0  0  0  0
   35.8640   31.3540   36.4220 H   0  0  0  0  0  0  0  0  0  0  0  0
   36.9190   33.4550   36.3320 H   0  0  0  0  0  0  0  0  0  0  0  0
   37.3310   34.5920   34.1310 H   0  0  0  0  0  0  0  0  0  0  0  0
   36.5880   33.4200   32.1440 H   0  0  0  0  0  0  0  0  0  0  0  0
   36.4240   28.1140   33.5800 C   0  0  0  0  0  3  0  0  0  0  0  0
   35.9650   28.7430   34.6130 C   0  0  0  0  0  3  0  0  0  0  0  0
   39.3930   26.0140   32.7690 C   0  0  0  0  0  0  0  0  0  0  0  0
   38.4000   26.9750   32.7180 C   0  0  0  0  0  0  0  0  0  0  0  0
   37.4420   27.0940   33.6900 C   0  0  0  0  0  0  0  0  0  0  0  0
   37.5190   26.2220   34.7010 N   0  0  0  0  0  0  0  0  0  0  0  0
   38.4560   25.2860   34.7850 C   0  0  0  0  0  0  0  0  0  0  0  0
   39.4030   25.1820   33.8090 N   0  0  0  0  0  0  0  0  0  0  0  0
   40.1640   25.8900   32.0210 H   0  0  0  0  0  0  0  0  0  0  0  0
   38.4890   27.5930   31.8350 H   0  0  0  0  0  0  0  0  0  0  0  0
   38.4620   24.3770   35.9280 C   0  0  0  0  0  0  0  0  0  0  0  0
   39.6210   23.7210   36.2180 N   0  0  0  0  0  0  0  0  0  0  0  0
   39.3520   22.9530   37.3120 C   0  0  0  0  0  0  0  0  0  0  0  0
   40.0720   22.3020   37.7990 H   0  0  0  0  0  0  0  0  0  0  0  0
   38.0540   23.1360   37.6850 N   0  0  0  0  0  0  0  0  0  0  0  0
   37.5400   22.6970   38.4790 H   0  0  0  0  0  0  0  0  0  0  0  0
   37.5270   24.0140   36.8220 N   0  0  0  0  0  0  0  0  0  0  0  0
   34.0900   29.3730   32.8030 S   0  0  0  0  0  0  0  0  0  0  0  0
   32.3380   29.1310   33.0370 C   0  0  0  0  0  0  0  0  0  0  0  0
   31.5660   30.1410   32.4900 F   0  0  0  0  0  0  0  0  0  0  0  0
   31.9280   27.8870   32.6070 F   0  0  0  0  0  0  0  0  0  0  0  0
   32.1260   29.1320   34.4370 F   0  0  0  0  0  0  0  0  0  0  0  0
  1 14  1  0  0  0  0
  1  2  1  1  0  0  0
  3  1  1  0  0  0  0
  3  4  1  0  0  0  0
  4  5  2  0  0  0  0
  4  9  1  0  0  0  0
  5 10  1  0  0  0  0
  6  5  1  0  0  0  0
  7  6  2  0  0  0  0
  8  7  1  0  0  0  0
  8  3  2  0  0  0  0
 11  6  1  0  0  0  0
 12  7  1  0  0  0  0
 13 17  1  0  0  0  0
 13 14  2  0  0  0  0
 15 20  1  0  0  0  0
 16 15  2  0  0  0  0
 16 17  1  0  0  0  0
 17 18  2  0  0  0  0
 18 19  1  0  0  0  0
 19 23  1  0  0  0  0
 20 19  2  0  0  0  0
 21 15  1  0  0  0  0
 22 16  1  0  0  0  0
 23 24  1  0  0  0  0
 23 29  2  0  0  0  0
 24 25  2  0  0  0  0
 25 27  1  0  0  0  0
 25 26  1  0  0  0  0
 27 28  1  0  0  0  0
 29 27  1  0  0  0  0
 30 31  1  0  0  0  0
 30  1  1  0  0  0  0
 31 34  1  0  0  0  0
 32 31  1  0  0  0  0
 33 31  1  0  0  0  0
M  END
>  <minimizedAffinity>
-5.40707397

$$$$

 OpenBabel03272502363D

 34 36  0  0  1  0  0  0  0  0999 V2000
   39.1350   26.6250   35.4640 C   0  0  2  0  0  0  0  0  0  0  0  0
   39.7840   26.9380   36.3070 H   0  0  0  0  0  0  0  0  0  0  0  0
   38.6610   25.2320   35.5490 C   0  0  0  0  0  0  0  0  0  0  0  0
   38.1220   24.9040   36.8210 C   0  0  0  0  0  0  0  0  0  0  0  0
   37.6190   23.6700   37.1410 C   0  0  0  0  0  0  0  0  0  0  0  0
   37.6140   22.6340   36.1930 C   0  0  0  0  0  0  0  0  0  0  0  0
   38.1560   23.0350   34.9790 C   0  0  0  0  0  0  0  0  0  0  0  0
   38.6520   24.2330   34.6450 N   0  0  0  0  0  0  0  0  0  0  0  0
   38.0140   25.5360   37.7220 H   0  0  0  0  0  0  0  0  0  0  0  0
   37.1980   23.3600   38.0870 H   0  0  0  0  0  0  0  0  0  0  0  0
   37.2720   21.6370   36.2610 H   0  0  0  0  0  0  0  0  0  0  0  0
   38.2190   22.3360   34.1430 H   0  0  0  0  0  0  0  0  0  0  0  0
   37.4170   27.7510   34.2400 C   0  0  0  0  0  3  0  0  0  0  0  0
   37.9540   27.5490   35.3990 C   0  0  0  0  0  3  0  0  0  0  0  0
   34.4620   29.3870   32.6660 C   0  0  0  0  0  0  0  0  0  0  0  0
   35.5600   28.5780   32.8930 C   0  0  0  0  0  0  0  0  0  0  0  0
   36.2720   28.6160   34.0620 C   0  0  0  0  0  0  0  0  0  0  0  0
   35.8440   29.4870   34.9830 N   0  0  0  0  0  0  0  0  0  0  0  0
   34.7950   30.2800   34.8030 C   0  0  0  0  0  0  0  0  0  0  0  0
   34.0970   30.2280   33.6320 N   0  0  0  0  0  0  0  0  0  0  0  0
   33.8760   29.3840   31.7580 H   0  0  0  0  0  0  0  0  0  0  0  0
   35.7640   27.9370   32.0460 H   0  0  0  0  0  0  0  0  0  0  0  0
   34.4010   31.1990   35.8660 C   0  0  0  0  0  0  0  0  0  0  0  0
   33.0690   31.3640   36.1080 N   0  0  0  0  0  0  0  0  0  0  0  0
   32.9830   32.2600   37.1330 C   0  0  0  0  0  0  0  0  0  0  0  0
   32.0520   32.6090   37.5670 H   0  0  0  0  0  0  0  0  0  0  0  0
   34.2370   32.6360   37.5100 N   0  0  0  0  0  0  0  0  0  0  0  0
   34.5150   33.3050   38.2610 H   0  0  0  0  0  0  0  0  0  0  0  0
   35.0920   31.9730   36.7200 N   0  0  0  0  0  0  0  0  0  0  0  0
   40.0140   26.7670   33.8720 S   0  0  0  0  0  0  0  0  0  0  0  0
   41.7340   26.3250   34.0440 C   0  0  0  0  0  0  0  0  0  0  0  0
   42.0340   25.7500   35.2670 F   0  0  0  0  0  0  0  0  0  0  0  0
   42.1730   25.5470   32.9940 F   0  0  0  0  0  0  0  0  0  0  0  0
   42.4620   27.5350   33.9440 F   0  0  0  0  0  0  0  0  0  0  0  0
  1  3  1  0  0  0  0
  1  2  1  1  0  0  0
  3  4  1  0  0  0  0
  4  5  2  0  0  0  0
  4  9  1  0  0  0  0
  5 10  1  0  0  0  0
  6 11  1  0  0  0  0
  6  5  1  0  0  0  0
  7  6  2  0  0  0  0
  8  7  1  0  0  0  0
  8  3  2  0  0  0  0
 12  7  1  0  0  0  0
 13 14  2  0  0  0  0
 14  1  1  0  0  0  0
 15 16  2  0  0  0  0
 15 20  1  0  0  0  0
 16 17  1  0  0  0  0
 17 13  1  0  0  0  0
 17 18  2  0  0  0  0
 19 18  1  0  0  0  0
 19 23  1  0  0  0  0
 20 19  2  0  0  0  0
 21 15  1  0  0  0  0
 22 16  1  0  0  0  0
 23 24  1  0  0  0  0
 23 29  2  0  0  0  0
 24 25  2  0  0  0  0
 25 27  1  0  0  0  0
 25 26  1  0  0  0  0
 27 28  1  0  0  0  0
 29 27  1  0  0  0  0
 30 31  1  0  0  0  0
 30  1  1  0  0  0  0
 31 32  1  0  0  0  0
 33 31  1  0  0  0  0
 34 31  1  0  0  0  0
M  END
>  <minimizedAffinity>
-5.34778976

$$$$
