
 OpenBabel03272507193D

 28 30  0  0  1  0  0  0  0  0999 V2000
   37.6690   31.3460   49.4200 C   0  0  0  0  0  0  0  0  0  0  0  0
   38.3100   32.5630   49.6320 C   0  0  0  0  0  0  0  0  0  0  0  0
   38.9250   33.1070   48.5080 C   0  0  0  0  0  0  0  0  0  0  0  0
   38.8820   32.4660   47.2930 N   0  0  0  0  0  0  0  0  0  0  0  0
   38.2430   31.2770   47.1370 C   0  0  0  0  0  0  0  0  0  0  0  0
   37.6290   30.7130   48.2150 N   0  0  0  0  0  0  0  0  0  0  0  0
   38.3310   33.0470   50.5830 H   0  0  0  0  0  0  0  0  0  0  0  0
   39.4520   34.0540   48.5630 H   0  0  0  0  0  0  0  0  0  0  0  0
   36.9840   30.7450   50.6060 C   0  0  1  0  0  0  0  0  0  0  0  0
   36.1800   29.5280   50.4960 C   0  0  2  0  0  0  0  0  0  0  0  0
   37.5870   29.3760   50.9840 C   0  0  0  0  0  0  0  0  0  0  0  0
   36.9160   31.4530   51.4740 H   0  0  0  0  0  0  0  0  0  0  0  0
   35.2970   29.5400   51.1970 H   0  0  0  0  0  0  0  0  0  0  0  0
   38.3320   28.9210   50.3230 H   0  0  0  0  0  0  0  0  0  0  0  0
   37.7140   29.1920   52.0650 H   0  0  0  0  0  0  0  0  0  0  0  0
   35.8560   29.0920   49.2180 O   0  0  0  0  0  0  0  0  0  0  0  0
   34.6460   28.7650   48.7040 C   0  0  0  0  0  0  0  0  0  0  0  0
   34.2610   27.5800   48.6050 O   0  0  0  0  0  0  0  0  0  0  0  0
   33.9810   29.9340   48.3400 N   0  0  0  0  0  0  0  0  0  0  0  0
   34.3210   30.7280   47.8000 H   0  0  0  0  0  0  0  0  0  0  0  0
   33.0020   29.9550   48.6910 H   0  0  0  0  0  0  0  0  0  0  0  0
   38.2480   30.6760   45.8300 C   0  0  0  0  0  0  0  0  0  0  0  0
   39.4080   30.2790   45.2280 N   0  0  0  0  0  0  0  0  0  0  0  0
   39.1440   29.7480   44.0120 C   0  0  0  0  0  0  0  0  0  0  0  0
   39.9830   29.3950   43.4350 H   0  0  0  0  0  0  0  0  0  0  0  0
   37.8100   29.8160   43.8580 N   0  0  0  0  0  0  0  0  0  0  0  0
   37.3680   29.4630   42.9910 H   0  0  0  0  0  0  0  0  0  0  0  0
   37.2640   30.3720   44.9460 N   0  0  0  0  0  0  0  0  0  0  0  0
  1  2  1  0  0  0  0
  1  9  1  0  0  0  0
  2  7  1  0  0  0  0
  3  8  1  0  0  0  0
  3  2  2  0  0  0  0
  4  3  1  0  0  0  0
  5  4  2  0  0  0  0
  5  6  1  0  0  0  0
  6  1  2  0  0  0  0
  9 11  1  0  0  0  0
  9 12  1  1  0  0  0
 10  9  1  0  0  0  0
 10 11  1  0  0  0  0
 10 13  1  1  0  0  0
 11 15  1  0  0  0  0
 14 11  1  0  0  0  0
 16 10  1  0  0  0  0
 17 16  1  0  0  0  0
 18 17  2  0  0  0  0
 19 21  1  0  0  0  0
 19 17  1  0  0  0  0
 20 19  1  0  0  0  0
 22  5  1  0  0  0  0
 23 22  1  0  0  0  0
 24 23  2  0  0  0  0
 25 24  1  0  0  0  0
 26 24  1  0  0  0  0
 26 28  1  0  0  0  0
 27 26  1  0  0  0  0
 28 22  2  0  0  0  0
M  END
>  <minimizedAffinity>
-5.40162182

>  <minimizedRMSD>
1.20110977

$$$$
