
 OpenBabel03262520543D

 24 26  0  0  1  0  0  0  0  0999 V2000
   41.1730   26.3580   34.6580 C   0  0  2  0  0  0  0  0  0  0  0  0
   41.8560   25.5490   33.6520 C   0  0  0  0  0  0  0  0  0  0  0  0
   41.4050   24.9110   34.9340 C   0  0  2  0  0  0  0  0  0  0  0  0
   41.7530   27.0530   35.3150 H   0  0  0  0  0  0  0  0  0  0  0  0
   41.2500   25.3000   32.7330 H   0  0  0  0  0  0  0  0  0  0  0  0
   42.9500   25.7160   33.4870 H   0  0  0  0  0  0  0  0  0  0  0  0
   42.2490   24.6360   35.6170 H   0  0  0  0  0  0  0  0  0  0  0  0
   37.8770   27.2340   33.1380 C   0  0  0  0  0  0  0  0  0  0  0  0
   37.1580   27.6270   34.2710 C   0  0  0  0  0  0  0  0  0  0  0  0
   37.7860   27.5900   35.5370 C   0  0  0  0  0  0  0  0  0  0  0  0
   39.0900   27.1660   35.6040 N   0  0  0  0  0  0  0  0  0  0  0  0
   39.7460   26.7950   34.4850 C   0  0  0  0  0  0  0  0  0  0  0  0
   39.1630   26.8220   33.2560 N   0  0  0  0  0  0  0  0  0  0  0  0
   37.3800   27.2680   32.1790 H   0  0  0  0  0  0  0  0  0  0  0  0
   36.1220   27.9630   34.2070 H   0  0  0  0  0  0  0  0  0  0  0  0
   37.2870   27.8780   36.4300 H   0  0  0  0  0  0  0  0  0  0  0  0
   39.9460   23.8350   34.9170 S   0  0  0  0  0  0  0  0  0  0  0  0
   39.3810   23.5090   36.5810 C   0  0  0  0  0  0  0  0  0  0  0  0
   38.2540   24.0570   37.0780 N   0  0  0  0  0  0  0  0  0  0  0  0
   38.0790   23.6340   38.3510 C   0  0  0  0  0  0  0  0  0  0  0  0
   37.2390   23.9300   38.9880 H   0  0  0  0  0  0  0  0  0  0  0  0
   39.1170   22.8120   38.6400 N   0  0  0  0  0  0  0  0  0  0  0  0
   39.2610   22.3250   39.5560 H   0  0  0  0  0  0  0  0  0  0  0  0
   39.8980   22.7460   37.5580 N   0  0  0  0  0  0  0  0  0  0  0  0
  1  3  1  0  0  0  0
  1  4  1  1  0  0  0
  2  1  1  0  0  0  0
  2  3  1  0  0  0  0
  3  7  1  1  0  0  0
  5  2  1  0  0  0  0
  6  2  1  0  0  0  0
  8 13  2  0  0  0  0
  8  9  1  0  0  0  0
  9 10  2  0  0  0  0
 10 11  1  0  0  0  0
 10 16  1  0  0  0  0
 12  1  1  0  0  0  0
 12 11  2  0  0  0  0
 13 12  1  0  0  0  0
 14  8  1  0  0  0  0
 15  9  1  0  0  0  0
 17  3  1  0  0  0  0
 17 18  1  0  0  0  0
 18 19  1  0  0  0  0
 18 24  2  0  0  0  0
 19 20  2  0  0  0  0
 20 22  1  0  0  0  0
 20 21  1  0  0  0  0
 22 23  1  0  0  0  0
 24 22  1  0  0  0  0
M  END
>  <minimizedAffinity>
-4.47439289

$$$$

 OpenBabel03262520543D

 24 26  0  0  1  0  0  0  0  0999 V2000
   37.4280   27.1340   34.7790 C   0  0  2  0  0  0  0  0  0  0  0  0
   38.5130   27.3800   35.7250 C   0  0  0  0  0  0  0  0  0  0  0  0
   37.7820   26.0700   35.7600 C   0  0  2  0  0  0  0  0  0  0  0  0
   36.4210   27.5950   34.9380 H   0  0  0  0  0  0  0  0  0  0  0  0
   39.5540   27.3580   35.2900 H   0  0  0  0  0  0  0  0  0  0  0  0
   38.3420   28.1160   36.5510 H   0  0  0  0  0  0  0  0  0  0  0  0
   37.1270   25.9480   36.6600 H   0  0  0  0  0  0  0  0  0  0  0  0
   37.0620   25.9280   31.2640 C   0  0  0  0  0  0  0  0  0  0  0  0
   38.2850   26.3270   30.7170 C   0  0  0  0  0  0  0  0  0  0  0  0
   39.2210   27.0030   31.5330 C   0  0  0  0  0  0  0  0  0  0  0  0
   38.8880   27.2420   32.8440 N   0  0  0  0  0  0  0  0  0  0  0  0
   37.6960   26.8380   33.3290 C   0  0  0  0  0  0  0  0  0  0  0  0
   36.7790   26.1860   32.5640 N   0  0  0  0  0  0  0  0  0  0  0  0
   36.3600   25.4130   30.6240 H   0  0  0  0  0  0  0  0  0  0  0  0
   38.5410   26.1330   29.6740 H   0  0  0  0  0  0  0  0  0  0  0  0
   40.1650   27.3290   31.1700 H   0  0  0  0  0  0  0  0  0  0  0  0
   38.5940   24.5900   35.0980 S   0  0  0  0  0  0  0  0  0  0  0  0
   39.2680   23.5940   36.4200 C   0  0  0  0  0  0  0  0  0  0  0  0
   40.4390   22.9370   36.3000 N   0  0  0  0  0  0  0  0  0  0  0  0
   40.6950   22.2710   37.4500 C   0  0  0  0  0  0  0  0  0  0  0  0
   41.5840   21.6550   37.6210 H   0  0  0  0  0  0  0  0  0  0  0  0
   39.6620   22.5250   38.2900 N   0  0  0  0  0  0  0  0  0  0  0  0
   39.5720   22.1470   39.2640 H   0  0  0  0  0  0  0  0  0  0  0  0
   38.8050   23.3280   37.6530 N   0  0  0  0  0  0  0  0  0  0  0  0
  1  4  1  1  0  0  0
  1  2  1  0  0  0  0
  1  3  1  0  0  0  0
  2  3  1  0  0  0  0
  2  6  1  0  0  0  0
  3  7  1  1  0  0  0
  5  2  1  0  0  0  0
  8 13  1  0  0  0  0
  9  8  2  0  0  0  0
  9 10  1  0  0  0  0
 10 11  2  0  0  0  0
 11 12  1  0  0  0  0
 12  1  1  0  0  0  0
 13 12  2  0  0  0  0
 14  8  1  0  0  0  0
 15  9  1  0  0  0  0
 16 10  1  0  0  0  0
 17  3  1  0  0  0  0
 17 18  1  0  0  0  0
 18 24  2  0  0  0  0
 19 18  1  0  0  0  0
 19 20  2  0  0  0  0
 20 21  1  0  0  0  0
 20 22  1  0  0  0  0
 22 23  1  0  0  0  0
 24 22  1  0  0  0  0
M  END
>  <minimizedAffinity>
-4.42400932

$$$$

 OpenBabel03262520543D

 24 26  0  0  1  0  0  0  0  0999 V2000
   39.0230   26.9540   33.8840 C   0  0  2  0  0  0  0  0  0  0  0  0
   40.4720   26.9220   34.0660 C   0  0  0  0  0  0  0  0  0  0  0  0
   39.5860   26.2200   35.0520 C   0  0  2  0  0  0  0  0  0  0  0  0
   38.4380   27.8700   34.1500 H   0  0  0  0  0  0  0  0  0  0  0  0
   41.0390   26.2620   33.3470 H   0  0  0  0  0  0  0  0  0  0  0  0
   40.9900   27.8640   34.3800 H   0  0  0  0  0  0  0  0  0  0  0  0
   39.5480   26.7200   36.0540 H   0  0  0  0  0  0  0  0  0  0  0  0
   36.4520   25.0330   31.9750 C   0  0  0  0  0  0  0  0  0  0  0  0
   37.2000   24.6120   30.8710 C   0  0  0  0  0  0  0  0  0  0  0  0
   38.5620   24.9830   30.7750 C   0  0  0  0  0  0  0  0  0  0  0  0
   39.1000   25.7470   31.7810 N   0  0  0  0  0  0  0  0  0  0  0  0
   38.3410   26.1300   32.8280 C   0  0  0  0  0  0  0  0  0  0  0  0
   37.0300   25.7860   32.9430 N   0  0  0  0  0  0  0  0  0  0  0  0
   35.4140   24.7400   32.0300 H   0  0  0  0  0  0  0  0  0  0  0  0
   36.7630   24.0050   30.0770 H   0  0  0  0  0  0  0  0  0  0  0  0
   39.1760   24.6910   29.9590 H   0  0  0  0  0  0  0  0  0  0  0  0
   39.4770   24.4110   35.0060 S   0  0  0  0  0  0  0  0  0  0  0  0
   39.0680   23.7590   36.6190 C   0  0  0  0  0  0  0  0  0  0  0  0
   37.8940   24.0260   37.2260 N   0  0  0  0  0  0  0  0  0  0  0  0
   37.8640   23.4040   38.4270 C   0  0  0  0  0  0  0  0  0  0  0  0
   37.0230   23.4540   39.1260 H   0  0  0  0  0  0  0  0  0  0  0  0
   39.0410   22.7440   38.5590 N   0  0  0  0  0  0  0  0  0  0  0  0
   39.3160   22.1660   39.3890 H   0  0  0  0  0  0  0  0  0  0  0  0
   39.7600   22.9680   37.4560 N   0  0  0  0  0  0  0  0  0  0  0  0
  1  2  1  0  0  0  0
  1  4  1  1  0  0  0
  1  3  1  0  0  0  0
  2  6  1  0  0  0  0
  2  3  1  0  0  0  0
  3  7  1  1  0  0  0
  5  2  1  0  0  0  0
  8 14  1  0  0  0  0
  8 13  1  0  0  0  0
  9  8  2  0  0  0  0
 10  9  1  0  0  0  0
 10 11  2  0  0  0  0
 11 12  1  0  0  0  0
 12 13  2  0  0  0  0
 12  1  1  0  0  0  0
 15  9  1  0  0  0  0
 16 10  1  0  0  0  0
 17  3  1  0  0  0  0
 17 18  1  0  0  0  0
 18 19  1  0  0  0  0
 18 24  2  0  0  0  0
 19 20  2  0  0  0  0
 20 22  1  0  0  0  0
 20 21  1  0  0  0  0
 22 23  1  0  0  0  0
 24 22  1  0  0  0  0
M  END
>  <minimizedAffinity>
-4.27778482

$$$$

 OpenBabel03262520543D

 24 26  0  0  1  0  0  0  0  0999 V2000
   39.3750   26.2780   35.4130 C   0  0  2  0  0  0  0  0  0  0  0  0
   38.5160   27.3720   35.8570 C   0  0  0  0  0  0  0  0  0  0  0  0
   38.6520   27.0850   34.3900 C   0  0  2  0  0  0  0  0  0  0  0  0
   40.4870   26.4000   35.3980 H   0  0  0  0  0  0  0  0  0  0  0  0
   37.5420   27.0640   36.3370 H   0  0  0  0  0  0  0  0  0  0  0  0
   38.9990   28.2920   36.2740 H   0  0  0  0  0  0  0  0  0  0  0  0
   39.2300   27.8660   33.8340 H   0  0  0  0  0  0  0  0  0  0  0  0
   37.6960   23.1570   36.5920 C   0  0  0  0  0  0  0  0  0  0  0  0
   38.2980   22.2030   35.7650 C   0  0  0  0  0  0  0  0  0  0  0  0
   39.2600   22.6180   34.8150 C   0  0  0  0  0  0  0  0  0  0  0  0
   39.5680   23.9540   34.7420 N   0  0  0  0  0  0  0  0  0  0  0  0
   38.9630   24.8400   35.5600 C   0  0  0  0  0  0  0  0  0  0  0  0
   38.0350   24.4660   36.4820 N   0  0  0  0  0  0  0  0  0  0  0  0
   36.9640   22.8220   37.3110 H   0  0  0  0  0  0  0  0  0  0  0  0
   38.0460   21.1440   35.8310 H   0  0  0  0  0  0  0  0  0  0  0  0
   39.7470   21.9360   34.1620 H   0  0  0  0  0  0  0  0  0  0  0  0
   37.2860   26.2650   33.5240 S   0  0  0  0  0  0  0  0  0  0  0  0
   36.9980   27.0280   31.9330 C   0  0  0  0  0  0  0  0  0  0  0  0
   37.5970   28.1790   31.5690 N   0  0  0  0  0  0  0  0  0  0  0  0
   37.1920   28.5150   30.3220 C   0  0  0  0  0  0  0  0  0  0  0  0
   37.5280   29.4080   29.7850 H   0  0  0  0  0  0  0  0  0  0  0  0
   36.3290   27.5520   29.9150 N   0  0  0  0  0  0  0  0  0  0  0  0
   35.8450   27.5330   28.9860 H   0  0  0  0  0  0  0  0  0  0  0  0
   36.2210   26.6580   30.9010 N   0  0  0  0  0  0  0  0  0  0  0  0
  1  4  1  1  0  0  0
  1 12  1  0  0  0  0
  1  2  1  0  0  0  0
  2  6  1  0  0  0  0
  2  5  1  0  0  0  0
  3  7  1  6  0  0  0
  3  1  1  0  0  0  0
  3  2  1  0  0  0  0
  8 14  1  0  0  0  0
  9 15  1  0  0  0  0
  9  8  2  0  0  0  0
 10  9  1  0  0  0  0
 11 10  2  0  0  0  0
 11 12  1  0  0  0  0
 12 13  2  0  0  0  0
 13  8  1  0  0  0  0
 16 10  1  0  0  0  0
 17  3  1  0  0  0  0
 18 17  1  0  0  0  0
 19 18  1  0  0  0  0
 20 19  2  0  0  0  0
 21 20  1  0  0  0  0
 22 20  1  0  0  0  0
 22 24  1  0  0  0  0
 23 22  1  0  0  0  0
 24 18  2  0  0  0  0
M  END
>  <minimizedAffinity>
-4.16824818

$$$$

 OpenBabel03262520543D

 24 26  0  0  1  0  0  0  0  0999 V2000
   38.6780   27.2970   34.5280 C   0  0  2  0  0  0  0  0  0  0  0  0
   38.5160   27.1790   35.9750 C   0  0  0  0  0  0  0  0  0  0  0  0
   37.8000   26.2210   35.0680 C   0  0  2  0  0  0  0  0  0  0  0  0
   38.1370   28.0950   33.9600 H   0  0  0  0  0  0  0  0  0  0  0  0
   39.4050   26.7650   36.5330 H   0  0  0  0  0  0  0  0  0  0  0  0
   37.9220   27.9620   36.5090 H   0  0  0  0  0  0  0  0  0  0  0  0
   36.6920   26.3810   35.0340 H   0  0  0  0  0  0  0  0  0  0  0  0
   41.0990   26.1540   31.9250 C   0  0  0  0  0  0  0  0  0  0  0  0
   42.2740   26.0580   32.6780 C   0  0  0  0  0  0  0  0  0  0  0  0
   42.2420   26.3820   34.0540 C   0  0  0  0  0  0  0  0  0  0  0  0
   41.0480   26.7830   34.6010 N   0  0  0  0  0  0  0  0  0  0  0  0
   39.9390   26.8610   33.8360 C   0  0  0  0  0  0  0  0  0  0  0  0
   39.9440   26.5540   32.5110 N   0  0  0  0  0  0  0  0  0  0  0  0
   41.1430   25.9020   30.8750 H   0  0  0  0  0  0  0  0  0  0  0  0
   43.2180   25.7390   32.2340 H   0  0  0  0  0  0  0  0  0  0  0  0
   43.1040   26.3270   34.6730 H   0  0  0  0  0  0  0  0  0  0  0  0
   38.4130   24.5210   34.9230 S   0  0  0  0  0  0  0  0  0  0  0  0
   38.6550   23.7950   36.5380 C   0  0  0  0  0  0  0  0  0  0  0  0
   37.7680   23.9590   37.5400 N   0  0  0  0  0  0  0  0  0  0  0  0
   38.2110   23.3020   38.6370 C   0  0  0  0  0  0  0  0  0  0  0  0
   37.6790   23.2720   39.5930 H   0  0  0  0  0  0  0  0  0  0  0  0
   39.3900   22.7240   38.3010 N   0  0  0  0  0  0  0  0  0  0  0  0
   39.9800   22.1430   38.9440 H   0  0  0  0  0  0  0  0  0  0  0  0
   39.6470   23.0320   37.0270 N   0  0  0  0  0  0  0  0  0  0  0  0
  1  4  1  6  0  0  0
  1  3  1  0  0  0  0
  1  2  1  0  0  0  0
  2  6  1  0  0  0  0
  2  5  1  0  0  0  0
  3  7  1  6  0  0  0
  3  2  1  0  0  0  0
  8 13  2  0  0  0  0
  8  9  1  0  0  0  0
  9 10  2  0  0  0  0
 10 11  1  0  0  0  0
 10 16  1  0  0  0  0
 12  1  1  0  0  0  0
 12 11  2  0  0  0  0
 13 12  1  0  0  0  0
 14  8  1  0  0  0  0
 15  9  1  0  0  0  0
 17  3  1  0  0  0  0
 17 18  1  0  0  0  0
 18 24  2  0  0  0  0
 18 19  1  0  0  0  0
 19 20  2  0  0  0  0
 20 21  1  0  0  0  0
 22 20  1  0  0  0  0
 22 23  1  0  0  0  0
 24 22  1  0  0  0  0
M  END
>  <minimizedAffinity>
-4.11714268

$$$$

 OpenBabel03262520543D

 24 26  0  0  1  0  0  0  0  0999 V2000
   37.1830   23.7070   32.3100 C   0  0  2  0  0  0  0  0  0  0  0  0
   38.5980   24.0660   32.2550 C   0  0  0  0  0  0  0  0  0  0  0  0
   37.9550   23.7880   33.5820 C   0  0  2  0  0  0  0  0  0  0  0  0
   36.3940   24.4920   32.1960 H   0  0  0  0  0  0  0  0  0  0  0  0
   39.2890   23.2650   31.8590 H   0  0  0  0  0  0  0  0  0  0  0  0
   38.8700   25.1200   31.9980 H   0  0  0  0  0  0  0  0  0  0  0  0
   37.8270   24.7010   34.2170 H   0  0  0  0  0  0  0  0  0  0  0  0
   36.9630   20.3350   30.7210 C   0  0  0  0  0  0  0  0  0  0  0  0
   35.7150   19.9050   31.1820 C   0  0  0  0  0  0  0  0  0  0  0  0
   34.9600   20.7510   32.0270 C   0  0  0  0  0  0  0  0  0  0  0  0
   35.4870   21.9730   32.3640 N   0  0  0  0  0  0  0  0  0  0  0  0
   36.6960   22.3470   31.8960 C   0  0  0  0  0  0  0  0  0  0  0  0
   37.4410   21.5520   31.0820 N   0  0  0  0  0  0  0  0  0  0  0  0
   37.5250   19.6750   30.0770 H   0  0  0  0  0  0  0  0  0  0  0  0
   35.3050   18.9320   30.9090 H   0  0  0  0  0  0  0  0  0  0  0  0
   34.0070   20.4740   32.4060 H   0  0  0  0  0  0  0  0  0  0  0  0
   38.3080   22.2190   34.4200 S   0  0  0  0  0  0  0  0  0  0  0  0
   38.8070   22.5040   36.1130 C   0  0  0  0  0  0  0  0  0  0  0  0
   38.0340   23.1800   36.9860 N   0  0  0  0  0  0  0  0  0  0  0  0
   38.6630   23.2390   38.1830 C   0  0  0  0  0  0  0  0  0  0  0  0
   38.2540   23.7330   39.0700 H   0  0  0  0  0  0  0  0  0  0  0  0
   39.8440   22.5880   38.0400 N   0  0  0  0  0  0  0  0  0  0  0  0
   40.5570   22.4640   38.7970 H   0  0  0  0  0  0  0  0  0  0  0  0
   39.9170   22.1480   36.7810 N   0  0  0  0  0  0  0  0  0  0  0  0
  1  4  1  6  0  0  0
  1  3  1  0  0  0  0
  2  1  1  0  0  0  0
  2  3  1  0  0  0  0
  3  7  1  1  0  0  0
  3 17  1  0  0  0  0
  5  2  1  0  0  0  0
  6  2  1  0  0  0  0
  8 13  2  0  0  0  0
  8  9  1  0  0  0  0
  9 10  2  0  0  0  0
 10 11  1  0  0  0  0
 10 16  1  0  0  0  0
 12  1  1  0  0  0  0
 12 11  2  0  0  0  0
 13 12  1  0  0  0  0
 14  8  1  0  0  0  0
 15  9  1  0  0  0  0
 17 18  1  0  0  0  0
 18 24  2  0  0  0  0
 18 19  1  0  0  0  0
 19 20  2  0  0  0  0
 20 21  1  0  0  0  0
 22 20  1  0  0  0  0
 22 23  1  0  0  0  0
 24 22  1  0  0  0  0
M  END
>  <minimizedAffinity>
-4.06293488

$$$$

 OpenBabel03262520543D

 24 26  0  0  1  0  0  0  0  0999 V2000
   39.0700   24.5220   34.5800 C   0  0  2  0  0  0  0  0  0  0  0  0
   37.8900   24.8820   33.7970 C   0  0  0  0  0  0  0  0  0  0  0  0
   38.5600   23.5590   33.5630 C   0  0  2  0  0  0  0  0  0  0  0  0
   40.0680   24.9660   34.3380 H   0  0  0  0  0  0  0  0  0  0  0  0
   36.9090   24.8510   34.3530 H   0  0  0  0  0  0  0  0  0  0  0  0
   37.9900   25.6830   33.0220 H   0  0  0  0  0  0  0  0  0  0  0  0
   39.0980   23.4990   32.5820 H   0  0  0  0  0  0  0  0  0  0  0  0
   37.8970   24.1650   38.1070 C   0  0  0  0  0  0  0  0  0  0  0  0
   38.8770   23.3140   38.6280 C   0  0  0  0  0  0  0  0  0  0  0  0
   39.9210   22.8640   37.7870 C   0  0  0  0  0  0  0  0  0  0  0  0
   39.9320   23.2850   36.4800 N   0  0  0  0  0  0  0  0  0  0  0  0
   38.9660   24.1070   36.0200 C   0  0  0  0  0  0  0  0  0  0  0  0
   37.9520   24.5530   36.8090 N   0  0  0  0  0  0  0  0  0  0  0  0
   37.1080   24.4980   38.7640 H   0  0  0  0  0  0  0  0  0  0  0  0
   38.8600   22.9850   39.6680 H   0  0  0  0  0  0  0  0  0  0  0  0
   40.6910   22.2170   38.1310 H   0  0  0  0  0  0  0  0  0  0  0  0
   37.7750   22.0510   34.1920 S   0  0  0  0  0  0  0  0  0  0  0  0
   36.5140   21.4760   33.0620 C   0  0  0  0  0  0  0  0  0  0  0  0
   36.5900   21.6860   31.7330 N   0  0  0  0  0  0  0  0  0  0  0  0
   35.5040   21.1430   31.1360 C   0  0  0  0  0  0  0  0  0  0  0  0
   35.3160   21.1720   30.0570 H   0  0  0  0  0  0  0  0  0  0  0  0
   34.7490   20.5910   32.1160 N   0  0  0  0  0  0  0  0  0  0  0  0
   33.8400   20.0920   31.9660 H   0  0  0  0  0  0  0  0  0  0  0  0
   35.3730   20.8000   33.2780 N   0  0  0  0  0  0  0  0  0  0  0  0
  1  4  1  6  0  0  0
  1 12  1  0  0  0  0
  2  5  1  0  0  0  0
  2  1  1  0  0  0  0
  3  7  1  6  0  0  0
  3  2  1  0  0  0  0
  3 17  1  0  0  0  0
  3  1  1  0  0  0  0
  6  2  1  0  0  0  0
  8  9  1  0  0  0  0
  8 14  1  0  0  0  0
  9 15  1  0  0  0  0
 10 16  1  0  0  0  0
 10  9  2  0  0  0  0
 11 10  1  0  0  0  0
 12 11  2  0  0  0  0
 12 13  1  0  0  0  0
 13  8  2  0  0  0  0
 18 24  2  0  0  0  0
 18 17  1  0  0  0  0
 19 18  1  0  0  0  0
 20 19  2  0  0  0  0
 20 22  1  0  0  0  0
 21 20  1  0  0  0  0
 22 24  1  0  0  0  0
 23 22  1  0  0  0  0
M  END
>  <minimizedAffinity>
-4.03304052

$$$$

 OpenBabel03262520543D

 24 26  0  0  1  0  0  0  0  0999 V2000
   35.9010   23.3010   31.6260 C   0  0  2  0  0  0  0  0  0  0  0  0
   36.8910   23.9600   30.7780 C   0  0  0  0  0  0  0  0  0  0  0  0
   37.0250   24.0380   32.2710 C   0  0  2  0  0  0  0  0  0  0  0  0
   34.8940   23.7610   31.7850 H   0  0  0  0  0  0  0  0  0  0  0  0
   37.6140   23.2740   30.2480 H   0  0  0  0  0  0  0  0  0  0  0  0
   36.5830   24.8780   30.2150 H   0  0  0  0  0  0  0  0  0  0  0  0
   36.8140   25.0560   32.6860 H   0  0  0  0  0  0  0  0  0  0  0  0
   35.3650   19.8890   33.0450 C   0  0  0  0  0  0  0  0  0  0  0  0
   35.9080   19.0920   32.0330 C   0  0  0  0  0  0  0  0  0  0  0  0
   36.4450   19.7080   30.8790 C   0  0  0  0  0  0  0  0  0  0  0  0
   36.4130   21.0780   30.7990 N   0  0  0  0  0  0  0  0  0  0  0  0
   35.8800   21.8080   31.8000 C   0  0  0  0  0  0  0  0  0  0  0  0
   35.3570   21.2390   32.9200 N   0  0  0  0  0  0  0  0  0  0  0  0
   34.9590   19.4000   33.9190 H   0  0  0  0  0  0  0  0  0  0  0  0
   35.9280   18.0030   32.1060 H   0  0  0  0  0  0  0  0  0  0  0  0
   36.8690   19.1500   30.0810 H   0  0  0  0  0  0  0  0  0  0  0  0
   38.2900   23.0340   33.0940 S   0  0  0  0  0  0  0  0  0  0  0  0
   37.9830   22.9470   34.8530 C   0  0  0  0  0  0  0  0  0  0  0  0
   38.1970   23.9960   35.6730 N   0  0  0  0  0  0  0  0  0  0  0  0
   37.8800   23.6410   36.9390 C   0  0  0  0  0  0  0  0  0  0  0  0
   37.9610   24.3080   37.8040 H   0  0  0  0  0  0  0  0  0  0  0  0
   37.4650   22.3520   36.8960 N   0  0  0  0  0  0  0  0  0  0  0  0
   37.1500   21.7930   37.7240 H   0  0  0  0  0  0  0  0  0  0  0  0
   37.5330   21.9440   35.6250 N   0  0  0  0  0  0  0  0  0  0  0  0
  1  4  1  1  0  0  0
  1 12  1  0  0  0  0
  1  3  1  0  0  0  0
  2  1  1  0  0  0  0
  2  3  1  0  0  0  0
  3  7  1  1  0  0  0
  3 17  1  0  0  0  0
  5  2  1  0  0  0  0
  6  2  1  0  0  0  0
  8 14  1  0  0  0  0
  9 15  1  0  0  0  0
  9  8  2  0  0  0  0
 10  9  1  0  0  0  0
 11 10  2  0  0  0  0
 11 12  1  0  0  0  0
 12 13  2  0  0  0  0
 13  8  1  0  0  0  0
 16 10  1  0  0  0  0
 17 18  1  0  0  0  0
 18 24  2  0  0  0  0
 18 19  1  0  0  0  0
 19 20  2  0  0  0  0
 20 21  1  0  0  0  0
 22 20  1  0  0  0  0
 22 23  1  0  0  0  0
 24 22  1  0  0  0  0
M  END
>  <minimizedAffinity>
-4.02048254

$$$$

 OpenBabel03262520543D

 24 26  0  0  1  0  0  0  0  0999 V2000
   39.8230   25.4680   34.5840 C   0  0  2  0  0  0  0  0  0  0  0  0
   39.9480   26.8690   34.9750 C   0  0  0  0  0  0  0  0  0  0  0  0
   39.1280   26.5060   33.7720 C   0  0  2  0  0  0  0  0  0  0  0  0
   40.6610   24.9500   34.0540 H   0  0  0  0  0  0  0  0  0  0  0  0
   39.3720   27.1710   35.8970 H   0  0  0  0  0  0  0  0  0  0  0  0
   40.9330   27.3790   34.8230 H   0  0  0  0  0  0  0  0  0  0  0  0
   39.5960   26.8140   32.8020 H   0  0  0  0  0  0  0  0  0  0  0  0
   37.8350   22.4580   35.5500 C   0  0  0  0  0  0  0  0  0  0  0  0
   37.3530   22.8490   36.8020 C   0  0  0  0  0  0  0  0  0  0  0  0
   37.7030   24.1190   37.3140 C   0  0  0  0  0  0  0  0  0  0  0  0
   38.5120   24.9270   36.5520 N   0  0  0  0  0  0  0  0  0  0  0  0
   38.9540   24.5080   35.3480 C   0  0  0  0  0  0  0  0  0  0  0  0
   38.6300   23.2910   34.8350 N   0  0  0  0  0  0  0  0  0  0  0  0
   37.5570   21.4840   35.1750 H   0  0  0  0  0  0  0  0  0  0  0  0
   36.7110   22.2000   37.4000 H   0  0  0  0  0  0  0  0  0  0  0  0
   37.3650   24.4660   38.2590 H   0  0  0  0  0  0  0  0  0  0  0  0
   37.3190   26.5560   33.8910 S   0  0  0  0  0  0  0  0  0  0  0  0
   36.5690   25.8500   32.4310 C   0  0  0  0  0  0  0  0  0  0  0  0
   36.6290   24.5310   32.1570 N   0  0  0  0  0  0  0  0  0  0  0  0
   35.9780   24.2880   30.9960 C   0  0  0  0  0  0  0  0  0  0  0  0
   35.8760   23.2970   30.5430 H   0  0  0  0  0  0  0  0  0  0  0  0
   35.5110   25.4800   30.5490 N   0  0  0  0  0  0  0  0  0  0  0  0
   34.9620   25.6180   29.6680 H   0  0  0  0  0  0  0  0  0  0  0  0
   35.8760   26.4170   31.4290 N   0  0  0  0  0  0  0  0  0  0  0  0
  1  4  1  6  0  0  0
  1  2  1  0  0  0  0
  1 12  1  0  0  0  0
  2  5  1  0  0  0  0
  3  7  1  6  0  0  0
  3 17  1  0  0  0  0
  3  1  1  0  0  0  0
  3  2  1  0  0  0  0
  6  2  1  0  0  0  0
  8  9  1  0  0  0  0
  9 10  2  0  0  0  0
  9 15  1  0  0  0  0
 10 16  1  0  0  0  0
 11 10  1  0  0  0  0
 12 11  2  0  0  0  0
 13 12  1  0  0  0  0
 13  8  2  0  0  0  0
 14  8  1  0  0  0  0
 18 17  1  0  0  0  0
 19 18  1  0  0  0  0
 20 19  2  0  0  0  0
 21 20  1  0  0  0  0
 22 20  1  0  0  0  0
 22 24  1  0  0  0  0
 23 22  1  0  0  0  0
 24 18  2  0  0  0  0
M  END
>  <minimizedAffinity>
-4.00326681

$$$$
