
 OpenBabel03272505153D

 26 27  0  0  0  0  0  0  0  0999 V2000
   38.8720   31.2820   47.4510 Cl  0  0  0  0  0 10  0  0  0  0  0  0
   37.3570   30.7770   46.7670 C   0  0  0  0  0  0  0  0  0  0  0  0
   36.3820   30.2750   47.5610 C   0  0  0  0  0  0  0  0  0  0  0  0
   35.2090   29.8970   46.9350 C   0  0  0  0  0  0  0  0  0  0  0  0
   34.9810   29.9980   45.5950 C   0  0  0  0  0  0  0  0  0  0  0  0
   36.0020   30.5150   44.8130 C   0  0  0  0  0  0  0  0  0  0  0  0
   37.1960   30.9080   45.3940 C   0  0  0  0  0  0  0  0  0  0  0  0
   34.4140   29.4910   47.5660 H   0  0  0  0  0  0  0  0  0  0  0  0
   34.0600   29.6960   45.1340 H   0  0  0  0  0  0  0  0  0  0  0  0
   35.8090   30.5900   43.7510 H   0  0  0  0  0  0  0  0  0  0  0  0
   37.8760   30.6440   51.0160 C   0  0  0  0  0  0  0  0  0  0  0  0
   37.6830   30.7730   49.6380 C   0  0  0  0  0  0  0  0  0  0  0  0
   36.6170   30.1650   48.9900 C   0  0  0  0  0  0  0  0  0  0  0  0
   35.7910   29.4470   49.7850 N   0  0  0  0  0  0  0  0  0  0  0  0
   35.9670   29.3160   51.1040 C   0  0  0  0  0  0  0  0  0  0  0  0
   36.9990   29.9060   51.7290 N   0  0  0  0  0  0  0  0  0  0  0  0
   38.7590   31.1820   51.3770 H   0  0  0  0  0  0  0  0  0  0  0  0
   38.3350   31.3460   48.9750 H   0  0  0  0  0  0  0  0  0  0  0  0
   35.2790   28.7300   51.7060 H   0  0  0  0  0  0  0  0  0  0  0  0
   38.2590   31.4510   44.5530 C   0  0  0  0  0  0  0  0  0  0  0  0
   39.1950   30.7140   43.9540 N   0  0  0  0  0  0  0  0  0  0  0  0
   39.9810   31.5970   43.2760 C   0  0  0  0  0  0  0  0  0  0  0  0
   40.8560   31.5300   42.6430 H   0  0  0  0  0  0  0  0  0  0  0  0
   39.4940   32.8300   43.4880 N   0  0  0  0  0  0  0  0  0  0  0  0
   39.7630   33.8050   43.1790 H   0  0  0  0  0  0  0  0  0  0  0  0
   38.4160   32.7710   44.2840 N   0  0  0  0  0  0  0  0  0  0  0  0
  2  3  1  0  0  0  0
  3 13  1  0  0  0  0
  4  3  2  0  0  0  0
  4  8  1  0  0  0  0
  5  4  1  0  0  0  0
  6  7  1  0  0  0  0
  6  5  2  0  0  0  0
  7  2  2  0  0  0  0
  9  5  1  0  0  0  0
 10  6  1  0  0  0  0
 11 17  1  0  0  0  0
 11 16  1  0  0  0  0
 12 11  2  0  0  0  0
 13 12  1  0  0  0  0
 13 14  2  0  0  0  0
 14 15  1  0  0  0  0
 15 19  1  0  0  0  0
 15 16  2  0  0  0  0
 18 12  1  0  0  0  0
 20  7  1  0  0  0  0
 21 20  1  0  0  0  0
 22 24  1  0  0  0  0
 22 21  2  0  0  0  0
 23 22  1  0  0  0  0
 24 26  1  0  0  0  0
 25 24  1  0  0  0  0
 26 20  2  0  0  0  0
M  END
>  <minimizedAffinity>
-5.35649347

>  <minimizedRMSD>
3.70746899

$$$$
