
 OpenBabel03272507193D

 28 30  0  0  1  0  0  0  0  0999 V2000
   38.1520   31.2460   49.4200 C   0  0  0  0  0  0  0  0  0  0  0  0
   38.6110   32.5520   49.5700 C   0  0  0  0  0  0  0  0  0  0  0  0
   38.9810   33.1840   48.3860 C   0  0  0  0  0  0  0  0  0  0  0  0
   38.8880   32.5390   47.1760 N   0  0  0  0  0  0  0  0  0  0  0  0
   38.4340   31.2620   47.0820 C   0  0  0  0  0  0  0  0  0  0  0  0
   38.0620   30.6100   48.2200 N   0  0  0  0  0  0  0  0  0  0  0  0
   38.6740   33.0360   50.5180 H   0  0  0  0  0  0  0  0  0  0  0  0
   39.3520   34.2030   48.3890 H   0  0  0  0  0  0  0  0  0  0  0  0
   37.7310   30.5470   50.6730 C   0  0  1  0  0  0  0  0  0  0  0  0
   36.3450   30.1330   50.8950 C   0  0  2  0  0  0  0  0  0  0  0  0
   37.3000   29.0910   50.4010 C   0  0  0  0  0  0  0  0  0  0  0  0
   38.4870   30.6370   51.4970 H   0  0  0  0  0  0  0  0  0  0  0  0
   36.0480   30.2130   51.9800 H   0  0  0  0  0  0  0  0  0  0  0  0
   37.2190   28.7430   49.3660 H   0  0  0  0  0  0  0  0  0  0  0  0
   37.6390   28.3460   51.1430 H   0  0  0  0  0  0  0  0  0  0  0  0
   35.3840   30.6350   50.0280 O   0  0  0  0  0  0  0  0  0  0  0  0
   34.5550   29.9710   49.1870 C   0  0  0  0  0  0  0  0  0  0  0  0
   34.7650   29.9030   47.9570 O   0  0  0  0  0  0  0  0  0  0  0  0
   33.5080   29.4260   49.9270 N   0  0  0  0  0  0  0  0  0  0  0  0
   32.9170   29.8670   50.6310 H   0  0  0  0  0  0  0  0  0  0  0  0
   33.3410   28.4260   49.6960 H   0  0  0  0  0  0  0  0  0  0  0  0
   38.3700   30.6640   45.7750 C   0  0  0  0  0  0  0  0  0  0  0  0
   39.4940   30.2510   45.1190 N   0  0  0  0  0  0  0  0  0  0  0  0
   39.1660   29.7260   43.9150 C   0  0  0  0  0  0  0  0  0  0  0  0
   39.9730   29.3630   43.2990 H   0  0  0  0  0  0  0  0  0  0  0  0
   37.8280   29.8150   43.8240 N   0  0  0  0  0  0  0  0  0  0  0  0
   37.3410   29.4710   42.9780 H   0  0  0  0  0  0  0  0  0  0  0  0
   37.3410   30.3770   44.9380 N   0  0  0  0  0  0  0  0  0  0  0  0
  1  2  1  0  0  0  0
  1  9  1  0  0  0  0
  2  7  1  0  0  0  0
  3  8  1  0  0  0  0
  3  2  2  0  0  0  0
  4  3  1  0  0  0  0
  5  4  2  0  0  0  0
  5  6  1  0  0  0  0
  6  1  2  0  0  0  0
  9 10  1  0  0  0  0
  9 12  1  1  0  0  0
 10 13  1  1  0  0  0
 11  9  1  0  0  0  0
 11 10  1  0  0  0  0
 11 15  1  0  0  0  0
 14 11  1  0  0  0  0
 16 10  1  0  0  0  0
 17 19  1  0  0  0  0
 17 16  1  0  0  0  0
 18 17  2  0  0  0  0
 19 20  1  0  0  0  0
 21 19  1  0  0  0  0
 22  5  1  0  0  0  0
 23 22  1  0  0  0  0
 24 23  2  0  0  0  0
 25 24  1  0  0  0  0
 26 24  1  0  0  0  0
 26 28  1  0  0  0  0
 27 26  1  0  0  0  0
 28 22  2  0  0  0  0
M  END
>  <minimizedAffinity>
-5.30378723

>  <minimizedRMSD>
1.45412457

$$$$
