
 OpenBabel03272501033D

 35 37  0  0  0  0  0  0  0  0999 V2000
   37.0640   30.2040   46.5350 F   0  0  0  0  0  0  0  0  0  0  0  0
   36.6300   30.3240   45.2410 C   0  0  0  0  0  0  0  0  0  0  0  0
   37.3680   30.9770   44.2640 C   0  0  0  0  0  0  0  0  0  0  0  0
   36.8590   31.0500   42.9940 C   0  0  0  0  0  0  0  0  0  0  0  0
   35.6330   30.5040   42.6310 C   0  0  0  0  0  0  0  0  0  0  0  0
   34.9140   29.8570   43.6310 C   0  0  0  0  0  0  0  0  0  0  0  0
   35.3970   29.7610   44.9290 C   0  0  0  0  0  0  0  0  0  0  0  0
   37.4820   31.5730   42.2700 H   0  0  0  0  0  0  0  0  0  0  0  0
   35.2670   30.5870   41.6130 H   0  0  0  0  0  0  0  0  0  0  0  0
   33.9600   29.4140   43.4140 H   0  0  0  0  0  0  0  0  0  0  0  0
   39.9270   33.4950   44.9090 C   0  0  0  0  0  0  0  0  0  0  0  0
   41.0580   32.7600   45.2910 C   0  0  0  0  0  0  0  0  0  0  0  0
   40.9130   31.3740   45.3180 C   0  0  0  0  0  0  0  0  0  0  0  0
   39.7280   30.7970   44.9890 N   0  0  0  0  0  0  0  0  0  0  0  0
   38.6530   31.5540   44.6230 C   0  0  0  0  0  0  0  0  0  0  0  0
   38.7610   32.9080   44.5860 N   0  0  0  0  0  0  0  0  0  0  0  0
   39.9250   34.5840   44.8520 H   0  0  0  0  0  0  0  0  0  0  0  0
   41.9150   33.3430   45.5200 H   0  0  0  0  0  0  0  0  0  0  0  0
   41.7790   30.8300   45.6090 H   0  0  0  0  0  0  0  0  0  0  0  0
   34.6760   29.1260   45.8750 O   0  0  0  0  0  0  0  0  0  0  0  0
   32.9420   28.6220   47.7320 O   0  0  0  0  0  0  0  0  0  0  0  0
   33.5920   29.7760   46.9840 P   0  0  2  0  0  0  0  0  0  0  0  0
   32.3420   30.6700   46.3250 O   0  0  0  0  0  0  0  0  0  0  0  0
   31.3610   30.0260   45.5810 C   0  0  0  0  0  0  0  0  0  0  0  0
   30.1510   29.7720   46.1410 N   0  0  0  0  0  0  0  0  0  0  0  0
   29.3450   29.1420   45.2510 C   0  0  0  0  0  0  0  0  0  0  0  0
   28.3330   28.8420   45.4830 H   0  0  0  0  0  0  0  0  0  0  0  0
   30.0870   29.0100   44.1220 N   0  0  0  0  0  0  0  0  0  0  0  0
   29.7370   28.5580   43.2500 H   0  0  0  0  0  0  0  0  0  0  0  0
   31.2910   29.5350   44.3100 N   0  0  0  0  0  0  0  0  0  0  0  0
   34.3960   30.7130   48.1690 O   0  0  0  0  0  0  0  0  0  0  0  0
   34.9620   29.9490   49.1540 C   0  0  0  0  0  0  0  0  0  0  0  0
   35.5890   28.8220   48.6660 F   0  0  0  0  0  0  0  0  0  0  0  0
   35.9110   30.7260   49.7730 F   0  0  0  0  0  0  0  0  0  0  0  0
   33.9990   29.5750   50.0840 F   0  0  0  0  0  0  0  0  0  0  0  0
  2  1  1  0  0  0  0
  3 15  1  0  0  0  0
  3  2  2  0  0  0  0
  4  3  1  0  0  0  0
  5  4  2  0  0  0  0
  5  6  1  0  0  0  0
  6  7  2  0  0  0  0
  7  2  1  0  0  0  0
  7 20  1  0  0  0  0
  8  4  1  0  0  0  0
  9  5  1  0  0  0  0
 10  6  1  0  0  0  0
 11 12  1  0  0  0  0
 12 13  2  0  0  0  0
 12 18  1  0  0  0  0
 13 19  1  0  0  0  0
 14 13  1  0  0  0  0
 15 14  2  0  0  0  0
 16 15  1  0  0  0  0
 16 11  2  0  0  0  0
 17 11  1  0  0  0  0
 20 22  1  0  0  0  0
 22 21  2  1  0  0  0
 22 31  1  0  0  0  0
 23 22  1  0  0  0  0
 24 25  1  0  0  0  0
 24 23  1  0  0  0  0
 26 27  1  0  0  0  0
 26 25  2  0  0  0  0
 28 30  1  0  0  0  0
 28 26  1  0  0  0  0
 29 28  1  0  0  0  0
 30 24  2  0  0  0  0
 31 32  1  0  0  0  0
 32 34  1  0  0  0  0
 32 35  1  0  0  0  0
 33 32  1  0  0  0  0
M  END
>  <minimizedAffinity>
-4.67231941

>  <minimizedRMSD>
2.97223377

$$$$
