
 OpenBabel03272505493D

 38 42  0  0  0  0  0  0  0  0999 V2000
   36.3370   30.4170   45.9770 C   0  0  0  0  0  0  0  0  0  0  0  0
   36.8840   30.7650   47.1660 C   0  0  0  0  0  0  0  0  0  0  0  0
   36.2320   30.4480   48.3550 C   0  0  0  0  0  0  0  0  0  0  0  0
   35.0260   29.7750   48.2800 C   0  0  0  0  0  0  0  0  0  0  0  0
   34.4680   29.4190   47.0540 C   0  0  0  0  0  0  0  0  0  0  0  0
   35.1560   29.7590   45.9420 N   0  0  0  0  0  0  0  0  0  0  0  0
   37.8300   31.2940   47.2250 H   0  0  0  0  0  0  0  0  0  0  0  0
   36.6000   30.6900   49.3220 H   0  0  0  0  0  0  0  0  0  0  0  0
   34.4350   29.4800   49.1410 H   0  0  0  0  0  0  0  0  0  0  0  0
   33.2030   28.7100   46.9210 C   0  0  0  0  0  0  0  0  0  0  0  0
   32.6290   28.0970   45.8350 N   0  0  0  0  0  0  0  0  0  0  0  0
   31.4310   27.5740   46.2250 C   0  0  0  0  0  0  0  0  0  0  0  0
   31.2710   27.8610   47.5360 N   0  0  0  0  0  0  0  0  0  0  0  0
   32.3320   28.5470   47.9720 N   0  0  0  0  0  0  0  0  0  0  0  0
   30.7100   27.0270   45.6470 H   0  0  0  0  0  0  0  0  0  0  0  0
   30.1970   27.5420   48.4130 C   0  0  0  0  0  0  0  0  0  0  0  0
   30.3390   27.8040   49.7430 N   0  0  0  0  0  0  0  0  0  0  0  0
   29.1960   27.4150   50.3560 C   0  0  0  0  0  0  0  0  0  0  0  0
   28.9760   27.4840   51.4210 H   0  0  0  0  0  0  0  0  0  0  0  0
   28.3520   26.9140   49.4120 N   0  0  0  0  0  0  0  0  0  0  0  0
   27.3890   26.5270   49.5410 H   0  0  0  0  0  0  0  0  0  0  0  0
   28.9850   27.0020   48.2350 N   0  0  0  0  0  0  0  0  0  0  0  0
   37.0350   30.7550   44.6790 C   0  0  0  0  0  0  0  0  0  0  0  0
   36.7450   29.9210   43.4830 C   0  0  0  0  0  0  0  0  0  0  0  0
   36.1920   31.3220   43.5740 C   0  0  0  0  0  0  0  0  0  0  0  0
   37.5290   29.7940   42.7240 H   0  0  0  0  0  0  0  0  0  0  0  0
   35.9620   29.1380   43.6040 H   0  0  0  0  0  0  0  0  0  0  0  0
   36.6560   32.1360   42.9740 H   0  0  0  0  0  0  0  0  0  0  0  0
   35.1270   31.4910   43.7480 H   0  0  0  0  0  0  0  0  0  0  0  0
   39.7100   33.2840   44.9930 C   0  0  0  0  0  0  0  0  0  0  0  0
   40.8230   32.4980   45.3350 C   0  0  0  0  0  0  0  0  0  0  0  0
   40.6500   31.1070   45.4530 C   0  0  0  0  0  0  0  0  0  0  0  0
   39.4200   30.5820   45.2360 N   0  0  0  0  0  0  0  0  0  0  0  0
   38.3500   31.3730   44.9050 C   0  0  0  0  0  0  0  0  0  0  0  0
   38.5080   32.6960   44.7900 N   0  0  0  0  0  0  0  0  0  0  0  0
   39.8550   34.3580   44.9050 H   0  0  0  0  0  0  0  0  0  0  0  0
   41.8040   32.8780   45.5120 H   0  0  0  0  0  0  0  0  0  0  0  0
   41.4140   30.3970   45.7070 H   0  0  0  0  0  0  0  0  0  0  0  0
  1  2  1  0  0  0  0
  2  7  1  0  0  0  0
  2  3  2  0  0  0  0
  3  8  1  0  0  0  0
  4  3  1  0  0  0  0
  4  9  1  0  0  0  0
  5  4  2  0  0  0  0
  6  1  2  0  0  0  0
  6  5  1  0  0  0  0
 10  5  1  0  0  0  0
 10 14  2  0  0  0  0
 11 12  2  0  0  0  0
 11 10  1  0  0  0  0
 12 13  1  0  0  0  0
 13 14  1  0  0  0  0
 13 16  1  0  0  0  0
 15 12  1  0  0  0  0
 16 17  1  0  0  0  0
 17 18  2  0  0  0  0
 18 19  1  0  0  0  0
 20 21  1  0  0  0  0
 20 18  1  0  0  0  0
 22 16  2  0  0  0  0
 22 20  1  0  0  0  0
 23 34  1  0  0  0  0
 23  1  1  0  0  0  0
 24 25  1  0  0  0  0
 24 27  1  0  0  0  0
 24 23  1  0  0  0  0
 25 29  1  0  0  0  0
 25 23  1  0  0  0  0
 26 24  1  0  0  0  0
 28 25  1  0  0  0  0
 30 31  1  0  0  0  0
 31 32  2  0  0  0  0
 31 37  1  0  0  0  0
 32 38  1  0  0  0  0
 33 32  1  0  0  0  0
 34 33  2  0  0  0  0
 35 34  1  0  0  0  0
 35 30  2  0  0  0  0
 36 30  1  0  0  0  0
M  END
>  <minimizedAffinity>
-5.9683876

>  <minimizedRMSD>
0.922592163

$$$$
