
 OpenBabel03262521403D

 41 45  0  0  0  0  0  0  0  0999 V2000
   38.0790   31.6380   46.6250 C   0  0  0  0  0  0  0  0  0  0  0  0
   38.4500   31.7090   45.3180 N   0  0  0  0  0  0  0  0  0  0  0  0
   39.3600   32.6360   44.9130 C   0  0  0  0  0  0  0  0  0  0  0  0
   39.9270   33.5050   45.7540 N   0  0  0  0  0  0  0  0  0  0  0  0
   39.5930   33.4780   47.0680 C   0  0  0  0  0  0  0  0  0  0  0  0
   40.1640   34.3840   47.9130 C   0  0  0  0  0  0  0  0  0  0  0  0
   39.8320   34.3940   49.2420 C   0  0  0  0  0  0  0  0  0  0  0  0
   38.9050   33.4630   49.7160 C   0  0  0  0  0  0  0  0  0  0  0  0
   38.3510   32.5590   48.8250 C   0  0  0  0  0  0  0  0  0  0  0  0
   38.6640   32.5360   47.5080 C   0  0  0  0  0  0  0  0  0  0  0  0
   39.5470   32.5640   43.8520 H   0  0  0  0  0  0  0  0  0  0  0  0
   40.8710   35.0710   47.4880 H   0  0  0  0  0  0  0  0  0  0  0  0
   40.3420   35.1560   49.8200 H   0  0  0  0  0  0  0  0  0  0  0  0
   38.7820   33.6300   50.7680 H   0  0  0  0  0  0  0  0  0  0  0  0
   37.4340   31.6660   49.5480 C   0  0  0  0  0  0  0  0  0  0  0  0
   37.9040   30.7780   50.3990 N   0  0  0  0  0  0  0  0  0  0  0  0
   37.0360   29.9760   50.9790 C   0  0  0  0  0  0  0  0  0  0  0  0
   37.2110   29.1920   51.6960 H   0  0  0  0  0  0  0  0  0  0  0  0
   35.8830   30.3550   50.4760 N   0  0  0  0  0  0  0  0  0  0  0  0
   34.9070   30.0290   50.6220 H   0  0  0  0  0  0  0  0  0  0  0  0
   36.1900   31.2970   49.6930 N   0  0  0  0  0  0  0  0  0  0  0  0
   36.9050   30.5170   47.2690 S   0  0  0  0  0  0  0  0  0  0  0  0
   34.0710   29.9960   47.8320 F   0  0  0  0  0  0  0  0  0  0  0  0
   34.3530   29.8250   46.5040 C   0  0  0  0  0  0  0  0  0  0  0  0
   33.3670   29.4500   45.6060 C   0  0  0  0  0  0  0  0  0  0  0  0
   33.7100   29.2910   44.2500 C   0  0  0  0  0  0  0  0  0  0  0  0
   35.0190   29.5060   43.8120 C   0  0  0  0  0  0  0  0  0  0  0  0
   35.9440   29.8790   44.7700 C   0  0  0  0  0  0  0  0  0  0  0  0
   35.6480   30.0440   46.1010 C   0  0  0  0  0  0  0  0  0  0  0  0
   32.9020   28.9950   43.5860 H   0  0  0  0  0  0  0  0  0  0  0  0
   35.2410   29.3750   42.7720 H   0  0  0  0  0  0  0  0  0  0  0  0
   36.9300   30.0280   44.3560 H   0  0  0  0  0  0  0  0  0  0  0  0
   31.9330   28.1530   46.9630 C   0  0  0  0  0  0  0  0  0  0  0  0
   32.0590   29.2450   46.1100 C   0  0  0  0  0  0  0  0  0  0  0  0
   30.9120   29.9830   45.8610 C   0  0  0  0  0  0  0  0  0  0  0  0
   29.7450   29.5960   46.4620 N   0  0  0  0  0  0  0  0  0  0  0  0
   29.6720   28.5510   47.2650 C   0  0  0  0  0  0  0  0  0  0  0  0
   30.7510   27.8110   47.5330 N   0  0  0  0  0  0  0  0  0  0  0  0
   32.7550   27.4790   47.2490 H   0  0  0  0  0  0  0  0  0  0  0  0
   31.0350   30.8100   45.2070 H   0  0  0  0  0  0  0  0  0  0  0  0
   28.6910   28.3290   47.6930 H   0  0  0  0  0  0  0  0  0  0  0  0
  1 22  1  0  0  0  0
  1 10  1  0  0  0  0
  2  1  2  0  0  0  0
  3  2  1  0  0  0  0
  3  4  2  0  0  0  0
  4  5  1  0  0  0  0
  5 10  2  0  0  0  0
  5  6  1  0  0  0  0
  6  7  2  0  0  0  0
  7  8  1  0  0  0  0
  7 13  1  0  0  0  0
  8 14  1  0  0  0  0
  9 15  1  0  0  0  0
  9  8  2  0  0  0  0
 10  9  1  0  0  0  0
 11  3  1  0  0  0  0
 12  6  1  0  0  0  0
 15 21  2  0  0  0  0
 15 16  1  0  0  0  0
 16 17  2  0  0  0  0
 17 18  1  0  0  0  0
 19 20  1  0  0  0  0
 19 17  1  0  0  0  0
 21 19  1  0  0  0  0
 24 23  1  0  0  0  0
 25 34  1  0  0  0  0
 25 24  2  0  0  0  0
 26 25  1  0  0  0  0
 27 26  2  0  0  0  0
 27 28  1  0  0  0  0
 28 29  2  0  0  0  0
 29 24  1  0  0  0  0
 29 22  1  0  0  0  0
 30 26  1  0  0  0  0
 31 27  1  0  0  0  0
 32 28  1  0  0  0  0
 33 39  1  0  0  0  0
 33 38  1  0  0  0  0
 34 33  2  0  0  0  0
 35 34  1  0  0  0  0
 35 36  2  0  0  0  0
 36 37  1  0  0  0  0
 37 38  2  0  0  0  0
 37 41  1  0  0  0  0
 40 35  1  0  0  0  0
M  END
>  <minimizedAffinity>
-6.55961752

>  <minimizedRMSD>
1.29093301

$$$$
