
 OpenBabel03272509183D

 31 33  0  0  0  0  0  0  0  0999 V2000
   38.0480   31.2730   47.7810 C   0  0  0  0  0  0  0  0  0  0  0  0
   37.0840   31.2970   48.7700 C   0  0  0  0  0  0  0  0  0  0  0  0
   37.1650   32.4190   49.6180 C   0  0  0  0  0  0  0  0  0  0  0  0
   38.1420   33.3980   49.4500 C   0  0  0  0  0  0  0  0  0  0  0  0
   39.0680   33.2830   48.4230 C   0  0  0  0  0  0  0  0  0  0  0  0
   39.0130   32.1900   47.5710 C   0  0  0  0  0  0  0  0  0  0  0  0
   36.4480   32.5000   50.4050 H   0  0  0  0  0  0  0  0  0  0  0  0
   38.1780   34.2490   50.1180 H   0  0  0  0  0  0  0  0  0  0  0  0
   39.8420   34.0250   48.2610 H   0  0  0  0  0  0  0  0  0  0  0  0
   34.9320   30.3180   48.1370 C   0  0  0  0  0  0  0  0  0  0  0  0
   36.0810   30.2950   48.9470 C   0  0  0  0  0  0  0  0  0  0  0  0
   36.2020   29.2870   49.9060 C   0  0  0  0  0  0  0  0  0  0  0  0
   35.1880   28.3800   49.9940 N   0  0  0  0  0  0  0  0  0  0  0  0
   34.0990   28.4250   49.2050 C   0  0  0  0  0  0  0  0  0  0  0  0
   33.9730   29.3850   48.2850 N   0  0  0  0  0  0  0  0  0  0  0  0
   34.8260   31.0990   47.3870 H   0  0  0  0  0  0  0  0  0  0  0  0
   33.3610   27.6560   49.3640 H   0  0  0  0  0  0  0  0  0  0  0  0
   37.3940   29.2260   50.7810 C   0  0  0  0  0  0  0  0  0  0  0  0
   37.6990   28.1930   51.0520 H   0  0  0  0  0  0  0  0  0  0  0  0
   38.2080   29.8060   50.2800 H   0  0  0  0  0  0  0  0  0  0  0  0
   37.1390   29.8290   51.6890 H   0  0  0  0  0  0  0  0  0  0  0  0
   38.0460   30.1910   46.8890 O   0  0  0  0  0  0  0  0  0  0  0  0
   37.2550   29.9280   46.3200 H   0  0  0  0  0  0  0  0  0  0  0  0
   39.9550   32.0910   46.5440 O   0  0  0  0  0  0  0  0  0  0  0  0
   39.4810   32.3360   45.2620 C   0  0  0  0  0  0  0  0  0  0  0  0
   38.2340   32.5850   44.8220 N   0  0  0  0  0  0  0  0  0  0  0  0
   38.3010   32.7530   43.4880 C   0  0  0  0  0  0  0  0  0  0  0  0
   37.4560   32.9680   42.8440 H   0  0  0  0  0  0  0  0  0  0  0  0
   39.5820   32.6080   43.1040 N   0  0  0  0  0  0  0  0  0  0  0  0
   39.9400   32.6850   42.1250 H   0  0  0  0  0  0  0  0  0  0  0  0
   40.2750   32.3570   44.1940 N   0  0  0  0  0  0  0  0  0  0  0  0
  1  2  1  0  0  0  0
  2 11  1  0  0  0  0
  2  3  2  0  0  0  0
  3  7  1  0  0  0  0
  4  3  1  0  0  0  0
  4  8  1  0  0  0  0
  5  4  2  0  0  0  0
  6  1  2  0  0  0  0
  6  5  1  0  0  0  0
  9  5  1  0  0  0  0
 10 15  2  0  0  0  0
 10 11  1  0  0  0  0
 11 12  2  0  0  0  0
 12 13  1  0  0  0  0
 12 18  1  0  0  0  0
 14 17  1  0  0  0  0
 14 13  2  0  0  0  0
 15 14  1  0  0  0  0
 16 10  1  0  0  0  0
 18 19  1  0  0  0  0
 18 21  1  0  0  0  0
 20 18  1  0  0  0  0
 22  1  1  0  0  0  0
 23 22  1  0  0  0  0
 24  6  1  0  0  0  0
 25 24  1  0  0  0  0
 26 25  1  0  0  0  0
 27 26  2  0  0  0  0
 28 27  1  0  0  0  0
 29 27  1  0  0  0  0
 29 31  1  0  0  0  0
 30 29  1  0  0  0  0
 31 25  2  0  0  0  0
M  END
>  <minimizedAffinity>
-6.35490656

>  <minimizedRMSD>
0.244139597

$$$$
