
 OpenBabel03272505093D

 27 29  0  0  0  0  0  0  0  0999 V2000
   36.3820   30.9650   45.2860 Cl  0  0  0  0  0  0  0  0  0  0  0  0
   36.5910   30.5840   46.9770 C   0  0  0  0  0  0  0  0  0  0  0  0
   37.8210   30.8230   47.5100 C   0  0  0  0  0  0  0  0  0  0  0  0
   38.0080   30.5260   48.8610 C   0  0  0  0  0  0  0  0  0  0  0  0
   36.9650   30.0110   49.5990 C   0  0  0  0  0  0  0  0  0  0  0  0
   35.7550   29.7970   48.9960 C   0  0  0  0  0  0  0  0  0  0  0  0
   35.5150   30.0670   47.6840 C   0  0  0  0  0  0  0  0  0  0  0  0
   38.9730   30.7050   49.3070 H   0  0  0  0  0  0  0  0  0  0  0  0
   37.1430   29.7920   50.6430 H   0  0  0  0  0  0  0  0  0  0  0  0
   34.9420   29.3920   49.5870 H   0  0  0  0  0  0  0  0  0  0  0  0
   40.1260   33.2530   46.0480 C   0  0  0  0  0  0  0  0  0  0  0  0
   40.9550   32.4730   45.2070 C   0  0  0  0  0  0  0  0  0  0  0  0
   40.6960   31.0990   45.1600 C   0  0  0  0  0  0  0  0  0  0  0  0
   39.6790   30.5910   45.9130 N   0  0  0  0  0  0  0  0  0  0  0  0
   38.9200   31.3760   46.6970 C   0  0  0  0  0  0  0  0  0  0  0  0
   39.1540   32.6810   46.7510 N   0  0  0  0  0  0  0  0  0  0  0  0
   40.2860   34.3090   46.1150 H   0  0  0  0  0  0  0  0  0  0  0  0
   41.7500   32.9370   44.6310 H   0  0  0  0  0  0  0  0  0  0  0  0
   41.3090   30.4670   44.5280 H   0  0  0  0  0  0  0  0  0  0  0  0
   33.9510   29.8050   46.8520 S   0  0  0  0  0  0  0  0  0  0  0  0
   33.2080   28.2730   47.3890 C   0  0  0  0  0  0  0  0  0  0  0  0
   33.8940   27.1560   47.0830 N   0  0  0  0  0  0  0  0  0  0  0  0
   33.2580   26.0630   47.5280 C   0  0  0  0  0  0  0  0  0  0  0  0
   33.5290   25.0160   47.4520 H   0  0  0  0  0  0  0  0  0  0  0  0
   32.1450   26.5160   48.1260 N   0  0  0  0  0  0  0  0  0  0  0  0
   31.3600   26.0190   48.6080 H   0  0  0  0  0  0  0  0  0  0  0  0
   32.0920   27.8560   48.0540 N   0  0  0  0  0  0  0  0  0  0  0  0
  1  2  1  0  0  0  0
  2  3  2  0  0  0  0
  2  7  1  0  0  0  0
  3  4  1  0  0  0  0
  4  8  1  0  0  0  0
  4  5  2  0  0  0  0
  5  9  1  0  0  0  0
  6 10  1  0  0  0  0
  6  5  1  0  0  0  0
  7  6  2  0  0  0  0
 11 17  1  0  0  0  0
 11 16  1  0  0  0  0
 12 11  2  0  0  0  0
 13 12  1  0  0  0  0
 13 14  2  0  0  0  0
 14 15  1  0  0  0  0
 15 16  2  0  0  0  0
 15  3  1  0  0  0  0
 18 12  1  0  0  0  0
 19 13  1  0  0  0  0
 20 21  1  0  0  0  0
 20  7  1  0  0  0  0
 21 27  2  0  0  0  0
 22 21  1  0  0  0  0
 22 23  2  0  0  0  0
 23 25  1  0  0  0  0
 24 23  1  0  0  0  0
 25 26  1  0  0  0  0
 27 25  1  0  0  0  0
M  END
>  <minimizedAffinity>
-5.21884918

>  <minimizedRMSD>
1.46340096

$$$$
