
 OpenBabel03272502273D

 38 41  0  0  0  0  0  0  0  0999 V2000
   36.6810   25.2290   31.7250 C   0  0  0  0  0  0  0  0  0  0  0  0
   37.3270   24.4320   32.6780 C   0  0  0  0  0  0  0  0  0  0  0  0
   37.7640   25.0520   33.8400 C   0  0  0  0  0  0  0  0  0  0  0  0
   37.5300   26.3700   33.9570 N   0  0  0  0  0  0  0  0  0  0  0  0
   36.9090   27.1190   33.0330 C   0  0  0  0  0  0  0  0  0  0  0  0
   36.4810   26.5360   31.9070 N   0  0  0  0  0  0  0  0  0  0  0  0
   36.3500   24.7220   30.8280 H   0  0  0  0  0  0  0  0  0  0  0  0
   37.5090   23.3840   32.5780 H   0  0  0  0  0  0  0  0  0  0  0  0
   38.4360   24.3520   34.9050 C   0  0  0  0  0  0  0  0  0  0  0  0
   39.5510   23.5640   34.6470 C   0  0  0  0  0  0  0  0  0  0  0  0
   40.2300   22.8830   35.6240 C   0  0  0  0  0  0  0  0  0  0  0  0
   39.8030   22.9750   36.9000 N   0  0  0  0  0  0  0  0  0  0  0  0
   38.7230   23.7390   37.1400 C   0  0  0  0  0  0  0  0  0  0  0  0
   38.0500   24.4100   36.2010 N   0  0  0  0  0  0  0  0  0  0  0  0
   39.9320   23.4620   33.6300 H   0  0  0  0  0  0  0  0  0  0  0  0
   41.0960   22.2790   35.3810 H   0  0  0  0  0  0  0  0  0  0  0  0
   38.2270   23.8600   38.5410 C   0  0  0  0  0  0  0  0  0  0  0  0
   39.3280   23.7250   39.3850 F   0  0  0  0  0  0  0  0  0  0  0  0
   37.5810   25.0630   38.7250 F   0  0  0  0  0  0  0  0  0  0  0  0
   37.3680   22.8390   38.8630 F   0  0  0  0  0  0  0  0  0  0  0  0
   36.7530   28.4660   33.3230 O   0  0  0  0  0  0  0  0  0  0  0  0
   33.2450   29.4800   32.9260 N   0  0  0  0  0  0  0  0  0  0  0  0
   34.3810   28.8260   32.6440 C   0  0  0  0  0  0  0  0  0  0  0  0
   35.5000   29.0220   33.4230 C   0  0  0  0  0  0  0  0  0  0  0  0
   35.4120   29.9120   34.5020 C   0  0  0  0  0  0  0  0  0  0  0  0
   36.3010   30.2430   35.3410 O   0  0  0  0  0  0  0  0  0  0  0  0
   34.2300   30.5430   34.7310 N   0  0  0  0  0  0  0  0  0  0  0  0
   33.1610   30.3290   33.9530 C   0  0  0  0  0  0  0  0  0  0  0  0
   32.0490   30.9050   34.1450 O   0  0  0  0  0  0  0  0  0  0  0  0
   32.4690   29.2550   32.2710 H   0  0  0  0  0  0  0  0  0  0  0  0
   34.5340   28.1310   31.8440 H   0  0  0  0  0  0  0  0  0  0  0  0
   34.0240   31.4660   35.7920 C   0  0  0  0  0  0  0  0  0  0  0  0
   33.0480   32.2760   36.2480 N   0  0  0  0  0  0  0  0  0  0  0  0
   33.5110   32.9150   37.3460 C   0  0  0  0  0  0  0  0  0  0  0  0
   32.8560   33.6010   37.8350 H   0  0  0  0  0  0  0  0  0  0  0  0
   34.7710   32.4930   37.5590 N   0  0  0  0  0  0  0  0  0  0  0  0
   35.2940   32.8800   38.3690 H   0  0  0  0  0  0  0  0  0  0  0  0
   35.0940   31.6130   36.6220 N   0  0  0  0  0  0  0  0  0  0  0  0
  1  6  2  0  0  0  0
  1  2  1  0  0  0  0
  2  3  2  0  0  0  0
  3  4  1  0  0  0  0
  3  9  1  0  0  0  0
  5 21  1  0  0  0  0
  5  4  2  0  0  0  0
  6  5  1  0  0  0  0
  7  1  1  0  0  0  0
  8  2  1  0  0  0  0
  9 14  1  0  0  0  0
 10  9  2  0  0  0  0
 10 11  1  0  0  0  0
 11 12  2  0  0  0  0
 12 13  1  0  0  0  0
 13 17  1  0  0  0  0
 14 13  2  0  0  0  0
 15 10  1  0  0  0  0
 16 11  1  0  0  0  0
 17 19  1  0  0  0  0
 17 20  1  0  0  0  0
 17 18  1  0  0  0  0
 21 24  1  0  0  0  0
 22 28  1  0  0  0  0
 23 22  1  0  0  0  0
 23 24  2  0  0  0  0
 24 25  1  0  0  0  0
 25 27  1  0  0  0  0
 25 26  2  0  0  0  0
 27 32  1  0  0  0  0
 28 29  2  0  0  0  0
 28 27  1  0  0  0  0
 30 22  1  0  0  0  0
 31 23  1  0  0  0  0
 32 33  1  0  0  0  0
 32 38  2  0  0  0  0
 33 34  2  0  0  0  0
 34 36  1  0  0  0  0
 34 35  1  0  0  0  0
 36 37  1  0  0  0  0
 38 36  1  0  0  0  0
M  END
>  <minimizedAffinity>
-7.14972448

$$$$

 OpenBabel03272502273D

 38 41  0  0  0  0  0  0  0  0999 V2000
   39.2090   27.1710   32.0810 C   0  0  0  0  0  0  0  0  0  0  0  0
   39.3220   26.0480   32.9100 C   0  0  0  0  0  0  0  0  0  0  0  0
   38.1810   25.6300   33.5790 C   0  0  0  0  0  0  0  0  0  0  0  0
   37.0560   26.3370   33.3760 N   0  0  0  0  0  0  0  0  0  0  0  0
   36.9650   27.4120   32.5780 C   0  0  0  0  0  0  0  0  0  0  0  0
   38.0580   27.8280   31.9250 N   0  0  0  0  0  0  0  0  0  0  0  0
   40.1130   27.4780   31.5710 H   0  0  0  0  0  0  0  0  0  0  0  0
   40.2190   25.4900   33.0660 H   0  0  0  0  0  0  0  0  0  0  0  0
   38.1530   24.4870   34.4560 C   0  0  0  0  0  0  0  0  0  0  0  0
   38.0350   23.1990   33.9460 C   0  0  0  0  0  0  0  0  0  0  0  0
   38.0100   22.0800   34.7360 C   0  0  0  0  0  0  0  0  0  0  0  0
   38.1010   22.2230   36.0750 N   0  0  0  0  0  0  0  0  0  0  0  0
   38.2140   23.4730   36.5590 C   0  0  0  0  0  0  0  0  0  0  0  0
   38.2410   24.5740   35.8040 N   0  0  0  0  0  0  0  0  0  0  0  0
   37.9590   23.0370   32.8700 H   0  0  0  0  0  0  0  0  0  0  0  0
   37.9170   21.0930   34.2990 H   0  0  0  0  0  0  0  0  0  0  0  0
   38.3160   23.6630   38.0340 C   0  0  0  0  0  0  0  0  0  0  0  0
   37.2970   22.9150   38.6220 F   0  0  0  0  0  0  0  0  0  0  0  0
   39.5610   23.2830   38.4870 F   0  0  0  0  0  0  0  0  0  0  0  0
   38.0910   24.9680   38.3930 F   0  0  0  0  0  0  0  0  0  0  0  0
   35.7230   28.0190   32.4880 O   0  0  0  0  0  0  0  0  0  0  0  0
   35.4930   31.5210   31.4030 N   0  0  0  0  0  0  0  0  0  0  0  0
   35.6100   30.1920   31.2690 C   0  0  0  0  0  0  0  0  0  0  0  0
   35.6160   29.3860   32.3860 C   0  0  0  0  0  0  0  0  0  0  0  0
   35.4980   29.9910   33.6450 C   0  0  0  0  0  0  0  0  0  0  0  0
   35.4800   29.4560   34.7920 O   0  0  0  0  0  0  0  0  0  0  0  0
   35.3830   31.3450   33.7090 N   0  0  0  0  0  0  0  0  0  0  0  0
   35.3800   32.0980   32.6010 C   0  0  0  0  0  0  0  0  0  0  0  0
   35.2750   33.3610   32.6340 O   0  0  0  0  0  0  0  0  0  0  0  0
   35.5010   32.0260   30.4930 H   0  0  0  0  0  0  0  0  0  0  0  0
   35.7040   29.6500   30.3510 H   0  0  0  0  0  0  0  0  0  0  0  0
   35.2590   32.0670   34.9250 C   0  0  0  0  0  0  0  0  0  0  0  0
   35.1880   33.3500   35.3340 N   0  0  0  0  0  0  0  0  0  0  0  0
   35.0710   33.3560   36.6820 C   0  0  0  0  0  0  0  0  0  0  0  0
   35.0040   34.3020   37.1700 H   0  0  0  0  0  0  0  0  0  0  0  0
   35.0690   32.0750   37.0930 N   0  0  0  0  0  0  0  0  0  0  0  0
   34.9860   31.8810   38.1110 H   0  0  0  0  0  0  0  0  0  0  0  0
   35.1820   31.2830   36.0370 N   0  0  0  0  0  0  0  0  0  0  0  0
  1  2  1  0  0  0  0
  2  8  1  0  0  0  0
  2  3  2  0  0  0  0
  3  9  1  0  0  0  0
  4  3  1  0  0  0  0
  5  4  2  0  0  0  0
  6  1  2  0  0  0  0
  6  5  1  0  0  0  0
  7  1  1  0  0  0  0
  9 14  1  0  0  0  0
 10  9  2  0  0  0  0
 10 11  1  0  0  0  0
 11 12  2  0  0  0  0
 12 13  1  0  0  0  0
 13 17  1  0  0  0  0
 14 13  2  0  0  0  0
 15 10  1  0  0  0  0
 16 11  1  0  0  0  0
 17 20  1  0  0  0  0
 17 19  1  0  0  0  0
 17 18  1  0  0  0  0
 21  5  1  0  0  0  0
 22 28  1  0  0  0  0
 23 22  1  0  0  0  0
 23 24  2  0  0  0  0
 24 21  1  0  0  0  0
 24 25  1  0  0  0  0
 25 27  1  0  0  0  0
 25 26  2  0  0  0  0
 27 32  1  0  0  0  0
 28 29  2  0  0  0  0
 28 27  1  0  0  0  0
 30 22  1  0  0  0  0
 31 23  1  0  0  0  0
 32 33  1  0  0  0  0
 32 38  2  0  0  0  0
 33 34  2  0  0  0  0
 34 36  1  0  0  0  0
 34 35  1  0  0  0  0
 36 37  1  0  0  0  0
 38 36  1  0  0  0  0
M  END
>  <minimizedAffinity>
-6.78250313

$$$$

 OpenBabel03272502273D

 38 41  0  0  0  0  0  0  0  0999 V2000
   35.7990   25.8230   31.3460 C   0  0  0  0  0  0  0  0  0  0  0  0
   35.4710   24.4840   31.0990 C   0  0  0  0  0  0  0  0  0  0  0  0
   36.2210   23.5120   31.7450 C   0  0  0  0  0  0  0  0  0  0  0  0
   37.2050   23.9350   32.5570 N   0  0  0  0  0  0  0  0  0  0  0  0
   37.5070   25.2230   32.7820 C   0  0  0  0  0  0  0  0  0  0  0  0
   36.7920   26.1730   32.1670 N   0  0  0  0  0  0  0  0  0  0  0  0
   35.2000   26.5620   30.8310 H   0  0  0  0  0  0  0  0  0  0  0  0
   34.6870   24.1560   30.4520 H   0  0  0  0  0  0  0  0  0  0  0  0
   35.9870   22.0990   31.5880 C   0  0  0  0  0  0  0  0  0  0  0  0
   35.0300   21.4460   32.3540 C   0  0  0  0  0  0  0  0  0  0  0  0
   34.7650   20.1060   32.2400 C   0  0  0  0  0  0  0  0  0  0  0  0
   35.4610   19.3760   31.3440 N   0  0  0  0  0  0  0  0  0  0  0  0
   36.3860   20.0170   30.6070 C   0  0  0  0  0  0  0  0  0  0  0  0
   36.6570   21.3220   30.7050 N   0  0  0  0  0  0  0  0  0  0  0  0
   34.4430   21.9960   33.0910 H   0  0  0  0  0  0  0  0  0  0  0  0
   34.0100   19.6340   32.8570 H   0  0  0  0  0  0  0  0  0  0  0  0
   37.1730   19.2380   29.6090 C   0  0  0  0  0  0  0  0  0  0  0  0
   36.2740   18.7450   28.6640 F   0  0  0  0  0  0  0  0  0  0  0  0
   38.1450   20.0280   29.0330 F   0  0  0  0  0  0  0  0  0  0  0  0
   37.7700   18.1420   30.1790 F   0  0  0  0  0  0  0  0  0  0  0  0
   38.5560   25.4750   33.6530 O   0  0  0  0  0  0  0  0  0  0  0  0
   37.9170   24.5390   37.1470 N   0  0  0  0  0  0  0  0  0  0  0  0
   37.7280   25.1860   35.9880 C   0  0  0  0  0  0  0  0  0  0  0  0
   38.5610   24.9380   34.9180 C   0  0  0  0  0  0  0  0  0  0  0  0
   39.5930   24.0040   35.0800 C   0  0  0  0  0  0  0  0  0  0  0  0
   40.4670   23.6240   34.2460 O   0  0  0  0  0  0  0  0  0  0  0  0
   39.7280   23.3850   36.2830 N   0  0  0  0  0  0  0  0  0  0  0  0
   38.9000   23.6500   37.3020 C   0  0  0  0  0  0  0  0  0  0  0  0
   39.0050   23.0870   38.4330 O   0  0  0  0  0  0  0  0  0  0  0  0
   37.2300   24.8070   37.8810 H   0  0  0  0  0  0  0  0  0  0  0  0
   36.9690   25.9100   35.7780 H   0  0  0  0  0  0  0  0  0  0  0  0
   40.7360   22.4230   36.5650 C   0  0  0  0  0  0  0  0  0  0  0  0
   41.1710   21.6950   37.6120 N   0  0  0  0  0  0  0  0  0  0  0  0
   42.2120   20.9390   37.1960 C   0  0  0  0  0  0  0  0  0  0  0  0
   42.6780   20.2980   37.9100 H   0  0  0  0  0  0  0  0  0  0  0  0
   42.4090   21.2060   35.8910 N   0  0  0  0  0  0  0  0  0  0  0  0
   43.1770   20.7110   35.3940 H   0  0  0  0  0  0  0  0  0  0  0  0
   41.5200   22.1050   35.4960 N   0  0  0  0  0  0  0  0  0  0  0  0
  1  6  1  0  0  0  0
  2  1  2  0  0  0  0
  2  3  1  0  0  0  0
  3  4  2  0  0  0  0
  4  5  1  0  0  0  0
  5 21  1  0  0  0  0
  6  5  2  0  0  0  0
  7  1  1  0  0  0  0
  8  2  1  0  0  0  0
  9  3  1  0  0  0  0
  9 10  1  0  0  0  0
 10 15  1  0  0  0  0
 11 10  2  0  0  0  0
 11 16  1  0  0  0  0
 12 11  1  0  0  0  0
 13 14  1  0  0  0  0
 13 12  2  0  0  0  0
 14  9  2  0  0  0  0
 17 20  1  0  0  0  0
 17 13  1  0  0  0  0
 18 17  1  0  0  0  0
 19 17  1  0  0  0  0
 21 24  1  0  0  0  0
 22 28  1  0  0  0  0
 22 30  1  0  0  0  0
 23 22  1  0  0  0  0
 24 25  1  0  0  0  0
 24 23  2  0  0  0  0
 25 27  1  0  0  0  0
 26 25  2  0  0  0  0
 27 32  1  0  0  0  0
 27 28  1  0  0  0  0
 28 29  2  0  0  0  0
 31 23  1  0  0  0  0
 32 33  1  0  0  0  0
 34 33  2  0  0  0  0
 34 35  1  0  0  0  0
 36 34  1  0  0  0  0
 37 36  1  0  0  0  0
 38 36  1  0  0  0  0
 38 32  2  0  0  0  0
M  END
>  <minimizedAffinity>
-6.72126198

$$$$

 OpenBabel03272502273D

 38 41  0  0  0  0  0  0  0  0999 V2000
   35.9680   26.5140   31.5860 C   0  0  0  0  0  0  0  0  0  0  0  0
   35.9600   25.1830   31.1490 C   0  0  0  0  0  0  0  0  0  0  0  0
   36.6860   24.2630   31.8910 C   0  0  0  0  0  0  0  0  0  0  0  0
   37.3400   24.7230   32.9710 N   0  0  0  0  0  0  0  0  0  0  0  0
   37.3370   26.0030   33.3750 C   0  0  0  0  0  0  0  0  0  0  0  0
   36.6410   26.9030   32.6710 N   0  0  0  0  0  0  0  0  0  0  0  0
   35.3940   27.2130   30.9910 H   0  0  0  0  0  0  0  0  0  0  0  0
   35.4370   24.8250   30.2890 H   0  0  0  0  0  0  0  0  0  0  0  0
   36.7590   22.8620   31.5600 C   0  0  0  0  0  0  0  0  0  0  0  0
   37.7470   22.3820   30.7080 C   0  0  0  0  0  0  0  0  0  0  0  0
   37.8640   21.0600   30.3660 C   0  0  0  0  0  0  0  0  0  0  0  0
   36.9830   20.1740   30.8740 N   0  0  0  0  0  0  0  0  0  0  0  0
   36.0300   20.6480   31.6970 C   0  0  0  0  0  0  0  0  0  0  0  0
   35.9020   21.9320   32.0410 N   0  0  0  0  0  0  0  0  0  0  0  0
   38.4810   23.0630   30.2740 H   0  0  0  0  0  0  0  0  0  0  0  0
   38.6490   20.7260   29.6980 H   0  0  0  0  0  0  0  0  0  0  0  0
   35.0410   19.6930   32.2740 C   0  0  0  0  0  0  0  0  0  0  0  0
   35.2460   19.6650   33.6530 F   0  0  0  0  0  0  0  0  0  0  0  0
   33.7560   20.0710   31.9510 F   0  0  0  0  0  0  0  0  0  0  0  0
   35.2540   18.4130   31.8280 F   0  0  0  0  0  0  0  0  0  0  0  0
   38.0690   26.2990   34.5150 O   0  0  0  0  0  0  0  0  0  0  0  0
   41.7310   26.1510   34.2720 N   0  0  0  0  0  0  0  0  0  0  0  0
   40.4990   26.6410   34.0730 C   0  0  0  0  0  0  0  0  0  0  0  0
   39.4050   25.9840   34.5920 C   0  0  0  0  0  0  0  0  0  0  0  0
   39.6190   24.8080   35.3220 C   0  0  0  0  0  0  0  0  0  0  0  0
   38.7750   24.0490   35.8820 O   0  0  0  0  0  0  0  0  0  0  0  0
   40.8940   24.3660   35.4860 N   0  0  0  0  0  0  0  0  0  0  0  0
   41.9360   25.0300   34.9680 C   0  0  0  0  0  0  0  0  0  0  0  0
   43.1330   24.6390   35.1050 O   0  0  0  0  0  0  0  0  0  0  0  0
   42.4770   26.7290   33.8350 H   0  0  0  0  0  0  0  0  0  0  0  0
   40.2470   27.5290   33.5310 H   0  0  0  0  0  0  0  0  0  0  0  0
   41.2330   23.1880   36.2040 C   0  0  0  0  0  0  0  0  0  0  0  0
   42.3330   22.4640   36.4960 N   0  0  0  0  0  0  0  0  0  0  0  0
   41.9550   21.4100   37.2540 C   0  0  0  0  0  0  0  0  0  0  0  0
   42.7120   20.7310   37.5730 H   0  0  0  0  0  0  0  0  0  0  0  0
   40.6220   21.4930   37.4250 N   0  0  0  0  0  0  0  0  0  0  0  0
   40.1480   20.7590   37.9890 H   0  0  0  0  0  0  0  0  0  0  0  0
   40.1720   22.5670   36.7930 N   0  0  0  0  0  0  0  0  0  0  0  0
  1  6  1  0  0  0  0
  2  1  2  0  0  0  0
  2  3  1  0  0  0  0
  3  4  2  0  0  0  0
  4  5  1  0  0  0  0
  5 21  1  0  0  0  0
  6  5  2  0  0  0  0
  7  1  1  0  0  0  0
  8  2  1  0  0  0  0
  9  3  1  0  0  0  0
  9 14  1  0  0  0  0
 10  9  2  0  0  0  0
 11 10  1  0  0  0  0
 11 12  2  0  0  0  0
 12 13  1  0  0  0  0
 13 14  2  0  0  0  0
 13 17  1  0  0  0  0
 15 10  1  0  0  0  0
 16 11  1  0  0  0  0
 17 18  1  0  0  0  0
 19 17  1  0  0  0  0
 20 17  1  0  0  0  0
 21 24  1  0  0  0  0
 22 28  1  0  0  0  0
 23 22  1  0  0  0  0
 23 24  2  0  0  0  0
 24 25  1  0  0  0  0
 25 27  1  0  0  0  0
 25 26  2  0  0  0  0
 27 32  1  0  0  0  0
 28 29  2  0  0  0  0
 28 27  1  0  0  0  0
 30 22  1  0  0  0  0
 31 23  1  0  0  0  0
 32 33  1  0  0  0  0
 32 38  2  0  0  0  0
 33 34  2  0  0  0  0
 34 36  1  0  0  0  0
 34 35  1  0  0  0  0
 36 37  1  0  0  0  0
 38 36  1  0  0  0  0
M  END
>  <minimizedAffinity>
-6.70144796

$$$$

 OpenBabel03272502273D

 38 41  0  0  0  0  0  0  0  0999 V2000
   36.3720   28.9110   31.5130 C   0  0  0  0  0  0  0  0  0  0  0  0
   35.8000   29.8220   32.4090 C   0  0  0  0  0  0  0  0  0  0  0  0
   35.7650   29.4650   33.7490 C   0  0  0  0  0  0  0  0  0  0  0  0
   36.2850   28.2700   34.0800 N   0  0  0  0  0  0  0  0  0  0  0  0
   36.8290   27.4080   33.2080 C   0  0  0  0  0  0  0  0  0  0  0  0
   36.8700   27.7380   31.9110 N   0  0  0  0  0  0  0  0  0  0  0  0
   36.3870   29.2120   30.4740 H   0  0  0  0  0  0  0  0  0  0  0  0
   35.3890   30.7700   32.1390 H   0  0  0  0  0  0  0  0  0  0  0  0
   35.2130   30.3090   34.7790 C   0  0  0  0  0  0  0  0  0  0  0  0
   35.9670   31.3300   35.3440 C   0  0  0  0  0  0  0  0  0  0  0  0
   35.4880   32.1640   36.3200 C   0  0  0  0  0  0  0  0  0  0  0  0
   34.2250   31.9930   36.7620 N   0  0  0  0  0  0  0  0  0  0  0  0
   33.5030   31.0020   36.2110 C   0  0  0  0  0  0  0  0  0  0  0  0
   33.9540   30.1810   35.2580 N   0  0  0  0  0  0  0  0  0  0  0  0
   36.9930   31.5040   35.0160 H   0  0  0  0  0  0  0  0  0  0  0  0
   36.1090   32.9480   36.7350 H   0  0  0  0  0  0  0  0  0  0  0  0
   32.1040   30.7880   36.6790 C   0  0  0  0  0  0  0  0  0  0  0  0
   32.1700   30.0950   37.8870 F   0  0  0  0  0  0  0  0  0  0  0  0
   31.4470   31.9930   36.8110 F   0  0  0  0  0  0  0  0  0  0  0  0
   31.3980   29.9890   35.8150 F   0  0  0  0  0  0  0  0  0  0  0  0
   37.3170   26.2190   33.7270 O   0  0  0  0  0  0  0  0  0  0  0  0
   40.9470   26.5780   34.1620 N   0  0  0  0  0  0  0  0  0  0  0  0
   39.7170   26.9000   33.7380 C   0  0  0  0  0  0  0  0  0  0  0  0
   38.6470   26.0890   34.0490 C   0  0  0  0  0  0  0  0  0  0  0  0
   38.8850   24.9370   34.8120 C   0  0  0  0  0  0  0  0  0  0  0  0
   38.0650   24.0590   35.2110 O   0  0  0  0  0  0  0  0  0  0  0  0
   40.1570   24.6700   35.2090 N   0  0  0  0  0  0  0  0  0  0  0  0
   41.1740   25.4810   34.8880 C   0  0  0  0  0  0  0  0  0  0  0  0
   42.3690   25.2550   35.2450 O   0  0  0  0  0  0  0  0  0  0  0  0
   41.6730   27.2620   33.8670 H   0  0  0  0  0  0  0  0  0  0  0  0
   39.4470   27.7560   33.1550 H   0  0  0  0  0  0  0  0  0  0  0  0
   40.5180   23.5350   35.9830 C   0  0  0  0  0  0  0  0  0  0  0  0
   41.6360   22.9620   36.4740 N   0  0  0  0  0  0  0  0  0  0  0  0
   41.2750   21.8510   37.1540 C   0  0  0  0  0  0  0  0  0  0  0  0
   42.0480   21.2740   37.6110 H   0  0  0  0  0  0  0  0  0  0  0  0
   39.9350   21.7470   37.0780 N   0  0  0  0  0  0  0  0  0  0  0  0
   39.4720   20.9430   37.5480 H   0  0  0  0  0  0  0  0  0  0  0  0
   39.4640   22.7620   36.3690 N   0  0  0  0  0  0  0  0  0  0  0  0
  1  6  2  0  0  0  0
  1  2  1  0  0  0  0
  2  3  2  0  0  0  0
  3  4  1  0  0  0  0
  3  9  1  0  0  0  0
  5 21  1  0  0  0  0
  5  4  2  0  0  0  0
  6  5  1  0  0  0  0
  7  1  1  0  0  0  0
  8  2  1  0  0  0  0
  9 14  2  0  0  0  0
  9 10  1  0  0  0  0
 10 11  2  0  0  0  0
 11 16  1  0  0  0  0
 11 12  1  0  0  0  0
 13 17  1  0  0  0  0
 13 12  2  0  0  0  0
 14 13  1  0  0  0  0
 15 10  1  0  0  0  0
 17 19  1  0  0  0  0
 17 18  1  0  0  0  0
 20 17  1  0  0  0  0
 21 24  1  0  0  0  0
 22 28  1  0  0  0  0
 23 24  2  0  0  0  0
 23 22  1  0  0  0  0
 24 25  1  0  0  0  0
 25 27  1  0  0  0  0
 25 26  2  0  0  0  0
 27 32  1  0  0  0  0
 28 27  1  0  0  0  0
 28 29  2  0  0  0  0
 30 22  1  0  0  0  0
 31 23  1  0  0  0  0
 32 38  2  0  0  0  0
 32 33  1  0  0  0  0
 33 34  2  0  0  0  0
 34 35  1  0  0  0  0
 36 34  1  0  0  0  0
 36 37  1  0  0  0  0
 38 36  1  0  0  0  0
M  END
>  <minimizedAffinity>
-6.61267996

$$$$

 OpenBabel03272502273D

 38 41  0  0  0  0  0  0  0  0999 V2000
   37.2630   27.8170   34.3520 C   0  0  0  0  0  0  0  0  0  0  0  0
   37.7900   27.0310   35.3840 C   0  0  0  0  0  0  0  0  0  0  0  0
   37.8860   25.6650   35.1630 C   0  0  0  0  0  0  0  0  0  0  0  0
   37.4640   25.2040   33.9730 N   0  0  0  0  0  0  0  0  0  0  0  0
   36.9600   25.9720   32.9940 C   0  0  0  0  0  0  0  0  0  0  0  0
   36.8620   27.2920   33.1920 N   0  0  0  0  0  0  0  0  0  0  0  0
   37.1990   28.8790   34.5480 H   0  0  0  0  0  0  0  0  0  0  0  0
   38.1240   27.4050   36.3270 H   0  0  0  0  0  0  0  0  0  0  0  0
   38.4150   24.7420   36.1350 C   0  0  0  0  0  0  0  0  0  0  0  0
   37.7920   24.5670   37.3650 C   0  0  0  0  0  0  0  0  0  0  0  0
   38.2500   23.6980   38.3200 C   0  0  0  0  0  0  0  0  0  0  0  0
   39.3600   22.9740   38.0670 N   0  0  0  0  0  0  0  0  0  0  0  0
   39.9570   23.1510   36.8740 C   0  0  0  0  0  0  0  0  0  0  0  0
   39.5230   23.9920   35.9310 N   0  0  0  0  0  0  0  0  0  0  0  0
   36.8920   25.1310   37.6130 H   0  0  0  0  0  0  0  0  0  0  0  0
   37.7350   23.5910   39.2670 H   0  0  0  0  0  0  0  0  0  0  0  0
   41.1850   22.3650   36.5640 C   0  0  0  0  0  0  0  0  0  0  0  0
   41.2520   21.3180   37.4820 F   0  0  0  0  0  0  0  0  0  0  0  0
   41.1550   21.9100   35.2640 F   0  0  0  0  0  0  0  0  0  0  0  0
   42.3220   23.1110   36.7480 F   0  0  0  0  0  0  0  0  0  0  0  0
   36.5750   25.3250   31.8300 O   0  0  0  0  0  0  0  0  0  0  0  0
   39.2530   23.4510   30.1540 N   0  0  0  0  0  0  0  0  0  0  0  0
   38.6280   24.5220   30.6640 C   0  0  0  0  0  0  0  0  0  0  0  0
   37.3890   24.3810   31.2500 C   0  0  0  0  0  0  0  0  0  0  0  0
   36.8140   23.1040   31.2930 C   0  0  0  0  0  0  0  0  0  0  0  0
   35.7000   22.7440   31.7750 O   0  0  0  0  0  0  0  0  0  0  0  0
   37.5020   22.0610   30.7570 N   0  0  0  0  0  0  0  0  0  0  0  0
   38.7060   22.2340   30.1950 C   0  0  0  0  0  0  0  0  0  0  0  0
   39.3670   21.2800   29.6870 O   0  0  0  0  0  0  0  0  0  0  0  0
   40.1790   23.6770   29.7380 H   0  0  0  0  0  0  0  0  0  0  0  0
   38.9920   25.5280   30.6740 H   0  0  0  0  0  0  0  0  0  0  0  0
   37.0200   20.7250   30.7420 C   0  0  0  0  0  0  0  0  0  0  0  0
   37.3970   19.5220   30.2640 N   0  0  0  0  0  0  0  0  0  0  0  0
   36.4530   18.6170   30.6100 C   0  0  0  0  0  0  0  0  0  0  0  0
   36.5990   17.6060   30.3050 H   0  0  0  0  0  0  0  0  0  0  0  0
   35.5000   19.2710   31.3000 N   0  0  0  0  0  0  0  0  0  0  0  0
   34.6840   18.7320   31.6520 H   0  0  0  0  0  0  0  0  0  0  0  0
   35.8320   20.5510   31.3870 N   0  0  0  0  0  0  0  0  0  0  0  0
  1  7  1  0  0  0  0
  1  2  1  0  0  0  0
  2  8  1  0  0  0  0
  3  2  2  0  0  0  0
  3  9  1  0  0  0  0
  4  3  1  0  0  0  0
  5  6  1  0  0  0  0
  5  4  2  0  0  0  0
  6  1  2  0  0  0  0
  9 10  1  0  0  0  0
 10 15  1  0  0  0  0
 10 11  2  0  0  0  0
 11 16  1  0  0  0  0
 12 11  1  0  0  0  0
 13 12  2  0  0  0  0
 14  9  2  0  0  0  0
 14 13  1  0  0  0  0
 17 20  1  0  0  0  0
 17 13  1  0  0  0  0
 17 18  1  0  0  0  0
 19 17  1  0  0  0  0
 21  5  1  0  0  0  0
 22 28  1  0  0  0  0
 22 23  1  0  0  0  0
 23 31  1  0  0  0  0
 23 24  2  0  0  0  0
 24 25  1  0  0  0  0
 24 21  1  0  0  0  0
 25 26  2  0  0  0  0
 27 25  1  0  0  0  0
 28 27  1  0  0  0  0
 29 28  2  0  0  0  0
 30 22  1  0  0  0  0
 32 27  1  0  0  0  0
 32 38  2  0  0  0  0
 33 34  2  0  0  0  0
 33 32  1  0  0  0  0
 34 36  1  0  0  0  0
 35 34  1  0  0  0  0
 36 38  1  0  0  0  0
 36 37  1  0  0  0  0
M  END
>  <minimizedAffinity>
-6.43046618

$$$$

 OpenBabel03272502273D

 38 41  0  0  0  0  0  0  0  0999 V2000
   37.0460   29.4800   30.2080 C   0  0  0  0  0  0  0  0  0  0  0  0
   36.3790   30.1140   31.2640 C   0  0  0  0  0  0  0  0  0  0  0  0
   35.6340   29.3170   32.1200 C   0  0  0  0  0  0  0  0  0  0  0  0
   35.6120   27.9970   31.8670 N   0  0  0  0  0  0  0  0  0  0  0  0
   36.2570   27.4050   30.8500 C   0  0  0  0  0  0  0  0  0  0  0  0
   36.9810   28.1610   30.0150 N   0  0  0  0  0  0  0  0  0  0  0  0
   37.6210   30.1230   29.5540 H   0  0  0  0  0  0  0  0  0  0  0  0
   36.4010   31.1640   31.4590 H   0  0  0  0  0  0  0  0  0  0  0  0
   34.9040   29.8360   33.2490 C   0  0  0  0  0  0  0  0  0  0  0  0
   33.5830   29.4680   33.4740 C   0  0  0  0  0  0  0  0  0  0  0  0
   32.8470   29.9270   34.5350 C   0  0  0  0  0  0  0  0  0  0  0  0
   33.4230   30.7790   35.4090 N   0  0  0  0  0  0  0  0  0  0  0  0
   34.7010   31.1300   35.1820 C   0  0  0  0  0  0  0  0  0  0  0  0
   35.4330   30.6920   34.1540 N   0  0  0  0  0  0  0  0  0  0  0  0
   33.0780   28.7810   32.7940 H   0  0  0  0  0  0  0  0  0  0  0  0
   31.8190   29.6160   34.6750 H   0  0  0  0  0  0  0  0  0  0  0  0
   35.3650   32.0710   36.1300 C   0  0  0  0  0  0  0  0  0  0  0  0
   34.8370   31.8260   37.3970 F   0  0  0  0  0  0  0  0  0  0  0  0
   36.7330   31.9050   36.1000 F   0  0  0  0  0  0  0  0  0  0  0  0
   35.0690   33.3780   35.8370 F   0  0  0  0  0  0  0  0  0  0  0  0
   36.1230   26.0300   30.7420 O   0  0  0  0  0  0  0  0  0  0  0  0
   38.4030   24.4450   33.1460 N   0  0  0  0  0  0  0  0  0  0  0  0
   37.9120   25.4210   32.3690 C   0  0  0  0  0  0  0  0  0  0  0  0
   36.7920   25.1900   31.6000 C   0  0  0  0  0  0  0  0  0  0  0  0
   36.1950   23.9240   31.6560 C   0  0  0  0  0  0  0  0  0  0  0  0
   35.1740   23.4920   31.0440 O   0  0  0  0  0  0  0  0  0  0  0  0
   36.7450   22.9790   32.4640 N   0  0  0  0  0  0  0  0  0  0  0  0
   37.8350   23.2380   33.2000 C   0  0  0  0  0  0  0  0  0  0  0  0
   38.3670   22.3760   33.9610 O   0  0  0  0  0  0  0  0  0  0  0  0
   39.2480   24.7330   33.6800 H   0  0  0  0  0  0  0  0  0  0  0  0
   38.3030   26.4120   32.2670 H   0  0  0  0  0  0  0  0  0  0  0  0
   36.2290   21.6630   32.6020 C   0  0  0  0  0  0  0  0  0  0  0  0
   36.5440   20.5160   33.2370 N   0  0  0  0  0  0  0  0  0  0  0  0
   35.5980   19.5970   32.9400 C   0  0  0  0  0  0  0  0  0  0  0  0
   35.7000   18.6240   33.3660 H   0  0  0  0  0  0  0  0  0  0  0  0
   34.7050   20.1850   32.1240 N   0  0  0  0  0  0  0  0  0  0  0  0
   33.8960   19.6250   31.7870 H   0  0  0  0  0  0  0  0  0  0  0  0
   35.0750   21.4390   31.9110 N   0  0  0  0  0  0  0  0  0  0  0  0
  1  2  1  0  0  0  0
  2  8  1  0  0  0  0
  2  3  2  0  0  0  0
  3  9  1  0  0  0  0
  4  3  1  0  0  0  0
  5  4  2  0  0  0  0
  6  1  2  0  0  0  0
  6  5  1  0  0  0  0
  7  1  1  0  0  0  0
  9 10  2  0  0  0  0
  9 14  1  0  0  0  0
 10 11  1  0  0  0  0
 11 16  1  0  0  0  0
 11 12  2  0  0  0  0
 13 12  1  0  0  0  0
 13 17  1  0  0  0  0
 14 13  2  0  0  0  0
 15 10  1  0  0  0  0
 17 18  1  0  0  0  0
 19 17  1  0  0  0  0
 20 17  1  0  0  0  0
 21  5  1  0  0  0  0
 21 24  1  0  0  0  0
 22 28  1  0  0  0  0
 22 30  1  0  0  0  0
 23 22  1  0  0  0  0
 24 25  1  0  0  0  0
 24 23  2  0  0  0  0
 25 27  1  0  0  0  0
 26 25  2  0  0  0  0
 27 32  1  0  0  0  0
 27 28  1  0  0  0  0
 28 29  2  0  0  0  0
 31 23  1  0  0  0  0
 32 33  1  0  0  0  0
 34 33  2  0  0  0  0
 34 35  1  0  0  0  0
 36 34  1  0  0  0  0
 37 36  1  0  0  0  0
 38 36  1  0  0  0  0
 38 32  2  0  0  0  0
M  END
>  <minimizedAffinity>
-6.34561825

$$$$

 OpenBabel03272502273D

 38 41  0  0  0  0  0  0  0  0999 V2000
   36.7000   27.6760   30.6870 C   0  0  0  0  0  0  0  0  0  0  0  0
   35.9600   28.7170   31.2600 C   0  0  0  0  0  0  0  0  0  0  0  0
   35.7730   28.6890   32.6340 C   0  0  0  0  0  0  0  0  0  0  0  0
   36.3200   27.6620   33.3070 N   0  0  0  0  0  0  0  0  0  0  0  0
   37.0270   26.6710   32.7420 C   0  0  0  0  0  0  0  0  0  0  0  0
   37.2160   26.6840   31.4160 N   0  0  0  0  0  0  0  0  0  0  0  0
   36.8320   27.7210   29.6140 H   0  0  0  0  0  0  0  0  0  0  0  0
   35.5280   29.5310   30.7190 H   0  0  0  0  0  0  0  0  0  0  0  0
   35.0390   29.6980   33.3540 C   0  0  0  0  0  0  0  0  0  0  0  0
   33.7100   29.9660   33.0500 C   0  0  0  0  0  0  0  0  0  0  0  0
   32.9660   30.9110   33.7070 C   0  0  0  0  0  0  0  0  0  0  0  0
   33.5420   31.6220   34.6980 N   0  0  0  0  0  0  0  0  0  0  0  0
   34.8290   31.3570   34.9850 C   0  0  0  0  0  0  0  0  0  0  0  0
   35.5690   30.4400   34.3550 N   0  0  0  0  0  0  0  0  0  0  0  0
   33.2040   29.4150   32.2560 H   0  0  0  0  0  0  0  0  0  0  0  0
   31.9310   31.0890   33.4390 H   0  0  0  0  0  0  0  0  0  0  0  0
   35.4930   32.1270   36.0750 C   0  0  0  0  0  0  0  0  0  0  0  0
   34.8620   31.7860   37.2700 F   0  0  0  0  0  0  0  0  0  0  0  0
   36.8430   31.8530   36.1090 F   0  0  0  0  0  0  0  0  0  0  0  0
   35.3180   33.4790   35.9190 F   0  0  0  0  0  0  0  0  0  0  0  0
   37.5180   25.6920   33.5910 O   0  0  0  0  0  0  0  0  0  0  0  0
   41.0760   26.3960   34.1730 N   0  0  0  0  0  0  0  0  0  0  0  0
   39.8400   26.5970   33.6940 C   0  0  0  0  0  0  0  0  0  0  0  0
   38.8400   25.6900   33.9700 C   0  0  0  0  0  0  0  0  0  0  0  0
   39.1520   24.5720   34.7550 C   0  0  0  0  0  0  0  0  0  0  0  0
   38.4030   23.6230   35.1290 O   0  0  0  0  0  0  0  0  0  0  0  0
   40.4260   24.4300   35.2080 N   0  0  0  0  0  0  0  0  0  0  0  0
   41.3750   25.3310   34.9200 C   0  0  0  0  0  0  0  0  0  0  0  0
   42.5690   25.2210   35.3290 O   0  0  0  0  0  0  0  0  0  0  0  0
   41.7460   27.1440   33.9010 H   0  0  0  0  0  0  0  0  0  0  0  0
   39.5160   27.4190   33.0910 H   0  0  0  0  0  0  0  0  0  0  0  0
   40.8600   23.3390   36.0080 C   0  0  0  0  0  0  0  0  0  0  0  0
   42.0040   22.8790   36.5520 N   0  0  0  0  0  0  0  0  0  0  0  0
   41.7210   21.7430   37.2300 C   0  0  0  0  0  0  0  0  0  0  0  0
   42.5250   21.2460   37.7240 H   0  0  0  0  0  0  0  0  0  0  0  0
   40.4020   21.5120   37.0980 N   0  0  0  0  0  0  0  0  0  0  0  0
   39.9970   20.6720   37.5570 H   0  0  0  0  0  0  0  0  0  0  0  0
   39.8670   22.4730   36.3590 N   0  0  0  0  0  0  0  0  0  0  0  0
  1  2  2  0  0  0  0
  1  6  1  0  0  0  0
  2  3  1  0  0  0  0
  3  4  2  0  0  0  0
  3  9  1  0  0  0  0
  5  4  1  0  0  0  0
  5 21  1  0  0  0  0
  6  5  2  0  0  0  0
  7  1  1  0  0  0  0
  8  2  1  0  0  0  0
  9 14  1  0  0  0  0
 10  9  2  0  0  0  0
 10 11  1  0  0  0  0
 11 12  2  0  0  0  0
 12 13  1  0  0  0  0
 13 17  1  0  0  0  0
 14 13  2  0  0  0  0
 15 10  1  0  0  0  0
 16 11  1  0  0  0  0
 17 19  1  0  0  0  0
 17 18  1  0  0  0  0
 20 17  1  0  0  0  0
 21 24  1  0  0  0  0
 22 28  1  0  0  0  0
 23 24  2  0  0  0  0
 23 22  1  0  0  0  0
 24 25  1  0  0  0  0
 25 26  2  0  0  0  0
 25 27  1  0  0  0  0
 27 32  1  0  0  0  0
 28 27  1  0  0  0  0
 28 29  2  0  0  0  0
 30 22  1  0  0  0  0
 31 23  1  0  0  0  0
 32 38  2  0  0  0  0
 32 33  1  0  0  0  0
 33 34  2  0  0  0  0
 34 35  1  0  0  0  0
 36 34  1  0  0  0  0
 36 37  1  0  0  0  0
 38 36  1  0  0  0  0
M  END
>  <minimizedAffinity>
-6.3324213

$$$$

 OpenBabel03272502273D

 38 41  0  0  0  0  0  0  0  0999 V2000
   36.3720   25.6590   31.3770 C   0  0  0  0  0  0  0  0  0  0  0  0
   35.7660   26.9140   31.5110 C   0  0  0  0  0  0  0  0  0  0  0  0
   36.3040   27.7880   32.4450 C   0  0  0  0  0  0  0  0  0  0  0  0
   37.3660   27.3580   33.1470 N   0  0  0  0  0  0  0  0  0  0  0  0
   37.9350   26.1510   33.0070 C   0  0  0  0  0  0  0  0  0  0  0  0
   37.4270   25.2960   32.1100 N   0  0  0  0  0  0  0  0  0  0  0  0
   35.9340   24.9950   30.6430 H   0  0  0  0  0  0  0  0  0  0  0  0
   34.9210   27.2490   30.9490 H   0  0  0  0  0  0  0  0  0  0  0  0
   35.7850   29.1110   32.6800 C   0  0  0  0  0  0  0  0  0  0  0  0
   35.2930   29.8810   31.6330 C   0  0  0  0  0  0  0  0  0  0  0  0
   34.7830   31.1410   31.8040 C   0  0  0  0  0  0  0  0  0  0  0  0
   34.7530   31.6710   33.0440 N   0  0  0  0  0  0  0  0  0  0  0  0
   35.2320   30.9190   34.0520 C   0  0  0  0  0  0  0  0  0  0  0  0
   35.7320   29.6890   33.9030 N   0  0  0  0  0  0  0  0  0  0  0  0
   35.2970   29.4920   30.6140 H   0  0  0  0  0  0  0  0  0  0  0  0
   34.4090   31.7090   30.9600 H   0  0  0  0  0  0  0  0  0  0  0  0
   35.2130   31.4780   35.4340 C   0  0  0  0  0  0  0  0  0  0  0  0
   34.0930   30.9550   36.0790 F   0  0  0  0  0  0  0  0  0  0  0  0
   36.3810   31.1690   36.0980 F   0  0  0  0  0  0  0  0  0  0  0  0
   35.0520   32.8400   35.4270 F   0  0  0  0  0  0  0  0  0  0  0  0
   39.0260   25.8770   33.8160 O   0  0  0  0  0  0  0  0  0  0  0  0
   37.9350   24.5440   37.0610 N   0  0  0  0  0  0  0  0  0  0  0  0
   37.8960   25.3220   35.9700 C   0  0  0  0  0  0  0  0  0  0  0  0
   38.8670   25.1970   35.0000 C   0  0  0  0  0  0  0  0  0  0  0  0
   39.8780   24.2450   35.1900 C   0  0  0  0  0  0  0  0  0  0  0  0
   40.8600   23.9600   34.4430 O   0  0  0  0  0  0  0  0  0  0  0  0
   39.8580   23.4900   36.3200 N   0  0  0  0  0  0  0  0  0  0  0  0
   38.8980   23.6380   37.2430 C   0  0  0  0  0  0  0  0  0  0  0  0
   38.8560   22.9470   38.3040 O   0  0  0  0  0  0  0  0  0  0  0  0
   37.1530   24.7280   37.7220 H   0  0  0  0  0  0  0  0  0  0  0  0
   37.1640   26.0700   35.7450 H   0  0  0  0  0  0  0  0  0  0  0  0
   40.8290   22.4970   36.6210 C   0  0  0  0  0  0  0  0  0  0  0  0
   41.1280   21.6500   37.6260 N   0  0  0  0  0  0  0  0  0  0  0  0
   42.2230   20.9420   37.2680 C   0  0  0  0  0  0  0  0  0  0  0  0
   42.5960   20.2200   37.9590 H   0  0  0  0  0  0  0  0  0  0  0  0
   42.5910   21.3580   36.0420 N   0  0  0  0  0  0  0  0  0  0  0  0
   43.4230   20.9210   35.5990 H   0  0  0  0  0  0  0  0  0  0  0  0
   41.7530   22.3010   35.6380 N   0  0  0  0  0  0  0  0  0  0  0  0
  1  2  2  0  0  0  0
  1  6  1  0  0  0  0
  2  3  1  0  0  0  0
  3  9  1  0  0  0  0
  3  4  2  0  0  0  0
  5  4  1  0  0  0  0
  5 21  1  0  0  0  0
  6  5  2  0  0  0  0
  7  1  1  0  0  0  0
  8  2  1  0  0  0  0
  9 14  1  0  0  0  0
 10 11  1  0  0  0  0
 10  9  2  0  0  0  0
 11 12  2  0  0  0  0
 12 13  1  0  0  0  0
 13 17  1  0  0  0  0
 14 13  2  0  0  0  0
 15 10  1  0  0  0  0
 16 11  1  0  0  0  0
 17 18  1  0  0  0  0
 17 19  1  0  0  0  0
 20 17  1  0  0  0  0
 21 24  1  0  0  0  0
 22 28  1  0  0  0  0
 22 30  1  0  0  0  0
 23 22  1  0  0  0  0
 24 25  1  0  0  0  0
 24 23  2  0  0  0  0
 25 27  1  0  0  0  0
 26 25  2  0  0  0  0
 27 32  1  0  0  0  0
 27 28  1  0  0  0  0
 28 29  2  0  0  0  0
 31 23  1  0  0  0  0
 32 33  1  0  0  0  0
 34 33  2  0  0  0  0
 34 35  1  0  0  0  0
 36 34  1  0  0  0  0
 37 36  1  0  0  0  0
 38 36  1  0  0  0  0
 38 32  2  0  0  0  0
M  END
>  <minimizedAffinity>
-6.3150835

$$$$
