
 OpenBabel03272504413D

 43 45  0  0  0  0  0  0  0  0999 V2000
   34.6650   29.3530   48.8480 C   0  0  0  0  0  0  0  0  0  0  0  0
   33.9940   30.1710   49.2480 H   0  0  0  0  0  0  0  0  0  0  0  0
   35.5390   29.3840   49.5290 H   0  0  0  0  0  0  0  0  0  0  0  0
   37.4430   30.4060   48.6430 Cl  0  0  0  0  0  0  0  0  0  0  0  0
   36.3340   30.2640   47.2670 C   0  0  0  0  0  0  0  0  0  0  0  0
   36.7520   30.6490   46.0440 C   0  0  0  0  0  0  0  0  0  0  0  0
   35.9020   30.5440   44.9670 C   0  0  0  0  0  0  0  0  0  0  0  0
   34.6240   30.0370   45.1750 C   0  0  0  0  0  0  0  0  0  0  0  0
   34.2590   29.6570   46.4760 C   0  0  0  0  0  0  0  0  0  0  0  0
   35.0850   29.7560   47.5370 C   0  0  0  0  0  0  0  0  0  0  0  0
   36.2640   30.8630   43.9830 H   0  0  0  0  0  0  0  0  0  0  0  0
   34.0400   29.9950   44.2710 H   0  0  0  0  0  0  0  0  0  0  0  0
   33.2600   29.3120   46.4000 H   0  0  0  0  0  0  0  0  0  0  0  0
   39.7390   32.8030   46.2440 C   0  0  0  0  0  0  0  0  0  0  0  0
   40.6190   32.1280   45.3500 C   0  0  0  0  0  0  0  0  0  0  0  0
   40.1520   30.9590   44.7160 C   0  0  0  0  0  0  0  0  0  0  0  0
   38.8910   30.5210   44.9760 N   0  0  0  0  0  0  0  0  0  0  0  0
   38.0840   31.1910   45.8320 C   0  0  0  0  0  0  0  0  0  0  0  0
   38.5140   32.3070   46.4450 N   0  0  0  0  0  0  0  0  0  0  0  0
   40.1400   33.6940   46.7070 H   0  0  0  0  0  0  0  0  0  0  0  0
   41.6060   32.4630   45.1410 H   0  0  0  0  0  0  0  0  0  0  0  0
   41.0290   30.3000   43.8320 N   0  0  0  0  0  0  0  0  0  0  0  0
   42.0410   30.4380   43.8840 H   0  0  0  0  0  0  0  0  0  0  0  0
   40.5980   29.6520   43.1070 H   0  0  0  0  0  0  0  0  0  0  0  0
   33.9940   28.0610   49.0380 C   0  0  0  0  0  0  0  0  0  0  0  0
   34.1260   27.4170   48.1200 H   0  0  0  0  0  0  0  0  0  0  0  0
   34.4340   27.4440   49.8550 H   0  0  0  0  0  0  0  0  0  0  0  0
   32.6630   28.2200   49.3240 O   0  0  0  0  0  0  0  0  0  0  0  0
   32.5310   26.4320   47.4030 O   0  0  0  0  0  0  0  0  0  0  0  0
   31.7230   27.3980   48.2220 P   0  0  2  0  0  0  0  0  0  0  0  0
   31.0190   28.5850   47.1820 O   0  0  0  0  0  0  0  0  0  0  0  0
   30.0330   28.1290   46.3130 C   0  0  0  0  0  0  0  0  0  0  0  0
   30.0780   27.0540   45.4960 N   0  0  0  0  0  0  0  0  0  0  0  0
   28.9330   26.9460   44.8150 C   0  0  0  0  0  0  0  0  0  0  0  0
   28.5370   26.2620   44.0740 H   0  0  0  0  0  0  0  0  0  0  0  0
   28.1380   27.9710   45.2030 N   0  0  0  0  0  0  0  0  0  0  0  0
   27.1890   28.3460   45.0020 H   0  0  0  0  0  0  0  0  0  0  0  0
   28.8060   28.6770   46.1030 N   0  0  0  0  0  0  0  0  0  0  0  0
   30.4510   26.5900   48.9210 O   0  0  0  0  0  0  0  0  0  0  0  0
   29.7980   27.4000   49.8320 C   0  0  0  0  0  0  0  0  0  0  0  0
   29.3390   26.6930   50.9440 F   0  0  0  0  0  0  0  0  0  0  0  0
   30.6380   28.3780   50.3310 F   0  0  0  0  0  0  0  0  0  0  0  0
   28.7000   27.9970   49.2280 F   0  0  0  0  0  0  0  0  0  0  0  0
  1 25  1  0  0  0  0
  1  2  1  0  0  0  0
  1  3  1  0  0  0  0
  5 10  1  0  0  0  0
  5  4  1  0  0  0  0
  6  5  2  0  0  0  0
  7  8  2  0  0  0  0
  7  6  1  0  0  0  0
  8  9  1  0  0  0  0
  9 10  2  0  0  0  0
 10  1  1  0  0  0  0
 11  7  1  0  0  0  0
 12  8  1  0  0  0  0
 13  9  1  0  0  0  0
 14 19  1  0  0  0  0
 14 20  1  0  0  0  0
 15 14  2  0  0  0  0
 16 17  2  0  0  0  0
 16 15  1  0  0  0  0
 17 18  1  0  0  0  0
 18  6  1  0  0  0  0
 18 19  2  0  0  0  0
 21 15  1  0  0  0  0
 22 23  1  0  0  0  0
 22 16  1  0  0  0  0
 24 22  1  0  0  0  0
 25 28  1  0  0  0  0
 25 27  1  0  0  0  0
 26 25  1  0  0  0  0
 30 29  2  6  0  0  0
 30 39  1  0  0  0  0
 30 28  1  0  0  0  0
 31 30  1  0  0  0  0
 32 31  1  0  0  0  0
 33 32  1  0  0  0  0
 34 36  1  0  0  0  0
 34 33  2  0  0  0  0
 35 34  1  0  0  0  0
 36 38  1  0  0  0  0
 37 36  1  0  0  0  0
 38 32  2  0  0  0  0
 39 40  1  0  0  0  0
 40 42  1  0  0  0  0
 40 41  1  0  0  0  0
 43 40  1  0  0  0  0
M  END
>  <minimizedAffinity>
-5.74023581

>  <minimizedRMSD>
0.437597156

$$$$
