
 OpenBabel03262523493D

 36 39  0  0  0  0  0  0  0  0999 V2000
   36.8990   30.2250   31.0810 Cl  0  0  0  0  0  0  0  0  0  0  0  0
   37.1570   28.6170   31.7000 C   0  0  0  0  0  0  0  0  0  0  0  0
   36.3650   28.1260   32.7090 C   0  0  0  0  0  0  0  0  0  0  0  0
   36.6080   26.8510   33.1640 C   0  0  0  0  0  0  0  0  0  0  0  0
   37.6060   26.0640   32.6450 C   0  0  0  0  0  0  0  0  0  0  0  0
   38.4010   26.5960   31.6100 C   0  0  0  0  0  0  0  0  0  0  0  0
   39.6570   25.5680   30.9790 Cl  0  0  0  0  0  0  0  0  0  0  0  0
   38.1780   27.8740   31.1360 C   0  0  0  0  0  0  0  0  0  0  0  0
   35.9540   26.5170   33.9590 H   0  0  0  0  0  0  0  0  0  0  0  0
   38.7870   28.2770   30.3460 H   0  0  0  0  0  0  0  0  0  0  0  0
   39.1890   25.7600   35.2200 Cl  0  0  0  0  0  0  0  0  0  0  0  0
   38.4540   24.4120   34.3700 C   0  0  0  0  0  0  0  0  0  0  0  0
   37.7660   24.7340   33.2080 C   0  0  0  0  0  0  0  0  0  0  0  0
   37.1560   23.7180   32.4790 C   0  0  0  0  0  0  0  0  0  0  0  0
   37.2200   22.3980   32.8880 C   0  0  0  0  0  0  0  0  0  0  0  0
   37.9070   22.1120   34.0400 C   0  0  0  0  0  0  0  0  0  0  0  0
   38.5290   23.1020   34.7930 C   0  0  0  0  0  0  0  0  0  0  0  0
   36.6100   23.9030   31.5730 H   0  0  0  0  0  0  0  0  0  0  0  0
   36.7530   21.5900   32.3380 H   0  0  0  0  0  0  0  0  0  0  0  0
   37.9870   21.0920   34.4040 H   0  0  0  0  0  0  0  0  0  0  0  0
   39.2660   22.8150   36.0270 C   0  0  0  0  0  0  0  0  0  0  0  0
   40.5130   22.3870   36.2300 N   0  0  0  0  0  0  0  0  0  0  0  0
   40.7740   22.2590   37.5450 C   0  0  0  0  0  0  0  0  0  0  0  0
   41.6790   21.9380   38.0320 H   0  0  0  0  0  0  0  0  0  0  0  0
   39.6150   22.6340   38.1620 N   0  0  0  0  0  0  0  0  0  0  0  0
   39.4280   22.6670   39.2060 H   0  0  0  0  0  0  0  0  0  0  0  0
   38.7190   22.9650   37.2470 N   0  0  0  0  0  0  0  0  0  0  0  0
   34.5090   30.6690   34.8220 C   0  0  0  0  0  0  0  0  0  0  0  0
   35.5240   29.8370   34.3320 C   0  0  0  0  0  0  0  0  0  0  0  0
   35.3030   29.0090   33.2360 C   0  0  0  0  0  0  0  0  0  0  0  0
   34.0660   29.0470   32.6700 N   0  0  0  0  0  0  0  0  0  0  0  0
   33.1070   29.8570   33.1610 C   0  0  0  0  0  0  0  0  0  0  0  0
   33.3170   30.6550   34.2160 N   0  0  0  0  0  0  0  0  0  0  0  0
   34.8540   31.2470   35.6820 H   0  0  0  0  0  0  0  0  0  0  0  0
   36.5200   29.7670   34.7410 H   0  0  0  0  0  0  0  0  0  0  0  0
   32.1080   29.8860   32.7030 H   0  0  0  0  0  0  0  0  0  0  0  0
  1  2  1  0  0  0  0
  2  3  1  0  0  0  0
  3  4  2  0  0  0  0
  3 30  1  0  0  0  0
  4  9  1  0  0  0  0
  5  4  1  0  0  0  0
  5 13  1  0  0  0  0
  6  5  2  0  0  0  0
  7  6  1  0  0  0  0
  8  6  1  0  0  0  0
  8  2  2  0  0  0  0
 10  8  1  0  0  0  0
 12 17  1  0  0  0  0
 12 11  1  0  0  0  0
 13 12  2  0  0  0  0
 14 15  2  0  0  0  0
 14 13  1  0  0  0  0
 15 16  1  0  0  0  0
 16 20  1  0  0  0  0
 16 17  2  0  0  0  0
 17 21  1  0  0  0  0
 18 14  1  0  0  0  0
 19 15  1  0  0  0  0
 21 22  1  0  0  0  0
 21 27  2  0  0  0  0
 22 23  2  0  0  0  0
 23 24  1  0  0  0  0
 23 25  1  0  0  0  0
 25 26  1  0  0  0  0
 27 25  1  0  0  0  0
 28 34  1  0  0  0  0
 29 35  1  0  0  0  0
 29 28  1  0  0  0  0
 30 29  2  0  0  0  0
 31 32  2  0  0  0  0
 31 30  1  0  0  0  0
 32 33  1  0  0  0  0
 33 28  2  0  0  0  0
 36 32  1  0  0  0  0
M  END
>  <minimizedAffinity>
-6.13946867

$$$$

 OpenBabel03262523493D

 36 39  0  0  0  0  0  0  0  0999 V2000
   35.2420   32.0350   32.2960 Cl  0  0  0  0  0  0  0  0  0  0  0  0
   35.8650   30.4150   32.4510 C   0  0  0  0  0  0  0  0  0  0  0  0
   35.7190   29.7240   33.6290 C   0  0  0  0  0  0  0  0  0  0  0  0
   36.2260   28.4480   33.7010 C   0  0  0  0  0  0  0  0  0  0  0  0
   36.8670   27.8520   32.6440 C   0  0  0  0  0  0  0  0  0  0  0  0
   37.0010   28.5870   31.4480 C   0  0  0  0  0  0  0  0  0  0  0  0
   37.8210   27.7970   30.1300 Cl  0  0  0  0  0  0  0  0  0  0  0  0
   36.5010   29.8710   31.3500 C   0  0  0  0  0  0  0  0  0  0  0  0
   36.0820   27.9520   34.6520 H   0  0  0  0  0  0  0  0  0  0  0  0
   36.6050   30.4280   30.4360 H   0  0  0  0  0  0  0  0  0  0  0  0
   35.3700   25.5570   31.3340 Cl  0  0  0  0  0  0  0  0  0  0  0  0
   36.8060   25.3400   32.3190 C   0  0  0  0  0  0  0  0  0  0  0  0
   37.3620   26.5000   32.8400 C   0  0  0  0  0  0  0  0  0  0  0  0
   38.5030   26.4080   33.6320 C   0  0  0  0  0  0  0  0  0  0  0  0
   39.0920   25.1870   33.9090 C   0  0  0  0  0  0  0  0  0  0  0  0
   38.5190   24.0600   33.3790 C   0  0  0  0  0  0  0  0  0  0  0  0
   37.3790   24.1140   32.5850 C   0  0  0  0  0  0  0  0  0  0  0  0
   38.9790   27.2680   34.0630 H   0  0  0  0  0  0  0  0  0  0  0  0
   39.9800   25.0900   34.5210 H   0  0  0  0  0  0  0  0  0  0  0  0
   38.9430   23.0770   33.5670 H   0  0  0  0  0  0  0  0  0  0  0  0
   36.7530   22.9190   32.0100 C   0  0  0  0  0  0  0  0  0  0  0  0
   35.5780   22.3380   32.2500 N   0  0  0  0  0  0  0  0  0  0  0  0
   35.4110   21.2440   31.4820 C   0  0  0  0  0  0  0  0  0  0  0  0
   34.5790   20.5620   31.4380 H   0  0  0  0  0  0  0  0  0  0  0  0
   36.5550   21.1700   30.7410 N   0  0  0  0  0  0  0  0  0  0  0  0
   36.7990   20.4370   30.0130 H   0  0  0  0  0  0  0  0  0  0  0  0
   37.3530   22.1760   31.0630 N   0  0  0  0  0  0  0  0  0  0  0  0
   35.0310   31.8660   36.6810 C   0  0  0  0  0  0  0  0  0  0  0  0
   35.7030   31.2260   35.6320 C   0  0  0  0  0  0  0  0  0  0  0  0
   35.0200   30.4060   34.7400 C   0  0  0  0  0  0  0  0  0  0  0  0
   33.6820   30.2580   34.9330 N   0  0  0  0  0  0  0  0  0  0  0  0
   33.0580   30.8870   35.9510 C   0  0  0  0  0  0  0  0  0  0  0  0
   33.7140   31.6760   36.8110 N   0  0  0  0  0  0  0  0  0  0  0  0
   35.7170   32.4660   37.2800 H   0  0  0  0  0  0  0  0  0  0  0  0
   36.7610   31.3060   35.4320 H   0  0  0  0  0  0  0  0  0  0  0  0
   31.9770   30.7660   36.1060 H   0  0  0  0  0  0  0  0  0  0  0  0
  1  2  1  0  0  0  0
  2  3  1  0  0  0  0
  3  4  2  0  0  0  0
  3 30  1  0  0  0  0
  4  9  1  0  0  0  0
  5 13  1  0  0  0  0
  5  4  1  0  0  0  0
  6  5  2  0  0  0  0
  7  6  1  0  0  0  0
  8  6  1  0  0  0  0
  8  2  2  0  0  0  0
 10  8  1  0  0  0  0
 11 12  1  0  0  0  0
 12 17  2  0  0  0  0
 12 13  1  0  0  0  0
 13 14  2  0  0  0  0
 14 15  1  0  0  0  0
 14 18  1  0  0  0  0
 15 19  1  0  0  0  0
 16 20  1  0  0  0  0
 16 15  2  0  0  0  0
 17 16  1  0  0  0  0
 21 22  1  0  0  0  0
 21 17  1  0  0  0  0
 23 22  2  0  0  0  0
 24 23  1  0  0  0  0
 25 27  1  0  0  0  0
 25 23  1  0  0  0  0
 26 25  1  0  0  0  0
 27 21  2  0  0  0  0
 28 33  1  0  0  0  0
 28 34  1  0  0  0  0
 29 28  2  0  0  0  0
 30 31  2  0  0  0  0
 30 29  1  0  0  0  0
 31 32  1  0  0  0  0
 32 36  1  0  0  0  0
 32 33  2  0  0  0  0
 35 29  1  0  0  0  0
M  END
>  <minimizedAffinity>
-6.06243896

$$$$

 OpenBabel03262523493D

 36 39  0  0  0  0  0  0  0  0999 V2000
   35.6720   32.8190   32.5220 Cl  0  0  0  0  0  0  0  0  0  0  0  0
   35.8510   31.0930   32.3620 C   0  0  0  0  0  0  0  0  0  0  0  0
   35.4580   30.2570   33.3780 C   0  0  0  0  0  0  0  0  0  0  0  0
   35.6180   28.9030   33.2050 C   0  0  0  0  0  0  0  0  0  0  0  0
   36.1540   28.3680   32.0600 C   0  0  0  0  0  0  0  0  0  0  0  0
   36.5480   29.2520   31.0340 C   0  0  0  0  0  0  0  0  0  0  0  0
   37.2240   28.5360   29.5980 Cl  0  0  0  0  0  0  0  0  0  0  0  0
   36.3980   30.6170   31.1840 C   0  0  0  0  0  0  0  0  0  0  0  0
   35.2920   28.2930   34.0360 H   0  0  0  0  0  0  0  0  0  0  0  0
   36.7000   31.2890   30.4000 H   0  0  0  0  0  0  0  0  0  0  0  0
   38.4680   27.0370   33.5100 Cl  0  0  0  0  0  0  0  0  0  0  0  0
   37.2630   26.1520   32.5900 C   0  0  0  0  0  0  0  0  0  0  0  0
   36.2750   26.9220   31.9920 C   0  0  0  0  0  0  0  0  0  0  0  0
   35.2840   26.2910   31.2470 C   0  0  0  0  0  0  0  0  0  0  0  0
   35.2640   24.9160   31.0910 C   0  0  0  0  0  0  0  0  0  0  0  0
   36.2540   24.1840   31.6940 C   0  0  0  0  0  0  0  0  0  0  0  0
   37.2600   24.7810   32.4460 C   0  0  0  0  0  0  0  0  0  0  0  0
   34.4940   26.8300   30.7600 H   0  0  0  0  0  0  0  0  0  0  0  0
   34.5030   24.4020   30.5160 H   0  0  0  0  0  0  0  0  0  0  0  0
   36.2830   23.1020   31.6020 H   0  0  0  0  0  0  0  0  0  0  0  0
   38.3250   24.0140   33.0980 C   0  0  0  0  0  0  0  0  0  0  0  0
   39.5660   23.7200   32.7070 N   0  0  0  0  0  0  0  0  0  0  0  0
   40.2050   22.9810   33.6350 C   0  0  0  0  0  0  0  0  0  0  0  0
   41.2070   22.5860   33.6210 H   0  0  0  0  0  0  0  0  0  0  0  0
   39.2910   22.8270   34.6380 N   0  0  0  0  0  0  0  0  0  0  0  0
   39.4240   22.3000   35.5490 H   0  0  0  0  0  0  0  0  0  0  0  0
   38.1690   23.4480   34.3090 N   0  0  0  0  0  0  0  0  0  0  0  0
   35.1420   31.9140   36.7740 C   0  0  0  0  0  0  0  0  0  0  0  0
   35.6960   31.3280   35.6290 C   0  0  0  0  0  0  0  0  0  0  0  0
   34.8850   30.8780   34.5920 C   0  0  0  0  0  0  0  0  0  0  0  0
   33.5420   31.0350   34.7420 N   0  0  0  0  0  0  0  0  0  0  0  0
   33.0340   31.6030   35.8550 C   0  0  0  0  0  0  0  0  0  0  0  0
   33.8130   32.0360   36.8550 N   0  0  0  0  0  0  0  0  0  0  0  0
   35.9190   32.2060   37.4820 H   0  0  0  0  0  0  0  0  0  0  0  0
   36.7510   31.1790   35.4560 H   0  0  0  0  0  0  0  0  0  0  0  0
   31.9490   31.7280   35.9760 H   0  0  0  0  0  0  0  0  0  0  0  0
  2  1  1  0  0  0  0
  2  3  1  0  0  0  0
  3 30  1  0  0  0  0
  4  3  2  0  0  0  0
  4  9  1  0  0  0  0
  5  4  1  0  0  0  0
  6  8  1  0  0  0  0
  6  5  2  0  0  0  0
  7  6  1  0  0  0  0
  8  2  2  0  0  0  0
 10  8  1  0  0  0  0
 12 11  1  0  0  0  0
 13  5  1  0  0  0  0
 13 12  2  0  0  0  0
 14 13  1  0  0  0  0
 15 14  2  0  0  0  0
 15 16  1  0  0  0  0
 16 17  2  0  0  0  0
 17 12  1  0  0  0  0
 17 21  1  0  0  0  0
 18 14  1  0  0  0  0
 19 15  1  0  0  0  0
 20 16  1  0  0  0  0
 21 27  2  0  0  0  0
 22 21  1  0  0  0  0
 22 23  2  0  0  0  0
 23 25  1  0  0  0  0
 24 23  1  0  0  0  0
 25 26  1  0  0  0  0
 27 25  1  0  0  0  0
 28 33  1  0  0  0  0
 28 34  1  0  0  0  0
 29 28  2  0  0  0  0
 30 31  2  0  0  0  0
 30 29  1  0  0  0  0
 31 32  1  0  0  0  0
 32 36  1  0  0  0  0
 32 33  2  0  0  0  0
 35 29  1  0  0  0  0
M  END
>  <minimizedAffinity>
-5.88986444

$$$$

 OpenBabel03262523493D

 36 39  0  0  0  0  0  0  0  0999 V2000
   37.8970   27.5970   31.1820 Cl  0  0  0  0  0  0  0  0  0  0  0  0
   36.7470   28.3200   32.2740 C   0  0  0  0  0  0  0  0  0  0  0  0
   36.7290   27.9630   33.6000 C   0  0  0  0  0  0  0  0  0  0  0  0
   35.8040   28.5610   34.4220 C   0  0  0  0  0  0  0  0  0  0  0  0
   34.9080   29.4940   33.9610 C   0  0  0  0  0  0  0  0  0  0  0  0
   34.9510   29.8400   32.5960 C   0  0  0  0  0  0  0  0  0  0  0  0
   33.7980   31.0250   32.0500 Cl  0  0  0  0  0  0  0  0  0  0  0  0
   35.8710   29.2520   31.7480 C   0  0  0  0  0  0  0  0  0  0  0  0
   35.8360   28.2420   35.4550 H   0  0  0  0  0  0  0  0  0  0  0  0
   35.9010   29.5180   30.7070 H   0  0  0  0  0  0  0  0  0  0  0  0
   35.5170   32.2270   35.1390 Cl  0  0  0  0  0  0  0  0  0  0  0  0
   34.0970   31.2860   35.5600 C   0  0  0  0  0  0  0  0  0  0  0  0
   33.9770   30.0570   34.9250 C   0  0  0  0  0  0  0  0  0  0  0  0
   32.8770   29.2530   35.2070 C   0  0  0  0  0  0  0  0  0  0  0  0
   31.9030   29.6540   36.1050 C   0  0  0  0  0  0  0  0  0  0  0  0
   32.0490   30.8730   36.7150 C   0  0  0  0  0  0  0  0  0  0  0  0
   33.1360   31.7020   36.4570 C   0  0  0  0  0  0  0  0  0  0  0  0
   32.7280   28.2940   34.7490 H   0  0  0  0  0  0  0  0  0  0  0  0
   31.0370   29.0470   36.3410 H   0  0  0  0  0  0  0  0  0  0  0  0
   31.3120   31.2330   37.4270 H   0  0  0  0  0  0  0  0  0  0  0  0
   33.3090   33.0070   37.1000 C   0  0  0  0  0  0  0  0  0  0  0  0
   34.3110   33.5080   37.8230 N   0  0  0  0  0  0  0  0  0  0  0  0
   34.0410   34.7670   38.2200 C   0  0  0  0  0  0  0  0  0  0  0  0
   34.6410   35.4390   38.8110 H   0  0  0  0  0  0  0  0  0  0  0  0
   32.8060   35.0310   37.7020 N   0  0  0  0  0  0  0  0  0  0  0  0
   32.2500   35.9300   37.8010 H   0  0  0  0  0  0  0  0  0  0  0  0
   32.3750   33.9740   37.0340 N   0  0  0  0  0  0  0  0  0  0  0  0
   39.8330   26.3640   35.0780 C   0  0  0  0  0  0  0  0  0  0  0  0
   38.9090   27.3280   34.6570 C   0  0  0  0  0  0  0  0  0  0  0  0
   37.7140   26.9550   34.0500 C   0  0  0  0  0  0  0  0  0  0  0  0
   37.4890   25.6230   33.8890 N   0  0  0  0  0  0  0  0  0  0  0  0
   38.3960   24.7160   34.3040 C   0  0  0  0  0  0  0  0  0  0  0  0
   39.5470   25.0720   34.8880 N   0  0  0  0  0  0  0  0  0  0  0  0
   40.7100   26.8310   35.5300 H   0  0  0  0  0  0  0  0  0  0  0  0
   39.0340   28.3950   34.7590 H   0  0  0  0  0  0  0  0  0  0  0  0
   38.2130   23.6400   34.1730 H   0  0  0  0  0  0  0  0  0  0  0  0
  1  2  1  0  0  0  0
  2  3  1  0  0  0  0
  3 30  1  0  0  0  0
  3  4  2  0  0  0  0
  4  9  1  0  0  0  0
  5  4  1  0  0  0  0
  5 13  1  0  0  0  0
  6  5  2  0  0  0  0
  7  6  1  0  0  0  0
  8  2  2  0  0  0  0
  8  6  1  0  0  0  0
 10  8  1  0  0  0  0
 11 12  1  0  0  0  0
 12 17  1  0  0  0  0
 13 14  1  0  0  0  0
 13 12  2  0  0  0  0
 14 15  2  0  0  0  0
 15 19  1  0  0  0  0
 15 16  1  0  0  0  0
 16 20  1  0  0  0  0
 17 16  2  0  0  0  0
 17 21  1  0  0  0  0
 18 14  1  0  0  0  0
 21 22  1  0  0  0  0
 22 23  2  0  0  0  0
 23 24  1  0  0  0  0
 25 26  1  0  0  0  0
 25 23  1  0  0  0  0
 27 21  2  0  0  0  0
 27 25  1  0  0  0  0
 28 34  1  0  0  0  0
 29 35  1  0  0  0  0
 29 28  2  0  0  0  0
 30 29  1  0  0  0  0
 31 30  2  0  0  0  0
 31 32  1  0  0  0  0
 32 33  2  0  0  0  0
 33 28  1  0  0  0  0
 36 32  1  0  0  0  0
M  END
>  <minimizedAffinity>
-5.86170769

$$$$

 OpenBabel03262523493D

 36 39  0  0  0  0  0  0  0  0999 V2000
   38.0010   26.9200   30.4650 Cl  0  0  0  0  0  0  0  0  0  0  0  0
   37.2200   27.9130   31.6650 C   0  0  0  0  0  0  0  0  0  0  0  0
   37.1910   27.5190   32.9800 C   0  0  0  0  0  0  0  0  0  0  0  0
   36.5640   28.3370   33.8900 C   0  0  0  0  0  0  0  0  0  0  0  0
   35.9720   29.5210   33.5260 C   0  0  0  0  0  0  0  0  0  0  0  0
   36.0180   29.8980   32.1690 C   0  0  0  0  0  0  0  0  0  0  0  0
   35.2550   31.4050   31.7470 Cl  0  0  0  0  0  0  0  0  0  0  0  0
   36.6420   29.0930   31.2350 C   0  0  0  0  0  0  0  0  0  0  0  0
   36.5720   27.9770   34.9100 H   0  0  0  0  0  0  0  0  0  0  0  0
   36.6750   29.3840   30.2000 H   0  0  0  0  0  0  0  0  0  0  0  0
   32.9580   29.3270   33.8590 Cl  0  0  0  0  0  0  0  0  0  0  0  0
   33.9820   30.3330   34.8690 C   0  0  0  0  0  0  0  0  0  0  0  0
   35.3380   30.3000   34.5770 C   0  0  0  0  0  0  0  0  0  0  0  0
   36.2140   31.0710   35.3360 C   0  0  0  0  0  0  0  0  0  0  0  0
   35.7600   31.8660   36.3730 C   0  0  0  0  0  0  0  0  0  0  0  0
   34.4140   31.8770   36.6370 C   0  0  0  0  0  0  0  0  0  0  0  0
   33.5110   31.1190   35.9000 C   0  0  0  0  0  0  0  0  0  0  0  0
   37.2720   31.0880   35.1580 H   0  0  0  0  0  0  0  0  0  0  0  0
   36.4210   32.4750   36.9780 H   0  0  0  0  0  0  0  0  0  0  0  0
   34.0080   32.4850   37.4410 H   0  0  0  0  0  0  0  0  0  0  0  0
   32.0700   31.1180   36.1680 C   0  0  0  0  0  0  0  0  0  0  0  0
   31.0860   31.8900   35.7050 N   0  0  0  0  0  0  0  0  0  0  0  0
   29.8990   31.5280   36.2280 C   0  0  0  0  0  0  0  0  0  0  0  0
   28.9220   31.9490   36.0580 H   0  0  0  0  0  0  0  0  0  0  0  0
   30.1930   30.4780   37.0500 N   0  0  0  0  0  0  0  0  0  0  0  0
   29.5120   29.9200   37.6420 H   0  0  0  0  0  0  0  0  0  0  0  0
   31.4940   30.2400   37.0080 N   0  0  0  0  0  0  0  0  0  0  0  0
   39.6490   24.9770   34.3490 C   0  0  0  0  0  0  0  0  0  0  0  0
   39.0420   26.1980   34.0300 C   0  0  0  0  0  0  0  0  0  0  0  0
   37.8430   26.2370   33.3250 C   0  0  0  0  0  0  0  0  0  0  0  0
   37.2950   25.0450   32.9660 N   0  0  0  0  0  0  0  0  0  0  0  0
   37.9000   23.8830   33.2870 C   0  0  0  0  0  0  0  0  0  0  0  0
   39.0550   23.8430   33.9650 N   0  0  0  0  0  0  0  0  0  0  0  0
   40.5780   25.1320   34.9010 H   0  0  0  0  0  0  0  0  0  0  0  0
   39.4300   27.1710   34.2880 H   0  0  0  0  0  0  0  0  0  0  0  0
   37.4570   22.9200   32.9970 H   0  0  0  0  0  0  0  0  0  0  0  0
  1  2  1  0  0  0  0
  2  3  1  0  0  0  0
  3 30  1  0  0  0  0
  3  4  2  0  0  0  0
  4  9  1  0  0  0  0
  5  4  1  0  0  0  0
  5 13  1  0  0  0  0
  6  5  2  0  0  0  0
  7  6  1  0  0  0  0
  8  2  2  0  0  0  0
  8  6  1  0  0  0  0
 10  8  1  0  0  0  0
 11 12  1  0  0  0  0
 12 17  1  0  0  0  0
 13 12  2  0  0  0  0
 13 14  1  0  0  0  0
 14 15  2  0  0  0  0
 15 16  1  0  0  0  0
 15 19  1  0  0  0  0
 16 20  1  0  0  0  0
 17 21  1  0  0  0  0
 17 16  2  0  0  0  0
 18 14  1  0  0  0  0
 21 27  2  0  0  0  0
 22 21  1  0  0  0  0
 22 23  2  0  0  0  0
 23 25  1  0  0  0  0
 24 23  1  0  0  0  0
 25 26  1  0  0  0  0
 27 25  1  0  0  0  0
 28 34  1  0  0  0  0
 29 35  1  0  0  0  0
 29 28  1  0  0  0  0
 30 29  2  0  0  0  0
 31 32  2  0  0  0  0
 31 30  1  0  0  0  0
 32 33  1  0  0  0  0
 33 28  2  0  0  0  0
 36 32  1  0  0  0  0
M  END
>  <minimizedAffinity>
-5.78102541

$$$$

 OpenBabel03262523493D

 36 39  0  0  0  0  0  0  0  0999 V2000
   37.5210   28.5360   29.0660 Cl  0  0  0  0  0  0  0  0  0  0  0  0
   36.8260   29.1590   30.5380 C   0  0  0  0  0  0  0  0  0  0  0  0
   36.7580   28.3710   31.6610 C   0  0  0  0  0  0  0  0  0  0  0  0
   36.2020   28.9070   32.7980 C   0  0  0  0  0  0  0  0  0  0  0  0
   35.7180   30.1910   32.8440 C   0  0  0  0  0  0  0  0  0  0  0  0
   35.8040   30.9750   31.6750 C   0  0  0  0  0  0  0  0  0  0  0  0
   35.1790   32.5980   31.7720 Cl  0  0  0  0  0  0  0  0  0  0  0  0
   36.3570   30.4600   30.5190 C   0  0  0  0  0  0  0  0  0  0  0  0
   36.1740   28.2420   33.6510 H   0  0  0  0  0  0  0  0  0  0  0  0
   36.4200   31.0610   29.6290 H   0  0  0  0  0  0  0  0  0  0  0  0
   32.8340   29.4810   33.4780 Cl  0  0  0  0  0  0  0  0  0  0  0  0
   33.8600   30.4150   34.5520 C   0  0  0  0  0  0  0  0  0  0  0  0
   35.1530   30.6470   34.1020 C   0  0  0  0  0  0  0  0  0  0  0  0
   36.0260   31.3800   34.9000 C   0  0  0  0  0  0  0  0  0  0  0  0
   35.6330   31.8810   36.1280 C   0  0  0  0  0  0  0  0  0  0  0  0
   34.3500   31.6350   36.5440 C   0  0  0  0  0  0  0  0  0  0  0  0
   33.4500   30.9070   35.7740 C   0  0  0  0  0  0  0  0  0  0  0  0
   37.0370   31.5920   34.6070 H   0  0  0  0  0  0  0  0  0  0  0  0
   36.2940   32.4540   36.7670 H   0  0  0  0  0  0  0  0  0  0  0  0
   33.9920   32.0070   37.5000 H   0  0  0  0  0  0  0  0  0  0  0  0
   32.0760   30.6340   36.2020 C   0  0  0  0  0  0  0  0  0  0  0  0
   30.9400   31.3040   36.0020 N   0  0  0  0  0  0  0  0  0  0  0  0
   29.8990   30.6800   36.5860 C   0  0  0  0  0  0  0  0  0  0  0  0
   28.8600   30.9630   36.6080 H   0  0  0  0  0  0  0  0  0  0  0  0
   30.4470   29.5730   37.1670 N   0  0  0  0  0  0  0  0  0  0  0  0
   29.9390   28.8270   37.7260 H   0  0  0  0  0  0  0  0  0  0  0  0
   31.7490   29.5530   36.9340 N   0  0  0  0  0  0  0  0  0  0  0  0
   39.1110   25.4000   31.7750 C   0  0  0  0  0  0  0  0  0  0  0  0
   38.6170   26.7070   31.8710 C   0  0  0  0  0  0  0  0  0  0  0  0
   37.2910   26.9950   31.5650 C   0  0  0  0  0  0  0  0  0  0  0  0
   36.5060   25.9560   31.1720 N   0  0  0  0  0  0  0  0  0  0  0  0
   37.0060   24.7060   31.0890 C   0  0  0  0  0  0  0  0  0  0  0  0
   38.2820   24.4270   31.3830 N   0  0  0  0  0  0  0  0  0  0  0  0
   40.1660   25.3560   32.0510 H   0  0  0  0  0  0  0  0  0  0  0  0
   39.1930   27.5680   32.1750 H   0  0  0  0  0  0  0  0  0  0  0  0
   36.3700   23.8680   30.7720 H   0  0  0  0  0  0  0  0  0  0  0  0
  1  2  1  0  0  0  0
  2  3  1  0  0  0  0
  3  4  2  0  0  0  0
  4  5  1  0  0  0  0
  4  9  1  0  0  0  0
  5 13  1  0  0  0  0
  6  7  1  0  0  0  0
  6  5  2  0  0  0  0
  8  2  2  0  0  0  0
  8  6  1  0  0  0  0
 10  8  1  0  0  0  0
 11 12  1  0  0  0  0
 12 17  1  0  0  0  0
 13 12  2  0  0  0  0
 13 14  1  0  0  0  0
 14 15  2  0  0  0  0
 15 16  1  0  0  0  0
 15 19  1  0  0  0  0
 16 20  1  0  0  0  0
 17 21  1  0  0  0  0
 17 16  2  0  0  0  0
 18 14  1  0  0  0  0
 21 27  2  0  0  0  0
 22 21  1  0  0  0  0
 22 23  2  0  0  0  0
 23 24  1  0  0  0  0
 23 25  1  0  0  0  0
 25 26  1  0  0  0  0
 27 25  1  0  0  0  0
 28 29  1  0  0  0  0
 28 34  1  0  0  0  0
 29 35  1  0  0  0  0
 30  3  1  0  0  0  0
 30 29  2  0  0  0  0
 31 30  1  0  0  0  0
 32 31  2  0  0  0  0
 32 33  1  0  0  0  0
 33 28  2  0  0  0  0
 36 32  1  0  0  0  0
M  END
>  <minimizedAffinity>
-5.7711668

$$$$

 OpenBabel03262523493D

 36 39  0  0  0  0  0  0  0  0999 V2000
   33.4640   31.1050   31.3410 Cl  0  0  0  0  0  0  0  0  0  0  0  0
   34.5610   30.0060   32.1330 C   0  0  0  0  0  0  0  0  0  0  0  0
   34.2750   29.5210   33.3850 C   0  0  0  0  0  0  0  0  0  0  0  0
   35.1710   28.6570   33.9680 C   0  0  0  0  0  0  0  0  0  0  0  0
   36.3290   28.2690   33.3420 C   0  0  0  0  0  0  0  0  0  0  0  0
   36.5950   28.7830   32.0570 C   0  0  0  0  0  0  0  0  0  0  0  0
   38.0740   28.2680   31.2960 Cl  0  0  0  0  0  0  0  0  0  0  0  0
   35.7100   29.6540   31.4490 C   0  0  0  0  0  0  0  0  0  0  0  0
   34.8940   28.3070   34.9540 H   0  0  0  0  0  0  0  0  0  0  0  0
   35.9160   30.0440   30.4690 H   0  0  0  0  0  0  0  0  0  0  0  0
   36.5390   25.4030   32.3550 Cl  0  0  0  0  0  0  0  0  0  0  0  0
   37.4130   26.0140   33.7490 C   0  0  0  0  0  0  0  0  0  0  0  0
   37.1980   27.3510   34.0580 C   0  0  0  0  0  0  0  0  0  0  0  0
   37.8580   27.9070   35.1500 C   0  0  0  0  0  0  0  0  0  0  0  0
   38.7200   27.1580   35.9300 C   0  0  0  0  0  0  0  0  0  0  0  0
   38.9120   25.8410   35.5980 C   0  0  0  0  0  0  0  0  0  0  0  0
   38.2700   25.2520   34.5150 C   0  0  0  0  0  0  0  0  0  0  0  0
   37.7330   28.9330   35.4400 H   0  0  0  0  0  0  0  0  0  0  0  0
   39.2450   27.5680   36.7840 H   0  0  0  0  0  0  0  0  0  0  0  0
   39.5790   25.2110   36.1800 H   0  0  0  0  0  0  0  0  0  0  0  0
   38.4620   23.8470   34.1460 C   0  0  0  0  0  0  0  0  0  0  0  0
   39.2140   23.2780   33.2030 N   0  0  0  0  0  0  0  0  0  0  0  0
   39.0830   21.9370   33.2200 C   0  0  0  0  0  0  0  0  0  0  0  0
   39.5510   21.1980   32.5930 H   0  0  0  0  0  0  0  0  0  0  0  0
   38.2010   21.6940   34.2340 N   0  0  0  0  0  0  0  0  0  0  0  0
   37.8450   20.7480   34.5580 H   0  0  0  0  0  0  0  0  0  0  0  0
   37.8350   22.8410   34.7820 N   0  0  0  0  0  0  0  0  0  0  0  0
   30.6770   29.6210   34.5790 C   0  0  0  0  0  0  0  0  0  0  0  0
   31.8640   29.1880   33.9750 C   0  0  0  0  0  0  0  0  0  0  0  0
   33.0150   29.9670   34.0200 C   0  0  0  0  0  0  0  0  0  0  0  0
   32.9330   31.1580   34.6730 N   0  0  0  0  0  0  0  0  0  0  0  0
   31.7780   31.5510   35.2470 C   0  0  0  0  0  0  0  0  0  0  0  0
   30.6680   30.8030   35.2040 N   0  0  0  0  0  0  0  0  0  0  0  0
   29.8780   28.8890   34.4470 H   0  0  0  0  0  0  0  0  0  0  0  0
   31.9870   28.2560   33.4450 H   0  0  0  0  0  0  0  0  0  0  0  0
   31.7130   32.5130   35.7740 H   0  0  0  0  0  0  0  0  0  0  0  0
  1  2  1  0  0  0  0
  2  3  1  0  0  0  0
  3  4  2  0  0  0  0
  3 30  1  0  0  0  0
  4  9  1  0  0  0  0
  5  4  1  0  0  0  0
  5 13  1  0  0  0  0
  6  5  2  0  0  0  0
  7  6  1  0  0  0  0
  8  6  1  0  0  0  0
  8  2  2  0  0  0  0
 10  8  1  0  0  0  0
 11 12  1  0  0  0  0
 12 13  2  0  0  0  0
 12 17  1  0  0  0  0
 13 14  1  0  0  0  0
 14 18  1  0  0  0  0
 14 15  2  0  0  0  0
 15 19  1  0  0  0  0
 16 15  1  0  0  0  0
 16 20  1  0  0  0  0
 17 16  2  0  0  0  0
 21 17  1  0  0  0  0
 21 27  2  0  0  0  0
 22 23  2  0  0  0  0
 22 21  1  0  0  0  0
 23 25  1  0  0  0  0
 24 23  1  0  0  0  0
 25 26  1  0  0  0  0
 25 27  1  0  0  0  0
 28 33  1  0  0  0  0
 29 30  1  0  0  0  0
 29 28  2  0  0  0  0
 30 31  2  0  0  0  0
 31 32  1  0  0  0  0
 32 36  1  0  0  0  0
 33 32  2  0  0  0  0
 34 28  1  0  0  0  0
 35 29  1  0  0  0  0
M  END
>  <minimizedAffinity>
-5.61169147

$$$$

 OpenBabel03262523493D

 36 39  0  0  0  0  0  0  0  0999 V2000
   36.3300   30.8660   31.0980 Cl  0  0  0  0  0  0  0  0  0  0  0  0
   36.6850   29.2150   31.5250 C   0  0  0  0  0  0  0  0  0  0  0  0
   36.1230   28.6500   32.6430 C   0  0  0  0  0  0  0  0  0  0  0  0
   36.4340   27.3430   32.9370 C   0  0  0  0  0  0  0  0  0  0  0  0
   37.2790   26.5960   32.1560 C   0  0  0  0  0  0  0  0  0  0  0  0
   37.8400   27.2040   31.0140 C   0  0  0  0  0  0  0  0  0  0  0  0
   38.9080   26.2240   30.0480 Cl  0  0  0  0  0  0  0  0  0  0  0  0
   37.5450   28.5150   30.6960 C   0  0  0  0  0  0  0  0  0  0  0  0
   35.9630   26.9510   33.8290 H   0  0  0  0  0  0  0  0  0  0  0  0
   37.9750   28.9760   29.8250 H   0  0  0  0  0  0  0  0  0  0  0  0
   35.4670   24.4030   31.0900 Cl  0  0  0  0  0  0  0  0  0  0  0  0
   36.8090   24.1060   32.1820 C   0  0  0  0  0  0  0  0  0  0  0  0
   37.5320   25.2260   32.5680 C   0  0  0  0  0  0  0  0  0  0  0  0
   38.6120   25.0700   33.4320 C   0  0  0  0  0  0  0  0  0  0  0  0
   38.9780   23.8250   33.9120 C   0  0  0  0  0  0  0  0  0  0  0  0
   38.2430   22.7380   33.5110 C   0  0  0  0  0  0  0  0  0  0  0  0
   37.1590   22.8570   32.6500 C   0  0  0  0  0  0  0  0  0  0  0  0
   39.2090   25.8960   33.7670 H   0  0  0  0  0  0  0  0  0  0  0  0
   39.8140   23.6770   34.5850 H   0  0  0  0  0  0  0  0  0  0  0  0
   38.4900   21.7390   33.8600 H   0  0  0  0  0  0  0  0  0  0  0  0
   36.3630   21.7070   32.2110 C   0  0  0  0  0  0  0  0  0  0  0  0
   35.2270   21.1890   32.6810 N   0  0  0  0  0  0  0  0  0  0  0  0
   34.8480   20.1160   31.9600 C   0  0  0  0  0  0  0  0  0  0  0  0
   33.9860   19.4830   32.0830 H   0  0  0  0  0  0  0  0  0  0  0  0
   35.8140   19.9880   31.0040 N   0  0  0  0  0  0  0  0  0  0  0  0
   35.8650   19.2510   30.2420 H   0  0  0  0  0  0  0  0  0  0  0  0
   36.7160   20.9430   31.1610 N   0  0  0  0  0  0  0  0  0  0  0  0
   34.8190   31.0150   35.3040 C   0  0  0  0  0  0  0  0  0  0  0  0
   35.6860   30.2210   34.5440 C   0  0  0  0  0  0  0  0  0  0  0  0
   35.2190   29.4930   33.4540 C   0  0  0  0  0  0  0  0  0  0  0  0
   33.8920   29.5900   33.1660 N   0  0  0  0  0  0  0  0  0  0  0  0
   33.0790   30.3630   33.9150 C   0  0  0  0  0  0  0  0  0  0  0  0
   33.5270   31.0640   34.9640 N   0  0  0  0  0  0  0  0  0  0  0  0
   35.3520   31.5130   36.1170 H   0  0  0  0  0  0  0  0  0  0  0  0
   36.7440   30.1060   34.7250 H   0  0  0  0  0  0  0  0  0  0  0  0
   32.0080   30.4400   33.6810 H   0  0  0  0  0  0  0  0  0  0  0  0
  1  2  1  0  0  0  0
  2  3  1  0  0  0  0
  3  4  2  0  0  0  0
  3 30  1  0  0  0  0
  4  9  1  0  0  0  0
  5 13  1  0  0  0  0
  5  4  1  0  0  0  0
  6  5  2  0  0  0  0
  7  6  1  0  0  0  0
  8  6  1  0  0  0  0
  8  2  2  0  0  0  0
 10  8  1  0  0  0  0
 11 12  1  0  0  0  0
 12 13  2  0  0  0  0
 12 17  1  0  0  0  0
 13 14  1  0  0  0  0
 14 18  1  0  0  0  0
 14 15  2  0  0  0  0
 15 19  1  0  0  0  0
 16 20  1  0  0  0  0
 16 15  1  0  0  0  0
 17 16  2  0  0  0  0
 21 17  1  0  0  0  0
 21 22  1  0  0  0  0
 23 24  1  0  0  0  0
 23 22  2  0  0  0  0
 25 27  1  0  0  0  0
 25 23  1  0  0  0  0
 26 25  1  0  0  0  0
 27 21  2  0  0  0  0
 28 34  1  0  0  0  0
 29 35  1  0  0  0  0
 29 28  2  0  0  0  0
 30 29  1  0  0  0  0
 31 30  2  0  0  0  0
 31 32  1  0  0  0  0
 32 33  2  0  0  0  0
 33 28  1  0  0  0  0
 36 32  1  0  0  0  0
M  END
>  <minimizedAffinity>
-5.58038855

$$$$

 OpenBabel03262523493D

 36 39  0  0  0  0  0  0  0  0999 V2000
   38.5070   21.8840   34.5120 Cl  0  0  0  0  0  0  0  0  0  0  0  0
   38.1310   23.4460   33.8370 C   0  0  0  0  0  0  0  0  0  0  0  0
   37.3260   23.5490   32.7290 C   0  0  0  0  0  0  0  0  0  0  0  0
   37.0580   24.8030   32.2340 C   0  0  0  0  0  0  0  0  0  0  0  0
   37.5650   25.9420   32.8080 C   0  0  0  0  0  0  0  0  0  0  0  0
   38.3880   25.8040   33.9450 C   0  0  0  0  0  0  0  0  0  0  0  0
   39.0120   27.2720   34.6430 Cl  0  0  0  0  0  0  0  0  0  0  0  0
   38.6730   24.5550   34.4610 C   0  0  0  0  0  0  0  0  0  0  0  0
   36.4190   24.8230   31.3610 H   0  0  0  0  0  0  0  0  0  0  0  0
   39.3010   24.4540   35.3280 H   0  0  0  0  0  0  0  0  0  0  0  0
   39.1190   26.8520   30.3610 Cl  0  0  0  0  0  0  0  0  0  0  0  0
   37.8120   27.7790   31.0790 C   0  0  0  0  0  0  0  0  0  0  0  0
   37.2120   27.2110   32.1950 C   0  0  0  0  0  0  0  0  0  0  0  0
   36.1680   27.8870   32.8190 C   0  0  0  0  0  0  0  0  0  0  0  0
   35.7180   29.1090   32.3520 C   0  0  0  0  0  0  0  0  0  0  0  0
   36.3310   29.6420   31.2470 C   0  0  0  0  0  0  0  0  0  0  0  0
   37.3770   28.9960   30.5990 C   0  0  0  0  0  0  0  0  0  0  0  0
   35.6640   27.5000   33.6850 H   0  0  0  0  0  0  0  0  0  0  0  0
   34.9070   29.6540   32.8190 H   0  0  0  0  0  0  0  0  0  0  0  0
   36.0140   30.5990   30.8410 H   0  0  0  0  0  0  0  0  0  0  0  0
   38.0440   29.5510   29.4180 C   0  0  0  0  0  0  0  0  0  0  0  0
   38.9700   30.5030   29.2940 N   0  0  0  0  0  0  0  0  0  0  0  0
   39.3000   30.6930   28.0020 C   0  0  0  0  0  0  0  0  0  0  0  0
   40.0080   31.3820   27.5730 H   0  0  0  0  0  0  0  0  0  0  0  0
   38.5250   29.8020   27.3160 N   0  0  0  0  0  0  0  0  0  0  0  0
   38.5010   29.6520   26.2660 H   0  0  0  0  0  0  0  0  0  0  0  0
   37.7770   29.1230   28.1700 N   0  0  0  0  0  0  0  0  0  0  0  0
   35.0670   20.6080   31.9370 C   0  0  0  0  0  0  0  0  0  0  0  0
   35.5510   21.7970   32.4960 C   0  0  0  0  0  0  0  0  0  0  0  0
   36.8030   22.2940   32.1460 C   0  0  0  0  0  0  0  0  0  0  0  0
   37.5250   21.5770   31.2430 N   0  0  0  0  0  0  0  0  0  0  0  0
   37.0340   20.4350   30.7200 C   0  0  0  0  0  0  0  0  0  0  0  0
   35.8300   19.9540   31.0560 N   0  0  0  0  0  0  0  0  0  0  0  0
   34.0750   20.3680   32.3230 H   0  0  0  0  0  0  0  0  0  0  0  0
   35.0240   22.4060   33.2150 H   0  0  0  0  0  0  0  0  0  0  0  0
   37.6180   19.8560   29.9910 H   0  0  0  0  0  0  0  0  0  0  0  0
  2  8  1  0  0  0  0
  2  1  1  0  0  0  0
  3  2  2  0  0  0  0
  4  3  1  0  0  0  0
  4  5  2  0  0  0  0
  5  6  1  0  0  0  0
  6  8  2  0  0  0  0
  6  7  1  0  0  0  0
  8 10  1  0  0  0  0
  9  4  1  0  0  0  0
 11 12  1  0  0  0  0
 12 13  1  0  0  0  0
 13  5  1  0  0  0  0
 13 14  2  0  0  0  0
 14 18  1  0  0  0  0
 15 19  1  0  0  0  0
 15 14  1  0  0  0  0
 16 15  2  0  0  0  0
 17 12  2  0  0  0  0
 17 16  1  0  0  0  0
 20 16  1  0  0  0  0
 21 17  1  0  0  0  0
 22 21  1  0  0  0  0
 23 22  2  0  0  0  0
 24 23  1  0  0  0  0
 25 23  1  0  0  0  0
 25 27  1  0  0  0  0
 26 25  1  0  0  0  0
 27 21  2  0  0  0  0
 28 34  1  0  0  0  0
 28 29  1  0  0  0  0
 29 35  1  0  0  0  0
 30 29  2  0  0  0  0
 30  3  1  0  0  0  0
 31 30  1  0  0  0  0
 32 33  1  0  0  0  0
 32 31  2  0  0  0  0
 33 28  2  0  0  0  0
 36 32  1  0  0  0  0
M  END
>  <minimizedAffinity>
-5.56298685

$$$$
