
 OpenBabel03272509213D

 44 48  0  0  0  0  0  0  0  0999 V2000
   38.0170   31.2810   47.7710 C   0  0  0  0  0  0  0  0  0  0  0  0
   37.0820   31.3120   48.7860 C   0  0  0  0  0  0  0  0  0  0  0  0
   37.1850   32.4190   49.6300 C   0  0  0  0  0  0  0  0  0  0  0  0
   38.1630   33.4020   49.4440 C   0  0  0  0  0  0  0  0  0  0  0  0
   39.0810   33.2820   48.3700 C   0  0  0  0  0  0  0  0  0  0  0  0
   38.9900   32.1870   47.5230 C   0  0  0  0  0  0  0  0  0  0  0  0
   36.5030   32.5480   50.4630 H   0  0  0  0  0  0  0  0  0  0  0  0
   38.2360   34.2580   50.1030 H   0  0  0  0  0  0  0  0  0  0  0  0
   39.8280   34.0360   48.2280 H   0  0  0  0  0  0  0  0  0  0  0  0
   34.9270   30.3130   48.2170 C   0  0  0  0  0  0  0  0  0  0  0  0
   36.0820   30.3090   48.9800 C   0  0  0  0  0  0  0  0  0  0  0  0
   36.2200   29.2880   49.9380 C   0  0  0  0  0  0  0  0  0  0  0  0
   35.2340   28.3780   50.0610 N   0  0  0  0  0  0  0  0  0  0  0  0
   34.1130   28.4230   49.2860 C   0  0  0  0  0  0  0  0  0  0  0  0
   33.9680   29.3830   48.3760 N   0  0  0  0  0  0  0  0  0  0  0  0
   34.7510   31.0700   47.4590 H   0  0  0  0  0  0  0  0  0  0  0  0
   33.4500   27.5950   49.5520 H   0  0  0  0  0  0  0  0  0  0  0  0
   37.4460   29.2320   50.7910 C   0  0  0  0  0  0  0  0  0  0  0  0
   37.3360   29.8660   51.7010 H   0  0  0  0  0  0  0  0  0  0  0  0
   37.6710   28.1890   51.0180 H   0  0  0  0  0  0  0  0  0  0  0  0
   38.2840   29.6510   50.1630 H   0  0  0  0  0  0  0  0  0  0  0  0
   37.9960   30.2050   46.8670 O   0  0  0  0  0  0  0  0  0  0  0  0
   37.4030   30.3320   46.0440 H   0  0  0  0  0  0  0  0  0  0  0  0
   39.9060   32.1240   46.5000 O   0  0  0  0  0  0  0  0  0  0  0  0
   40.1810   30.9030   44.3440 C   0  0  0  0  0  0  0  0  0  0  0  0
   39.6480   31.8730   45.1860 C   0  0  0  0  0  0  0  0  0  0  0  0
   38.7080   32.7520   44.6760 C   0  0  0  0  0  0  0  0  0  0  0  0
   38.2950   32.6700   43.3300 C   0  0  0  0  0  0  0  0  0  0  0  0
   37.4320   33.3500   42.5610 N   0  0  0  0  0  0  0  0  0  0  0  0
   37.4160   32.8470   41.3140 C   0  0  0  0  0  0  0  0  0  0  0  0
   38.2980   31.8160   41.3010 N   0  0  0  0  0  0  0  0  0  0  0  0
   38.8530   31.6860   42.5320 C   0  0  0  0  0  0  0  0  0  0  0  0
   39.7830   30.8150   43.0330 C   0  0  0  0  0  0  0  0  0  0  0  0
   40.9040   30.2670   44.8330 H   0  0  0  0  0  0  0  0  0  0  0  0
   38.1990   33.5650   45.2070 H   0  0  0  0  0  0  0  0  0  0  0  0
   36.8460   34.1700   42.8940 H   0  0  0  0  0  0  0  0  0  0  0  0
   36.7900   33.2470   40.5320 H   0  0  0  0  0  0  0  0  0  0  0  0
   40.3810   29.7730   42.2010 C   0  0  0  0  0  0  0  0  0  0  0  0
   41.3610   30.0180   41.3000 N   0  0  0  0  0  0  0  0  0  0  0  0
   41.7100   28.8690   40.6850 C   0  0  0  0  0  0  0  0  0  0  0  0
   42.4540   28.6960   39.9150 H   0  0  0  0  0  0  0  0  0  0  0  0
   40.9010   27.9270   41.2500 N   0  0  0  0  0  0  0  0  0  0  0  0
   40.9710   26.9140   40.9390 H   0  0  0  0  0  0  0  0  0  0  0  0
   40.1040   28.4630   42.1570 N   0  0  0  0  0  0  0  0  0  0  0  0
  1  2  1  0  0  0  0
  2 11  1  0  0  0  0
  2  3  2  0  0  0  0
  3  7  1  0  0  0  0
  4  3  1  0  0  0  0
  4  8  1  0  0  0  0
  5  4  2  0  0  0  0
  6  1  2  0  0  0  0
  6  5  1  0  0  0  0
  9  5  1  0  0  0  0
 10 15  2  0  0  0  0
 10 11  1  0  0  0  0
 11 12  2  0  0  0  0
 12 13  1  0  0  0  0
 12 18  1  0  0  0  0
 14 17  1  0  0  0  0
 14 13  2  0  0  0  0
 15 14  1  0  0  0  0
 16 10  1  0  0  0  0
 18 20  1  0  0  0  0
 18 19  1  0  0  0  0
 21 18  1  0  0  0  0
 22  1  1  0  0  0  0
 23 22  1  0  0  0  0
 24  6  1  0  0  0  0
 25 34  1  0  0  0  0
 25 26  1  0  0  0  0
 26 24  1  0  0  0  0
 27 26  2  0  0  0  0
 27 35  1  0  0  0  0
 28 27  1  0  0  0  0
 29 36  1  0  0  0  0
 29 28  1  0  0  0  0
 30 29  1  0  0  0  0
 31 30  2  0  0  0  0
 31 32  1  0  0  0  0
 32 33  1  0  0  0  0
 32 28  2  0  0  0  0
 33 25  2  0  0  0  0
 37 30  1  0  0  0  0
 38 33  1  0  0  0  0
 39 38  1  0  0  0  0
 40 42  1  0  0  0  0
 40 39  2  0  0  0  0
 41 40  1  0  0  0  0
 42 44  1  0  0  0  0
 43 42  1  0  0  0  0
 44 38  2  0  0  0  0
M  END
>  <minimizedAffinity>
-7.38687563

>  <minimizedRMSD>
0.478110701

$$$$
