
 OpenBabel03272505093D

 27 29  0  0  0  0  0  0  0  0999 V2000
   36.3060   30.8210   45.6190 Cl  0  0  0  0  0  0  0  0  0  0  0  0
   36.5880   30.5750   47.3250 C   0  0  0  0  0  0  0  0  0  0  0  0
   37.8300   30.8870   47.7890 C   0  0  0  0  0  0  0  0  0  0  0  0
   38.0760   30.6980   49.1510 C   0  0  0  0  0  0  0  0  0  0  0  0
   37.0770   30.2120   49.9650 C   0  0  0  0  0  0  0  0  0  0  0  0
   35.8520   29.9210   49.4280 C   0  0  0  0  0  0  0  0  0  0  0  0
   35.5550   30.0850   48.1100 C   0  0  0  0  0  0  0  0  0  0  0  0
   39.0510   30.9360   49.5430 H   0  0  0  0  0  0  0  0  0  0  0  0
   37.3000   30.0780   51.0150 H   0  0  0  0  0  0  0  0  0  0  0  0
   35.0750   29.5400   50.0790 H   0  0  0  0  0  0  0  0  0  0  0  0
   40.1170   33.2390   46.1790 C   0  0  0  0  0  0  0  0  0  0  0  0
   40.8320   32.4400   45.2550 C   0  0  0  0  0  0  0  0  0  0  0  0
   40.5040   31.0820   45.2050 C   0  0  0  0  0  0  0  0  0  0  0  0
   39.5310   30.6040   46.0340 N   0  0  0  0  0  0  0  0  0  0  0  0
   38.8810   31.4060   46.8950 C   0  0  0  0  0  0  0  0  0  0  0  0
   39.1820   32.6970   46.9520 N   0  0  0  0  0  0  0  0  0  0  0  0
   40.3340   34.2850   46.2520 H   0  0  0  0  0  0  0  0  0  0  0  0
   41.5970   32.8790   44.6210 H   0  0  0  0  0  0  0  0  0  0  0  0
   41.0280   30.4360   44.5100 H   0  0  0  0  0  0  0  0  0  0  0  0
   33.9700   29.7180   47.3620 S   0  0  0  0  0  0  0  0  0  0  0  0
   33.8830   27.9970   46.8950 C   0  0  0  0  0  0  0  0  0  0  0  0
   33.7980   27.1230   47.9140 N   0  0  0  0  0  0  0  0  0  0  0  0
   33.7380   25.8620   47.4650 C   0  0  0  0  0  0  0  0  0  0  0  0
   33.6650   24.9270   48.0080 H   0  0  0  0  0  0  0  0  0  0  0  0
   33.7870   25.9590   46.1260 N   0  0  0  0  0  0  0  0  0  0  0  0
   33.7690   25.2310   45.3730 H   0  0  0  0  0  0  0  0  0  0  0  0
   33.8760   27.2460   45.7560 N   0  0  0  0  0  0  0  0  0  0  0  0
  1  2  1  0  0  0  0
  2  3  2  0  0  0  0
  2  7  1  0  0  0  0
  3  4  1  0  0  0  0
  4  8  1  0  0  0  0
  4  5  2  0  0  0  0
  5  9  1  0  0  0  0
  6  5  1  0  0  0  0
  6 10  1  0  0  0  0
  7  6  2  0  0  0  0
 11 17  1  0  0  0  0
 11 16  1  0  0  0  0
 12 11  2  0  0  0  0
 13 12  1  0  0  0  0
 13 14  2  0  0  0  0
 14 15  1  0  0  0  0
 15 16  2  0  0  0  0
 15  3  1  0  0  0  0
 18 12  1  0  0  0  0
 19 13  1  0  0  0  0
 20  7  1  0  0  0  0
 21 20  1  0  0  0  0
 21 22  1  0  0  0  0
 23 22  2  0  0  0  0
 23 24  1  0  0  0  0
 25 23  1  0  0  0  0
 26 25  1  0  0  0  0
 27 25  1  0  0  0  0
 27 21  2  0  0  0  0
M  END
>  <minimizedAffinity>
-5.22329998

>  <minimizedRMSD>
1.04144514

$$$$
