
 OpenBabel03262521213D

 31 32  0  0  0  0  0  0  0  0999 V2000
   38.4900   33.0050   48.9540 C   0  0  0  0  0  0  0  0  0  0  0  0
   37.9850   33.8760   48.4420 H   0  0  0  0  0  0  0  0  0  0  0  0
   39.3180   33.4720   49.5500 H   0  0  0  0  0  0  0  0  0  0  0  0
   37.6810   32.1900   49.6530 C   0  0  0  0  0  0  0  0  0  0  0  0
   37.1780   32.7370   50.5130 H   0  0  0  0  0  0  0  0  0  0  0  0
   36.7560   31.7850   49.1370 H   0  0  0  0  0  0  0  0  0  0  0  0
   38.3020   30.9890   50.2770 C   0  0  0  0  0  0  0  0  0  0  0  0
   38.7720   30.2800   49.5510 H   0  0  0  0  0  0  0  0  0  0  0  0
   39.1410   31.3420   50.9350 H   0  0  0  0  0  0  0  0  0  0  0  0
   37.1960   30.0470   51.3210 S   0  0  0  0  0  0  0  0  0  0  0  0
   35.8010   29.4310   50.3950 C   0  0  0  0  0  0  0  0  0  0  0  0
   34.4720   29.3400   50.5840 N   0  0  0  0  0  0  0  0  0  0  0  0
   33.9180   28.7600   49.4970 C   0  0  0  0  0  0  0  0  0  0  0  0
   32.9400   28.4640   49.1410 H   0  0  0  0  0  0  0  0  0  0  0  0
   34.9390   28.5010   48.6480 N   0  0  0  0  0  0  0  0  0  0  0  0
   35.0460   28.0710   47.6940 H   0  0  0  0  0  0  0  0  0  0  0  0
   36.0980   28.9080   49.1880 N   0  0  0  0  0  0  0  0  0  0  0  0
   39.0580   32.1170   48.0930 O   0  0  0  0  0  0  0  0  0  0  0  0
   38.9890   32.3890   46.7400 C   0  0  0  0  0  0  0  0  0  0  0  0
   40.1900   32.8040   46.2260 C   0  0  0  0  0  0  0  0  0  0  0  0
   40.2780   33.1180   44.8650 C   0  0  0  0  0  0  0  0  0  0  0  0
   39.1220   32.9850   44.1100 N   0  0  0  0  0  0  0  0  0  0  0  0
   37.9460   32.5690   44.6590 C   0  0  0  0  0  0  0  0  0  0  0  0
   37.9140   32.2830   45.9610 N   0  0  0  0  0  0  0  0  0  0  0  0
   37.0730   32.8010   42.4530 C   0  0  0  0  0  0  0  0  0  0  0  0
   38.1960   33.1760   41.9570 O   0  0  0  0  0  0  0  0  0  0  0  0
   36.8120   32.4620   43.8160 N   0  0  0  0  0  0  0  0  0  0  0  0
   41.1050   32.9220   46.7670 H   0  0  0  0  0  0  0  0  0  0  0  0
   41.1960   33.4500   44.4080 H   0  0  0  0  0  0  0  0  0  0  0  0
   36.2380   32.7390   41.7460 H   0  0  0  0  0  0  0  0  0  0  0  0
   35.8880   32.1600   44.1960 H   0  0  0  0  0  0  0  0  0  0  0  0
  1  3  1  0  0  0  0
  1  4  1  0  0  0  0
  2  1  1  0  0  0  0
  4  7  1  0  0  0  0
  4  5  1  0  0  0  0
  6  4  1  0  0  0  0
  7  9  1  0  0  0  0
  7 10  1  0  0  0  0
  8  7  1  0  0  0  0
 11 12  1  0  0  0  0
 11 10  1  0  0  0  0
 13 12  2  0  0  0  0
 14 13  1  0  0  0  0
 15 17  1  0  0  0  0
 15 13  1  0  0  0  0
 16 15  1  0  0  0  0
 17 11  2  0  0  0  0
 18  1  1  0  0  0  0
 19 18  1  0  0  0  0
 20 19  1  0  0  0  0
 20 28  1  0  0  0  0
 21 20  2  0  0  0  0
 22 23  2  0  0  0  0
 22 21  1  0  0  0  0
 23 24  1  0  0  0  0
 24 19  2  0  0  0  0
 25 27  1  0  0  0  0
 26 25  2  0  0  0  0
 27 31  1  0  0  0  0
 27 23  1  0  0  0  0
 29 21  1  0  0  0  0
 30 25  1  0  0  0  0
M  END
>  <minimizedAffinity>
-5.40940475

>  <minimizedRMSD>
1.45483661

$$$$
