
 OpenBabel03272508133D

 32 34  0  0  0  0  0  0  0  0999 V2000
   37.8390   23.2760   34.1460 Cl  0  0  0  0  0  0  0  0  0  0  0  0
   37.8780   24.9700   34.6660 C   0  0  0  0  0  0  0  0  0  0  0  0
   37.3850   26.0250   33.8920 C   0  0  0  0  0  0  0  0  0  0  0  0
   37.4750   27.3090   34.4150 C   0  0  0  0  0  0  0  0  0  0  0  0
   38.0290   27.5260   35.6490 C   0  0  0  0  0  0  0  0  0  0  0  0
   38.5170   26.5010   36.4190 C   0  0  0  0  0  0  0  0  0  0  0  0
   38.4370   25.2330   35.9220 C   0  0  0  0  0  0  0  0  0  0  0  0
   37.0630   28.0440   33.7300 H   0  0  0  0  0  0  0  0  0  0  0  0
   38.0510   28.5610   35.9620 H   0  0  0  0  0  0  0  0  0  0  0  0
   38.9510   26.6960   37.3920 H   0  0  0  0  0  0  0  0  0  0  0  0
   38.9500   24.1240   36.7270 C   0  0  0  0  0  0  0  0  0  0  0  0
   40.1080   23.4900   36.4630 N   0  0  0  0  0  0  0  0  0  0  0  0
   40.3010   22.5100   37.3910 C   0  0  0  0  0  0  0  0  0  0  0  0
   41.1220   21.7920   37.5040 H   0  0  0  0  0  0  0  0  0  0  0  0
   39.2290   22.5600   38.2350 N   0  0  0  0  0  0  0  0  0  0  0  0
   39.0140   21.9590   39.0850 H   0  0  0  0  0  0  0  0  0  0  0  0
   38.4180   23.5460   37.8170 N   0  0  0  0  0  0  0  0  0  0  0  0
   36.8730   25.6140   32.6990 O   0  0  0  0  0  0  0  0  0  0  0  0
   38.8140   26.3340   31.1720 O   0  0  0  0  0  0  0  0  0  0  0  0
   37.3710   25.9740   31.1430 P   0  0  1  0  0  0  0  0  0  0  0  0
   37.1680   24.5250   30.2680 O   0  0  0  0  0  0  0  0  0  0  0  0
   38.0170   24.0330   30.3290 H   0  0  0  0  0  0  0  0  0  0  0  0
   36.3690   27.1840   30.4990 O   0  0  0  0  0  0  0  0  0  0  0  0
   36.3470   30.7400   31.4760 C   0  0  0  0  0  0  0  0  0  0  0  0
   36.1080   29.3720   31.6280 C   0  0  0  0  0  0  0  0  0  0  0  0
   36.4910   28.5210   30.5890 C   0  0  0  0  0  0  0  0  0  0  0  0
   37.0790   29.0760   29.4810 N   0  0  0  0  0  0  0  0  0  0  0  0
   37.2910   30.4020   29.3740 C   0  0  0  0  0  0  0  0  0  0  0  0
   36.9260   31.2300   30.3690 N   0  0  0  0  0  0  0  0  0  0  0  0
   36.0180   31.3430   32.3330 H   0  0  0  0  0  0  0  0  0  0  0  0
   35.6570   28.8720   32.4580 H   0  0  0  0  0  0  0  0  0  0  0  0
   37.7520   30.8570   28.5120 H   0  0  0  0  0  0  0  0  0  0  0  0
  1  2  1  0  0  0  0
  2  7  1  0  0  0  0
  3  4  1  0  0  0  0
  3  2  2  0  0  0  0
  4  5  2  0  0  0  0
  5  9  1  0  0  0  0
  5  6  1  0  0  0  0
  6 10  1  0  0  0  0
  7  6  2  0  0  0  0
  7 11  1  0  0  0  0
  8  4  1  0  0  0  0
 11 17  2  0  0  0  0
 12 11  1  0  0  0  0
 12 13  2  0  0  0  0
 13 14  1  0  0  0  0
 13 15  1  0  0  0  0
 15 16  1  0  0  0  0
 17 15  1  0  0  0  0
 18  3  1  0  0  0  0
 20 19  2  6  0  0  0
 20 18  1  0  0  0  0
 21 22  1  0  0  0  0
 21 20  1  0  0  0  0
 23 26  1  0  0  0  0
 23 20  1  0  0  0  0
 24 25  1  0  0  0  0
 24 30  1  0  0  0  0
 25 31  1  0  0  0  0
 26 25  2  0  0  0  0
 27 26  1  0  0  0  0
 28 27  2  0  0  0  0
 28 29  1  0  0  0  0
 29 24  2  0  0  0  0
 32 28  1  0  0  0  0
M  END
>  <minimizedAffinity>
-5.68286848

$$$$

 OpenBabel03272508133D

 32 34  0  0  0  0  0  0  0  0999 V2000
   38.4520   22.9890   34.3410 Cl  0  0  0  0  0  0  0  0  0  0  0  0
   38.3970   24.7400   34.6090 C   0  0  0  0  0  0  0  0  0  0  0  0
   38.3410   25.6770   33.5720 C   0  0  0  0  0  0  0  0  0  0  0  0
   38.3020   27.0230   33.9160 C   0  0  0  0  0  0  0  0  0  0  0  0
   38.3170   27.4110   35.2300 C   0  0  0  0  0  0  0  0  0  0  0  0
   38.3720   26.5040   36.2570 C   0  0  0  0  0  0  0  0  0  0  0  0
   38.4110   25.1780   35.9390 C   0  0  0  0  0  0  0  0  0  0  0  0
   38.2600   27.6550   33.0340 H   0  0  0  0  0  0  0  0  0  0  0  0
   38.2830   28.4800   35.3880 H   0  0  0  0  0  0  0  0  0  0  0  0
   38.3830   26.8340   37.2880 H   0  0  0  0  0  0  0  0  0  0  0  0
   38.4690   24.1920   37.0180 C   0  0  0  0  0  0  0  0  0  0  0  0
   37.4460   23.9510   37.8590 N   0  0  0  0  0  0  0  0  0  0  0  0
   37.8160   22.9840   38.7450 C   0  0  0  0  0  0  0  0  0  0  0  0
   37.2570   22.5260   39.5700 H   0  0  0  0  0  0  0  0  0  0  0  0
   39.0960   22.6340   38.4240 N   0  0  0  0  0  0  0  0  0  0  0  0
   39.7310   21.9140   38.8820 H   0  0  0  0  0  0  0  0  0  0  0  0
   39.4780   23.3780   37.3740 N   0  0  0  0  0  0  0  0  0  0  0  0
   38.3330   25.1030   32.3370 O   0  0  0  0  0  0  0  0  0  0  0  0
   36.5310   26.3340   30.9760 O   0  0  0  0  0  0  0  0  0  0  0  0
   37.0900   24.9780   31.2260 P   0  0  1  0  0  0  0  0  0  0  0  0
   37.8280   24.4020   29.8000 O   0  0  0  0  0  0  0  0  0  0  0  0
   38.0940   25.1900   29.2770 H   0  0  0  0  0  0  0  0  0  0  0  0
   35.9500   23.8520   31.7830 O   0  0  0  0  0  0  0  0  0  0  0  0
   35.3840   20.2220   32.1070 C   0  0  0  0  0  0  0  0  0  0  0  0
   35.0920   21.5790   32.2640 C   0  0  0  0  0  0  0  0  0  0  0  0
   36.0040   22.5080   31.7570 C   0  0  0  0  0  0  0  0  0  0  0  0
   37.1310   22.0340   31.1350 N   0  0  0  0  0  0  0  0  0  0  0  0
   37.3740   20.7150   31.0040 C   0  0  0  0  0  0  0  0  0  0  0  0
   36.5020   19.8130   31.4890 N   0  0  0  0  0  0  0  0  0  0  0  0
   34.6200   19.5550   32.5310 H   0  0  0  0  0  0  0  0  0  0  0  0
   34.2390   22.0180   32.7340 H   0  0  0  0  0  0  0  0  0  0  0  0
   38.2540   20.3240   30.5190 H   0  0  0  0  0  0  0  0  0  0  0  0
  1  2  1  0  0  0  0
  2  7  1  0  0  0  0
  3  4  1  0  0  0  0
  3  2  2  0  0  0  0
  4  5  2  0  0  0  0
  5  9  1  0  0  0  0
  5  6  1  0  0  0  0
  6 10  1  0  0  0  0
  7  6  2  0  0  0  0
  7 11  1  0  0  0  0
  8  4  1  0  0  0  0
 11 17  2  0  0  0  0
 11 12  1  0  0  0  0
 12 13  2  0  0  0  0
 13 14  1  0  0  0  0
 15 13  1  0  0  0  0
 15 16  1  0  0  0  0
 17 15  1  0  0  0  0
 18  3  1  0  0  0  0
 20 19  2  6  0  0  0
 20 23  1  0  0  0  0
 20 18  1  0  0  0  0
 21 20  1  0  0  0  0
 22 21  1  0  0  0  0
 24 25  1  0  0  0  0
 24 30  1  0  0  0  0
 25 31  1  0  0  0  0
 26 23  1  0  0  0  0
 26 25  2  0  0  0  0
 27 26  1  0  0  0  0
 28 27  2  0  0  0  0
 28 29  1  0  0  0  0
 29 24  2  0  0  0  0
 32 28  1  0  0  0  0
M  END
>  <minimizedAffinity>
-5.66065264

$$$$

 OpenBabel03272508133D

 32 34  0  0  0  0  0  0  0  0999 V2000
   37.9730   23.2870   34.0500 Cl  0  0  0  0  0  0  0  0  0  0  0  0
   37.9150   24.9700   34.6040 C   0  0  0  0  0  0  0  0  0  0  0  0
   37.4050   26.0180   33.8320 C   0  0  0  0  0  0  0  0  0  0  0  0
   37.4170   27.2940   34.3830 C   0  0  0  0  0  0  0  0  0  0  0  0
   37.9140   27.5090   35.6420 C   0  0  0  0  0  0  0  0  0  0  0  0
   38.4170   26.4910   36.4100 C   0  0  0  0  0  0  0  0  0  0  0  0
   38.4140   25.2310   35.8860 C   0  0  0  0  0  0  0  0  0  0  0  0
   36.9990   28.0250   33.6970 H   0  0  0  0  0  0  0  0  0  0  0  0
   37.8760   28.5370   35.9760 H   0  0  0  0  0  0  0  0  0  0  0  0
   38.8040   26.6840   37.4030 H   0  0  0  0  0  0  0  0  0  0  0  0
   38.9460   24.1290   36.6880 C   0  0  0  0  0  0  0  0  0  0  0  0
   40.1160   23.5180   36.4250 N   0  0  0  0  0  0  0  0  0  0  0  0
   40.3250   22.5390   37.3500 C   0  0  0  0  0  0  0  0  0  0  0  0
   41.1590   21.8360   37.4640 H   0  0  0  0  0  0  0  0  0  0  0  0
   39.2490   22.5650   38.1910 N   0  0  0  0  0  0  0  0  0  0  0  0
   39.0430   21.9560   39.0380 H   0  0  0  0  0  0  0  0  0  0  0  0
   38.4210   23.5360   37.7740 N   0  0  0  0  0  0  0  0  0  0  0  0
   36.9580   25.6110   32.6120 O   0  0  0  0  0  0  0  0  0  0  0  0
   37.7370   24.4160   30.4710 O   0  0  0  0  0  0  0  0  0  0  0  0
   37.6760   25.7590   31.1090 P   0  0  1  0  0  0  0  0  0  0  0  0
   36.6240   26.7600   30.2140 O   0  0  0  0  0  0  0  0  0  0  0  0
   35.9900   26.1680   29.7520 H   0  0  0  0  0  0  0  0  0  0  0  0
   39.1860   26.5130   31.2800 O   0  0  0  0  0  0  0  0  0  0  0  0
   41.7530   26.6740   33.9230 C   0  0  0  0  0  0  0  0  0  0  0  0
   40.7660   27.1720   33.0690 C   0  0  0  0  0  0  0  0  0  0  0  0
   40.1510   26.2790   32.1880 C   0  0  0  0  0  0  0  0  0  0  0  0
   40.5520   24.9680   32.2110 N   0  0  0  0  0  0  0  0  0  0  0  0
   41.5100   24.5280   33.0520 C   0  0  0  0  0  0  0  0  0  0  0  0
   42.1070   25.3800   33.9050 N   0  0  0  0  0  0  0  0  0  0  0  0
   42.1880   27.4360   34.5850 H   0  0  0  0  0  0  0  0  0  0  0  0
   40.4040   28.1750   32.9960 H   0  0  0  0  0  0  0  0  0  0  0  0
   41.8380   23.5020   33.0850 H   0  0  0  0  0  0  0  0  0  0  0  0
  1  2  1  0  0  0  0
  2  7  1  0  0  0  0
  3  4  1  0  0  0  0
  3  2  2  0  0  0  0
  4  5  2  0  0  0  0
  5  9  1  0  0  0  0
  5  6  1  0  0  0  0
  6 10  1  0  0  0  0
  7  6  2  0  0  0  0
  7 11  1  0  0  0  0
  8  4  1  0  0  0  0
 11 17  2  0  0  0  0
 12 11  1  0  0  0  0
 12 13  2  0  0  0  0
 13 14  1  0  0  0  0
 13 15  1  0  0  0  0
 15 16  1  0  0  0  0
 17 15  1  0  0  0  0
 18  3  1  0  0  0  0
 20 19  2  6  0  0  0
 20 23  1  0  0  0  0
 20 18  1  0  0  0  0
 21 20  1  0  0  0  0
 22 21  1  0  0  0  0
 23 26  1  0  0  0  0
 24 30  1  0  0  0  0
 25 24  2  0  0  0  0
 26 27  2  0  0  0  0
 26 25  1  0  0  0  0
 27 28  1  0  0  0  0
 28 32  1  0  0  0  0
 28 29  2  0  0  0  0
 29 24  1  0  0  0  0
 31 25  1  0  0  0  0
M  END
>  <minimizedAffinity>
-5.29709482

$$$$

 OpenBabel03272508133D

 32 34  0  0  0  0  0  0  0  0999 V2000
   40.1920   26.9540   31.8150 Cl  0  0  0  0  0  0  0  0  0  0  0  0
   39.3070   27.1160   33.3430 C   0  0  0  0  0  0  0  0  0  0  0  0
   39.9070   26.9800   34.5990 C   0  0  0  0  0  0  0  0  0  0  0  0
   39.1010   27.1300   35.7210 C   0  0  0  0  0  0  0  0  0  0  0  0
   37.7640   27.4030   35.5930 C   0  0  0  0  0  0  0  0  0  0  0  0
   37.1630   27.5390   34.3680 C   0  0  0  0  0  0  0  0  0  0  0  0
   37.9370   27.3950   33.2540 C   0  0  0  0  0  0  0  0  0  0  0  0
   39.6700   27.0030   36.6360 H   0  0  0  0  0  0  0  0  0  0  0  0
   37.2280   27.5000   36.5270 H   0  0  0  0  0  0  0  0  0  0  0  0
   36.1040   27.7540   34.2910 H   0  0  0  0  0  0  0  0  0  0  0  0
   37.3170   27.5360   31.9370 C   0  0  0  0  0  0  0  0  0  0  0  0
   37.2970   28.6920   31.2470 N   0  0  0  0  0  0  0  0  0  0  0  0
   36.6490   28.4940   30.0640 C   0  0  0  0  0  0  0  0  0  0  0  0
   36.4360   29.1920   29.2460 H   0  0  0  0  0  0  0  0  0  0  0  0
   36.2720   27.1810   30.0450 N   0  0  0  0  0  0  0  0  0  0  0  0
   35.7450   26.6440   29.2930 H   0  0  0  0  0  0  0  0  0  0  0  0
   36.6860   26.6150   31.1900 N   0  0  0  0  0  0  0  0  0  0  0  0
   41.2390   26.7100   34.5250 O   0  0  0  0  0  0  0  0  0  0  0  0
   42.5240   24.7750   33.4190 O   0  0  0  0  0  0  0  0  0  0  0  0
   42.0490   25.2630   34.7420 P   0  0  1  0  0  0  0  0  0  0  0  0
   43.3950   25.6520   35.7150 O   0  0  0  0  0  0  0  0  0  0  0  0
   44.1350   25.8700   35.1050 H   0  0  0  0  0  0  0  0  0  0  0  0
   41.0400   24.1720   35.5600 O   0  0  0  0  0  0  0  0  0  0  0  0
   38.3000   22.6740   33.5980 C   0  0  0  0  0  0  0  0  0  0  0  0
   39.4780   23.3970   33.8020 C   0  0  0  0  0  0  0  0  0  0  0  0
   39.9450   23.5320   35.1110 C   0  0  0  0  0  0  0  0  0  0  0  0
   39.2210   22.9480   36.1200 N   0  0  0  0  0  0  0  0  0  0  0  0
   38.0880   22.2580   35.8790 C   0  0  0  0  0  0  0  0  0  0  0  0
   37.6310   22.1230   34.6210 N   0  0  0  0  0  0  0  0  0  0  0  0
   37.9980   22.6130   32.5430 H   0  0  0  0  0  0  0  0  0  0  0  0
   40.0910   23.8770   33.0690 H   0  0  0  0  0  0  0  0  0  0  0  0
   37.5060   21.7920   36.6580 H   0  0  0  0  0  0  0  0  0  0  0  0
  1  2  1  0  0  0  0
  2  3  1  0  0  0  0
  3  4  2  0  0  0  0
  4  8  1  0  0  0  0
  5  4  1  0  0  0  0
  5  9  1  0  0  0  0
  6  5  2  0  0  0  0
  7  2  2  0  0  0  0
  7  6  1  0  0  0  0
 10  6  1  0  0  0  0
 11  7  1  0  0  0  0
 12 11  1  0  0  0  0
 13 12  2  0  0  0  0
 14 13  1  0  0  0  0
 15 13  1  0  0  0  0
 15 17  1  0  0  0  0
 16 15  1  0  0  0  0
 17 11  2  0  0  0  0
 18  3  1  0  0  0  0
 18 20  1  0  0  0  0
 20 19  2  6  0  0  0
 20 23  1  0  0  0  0
 20 21  1  0  0  0  0
 22 21  1  0  0  0  0
 24 25  2  0  0  0  0
 24 29  1  0  0  0  0
 25 26  1  0  0  0  0
 26 23  1  0  0  0  0
 26 27  2  0  0  0  0
 28 27  1  0  0  0  0
 28 32  1  0  0  0  0
 29 28  2  0  0  0  0
 30 24  1  0  0  0  0
 31 25  1  0  0  0  0
M  END
>  <minimizedAffinity>
-5.28778648

$$$$

 OpenBabel03272508133D

 32 34  0  0  0  0  0  0  0  0999 V2000
   36.6660   25.3010   32.4080 Cl  0  0  0  0  0  0  0  0  0  0  0  0
   37.3770   25.9550   33.8950 C   0  0  0  0  0  0  0  0  0  0  0  0
   38.0440   25.1690   34.8400 C   0  0  0  0  0  0  0  0  0  0  0  0
   38.5570   25.8050   35.9640 C   0  0  0  0  0  0  0  0  0  0  0  0
   38.4100   27.1570   36.1340 C   0  0  0  0  0  0  0  0  0  0  0  0
   37.7570   27.9390   35.2150 C   0  0  0  0  0  0  0  0  0  0  0  0
   37.2470   27.3330   34.1050 C   0  0  0  0  0  0  0  0  0  0  0  0
   39.0510   25.1000   36.6260 H   0  0  0  0  0  0  0  0  0  0  0  0
   38.8450   27.5510   37.0420 H   0  0  0  0  0  0  0  0  0  0  0  0
   37.6530   29.0050   35.3700 H   0  0  0  0  0  0  0  0  0  0  0  0
   36.5470   28.1480   33.1110 C   0  0  0  0  0  0  0  0  0  0  0  0
   37.0950   28.5190   31.9390 N   0  0  0  0  0  0  0  0  0  0  0  0
   36.1920   29.2680   31.2430 C   0  0  0  0  0  0  0  0  0  0  0  0
   36.2730   29.7420   30.2580 H   0  0  0  0  0  0  0  0  0  0  0  0
   35.0720   29.3440   32.0210 N   0  0  0  0  0  0  0  0  0  0  0  0
   34.1520   29.8400   31.8270 H   0  0  0  0  0  0  0  0  0  0  0  0
   35.3060   28.6590   33.1520 N   0  0  0  0  0  0  0  0  0  0  0  0
   38.0900   23.8520   34.4980 O   0  0  0  0  0  0  0  0  0  0  0  0
   39.2830   21.9590   35.7690 O   0  0  0  0  0  0  0  0  0  0  0  0
   37.9290   22.4940   35.4610 P   0  0  1  0  0  0  0  0  0  0  0  0
   37.2040   23.0550   36.8990 O   0  0  0  0  0  0  0  0  0  0  0  0
   37.9340   23.2920   37.5130 H   0  0  0  0  0  0  0  0  0  0  0  0
   36.9040   21.3800   34.6940 O   0  0  0  0  0  0  0  0  0  0  0  0
   35.5020   21.1350   31.2910 C   0  0  0  0  0  0  0  0  0  0  0  0
   35.4810   21.3780   32.6670 C   0  0  0  0  0  0  0  0  0  0  0  0
   36.6710   21.2100   33.3790 C   0  0  0  0  0  0  0  0  0  0  0  0
   37.7890   20.8170   32.6890 N   0  0  0  0  0  0  0  0  0  0  0  0
   37.7660   20.5930   31.3600 C   0  0  0  0  0  0  0  0  0  0  0  0
   36.6250   20.7520   30.6650 N   0  0  0  0  0  0  0  0  0  0  0  0
   34.5300   21.2880   30.8020 H   0  0  0  0  0  0  0  0  0  0  0  0
   34.6530   21.6850   33.2680 H   0  0  0  0  0  0  0  0  0  0  0  0
   38.6340   20.2830   30.8000 H   0  0  0  0  0  0  0  0  0  0  0  0
  1  2  1  0  0  0  0
  2  7  2  0  0  0  0
  2  3  1  0  0  0  0
  3  4  2  0  0  0  0
  4  5  1  0  0  0  0
  4  8  1  0  0  0  0
  5  9  1  0  0  0  0
  6 10  1  0  0  0  0
  6  5  2  0  0  0  0
  7  6  1  0  0  0  0
 11 17  2  0  0  0  0
 11  7  1  0  0  0  0
 12 11  1  0  0  0  0
 13 12  2  0  0  0  0
 13 15  1  0  0  0  0
 14 13  1  0  0  0  0
 15 17  1  0  0  0  0
 16 15  1  0  0  0  0
 18  3  1  0  0  0  0
 18 20  1  0  0  0  0
 20 19  2  1  0  0  0
 20 21  1  0  0  0  0
 21 22  1  0  0  0  0
 23 20  1  0  0  0  0
 24 25  1  0  0  0  0
 25 31  1  0  0  0  0
 25 26  2  0  0  0  0
 26 23  1  0  0  0  0
 27 26  1  0  0  0  0
 28 27  2  0  0  0  0
 29 24  2  0  0  0  0
 29 28  1  0  0  0  0
 30 24  1  0  0  0  0
 32 28  1  0  0  0  0
M  END
>  <minimizedAffinity>
-5.25380754

$$$$

 OpenBabel03272508133D

 32 34  0  0  0  0  0  0  0  0999 V2000
   38.7430   25.7560   35.3730 Cl  0  0  0  0  0  0  0  0  0  0  0  0
   38.1740   24.4250   34.3500 C   0  0  0  0  0  0  0  0  0  0  0  0
   37.5940   24.6140   33.0910 C   0  0  0  0  0  0  0  0  0  0  0  0
   37.1890   23.4860   32.3890 C   0  0  0  0  0  0  0  0  0  0  0  0
   37.3560   22.2330   32.9170 C   0  0  0  0  0  0  0  0  0  0  0  0
   37.9230   22.0320   34.1500 C   0  0  0  0  0  0  0  0  0  0  0  0
   38.3270   23.1280   34.8550 C   0  0  0  0  0  0  0  0  0  0  0  0
   36.7540   23.7520   31.4300 H   0  0  0  0  0  0  0  0  0  0  0  0
   37.0080   21.4240   32.2900 H   0  0  0  0  0  0  0  0  0  0  0  0
   38.0460   21.0330   34.5480 H   0  0  0  0  0  0  0  0  0  0  0  0
   38.9350   22.9380   36.1720 C   0  0  0  0  0  0  0  0  0  0  0  0
   40.2290   22.6130   36.3520 N   0  0  0  0  0  0  0  0  0  0  0  0
   40.4810   22.5110   37.6870 C   0  0  0  0  0  0  0  0  0  0  0  0
   41.4100   22.2660   38.2180 H   0  0  0  0  0  0  0  0  0  0  0  0
   39.3050   22.7840   38.3260 N   0  0  0  0  0  0  0  0  0  0  0  0
   39.0950   22.8050   39.3680 H   0  0  0  0  0  0  0  0  0  0  0  0
   38.3770   23.0410   37.3900 N   0  0  0  0  0  0  0  0  0  0  0  0
   37.5120   25.9260   32.7360 O   0  0  0  0  0  0  0  0  0  0  0  0
   38.5520   26.0960   30.3890 O   0  0  0  0  0  0  0  0  0  0  0  0
   37.4290   26.6160   31.2150 P   0  0  1  0  0  0  0  0  0  0  0  0
   35.9500   26.0710   30.5630 O   0  0  0  0  0  0  0  0  0  0  0  0
   36.1430   25.2390   30.0750 H   0  0  0  0  0  0  0  0  0  0  0  0
   37.4060   28.3060   31.3660 O   0  0  0  0  0  0  0  0  0  0  0  0
   34.9360   31.0410   31.2070 C   0  0  0  0  0  0  0  0  0  0  0  0
   36.1280   30.3770   30.9060 C   0  0  0  0  0  0  0  0  0  0  0  0
   36.3500   29.1310   31.4960 C   0  0  0  0  0  0  0  0  0  0  0  0
   35.3860   28.6310   32.3350 N   0  0  0  0  0  0  0  0  0  0  0  0
   34.2500   29.3050   32.5980 C   0  0  0  0  0  0  0  0  0  0  0  0
   34.0260   30.5060   32.0350 N   0  0  0  0  0  0  0  0  0  0  0  0
   34.8350   32.0130   30.7050 H   0  0  0  0  0  0  0  0  0  0  0  0
   36.9190   30.7040   30.2650 H   0  0  0  0  0  0  0  0  0  0  0  0
   33.4810   28.9280   33.2540 H   0  0  0  0  0  0  0  0  0  0  0  0
  2  7  1  0  0  0  0
  2  1  1  0  0  0  0
  3  2  2  0  0  0  0
  4  5  2  0  0  0  0
  4  3  1  0  0  0  0
  5  6  1  0  0  0  0
  6 10  1  0  0  0  0
  6  7  2  0  0  0  0
  7 11  1  0  0  0  0
  8  4  1  0  0  0  0
  9  5  1  0  0  0  0
 11 12  1  0  0  0  0
 11 17  2  0  0  0  0
 12 13  2  0  0  0  0
 13 14  1  0  0  0  0
 13 15  1  0  0  0  0
 15 16  1  0  0  0  0
 17 15  1  0  0  0  0
 18  3  1  0  0  0  0
 20 19  2  6  0  0  0
 20 23  1  0  0  0  0
 20 18  1  0  0  0  0
 21 20  1  0  0  0  0
 22 21  1  0  0  0  0
 23 26  1  0  0  0  0
 24 29  1  0  0  0  0
 25 24  2  0  0  0  0
 25 26  1  0  0  0  0
 26 27  2  0  0  0  0
 27 28  1  0  0  0  0
 28 32  1  0  0  0  0
 29 28  2  0  0  0  0
 30 24  1  0  0  0  0
 31 25  1  0  0  0  0
M  END
>  <minimizedAffinity>
-5.2172122

$$$$

 OpenBabel03272508133D

 32 34  0  0  0  0  0  0  0  0999 V2000
   39.6670   25.3610   35.0410 Cl  0  0  0  0  0  0  0  0  0  0  0  0
   38.8190   24.0250   34.2430 C   0  0  0  0  0  0  0  0  0  0  0  0
   38.6350   23.9460   32.8590 C   0  0  0  0  0  0  0  0  0  0  0  0
   37.9510   22.8440   32.3590 C   0  0  0  0  0  0  0  0  0  0  0  0
   37.4770   21.8710   33.2000 C   0  0  0  0  0  0  0  0  0  0  0  0
   37.6510   21.9360   34.5580 C   0  0  0  0  0  0  0  0  0  0  0  0
   38.3190   23.0100   35.0690 C   0  0  0  0  0  0  0  0  0  0  0  0
   37.8670   22.8890   31.2770 H   0  0  0  0  0  0  0  0  0  0  0  0
   36.9610   21.0580   32.7090 H   0  0  0  0  0  0  0  0  0  0  0  0
   37.2680   21.1550   35.2040 H   0  0  0  0  0  0  0  0  0  0  0  0
   38.5170   23.0990   36.5160 C   0  0  0  0  0  0  0  0  0  0  0  0
   37.6730   23.7460   37.3410 N   0  0  0  0  0  0  0  0  0  0  0  0
   38.1350   23.6460   38.6190 C   0  0  0  0  0  0  0  0  0  0  0  0
   37.7220   24.0390   39.5560 H   0  0  0  0  0  0  0  0  0  0  0  0
   39.2890   22.9170   38.5580 N   0  0  0  0  0  0  0  0  0  0  0  0
   39.9420   22.6260   39.3440 H   0  0  0  0  0  0  0  0  0  0  0  0
   39.5060   22.5940   37.2720 N   0  0  0  0  0  0  0  0  0  0  0  0
   39.1740   25.0020   32.1900 O   0  0  0  0  0  0  0  0  0  0  0  0
   39.3970   27.1300   30.7630 O   0  0  0  0  0  0  0  0  0  0  0  0
   38.5080   25.9600   30.9920 P   0  0  1  0  0  0  0  0  0  0  0  0
   38.4960   24.9780   29.5980 O   0  0  0  0  0  0  0  0  0  0  0  0
   39.3440   25.1400   29.1280 H   0  0  0  0  0  0  0  0  0  0  0  0
   36.9190   26.3720   31.4230 O   0  0  0  0  0  0  0  0  0  0  0  0
   35.3670   29.2590   33.1130 C   0  0  0  0  0  0  0  0  0  0  0  0
   35.6670   28.4170   32.0390 C   0  0  0  0  0  0  0  0  0  0  0  0
   36.4910   27.3160   32.2810 C   0  0  0  0  0  0  0  0  0  0  0  0
   36.9590   27.1250   33.5560 N   0  0  0  0  0  0  0  0  0  0  0  0
   36.6450   27.9620   34.5650 C   0  0  0  0  0  0  0  0  0  0  0  0
   35.8520   29.0250   34.3420 N   0  0  0  0  0  0  0  0  0  0  0  0
   34.7150   30.1010   32.8450 H   0  0  0  0  0  0  0  0  0  0  0  0
   35.3400   28.5040   31.0250 H   0  0  0  0  0  0  0  0  0  0  0  0
   37.0030   27.8280   35.5730 H   0  0  0  0  0  0  0  0  0  0  0  0
  2  1  1  0  0  0  0
  2  7  1  0  0  0  0
  3  2  2  0  0  0  0
  4  3  1  0  0  0  0
  4  5  2  0  0  0  0
  5  6  1  0  0  0  0
  6  7  2  0  0  0  0
  6 10  1  0  0  0  0
  7 11  1  0  0  0  0
  8  4  1  0  0  0  0
  9  5  1  0  0  0  0
 11 17  2  0  0  0  0
 11 12  1  0  0  0  0
 12 13  2  0  0  0  0
 13 14  1  0  0  0  0
 15 13  1  0  0  0  0
 15 16  1  0  0  0  0
 17 15  1  0  0  0  0
 18  3  1  0  0  0  0
 20 19  2  6  0  0  0
 20 23  1  0  0  0  0
 20 18  1  0  0  0  0
 21 20  1  0  0  0  0
 22 21  1  0  0  0  0
 23 26  1  0  0  0  0
 24 29  1  0  0  0  0
 25 26  1  0  0  0  0
 25 24  2  0  0  0  0
 26 27  2  0  0  0  0
 27 28  1  0  0  0  0
 28 32  1  0  0  0  0
 29 28  2  0  0  0  0
 30 24  1  0  0  0  0
 31 25  1  0  0  0  0
M  END
>  <minimizedAffinity>
-5.19472837

$$$$

 OpenBabel03272508133D

 32 34  0  0  0  0  0  0  0  0999 V2000
   39.4300   24.8450   31.7420 Cl  0  0  0  0  0  0  0  0  0  0  0  0
   39.0560   25.8260   33.1710 C   0  0  0  0  0  0  0  0  0  0  0  0
   39.9700   26.0650   34.2020 C   0  0  0  0  0  0  0  0  0  0  0  0
   39.5520   26.8510   35.2690 C   0  0  0  0  0  0  0  0  0  0  0  0
   38.2850   27.3730   35.3010 C   0  0  0  0  0  0  0  0  0  0  0  0
   37.3780   27.1470   34.2970 C   0  0  0  0  0  0  0  0  0  0  0  0
   37.7700   26.3770   33.2420 C   0  0  0  0  0  0  0  0  0  0  0  0
   40.3400   26.9680   36.0060 H   0  0  0  0  0  0  0  0  0  0  0  0
   38.0610   27.9700   36.1740 H   0  0  0  0  0  0  0  0  0  0  0  0
   36.3820   27.5690   34.3440 H   0  0  0  0  0  0  0  0  0  0  0  0
   36.8200   26.1230   32.1580 C   0  0  0  0  0  0  0  0  0  0  0  0
   36.1150   24.9820   32.0430 N   0  0  0  0  0  0  0  0  0  0  0  0
   35.3240   25.0580   30.9340 C   0  0  0  0  0  0  0  0  0  0  0  0
   34.6160   24.3320   30.5170 H   0  0  0  0  0  0  0  0  0  0  0  0
   35.5630   26.2790   30.3710 N   0  0  0  0  0  0  0  0  0  0  0  0
   35.1400   26.7090   29.4960 H   0  0  0  0  0  0  0  0  0  0  0  0
   36.4740   26.9120   31.1270 N   0  0  0  0  0  0  0  0  0  0  0  0
   41.1750   25.4660   33.9930 O   0  0  0  0  0  0  0  0  0  0  0  0
   42.6060   23.4000   33.4440 O   0  0  0  0  0  0  0  0  0  0  0  0
   41.7240   23.9690   34.4980 P   0  0  1  0  0  0  0  0  0  0  0  0
   42.6480   24.2860   35.8960 O   0  0  0  0  0  0  0  0  0  0  0  0
   43.5750   24.4250   35.6000 H   0  0  0  0  0  0  0  0  0  0  0  0
   40.3960   22.9880   34.8930 O   0  0  0  0  0  0  0  0  0  0  0  0
   37.4610   23.4290   37.0810 C   0  0  0  0  0  0  0  0  0  0  0  0
   38.1480   23.3400   35.8680 C   0  0  0  0  0  0  0  0  0  0  0  0
   39.5250   23.1110   35.9110 C   0  0  0  0  0  0  0  0  0  0  0  0
   40.1230   22.9880   37.1390 N   0  0  0  0  0  0  0  0  0  0  0  0
   39.4220   23.0810   38.2870 C   0  0  0  0  0  0  0  0  0  0  0  0
   38.0950   23.3000   38.2560 N   0  0  0  0  0  0  0  0  0  0  0  0
   36.3830   23.6090   36.9650 H   0  0  0  0  0  0  0  0  0  0  0  0
   37.7500   23.4250   34.8790 H   0  0  0  0  0  0  0  0  0  0  0  0
   39.8740   22.9870   39.2610 H   0  0  0  0  0  0  0  0  0  0  0  0
  1  2  1  0  0  0  0
  2  7  2  0  0  0  0
  2  3  1  0  0  0  0
  3  4  2  0  0  0  0
  4  5  1  0  0  0  0
  4  8  1  0  0  0  0
  5  9  1  0  0  0  0
  6 10  1  0  0  0  0
  6  5  2  0  0  0  0
  7  6  1  0  0  0  0
 11  7  1  0  0  0  0
 12 11  1  0  0  0  0
 13 12  2  0  0  0  0
 14 13  1  0  0  0  0
 15 13  1  0  0  0  0
 15 17  1  0  0  0  0
 16 15  1  0  0  0  0
 17 11  2  0  0  0  0
 18  3  1  0  0  0  0
 18 20  1  0  0  0  0
 20 19  2  6  0  0  0
 20 23  1  0  0  0  0
 20 21  1  0  0  0  0
 22 21  1  0  0  0  0
 23 26  1  0  0  0  0
 24 29  1  0  0  0  0
 25 26  1  0  0  0  0
 25 24  2  0  0  0  0
 26 27  2  0  0  0  0
 27 28  1  0  0  0  0
 28 32  1  0  0  0  0
 29 28  2  0  0  0  0
 30 24  1  0  0  0  0
 31 25  1  0  0  0  0
M  END
>  <minimizedAffinity>
-5.17218924

$$$$

 OpenBabel03272508133D

 32 34  0  0  0  0  0  0  0  0999 V2000
   40.4910   24.0710   34.2680 Cl  0  0  0  0  0  0  0  0  0  0  0  0
   39.6680   23.8540   35.8230 C   0  0  0  0  0  0  0  0  0  0  0  0
   38.4280   24.4280   36.1250 C   0  0  0  0  0  0  0  0  0  0  0  0
   37.8900   24.1810   37.3820 C   0  0  0  0  0  0  0  0  0  0  0  0
   38.5560   23.3990   38.2890 C   0  0  0  0  0  0  0  0  0  0  0  0
   39.7710   22.8300   38.0060 C   0  0  0  0  0  0  0  0  0  0  0  0
   40.3170   23.0620   36.7770 C   0  0  0  0  0  0  0  0  0  0  0  0
   36.9300   24.6740   37.5040 H   0  0  0  0  0  0  0  0  0  0  0  0
   38.0500   23.2700   39.2360 H   0  0  0  0  0  0  0  0  0  0  0  0
   40.2800   22.2160   38.7390 H   0  0  0  0  0  0  0  0  0  0  0  0
   41.6130   22.4650   36.4530 C   0  0  0  0  0  0  0  0  0  0  0  0
   42.7830   23.1160   36.5840 N   0  0  0  0  0  0  0  0  0  0  0  0
   43.7980   22.2900   36.2030 C   0  0  0  0  0  0  0  0  0  0  0  0
   44.8800   22.4630   36.1730 H   0  0  0  0  0  0  0  0  0  0  0  0
   43.2180   21.1100   35.8340 N   0  0  0  0  0  0  0  0  0  0  0  0
   43.6760   20.2190   35.4780 H   0  0  0  0  0  0  0  0  0  0  0  0
   41.8910   21.2340   35.9920 N   0  0  0  0  0  0  0  0  0  0  0  0
   37.9220   25.1690   35.1010 O   0  0  0  0  0  0  0  0  0  0  0  0
   38.9600   27.4090   35.8230 O   0  0  0  0  0  0  0  0  0  0  0  0
   38.0830   26.8040   34.7860 P   0  0  1  0  0  0  0  0  0  0  0  0
   38.8620   26.8870   33.2710 O   0  0  0  0  0  0  0  0  0  0  0  0
   39.8280   26.9190   33.4480 H   0  0  0  0  0  0  0  0  0  0  0  0
   36.5430   27.5100   34.6840 O   0  0  0  0  0  0  0  0  0  0  0  0
   35.2600   30.7970   33.6110 C   0  0  0  0  0  0  0  0  0  0  0  0
   35.5620   29.7770   34.5170 C   0  0  0  0  0  0  0  0  0  0  0  0
   36.1620   28.6170   34.0210 C   0  0  0  0  0  0  0  0  0  0  0  0
   36.4190   28.5460   32.6760 N   0  0  0  0  0  0  0  0  0  0  0  0
   36.1110   29.5540   31.8360 C   0  0  0  0  0  0  0  0  0  0  0  0
   35.5340   30.6750   32.3040 N   0  0  0  0  0  0  0  0  0  0  0  0
   34.7910   31.6750   34.0760 H   0  0  0  0  0  0  0  0  0  0  0  0
   35.3910   29.7630   35.5720 H   0  0  0  0  0  0  0  0  0  0  0  0
   36.3060   29.5170   30.7760 H   0  0  0  0  0  0  0  0  0  0  0  0
  1  2  1  0  0  0  0
  2  3  2  0  0  0  0
  2  7  1  0  0  0  0
  3  4  1  0  0  0  0
  4  8  1  0  0  0  0
  4  5  2  0  0  0  0
  5  9  1  0  0  0  0
  6  5  1  0  0  0  0
  6 10  1  0  0  0  0
  7  6  2  0  0  0  0
 11 12  1  0  0  0  0
 11  7  1  0  0  0  0
 13 12  2  0  0  0  0
 14 13  1  0  0  0  0
 15 17  1  0  0  0  0
 15 13  1  0  0  0  0
 16 15  1  0  0  0  0
 17 11  2  0  0  0  0
 18  3  1  0  0  0  0
 20 18  1  0  0  0  0
 20 19  2  1  0  0  0
 21 22  1  0  0  0  0
 21 20  1  0  0  0  0
 23 20  1  0  0  0  0
 24 30  1  0  0  0  0
 24 25  1  0  0  0  0
 25 31  1  0  0  0  0
 26 25  2  0  0  0  0
 26 23  1  0  0  0  0
 27 26  1  0  0  0  0
 28 29  1  0  0  0  0
 28 27  2  0  0  0  0
 29 24  2  0  0  0  0
 32 28  1  0  0  0  0
M  END
>  <minimizedAffinity>
-5.12088776

$$$$
