
 OpenBabel03272508443D

 25 27  0  0  0  0  0  0  0  0999 V2000
   35.7790   30.1890   49.9990 C   0  0  0  0  0  0  0  0  0  0  0  0
   36.7550   29.7710   50.8910 C   0  0  0  0  0  0  0  0  0  0  0  0
   37.8180   30.6140   50.5890 C   0  0  0  0  0  0  0  0  0  0  0  0
   37.4540   31.4710   49.5700 C   0  0  0  0  0  0  0  0  0  0  0  0
   36.2260   31.1970   49.2330 O   0  0  0  0  0  0  0  0  0  0  0  0
   36.6500   28.9820   51.6110 H   0  0  0  0  0  0  0  0  0  0  0  0
   38.7820   30.5750   51.1040 H   0  0  0  0  0  0  0  0  0  0  0  0
   38.3170   32.4950   48.9930 C   0  0  0  0  0  0  0  0  0  0  0  0
   38.8820   33.5290   49.6380 N   0  0  0  0  0  0  0  0  0  0  0  0
   39.6210   34.2910   48.8130 C   0  0  0  0  0  0  0  0  0  0  0  0
   40.1650   35.1720   49.1160 H   0  0  0  0  0  0  0  0  0  0  0  0
   39.5000   33.6870   47.6000 N   0  0  0  0  0  0  0  0  0  0  0  0
   40.0040   34.1170   46.7810 H   0  0  0  0  0  0  0  0  0  0  0  0
   38.7150   32.6090   47.7130 N   0  0  0  0  0  0  0  0  0  0  0  0
   34.4350   29.6000   49.9130 C   0  0  0  0  0  0  0  0  0  0  0  0
   33.6740   29.7390   50.9100 O   0  0  0  0  0  0  0  0  0  0  0  0
   32.7870   27.1570   47.7920 C   0  0  0  0  0  0  0  0  0  0  0  0
   33.2010   27.4990   46.5120 C   0  0  0  0  0  0  0  0  0  0  0  0
   34.0620   28.5860   46.3580 C   0  0  0  0  0  0  0  0  0  0  0  0
   34.4450   29.2490   47.4810 N   0  0  0  0  0  0  0  0  0  0  0  0
   34.0240   28.8910   48.7150 C   0  0  0  0  0  0  0  0  0  0  0  0
   33.1980   27.8500   48.8700 N   0  0  0  0  0  0  0  0  0  0  0  0
   32.1180   26.3230   47.9720 H   0  0  0  0  0  0  0  0  0  0  0  0
   32.8160   26.8820   45.7090 H   0  0  0  0  0  0  0  0  0  0  0  0
   34.3710   28.8350   45.3660 H   0  0  0  0  0  0  0  0  0  0  0  0
  1  2  2  0  0  0  0
  2  6  1  0  0  0  0
  3  2  1  0  0  0  0
  3  7  1  0  0  0  0
  4  3  2  0  0  0  0
  5  4  1  0  0  0  0
  5  1  1  0  0  0  0
  8  4  1  0  0  0  0
  8  9  1  0  0  0  0
 10 11  1  0  0  0  0
 10  9  2  0  0  0  0
 12 14  1  0  0  0  0
 12 10  1  0  0  0  0
 13 12  1  0  0  0  0
 14  8  2  0  0  0  0
 15  1  1  0  0  0  0
 15 16  2  0  0  0  0
 17 23  1  0  0  0  0
 17 22  1  0  0  0  0
 18 17  2  0  0  0  0
 19 18  1  0  0  0  0
 19 20  2  0  0  0  0
 20 21  1  0  0  0  0
 21 22  2  0  0  0  0
 21 15  1  0  0  0  0
 24 18  1  0  0  0  0
 25 19  1  0  0  0  0
M  END
>  <minimizedAffinity>
-5.53691864

>  <minimizedRMSD>
1.97538674

$$$$
