
 OpenBabel03272505093D

 27 29  0  0  0  0  0  0  0  0999 V2000
   36.3910   30.9450   45.2380 Cl  0  0  0  0  0  0  0  0  0  0  0  0
   36.5820   30.5630   46.9310 C   0  0  0  0  0  0  0  0  0  0  0  0
   37.8060   30.8090   47.4780 C   0  0  0  0  0  0  0  0  0  0  0  0
   37.9790   30.5110   48.8310 C   0  0  0  0  0  0  0  0  0  0  0  0
   36.9310   29.9890   49.5560 C   0  0  0  0  0  0  0  0  0  0  0  0
   35.7290   29.7680   48.9390 C   0  0  0  0  0  0  0  0  0  0  0  0
   35.5020   30.0390   47.6250 C   0  0  0  0  0  0  0  0  0  0  0  0
   38.9370   30.6970   49.2880 H   0  0  0  0  0  0  0  0  0  0  0  0
   37.0990   29.7690   50.6020 H   0  0  0  0  0  0  0  0  0  0  0  0
   34.9130   29.3570   49.5210 H   0  0  0  0  0  0  0  0  0  0  0  0
   40.1150   33.2550   46.0510 C   0  0  0  0  0  0  0  0  0  0  0  0
   40.9550   32.4820   45.2130 C   0  0  0  0  0  0  0  0  0  0  0  0
   40.7010   31.1080   45.1560 C   0  0  0  0  0  0  0  0  0  0  0  0
   39.6790   30.5920   45.8980 N   0  0  0  0  0  0  0  0  0  0  0  0
   38.9100   31.3700   46.6780 C   0  0  0  0  0  0  0  0  0  0  0  0
   39.1390   32.6760   46.7410 N   0  0  0  0  0  0  0  0  0  0  0  0
   40.2710   34.3120   46.1250 H   0  0  0  0  0  0  0  0  0  0  0  0
   41.7530   32.9520   44.6460 H   0  0  0  0  0  0  0  0  0  0  0  0
   41.3210   30.4810   44.5260 H   0  0  0  0  0  0  0  0  0  0  0  0
   33.9500   29.7680   46.7760 S   0  0  0  0  0  0  0  0  0  0  0  0
   33.1720   28.2700   47.3600 C   0  0  0  0  0  0  0  0  0  0  0  0
   33.8170   27.1280   47.0670 N   0  0  0  0  0  0  0  0  0  0  0  0
   33.1570   26.0630   47.5460 C   0  0  0  0  0  0  0  0  0  0  0  0
   33.3950   25.0080   47.4900 H   0  0  0  0  0  0  0  0  0  0  0  0
   32.0710   26.5640   48.1550 N   0  0  0  0  0  0  0  0  0  0  0  0
   31.2800   26.1000   48.6650 H   0  0  0  0  0  0  0  0  0  0  0  0
   32.0570   27.9030   48.0570 N   0  0  0  0  0  0  0  0  0  0  0  0
  1  2  1  0  0  0  0
  2  3  2  0  0  0  0
  2  7  1  0  0  0  0
  3  4  1  0  0  0  0
  4  8  1  0  0  0  0
  4  5  2  0  0  0  0
  5  9  1  0  0  0  0
  6 10  1  0  0  0  0
  6  5  1  0  0  0  0
  7  6  2  0  0  0  0
 11 17  1  0  0  0  0
 11 16  1  0  0  0  0
 12 11  2  0  0  0  0
 13 12  1  0  0  0  0
 13 14  2  0  0  0  0
 14 15  1  0  0  0  0
 15 16  2  0  0  0  0
 15  3  1  0  0  0  0
 18 12  1  0  0  0  0
 19 13  1  0  0  0  0
 20 21  1  0  0  0  0
 20  7  1  0  0  0  0
 21 27  2  0  0  0  0
 22 21  1  0  0  0  0
 22 23  2  0  0  0  0
 23 25  1  0  0  0  0
 24 23  1  0  0  0  0
 25 26  1  0  0  0  0
 27 25  1  0  0  0  0
M  END
>  <minimizedAffinity>
-5.22592306

>  <minimizedRMSD>
1.50087631

$$$$
