
 OpenBabel03272506273D

 40 43  0  0  0  0  0  0  0  0999 V2000
   31.4660   26.5910   47.2680 C   0  0  0  0  0  0  0  0  0  0  0  0
   31.4130   25.2100   47.3010 C   0  0  0  0  0  0  0  0  0  0  0  0
   32.3440   24.3710   46.6950 C   0  0  0  0  0  0  0  0  0  0  0  0
   33.4160   24.9630   46.0000 C   0  0  0  0  0  0  0  0  0  0  0  0
   33.4560   26.3420   45.9780 C   0  0  0  0  0  0  0  0  0  0  0  0
   32.5380   27.1530   46.5750 C   0  0  0  0  0  0  0  0  0  0  0  0
   30.5880   24.7100   47.8350 H   0  0  0  0  0  0  0  0  0  0  0  0
   32.1950   23.2820   46.7910 H   0  0  0  0  0  0  0  0  0  0  0  0
   34.0670   24.2290   45.5770 H   0  0  0  0  0  0  0  0  0  0  0  0
   34.3160   26.5840   45.4100 H   0  0  0  0  0  0  0  0  0  0  0  0
   30.6300   27.5890   49.3030 C   0  0  0  0  0  0  0  0  0  0  0  0
   30.4170   27.2960   47.9470 C   0  0  0  0  0  0  0  0  0  0  0  0
   29.2110   27.7080   47.3630 C   0  0  0  0  0  0  0  0  0  0  0  0
   28.3010   28.3700   48.1270 N   0  0  0  0  0  0  0  0  0  0  0  0
   28.5340   28.6420   49.4440 C   0  0  0  0  0  0  0  0  0  0  0  0
   29.6980   28.2490   50.0260 N   0  0  0  0  0  0  0  0  0  0  0  0
   31.5370   27.2890   49.7820 H   0  0  0  0  0  0  0  0  0  0  0  0
   27.8180   29.1680   50.0610 H   0  0  0  0  0  0  0  0  0  0  0  0
   28.8500   27.4640   45.9370 C   0  0  0  0  0  0  0  0  0  0  0  0
   27.5900   28.0320   45.6730 F   0  0  0  0  0  0  0  0  0  0  0  0
   29.7260   27.9110   45.0190 F   0  0  0  0  0  0  0  0  0  0  0  0
   28.6370   26.0930   45.7390 F   0  0  0  0  0  0  0  0  0  0  0  0
   32.6060   28.9060   46.5370 S   0  0  0  0  0  0  0  0  0  0  0  0
   33.8810   28.9940   49.3710 Cl  0  0  0  0  0  0  0  0  0  0  0  0
   34.7700   29.5540   47.9810 C   0  0  0  0  0  0  0  0  0  0  0  0
   34.2440   29.5600   46.6900 C   0  0  0  0  0  0  0  0  0  0  0  0
   34.9750   30.0340   45.6400 C   0  0  0  0  0  0  0  0  0  0  0  0
   36.2560   30.5080   45.8840 C   0  0  0  0  0  0  0  0  0  0  0  0
   36.7890   30.5030   47.1760 C   0  0  0  0  0  0  0  0  0  0  0  0
   36.0490   30.0260   48.2370 C   0  0  0  0  0  0  0  0  0  0  0  0
   34.6520   30.1150   44.6350 H   0  0  0  0  0  0  0  0  0  0  0  0
   36.8780   30.8950   45.0820 H   0  0  0  0  0  0  0  0  0  0  0  0
   37.8040   30.8910   47.2960 H   0  0  0  0  0  0  0  0  0  0  0  0
   36.6370   30.0370   49.5720 C   0  0  0  0  0  0  0  0  0  0  0  0
   37.0600   28.9110   50.1730 N   0  0  0  0  0  0  0  0  0  0  0  0
   37.5530   29.2550   51.3990 C   0  0  0  0  0  0  0  0  0  0  0  0
   37.9940   28.7060   52.2240 H   0  0  0  0  0  0  0  0  0  0  0  0
   37.4070   30.6110   51.5010 N   0  0  0  0  0  0  0  0  0  0  0  0
   37.6530   31.2730   52.2690 H   0  0  0  0  0  0  0  0  0  0  0  0
   36.8550   31.0780   50.3960 N   0  0  0  0  0  0  0  0  0  0  0  0
  1  2  1  0  0  0  0
  1 12  1  0  0  0  0
  2  7  1  0  0  0  0
  3  8  1  0  0  0  0
  3  2  2  0  0  0  0
  4  3  1  0  0  0  0
  5  4  2  0  0  0  0
  5  6  1  0  0  0  0
  6  1  2  0  0  0  0
  9  4  1  0  0  0  0
 10  5  1  0  0  0  0
 11 17  1  0  0  0  0
 11 16  1  0  0  0  0
 12 11  2  0  0  0  0
 13 12  1  0  0  0  0
 13 14  2  0  0  0  0
 14 15  1  0  0  0  0
 15 16  2  0  0  0  0
 15 18  1  0  0  0  0
 19 13  1  0  0  0  0
 20 19  1  0  0  0  0
 21 19  1  0  0  0  0
 22 19  1  0  0  0  0
 23  6  1  0  0  0  0
 23 26  1  0  0  0  0
 25 30  1  0  0  0  0
 25 24  1  0  0  0  0
 26 25  2  0  0  0  0
 27 28  2  0  0  0  0
 27 26  1  0  0  0  0
 28 29  1  0  0  0  0
 29 33  1  0  0  0  0
 29 30  2  0  0  0  0
 30 34  1  0  0  0  0
 31 27  1  0  0  0  0
 32 28  1  0  0  0  0
 34 35  1  0  0  0  0
 34 40  2  0  0  0  0
 35 36  2  0  0  0  0
 36 38  1  0  0  0  0
 36 37  1  0  0  0  0
 38 39  1  0  0  0  0
 40 38  1  0  0  0  0
M  END
>  <minimizedAffinity>
-5.56154919

>  <minimizedRMSD>
3.64600635

$$$$
