
 OpenBabel03272506473D

 40 43  0  0  1  0  0  0  0  0999 V2000
   32.0080   28.3790   47.4900 C   0  0  2  0  0  0  0  0  0  0  0  0
   33.2670   28.1670   48.2780 C   0  0  1  0  0  0  0  0  0  0  0  0
   33.6160   26.8550   48.1690 O   0  0  0  0  0  0  0  0  0  0  0  0
   32.8620   26.2630   47.1600 C   0  0  0  0  0  0  0  0  0  0  0  0
   32.2780   27.3770   46.3230 C   0  0  1  0  0  0  0  0  0  0  0  0
   31.0870   28.0670   47.9740 H   0  0  0  0  0  0  0  0  0  0  0  0
   33.1180   28.5110   49.3320 H   0  0  0  0  0  0  0  0  0  0  0  0
   32.1430   25.6210   47.6560 H   0  0  0  0  0  0  0  0  0  0  0  0
   33.5420   25.6390   46.5110 H   0  0  0  0  0  0  0  0  0  0  0  0
   33.0090   27.8400   45.6670 H   0  0  0  0  0  0  0  0  0  0  0  0
   31.9640   29.6880   46.9670 O   0  0  0  0  0  0  0  0  0  0  0  0
   32.1160   29.6760   45.9890 H   0  0  0  0  0  0  0  0  0  0  0  0
   34.5920   29.1710   47.4900 S   0  0  0  0  0  0  0  0  0  0  0  0
   37.0030   29.2500   50.6340 C   0  0  0  0  0  0  0  0  0  0  0  0
   37.4110   30.5860   50.7450 C   0  0  0  0  0  0  0  0  0  0  0  0
   36.9140   31.4970   49.7980 C   0  0  0  0  0  0  0  0  0  0  0  0
   36.0750   31.0400   48.8420 N   0  0  0  0  0  0  0  0  0  0  0  0
   35.7050   29.7430   48.7680 C   0  0  0  0  0  0  0  0  0  0  0  0
   36.1630   28.8300   49.6630 N   0  0  0  0  0  0  0  0  0  0  0  0
   37.4080   28.5800   51.3830 H   0  0  0  0  0  0  0  0  0  0  0  0
   38.0880   30.8820   51.5420 H   0  0  0  0  0  0  0  0  0  0  0  0
   37.2110   32.5290   49.8600 H   0  0  0  0  0  0  0  0  0  0  0  0
   31.1000   26.9430   45.7650 O   0  0  0  0  0  0  0  0  0  0  0  0
   29.9110   29.2020   44.2970 Cl  0  0  0  0  0  0  0  0  0  0  0  0
   29.2200   28.2660   45.6010 C   0  0  0  0  0  0  0  0  0  0  0  0
   29.8750   27.2150   46.2010 C   0  0  0  0  0  0  0  0  0  0  0  0
   29.2070   26.5180   47.2100 C   0  0  0  0  0  0  0  0  0  0  0  0
   27.9300   26.8820   47.5870 C   0  0  0  0  0  0  0  0  0  0  0  0
   27.2640   27.9390   46.9900 C   0  0  0  0  0  0  0  0  0  0  0  0
   27.9370   28.6210   45.9910 C   0  0  0  0  0  0  0  0  0  0  0  0
   29.6180   25.6790   47.7410 H   0  0  0  0  0  0  0  0  0  0  0  0
   27.3610   26.3840   48.3590 H   0  0  0  0  0  0  0  0  0  0  0  0
   26.2680   28.2600   47.2500 H   0  0  0  0  0  0  0  0  0  0  0  0
   27.2570   29.7420   45.3440 C   0  0  0  0  0  0  0  0  0  0  0  0
   27.2040   31.0340   45.7280 N   0  0  0  0  0  0  0  0  0  0  0  0
   26.4660   31.7630   44.8500 C   0  0  0  0  0  0  0  0  0  0  0  0
   26.2040   32.8000   44.8210 H   0  0  0  0  0  0  0  0  0  0  0  0
   26.0630   30.8990   43.9170 N   0  0  0  0  0  0  0  0  0  0  0  0
   25.4800   30.9680   43.0420 H   0  0  0  0  0  0  0  0  0  0  0  0
   26.5350   29.7050   44.2180 N   0  0  0  0  0  0  0  0  0  0  0  0
  1  6  1  1  0  0  0
  1  2  1  0  0  0  0
  2  7  1  1  0  0  0
  3  2  1  0  0  0  0
  4  8  1  0  0  0  0
  4  3  1  0  0  0  0
  5 10  1  6  0  0  0
  5  4  1  0  0  0  0
  5  1  1  0  0  0  0
  9  4  1  0  0  0  0
 11  1  1  0  0  0  0
 12 11  1  0  0  0  0
 13  2  1  0  0  0  0
 13 18  1  0  0  0  0
 14 15  1  0  0  0  0
 14 20  1  0  0  0  0
 15 21  1  0  0  0  0
 16 22  1  0  0  0  0
 16 15  2  0  0  0  0
 17 16  1  0  0  0  0
 18 17  2  0  0  0  0
 18 19  1  0  0  0  0
 19 14  2  0  0  0  0
 23 26  1  0  0  0  0
 23  5  1  0  0  0  0
 24 25  1  0  0  0  0
 25 30  2  0  0  0  0
 25 26  1  0  0  0  0
 26 27  2  0  0  0  0
 27 28  1  0  0  0  0
 27 31  1  0  0  0  0
 28 32  1  0  0  0  0
 29 33  1  0  0  0  0
 29 28  2  0  0  0  0
 30 29  1  0  0  0  0
 34 35  1  0  0  0  0
 34 30  1  0  0  0  0
 36 35  2  0  0  0  0
 37 36  1  0  0  0  0
 38 40  1  0  0  0  0
 38 36  1  0  0  0  0
 39 38  1  0  0  0  0
 40 34  2  0  0  0  0
M  END
>  <minimizedAffinity>
-5.15300083

>  <minimizedRMSD>
0.36698854

$$$$
