
 OpenBabel03272506473D

 40 43  0  0  1  0  0  0  0  0999 V2000
   32.1410   28.4440   47.4700 C   0  0  2  0  0  0  0  0  0  0  0  0
   33.3940   28.2980   48.2830 C   0  0  1  0  0  0  0  0  0  0  0  0
   33.8120   27.0060   48.1840 O   0  0  0  0  0  0  0  0  0  0  0  0
   33.1100   26.3730   47.1630 C   0  0  0  0  0  0  0  0  0  0  0  0
   32.4850   27.4550   46.3120 C   0  0  1  0  0  0  0  0  0  0  0  0
   31.2280   28.0850   47.9370 H   0  0  0  0  0  0  0  0  0  0  0  0
   33.2080   28.6370   49.3320 H   0  0  0  0  0  0  0  0  0  0  0  0
   32.4150   25.6970   47.6470 H   0  0  0  0  0  0  0  0  0  0  0  0
   33.8330   25.7840   46.5290 H   0  0  0  0  0  0  0  0  0  0  0  0
   33.2040   27.9530   45.6680 H   0  0  0  0  0  0  0  0  0  0  0  0
   32.0400   29.7480   46.9420 O   0  0  0  0  0  0  0  0  0  0  0  0
   32.2110   29.7410   45.9670 H   0  0  0  0  0  0  0  0  0  0  0  0
   34.6810   29.3680   47.5160 S   0  0  0  0  0  0  0  0  0  0  0  0
   37.1240   29.2830   50.6360 C   0  0  0  0  0  0  0  0  0  0  0  0
   37.6020   30.5930   50.7580 C   0  0  0  0  0  0  0  0  0  0  0  0
   37.1440   31.5410   49.8280 C   0  0  0  0  0  0  0  0  0  0  0  0
   36.2730   31.1410   48.8750 N   0  0  0  0  0  0  0  0  0  0  0  0
   35.8350   29.8660   48.7890 C   0  0  0  0  0  0  0  0  0  0  0  0
   36.2540   28.9190   49.6690 N   0  0  0  0  0  0  0  0  0  0  0  0
   37.5010   28.5830   51.3720 H   0  0  0  0  0  0  0  0  0  0  0  0
   38.3020   30.8450   51.5520 H   0  0  0  0  0  0  0  0  0  0  0  0
   37.4950   32.5560   49.8990 H   0  0  0  0  0  0  0  0  0  0  0  0
   31.3430   26.9590   45.7330 O   0  0  0  0  0  0  0  0  0  0  0  0
   30.0210   29.0750   44.1690 Cl  0  0  0  0  0  0  0  0  0  0  0  0
   29.3800   28.1450   45.5020 C   0  0  0  0  0  0  0  0  0  0  0  0
   30.0970   27.1640   46.1470 C   0  0  0  0  0  0  0  0  0  0  0  0
   29.4660   26.4620   47.1760 C   0  0  0  0  0  0  0  0  0  0  0  0
   28.1630   26.7520   47.5280 C   0  0  0  0  0  0  0  0  0  0  0  0
   27.4350   27.7390   46.8850 C   0  0  0  0  0  0  0  0  0  0  0  0
   28.0710   28.4270   45.8670 C   0  0  0  0  0  0  0  0  0  0  0  0
   29.9270   25.6730   47.7420 H   0  0  0  0  0  0  0  0  0  0  0  0
   27.6200   26.2470   48.3140 H   0  0  0  0  0  0  0  0  0  0  0  0
   26.4170   28.0020   47.1250 H   0  0  0  0  0  0  0  0  0  0  0  0
   27.3250   29.4750   45.1720 C   0  0  0  0  0  0  0  0  0  0  0  0
   26.6090   29.3880   44.0330 N   0  0  0  0  0  0  0  0  0  0  0  0
   26.0650   30.5930   43.7180 C   0  0  0  0  0  0  0  0  0  0  0  0
   25.4470   30.9120   42.9040 H   0  0  0  0  0  0  0  0  0  0  0  0
   26.4580   31.4270   44.6830 N   0  0  0  0  0  0  0  0  0  0  0  0
   26.3050   32.4490   44.8910 H   0  0  0  0  0  0  0  0  0  0  0  0
   27.2030   30.7560   45.5400 N   0  0  0  0  0  0  0  0  0  0  0  0
  1  6  1  1  0  0  0
  1  2  1  0  0  0  0
  2  7  1  1  0  0  0
  3  2  1  0  0  0  0
  4  8  1  0  0  0  0
  4  3  1  0  0  0  0
  5 10  1  6  0  0  0
  5  4  1  0  0  0  0
  5  1  1  0  0  0  0
  9  4  1  0  0  0  0
 11  1  1  0  0  0  0
 12 11  1  0  0  0  0
 13  2  1  0  0  0  0
 13 18  1  0  0  0  0
 14 15  1  0  0  0  0
 14 20  1  0  0  0  0
 15 21  1  0  0  0  0
 16 22  1  0  0  0  0
 16 15  2  0  0  0  0
 17 16  1  0  0  0  0
 18 17  2  0  0  0  0
 18 19  1  0  0  0  0
 19 14  2  0  0  0  0
 23 26  1  0  0  0  0
 23  5  1  0  0  0  0
 24 25  1  0  0  0  0
 25 30  2  0  0  0  0
 25 26  1  0  0  0  0
 26 27  2  0  0  0  0
 27 28  1  0  0  0  0
 27 31  1  0  0  0  0
 28 32  1  0  0  0  0
 29 33  1  0  0  0  0
 29 28  2  0  0  0  0
 30 29  1  0  0  0  0
 34 40  2  0  0  0  0
 34 30  1  0  0  0  0
 35 34  1  0  0  0  0
 36 35  2  0  0  0  0
 36 38  1  0  0  0  0
 37 36  1  0  0  0  0
 38 39  1  0  0  0  0
 38 40  1  0  0  0  0
M  END
>  <minimizedAffinity>
-5.10114336

>  <minimizedRMSD>
0.436272413

$$$$
