
 OpenBabel03272506473D

 40 43  0  0  1  0  0  0  0  0999 V2000
   32.1170   28.4520   47.4470 C   0  0  2  0  0  0  0  0  0  0  0  0
   33.3690   28.2880   48.2580 C   0  0  1  0  0  0  0  0  0  0  0  0
   33.7710   26.9910   48.1520 O   0  0  0  0  0  0  0  0  0  0  0  0
   33.0600   26.3720   47.1280 C   0  0  0  0  0  0  0  0  0  0  0  0
   32.4480   27.4650   46.2830 C   0  0  1  0  0  0  0  0  0  0  0  0
   31.2000   28.1020   47.9130 H   0  0  0  0  0  0  0  0  0  0  0  0
   33.1870   28.6230   49.3090 H   0  0  0  0  0  0  0  0  0  0  0  0
   32.3580   25.7010   47.6100 H   0  0  0  0  0  0  0  0  0  0  0  0
   33.7760   25.7770   46.4910 H   0  0  0  0  0  0  0  0  0  0  0  0
   33.1720   27.9590   45.6420 H   0  0  0  0  0  0  0  0  0  0  0  0
   32.0310   29.7600   46.9260 O   0  0  0  0  0  0  0  0  0  0  0  0
   32.2010   29.7560   45.9500 H   0  0  0  0  0  0  0  0  0  0  0  0
   34.6680   29.3460   47.4950 S   0  0  0  0  0  0  0  0  0  0  0  0
   37.0930   29.2710   50.6290 C   0  0  0  0  0  0  0  0  0  0  0  0
   37.5630   30.5840   50.7550 C   0  0  0  0  0  0  0  0  0  0  0  0
   37.1050   31.5300   49.8240 C   0  0  0  0  0  0  0  0  0  0  0  0
   36.2410   31.1260   48.8650 N   0  0  0  0  0  0  0  0  0  0  0  0
   35.8110   29.8480   48.7760 C   0  0  0  0  0  0  0  0  0  0  0  0
   36.2300   28.9030   49.6560 N   0  0  0  0  0  0  0  0  0  0  0  0
   37.4700   28.5720   51.3670 H   0  0  0  0  0  0  0  0  0  0  0  0
   38.2570   30.8380   51.5530 H   0  0  0  0  0  0  0  0  0  0  0  0
   37.4490   32.5460   49.8980 H   0  0  0  0  0  0  0  0  0  0  0  0
   31.2990   26.9860   45.7030 O   0  0  0  0  0  0  0  0  0  0  0  0
   30.0070   29.1510   44.1800 Cl  0  0  0  0  0  0  0  0  0  0  0  0
   29.3530   28.2050   45.4950 C   0  0  0  0  0  0  0  0  0  0  0  0
   30.0560   27.2010   46.1210 C   0  0  0  0  0  0  0  0  0  0  0  0
   29.4150   26.4890   47.1380 C   0  0  0  0  0  0  0  0  0  0  0  0
   28.1160   26.7920   47.4960 C   0  0  0  0  0  0  0  0  0  0  0  0
   27.4020   27.8010   46.8710 C   0  0  0  0  0  0  0  0  0  0  0  0
   28.0490   28.4990   45.8660 C   0  0  0  0  0  0  0  0  0  0  0  0
   29.8640   25.6830   47.6880 H   0  0  0  0  0  0  0  0  0  0  0  0
   27.5660   26.2800   48.2710 H   0  0  0  0  0  0  0  0  0  0  0  0
   26.3880   28.0730   47.1160 H   0  0  0  0  0  0  0  0  0  0  0  0
   27.3180   29.5700   45.1910 C   0  0  0  0  0  0  0  0  0  0  0  0
   26.6280   29.5230   44.0340 N   0  0  0  0  0  0  0  0  0  0  0  0
   26.0910   30.7380   43.7490 C   0  0  0  0  0  0  0  0  0  0  0  0
   25.4910   31.0840   42.9320 H   0  0  0  0  0  0  0  0  0  0  0  0
   26.4610   31.5380   44.7500 N   0  0  0  0  0  0  0  0  0  0  0  0
   26.3020   32.5510   44.9900 H   0  0  0  0  0  0  0  0  0  0  0  0
   27.1870   30.8380   45.6010 N   0  0  0  0  0  0  0  0  0  0  0  0
  1  6  1  1  0  0  0
  1  2  1  0  0  0  0
  2  7  1  1  0  0  0
  3  2  1  0  0  0  0
  4  8  1  0  0  0  0
  4  3  1  0  0  0  0
  5 10  1  6  0  0  0
  5  4  1  0  0  0  0
  5  1  1  0  0  0  0
  9  4  1  0  0  0  0
 11  1  1  0  0  0  0
 12 11  1  0  0  0  0
 13  2  1  0  0  0  0
 13 18  1  0  0  0  0
 14 15  1  0  0  0  0
 14 20  1  0  0  0  0
 15 21  1  0  0  0  0
 16 22  1  0  0  0  0
 16 15  2  0  0  0  0
 17 16  1  0  0  0  0
 18 17  2  0  0  0  0
 18 19  1  0  0  0  0
 19 14  2  0  0  0  0
 23 26  1  0  0  0  0
 23  5  1  0  0  0  0
 24 25  1  0  0  0  0
 25 30  2  0  0  0  0
 25 26  1  0  0  0  0
 26 27  2  0  0  0  0
 27 28  1  0  0  0  0
 27 31  1  0  0  0  0
 28 32  1  0  0  0  0
 29 33  1  0  0  0  0
 29 28  2  0  0  0  0
 30 29  1  0  0  0  0
 34 40  2  0  0  0  0
 34 30  1  0  0  0  0
 35 34  1  0  0  0  0
 36 35  2  0  0  0  0
 36 38  1  0  0  0  0
 37 36  1  0  0  0  0
 38 39  1  0  0  0  0
 38 40  1  0  0  0  0
M  END
>  <minimizedAffinity>
-5.11224031

>  <minimizedRMSD>
0.350519389

$$$$
