
 OpenBabel03272506473D

 40 43  0  0  1  0  0  0  0  0999 V2000
   32.1670   28.4500   47.4890 C   0  0  2  0  0  0  0  0  0  0  0  0
   33.4320   28.2490   48.2700 C   0  0  1  0  0  0  0  0  0  0  0  0
   33.8030   26.9450   48.1420 O   0  0  0  0  0  0  0  0  0  0  0  0
   33.0550   26.3530   47.1290 C   0  0  0  0  0  0  0  0  0  0  0  0
   32.4490   27.4680   46.3090 C   0  0  1  0  0  0  0  0  0  0  0  0
   31.2530   28.1160   47.9730 H   0  0  0  0  0  0  0  0  0  0  0  0
   33.2820   28.5770   49.3280 H   0  0  0  0  0  0  0  0  0  0  0  0
   32.3490   25.6930   47.6190 H   0  0  0  0  0  0  0  0  0  0  0  0
   33.7430   25.7490   46.4690 H   0  0  0  0  0  0  0  0  0  0  0  0
   33.1690   27.9520   45.6560 H   0  0  0  0  0  0  0  0  0  0  0  0
   32.0980   29.7650   46.9830 O   0  0  0  0  0  0  0  0  0  0  0  0
   32.2460   29.7670   46.0050 H   0  0  0  0  0  0  0  0  0  0  0  0
   34.7370   29.2860   47.4890 S   0  0  0  0  0  0  0  0  0  0  0  0
   37.1220   29.3040   50.6540 C   0  0  0  0  0  0  0  0  0  0  0  0
   37.6050   30.6150   50.7370 C   0  0  0  0  0  0  0  0  0  0  0  0
   37.1700   31.5310   49.7640 C   0  0  0  0  0  0  0  0  0  0  0  0
   36.3150   31.0990   48.8100 N   0  0  0  0  0  0  0  0  0  0  0  0
   35.8700   29.8240   48.7640 C   0  0  0  0  0  0  0  0  0  0  0  0
   36.2680   28.9090   49.6860 N   0  0  0  0  0  0  0  0  0  0  0  0
   37.4810   28.6300   51.4230 H   0  0  0  0  0  0  0  0  0  0  0  0
   38.2920   30.8920   51.5330 H   0  0  0  0  0  0  0  0  0  0  0  0
   37.5260   32.5450   49.8040 H   0  0  0  0  0  0  0  0  0  0  0  0
   31.2770   27.0210   45.7500 O   0  0  0  0  0  0  0  0  0  0  0  0
   30.0280   29.2870   44.3430 Cl  0  0  0  0  0  0  0  0  0  0  0  0
   29.3670   28.3070   45.6300 C   0  0  0  0  0  0  0  0  0  0  0  0
   30.0490   27.2560   46.2000 C   0  0  0  0  0  0  0  0  0  0  0  0
   29.4040   26.5220   47.1980 C   0  0  0  0  0  0  0  0  0  0  0  0
   28.1220   26.8490   47.5930 C   0  0  0  0  0  0  0  0  0  0  0  0
   27.4300   27.9050   47.0250 C   0  0  0  0  0  0  0  0  0  0  0  0
   28.0800   28.6250   46.0380 C   0  0  0  0  0  0  0  0  0  0  0  0
   29.8370   25.6800   47.7060 H   0  0  0  0  0  0  0  0  0  0  0  0
   27.5700   26.3220   48.3570 H   0  0  0  0  0  0  0  0  0  0  0  0
   26.4290   28.1990   47.3000 H   0  0  0  0  0  0  0  0  0  0  0  0
   27.3710   29.7460   45.4220 C   0  0  0  0  0  0  0  0  0  0  0  0
   27.3060   31.0300   45.8290 N   0  0  0  0  0  0  0  0  0  0  0  0
   26.5410   31.7620   44.9770 C   0  0  0  0  0  0  0  0  0  0  0  0
   26.2640   32.7950   44.9700 H   0  0  0  0  0  0  0  0  0  0  0  0
   26.1340   30.9080   44.0370 N   0  0  0  0  0  0  0  0  0  0  0  0
   25.5350   30.9820   43.1740 H   0  0  0  0  0  0  0  0  0  0  0  0
   26.6300   29.7170   44.3080 N   0  0  0  0  0  0  0  0  0  0  0  0
  1  6  1  1  0  0  0
  1  2  1  0  0  0  0
  2  7  1  1  0  0  0
  3  2  1  0  0  0  0
  4  8  1  0  0  0  0
  4  3  1  0  0  0  0
  5 10  1  6  0  0  0
  5  4  1  0  0  0  0
  5  1  1  0  0  0  0
  9  4  1  0  0  0  0
 11  1  1  0  0  0  0
 12 11  1  0  0  0  0
 13  2  1  0  0  0  0
 13 18  1  0  0  0  0
 14 15  1  0  0  0  0
 14 20  1  0  0  0  0
 15 21  1  0  0  0  0
 16 22  1  0  0  0  0
 16 15  2  0  0  0  0
 17 16  1  0  0  0  0
 18 17  2  0  0  0  0
 18 19  1  0  0  0  0
 19 14  2  0  0  0  0
 23 26  1  0  0  0  0
 23  5  1  0  0  0  0
 24 25  1  0  0  0  0
 25 30  2  0  0  0  0
 25 26  1  0  0  0  0
 26 27  2  0  0  0  0
 27 28  1  0  0  0  0
 27 31  1  0  0  0  0
 28 32  1  0  0  0  0
 29 33  1  0  0  0  0
 29 28  2  0  0  0  0
 30 29  1  0  0  0  0
 34 35  1  0  0  0  0
 34 30  1  0  0  0  0
 36 35  2  0  0  0  0
 37 36  1  0  0  0  0
 38 40  1  0  0  0  0
 38 36  1  0  0  0  0
 39 38  1  0  0  0  0
 40 34  2  0  0  0  0
M  END
>  <minimizedAffinity>
-5.14598989

>  <minimizedRMSD>
0.49402234

$$$$
