
 OpenBabel03272509573D

 44 47  0  0  0  0  0  0  0  0999 V2000
   34.4390   28.6230   48.1670 C   0  0  0  0  0  0  0  0  0  0  0  0
   35.2390   28.8740   47.4180 H   0  0  0  0  0  0  0  0  0  0  0  0
   33.8270   29.5380   48.2600 H   0  0  0  0  0  0  0  0  0  0  0  0
   33.5390   27.5150   47.7030 C   0  0  0  0  0  0  0  0  0  0  0  0
   33.7800   27.3360   46.6320 H   0  0  0  0  0  0  0  0  0  0  0  0
   33.6940   26.5900   48.2950 H   0  0  0  0  0  0  0  0  0  0  0  0
   32.1060   27.8850   47.7600 C   0  0  0  0  0  0  0  0  0  0  0  0
   31.3680   27.4600   48.8580 C   0  0  0  0  0  0  0  0  0  0  0  0
   30.0370   27.7510   49.0020 C   0  0  0  0  0  0  0  0  0  0  0  0
   29.4220   28.4620   48.0650 N   0  0  0  0  0  0  0  0  0  0  0  0
   30.1520   28.8730   46.9940 C   0  0  0  0  0  0  0  0  0  0  0  0
   31.4520   28.6100   46.8190 N   0  0  0  0  0  0  0  0  0  0  0  0
   31.8280   26.8760   49.6480 H   0  0  0  0  0  0  0  0  0  0  0  0
   29.4490   27.4290   49.8470 H   0  0  0  0  0  0  0  0  0  0  0  0
   29.4210   29.6760   45.9560 C   0  0  0  0  0  0  0  0  0  0  0  0
   28.9420   30.5730   46.4340 H   0  0  0  0  0  0  0  0  0  0  0  0
   30.0200   29.9090   45.0790 H   0  0  0  0  0  0  0  0  0  0  0  0
   28.2950   28.7920   45.5050 C   0  0  0  0  0  0  0  0  0  0  0  0
   26.9800   29.1100   45.6460 N   0  0  0  0  0  0  0  0  0  0  0  0
   26.2500   28.1040   45.1400 C   0  0  0  0  0  0  0  0  0  0  0  0
   25.1670   28.0890   45.1190 H   0  0  0  0  0  0  0  0  0  0  0  0
   27.1170   27.1560   44.6830 N   0  0  0  0  0  0  0  0  0  0  0  0
   26.8600   26.2530   44.2330 H   0  0  0  0  0  0  0  0  0  0  0  0
   28.3330   27.5780   44.9060 N   0  0  0  0  0  0  0  0  0  0  0  0
   34.9960   28.3370   49.4360 O   0  0  0  0  0  0  0  0  0  0  0  0
   37.3200   30.1750   51.4870 C   0  0  0  0  0  0  0  0  0  0  0  0
   38.0620   30.8590   50.5030 C   0  0  0  0  0  0  0  0  0  0  0  0
   37.7050   30.6390   49.1820 C   0  0  0  0  0  0  0  0  0  0  0  0
   36.6680   29.7780   48.9660 N   0  0  0  0  0  0  0  0  0  0  0  0
   35.9810   29.1400   49.9100 C   0  0  0  0  0  0  0  0  0  0  0  0
   36.3290   29.3560   51.2030 N   0  0  0  0  0  0  0  0  0  0  0  0
   37.6060   30.3540   52.5120 H   0  0  0  0  0  0  0  0  0  0  0  0
   38.8710   31.5330   50.6780 H   0  0  0  0  0  0  0  0  0  0  0  0
   38.9580   33.2370   48.9950 F   0  0  0  0  0  0  0  0  0  0  0  0
   38.9180   32.4480   47.9190 C   0  0  0  0  0  0  0  0  0  0  0  0
   38.3310   31.2390   48.0190 C   0  0  0  0  0  0  0  0  0  0  0  0
   38.3460   30.5000   46.8430 C   0  0  0  0  0  0  0  0  0  0  0  0
   38.9070   30.9600   45.6830 C   0  0  0  0  0  0  0  0  0  0  0  0
   39.4980   32.2030   45.6220 C   0  0  0  0  0  0  0  0  0  0  0  0
   39.4980   32.9540   46.7680 C   0  0  0  0  0  0  0  0  0  0  0  0
   37.9110   29.5090   46.7700 H   0  0  0  0  0  0  0  0  0  0  0  0
   38.9170   30.3830   44.7660 H   0  0  0  0  0  0  0  0  0  0  0  0
   39.9540   32.6070   44.7270 H   0  0  0  0  0  0  0  0  0  0  0  0
   39.9540   33.9330   46.7550 H   0  0  0  0  0  0  0  0  0  0  0  0
  1  3  1  0  0  0  0
  1 25  1  0  0  0  0
  2  1  1  0  0  0  0
  4  7  1  0  0  0  0
  4  1  1  0  0  0  0
  4  6  1  0  0  0  0
  5  4  1  0  0  0  0
  7  8  1  0  0  0  0
  8  9  2  0  0  0  0
  8 13  1  0  0  0  0
  9 14  1  0  0  0  0
 10  9  1  0  0  0  0
 11 10  2  0  0  0  0
 12 11  1  0  0  0  0
 12  7  2  0  0  0  0
 15 16  1  0  0  0  0
 15 11  1  0  0  0  0
 17 15  1  0  0  0  0
 18 19  1  0  0  0  0
 18 15  1  0  0  0  0
 20 19  2  0  0  0  0
 21 20  1  0  0  0  0
 22 24  1  0  0  0  0
 22 20  1  0  0  0  0
 23 22  1  0  0  0  0
 24 18  2  0  0  0  0
 25 30  1  0  0  0  0
 26 32  1  0  0  0  0
 27 33  1  0  0  0  0
 27 26  2  0  0  0  0
 28 27  1  0  0  0  0
 29 28  2  0  0  0  0
 29 30  1  0  0  0  0
 30 31  2  0  0  0  0
 31 26  1  0  0  0  0
 35 36  1  0  0  0  0
 35 34  1  0  0  0  0
 36 28  1  0  0  0  0
 37 36  2  0  0  0  0
 38 37  1  0  0  0  0
 39 38  2  0  0  0  0
 39 40  1  0  0  0  0
 40 35  2  0  0  0  0
 41 37  1  0  0  0  0
 42 38  1  0  0  0  0
 43 39  1  0  0  0  0
 44 40  1  0  0  0  0
M  END
>  <minimizedAffinity>
-6.50027561

>  <minimizedRMSD>
0.686588168

$$$$
