
 OpenBabel03272509573D

 44 47  0  0  0  0  0  0  0  0999 V2000
   34.4190   28.6310   48.1170 C   0  0  0  0  0  0  0  0  0  0  0  0
   35.3150   28.7920   47.4570 H   0  0  0  0  0  0  0  0  0  0  0  0
   33.8540   29.5800   48.0800 H   0  0  0  0  0  0  0  0  0  0  0  0
   33.5180   27.5420   47.6120 C   0  0  0  0  0  0  0  0  0  0  0  0
   33.7360   27.4250   46.5280 H   0  0  0  0  0  0  0  0  0  0  0  0
   33.6940   26.5870   48.1480 H   0  0  0  0  0  0  0  0  0  0  0  0
   32.0830   27.8940   47.7220 C   0  0  0  0  0  0  0  0  0  0  0  0
   31.3790   27.4200   48.8220 C   0  0  0  0  0  0  0  0  0  0  0  0
   30.0500   27.6900   49.0130 C   0  0  0  0  0  0  0  0  0  0  0  0
   29.4030   28.4300   48.1210 N   0  0  0  0  0  0  0  0  0  0  0  0
   30.1000   28.8890   47.0470 C   0  0  0  0  0  0  0  0  0  0  0  0
   31.3960   28.6470   46.8270 N   0  0  0  0  0  0  0  0  0  0  0  0
   31.8660   26.8110   49.5770 H   0  0  0  0  0  0  0  0  0  0  0  0
   29.4880   27.3310   49.8600 H   0  0  0  0  0  0  0  0  0  0  0  0
   29.3330   29.7230   46.0610 C   0  0  0  0  0  0  0  0  0  0  0  0
   28.9500   30.6520   46.5620 H   0  0  0  0  0  0  0  0  0  0  0  0
   29.8680   29.9100   45.1340 H   0  0  0  0  0  0  0  0  0  0  0  0
   28.1220   28.9030   45.7200 C   0  0  0  0  0  0  0  0  0  0  0  0
   28.1570   27.7980   44.9260 N   0  0  0  0  0  0  0  0  0  0  0  0
   26.9090   27.3140   44.8300 C   0  0  0  0  0  0  0  0  0  0  0  0
   26.6400   26.4350   44.2580 H   0  0  0  0  0  0  0  0  0  0  0  0
   26.0960   28.1220   45.5690 N   0  0  0  0  0  0  0  0  0  0  0  0
   25.0690   28.0110   45.6950 H   0  0  0  0  0  0  0  0  0  0  0  0
   26.8310   29.0660   46.0930 N   0  0  0  0  0  0  0  0  0  0  0  0
   34.8030   28.4020   49.4590 O   0  0  0  0  0  0  0  0  0  0  0  0
   37.1780   30.0370   51.6200 C   0  0  0  0  0  0  0  0  0  0  0  0
   37.9520   30.7460   50.6790 C   0  0  0  0  0  0  0  0  0  0  0  0
   37.5980   30.6110   49.3470 C   0  0  0  0  0  0  0  0  0  0  0  0
   36.5320   29.8020   49.0780 N   0  0  0  0  0  0  0  0  0  0  0  0
   35.8140   29.1400   49.9820 C   0  0  0  0  0  0  0  0  0  0  0  0
   36.1600   29.2730   51.2860 N   0  0  0  0  0  0  0  0  0  0  0  0
   37.4630   30.1500   52.6550 H   0  0  0  0  0  0  0  0  0  0  0  0
   38.7850   31.3780   50.8950 H   0  0  0  0  0  0  0  0  0  0  0  0
   38.8130   33.2320   49.2670 F   0  0  0  0  0  0  0  0  0  0  0  0
   38.8250   32.4700   48.1720 C   0  0  0  0  0  0  0  0  0  0  0  0
   38.2550   31.2490   48.2210 C   0  0  0  0  0  0  0  0  0  0  0  0
   38.3230   30.5400   47.0290 C   0  0  0  0  0  0  0  0  0  0  0  0
   38.9170   31.0380   45.9010 C   0  0  0  0  0  0  0  0  0  0  0  0
   39.4890   32.2910   45.8910 C   0  0  0  0  0  0  0  0  0  0  0  0
   39.4360   33.0130   47.0550 C   0  0  0  0  0  0  0  0  0  0  0  0
   37.9080   29.5450   46.9160 H   0  0  0  0  0  0  0  0  0  0  0  0
   38.9700   30.4840   44.9710 H   0  0  0  0  0  0  0  0  0  0  0  0
   39.9700   32.7240   45.0230 H   0  0  0  0  0  0  0  0  0  0  0  0
   39.8760   33.9990   47.0820 H   0  0  0  0  0  0  0  0  0  0  0  0
  1 25  1  0  0  0  0
  2  1  1  0  0  0  0
  3  1  1  0  0  0  0
  4  7  1  0  0  0  0
  4  1  1  0  0  0  0
  4  6  1  0  0  0  0
  5  4  1  0  0  0  0
  7  8  1  0  0  0  0
  8  9  2  0  0  0  0
  8 13  1  0  0  0  0
  9 14  1  0  0  0  0
 10  9  1  0  0  0  0
 11 10  2  0  0  0  0
 12 11  1  0  0  0  0
 12  7  2  0  0  0  0
 15 16  1  0  0  0  0
 15 11  1  0  0  0  0
 17 15  1  0  0  0  0
 18 15  1  0  0  0  0
 18 24  2  0  0  0  0
 19 18  1  0  0  0  0
 20 19  2  0  0  0  0
 20 22  1  0  0  0  0
 21 20  1  0  0  0  0
 22 23  1  0  0  0  0
 22 24  1  0  0  0  0
 25 30  1  0  0  0  0
 26 32  1  0  0  0  0
 27 33  1  0  0  0  0
 27 26  2  0  0  0  0
 28 27  1  0  0  0  0
 29 28  2  0  0  0  0
 29 30  1  0  0  0  0
 30 31  2  0  0  0  0
 31 26  1  0  0  0  0
 35 36  1  0  0  0  0
 35 34  1  0  0  0  0
 36 28  1  0  0  0  0
 37 36  2  0  0  0  0
 38 37  1  0  0  0  0
 39 38  2  0  0  0  0
 39 40  1  0  0  0  0
 40 44  1  0  0  0  0
 40 35  2  0  0  0  0
 41 37  1  0  0  0  0
 42 38  1  0  0  0  0
 43 39  1  0  0  0  0
M  END
>  <minimizedAffinity>
-6.57193422

>  <minimizedRMSD>
0.881731272

$$$$
