
 OpenBabel03272500593D

 33 35  0  0  0  0  0  0  0  0999 V2000
   36.4160   22.3440   32.0540 C   0  0  0  0  0  0  0  0  0  0  0  0
   35.5130   21.7440   31.2230 C   0  0  0  0  0  0  0  0  0  0  0  0
   34.8770   20.5410   31.5510 C   0  0  0  0  0  0  0  0  0  0  0  0
   35.2140   19.9420   32.8290 C   0  0  0  0  0  0  0  0  0  0  0  0
   36.1150   20.5870   33.6060 C   0  0  0  0  0  0  0  0  0  0  0  0
   36.7230   21.7420   33.2800 C   0  0  0  0  0  0  0  0  0  0  0  0
   35.2420   22.1820   30.2480 H   0  0  0  0  0  0  0  0  0  0  0  0
   34.1700   20.1210   30.8400 H   0  0  0  0  0  0  0  0  0  0  0  0
   34.6550   19.0420   32.9360 H   0  0  0  0  0  0  0  0  0  0  0  0
   36.1840   19.9840   34.4960 H   0  0  0  0  0  0  0  0  0  0  0  0
   36.2890   24.7840   31.9470 C   0  0  0  0  0  0  0  0  0  0  0  0
   36.9710   23.5940   31.5850 C   0  0  0  0  0  0  0  0  0  0  0  0
   38.0970   23.7890   30.8250 C   0  0  0  0  0  0  0  0  0  0  0  0
   38.4850   25.0280   30.4760 N   0  0  0  0  0  0  0  0  0  0  0  0
   37.8410   26.1200   30.8210 C   0  0  0  0  0  0  0  0  0  0  0  0
   36.7480   25.9850   31.5530 N   0  0  0  0  0  0  0  0  0  0  0  0
   35.3970   24.7000   32.5430 H   0  0  0  0  0  0  0  0  0  0  0  0
   38.6210   22.8930   30.5450 H   0  0  0  0  0  0  0  0  0  0  0  0
   38.1050   27.1430   30.5700 H   0  0  0  0  0  0  0  0  0  0  0  0
   39.0000   21.8630   33.8610 C   0  0  0  0  0  0  0  0  0  0  0  0
   39.1790   20.9540   32.9550 O   0  0  0  0  0  0  0  0  0  0  0  0
   37.6480   22.3230   34.1090 N   0  0  0  0  0  0  0  0  0  0  0  0
   37.4200   23.0060   34.8310 H   0  0  0  0  0  0  0  0  0  0  0  0
   40.0840   22.3510   34.5430 O   0  0  0  0  0  0  0  0  0  0  0  0
   40.0400   23.4150   35.4380 C   0  0  0  0  0  0  0  0  0  0  0  0
   40.5880   24.5780   35.1560 O   0  0  0  0  0  0  0  0  0  0  0  0
   39.3580   23.3050   36.7490 C   0  0  0  0  0  0  0  0  0  0  0  0
   38.0920   23.6650   37.0810 N   0  0  0  0  0  0  0  0  0  0  0  0
   37.8700   23.3980   38.3770 C   0  0  0  0  0  0  0  0  0  0  0  0
   36.9030   23.6220   38.8180 H   0  0  0  0  0  0  0  0  0  0  0  0
   39.0030   22.8650   38.8640 N   0  0  0  0  0  0  0  0  0  0  0  0
   39.1030   22.5640   39.8600 H   0  0  0  0  0  0  0  0  0  0  0  0
   39.8880   22.8140   37.8810 N   0  0  0  0  0  0  0  0  0  0  0  0
  1  6  1  0  0  0  0
  2  3  1  0  0  0  0
  2  1  2  0  0  0  0
  3  4  2  0  0  0  0
  4  9  1  0  0  0  0
  4  5  1  0  0  0  0
  5 10  1  0  0  0  0
  6  5  2  0  0  0  0
  6 22  1  0  0  0  0
  7  2  1  0  0  0  0
  8  3  1  0  0  0  0
 11 17  1  0  0  0  0
 12 11  1  0  0  0  0
 12  1  1  0  0  0  0
 13 12  2  0  0  0  0
 14 15  2  0  0  0  0
 14 13  1  0  0  0  0
 15 16  1  0  0  0  0
 16 11  2  0  0  0  0
 18 13  1  0  0  0  0
 19 15  1  0  0  0  0
 20 22  1  0  0  0  0
 20 24  1  0  0  0  0
 21 20  2  0  0  0  0
 22 23  1  0  0  0  0
 24 25  1  0  0  0  0
 25 27  1  0  0  0  0
 26 25  2  0  0  0  0
 27 28  1  0  0  0  0
 27 33  2  0  0  0  0
 28 29  2  0  0  0  0
 29 30  1  0  0  0  0
 29 31  1  0  0  0  0
 31 32  1  0  0  0  0
 33 31  1  0  0  0  0
M  END
>  <minimizedAffinity>
-5.49107313

$$$$

 OpenBabel03272500593D

 33 35  0  0  0  0  0  0  0  0999 V2000
   36.7810   26.7890   32.5630 C   0  0  0  0  0  0  0  0  0  0  0  0
   36.0410   27.7570   31.9460 C   0  0  0  0  0  0  0  0  0  0  0  0
   35.5750   28.8900   32.6240 C   0  0  0  0  0  0  0  0  0  0  0  0
   35.9130   29.0040   34.0310 C   0  0  0  0  0  0  0  0  0  0  0  0
   36.6490   28.0110   34.5810 C   0  0  0  0  0  0  0  0  0  0  0  0
   37.0890   26.9240   33.9210 C   0  0  0  0  0  0  0  0  0  0  0  0
   35.7740   27.6920   30.8780 H   0  0  0  0  0  0  0  0  0  0  0  0
   34.9910   29.6200   32.0690 H   0  0  0  0  0  0  0  0  0  0  0  0
   35.4930   29.9080   34.4050 H   0  0  0  0  0  0  0  0  0  0  0  0
   36.7960   28.3190   35.6030 H   0  0  0  0  0  0  0  0  0  0  0  0
   38.3800   25.8840   30.9480 C   0  0  0  0  0  0  0  0  0  0  0  0
   37.2080   25.6920   31.7220 C   0  0  0  0  0  0  0  0  0  0  0  0
   36.6210   24.4590   31.5760 C   0  0  0  0  0  0  0  0  0  0  0  0
   37.1530   23.5390   30.7530 N   0  0  0  0  0  0  0  0  0  0  0  0
   38.2400   23.7340   30.0420 C   0  0  0  0  0  0  0  0  0  0  0  0
   38.8420   24.9070   30.1490 N   0  0  0  0  0  0  0  0  0  0  0  0
   38.8880   26.8300   31.0170 H   0  0  0  0  0  0  0  0  0  0  0  0
   35.7320   24.3040   32.1590 H   0  0  0  0  0  0  0  0  0  0  0  0
   38.7140   23.0320   29.3630 H   0  0  0  0  0  0  0  0  0  0  0  0
   39.2360   26.1890   34.5400 C   0  0  0  0  0  0  0  0  0  0  0  0
   39.6700   27.2370   33.9130 O   0  0  0  0  0  0  0  0  0  0  0  0
   37.8090   25.9440   34.5550 N   0  0  0  0  0  0  0  0  0  0  0  0
   37.3930   25.1220   34.9930 H   0  0  0  0  0  0  0  0  0  0  0  0
   40.1360   25.3600   35.1590 O   0  0  0  0  0  0  0  0  0  0  0  0
   39.8910   24.0290   35.4810 C   0  0  0  0  0  0  0  0  0  0  0  0
   40.2460   23.0480   34.6790 O   0  0  0  0  0  0  0  0  0  0  0  0
   39.2370   23.6400   36.7520 C   0  0  0  0  0  0  0  0  0  0  0  0
   38.0100   23.9880   37.2180 N   0  0  0  0  0  0  0  0  0  0  0  0
   37.8020   23.4190   38.4160 C   0  0  0  0  0  0  0  0  0  0  0  0
   36.8660   23.5880   38.9400 H   0  0  0  0  0  0  0  0  0  0  0  0
   38.9050   22.7090   38.7060 N   0  0  0  0  0  0  0  0  0  0  0  0
   39.0080   22.1620   39.5900 H   0  0  0  0  0  0  0  0  0  0  0  0
   39.7580   22.8480   37.7030 N   0  0  0  0  0  0  0  0  0  0  0  0
  1  6  1  0  0  0  0
  2  1  2  0  0  0  0
  2  3  1  0  0  0  0
  3  4  2  0  0  0  0
  4  9  1  0  0  0  0
  4  5  1  0  0  0  0
  5 10  1  0  0  0  0
  6 22  1  0  0  0  0
  6  5  2  0  0  0  0
  7  2  1  0  0  0  0
  8  3  1  0  0  0  0
 11 17  1  0  0  0  0
 11 12  1  0  0  0  0
 12  1  1  0  0  0  0
 13 12  2  0  0  0  0
 13 18  1  0  0  0  0
 14 13  1  0  0  0  0
 15 16  1  0  0  0  0
 15 14  2  0  0  0  0
 16 11  2  0  0  0  0
 19 15  1  0  0  0  0
 20 22  1  0  0  0  0
 20 24  1  0  0  0  0
 21 20  2  0  0  0  0
 22 23  1  0  0  0  0
 24 25  1  0  0  0  0
 25 27  1  0  0  0  0
 26 25  2  0  0  0  0
 27 28  1  0  0  0  0
 27 33  2  0  0  0  0
 28 29  2  0  0  0  0
 29 31  1  0  0  0  0
 29 30  1  0  0  0  0
 31 32  1  0  0  0  0
 33 31  1  0  0  0  0
M  END
>  <minimizedAffinity>
-5.41884136

$$$$

 OpenBabel03272500593D

 33 35  0  0  0  0  0  0  0  0999 V2000
   36.2870   23.6040   31.7980 C   0  0  0  0  0  0  0  0  0  0  0  0
   35.5340   24.3110   30.9050 C   0  0  0  0  0  0  0  0  0  0  0  0
   35.5110   25.7110   30.8870 C   0  0  0  0  0  0  0  0  0  0  0  0
   36.3310   26.3990   31.8670 C   0  0  0  0  0  0  0  0  0  0  0  0
   37.0530   25.6400   32.7230 C   0  0  0  0  0  0  0  0  0  0  0  0
   37.0660   24.2940   32.7340 C   0  0  0  0  0  0  0  0  0  0  0  0
   34.9050   23.8100   30.1510 H   0  0  0  0  0  0  0  0  0  0  0  0
   34.8880   26.2080   30.1470 H   0  0  0  0  0  0  0  0  0  0  0  0
   36.2100   27.4480   31.7300 H   0  0  0  0  0  0  0  0  0  0  0  0
   37.5920   26.3520   33.3260 H   0  0  0  0  0  0  0  0  0  0  0  0
   35.1450   21.5060   32.3190 C   0  0  0  0  0  0  0  0  0  0  0  0
   36.2230   22.1640   31.6760 C   0  0  0  0  0  0  0  0  0  0  0  0
   37.0810   21.3330   31.0000 C   0  0  0  0  0  0  0  0  0  0  0  0
   36.8740   20.0040   30.9770 N   0  0  0  0  0  0  0  0  0  0  0  0
   35.8680   19.4100   31.5790 C   0  0  0  0  0  0  0  0  0  0  0  0
   35.0140   20.1700   32.2450 N   0  0  0  0  0  0  0  0  0  0  0  0
   34.4360   22.1020   32.8680 H   0  0  0  0  0  0  0  0  0  0  0  0
   37.9010   21.8230   30.5090 H   0  0  0  0  0  0  0  0  0  0  0  0
   35.6510   18.3470   31.5960 H   0  0  0  0  0  0  0  0  0  0  0  0
   39.2060   23.4990   33.3010 C   0  0  0  0  0  0  0  0  0  0  0  0
   39.5910   24.0220   32.1790 O   0  0  0  0  0  0  0  0  0  0  0  0
   37.8040   23.5930   33.6530 N   0  0  0  0  0  0  0  0  0  0  0  0
   37.4170   23.1730   34.4980 H   0  0  0  0  0  0  0  0  0  0  0  0
   40.1310   22.8840   34.1040 O   0  0  0  0  0  0  0  0  0  0  0  0
   40.5830   23.3900   35.3180 C   0  0  0  0  0  0  0  0  0  0  0  0
   41.7360   24.0170   35.4190 O   0  0  0  0  0  0  0  0  0  0  0  0
   39.7850   23.2690   36.5610 C   0  0  0  0  0  0  0  0  0  0  0  0
   38.5480   23.7590   36.8270 N   0  0  0  0  0  0  0  0  0  0  0  0
   38.1870   23.4250   38.0760 C   0  0  0  0  0  0  0  0  0  0  0  0
   37.2200   23.7340   38.4610 H   0  0  0  0  0  0  0  0  0  0  0  0
   39.2040   22.7200   38.5990 N   0  0  0  0  0  0  0  0  0  0  0  0
   39.1840   22.3350   39.5700 H   0  0  0  0  0  0  0  0  0  0  0  0
   40.1560   22.6320   37.6840 N   0  0  0  0  0  0  0  0  0  0  0  0
  1  6  1  0  0  0  0
  2  1  2  0  0  0  0
  3  2  1  0  0  0  0
  3  4  2  0  0  0  0
  4  5  1  0  0  0  0
  5  6  2  0  0  0  0
  5 10  1  0  0  0  0
  6 22  1  0  0  0  0
  7  2  1  0  0  0  0
  8  3  1  0  0  0  0
  9  4  1  0  0  0  0
 11 17  1  0  0  0  0
 12  1  1  0  0  0  0
 12 11  2  0  0  0  0
 13 12  1  0  0  0  0
 14 13  2  0  0  0  0
 14 15  1  0  0  0  0
 15 19  1  0  0  0  0
 15 16  2  0  0  0  0
 16 11  1  0  0  0  0
 18 13  1  0  0  0  0
 20 22  1  0  0  0  0
 20 24  1  0  0  0  0
 21 20  2  0  0  0  0
 22 23  1  0  0  0  0
 24 25  1  0  0  0  0
 25 26  2  0  0  0  0
 25 27  1  0  0  0  0
 27 28  1  0  0  0  0
 27 33  2  0  0  0  0
 28 29  2  0  0  0  0
 29 30  1  0  0  0  0
 29 31  1  0  0  0  0
 31 32  1  0  0  0  0
 33 31  1  0  0  0  0
M  END
>  <minimizedAffinity>
-5.38549471

$$$$

 OpenBabel03272500593D

 33 35  0  0  0  0  0  0  0  0999 V2000
   39.6840   23.4530   36.2960 C   0  0  0  0  0  0  0  0  0  0  0  0
   39.9480   23.0120   37.5610 C   0  0  0  0  0  0  0  0  0  0  0  0
   39.0850   23.2570   38.6350 C   0  0  0  0  0  0  0  0  0  0  0  0
   37.8750   24.0080   38.3540 C   0  0  0  0  0  0  0  0  0  0  0  0
   37.6730   24.4160   37.0800 C   0  0  0  0  0  0  0  0  0  0  0  0
   38.5110   24.1780   36.0540 C   0  0  0  0  0  0  0  0  0  0  0  0
   40.8600   22.4390   37.7970 H   0  0  0  0  0  0  0  0  0  0  0  0
   39.3590   22.8750   39.6160 H   0  0  0  0  0  0  0  0  0  0  0  0
   37.3260   24.1120   39.2600 H   0  0  0  0  0  0  0  0  0  0  0  0
   36.7210   24.9190   37.1060 H   0  0  0  0  0  0  0  0  0  0  0  0
   41.7800   23.9590   35.1420 C   0  0  0  0  0  0  0  0  0  0  0  0
   40.6610   23.1010   35.2890 C   0  0  0  0  0  0  0  0  0  0  0  0
   40.6530   22.0210   34.4420 C   0  0  0  0  0  0  0  0  0  0  0  0
   41.6510   21.8320   33.5610 N   0  0  0  0  0  0  0  0  0  0  0  0
   42.6810   22.6370   33.4390 C   0  0  0  0  0  0  0  0  0  0  0  0
   42.7330   23.6940   34.2320 N   0  0  0  0  0  0  0  0  0  0  0  0
   41.8460   24.8260   35.7770 H   0  0  0  0  0  0  0  0  0  0  0  0
   39.8090   21.3650   34.5460 H   0  0  0  0  0  0  0  0  0  0  0  0
   43.5130   22.5370   32.7480 H   0  0  0  0  0  0  0  0  0  0  0  0
   38.6510   26.0290   34.6090 C   0  0  0  0  0  0  0  0  0  0  0  0
   39.1450   26.6620   35.6260 O   0  0  0  0  0  0  0  0  0  0  0  0
   38.2510   24.6490   34.7930 N   0  0  0  0  0  0  0  0  0  0  0  0
   37.8180   24.0950   34.0540 H   0  0  0  0  0  0  0  0  0  0  0  0
   38.5260   26.6810   33.4100 O   0  0  0  0  0  0  0  0  0  0  0  0
   37.3160   27.0740   32.8470 C   0  0  0  0  0  0  0  0  0  0  0  0
   36.8410   28.2900   33.0080 O   0  0  0  0  0  0  0  0  0  0  0  0
   36.5060   26.1510   32.0170 C   0  0  0  0  0  0  0  0  0  0  0  0
   36.4300   24.7970   32.0770 N   0  0  0  0  0  0  0  0  0  0  0  0
   35.5760   24.3490   31.1440 C   0  0  0  0  0  0  0  0  0  0  0  0
   35.3900   23.2840   31.0470 H   0  0  0  0  0  0  0  0  0  0  0  0
   35.1100   25.4280   30.4930 N   0  0  0  0  0  0  0  0  0  0  0  0
   34.4220   25.3610   29.7090 H   0  0  0  0  0  0  0  0  0  0  0  0
   35.6730   26.5020   31.0230 N   0  0  0  0  0  0  0  0  0  0  0  0
  1  2  1  0  0  0  0
  2  7  1  0  0  0  0
  2  3  2  0  0  0  0
  3  8  1  0  0  0  0
  4  3  1  0  0  0  0
  4  9  1  0  0  0  0
  5 10  1  0  0  0  0
  5  4  2  0  0  0  0
  6  1  2  0  0  0  0
  6  5  1  0  0  0  0
 11 12  1  0  0  0  0
 11 17  1  0  0  0  0
 12  1  1  0  0  0  0
 13 18  1  0  0  0  0
 13 12  2  0  0  0  0
 14 13  1  0  0  0  0
 15 14  2  0  0  0  0
 15 16  1  0  0  0  0
 16 11  2  0  0  0  0
 19 15  1  0  0  0  0
 20 22  1  0  0  0  0
 20 21  2  0  0  0  0
 22  6  1  0  0  0  0
 23 22  1  0  0  0  0
 24 20  1  0  0  0  0
 25 26  2  0  0  0  0
 25 24  1  0  0  0  0
 27 28  1  0  0  0  0
 27 25  1  0  0  0  0
 29 28  2  0  0  0  0
 30 29  1  0  0  0  0
 31 33  1  0  0  0  0
 31 29  1  0  0  0  0
 32 31  1  0  0  0  0
 33 27  2  0  0  0  0
M  END
>  <minimizedAffinity>
-5.1798358

$$$$

 OpenBabel03272500593D

 33 35  0  0  0  0  0  0  0  0999 V2000
   35.9810   29.0860   31.6830 C   0  0  0  0  0  0  0  0  0  0  0  0
   36.2430   30.1130   30.8210 C   0  0  0  0  0  0  0  0  0  0  0  0
   37.0890   29.9650   29.7150 C   0  0  0  0  0  0  0  0  0  0  0  0
   37.6870   28.6590   29.5090 C   0  0  0  0  0  0  0  0  0  0  0  0
   37.3860   27.6850   30.3990 C   0  0  0  0  0  0  0  0  0  0  0  0
   36.5750   27.8380   31.4610 C   0  0  0  0  0  0  0  0  0  0  0  0
   35.7990   31.1130   30.9570 H   0  0  0  0  0  0  0  0  0  0  0  0
   37.2520   30.8270   29.0720 H   0  0  0  0  0  0  0  0  0  0  0  0
   38.2970   28.7030   28.6380 H   0  0  0  0  0  0  0  0  0  0  0  0
   37.9110   26.8170   30.0360 H   0  0  0  0  0  0  0  0  0  0  0  0
   35.6230   29.9620   33.9380 C   0  0  0  0  0  0  0  0  0  0  0  0
   35.0700   29.3880   32.7650 C   0  0  0  0  0  0  0  0  0  0  0  0
   33.7110   29.1970   32.8070 C   0  0  0  0  0  0  0  0  0  0  0  0
   33.0030   29.5420   33.8960 N   0  0  0  0  0  0  0  0  0  0  0  0
   33.5310   30.0730   34.9750 C   0  0  0  0  0  0  0  0  0  0  0  0
   34.8390   30.2770   34.9830 N   0  0  0  0  0  0  0  0  0  0  0  0
   36.6840   30.1370   33.9690 H   0  0  0  0  0  0  0  0  0  0  0  0
   33.2830   28.7630   31.9220 H   0  0  0  0  0  0  0  0  0  0  0  0
   33.0120   30.3700   35.8810 H   0  0  0  0  0  0  0  0  0  0  0  0
   37.4340   26.5860   33.2580 C   0  0  0  0  0  0  0  0  0  0  0  0
   38.4960   27.3180   33.1330 O   0  0  0  0  0  0  0  0  0  0  0  0
   36.3390   26.8080   32.3360 N   0  0  0  0  0  0  0  0  0  0  0  0
   35.4860   26.2480   32.3440 H   0  0  0  0  0  0  0  0  0  0  0  0
   37.3860   25.6390   34.2470 O   0  0  0  0  0  0  0  0  0  0  0  0
   37.8240   25.8370   35.5520 C   0  0  0  0  0  0  0  0  0  0  0  0
   38.0030   27.0450   36.0460 O   0  0  0  0  0  0  0  0  0  0  0  0
   38.0930   24.7030   36.4670 C   0  0  0  0  0  0  0  0  0  0  0  0
   37.9990   24.6620   37.8210 N   0  0  0  0  0  0  0  0  0  0  0  0
   38.3330   23.4390   38.2610 C   0  0  0  0  0  0  0  0  0  0  0  0
   38.3130   23.2230   39.3250 H   0  0  0  0  0  0  0  0  0  0  0  0
   38.6390   22.7060   37.1780 N   0  0  0  0  0  0  0  0  0  0  0  0
   38.9370   21.7060   37.2390 H   0  0  0  0  0  0  0  0  0  0  0  0
   38.4930   23.4720   36.1090 N   0  0  0  0  0  0  0  0  0  0  0  0
  1 12  1  0  0  0  0
  2  7  1  0  0  0  0
  2  1  2  0  0  0  0
  3  2  1  0  0  0  0
  4  3  2  0  0  0  0
  4  5  1  0  0  0  0
  5  6  2  0  0  0  0
  6  1  1  0  0  0  0
  6 22  1  0  0  0  0
  8  3  1  0  0  0  0
  9  4  1  0  0  0  0
 10  5  1  0  0  0  0
 11 17  1  0  0  0  0
 11 16  1  0  0  0  0
 12 13  1  0  0  0  0
 12 11  2  0  0  0  0
 13 14  2  0  0  0  0
 14 15  1  0  0  0  0
 15 16  2  0  0  0  0
 15 19  1  0  0  0  0
 18 13  1  0  0  0  0
 20 24  1  0  0  0  0
 21 20  2  0  0  0  0
 22 23  1  0  0  0  0
 22 20  1  0  0  0  0
 24 25  1  0  0  0  0
 25 26  2  0  0  0  0
 25 27  1  0  0  0  0
 27 28  1  0  0  0  0
 28 29  2  0  0  0  0
 29 30  1  0  0  0  0
 31 32  1  0  0  0  0
 31 29  1  0  0  0  0
 33 27  2  0  0  0  0
 33 31  1  0  0  0  0
M  END
>  <minimizedAffinity>
-5.11938381

$$$$

 OpenBabel03272500593D

 33 35  0  0  0  0  0  0  0  0999 V2000
   37.7900   27.6230   31.6490 C   0  0  0  0  0  0  0  0  0  0  0  0
   37.6580   28.7340   30.8660 C   0  0  0  0  0  0  0  0  0  0  0  0
   36.6070   29.6440   31.0280 C   0  0  0  0  0  0  0  0  0  0  0  0
   35.6450   29.3640   32.0770 C   0  0  0  0  0  0  0  0  0  0  0  0
   35.8330   28.2470   32.8180 C   0  0  0  0  0  0  0  0  0  0  0  0
   36.8450   27.3760   32.6520 C   0  0  0  0  0  0  0  0  0  0  0  0
   38.3770   28.9670   30.0630 H   0  0  0  0  0  0  0  0  0  0  0  0
   36.5650   30.5070   30.3670 H   0  0  0  0  0  0  0  0  0  0  0  0
   34.9130   30.1370   32.0780 H   0  0  0  0  0  0  0  0  0  0  0  0
   35.0300   28.2610   33.5360 H   0  0  0  0  0  0  0  0  0  0  0  0
   40.1470   27.1070   32.0490 C   0  0  0  0  0  0  0  0  0  0  0  0
   38.9410   26.7910   31.3740 C   0  0  0  0  0  0  0  0  0  0  0  0
   39.0220   25.7080   30.5330 C   0  0  0  0  0  0  0  0  0  0  0  0
   40.1750   25.0320   30.3940 N   0  0  0  0  0  0  0  0  0  0  0  0
   41.2840   25.3380   31.0280 C   0  0  0  0  0  0  0  0  0  0  0  0
   41.2570   26.3750   31.8500 N   0  0  0  0  0  0  0  0  0  0  0  0
   40.1500   27.9460   32.7230 H   0  0  0  0  0  0  0  0  0  0  0  0
   38.1120   25.4610   30.0170 H   0  0  0  0  0  0  0  0  0  0  0  0
   42.2420   24.8310   30.9560 H   0  0  0  0  0  0  0  0  0  0  0  0
   37.4630   26.5210   34.7540 C   0  0  0  0  0  0  0  0  0  0  0  0
   37.7940   27.7390   35.0440 O   0  0  0  0  0  0  0  0  0  0  0  0
   36.9540   26.2490   33.4260 N   0  0  0  0  0  0  0  0  0  0  0  0
   36.7080   25.3110   33.1080 H   0  0  0  0  0  0  0  0  0  0  0  0
   37.6040   25.5440   35.7060 O   0  0  0  0  0  0  0  0  0  0  0  0
   38.1540   24.2880   35.4740 C   0  0  0  0  0  0  0  0  0  0  0  0
   38.0230   23.6800   34.3140 O   0  0  0  0  0  0  0  0  0  0  0  0
   38.9360   23.5740   36.5100 C   0  0  0  0  0  0  0  0  0  0  0  0
   40.1660   23.0100   36.4090 N   0  0  0  0  0  0  0  0  0  0  0  0
   40.5120   22.4610   37.5830 C   0  0  0  0  0  0  0  0  0  0  0  0
   41.4710   21.9630   37.6870 H   0  0  0  0  0  0  0  0  0  0  0  0
   39.4920   22.6810   38.4300 N   0  0  0  0  0  0  0  0  0  0  0  0
   39.5010   22.3540   39.4230 H   0  0  0  0  0  0  0  0  0  0  0  0
   38.5530   23.3480   37.7780 N   0  0  0  0  0  0  0  0  0  0  0  0
  1  6  1  0  0  0  0
  2  3  1  0  0  0  0
  2  1  2  0  0  0  0
  3  4  2  0  0  0  0
  4  9  1  0  0  0  0
  4  5  1  0  0  0  0
  5 10  1  0  0  0  0
  6  5  2  0  0  0  0
  6 22  1  0  0  0  0
  7  2  1  0  0  0  0
  8  3  1  0  0  0  0
 11 17  1  0  0  0  0
 12  1  1  0  0  0  0
 12 11  2  0  0  0  0
 13 12  1  0  0  0  0
 14 13  2  0  0  0  0
 14 15  1  0  0  0  0
 15 16  2  0  0  0  0
 16 11  1  0  0  0  0
 18 13  1  0  0  0  0
 19 15  1  0  0  0  0
 20 21  2  0  0  0  0
 20 24  1  0  0  0  0
 22 20  1  0  0  0  0
 23 22  1  0  0  0  0
 25 24  1  0  0  0  0
 25 27  1  0  0  0  0
 26 25  2  0  0  0  0
 27 33  2  0  0  0  0
 28 27  1  0  0  0  0
 28 29  2  0  0  0  0
 29 30  1  0  0  0  0
 29 31  1  0  0  0  0
 31 32  1  0  0  0  0
 33 31  1  0  0  0  0
M  END
>  <minimizedAffinity>
-5.10434818

$$$$

 OpenBabel03272500593D

 33 35  0  0  0  0  0  0  0  0999 V2000
   33.4570   30.9570   35.5880 C   0  0  0  0  0  0  0  0  0  0  0  0
   33.6190   31.5710   36.7960 C   0  0  0  0  0  0  0  0  0  0  0  0
   34.7390   32.3560   37.0940 C   0  0  0  0  0  0  0  0  0  0  0  0
   35.7420   32.4990   36.0550 C   0  0  0  0  0  0  0  0  0  0  0  0
   35.5210   31.8650   34.8800 C   0  0  0  0  0  0  0  0  0  0  0  0
   34.4420   31.1100   34.6050 C   0  0  0  0  0  0  0  0  0  0  0  0
   32.8700   31.4770   37.6000 H   0  0  0  0  0  0  0  0  0  0  0  0
   34.8020   32.8150   38.0780 H   0  0  0  0  0  0  0  0  0  0  0  0
   36.5250   33.1180   36.4260 H   0  0  0  0  0  0  0  0  0  0  0  0
   36.3660   32.1320   34.2670 H   0  0  0  0  0  0  0  0  0  0  0  0
   32.2400   28.8550   35.8760 C   0  0  0  0  0  0  0  0  0  0  0  0
   32.2360   30.1990   35.4240 C   0  0  0  0  0  0  0  0  0  0  0  0
   31.0450   30.6180   34.8850 C   0  0  0  0  0  0  0  0  0  0  0  0
   29.9930   29.7840   34.8130 N   0  0  0  0  0  0  0  0  0  0  0  0
   30.0140   28.5410   35.2370 C   0  0  0  0  0  0  0  0  0  0  0  0
   31.1410   28.0900   35.7640 N   0  0  0  0  0  0  0  0  0  0  0  0
   33.1450   28.4650   36.3090 H   0  0  0  0  0  0  0  0  0  0  0  0
   31.0320   31.6360   34.5400 H   0  0  0  0  0  0  0  0  0  0  0  0
   29.2000   27.8240   35.2040 H   0  0  0  0  0  0  0  0  0  0  0  0
   35.0100   29.2130   33.3350 C   0  0  0  0  0  0  0  0  0  0  0  0
   35.7130   28.8560   34.3630 O   0  0  0  0  0  0  0  0  0  0  0  0
   34.3010   30.4750   33.3970 N   0  0  0  0  0  0  0  0  0  0  0  0
   33.7590   30.8440   32.6160 H   0  0  0  0  0  0  0  0  0  0  0  0
   34.9640   28.3930   32.2380 O   0  0  0  0  0  0  0  0  0  0  0  0
   36.0460   27.6700   31.7460 C   0  0  0  0  0  0  0  0  0  0  0  0
   37.1500   28.2650   31.3460 O   0  0  0  0  0  0  0  0  0  0  0  0
   36.0240   26.1910   31.6630 C   0  0  0  0  0  0  0  0  0  0  0  0
   35.1930   25.3910   30.9470 N   0  0  0  0  0  0  0  0  0  0  0  0
   35.5130   24.1040   31.1530 C   0  0  0  0  0  0  0  0  0  0  0  0
   34.9500   23.3200   30.6560 H   0  0  0  0  0  0  0  0  0  0  0  0
   36.5520   24.0940   32.0040 N   0  0  0  0  0  0  0  0  0  0  0  0
   37.0020   23.2100   32.3350 H   0  0  0  0  0  0  0  0  0  0  0  0
   36.8510   25.3480   32.3040 N   0  0  0  0  0  0  0  0  0  0  0  0
  1  2  1  0  0  0  0
  2  3  2  0  0  0  0
  2  7  1  0  0  0  0
  3  8  1  0  0  0  0
  4  9  1  0  0  0  0
  4  3  1  0  0  0  0
  5  4  2  0  0  0  0
  6  5  1  0  0  0  0
  6  1  2  0  0  0  0
 10  5  1  0  0  0  0
 11 17  1  0  0  0  0
 12  1  1  0  0  0  0
 12 11  2  0  0  0  0
 13 12  1  0  0  0  0
 14 13  2  0  0  0  0
 14 15  1  0  0  0  0
 15 16  2  0  0  0  0
 16 11  1  0  0  0  0
 18 13  1  0  0  0  0
 19 15  1  0  0  0  0
 20 22  1  0  0  0  0
 20 21  2  0  0  0  0
 22  6  1  0  0  0  0
 23 22  1  0  0  0  0
 24 20  1  0  0  0  0
 25 24  1  0  0  0  0
 26 25  2  0  0  0  0
 27 25  1  0  0  0  0
 27 33  2  0  0  0  0
 28 29  2  0  0  0  0
 28 27  1  0  0  0  0
 29 31  1  0  0  0  0
 30 29  1  0  0  0  0
 31 33  1  0  0  0  0
 31 32  1  0  0  0  0
M  END
>  <minimizedAffinity>
-5.07038546

$$$$

 OpenBabel03272500593D

 33 35  0  0  0  0  0  0  0  0999 V2000
   38.5760   24.7490   36.0770 C   0  0  0  0  0  0  0  0  0  0  0  0
   38.0910   25.3210   37.2180 C   0  0  0  0  0  0  0  0  0  0  0  0
   38.0920   24.6550   38.4500 C   0  0  0  0  0  0  0  0  0  0  0  0
   38.6370   23.3100   38.4730 C   0  0  0  0  0  0  0  0  0  0  0  0
   39.1010   22.8020   37.3080 C   0  0  0  0  0  0  0  0  0  0  0  0
   39.0930   23.4500   36.1290 C   0  0  0  0  0  0  0  0  0  0  0  0
   37.6730   26.3420   37.2240 H   0  0  0  0  0  0  0  0  0  0  0  0
   37.6900   25.1720   39.3170 H   0  0  0  0  0  0  0  0  0  0  0  0
   38.5700   22.9380   39.4690 H   0  0  0  0  0  0  0  0  0  0  0  0
   39.4740   21.8250   37.5700 H   0  0  0  0  0  0  0  0  0  0  0  0
   39.6520   26.3930   34.6210 C   0  0  0  0  0  0  0  0  0  0  0  0
   38.5270   25.5730   34.8890 C   0  0  0  0  0  0  0  0  0  0  0  0
   37.5180   25.6640   33.9630 C   0  0  0  0  0  0  0  0  0  0  0  0
   37.6330   26.4800   32.9000 N   0  0  0  0  0  0  0  0  0  0  0  0
   38.6830   27.2330   32.6670 C   0  0  0  0  0  0  0  0  0  0  0  0
   39.6830   27.1810   33.5320 N   0  0  0  0  0  0  0  0  0  0  0  0
   40.4780   26.3680   35.3100 H   0  0  0  0  0  0  0  0  0  0  0  0
   36.6610   25.0460   34.1580 H   0  0  0  0  0  0  0  0  0  0  0  0
   38.8320   27.9090   31.8300 H   0  0  0  0  0  0  0  0  0  0  0  0
   38.5660   22.0220   34.3350 C   0  0  0  0  0  0  0  0  0  0  0  0
   37.4110   21.8890   34.9080 O   0  0  0  0  0  0  0  0  0  0  0  0
   39.5570   22.8560   34.9830 N   0  0  0  0  0  0  0  0  0  0  0  0
   40.5020   22.9800   34.6170 H   0  0  0  0  0  0  0  0  0  0  0  0
   38.8040   21.3750   33.1510 O   0  0  0  0  0  0  0  0  0  0  0  0
   37.9080   21.3160   32.0890 C   0  0  0  0  0  0  0  0  0  0  0  0
   37.6140   20.1790   31.4940 O   0  0  0  0  0  0  0  0  0  0  0  0
   37.2180   22.5250   31.5810 C   0  0  0  0  0  0  0  0  0  0  0  0
   35.9180   22.8870   31.7280 N   0  0  0  0  0  0  0  0  0  0  0  0
   35.7000   24.0580   31.1110 C   0  0  0  0  0  0  0  0  0  0  0  0
   34.7100   24.5030   31.1270 H   0  0  0  0  0  0  0  0  0  0  0  0
   36.8720   24.4370   30.5730 N   0  0  0  0  0  0  0  0  0  0  0  0
   36.9830   25.3240   30.0300 H   0  0  0  0  0  0  0  0  0  0  0  0
   37.7740   23.5120   30.8600 N   0  0  0  0  0  0  0  0  0  0  0  0
  1  6  2  0  0  0  0
  1  2  1  0  0  0  0
  2  7  1  0  0  0  0
  2  3  2  0  0  0  0
  3  4  1  0  0  0  0
  3  8  1  0  0  0  0
  4  9  1  0  0  0  0
  5 10  1  0  0  0  0
  5  4  2  0  0  0  0
  6  5  1  0  0  0  0
 11 12  1  0  0  0  0
 11 17  1  0  0  0  0
 12  1  1  0  0  0  0
 13 18  1  0  0  0  0
 13 12  2  0  0  0  0
 14 13  1  0  0  0  0
 15 14  2  0  0  0  0
 15 16  1  0  0  0  0
 16 11  2  0  0  0  0
 19 15  1  0  0  0  0
 20 21  2  0  0  0  0
 20 22  1  0  0  0  0
 22  6  1  0  0  0  0
 23 22  1  0  0  0  0
 24 20  1  0  0  0  0
 25 24  1  0  0  0  0
 26 25  2  0  0  0  0
 27 28  1  0  0  0  0
 27 25  1  0  0  0  0
 29 30  1  0  0  0  0
 29 28  2  0  0  0  0
 31 33  1  0  0  0  0
 31 29  1  0  0  0  0
 32 31  1  0  0  0  0
 33 27  2  0  0  0  0
M  END
>  <minimizedAffinity>
-5.06409979

$$$$

 OpenBabel03272500593D

 33 35  0  0  0  0  0  0  0  0999 V2000
   39.8500   23.2070   36.5040 C   0  0  0  0  0  0  0  0  0  0  0  0
   40.0090   23.1220   37.8580 C   0  0  0  0  0  0  0  0  0  0  0  0
   38.9830   23.4460   38.7540 C   0  0  0  0  0  0  0  0  0  0  0  0
   37.7210   23.8800   38.1860 C   0  0  0  0  0  0  0  0  0  0  0  0
   37.6290   23.9420   36.8370 C   0  0  0  0  0  0  0  0  0  0  0  0
   38.6220   23.6320   35.9840 C   0  0  0  0  0  0  0  0  0  0  0  0
   40.9590   22.7940   38.3120 H   0  0  0  0  0  0  0  0  0  0  0  0
   39.1810   23.3550   39.8200 H   0  0  0  0  0  0  0  0  0  0  0  0
   37.0460   24.0870   38.9830 H   0  0  0  0  0  0  0  0  0  0  0  0
   36.6150   24.2560   36.6500 H   0  0  0  0  0  0  0  0  0  0  0  0
   41.8630   23.8490   35.2730 C   0  0  0  0  0  0  0  0  0  0  0  0
   40.9950   22.8170   35.7100 C   0  0  0  0  0  0  0  0  0  0  0  0
   41.3650   21.5540   35.3210 C   0  0  0  0  0  0  0  0  0  0  0  0
   42.4720   21.3590   34.5840 N   0  0  0  0  0  0  0  0  0  0  0  0
   43.2670   22.3280   34.1870 C   0  0  0  0  0  0  0  0  0  0  0  0
   42.9510   23.5640   34.5360 N   0  0  0  0  0  0  0  0  0  0  0  0
   41.6280   24.8630   35.5440 H   0  0  0  0  0  0  0  0  0  0  0  0
   40.7130   20.7650   35.6480 H   0  0  0  0  0  0  0  0  0  0  0  0
   44.1700   22.2320   33.5920 H   0  0  0  0  0  0  0  0  0  0  0  0
   37.7960   22.6030   34.0360 C   0  0  0  0  0  0  0  0  0  0  0  0
   37.4800   21.6130   34.8110 O   0  0  0  0  0  0  0  0  0  0  0  0
   38.4620   23.7460   34.6270 N   0  0  0  0  0  0  0  0  0  0  0  0
   38.7780   24.5460   34.0790 H   0  0  0  0  0  0  0  0  0  0  0  0
   37.4920   22.5320   32.7020 O   0  0  0  0  0  0  0  0  0  0  0  0
   36.2460   22.1830   32.1930 C   0  0  0  0  0  0  0  0  0  0  0  0
   35.4000   23.0900   31.7530 O   0  0  0  0  0  0  0  0  0  0  0  0
   35.8090   20.7700   32.0990 C   0  0  0  0  0  0  0  0  0  0  0  0
   36.5680   19.6460   32.0580 N   0  0  0  0  0  0  0  0  0  0  0  0
   35.7760   18.5660   31.9710 C   0  0  0  0  0  0  0  0  0  0  0  0
   36.2160   17.5740   31.9290 H   0  0  0  0  0  0  0  0  0  0  0  0
   34.5090   19.0140   31.9560 N   0  0  0  0  0  0  0  0  0  0  0  0
   33.6860   18.3740   31.8930 H   0  0  0  0  0  0  0  0  0  0  0  0
   34.5400   20.3340   32.0330 N   0  0  0  0  0  0  0  0  0  0  0  0
  1  2  1  0  0  0  0
  2  7  1  0  0  0  0
  2  3  2  0  0  0  0
  3  8  1  0  0  0  0
  4  3  1  0  0  0  0
  4  9  1  0  0  0  0
  5  4  2  0  0  0  0
  6  1  2  0  0  0  0
  6  5  1  0  0  0  0
 10  5  1  0  0  0  0
 11 17  1  0  0  0  0
 11 12  1  0  0  0  0
 12  1  1  0  0  0  0
 13 18  1  0  0  0  0
 13 12  2  0  0  0  0
 14 13  1  0  0  0  0
 15 16  1  0  0  0  0
 15 14  2  0  0  0  0
 16 11  2  0  0  0  0
 19 15  1  0  0  0  0
 20 22  1  0  0  0  0
 20 21  2  0  0  0  0
 22  6  1  0  0  0  0
 23 22  1  0  0  0  0
 24 20  1  0  0  0  0
 25 24  1  0  0  0  0
 26 25  2  0  0  0  0
 27 25  1  0  0  0  0
 28 27  1  0  0  0  0
 29 28  2  0  0  0  0
 30 29  1  0  0  0  0
 31 29  1  0  0  0  0
 31 33  1  0  0  0  0
 32 31  1  0  0  0  0
 33 27  2  0  0  0  0
M  END
>  <minimizedAffinity>
-5.04530716

$$$$
