
 OpenBabel03272509573D

 44 47  0  0  0  0  0  0  0  0999 V2000
   34.4380   28.6220   48.1680 C   0  0  0  0  0  0  0  0  0  0  0  0
   35.2360   28.8750   47.4170 H   0  0  0  0  0  0  0  0  0  0  0  0
   33.8260   29.5370   48.2640 H   0  0  0  0  0  0  0  0  0  0  0  0
   33.5390   27.5150   47.7040 C   0  0  0  0  0  0  0  0  0  0  0  0
   33.7790   27.3350   46.6330 H   0  0  0  0  0  0  0  0  0  0  0  0
   33.6930   26.5890   48.2960 H   0  0  0  0  0  0  0  0  0  0  0  0
   32.1050   27.8840   47.7610 C   0  0  0  0  0  0  0  0  0  0  0  0
   31.3660   27.4610   48.8590 C   0  0  0  0  0  0  0  0  0  0  0  0
   30.0360   27.7510   49.0030 C   0  0  0  0  0  0  0  0  0  0  0  0
   29.4210   28.4620   48.0660 N   0  0  0  0  0  0  0  0  0  0  0  0
   30.1510   28.8730   46.9940 C   0  0  0  0  0  0  0  0  0  0  0  0
   31.4510   28.6090   46.8190 N   0  0  0  0  0  0  0  0  0  0  0  0
   31.8260   26.8760   49.6490 H   0  0  0  0  0  0  0  0  0  0  0  0
   29.4470   27.4300   49.8470 H   0  0  0  0  0  0  0  0  0  0  0  0
   29.4210   29.6750   45.9560 C   0  0  0  0  0  0  0  0  0  0  0  0
   28.9420   30.5720   46.4340 H   0  0  0  0  0  0  0  0  0  0  0  0
   30.0190   29.9080   45.0790 H   0  0  0  0  0  0  0  0  0  0  0  0
   28.2940   28.7900   45.5050 C   0  0  0  0  0  0  0  0  0  0  0  0
   26.9800   29.1100   45.6460 N   0  0  0  0  0  0  0  0  0  0  0  0
   26.2500   28.1040   45.1390 C   0  0  0  0  0  0  0  0  0  0  0  0
   25.1660   28.0890   45.1180 H   0  0  0  0  0  0  0  0  0  0  0  0
   27.1160   27.1560   44.6810 N   0  0  0  0  0  0  0  0  0  0  0  0
   26.8590   26.2540   44.2320 H   0  0  0  0  0  0  0  0  0  0  0  0
   28.3320   27.5780   44.9060 N   0  0  0  0  0  0  0  0  0  0  0  0
   34.9980   28.3350   49.4350 O   0  0  0  0  0  0  0  0  0  0  0  0
   37.3200   30.1750   51.4860 C   0  0  0  0  0  0  0  0  0  0  0  0
   38.0610   30.8600   50.5020 C   0  0  0  0  0  0  0  0  0  0  0  0
   37.7050   30.6390   49.1820 C   0  0  0  0  0  0  0  0  0  0  0  0
   36.6700   29.7760   48.9660 N   0  0  0  0  0  0  0  0  0  0  0  0
   35.9820   29.1390   49.9090 C   0  0  0  0  0  0  0  0  0  0  0  0
   36.3300   29.3560   51.2020 N   0  0  0  0  0  0  0  0  0  0  0  0
   37.6060   30.3560   52.5110 H   0  0  0  0  0  0  0  0  0  0  0  0
   38.8710   31.5340   50.6770 H   0  0  0  0  0  0  0  0  0  0  0  0
   38.9590   33.2370   48.9940 F   0  0  0  0  0  0  0  0  0  0  0  0
   38.9190   32.4470   47.9180 C   0  0  0  0  0  0  0  0  0  0  0  0
   38.3320   31.2380   48.0180 C   0  0  0  0  0  0  0  0  0  0  0  0
   38.3460   30.4990   46.8420 C   0  0  0  0  0  0  0  0  0  0  0  0
   38.9070   30.9590   45.6820 C   0  0  0  0  0  0  0  0  0  0  0  0
   39.4980   32.2030   45.6210 C   0  0  0  0  0  0  0  0  0  0  0  0
   39.4980   32.9530   46.7670 C   0  0  0  0  0  0  0  0  0  0  0  0
   37.9110   29.5090   46.7690 H   0  0  0  0  0  0  0  0  0  0  0  0
   38.9170   30.3830   44.7650 H   0  0  0  0  0  0  0  0  0  0  0  0
   39.9540   32.6070   44.7250 H   0  0  0  0  0  0  0  0  0  0  0  0
   39.9540   33.9330   46.7540 H   0  0  0  0  0  0  0  0  0  0  0  0
  1  3  1  0  0  0  0
  1 25  1  0  0  0  0
  2  1  1  0  0  0  0
  4  7  1  0  0  0  0
  4  1  1  0  0  0  0
  4  6  1  0  0  0  0
  5  4  1  0  0  0  0
  7  8  1  0  0  0  0
  8  9  2  0  0  0  0
  8 13  1  0  0  0  0
  9 14  1  0  0  0  0
 10  9  1  0  0  0  0
 11 10  2  0  0  0  0
 12 11  1  0  0  0  0
 12  7  2  0  0  0  0
 15 16  1  0  0  0  0
 15 11  1  0  0  0  0
 17 15  1  0  0  0  0
 18 19  1  0  0  0  0
 18 15  1  0  0  0  0
 20 19  2  0  0  0  0
 21 20  1  0  0  0  0
 22 24  1  0  0  0  0
 22 20  1  0  0  0  0
 23 22  1  0  0  0  0
 24 18  2  0  0  0  0
 25 30  1  0  0  0  0
 26 32  1  0  0  0  0
 27 33  1  0  0  0  0
 27 26  2  0  0  0  0
 28 27  1  0  0  0  0
 29 28  2  0  0  0  0
 29 30  1  0  0  0  0
 30 31  2  0  0  0  0
 31 26  1  0  0  0  0
 35 36  1  0  0  0  0
 35 34  1  0  0  0  0
 36 28  1  0  0  0  0
 37 36  2  0  0  0  0
 38 37  1  0  0  0  0
 39 38  2  0  0  0  0
 39 40  1  0  0  0  0
 40 35  2  0  0  0  0
 41 37  1  0  0  0  0
 42 38  1  0  0  0  0
 43 39  1  0  0  0  0
 44 40  1  0  0  0  0
M  END
>  <minimizedAffinity>
-6.4984808

>  <minimizedRMSD>
0.752125144

$$$$
