
 OpenBabel03272508153D

 28 30  0  0  0  0  0  0  0  0999 V2000
   34.4950   30.5080   49.1690 Cl  0  0  0  0  0  0  0  0  0  0  0  0
   35.5120   30.5260   47.7640 C   0  0  0  0  0  0  0  0  0  0  0  0
   34.8940   30.0550   46.6250 C   0  0  0  0  0  0  0  0  0  0  0  0
   35.6190   30.0400   45.4290 C   0  0  0  0  0  0  0  0  0  0  0  0
   36.9100   30.4800   45.3740 C   0  0  0  0  0  0  0  0  0  0  0  0
   37.5050   30.9470   46.5270 C   0  0  0  0  0  0  0  0  0  0  0  0
   39.1480   31.5250   46.4750 Cl  0  0  0  0  0  0  0  0  0  0  0  0
   36.8030   30.9610   47.6940 C   0  0  0  0  0  0  0  0  0  0  0  0
   35.2220   29.6890   44.4880 H   0  0  0  0  0  0  0  0  0  0  0  0
   37.4940   30.4790   44.4620 H   0  0  0  0  0  0  0  0  0  0  0  0
   32.5190   30.4520   46.0560 C   0  0  0  0  0  0  0  0  0  0  0  0
   33.5320   29.5320   46.4540 C   0  0  0  0  0  0  0  0  0  0  0  0
   33.1650   28.2180   46.6510 C   0  0  0  0  0  0  0  0  0  0  0  0
   31.8700   27.8550   46.4600 N   0  0  0  0  0  0  0  0  0  0  0  0
   30.9330   28.7630   46.0790 C   0  0  0  0  0  0  0  0  0  0  0  0
   31.2560   30.0750   45.8750 N   0  0  0  0  0  0  0  0  0  0  0  0
   32.8330   31.4890   45.9060 H   0  0  0  0  0  0  0  0  0  0  0  0
   33.9530   27.5530   46.9500 H   0  0  0  0  0  0  0  0  0  0  0  0
   29.9080   28.5140   45.9210 H   0  0  0  0  0  0  0  0  0  0  0  0
   37.4000   31.4080   48.9520 C   0  0  0  0  0  0  0  0  0  0  0  0
   37.8470   32.5550   49.2380 O   0  0  0  0  0  0  0  0  0  0  0  0
   37.5470   30.4730   50.0930 C   0  0  0  0  0  0  0  0  0  0  0  0
   37.2870   30.7720   51.3770 N   0  0  0  0  0  0  0  0  0  0  0  0
   37.5380   29.6860   52.1630 C   0  0  0  0  0  0  0  0  0  0  0  0
   37.4620   29.5050   53.2190 H   0  0  0  0  0  0  0  0  0  0  0  0
   37.9590   28.7110   51.3390 N   0  0  0  0  0  0  0  0  0  0  0  0
   38.2670   27.7270   51.4200 H   0  0  0  0  0  0  0  0  0  0  0  0
   37.9570   29.1930   50.1280 N   0  0  0  0  0  0  0  0  0  0  0  0
  2  1  1  0  0  0  0
  3  2  2  0  0  0  0
  4  3  1  0  0  0  0
  5  4  2  0  0  0  0
  5  6  1  0  0  0  0
  6  8  2  0  0  0  0
  7  6  1  0  0  0  0
  8  2  1  0  0  0  0
  8 20  1  0  0  0  0
  9  4  1  0  0  0  0
 10  5  1  0  0  0  0
 11 12  1  0  0  0  0
 12  3  1  0  0  0  0
 12 13  2  0  0  0  0
 13 18  1  0  0  0  0
 14 13  1  0  0  0  0
 15 14  2  0  0  0  0
 16 11  2  0  0  0  0
 16 15  1  0  0  0  0
 17 11  1  0  0  0  0
 19 15  1  0  0  0  0
 20 21  2  0  0  0  0
 20 22  1  0  0  0  0
 22 28  2  0  0  0  0
 22 23  1  0  0  0  0
 23 24  2  0  0  0  0
 24 25  1  0  0  0  0
 26 27  1  0  0  0  0
 26 24  1  0  0  0  0
 28 26  1  0  0  0  0
M  END
>  <minimizedAffinity>
-5.24635172

>  <minimizedRMSD>
3.11409545

$$$$
