
 OpenBabel03272500573D

 33 35  0  0  0  0  0  0  0  0999 V2000
   38.1870   31.8630   47.4360 C   0  0  0  0  0  0  0  0  0  0  0  0
   38.7930   32.6720   48.3550 C   0  0  0  0  0  0  0  0  0  0  0  0
   38.3750   32.7330   49.6900 C   0  0  0  0  0  0  0  0  0  0  0  0
   37.2560   31.8920   50.0720 C   0  0  0  0  0  0  0  0  0  0  0  0
   36.7020   31.1140   49.1140 C   0  0  0  0  0  0  0  0  0  0  0  0
   37.1090   31.0640   47.8320 C   0  0  0  0  0  0  0  0  0  0  0  0
   39.6450   33.3190   48.0870 H   0  0  0  0  0  0  0  0  0  0  0  0
   38.9040   33.4010   50.3660 H   0  0  0  0  0  0  0  0  0  0  0  0
   37.0580   32.0460   51.1060 H   0  0  0  0  0  0  0  0  0  0  0  0
   35.9250   30.5690   49.6250 H   0  0  0  0  0  0  0  0  0  0  0  0
   39.9890   31.2360   45.9050 C   0  0  0  0  0  0  0  0  0  0  0  0
   38.7480   31.8940   46.1030 C   0  0  0  0  0  0  0  0  0  0  0  0
   38.2260   32.4810   44.9770 C   0  0  0  0  0  0  0  0  0  0  0  0
   38.8750   32.4110   43.8020 N   0  0  0  0  0  0  0  0  0  0  0  0
   40.0250   31.7970   43.6370 C   0  0  0  0  0  0  0  0  0  0  0  0
   40.5690   31.2160   44.6930 N   0  0  0  0  0  0  0  0  0  0  0  0
   40.4520   30.7550   46.7490 H   0  0  0  0  0  0  0  0  0  0  0  0
   37.2860   32.9820   45.1170 H   0  0  0  0  0  0  0  0  0  0  0  0
   40.5940   31.7080   42.7160 H   0  0  0  0  0  0  0  0  0  0  0  0
   35.0690   30.0810   47.1940 C   0  0  0  0  0  0  0  0  0  0  0  0
   34.5860   30.6190   48.2690 O   0  0  0  0  0  0  0  0  0  0  0  0
   36.4770   30.2690   46.9100 N   0  0  0  0  0  0  0  0  0  0  0  0
   36.9410   29.8460   46.1060 H   0  0  0  0  0  0  0  0  0  0  0  0
   34.2390   29.3620   46.3740 O   0  0  0  0  0  0  0  0  0  0  0  0
   32.8510   29.4390   46.3910 C   0  0  0  0  0  0  0  0  0  0  0  0
   32.2070   30.4430   45.8340 O   0  0  0  0  0  0  0  0  0  0  0  0
   32.0180   28.3870   47.0200 C   0  0  0  0  0  0  0  0  0  0  0  0
   32.1870   27.7710   48.2180 N   0  0  0  0  0  0  0  0  0  0  0  0
   31.2070   26.8750   48.4090 C   0  0  0  0  0  0  0  0  0  0  0  0
   31.1830   26.2850   49.3210 H   0  0  0  0  0  0  0  0  0  0  0  0
   30.4160   26.9270   47.3250 N   0  0  0  0  0  0  0  0  0  0  0  0
   29.5690   26.3240   47.2150 H   0  0  0  0  0  0  0  0  0  0  0  0
   30.9100   27.8350   46.4990 N   0  0  0  0  0  0  0  0  0  0  0  0
  1  6  2  0  0  0  0
  1  2  1  0  0  0  0
  2  3  2  0  0  0  0
  3  4  1  0  0  0  0
  3  8  1  0  0  0  0
  4  9  1  0  0  0  0
  5 10  1  0  0  0  0
  5  4  2  0  0  0  0
  6  5  1  0  0  0  0
  7  2  1  0  0  0  0
 11 12  1  0  0  0  0
 11 17  1  0  0  0  0
 12  1  1  0  0  0  0
 13 18  1  0  0  0  0
 13 12  2  0  0  0  0
 14 13  1  0  0  0  0
 15 14  2  0  0  0  0
 15 16  1  0  0  0  0
 16 11  2  0  0  0  0
 19 15  1  0  0  0  0
 20 21  2  0  0  0  0
 22 20  1  0  0  0  0
 22  6  1  0  0  0  0
 23 22  1  0  0  0  0
 24 25  1  0  0  0  0
 24 20  1  0  0  0  0
 25 27  1  0  0  0  0
 26 25  2  0  0  0  0
 27 28  1  0  0  0  0
 28 29  2  0  0  0  0
 29 30  1  0  0  0  0
 31 29  1  0  0  0  0
 32 31  1  0  0  0  0
 33 27  2  0  0  0  0
 33 31  1  0  0  0  0
M  END
>  <minimizedAffinity>
-5.73157167

>  <minimizedRMSD>
1.29575276

$$$$
