
 OpenBabel03272509573D

 44 47  0  0  0  0  0  0  0  0999 V2000
   34.4180   28.6340   48.1180 C   0  0  0  0  0  0  0  0  0  0  0  0
   35.3140   28.7960   47.4590 H   0  0  0  0  0  0  0  0  0  0  0  0
   33.8530   29.5820   48.0820 H   0  0  0  0  0  0  0  0  0  0  0  0
   33.5190   27.5450   47.6130 C   0  0  0  0  0  0  0  0  0  0  0  0
   33.7370   27.4280   46.5290 H   0  0  0  0  0  0  0  0  0  0  0  0
   33.6950   26.5890   48.1490 H   0  0  0  0  0  0  0  0  0  0  0  0
   32.0830   27.8950   47.7220 C   0  0  0  0  0  0  0  0  0  0  0  0
   31.3790   27.4200   48.8220 C   0  0  0  0  0  0  0  0  0  0  0  0
   30.0500   27.6900   49.0120 C   0  0  0  0  0  0  0  0  0  0  0  0
   29.4030   28.4290   48.1200 N   0  0  0  0  0  0  0  0  0  0  0  0
   30.1000   28.8900   47.0470 C   0  0  0  0  0  0  0  0  0  0  0  0
   31.3970   28.6480   46.8270 N   0  0  0  0  0  0  0  0  0  0  0  0
   31.8660   26.8110   49.5770 H   0  0  0  0  0  0  0  0  0  0  0  0
   29.4880   27.3290   49.8590 H   0  0  0  0  0  0  0  0  0  0  0  0
   29.3330   29.7230   46.0600 C   0  0  0  0  0  0  0  0  0  0  0  0
   28.9500   30.6530   46.5620 H   0  0  0  0  0  0  0  0  0  0  0  0
   29.8680   29.9100   45.1330 H   0  0  0  0  0  0  0  0  0  0  0  0
   28.1220   28.9030   45.7190 C   0  0  0  0  0  0  0  0  0  0  0  0
   28.1570   27.7990   44.9250 N   0  0  0  0  0  0  0  0  0  0  0  0
   26.9090   27.3140   44.8300 C   0  0  0  0  0  0  0  0  0  0  0  0
   26.6400   26.4340   44.2570 H   0  0  0  0  0  0  0  0  0  0  0  0
   26.0950   28.1210   45.5680 N   0  0  0  0  0  0  0  0  0  0  0  0
   25.0700   28.0110   45.6950 H   0  0  0  0  0  0  0  0  0  0  0  0
   26.8320   29.0660   46.0930 N   0  0  0  0  0  0  0  0  0  0  0  0
   34.8030   28.4040   49.4600 O   0  0  0  0  0  0  0  0  0  0  0  0
   37.1800   30.0370   51.6210 C   0  0  0  0  0  0  0  0  0  0  0  0
   37.9540   30.7460   50.6800 C   0  0  0  0  0  0  0  0  0  0  0  0
   37.5990   30.6120   49.3470 C   0  0  0  0  0  0  0  0  0  0  0  0
   36.5320   29.8040   49.0790 N   0  0  0  0  0  0  0  0  0  0  0  0
   35.8140   29.1420   49.9830 C   0  0  0  0  0  0  0  0  0  0  0  0
   36.1620   29.2740   51.2870 N   0  0  0  0  0  0  0  0  0  0  0  0
   37.4660   30.1500   52.6550 H   0  0  0  0  0  0  0  0  0  0  0  0
   38.7870   31.3780   50.8950 H   0  0  0  0  0  0  0  0  0  0  0  0
   38.8140   33.2330   49.2670 F   0  0  0  0  0  0  0  0  0  0  0  0
   38.8260   32.4700   48.1720 C   0  0  0  0  0  0  0  0  0  0  0  0
   38.2560   31.2500   48.2210 C   0  0  0  0  0  0  0  0  0  0  0  0
   38.3240   30.5410   47.0290 C   0  0  0  0  0  0  0  0  0  0  0  0
   38.9180   31.0380   45.9010 C   0  0  0  0  0  0  0  0  0  0  0  0
   39.4900   32.2920   45.8910 C   0  0  0  0  0  0  0  0  0  0  0  0
   39.4370   33.0140   47.0550 C   0  0  0  0  0  0  0  0  0  0  0  0
   37.9090   29.5450   46.9160 H   0  0  0  0  0  0  0  0  0  0  0  0
   38.9710   30.4850   44.9720 H   0  0  0  0  0  0  0  0  0  0  0  0
   39.9700   32.7250   45.0230 H   0  0  0  0  0  0  0  0  0  0  0  0
   39.8760   34.0000   47.0810 H   0  0  0  0  0  0  0  0  0  0  0  0
  1 25  1  0  0  0  0
  2  1  1  0  0  0  0
  3  1  1  0  0  0  0
  4  7  1  0  0  0  0
  4  1  1  0  0  0  0
  4  6  1  0  0  0  0
  5  4  1  0  0  0  0
  7  8  1  0  0  0  0
  8  9  2  0  0  0  0
  8 13  1  0  0  0  0
  9 14  1  0  0  0  0
 10  9  1  0  0  0  0
 11 10  2  0  0  0  0
 12 11  1  0  0  0  0
 12  7  2  0  0  0  0
 15 16  1  0  0  0  0
 15 11  1  0  0  0  0
 17 15  1  0  0  0  0
 18 15  1  0  0  0  0
 18 24  2  0  0  0  0
 19 18  1  0  0  0  0
 20 19  2  0  0  0  0
 20 22  1  0  0  0  0
 21 20  1  0  0  0  0
 22 23  1  0  0  0  0
 22 24  1  0  0  0  0
 25 30  1  0  0  0  0
 26 32  1  0  0  0  0
 27 33  1  0  0  0  0
 27 26  2  0  0  0  0
 28 27  1  0  0  0  0
 29 28  2  0  0  0  0
 29 30  1  0  0  0  0
 30 31  2  0  0  0  0
 31 26  1  0  0  0  0
 35 36  1  0  0  0  0
 35 34  1  0  0  0  0
 36 28  1  0  0  0  0
 37 36  2  0  0  0  0
 38 37  1  0  0  0  0
 39 38  2  0  0  0  0
 39 40  1  0  0  0  0
 40 44  1  0  0  0  0
 40 35  2  0  0  0  0
 41 37  1  0  0  0  0
 42 38  1  0  0  0  0
 43 39  1  0  0  0  0
M  END
>  <minimizedAffinity>
-6.57157755

>  <minimizedRMSD>
0.878725111

$$$$
