
 OpenBabel03262521013D

 35 36  0  0  1  0  0  0  0  0999 V2000
   38.7370   30.6520   45.7350 S   0  0  0  0  0  0  0  0  0  0  0  0
   37.3620   32.5430   44.3450 N   0  0  0  0  0  0  0  0  0  0  0  0
   37.3360   31.1360   44.6510 C   0  0  1  0  0  0  0  0  0  0  0  0
   37.4730   30.3140   43.4000 C   0  0  0  0  0  0  0  0  0  0  0  0
   38.7410   30.6830   42.7840 N   0  0  0  0  0  0  0  0  0  0  0  0
   38.5210   32.0530   42.2930 C   0  0  0  0  0  0  0  0  0  0  0  0
   38.4750   32.9240   43.5350 C   0  0  2  0  0  0  0  0  0  0  0  0
   36.4890   32.7610   43.8570 H   0  0  0  0  0  0  0  0  0  0  0  0
   36.3840   30.9090   45.1700 H   0  0  0  0  0  0  0  0  0  0  0  0
   36.6620   30.4570   42.6760 H   0  0  0  0  0  0  0  0  0  0  0  0
   37.5210   29.2280   43.6960 H   0  0  0  0  0  0  0  0  0  0  0  0
   39.5230   30.6420   43.4500 H   0  0  0  0  0  0  0  0  0  0  0  0
   37.5360   32.0680   41.7900 H   0  0  0  0  0  0  0  0  0  0  0  0
   39.3570   32.3840   41.6680 H   0  0  0  0  0  0  0  0  0  0  0  0
   38.3050   33.9800   43.2190 H   0  0  0  0  0  0  0  0  0  0  0  0
   39.7360   32.8400   44.2360 N   0  0  0  0  0  0  0  0  0  0  0  0
   40.4970   32.4330   43.6650 H   0  0  0  0  0  0  0  0  0  0  0  0
   40.0100   33.7820   44.5860 H   0  0  0  0  0  0  0  0  0  0  0  0
   38.5760   32.8830   49.1180 C   0  0  0  0  0  0  0  0  0  0  0  0
   38.8520   32.5240   47.8160 C   0  0  0  0  0  0  0  0  0  0  0  0
   38.4610   31.2730   47.3810 C   0  0  0  0  0  0  0  0  0  0  0  0
   37.8130   30.4500   48.2790 N   0  0  0  0  0  0  0  0  0  0  0  0
   37.5790   30.8560   49.5180 C   0  0  0  0  0  0  0  0  0  0  0  0
   37.9490   32.0600   49.9580 N   0  0  0  0  0  0  0  0  0  0  0  0
   38.8750   33.8600   49.4750 H   0  0  0  0  0  0  0  0  0  0  0  0
   39.3570   33.1690   47.1170 H   0  0  0  0  0  0  0  0  0  0  0  0
   36.8890   29.9490   50.4390 C   0  0  0  0  0  0  0  0  0  0  0  0
   37.0070   29.9960   51.6800 O   0  0  0  0  0  0  0  0  0  0  0  0
   36.0250   28.9470   49.8780 N   0  0  0  0  0  0  0  0  0  0  0  0
   36.4440   28.0000   49.6360 H   0  0  0  0  0  0  0  0  0  0  0  0
   34.3380   29.2130   49.5810 S   0  0  0  0  0  0  0  0  0  0  0  0
   33.6570   27.9720   49.1300 O   0  0  0  0  0  0  0  0  0  0  0  0
   33.6920   29.6570   50.8620 O   0  0  0  0  0  0  0  0  0  0  0  0
   34.1760   30.3900   48.3920 O   0  0  0  0  0  0  0  0  0  0  0  0
   34.9310   31.0000   48.4490 H   0  0  0  0  0  0  0  0  0  0  0  0
  1 21  1  0  0  0  0
  2  3  1  0  0  0  0
  3  9  1  1  0  0  0
  3  1  1  0  0  0  0
  4 11  1  0  0  0  0
  4  3  1  0  0  0  0
  5  4  1  0  0  0  0
  5 12  1  0  0  0  0
  6  5  1  0  0  0  0
  6  7  1  0  0  0  0
  7 15  1  6  0  0  0
  7 16  1  0  0  0  0
  7  2  1  0  0  0  0
  8  2  1  0  0  0  0
 10  4  1  0  0  0  0
 13  6  1  0  0  0  0
 14  6  1  0  0  0  0
 16 18  1  0  0  0  0
 17 16  1  0  0  0  0
 19 25  1  0  0  0  0
 19 24  1  0  0  0  0
 20 19  2  0  0  0  0
 21 20  1  0  0  0  0
 21 22  2  0  0  0  0
 22 23  1  0  0  0  0
 23 24  2  0  0  0  0
 23 27  1  0  0  0  0
 26 20  1  0  0  0  0
 27 28  2  0  0  0  0
 29 27  1  0  0  0  0
 30 29  1  0  0  0  0
 31 29  1  0  0  0  0
 31 33  1  0  0  0  0
 32 31  1  0  0  0  0
 34 35  1  0  0  0  0
 34 31  1  0  0  0  0
M  END
>  <minimizedAffinity>
-5.87010908

>  <minimizedRMSD>
2.8406837

$$$$
