
 OpenBabel03272510313D

 30 31  0  0  0  0  0  0  0  0999 V2000
   37.3980   31.0380   49.3650 C   0  0  0  0  0  0  0  0  0  0  0  0
   38.4490   31.9310   49.2830 C   0  0  0  0  0  0  0  0  0  0  0  0
   38.7600   32.3430   47.9900 C   0  0  0  0  0  0  0  0  0  0  0  0
   38.0450   31.8690   46.9210 N   0  0  0  0  0  0  0  0  0  0  0  0
   37.0260   30.9970   47.0570 C   0  0  0  0  0  0  0  0  0  0  0  0
   36.7010   30.5770   48.3090 N   0  0  0  0  0  0  0  0  0  0  0  0
   39.0030   32.2980   50.1160 H   0  0  0  0  0  0  0  0  0  0  0  0
   39.5530   33.0350   47.7690 H   0  0  0  0  0  0  0  0  0  0  0  0
   36.9860   30.5740   50.7360 C   0  0  0  0  0  0  0  0  0  0  0  0
   36.0470   29.5250   50.9540 C   0  0  0  0  0  0  0  0  0  0  0  0
   37.5230   29.1710   51.0700 C   0  0  0  0  0  0  0  0  0  0  0  0
   37.1880   31.3510   51.5050 H   0  0  0  0  0  0  0  0  0  0  0  0
   35.5740   29.0070   50.0680 H   0  0  0  0  0  0  0  0  0  0  0  0
   35.4050   29.4870   51.8330 H   0  0  0  0  0  0  0  0  0  0  0  0
   37.8790   29.0620   52.1010 H   0  0  0  0  0  0  0  0  0  0  0  0
   38.0200   28.6010   50.2770 H   0  0  0  0  0  0  0  0  0  0  0  0
   36.2700   30.5150   45.9150 C   0  0  0  0  0  0  0  0  0  0  0  0
   35.6980   29.6060   46.1740 H   0  0  0  0  0  0  0  0  0  0  0  0
   35.5820   31.3430   45.5970 H   0  0  0  0  0  0  0  0  0  0  0  0
   37.3500   31.1640   43.7690 C   0  0  0  0  0  0  0  0  0  0  0  0
   36.7370   32.2580   43.6460 O   0  0  0  0  0  0  0  0  0  0  0  0
   37.2110   30.2460   44.8390 N   0  0  0  0  0  0  0  0  0  0  0  0
   37.7660   29.3630   44.8900 H   0  0  0  0  0  0  0  0  0  0  0  0
   38.2890   30.7700   42.7480 N   0  0  0  0  0  0  0  0  0  0  0  0
   38.1630   29.8720   42.1950 H   0  0  0  0  0  0  0  0  0  0  0  0
   39.6480   31.8140   42.4410 S   0  0  0  0  0  0  0  0  0  0  0  0
   39.1790   33.1430   41.9400 O   0  0  0  0  0  1  0  0  0  0  0  0
   40.3720   31.9770   43.7460 O   0  0  0  0  0  1  0  0  0  0  0  0
   40.6350   31.0970   41.3060 O   0  0  0  0  0  0  0  0  0  0  0  0
   41.4530   31.6140   41.1970 H   0  0  0  0  0  0  0  0  0  0  0  0
  1  9  1  0  0  0  0
  2  1  1  0  0  0  0
  2  7  1  0  0  0  0
  3  2  2  0  0  0  0
  4  5  2  0  0  0  0
  4  3  1  0  0  0  0
  5  6  1  0  0  0  0
  6  1  2  0  0  0  0
  8  3  1  0  0  0  0
  9 10  1  0  0  0  0
  9 11  1  0  0  0  0
  9 12  1  0  0  0  0
 10 11  1  0  0  0  0
 10 14  1  0  0  0  0
 11 15  1  0  0  0  0
 13 10  1  0  0  0  0
 16 11  1  0  0  0  0
 17 18  1  0  0  0  0
 17  5  1  0  0  0  0
 19 17  1  0  0  0  0
 20 22  1  0  0  0  0
 21 20  2  0  0  0  0
 22 23  1  0  0  0  0
 22 17  1  0  0  0  0
 24 20  1  0  0  0  0
 25 24  1  0  0  0  0
 26 24  1  0  0  0  0
 26 28  1  0  0  0  0
 27 26  1  0  0  0  0
 29 26  1  0  0  0  0
 30 29  1  0  0  0  0
M  END
>  <minimizedAffinity>
-4.92826366

>  <minimizedRMSD>
3.16037536

$$$$
