
 OpenBabel03262521013D

 35 36  0  0  1  0  0  0  0  0999 V2000
   38.7490   30.7350   46.2240 S   0  0  0  0  0  0  0  0  0  0  0  0
   41.0030   31.4860   44.9010 N   0  0  0  0  0  0  0  0  0  0  0  0
   39.8930   32.0430   45.6310 C   0  0  1  0  0  0  0  0  0  0  0  0
   39.0750   32.9460   44.7530 C   0  0  0  0  0  0  0  0  0  0  0  0
   38.6020   32.1410   43.6340 N   0  0  0  0  0  0  0  0  0  0  0  0
   39.8140   31.8700   42.8430 C   0  0  0  0  0  0  0  0  0  0  0  0
   40.6190   30.8810   43.6650 C   0  0  2  0  0  0  0  0  0  0  0  0
   41.6590   32.2510   44.7220 H   0  0  0  0  0  0  0  0  0  0  0  0
   40.2920   32.5950   46.5040 H   0  0  0  0  0  0  0  0  0  0  0  0
   39.6210   33.8170   44.3690 H   0  0  0  0  0  0  0  0  0  0  0  0
   38.1820   33.2980   45.3440 H   0  0  0  0  0  0  0  0  0  0  0  0
   38.1530   31.2700   43.9440 H   0  0  0  0  0  0  0  0  0  0  0  0
   40.3700   32.8240   42.7580 H   0  0  0  0  0  0  0  0  0  0  0  0
   39.5610   31.4020   41.8860 H   0  0  0  0  0  0  0  0  0  0  0  0
   41.5570   30.6430   43.1110 H   0  0  0  0  0  0  0  0  0  0  0  0
   39.8580   29.6650   43.8460 N   0  0  0  0  0  0  0  0  0  0  0  0
   39.0530   29.5850   43.2010 H   0  0  0  0  0  0  0  0  0  0  0  0
   40.4840   28.8380   43.7480 H   0  0  0  0  0  0  0  0  0  0  0  0
   37.6160   32.7050   49.5840 C   0  0  0  0  0  0  0  0  0  0  0  0
   38.3130   32.4010   48.4340 C   0  0  0  0  0  0  0  0  0  0  0  0
   37.9560   31.2700   47.7270 C   0  0  0  0  0  0  0  0  0  0  0  0
   36.9160   30.5050   48.2140 N   0  0  0  0  0  0  0  0  0  0  0  0
   36.2870   30.8520   49.3260 C   0  0  0  0  0  0  0  0  0  0  0  0
   36.6170   31.9400   50.0250 N   0  0  0  0  0  0  0  0  0  0  0  0
   37.8830   33.5870   50.1510 H   0  0  0  0  0  0  0  0  0  0  0  0
   39.1240   33.0010   48.0560 H   0  0  0  0  0  0  0  0  0  0  0  0
   35.1890   30.0100   49.8080 C   0  0  0  0  0  0  0  0  0  0  0  0
   35.2400   29.3320   50.8540 O   0  0  0  0  0  0  0  0  0  0  0  0
   33.9820   29.9640   49.0280 N   0  0  0  0  0  0  0  0  0  0  0  0
   33.2180   30.6710   49.2410 H   0  0  0  0  0  0  0  0  0  0  0  0
   33.7210   28.8090   47.7610 S   0  0  0  0  0  0  0  0  0  0  0  0
   32.2740   28.6280   47.4750 O   0  0  0  0  0  1  0  0  0  0  0  0
   34.3810   29.3150   46.5110 O   0  0  0  0  0  1  0  0  0  0  0  0
   34.3770   27.3340   48.2280 O   0  0  0  0  0  0  0  0  0  0  0  0
   35.1370   27.5000   48.8110 H   0  0  0  0  0  0  0  0  0  0  0  0
  1 21  1  0  0  0  0
  2  3  1  0  0  0  0
  3  1  1  0  0  0  0
  3  9  1  1  0  0  0
  4 11  1  0  0  0  0
  4  3  1  0  0  0  0
  5 12  1  0  0  0  0
  5  4  1  0  0  0  0
  6  5  1  0  0  0  0
  6  7  1  0  0  0  0
  7 15  1  6  0  0  0
  7 16  1  0  0  0  0
  7  2  1  0  0  0  0
  8  2  1  0  0  0  0
 10  4  1  0  0  0  0
 13  6  1  0  0  0  0
 14  6  1  0  0  0  0
 17 16  1  0  0  0  0
 18 16  1  0  0  0  0
 19 24  1  0  0  0  0
 19 25  1  0  0  0  0
 20 19  2  0  0  0  0
 21 22  2  0  0  0  0
 21 20  1  0  0  0  0
 22 23  1  0  0  0  0
 23 27  1  0  0  0  0
 23 24  2  0  0  0  0
 26 20  1  0  0  0  0
 27 28  2  0  0  0  0
 29 30  1  0  0  0  0
 29 27  1  0  0  0  0
 31 34  1  0  0  0  0
 31 29  1  0  0  0  0
 32 31  1  0  0  0  0
 33 31  1  0  0  0  0
 34 35  1  0  0  0  0
M  END
>  <minimizedAffinity>
-5.75970125

>  <minimizedRMSD>
2.57663727

$$$$
