
 OpenBabel03262521023D

 35 36  0  0  1  0  0  0  0  0999 V2000
   35.7650   24.8700   31.1690 S   0  0  0  0  0  0  0  0  0  0  0  0
   37.8240   26.3170   32.2000 N   0  0  0  0  0  0  0  0  0  0  0  0
   36.3870   26.3180   32.1100 C   0  0  1  0  0  0  0  0  0  0  0  0
   35.8990   27.5340   31.3760 C   0  0  0  0  0  0  0  0  0  0  0  0
   36.4960   27.5000   30.0470 N   0  0  0  0  0  0  0  0  0  0  0  0
   37.9240   27.7700   30.2840 C   0  0  0  0  0  0  0  0  0  0  0  0
   38.4690   26.5150   30.9400 C   0  0  2  0  0  0  0  0  0  0  0  0
   38.0870   27.0670   32.8440 H   0  0  0  0  0  0  0  0  0  0  0  0
   35.9740   26.2840   33.1370 H   0  0  0  0  0  0  0  0  0  0  0  0
   36.1480   28.4860   31.8620 H   0  0  0  0  0  0  0  0  0  0  0  0
   34.7790   27.4550   31.2680 H   0  0  0  0  0  0  0  0  0  0  0  0
   36.3570   26.5940   29.5820 H   0  0  0  0  0  0  0  0  0  0  0  0
   37.9840   28.6180   30.9920 H   0  0  0  0  0  0  0  0  0  0  0  0
   38.4550   27.9260   29.3390 H   0  0  0  0  0  0  0  0  0  0  0  0
   39.5540   26.6680   31.1470 H   0  0  0  0  0  0  0  0  0  0  0  0
   38.3150   25.3910   30.0450 N   0  0  0  0  0  0  0  0  0  0  0  0
   38.1120   25.6680   29.0690 H   0  0  0  0  0  0  0  0  0  0  0  0
   39.1640   24.7900   30.0830 H   0  0  0  0  0  0  0  0  0  0  0  0
   35.9950   21.0900   32.6230 C   0  0  0  0  0  0  0  0  0  0  0  0
   35.5260   22.1830   31.9250 C   0  0  0  0  0  0  0  0  0  0  0  0
   36.2300   23.3680   32.0060 C   0  0  0  0  0  0  0  0  0  0  0  0
   37.3690   23.3910   32.7850 N   0  0  0  0  0  0  0  0  0  0  0  0
   37.7660   22.3060   33.4310 C   0  0  0  0  0  0  0  0  0  0  0  0
   37.1000   21.1510   33.3670 N   0  0  0  0  0  0  0  0  0  0  0  0
   35.4550   20.1540   32.5710 H   0  0  0  0  0  0  0  0  0  0  0  0
   34.6370   22.1610   31.3180 H   0  0  0  0  0  0  0  0  0  0  0  0
   38.9810   22.3750   34.2480 C   0  0  0  0  0  0  0  0  0  0  0  0
   40.0850   22.7650   33.8190 O   0  0  0  0  0  0  0  0  0  0  0  0
   38.8920   21.9700   35.6240 N   0  0  0  0  0  0  0  0  0  0  0  0
   39.0760   20.9510   35.8610 H   0  0  0  0  0  0  0  0  0  0  0  0
   38.5000   23.0680   36.9070 S   0  0  0  0  0  0  0  0  0  0  0  0
   38.8280   24.4710   36.5480 O   0  0  0  0  0  1  0  0  0  0  0  0
   37.0240   22.9890   37.1700 O   0  0  0  0  0  1  0  0  0  0  0  0
   39.3730   22.6340   38.2760 O   0  0  0  0  0  0  0  0  0  0  0  0
   39.5200   21.6730   38.2640 H   0  0  0  0  0  0  0  0  0  0  0  0
  1 21  1  0  0  0  0
  1  3  1  0  0  0  0
  2  8  1  0  0  0  0
  3  2  1  0  0  0  0
  3  9  1  1  0  0  0
  4 10  1  0  0  0  0
  4  3  1  0  0  0  0
  5  6  1  0  0  0  0
  5  4  1  0  0  0  0
  6  7  1  0  0  0  0
  6 13  1  0  0  0  0
  7 15  1  1  0  0  0
  7  2  1  0  0  0  0
 11  4  1  0  0  0  0
 12  5  1  0  0  0  0
 14  6  1  0  0  0  0
 16 18  1  0  0  0  0
 16  7  1  0  0  0  0
 17 16  1  0  0  0  0
 19 24  1  0  0  0  0
 20 21  1  0  0  0  0
 20 19  2  0  0  0  0
 21 22  2  0  0  0  0
 22 23  1  0  0  0  0
 23 27  1  0  0  0  0
 24 23  2  0  0  0  0
 25 19  1  0  0  0  0
 26 20  1  0  0  0  0
 27 29  1  0  0  0  0
 28 27  2  0  0  0  0
 29 30  1  0  0  0  0
 29 31  1  0  0  0  0
 31 33  1  0  0  0  0
 31 34  1  0  0  0  0
 32 31  1  0  0  0  0
 35 34  1  0  0  0  0
M  END
>  <minimizedAffinity>
-5.32240677

$$$$

 OpenBabel03262521023D

 35 36  0  0  1  0  0  0  0  0999 V2000
   38.6510   22.0400   34.5900 S   0  0  0  0  0  0  0  0  0  0  0  0
   37.9580   24.2360   36.0380 N   0  0  0  0  0  0  0  0  0  0  0  0
   39.0830   23.6540   35.3530 C   0  0  1  0  0  0  0  0  0  0  0  0
   40.2050   23.3740   36.3130 C   0  0  0  0  0  0  0  0  0  0  0  0
   39.6870   22.4590   37.3210 N   0  0  0  0  0  0  0  0  0  0  0  0
   38.7420   23.2750   38.1010 C   0  0  0  0  0  0  0  0  0  0  0  0
   37.5500   23.4930   37.1870 C   0  0  2  0  0  0  0  0  0  0  0  0
   38.2320   25.1810   36.3170 H   0  0  0  0  0  0  0  0  0  0  0  0
   39.4080   24.3530   34.5580 H   0  0  0  0  0  0  0  0  0  0  0  0
   40.6100   24.2670   36.8050 H   0  0  0  0  0  0  0  0  0  0  0  0
   41.0310   22.8550   35.7470 H   0  0  0  0  0  0  0  0  0  0  0  0
   39.2240   21.6420   36.9040 H   0  0  0  0  0  0  0  0  0  0  0  0
   39.2360   24.2440   38.3070 H   0  0  0  0  0  0  0  0  0  0  0  0
   38.4020   22.7370   38.9920 H   0  0  0  0  0  0  0  0  0  0  0  0
   36.7990   24.1140   37.7300 H   0  0  0  0  0  0  0  0  0  0  0  0
   36.9530   22.2200   36.8530 N   0  0  0  0  0  0  0  0  0  0  0  0
   37.2630   21.4470   37.4670 H   0  0  0  0  0  0  0  0  0  0  0  0
   35.9150   22.3000   36.8670 H   0  0  0  0  0  0  0  0  0  0  0  0
   35.5830   21.6160   31.9710 C   0  0  0  0  0  0  0  0  0  0  0  0
   36.5170   21.2980   32.9350 C   0  0  0  0  0  0  0  0  0  0  0  0
   37.3890   22.2810   33.3570 C   0  0  0  0  0  0  0  0  0  0  0  0
   37.2750   23.5330   32.7880 N   0  0  0  0  0  0  0  0  0  0  0  0
   36.3560   23.7750   31.8670 C   0  0  0  0  0  0  0  0  0  0  0  0
   35.5040   22.8390   31.4440 N   0  0  0  0  0  0  0  0  0  0  0  0
   34.8920   20.8570   31.6280 H   0  0  0  0  0  0  0  0  0  0  0  0
   36.6030   20.3190   33.3760 H   0  0  0  0  0  0  0  0  0  0  0  0
   36.2710   25.1180   31.2890 C   0  0  0  0  0  0  0  0  0  0  0  0
   35.2550   25.5690   30.7230 O   0  0  0  0  0  0  0  0  0  0  0  0
   37.4280   25.9660   31.3810 N   0  0  0  0  0  0  0  0  0  0  0  0
   38.1410   25.9300   30.5940 H   0  0  0  0  0  0  0  0  0  0  0  0
   37.7080   27.0400   32.7130 S   0  0  0  0  0  0  0  0  0  0  0  0
   39.1570   27.3020   32.9110 O   0  0  0  0  0  1  0  0  0  0  0  0
   37.0360   28.3500   32.4200 O   0  0  0  0  0  1  0  0  0  0  0  0
   37.0800   26.3460   34.1090 O   0  0  0  0  0  0  0  0  0  0  0  0
   36.3180   25.7920   33.8680 H   0  0  0  0  0  0  0  0  0  0  0  0
  1  3  1  0  0  0  0
  2  8  1  0  0  0  0
  2  7  1  0  0  0  0
  3  9  1  6  0  0  0
  3  2  1  0  0  0  0
  3  4  1  0  0  0  0
  4 10  1  0  0  0  0
  4  5  1  0  0  0  0
  5  6  1  0  0  0  0
  6 13  1  0  0  0  0
  6 14  1  0  0  0  0
  7 15  1  1  0  0  0
  7  6  1  0  0  0  0
 11  4  1  0  0  0  0
 12  5  1  0  0  0  0
 16 18  1  0  0  0  0
 16  7  1  0  0  0  0
 16 17  1  0  0  0  0
 19 20  1  0  0  0  0
 20 21  2  0  0  0  0
 20 26  1  0  0  0  0
 21  1  1  0  0  0  0
 22 21  1  0  0  0  0
 23 22  2  0  0  0  0
 24 23  1  0  0  0  0
 24 19  2  0  0  0  0
 25 19  1  0  0  0  0
 27 29  1  0  0  0  0
 27 23  1  0  0  0  0
 28 27  2  0  0  0  0
 29 31  1  0  0  0  0
 30 29  1  0  0  0  0
 31 32  1  0  0  0  0
 31 34  1  0  0  0  0
 33 31  1  0  0  0  0
 35 34  1  0  0  0  0
M  END
>  <minimizedAffinity>
-5.17341328

$$$$

 OpenBabel03262521023D

 35 36  0  0  1  0  0  0  0  0999 V2000
   40.2970   26.4980   33.7760 S   0  0  0  0  0  0  0  0  0  0  0  0
   37.9060   25.4790   34.5750 N   0  0  0  0  0  0  0  0  0  0  0  0
   38.6970   25.6840   33.3900 C   0  0  1  0  0  0  0  0  0  0  0  0
   37.9880   26.5920   32.4250 C   0  0  0  0  0  0  0  0  0  0  0  0
   37.7600   27.8550   33.1160 N   0  0  0  0  0  0  0  0  0  0  0  0
   36.7390   27.5360   34.1270 C   0  0  0  0  0  0  0  0  0  0  0  0
   37.4530   26.6960   35.1700 C   0  0  2  0  0  0  0  0  0  0  0  0
   37.1010   24.9070   34.3050 H   0  0  0  0  0  0  0  0  0  0  0  0
   38.8970   24.6970   32.9290 H   0  0  0  0  0  0  0  0  0  0  0  0
   37.0320   26.2010   32.0570 H   0  0  0  0  0  0  0  0  0  0  0  0
   38.6740   26.7800   31.5510 H   0  0  0  0  0  0  0  0  0  0  0  0
   38.6170   28.2220   33.5480 H   0  0  0  0  0  0  0  0  0  0  0  0
   35.9600   26.9280   33.6280 H   0  0  0  0  0  0  0  0  0  0  0  0
   36.3680   28.4460   34.6090 H   0  0  0  0  0  0  0  0  0  0  0  0
   36.7200   26.4210   35.9640 H   0  0  0  0  0  0  0  0  0  0  0  0
   38.5230   27.4640   35.7650 N   0  0  0  0  0  0  0  0  0  0  0  0
   38.4550   28.4790   35.5750 H   0  0  0  0  0  0  0  0  0  0  0  0
   38.5580   27.2890   36.7900 H   0  0  0  0  0  0  0  0  0  0  0  0
   43.3720   24.5740   35.5900 C   0  0  0  0  0  0  0  0  0  0  0  0
   42.6940   25.5040   34.8310 C   0  0  0  0  0  0  0  0  0  0  0  0
   41.3230   25.3860   34.7140 C   0  0  0  0  0  0  0  0  0  0  0  0
   40.7070   24.3390   35.3690 N   0  0  0  0  0  0  0  0  0  0  0  0
   41.4160   23.4790   36.0840 C   0  0  0  0  0  0  0  0  0  0  0  0
   42.7410   23.5740   36.2080 N   0  0  0  0  0  0  0  0  0  0  0  0
   44.4460   24.6510   35.6920 H   0  0  0  0  0  0  0  0  0  0  0  0
   43.1780   26.3200   34.3210 H   0  0  0  0  0  0  0  0  0  0  0  0
   40.7210   22.3820   36.7620 C   0  0  0  0  0  0  0  0  0  0  0  0
   41.2850   21.5590   37.5100 O   0  0  0  0  0  0  0  0  0  0  0  0
   39.3050   22.2490   36.5510 N   0  0  0  0  0  0  0  0  0  0  0  0
   38.9720   21.6450   35.7430 H   0  0  0  0  0  0  0  0  0  0  0  0
   38.1240   23.0260   37.5540 S   0  0  0  0  0  0  0  0  0  0  0  0
   38.1990   24.5050   37.4450 O   0  0  0  0  0  1  0  0  0  0  0  0
   36.7580   22.5960   37.1040 O   0  0  0  0  0  1  0  0  0  0  0  0
   38.3930   22.5800   39.1520 O   0  0  0  0  0  0  0  0  0  0  0  0
   38.7740   21.6860   39.1690 H   0  0  0  0  0  0  0  0  0  0  0  0
  1 21  1  0  0  0  0
  2  7  1  0  0  0  0
  3  9  1  6  0  0  0
  3  1  1  0  0  0  0
  3  2  1  0  0  0  0
  4  5  1  0  0  0  0
  4  3  1  0  0  0  0
  5 12  1  0  0  0  0
  5  6  1  0  0  0  0
  6 14  1  0  0  0  0
  6  7  1  0  0  0  0
  7 16  1  0  0  0  0
  7 15  1  1  0  0  0
  8  2  1  0  0  0  0
 10  4  1  0  0  0  0
 11  4  1  0  0  0  0
 13  6  1  0  0  0  0
 16 18  1  0  0  0  0
 17 16  1  0  0  0  0
 19 25  1  0  0  0  0
 19 24  1  0  0  0  0
 20 19  2  0  0  0  0
 21 20  1  0  0  0  0
 21 22  2  0  0  0  0
 22 23  1  0  0  0  0
 23 24  2  0  0  0  0
 23 27  1  0  0  0  0
 26 20  1  0  0  0  0
 27 28  2  0  0  0  0
 29 27  1  0  0  0  0
 29 31  1  0  0  0  0
 30 29  1  0  0  0  0
 31 34  1  0  0  0  0
 32 31  1  0  0  0  0
 33 31  1  0  0  0  0
 34 35  1  0  0  0  0
M  END
>  <minimizedAffinity>
-5.07873535

$$$$

 OpenBabel03262521023D

 35 36  0  0  1  0  0  0  0  0999 V2000
   35.1250   31.0180   33.1580 S   0  0  0  0  0  0  0  0  0  0  0  0
   36.1230   31.0050   35.6880 N   0  0  0  0  0  0  0  0  0  0  0  0
   34.9890   30.5470   34.9280 C   0  0  1  0  0  0  0  0  0  0  0  0
   33.7200   31.1730   35.4310 C   0  0  0  0  0  0  0  0  0  0  0  0
   33.8750   32.6170   35.3020 N   0  0  0  0  0  0  0  0  0  0  0  0
   34.8790   32.9660   36.3210 C   0  0  0  0  0  0  0  0  0  0  0  0
   36.1950   32.4280   35.7920 C   0  0  2  0  0  0  0  0  0  0  0  0
   36.0450   30.5940   36.6220 H   0  0  0  0  0  0  0  0  0  0  0  0
   34.9420   29.4430   35.0040 H   0  0  0  0  0  0  0  0  0  0  0  0
   33.4760   30.9250   36.4710 H   0  0  0  0  0  0  0  0  0  0  0  0
   32.8750   30.8430   34.7620 H   0  0  0  0  0  0  0  0  0  0  0  0
   34.1830   32.8920   34.3600 H   0  0  0  0  0  0  0  0  0  0  0  0
   34.6030   32.4310   37.2500 H   0  0  0  0  0  0  0  0  0  0  0  0
   34.9660   34.0520   36.4290 H   0  0  0  0  0  0  0  0  0  0  0  0
   36.9950   32.6630   36.5330 H   0  0  0  0  0  0  0  0  0  0  0  0
   36.5140   33.0690   34.5370 N   0  0  0  0  0  0  0  0  0  0  0  0
   35.9560   33.9220   34.3570 H   0  0  0  0  0  0  0  0  0  0  0  0
   37.5310   33.2870   34.4990 H   0  0  0  0  0  0  0  0  0  0  0  0
   36.6630   28.6040   30.2850 C   0  0  0  0  0  0  0  0  0  0  0  0
   36.1110   29.7180   30.8810 C   0  0  0  0  0  0  0  0  0  0  0  0
   35.8350   29.6720   32.2330 C   0  0  0  0  0  0  0  0  0  0  0  0
   36.1290   28.5080   32.9140 N   0  0  0  0  0  0  0  0  0  0  0  0
   36.6580   27.4730   32.2810 C   0  0  0  0  0  0  0  0  0  0  0  0
   36.9320   27.4960   30.9750 N   0  0  0  0  0  0  0  0  0  0  0  0
   36.8850   28.6230   29.2260 H   0  0  0  0  0  0  0  0  0  0  0  0
   35.8830   30.6250   30.3470 H   0  0  0  0  0  0  0  0  0  0  0  0
   36.9540   26.2560   33.0420 C   0  0  0  0  0  0  0  0  0  0  0  0
   36.9820   25.1130   32.5430 O   0  0  0  0  0  0  0  0  0  0  0  0
   37.2270   26.3890   34.4470 N   0  0  0  0  0  0  0  0  0  0  0  0
   36.4110   26.3310   35.1250 H   0  0  0  0  0  0  0  0  0  0  0  0
   38.8220   26.6380   35.0780 S   0  0  0  0  0  0  0  0  0  0  0  0
   39.4310   25.3680   35.5500 O   0  0  0  0  0  1  0  0  0  0  0  0
   39.6900   27.1890   33.9830 O   0  0  0  0  0  1  0  0  0  0  0  0
   38.7330   27.7140   36.3660 O   0  0  0  0  0  0  0  0  0  0  0  0
   37.9900   28.3230   36.2150 H   0  0  0  0  0  0  0  0  0  0  0  0
  1  3  1  0  0  0  0
  2  7  1  0  0  0  0
  2  8  1  0  0  0  0
  3  9  1  1  0  0  0
  3  4  1  0  0  0  0
  3  2  1  0  0  0  0
  4 10  1  0  0  0  0
  5  4  1  0  0  0  0
  5  6  1  0  0  0  0
  6 14  1  0  0  0  0
  6 13  1  0  0  0  0
  7  6  1  0  0  0  0
  7 15  1  1  0  0  0
 11  4  1  0  0  0  0
 12  5  1  0  0  0  0
 16  7  1  0  0  0  0
 17 16  1  0  0  0  0
 18 16  1  0  0  0  0
 19 20  2  0  0  0  0
 19 24  1  0  0  0  0
 20 21  1  0  0  0  0
 21 22  2  0  0  0  0
 21  1  1  0  0  0  0
 23 22  1  0  0  0  0
 23 27  1  0  0  0  0
 24 23  2  0  0  0  0
 25 19  1  0  0  0  0
 26 20  1  0  0  0  0
 27 29  1  0  0  0  0
 28 27  2  0  0  0  0
 29 31  1  0  0  0  0
 29 30  1  0  0  0  0
 31 32  1  0  0  0  0
 31 34  1  0  0  0  0
 33 31  1  0  0  0  0
 35 34  1  0  0  0  0
M  END
>  <minimizedAffinity>
-4.90975714

$$$$

 OpenBabel03262521023D

 35 36  0  0  1  0  0  0  0  0999 V2000
   38.2260   24.4110   35.0280 S   0  0  0  0  0  0  0  0  0  0  0  0
   38.8590   21.9670   36.0390 N   0  0  0  0  0  0  0  0  0  0  0  0
   37.7990   22.9420   36.0430 C   0  0  1  0  0  0  0  0  0  0  0  0
   37.5490   23.4530   37.4340 C   0  0  0  0  0  0  0  0  0  0  0  0
   38.7950   24.0470   37.9010 N   0  0  0  0  0  0  0  0  0  0  0  0
   39.6940   22.8980   38.0960 C   0  0  0  0  0  0  0  0  0  0  0  0
   40.0430   22.4180   36.7000 C   0  0  2  0  0  0  0  0  0  0  0  0
   38.5000   21.1300   36.5070 H   0  0  0  0  0  0  0  0  0  0  0  0
   36.8890   22.4680   35.6270 H   0  0  0  0  0  0  0  0  0  0  0  0
   37.2230   22.6850   38.1450 H   0  0  0  0  0  0  0  0  0  0  0  0
   36.7660   24.2620   37.3750 H   0  0  0  0  0  0  0  0  0  0  0  0
   39.1830   24.7190   37.2260 H   0  0  0  0  0  0  0  0  0  0  0  0
   39.1180   22.1160   38.6270 H   0  0  0  0  0  0  0  0  0  0  0  0
   40.6180   23.2040   38.5980 H   0  0  0  0  0  0  0  0  0  0  0  0
   40.7240   21.5390   36.7890 H   0  0  0  0  0  0  0  0  0  0  0  0
   40.7250   23.4690   35.9790 N   0  0  0  0  0  0  0  0  0  0  0  0
   41.0690   24.2290   36.5900 H   0  0  0  0  0  0  0  0  0  0  0  0
   41.5080   23.0670   35.4230 H   0  0  0  0  0  0  0  0  0  0  0  0
   37.9710   22.9180   31.2650 C   0  0  0  0  0  0  0  0  0  0  0  0
   38.3600   23.0530   32.5810 C   0  0  0  0  0  0  0  0  0  0  0  0
   37.8320   24.0930   33.3200 C   0  0  0  0  0  0  0  0  0  0  0  0
   36.9400   24.9410   32.6970 N   0  0  0  0  0  0  0  0  0  0  0  0
   36.6060   24.7560   31.4290 C   0  0  0  0  0  0  0  0  0  0  0  0
   37.1060   23.7590   30.6970 N   0  0  0  0  0  0  0  0  0  0  0  0
   38.3750   22.1090   30.6710 H   0  0  0  0  0  0  0  0  0  0  0  0
   39.0570   22.3900   33.0640 H   0  0  0  0  0  0  0  0  0  0  0  0
   35.6550   25.6810   30.8070 C   0  0  0  0  0  0  0  0  0  0  0  0
   34.4660   25.3950   30.5630 O   0  0  0  0  0  0  0  0  0  0  0  0
   36.1230   26.9940   30.4560 N   0  0  0  0  0  0  0  0  0  0  0  0
   36.5350   27.1390   29.4870 H   0  0  0  0  0  0  0  0  0  0  0  0
   36.0440   28.3440   31.5400 S   0  0  0  0  0  0  0  0  0  0  0  0
   36.2930   29.6290   30.8360 O   0  0  0  0  0  1  0  0  0  0  0  0
   34.6660   28.4000   32.1340 O   0  0  0  0  0  1  0  0  0  0  0  0
   37.2040   28.1440   32.7400 O   0  0  0  0  0  0  0  0  0  0  0  0
   37.3350   27.1930   32.8940 H   0  0  0  0  0  0  0  0  0  0  0  0
  1  3  1  0  0  0  0
  2  3  1  0  0  0  0
  2  8  1  0  0  0  0
  2  7  1  0  0  0  0
  3  9  1  6  0  0  0
  3  4  1  0  0  0  0
  4  5  1  0  0  0  0
  4 10  1  0  0  0  0
  5  6  1  0  0  0  0
  6 14  1  0  0  0  0
  6 13  1  0  0  0  0
  7 15  1  1  0  0  0
  7  6  1  0  0  0  0
 11  4  1  0  0  0  0
 12  5  1  0  0  0  0
 16 17  1  0  0  0  0
 16  7  1  0  0  0  0
 18 16  1  0  0  0  0
 19 20  1  0  0  0  0
 20 26  1  0  0  0  0
 20 21  2  0  0  0  0
 21  1  1  0  0  0  0
 22 21  1  0  0  0  0
 23 22  2  0  0  0  0
 24 19  2  0  0  0  0
 24 23  1  0  0  0  0
 25 19  1  0  0  0  0
 27 23  1  0  0  0  0
 28 27  2  0  0  0  0
 29 27  1  0  0  0  0
 29 31  1  0  0  0  0
 30 29  1  0  0  0  0
 31 33  1  0  0  0  0
 31 34  1  0  0  0  0
 32 31  1  0  0  0  0
 34 35  1  0  0  0  0
M  END
>  <minimizedAffinity>
-4.88360691

$$$$

 OpenBabel03262521023D

 35 36  0  0  1  0  0  0  0  0999 V2000
   37.3010   22.4780   31.4850 S   0  0  0  0  0  0  0  0  0  0  0  0
   36.8400   21.0740   33.7680 N   0  0  0  0  0  0  0  0  0  0  0  0
   37.8030   21.2000   32.7040 C   0  0  1  0  0  0  0  0  0  0  0  0
   37.9220   19.9140   31.9360 C   0  0  0  0  0  0  0  0  0  0  0  0
   36.6010   19.6120   31.4000 N   0  0  0  0  0  0  0  0  0  0  0  0
   35.8030   19.2520   32.5840 C   0  0  0  0  0  0  0  0  0  0  0  0
   35.5830   20.5540   33.3320 C   0  0  2  0  0  0  0  0  0  0  0  0
   37.2470   20.4500   34.4700 H   0  0  0  0  0  0  0  0  0  0  0  0
   38.7760   21.4880   33.1470 H   0  0  0  0  0  0  0  0  0  0  0  0
   38.2760   19.0640   32.5330 H   0  0  0  0  0  0  0  0  0  0  0  0
   38.6290   20.0840   31.0740 H   0  0  0  0  0  0  0  0  0  0  0  0
   36.1930   20.4110   30.8990 H   0  0  0  0  0  0  0  0  0  0  0  0
   36.4180   18.5670   33.1990 H   0  0  0  0  0  0  0  0  0  0  0  0
   34.8270   18.8510   32.2910 H   0  0  0  0  0  0  0  0  0  0  0  0
   34.9830   20.3370   34.2470 H   0  0  0  0  0  0  0  0  0  0  0  0
   34.8500   21.4780   32.4970 N   0  0  0  0  0  0  0  0  0  0  0  0
   34.4000   21.0270   31.6810 H   0  0  0  0  0  0  0  0  0  0  0  0
   34.1400   21.9840   33.0670 H   0  0  0  0  0  0  0  0  0  0  0  0
   36.6650   26.3570   32.4830 C   0  0  0  0  0  0  0  0  0  0  0  0
   36.6000   25.1740   31.7780 C   0  0  0  0  0  0  0  0  0  0  0  0
   37.2790   24.0770   32.2680 C   0  0  0  0  0  0  0  0  0  0  0  0
   37.9870   24.2270   33.4430 N   0  0  0  0  0  0  0  0  0  0  0  0
   38.0090   25.3920   34.0730 C   0  0  0  0  0  0  0  0  0  0  0  0
   37.3600   26.4640   33.6160 N   0  0  0  0  0  0  0  0  0  0  0  0
   36.1380   27.2270   32.1130 H   0  0  0  0  0  0  0  0  0  0  0  0
   36.0470   25.0600   30.8610 H   0  0  0  0  0  0  0  0  0  0  0  0
   38.7730   25.5070   35.3180 C   0  0  0  0  0  0  0  0  0  0  0  0
   38.9980   26.5880   35.8980 O   0  0  0  0  0  0  0  0  0  0  0  0
   39.2950   24.3020   35.9030 N   0  0  0  0  0  0  0  0  0  0  0  0
   40.2670   23.9830   35.6130 H   0  0  0  0  0  0  0  0  0  0  0  0
   38.4130   23.3530   37.0540 S   0  0  0  0  0  0  0  0  0  0  0  0
   37.5830   24.2040   37.9460 O   0  0  0  0  0  1  0  0  0  0  0  0
   37.4940   22.4300   36.3080 O   0  0  0  0  0  1  0  0  0  0  0  0
   39.5040   22.4820   37.9890 O   0  0  0  0  0  0  0  0  0  0  0  0
   40.2920   22.2880   37.4520 H   0  0  0  0  0  0  0  0  0  0  0  0
  1 21  1  0  0  0  0
  1  3  1  0  0  0  0
  2  8  1  0  0  0  0
  3  9  1  1  0  0  0
  3  2  1  0  0  0  0
  4 10  1  0  0  0  0
  4  3  1  0  0  0  0
  5  4  1  0  0  0  0
  5  6  1  0  0  0  0
  6 13  1  0  0  0  0
  6  7  1  0  0  0  0
  7  2  1  0  0  0  0
  7 15  1  1  0  0  0
 11  4  1  0  0  0  0
 12  5  1  0  0  0  0
 14  6  1  0  0  0  0
 16 18  1  0  0  0  0
 16  7  1  0  0  0  0
 17 16  1  0  0  0  0
 19 24  1  0  0  0  0
 20 21  1  0  0  0  0
 20 19  2  0  0  0  0
 21 22  2  0  0  0  0
 22 23  1  0  0  0  0
 23 27  1  0  0  0  0
 24 23  2  0  0  0  0
 25 19  1  0  0  0  0
 26 20  1  0  0  0  0
 27 28  2  0  0  0  0
 27 29  1  0  0  0  0
 29 31  1  0  0  0  0
 30 29  1  0  0  0  0
 31 32  1  0  0  0  0
 31 34  1  0  0  0  0
 33 31  1  0  0  0  0
 35 34  1  0  0  0  0
M  END
>  <minimizedAffinity>
-4.86648798

$$$$

 OpenBabel03262521023D

 35 36  0  0  1  0  0  0  0  0999 V2000
   38.2820   25.2550   36.6280 S   0  0  0  0  0  0  0  0  0  0  0  0
   38.4430   22.6510   35.8600 N   0  0  0  0  0  0  0  0  0  0  0  0
   37.8060   23.4940   36.8390 C   0  0  1  0  0  0  0  0  0  0  0  0
   38.2270   23.1110   38.2290 C   0  0  0  0  0  0  0  0  0  0  0  0
   39.6760   23.2560   38.2920 N   0  0  0  0  0  0  0  0  0  0  0  0
   40.1870   22.1640   37.4470 C   0  0  0  0  0  0  0  0  0  0  0  0
   39.8610   22.5700   36.0220 C   0  0  2  0  0  0  0  0  0  0  0  0
   38.0320   21.7190   35.9520 H   0  0  0  0  0  0  0  0  0  0  0  0
   36.7090   23.4000   36.7180 H   0  0  0  0  0  0  0  0  0  0  0  0
   37.9510   22.0900   38.5190 H   0  0  0  0  0  0  0  0  0  0  0  0
   37.7630   23.8420   38.9510 H   0  0  0  0  0  0  0  0  0  0  0  0
   39.9900   24.1740   37.9520 H   0  0  0  0  0  0  0  0  0  0  0  0
   39.6210   21.2510   37.7130 H   0  0  0  0  0  0  0  0  0  0  0  0
   41.2740   22.0710   37.5410 H   0  0  0  0  0  0  0  0  0  0  0  0
   40.2240   21.7700   35.3350 H   0  0  0  0  0  0  0  0  0  0  0  0
   40.5350   23.8070   35.7020 N   0  0  0  0  0  0  0  0  0  0  0  0
   41.2880   24.0500   36.3690 H   0  0  0  0  0  0  0  0  0  0  0  0
   40.9120   23.7650   34.7320 H   0  0  0  0  0  0  0  0  0  0  0  0
   36.7070   27.4280   33.5870 C   0  0  0  0  0  0  0  0  0  0  0  0
   37.1210   27.0900   34.8580 C   0  0  0  0  0  0  0  0  0  0  0  0
   37.6940   25.8500   35.0560 C   0  0  0  0  0  0  0  0  0  0  0  0
   37.8210   25.0150   33.9640 N   0  0  0  0  0  0  0  0  0  0  0  0
   37.4030   25.4010   32.7680 C   0  0  0  0  0  0  0  0  0  0  0  0
   36.8460   26.5940   32.5560 N   0  0  0  0  0  0  0  0  0  0  0  0
   36.2560   28.3970   33.4140 H   0  0  0  0  0  0  0  0  0  0  0  0
   37.0200   27.7440   35.7080 H   0  0  0  0  0  0  0  0  0  0  0  0
   37.5570   24.4830   31.6360 C   0  0  0  0  0  0  0  0  0  0  0  0
   38.5750   24.4290   30.9190 O   0  0  0  0  0  0  0  0  0  0  0  0
   36.4680   23.5930   31.3370 N   0  0  0  0  0  0  0  0  0  0  0  0
   35.7190   23.9250   30.6600 H   0  0  0  0  0  0  0  0  0  0  0  0
   36.3260   22.0100   32.0290 S   0  0  0  0  0  0  0  0  0  0  0  0
   34.9210   21.6930   32.3910 O   0  0  0  0  0  1  0  0  0  0  0  0
   36.7820   21.0020   31.0130 O   0  0  0  0  0  1  0  0  0  0  0  0
   37.2780   21.9350   33.4120 O   0  0  0  0  0  0  0  0  0  0  0  0
   38.0380   22.5320   33.3020 H   0  0  0  0  0  0  0  0  0  0  0  0
  1  3  1  0  0  0  0
  2  8  1  0  0  0  0
  2  7  1  0  0  0  0
  2  3  1  0  0  0  0
  3  9  1  6  0  0  0
  3  4  1  0  0  0  0
  4  5  1  0  0  0  0
  4 10  1  0  0  0  0
  4 11  1  0  0  0  0
  6 14  1  0  0  0  0
  6 13  1  0  0  0  0
  6  5  1  0  0  0  0
  7 15  1  6  0  0  0
  7  6  1  0  0  0  0
 12  5  1  0  0  0  0
 16  7  1  0  0  0  0
 16 17  1  0  0  0  0
 18 16  1  0  0  0  0
 19 20  1  0  0  0  0
 20 21  2  0  0  0  0
 20 26  1  0  0  0  0
 21  1  1  0  0  0  0
 22 21  1  0  0  0  0
 23 22  2  0  0  0  0
 24 23  1  0  0  0  0
 24 19  2  0  0  0  0
 25 19  1  0  0  0  0
 27 23  1  0  0  0  0
 28 27  2  0  0  0  0
 29 27  1  0  0  0  0
 29 31  1  0  0  0  0
 30 29  1  0  0  0  0
 31 32  1  0  0  0  0
 31 34  1  0  0  0  0
 33 31  1  0  0  0  0
 35 34  1  0  0  0  0
M  END
>  <minimizedAffinity>
-4.76427126

$$$$

 OpenBabel03262521023D

 35 36  0  0  1  0  0  0  0  0999 V2000
   38.1950   24.7880   35.4900 S   0  0  0  0  0  0  0  0  0  0  0  0
   39.5710   23.2700   37.2790 N   0  0  0  0  0  0  0  0  0  0  0  0
   38.9230   23.1800   35.9960 C   0  0  1  0  0  0  0  0  0  0  0  0
   37.7830   22.2020   36.0420 C   0  0  0  0  0  0  0  0  0  0  0  0
   36.8510   22.6780   37.0560 N   0  0  0  0  0  0  0  0  0  0  0  0
   37.5600   22.4650   38.3290 C   0  0  0  0  0  0  0  0  0  0  0  0
   38.6630   23.5070   38.3560 C   0  0  2  0  0  0  0  0  0  0  0  0
   40.0630   22.3850   37.4310 H   0  0  0  0  0  0  0  0  0  0  0  0
   39.6770   22.8730   35.2460 H   0  0  0  0  0  0  0  0  0  0  0  0
   38.0810   21.1720   36.2760 H   0  0  0  0  0  0  0  0  0  0  0  0
   37.2640   22.2200   35.0410 H   0  0  0  0  0  0  0  0  0  0  0  0
   36.6050   23.6670   36.9240 H   0  0  0  0  0  0  0  0  0  0  0  0
   38.0050   21.4520   38.2910 H   0  0  0  0  0  0  0  0  0  0  0  0
   36.8960   22.6400   39.1810 H   0  0  0  0  0  0  0  0  0  0  0  0
   39.2380   23.3870   39.3040 H   0  0  0  0  0  0  0  0  0  0  0  0
   38.0830   24.8300   38.3220 N   0  0  0  0  0  0  0  0  0  0  0  0
   37.0710   24.8410   38.5380 H   0  0  0  0  0  0  0  0  0  0  0  0
   38.5980   25.4590   38.9720 H   0  0  0  0  0  0  0  0  0  0  0  0
   38.2420   24.0100   31.5100 C   0  0  0  0  0  0  0  0  0  0  0  0
   38.4980   23.8780   32.8580 C   0  0  0  0  0  0  0  0  0  0  0  0
   37.9640   24.8110   33.7250 C   0  0  0  0  0  0  0  0  0  0  0  0
   37.2000   25.8270   33.1890 N   0  0  0  0  0  0  0  0  0  0  0  0
   36.9910   25.8970   31.8830 C   0  0  0  0  0  0  0  0  0  0  0  0
   37.4990   25.0070   31.0290 N   0  0  0  0  0  0  0  0  0  0  0  0
   38.6530   23.2870   30.8170 H   0  0  0  0  0  0  0  0  0  0  0  0
   39.0950   23.0830   33.2730 H   0  0  0  0  0  0  0  0  0  0  0  0
   36.1740   26.9940   31.3570 C   0  0  0  0  0  0  0  0  0  0  0  0
   35.3250   27.6130   32.0290 O   0  0  0  0  0  0  0  0  0  0  0  0
   36.3630   27.3770   29.9840 N   0  0  0  0  0  0  0  0  0  0  0  0
   35.7730   26.8960   29.2420 H   0  0  0  0  0  0  0  0  0  0  0  0
   37.5060   28.5830   29.4900 S   0  0  0  0  0  0  0  0  0  0  0  0
   36.9520   29.9540   29.6310 O   0  0  0  0  0  1  0  0  0  0  0  0
   38.7190   28.4800   30.3680 O   0  0  0  0  0  1  0  0  0  0  0  0
   37.9110   28.3180   27.8800 O   0  0  0  0  0  0  0  0  0  0  0  0
   37.8470   27.3660   27.6930 H   0  0  0  0  0  0  0  0  0  0  0  0
  1  3  1  0  0  0  0
  2  8  1  0  0  0  0
  2  7  1  0  0  0  0
  3  9  1  6  0  0  0
  3  4  1  0  0  0  0
  3  2  1  0  0  0  0
  4 10  1  0  0  0  0
  4  5  1  0  0  0  0
  5  6  1  0  0  0  0
  6  7  1  0  0  0  0
  6 14  1  0  0  0  0
  7 15  1  1  0  0  0
 11  4  1  0  0  0  0
 12  5  1  0  0  0  0
 13  6  1  0  0  0  0
 16  7  1  0  0  0  0
 16 17  1  0  0  0  0
 16 18  1  0  0  0  0
 19 20  1  0  0  0  0
 20 26  1  0  0  0  0
 20 21  2  0  0  0  0
 21  1  1  0  0  0  0
 22 21  1  0  0  0  0
 23 22  2  0  0  0  0
 24 19  2  0  0  0  0
 24 23  1  0  0  0  0
 25 19  1  0  0  0  0
 27 23  1  0  0  0  0
 27 28  2  0  0  0  0
 29 27  1  0  0  0  0
 30 29  1  0  0  0  0
 31 32  1  0  0  0  0
 31 29  1  0  0  0  0
 31 33  1  0  0  0  0
 34 31  1  0  0  0  0
 35 34  1  0  0  0  0
M  END
>  <minimizedAffinity>
-4.63842726

$$$$

 OpenBabel03262521023D

 35 36  0  0  1  0  0  0  0  0999 V2000
   38.2910   24.6570   34.0550 S   0  0  0  0  0  0  0  0  0  0  0  0
   39.8030   22.3990   34.1530 N   0  0  0  0  0  0  0  0  0  0  0  0
   38.4310   22.8320   34.1990 C   0  0  1  0  0  0  0  0  0  0  0  0
   37.7980   22.4670   35.5120 C   0  0  0  0  0  0  0  0  0  0  0  0
   38.5780   23.1180   36.5570 N   0  0  0  0  0  0  0  0  0  0  0  0
   39.8590   22.3930   36.5600 C   0  0  0  0  0  0  0  0  0  0  0  0
   40.5660   22.8190   35.2860 C   0  0  2  0  0  0  0  0  0  0  0  0
   39.7950   21.3770   34.1030 H   0  0  0  0  0  0  0  0  0  0  0  0
   37.8890   22.3610   33.3550 H   0  0  0  0  0  0  0  0  0  0  0  0
   37.7570   21.3880   35.7090 H   0  0  0  0  0  0  0  0  0  0  0  0
   36.7530   22.8890   35.5290 H   0  0  0  0  0  0  0  0  0  0  0  0
   38.7130   24.1210   36.3740 H   0  0  0  0  0  0  0  0  0  0  0  0
   39.6250   21.3130   36.5140 H   0  0  0  0  0  0  0  0  0  0  0  0
   40.4760   22.6900   37.4150 H   0  0  0  0  0  0  0  0  0  0  0  0
   41.5470   22.2920   35.2350 H   0  0  0  0  0  0  0  0  0  0  0  0
   40.7980   24.2450   35.3110 N   0  0  0  0  0  0  0  0  0  0  0  0
   40.6860   24.6630   36.2510 H   0  0  0  0  0  0  0  0  0  0  0  0
   41.7450   24.4560   34.9320 H   0  0  0  0  0  0  0  0  0  0  0  0
   35.5740   24.6210   31.0440 C   0  0  0  0  0  0  0  0  0  0  0  0
   36.3640   24.1710   32.0810 C   0  0  0  0  0  0  0  0  0  0  0  0
   37.2080   25.0690   32.7030 C   0  0  0  0  0  0  0  0  0  0  0  0
   37.2120   26.3730   32.2500 N   0  0  0  0  0  0  0  0  0  0  0  0
   36.4280   26.7410   31.2480 C   0  0  0  0  0  0  0  0  0  0  0  0
   35.6060   25.8890   30.6320 N   0  0  0  0  0  0  0  0  0  0  0  0
   34.9070   23.9300   30.5450 H   0  0  0  0  0  0  0  0  0  0  0  0
   36.3580   23.1530   32.4320 H   0  0  0  0  0  0  0  0  0  0  0  0
   36.4640   28.1350   30.7980 C   0  0  0  0  0  0  0  0  0  0  0  0
   36.2960   29.1130   31.5530 O   0  0  0  0  0  0  0  0  0  0  0  0
   36.7090   28.3870   29.4040 N   0  0  0  0  0  0  0  0  0  0  0  0
   35.8730   28.4460   28.7500 H   0  0  0  0  0  0  0  0  0  0  0  0
   38.2990   28.5990   28.7480 S   0  0  0  0  0  0  0  0  0  0  0  0
   38.3500   29.7300   27.7860 O   0  0  0  0  0  1  0  0  0  0  0  0
   39.2440   28.9060   29.8750 O   0  0  0  0  0  1  0  0  0  0  0  0
   38.7530   27.1870   27.9590 O   0  0  0  0  0  0  0  0  0  0  0  0
   38.3240   26.4310   28.3970 H   0  0  0  0  0  0  0  0  0  0  0  0
  1  3  1  0  0  0  0
  2  3  1  0  0  0  0
  2  7  1  0  0  0  0
  3  9  1  6  0  0  0
  3  4  1  0  0  0  0
  4 11  1  0  0  0  0
  4 10  1  0  0  0  0
  4  5  1  0  0  0  0
  5  6  1  0  0  0  0
  6 14  1  0  0  0  0
  7 15  1  6  0  0  0
  7 16  1  0  0  0  0
  7  6  1  0  0  0  0
  8  2  1  0  0  0  0
 12  5  1  0  0  0  0
 13  6  1  0  0  0  0
 16 17  1  0  0  0  0
 18 16  1  0  0  0  0
 19 20  1  0  0  0  0
 20 26  1  0  0  0  0
 20 21  2  0  0  0  0
 21  1  1  0  0  0  0
 22 21  1  0  0  0  0
 23 22  2  0  0  0  0
 24 19  2  0  0  0  0
 24 23  1  0  0  0  0
 25 19  1  0  0  0  0
 27 23  1  0  0  0  0
 27 28  2  0  0  0  0
 29 27  1  0  0  0  0
 30 29  1  0  0  0  0
 31 29  1  0  0  0  0
 31 33  1  0  0  0  0
 32 31  1  0  0  0  0
 34 35  1  0  0  0  0
 34 31  1  0  0  0  0
M  END
>  <minimizedAffinity>
-4.61501789

$$$$
