
 OpenBabel03262521013D

 35 36  0  0  1  0  0  0  0  0999 V2000
   38.5720   30.8700   46.4900 S   0  0  0  0  0  0  0  0  0  0  0  0
   39.6630   33.1150   45.4120 N   0  0  0  0  0  0  0  0  0  0  0  0
   38.4010   32.4360   45.5470 C   0  0  1  0  0  0  0  0  0  0  0  0
   37.8520   32.0550   44.2020 C   0  0  0  0  0  0  0  0  0  0  0  0
   38.8370   31.1870   43.5680 N   0  0  0  0  0  0  0  0  0  0  0  0
   39.9640   32.0830   43.2580 C   0  0  0  0  0  0  0  0  0  0  0  0
   40.6000   32.4090   44.5970 C   0  0  2  0  0  0  0  0  0  0  0  0
   39.4690   34.0320   45.0000 H   0  0  0  0  0  0  0  0  0  0  0  0
   37.7010   33.1050   46.0850 H   0  0  0  0  0  0  0  0  0  0  0  0
   37.6410   32.9060   43.5430 H   0  0  0  0  0  0  0  0  0  0  0  0
   36.9050   31.4640   44.3620 H   0  0  0  0  0  0  0  0  0  0  0  0
   39.1280   30.4160   44.1830 H   0  0  0  0  0  0  0  0  0  0  0  0
   39.5390   33.0030   42.8130 H   0  0  0  0  0  0  0  0  0  0  0  0
   40.7070   31.5760   42.6350 H   0  0  0  0  0  0  0  0  0  0  0  0
   41.4620   33.0940   44.4200 H   0  0  0  0  0  0  0  0  0  0  0  0
   41.0820   31.1960   45.2150 N   0  0  0  0  0  0  0  0  0  0  0  0
   41.1430   30.3960   44.5600 H   0  0  0  0  0  0  0  0  0  0  0  0
   42.0070   31.3690   45.6610 H   0  0  0  0  0  0  0  0  0  0  0  0
   36.9280   31.7370   50.0950 C   0  0  0  0  0  0  0  0  0  0  0  0
   37.7910   31.7830   49.0210 C   0  0  0  0  0  0  0  0  0  0  0  0
   37.5590   30.9380   47.9540 C   0  0  0  0  0  0  0  0  0  0  0  0
   36.4710   30.0930   48.0240 N   0  0  0  0  0  0  0  0  0  0  0  0
   35.6800   30.0980   49.0850 C   0  0  0  0  0  0  0  0  0  0  0  0
   35.8870   30.9050   50.1270 N   0  0  0  0  0  0  0  0  0  0  0  0
   37.0950   32.3930   50.9400 H   0  0  0  0  0  0  0  0  0  0  0  0
   38.6400   32.4450   48.9700 H   0  0  0  0  0  0  0  0  0  0  0  0
   34.5360   29.1830   49.1180 C   0  0  0  0  0  0  0  0  0  0  0  0
   34.4870   28.1570   49.8250 O   0  0  0  0  0  0  0  0  0  0  0  0
   33.4050   29.4880   48.2850 N   0  0  0  0  0  0  0  0  0  0  0  0
   32.9000   30.4090   48.4400 H   0  0  0  0  0  0  0  0  0  0  0  0
   32.8340   28.4210   47.0430 S   0  0  0  0  0  0  0  0  0  0  0  0
   31.3870   28.1190   47.2020 O   0  0  0  0  0  1  0  0  0  0  0  0
   33.0240   29.0910   45.7120 O   0  0  0  0  0  1  0  0  0  0  0  0
   33.7060   26.9860   47.1190 O   0  0  0  0  0  0  0  0  0  0  0  0
   34.5990   27.1790   47.4510 H   0  0  0  0  0  0  0  0  0  0  0  0
  1 21  1  0  0  0  0
  2  3  1  0  0  0  0
  3  9  1  1  0  0  0
  3  1  1  0  0  0  0
  4 11  1  0  0  0  0
  4  3  1  0  0  0  0
  5 12  1  0  0  0  0
  5  4  1  0  0  0  0
  6  5  1  0  0  0  0
  6  7  1  0  0  0  0
  7 15  1  6  0  0  0
  7 16  1  0  0  0  0
  7  2  1  0  0  0  0
  8  2  1  0  0  0  0
 10  4  1  0  0  0  0
 13  6  1  0  0  0  0
 14  6  1  0  0  0  0
 16 18  1  0  0  0  0
 17 16  1  0  0  0  0
 19 24  1  0  0  0  0
 19 25  1  0  0  0  0
 20 19  2  0  0  0  0
 21 22  2  0  0  0  0
 21 20  1  0  0  0  0
 22 23  1  0  0  0  0
 23 27  1  0  0  0  0
 23 24  2  0  0  0  0
 26 20  1  0  0  0  0
 27 28  2  0  0  0  0
 29 30  1  0  0  0  0
 29 27  1  0  0  0  0
 31 34  1  0  0  0  0
 31 32  1  0  0  0  0
 31 29  1  0  0  0  0
 33 31  1  0  0  0  0
 34 35  1  0  0  0  0
M  END
>  <minimizedAffinity>
-5.4568572

>  <minimizedRMSD>
2.38787055

$$$$
