
 OpenBabel03262521013D

 35 36  0  0  1  0  0  0  0  0999 V2000
   38.7220   30.7870   46.6960 S   0  0  0  0  0  0  0  0  0  0  0  0
   39.7860   33.1690   45.9280 N   0  0  0  0  0  0  0  0  0  0  0  0
   38.5200   32.4920   46.0440 C   0  0  1  0  0  0  0  0  0  0  0  0
   37.8650   32.3500   44.7000 C   0  0  0  0  0  0  0  0  0  0  0  0
   38.7790   31.5900   43.8570 N   0  0  0  0  0  0  0  0  0  0  0  0
   39.9010   32.5120   43.6150 C   0  0  0  0  0  0  0  0  0  0  0  0
   40.6420   32.6000   44.9360 C   0  0  2  0  0  0  0  0  0  0  0  0
   39.5840   34.1440   45.6920 H   0  0  0  0  0  0  0  0  0  0  0  0
   37.8790   33.0690   46.7380 H   0  0  0  0  0  0  0  0  0  0  0  0
   37.6260   33.3030   44.2120 H   0  0  0  0  0  0  0  0  0  0  0  0
   36.9180   31.7520   44.8320 H   0  0  0  0  0  0  0  0  0  0  0  0
   39.0950   30.7220   44.3090 H   0  0  0  0  0  0  0  0  0  0  0  0
   39.4670   33.4980   43.3640 H   0  0  0  0  0  0  0  0  0  0  0  0
   40.5840   32.1090   42.8600 H   0  0  0  0  0  0  0  0  0  0  0  0
   41.5060   33.2940   44.8110 H   0  0  0  0  0  0  0  0  0  0  0  0
   41.1390   31.2930   45.3040 N   0  0  0  0  0  0  0  0  0  0  0  0
   41.1310   30.6150   44.5220 H   0  0  0  0  0  0  0  0  0  0  0  0
   42.0980   31.3780   45.7000 H   0  0  0  0  0  0  0  0  0  0  0  0
   37.3890   30.7960   50.5270 C   0  0  0  0  0  0  0  0  0  0  0  0
   38.2200   30.9940   49.4440 C   0  0  0  0  0  0  0  0  0  0  0  0
   37.7790   30.6040   48.1960 C   0  0  0  0  0  0  0  0  0  0  0  0
   36.5250   30.0370   48.1020 N   0  0  0  0  0  0  0  0  0  0  0  0
   35.7750   29.8750   49.1810 C   0  0  0  0  0  0  0  0  0  0  0  0
   36.1830   30.2440   50.3970 N   0  0  0  0  0  0  0  0  0  0  0  0
   37.7200   31.0960   51.5130 H   0  0  0  0  0  0  0  0  0  0  0  0
   39.1990   31.4370   49.5210 H   0  0  0  0  0  0  0  0  0  0  0  0
   34.4490   29.2670   49.0360 C   0  0  0  0  0  0  0  0  0  0  0  0
   34.0730   28.2610   49.6690 O   0  0  0  0  0  0  0  0  0  0  0  0
   33.5300   29.8690   48.1090 N   0  0  0  0  0  0  0  0  0  0  0  0
   33.0580   30.7780   48.3870 H   0  0  0  0  0  0  0  0  0  0  0  0
   33.1610   29.1750   46.5630 S   0  0  0  0  0  0  0  0  0  0  0  0
   31.7100   29.2650   46.2530 O   0  0  0  0  0  1  0  0  0  0  0  0
   33.9090   29.9360   45.5060 O   0  0  0  0  0  1  0  0  0  0  0  0
   33.6190   27.5580   46.5710 O   0  0  0  0  0  0  0  0  0  0  0  0
   34.3800   27.4510   47.1670 H   0  0  0  0  0  0  0  0  0  0  0  0
  1 21  1  0  0  0  0
  2  3  1  0  0  0  0
  3  1  1  0  0  0  0
  3  9  1  1  0  0  0
  4 11  1  0  0  0  0
  4  3  1  0  0  0  0
  5 12  1  0  0  0  0
  5  4  1  0  0  0  0
  6  5  1  0  0  0  0
  6  7  1  0  0  0  0
  7 15  1  6  0  0  0
  7 16  1  0  0  0  0
  7  2  1  0  0  0  0
  8  2  1  0  0  0  0
 10  4  1  0  0  0  0
 13  6  1  0  0  0  0
 14  6  1  0  0  0  0
 16 18  1  0  0  0  0
 17 16  1  0  0  0  0
 19 25  1  0  0  0  0
 20 26  1  0  0  0  0
 20 19  2  0  0  0  0
 21 20  1  0  0  0  0
 22 21  2  0  0  0  0
 22 23  1  0  0  0  0
 23 24  2  0  0  0  0
 24 19  1  0  0  0  0
 27 23  1  0  0  0  0
 27 28  2  0  0  0  0
 29 30  1  0  0  0  0
 29 27  1  0  0  0  0
 31 34  1  0  0  0  0
 31 29  1  0  0  0  0
 32 31  1  0  0  0  0
 33 31  1  0  0  0  0
 34 35  1  0  0  0  0
M  END
>  <minimizedAffinity>
-5.59537458

>  <minimizedRMSD>
2.5038619

$$$$
