
 OpenBabel03272510313D

 30 31  0  0  0  0  0  0  0  0999 V2000
   37.3710   31.0780   49.5860 C   0  0  0  0  0  0  0  0  0  0  0  0
   38.3630   32.0410   49.5840 C   0  0  0  0  0  0  0  0  0  0  0  0
   38.7440   32.4790   48.3180 C   0  0  0  0  0  0  0  0  0  0  0  0
   38.1470   31.9610   47.1980 N   0  0  0  0  0  0  0  0  0  0  0  0
   37.1810   31.0210   47.2560 C   0  0  0  0  0  0  0  0  0  0  0  0
   36.7910   30.5750   48.4800 N   0  0  0  0  0  0  0  0  0  0  0  0
   38.8250   32.4420   50.4560 H   0  0  0  0  0  0  0  0  0  0  0  0
   39.5020   33.2240   48.1580 H   0  0  0  0  0  0  0  0  0  0  0  0
   36.8880   30.5820   50.9210 C   0  0  0  0  0  0  0  0  0  0  0  0
   36.0260   29.4570   51.0690 C   0  0  0  0  0  0  0  0  0  0  0  0
   37.5120   29.2290   51.3090 C   0  0  0  0  0  0  0  0  0  0  0  0
   36.9600   31.3730   51.6980 H   0  0  0  0  0  0  0  0  0  0  0  0
   35.6730   28.9020   50.1520 H   0  0  0  0  0  0  0  0  0  0  0  0
   35.3190   29.3660   51.8920 H   0  0  0  0  0  0  0  0  0  0  0  0
   37.7890   29.1510   52.3670 H   0  0  0  0  0  0  0  0  0  0  0  0
   38.1180   28.7030   50.5640 H   0  0  0  0  0  0  0  0  0  0  0  0
   36.5510   30.4940   46.0600 C   0  0  0  0  0  0  0  0  0  0  0  0
   36.4360   29.3970   46.1240 H   0  0  0  0  0  0  0  0  0  0  0  0
   35.5510   30.9950   45.9610 H   0  0  0  0  0  0  0  0  0  0  0  0
   36.7710   31.2640   43.7030 C   0  0  0  0  0  0  0  0  0  0  0  0
   35.5340   31.3680   43.4890 O   0  0  0  0  0  0  0  0  0  0  0  0
   37.3760   30.8620   44.9210 N   0  0  0  0  0  0  0  0  0  0  0  0
   38.4130   30.8160   45.0370 H   0  0  0  0  0  0  0  0  0  0  0  0
   37.6930   31.5710   42.6390 N   0  0  0  0  0  0  0  0  0  0  0  0
   37.5370   31.2160   41.6490 H   0  0  0  0  0  0  0  0  0  0  0  0
   39.0820   32.5510   43.0170 S   0  0  0  0  0  0  0  0  0  0  0  0
   38.9470   33.1370   44.3860 O   0  0  0  0  0  1  0  0  0  0  0  0
   40.2790   31.6460   42.9550 O   0  0  0  0  0  1  0  0  0  0  0  0
   39.2070   33.7710   41.8890 O   0  0  0  0  0  0  0  0  0  0  0  0
   40.0350   34.2670   42.0200 H   0  0  0  0  0  0  0  0  0  0  0  0
  1  9  1  0  0  0  0
  2  1  1  0  0  0  0
  2  7  1  0  0  0  0
  3  2  2  0  0  0  0
  4  5  2  0  0  0  0
  4  3  1  0  0  0  0
  5  6  1  0  0  0  0
  6  1  2  0  0  0  0
  8  3  1  0  0  0  0
  9 10  1  0  0  0  0
  9 11  1  0  0  0  0
  9 12  1  0  0  0  0
 10 11  1  0  0  0  0
 10 14  1  0  0  0  0
 11 15  1  0  0  0  0
 13 10  1  0  0  0  0
 16 11  1  0  0  0  0
 17 18  1  0  0  0  0
 17  5  1  0  0  0  0
 19 17  1  0  0  0  0
 20 22  1  0  0  0  0
 21 20  2  0  0  0  0
 22 23  1  0  0  0  0
 22 17  1  0  0  0  0
 24 26  1  0  0  0  0
 24 20  1  0  0  0  0
 25 24  1  0  0  0  0
 26 27  1  0  0  0  0
 28 26  1  0  0  0  0
 29 30  1  0  0  0  0
 29 26  1  0  0  0  0
M  END
>  <minimizedAffinity>
-4.93504715

>  <minimizedRMSD>
3.64673662

$$$$
