
 OpenBabel03272500593D

 33 34  0  0  0  0  0  0  0  0999 V2000
   38.1580   31.8350   47.4310 C   0  0  0  0  0  0  0  0  0  0  0  0
   38.7810   32.6370   48.3450 C   0  0  0  0  0  0  0  0  0  0  0  0
   38.3720   32.6980   49.6860 C   0  0  0  0  0  0  0  0  0  0  0  0
   37.2510   31.8680   50.0800 C   0  0  0  0  0  0  0  0  0  0  0  0
   36.6780   31.0940   49.1250 C   0  0  0  0  0  0  0  0  0  0  0  0
   37.0750   31.0450   47.8400 C   0  0  0  0  0  0  0  0  0  0  0  0
   39.6350   33.2770   48.0720 H   0  0  0  0  0  0  0  0  0  0  0  0
   38.9100   33.3550   50.3530 H   0  0  0  0  0  0  0  0  0  0  0  0
   37.0620   32.0220   51.1140 H   0  0  0  0  0  0  0  0  0  0  0  0
   35.9000   30.5550   49.6420 H   0  0  0  0  0  0  0  0  0  0  0  0
   39.9240   31.1840   45.8800 C   0  0  0  0  0  0  0  0  0  0  0  0
   38.7030   31.8640   46.0970 C   0  0  0  0  0  0  0  0  0  0  0  0
   38.1800   32.4720   44.9820 C   0  0  0  0  0  0  0  0  0  0  0  0
   38.8140   32.3980   43.7970 N   0  0  0  0  0  0  0  0  0  0  0  0
   39.9470   31.7620   43.6150 C   0  0  0  0  0  0  0  0  0  0  0  0
   40.5000   31.1560   44.6540 N   0  0  0  0  0  0  0  0  0  0  0  0
   40.4290   30.6640   46.7000 H   0  0  0  0  0  0  0  0  0  0  0  0
   37.2380   32.9960   45.1470 H   0  0  0  0  0  0  0  0  0  0  0  0
   40.3490   31.7830   42.6070 H   0  0  0  0  0  0  0  0  0  0  0  0
   35.0120   30.1290   47.1800 C   0  0  0  0  0  0  0  0  0  0  0  0
   34.5250   30.7100   48.2310 O   0  0  0  0  0  0  0  0  0  0  0  0
   36.4310   30.2570   46.9210 N   0  0  0  0  0  0  0  0  0  0  0  0
   36.8880   29.7980   46.1300 H   0  0  0  0  0  0  0  0  0  0  0  0
   34.1740   29.4200   46.3570 O   0  0  0  0  0  0  0  0  0  0  0  0
   32.7880   29.5580   46.3350 C   0  0  0  0  0  0  0  0  0  0  0  0
   32.1980   30.4620   45.5840 O   0  0  0  0  0  0  0  0  0  0  0  0
   31.8090   28.8040   47.0400 N   0  0  0  0  0  0  0  0  0  0  0  0
   30.8200   28.9140   46.6670 H   0  0  0  0  0  0  0  0  0  0  0  0
   32.2650   27.8180   48.3780 S   0  0  0  0  0  0  0  0  0  0  0  0
   30.9720   27.2480   48.9390 O   0  0  0  0  0  0  0  0  0  0  0  0
   33.1600   26.7010   47.9500 O   0  0  0  0  0  0  0  0  0  0  0  0
   32.9400   28.7080   49.6240 O   0  0  0  0  0  0  0  0  0  0  0  0
   33.3170   29.5750   49.3380 H   0  0  0  0  0  0  0  0  0  0  0  0
  1  6  2  0  0  0  0
  1  2  1  0  0  0  0
  2  3  2  0  0  0  0
  3  4  1  0  0  0  0
  3  8  1  0  0  0  0
  4  9  1  0  0  0  0
  5 10  1  0  0  0  0
  5  4  2  0  0  0  0
  6  5  1  0  0  0  0
  7  2  1  0  0  0  0
 11 12  1  0  0  0  0
 11 17  1  0  0  0  0
 12  1  1  0  0  0  0
 13 18  1  0  0  0  0
 13 12  2  0  0  0  0
 14 13  1  0  0  0  0
 15 14  2  0  0  0  0
 15 16  1  0  0  0  0
 16 11  2  0  0  0  0
 19 15  1  0  0  0  0
 20 21  2  0  0  0  0
 22 20  1  0  0  0  0
 22  6  1  0  0  0  0
 23 22  1  0  0  0  0
 24 20  1  0  0  0  0
 25 24  1  0  0  0  0
 25 27  1  0  0  0  0
 26 25  2  0  0  0  0
 27 29  1  0  0  0  0
 28 27  1  0  0  0  0
 29 30  1  0  0  0  0
 29 32  1  0  0  0  0
 31 29  1  0  0  0  0
 33 32  1  0  0  0  0
M  END
>  <minimizedAffinity>
-6.10419226

>  <minimizedRMSD>
1.30731201

$$$$
