
 OpenBabel03272503063D

 30 31  0  0  0  0  0  0  0  0999 V2000
   38.3700   30.4850   47.2520 F   0  0  0  0  0  0  0  0  0  0  0  0
   38.7240   31.6990   47.7390 C   0  0  0  0  0  0  0  0  0  0  0  0
   38.3280   32.0910   48.9920 C   0  0  0  0  0  0  0  0  0  0  0  0
   38.7220   33.3270   49.4150 C   0  0  0  0  0  0  0  0  0  0  0  0
   39.4860   34.1700   48.6410 C   0  0  0  0  0  0  0  0  0  0  0  0
   39.8760   33.7620   47.3850 C   0  0  0  0  0  0  0  0  0  0  0  0
   39.4950   32.5160   46.9230 C   0  0  0  0  0  0  0  0  0  0  0  0
   38.4130   33.6400   50.4010 H   0  0  0  0  0  0  0  0  0  0  0  0
   39.8050   35.1520   48.9650 H   0  0  0  0  0  0  0  0  0  0  0  0
   40.4820   34.3400   46.6780 H   0  0  0  0  0  0  0  0  0  0  0  0
   37.1770   29.6260   51.6210 C   0  0  0  0  0  0  0  0  0  0  0  0
   37.9850   30.5150   50.9040 C   0  0  0  0  0  0  0  0  0  0  0  0
   37.5200   31.1580   49.7680 C   0  0  0  0  0  0  0  0  0  0  0  0
   36.2300   30.8670   49.4010 N   0  0  0  0  0  0  0  0  0  0  0  0
   35.4670   30.0120   50.0990 C   0  0  0  0  0  0  0  0  0  0  0  0
   35.9320   29.3980   51.1940 N   0  0  0  0  0  0  0  0  0  0  0  0
   37.6060   29.1740   52.4800 H   0  0  0  0  0  0  0  0  0  0  0  0
   39.0070   30.7250   51.2240 H   0  0  0  0  0  0  0  0  0  0  0  0
   34.4410   29.7920   49.7890 H   0  0  0  0  0  0  0  0  0  0  0  0
   38.8320   32.1280   44.6530 C   0  0  0  0  0  0  0  0  0  0  0  0
   37.7170   32.5410   45.0980 O   0  0  0  0  0  0  0  0  0  0  0  0
   39.8770   32.0470   45.6210 N   0  0  0  0  0  0  0  0  0  0  0  0
   40.7850   31.6650   45.2880 H   0  0  0  0  0  0  0  0  0  0  0  0
   38.9990   31.7810   43.2820 N   0  0  0  0  0  0  0  0  0  0  0  0
   39.5080   30.8950   43.0420 H   0  0  0  0  0  0  0  0  0  0  0  0
   38.3990   32.7560   41.9880 S   0  0  0  0  0  0  0  0  0  0  0  0
   38.4250   31.9780   40.7290 O   0  0  0  0  0  1  0  0  0  0  0  0
   39.2660   33.9840   41.8080 O   0  0  0  0  0  1  0  0  0  0  0  0
   36.8600   33.3120   42.3890 O   0  0  0  0  0  0  0  0  0  0  0  0
   36.2840   33.4140   41.5870 H   0  0  0  0  0  0  0  0  0  0  0  0
  1  2  1  0  0  0  0
  2  3  1  0  0  0  0
  3  4  2  0  0  0  0
  3 13  1  0  0  0  0
  4  8  1  0  0  0  0
  5  9  1  0  0  0  0
  5  4  1  0  0  0  0
  6  5  2  0  0  0  0
  7  6  1  0  0  0  0
  7  2  2  0  0  0  0
 10  6  1  0  0  0  0
 11 17  1  0  0  0  0
 12 18  1  0  0  0  0
 12 11  2  0  0  0  0
 13 12  1  0  0  0  0
 14 13  2  0  0  0  0
 14 15  1  0  0  0  0
 15 16  2  0  0  0  0
 16 11  1  0  0  0  0
 19 15  1  0  0  0  0
 20 21  2  0  0  0  0
 20 22  1  0  0  0  0
 22  7  1  0  0  0  0
 23 22  1  0  0  0  0
 24 20  1  0  0  0  0
 25 24  1  0  0  0  0
 26 29  1  0  0  0  0
 26 24  1  0  0  0  0
 27 26  1  0  0  0  0
 28 26  1  0  0  0  0
 30 29  1  0  0  0  0
M  END
>  <minimizedAffinity>
-6.25107765

>  <minimizedRMSD>
0.600643337

$$$$
