
 OpenBabel03272510323D

 26 27  0  0  0  0  0  0  0  0999 V2000
   36.0690   30.1520   48.6240 C   0  0  0  0  0  0  0  0  0  0  0  0
   35.9400   29.4090   49.7540 C   0  0  0  0  0  0  0  0  0  0  0  0
   35.0410   28.3780   49.8810 C   0  0  0  0  0  0  0  0  0  0  0  0
   34.2440   28.1040   48.8000 C   0  0  0  0  0  0  0  0  0  0  0  0
   34.3400   28.8300   47.6360 C   0  0  0  0  0  0  0  0  0  0  0  0
   35.2570   29.8630   47.5410 C   0  0  0  0  0  0  0  0  0  0  0  0
   36.5710   29.6200   50.6220 H   0  0  0  0  0  0  0  0  0  0  0  0
   34.9810   27.8130   50.8140 H   0  0  0  0  0  0  0  0  0  0  0  0
   33.5430   27.2800   48.9340 H   0  0  0  0  0  0  0  0  0  0  0  0
   33.6630   28.5240   46.8540 H   0  0  0  0  0  0  0  0  0  0  0  0
   38.9290   32.1230   47.5530 C   0  0  0  0  0  0  0  0  0  0  0  0
   39.0010   33.1680   48.4700 C   0  0  0  0  0  0  0  0  0  0  0  0
   38.0300   33.1840   49.4840 C   0  0  0  0  0  0  0  0  0  0  0  0
   37.0790   32.2050   49.5310 N   0  0  0  0  0  0  0  0  0  0  0  0
   37.0610   31.2100   48.6050 C   0  0  0  0  0  0  0  0  0  0  0  0
   37.9910   31.1690   47.6100 N   0  0  0  0  0  0  0  0  0  0  0  0
   39.6830   32.1240   46.7790 H   0  0  0  0  0  0  0  0  0  0  0  0
   39.7340   33.9560   48.4670 H   0  0  0  0  0  0  0  0  0  0  0  0
   38.0040   33.9590   50.2460 H   0  0  0  0  0  0  0  0  0  0  0  0
   35.3410   30.5980   46.3520 N   0  0  0  0  0  0  0  0  0  0  0  0
   35.1830   31.6500   46.3980 H   0  0  0  0  0  0  0  0  0  0  0  0
   35.6530   30.1950   44.7360 S   0  0  0  0  0  0  0  0  0  0  0  0
   34.9190   29.0010   44.2170 O   0  0  0  0  0  1  0  0  0  0  0  0
   37.1280   30.0930   44.5260 O   0  0  0  0  0  1  0  0  0  0  0  0
   35.1100   31.5020   43.7920 O   0  0  0  0  0  0  0  0  0  0  0  0
   34.2630   31.8710   44.1890 H   0  0  0  0  0  0  0  0  0  0  0  0
  1  2  1  0  0  0  0
  2  3  2  0  0  0  0
  2  7  1  0  0  0  0
  3  8  1  0  0  0  0
  4  9  1  0  0  0  0
  4  3  1  0  0  0  0
  5  4  2  0  0  0  0
  6  5  1  0  0  0  0
  6  1  2  0  0  0  0
 10  5  1  0  0  0  0
 11 16  2  0  0  0  0
 11 12  1  0  0  0  0
 12 13  2  0  0  0  0
 13 14  1  0  0  0  0
 13 19  1  0  0  0  0
 15  1  1  0  0  0  0
 15 14  2  0  0  0  0
 16 15  1  0  0  0  0
 17 11  1  0  0  0  0
 18 12  1  0  0  0  0
 20 21  1  0  0  0  0
 20  6  1  0  0  0  0
 22 20  1  0  0  0  0
 23 22  1  0  0  0  0
 24 22  1  0  0  0  0
 25 26  1  0  0  0  0
 25 22  1  0  0  0  0
M  END
>  <minimizedAffinity>
-5.40887403

>  <minimizedRMSD>
4.67612982

$$$$
