
 OpenBabel03272509283D

 32 33  0  0  1  0  0  0  0  0999 V2000
   35.5610   30.5900   47.3820 C   0  0  2  0  0  0  0  0  0  0  0  0
   36.3160   30.4800   46.0790 C   0  0  0  0  0  0  0  0  0  0  0  0
   37.7800   30.2740   46.2740 C   0  0  0  0  0  0  0  0  0  0  0  0
   38.4460   31.2540   47.1980 C   0  0  0  0  0  0  0  0  0  0  0  0
   37.5910   31.6610   48.3550 C   0  0  0  0  0  0  0  0  0  0  0  0
   36.4240   30.7050   48.5750 C   0  0  2  0  0  0  0  0  0  0  0  0
   34.8690   31.4780   47.3010 H   0  0  0  0  0  0  0  0  0  0  0  0
   36.1340   31.3310   45.3930 H   0  0  0  0  0  0  0  0  0  0  0  0
   35.9510   29.5640   45.5370 H   0  0  0  0  0  0  0  0  0  0  0  0
   38.1000   29.2190   46.4080 H   0  0  0  0  0  0  0  0  0  0  0  0
   38.2340   30.5190   45.2550 H   0  0  0  0  0  0  0  0  0  0  0  0
   38.8010   32.1780   46.6990 H   0  0  0  0  0  0  0  0  0  0  0  0
   39.3900   30.7310   47.5360 H   0  0  0  0  0  0  0  0  0  0  0  0
   38.2250   31.5830   49.2760 H   0  0  0  0  0  0  0  0  0  0  0  0
   37.2470   32.7120   48.3010 H   0  0  0  0  0  0  0  0  0  0  0  0
   35.7910   31.2360   49.3670 H   0  0  0  0  0  0  0  0  0  0  0  0
   34.6630   29.4260   47.5610 C   0  0  0  0  0  0  0  0  0  0  0  0
   34.4220   28.6310   46.4100 C   0  0  0  0  0  0  0  0  0  0  0  0
   33.5800   27.5250   46.5650 C   0  0  0  0  0  0  0  0  0  0  0  0
   33.0430   27.2770   47.7920 N   0  0  0  0  0  0  0  0  0  0  0  0
   33.3050   28.0760   48.8750 C   0  0  0  0  0  0  0  0  0  0  0  0
   34.0970   29.1220   48.7480 N   0  0  0  0  0  0  0  0  0  0  0  0
   34.8150   28.7850   45.4370 H   0  0  0  0  0  0  0  0  0  0  0  0
   33.3460   26.8700   45.7370 H   0  0  0  0  0  0  0  0  0  0  0  0
   32.8060   27.7520   49.7830 H   0  0  0  0  0  0  0  0  0  0  0  0
   36.9810   29.5460   49.1380 N   0  0  0  0  0  0  0  0  0  0  0  0
   37.5530   28.9100   48.6220 H   0  0  0  0  0  0  0  0  0  0  0  0
   37.0930   29.4770   50.8340 S   0  0  0  0  0  0  0  0  0  0  0  0
   37.6500   30.8290   51.2780 O   0  0  0  0  0  0  0  0  0  0  0  0
   35.7690   29.2550   51.4990 O   0  0  0  0  0  0  0  0  0  0  0  0
   38.1750   28.3440   51.3820 O   0  0  0  0  0  0  0  0  0  0  0  0
   37.8710   27.8220   52.1640 H   0  0  0  0  0  0  0  0  0  0  0  0
  1  7  1  6  0  0  0
  1 17  1  0  0  0  0
  1  6  1  0  0  0  0
  2  3  1  0  0  0  0
  2  1  1  0  0  0  0
  3 10  1  0  0  0  0
  3  4  1  0  0  0  0
  4 13  1  0  0  0  0
  4  5  1  0  0  0  0
  5  6  1  0  0  0  0
  5 14  1  0  0  0  0
  6 26  1  0  0  0  0
  6 16  1  1  0  0  0
  8  2  1  0  0  0  0
  9  2  1  0  0  0  0
 11  3  1  0  0  0  0
 12  4  1  0  0  0  0
 15  5  1  0  0  0  0
 17 22  1  0  0  0  0
 18 19  1  0  0  0  0
 18 17  2  0  0  0  0
 19 20  2  0  0  0  0
 20 21  1  0  0  0  0
 21 25  1  0  0  0  0
 22 21  2  0  0  0  0
 23 18  1  0  0  0  0
 24 19  1  0  0  0  0
 26 28  1  0  0  0  0
 27 26  1  0  0  0  0
 28 29  1  0  0  0  0
 28 31  1  0  0  0  0
 28 30  1  0  0  0  0
 31 32  1  0  0  0  0
M  END
>  <minimizedAffinity>
-4.44116068

>  <minimizedRMSD>
2.56399059

$$$$
