
 OpenBabel03262522003D

 34 35  0  0  1  0  0  0  0  0999 V2000
   38.7280   22.8790   35.9140 N   0  0  0  0  0  0  0  0  0  0  0  0
   38.6850   24.2680   36.2080 C   0  0  0  0  0  0  0  0  0  0  0  0
   39.6530   25.1490   35.5350 C   0  0  0  0  0  0  0  0  0  0  0  0
   40.9270   24.5560   35.0490 C   0  0  0  0  0  0  0  0  0  0  0  0
   40.9240   23.0680   34.9040 C   0  0  0  0  0  0  0  0  0  0  0  0
   40.0780   22.4230   36.0160 C   0  0  1  0  0  0  0  0  0  0  0  0
   37.6270   24.5650   35.9340 H   0  0  0  0  0  0  0  0  0  0  0  0
   38.6720   24.5190   37.3100 H   0  0  0  0  0  0  0  0  0  0  0  0
   39.9690   25.9980   36.2140 H   0  0  0  0  0  0  0  0  0  0  0  0
   39.1210   25.7160   34.7170 H   0  0  0  0  0  0  0  0  0  0  0  0
   41.0830   24.9120   33.9870 H   0  0  0  0  0  0  0  0  0  0  0  0
   41.8540   24.9830   35.5200 H   0  0  0  0  0  0  0  0  0  0  0  0
   40.3990   22.7700   33.9720 H   0  0  0  0  0  0  0  0  0  0  0  0
   41.9560   22.6820   34.9290 H   0  0  0  0  0  0  0  0  0  0  0  0
   40.0430   21.3540   35.7140 H   0  0  0  0  0  0  0  0  0  0  0  0
   37.6000   22.0560   35.5690 C   0  0  0  0  0  0  0  0  0  0  0  0
   36.5490   21.7420   36.4290 C   0  0  0  0  0  0  0  0  0  0  0  0
   35.5310   20.9330   35.9420 C   0  0  0  0  0  0  0  0  0  0  0  0
   35.6190   20.4890   34.6420 N   0  0  0  0  0  0  0  0  0  0  0  0
   36.6370   20.8110   33.8600 C   0  0  0  0  0  0  0  0  0  0  0  0
   37.6120   21.5840   34.3200 N   0  0  0  0  0  0  0  0  0  0  0  0
   36.5940   22.1470   37.4100 H   0  0  0  0  0  0  0  0  0  0  0  0
   34.7150   20.6810   36.5880 H   0  0  0  0  0  0  0  0  0  0  0  0
   36.6510   20.3100   32.5300 N   0  0  0  0  0  0  0  0  0  0  0  0
   37.4470   20.5540   31.8970 H   0  0  0  0  0  0  0  0  0  0  0  0
   35.3750   19.3060   31.9460 S   0  0  0  0  0  0  0  0  0  0  0  0
   34.1140   20.1010   31.9160 O   0  0  0  0  0  1  0  0  0  0  0  0
   35.1470   18.1550   32.9060 O   0  0  0  0  0  1  0  0  0  0  0  0
   35.7370   18.7290   30.4150 O   0  0  0  0  0  0  0  0  0  0  0  0
   36.3320   19.3840   29.9680 H   0  0  0  0  0  0  0  0  0  0  0  0
   40.7690   22.6580   37.3160 C   0  0  0  0  0  0  0  0  0  0  0  0
   41.1450   21.3950   37.7890 F   0  0  0  0  0  0  0  0  0  0  0  0
   39.8620   23.0930   38.2570 F   0  0  0  0  0  0  0  0  0  0  0  0
   41.9010   23.3830   37.2780 F   0  0  0  0  0  0  0  0  0  0  0  0
  1  6  1  0  0  0  0
  1  2  1  0  0  0  0
  2  8  1  0  0  0  0
  3  2  1  0  0  0  0
  3  9  1  0  0  0  0
  4 12  1  0  0  0  0
  4  3  1  0  0  0  0
  5 14  1  0  0  0  0
  5  4  1  0  0  0  0
  5  6  1  0  0  0  0
  6 15  1  6  0  0  0
  6 31  1  0  0  0  0
  7  2  1  0  0  0  0
 10  3  1  0  0  0  0
 11  4  1  0  0  0  0
 13  5  1  0  0  0  0
 16  1  1  0  0  0  0
 16 17  1  0  0  0  0
 17 22  1  0  0  0  0
 18 17  2  0  0  0  0
 18 23  1  0  0  0  0
 19 18  1  0  0  0  0
 20 21  1  0  0  0  0
 20 19  2  0  0  0  0
 21 16  2  0  0  0  0
 24 20  1  0  0  0  0
 25 24  1  0  0  0  0
 26 24  1  0  0  0  0
 26 28  1  0  0  0  0
 27 26  1  0  0  0  0
 29 26  1  0  0  0  0
 30 29  1  0  0  0  0
 31 32  1  0  0  0  0
 31 33  1  0  0  0  0
 34 31  1  0  0  0  0
M  END
>  <minimizedAffinity>
-5.39851046

$$$$

 OpenBabel03262522003D

 34 35  0  0  1  0  0  0  0  0999 V2000
   37.9700   25.5580   32.3250 N   0  0  0  0  0  0  0  0  0  0  0  0
   38.5880   25.8860   31.0890 C   0  0  0  0  0  0  0  0  0  0  0  0
   38.1700   27.1240   30.4120 C   0  0  0  0  0  0  0  0  0  0  0  0
   36.8180   27.6660   30.7050 C   0  0  0  0  0  0  0  0  0  0  0  0
   36.1840   27.1560   31.9590 C   0  0  0  0  0  0  0  0  0  0  0  0
   36.5540   25.6790   32.1840 C   0  0  1  0  0  0  0  0  0  0  0  0
   39.6900   25.9320   31.3470 H   0  0  0  0  0  0  0  0  0  0  0  0
   38.6060   25.0470   30.3310 H   0  0  0  0  0  0  0  0  0  0  0  0
   38.1950   27.0000   29.2870 H   0  0  0  0  0  0  0  0  0  0  0  0
   38.9710   27.9060   30.5580 H   0  0  0  0  0  0  0  0  0  0  0  0
   36.9330   28.7710   30.9140 H   0  0  0  0  0  0  0  0  0  0  0  0
   36.1310   27.7220   29.8170 H   0  0  0  0  0  0  0  0  0  0  0  0
   36.6110   27.6690   32.8460 H   0  0  0  0  0  0  0  0  0  0  0  0
   35.0890   27.2770   31.9080 H   0  0  0  0  0  0  0  0  0  0  0  0
   36.1460   25.4720   33.1970 H   0  0  0  0  0  0  0  0  0  0  0  0
   38.6510   25.1670   33.5300 C   0  0  0  0  0  0  0  0  0  0  0  0
   40.0320   25.2020   33.7130 C   0  0  0  0  0  0  0  0  0  0  0  0
   40.5370   24.7910   34.9390 C   0  0  0  0  0  0  0  0  0  0  0  0
   39.6440   24.3730   35.9010 N   0  0  0  0  0  0  0  0  0  0  0  0
   38.3390   24.3550   35.6850 C   0  0  0  0  0  0  0  0  0  0  0  0
   37.8520   24.7470   34.5150 N   0  0  0  0  0  0  0  0  0  0  0  0
   40.6160   25.5450   32.8940 H   0  0  0  0  0  0  0  0  0  0  0  0
   41.5940   24.8100   35.0980 H   0  0  0  0  0  0  0  0  0  0  0  0
   37.4880   23.9080   36.7320 N   0  0  0  0  0  0  0  0  0  0  0  0
   36.4530   23.8870   36.5780 H   0  0  0  0  0  0  0  0  0  0  0  0
   38.1350   23.4010   38.2480 S   0  0  0  0  0  0  0  0  0  0  0  0
   37.1240   22.5550   38.9430 O   0  0  0  0  0  1  0  0  0  0  0  0
   38.3800   24.6090   39.1310 O   0  0  0  0  0  1  0  0  0  0  0  0
   39.5570   22.5440   38.0210 O   0  0  0  0  0  0  0  0  0  0  0  0
   39.5200   22.1110   37.1300 H   0  0  0  0  0  0  0  0  0  0  0  0
   35.9160   24.8750   31.1030 C   0  0  0  0  0  0  0  0  0  0  0  0
   35.1830   23.8710   31.7490 F   0  0  0  0  0  0  0  0  0  0  0  0
   36.8780   24.1710   30.4130 F   0  0  0  0  0  0  0  0  0  0  0  0
   35.0380   25.5130   30.3100 F   0  0  0  0  0  0  0  0  0  0  0  0
  1 16  1  0  0  0  0
  2  7  1  0  0  0  0
  2  1  1  0  0  0  0
  3 10  1  0  0  0  0
  3  4  1  0  0  0  0
  3  2  1  0  0  0  0
  4 11  1  0  0  0  0
  4  5  1  0  0  0  0
  5  6  1  0  0  0  0
  5 13  1  0  0  0  0
  6  1  1  0  0  0  0
  6 15  1  1  0  0  0
  8  2  1  0  0  0  0
  9  3  1  0  0  0  0
 12  4  1  0  0  0  0
 14  5  1  0  0  0  0
 16 17  2  0  0  0  0
 16 21  1  0  0  0  0
 17 18  1  0  0  0  0
 18 23  1  0  0  0  0
 18 19  2  0  0  0  0
 20 19  1  0  0  0  0
 20 24  1  0  0  0  0
 21 20  2  0  0  0  0
 22 17  1  0  0  0  0
 24 26  1  0  0  0  0
 25 24  1  0  0  0  0
 26 27  1  0  0  0  0
 26 28  1  0  0  0  0
 29 26  1  0  0  0  0
 30 29  1  0  0  0  0
 31 32  1  0  0  0  0
 31  6  1  0  0  0  0
 33 31  1  0  0  0  0
 34 31  1  0  0  0  0
M  END
>  <minimizedAffinity>
-5.30183649

$$$$

 OpenBabel03262522003D

 34 35  0  0  1  0  0  0  0  0999 V2000
   38.8590   23.0420   35.7140 N   0  0  0  0  0  0  0  0  0  0  0  0
   40.0880   23.1520   36.4160 C   0  0  0  0  0  0  0  0  0  0  0  0
   40.0600   23.0510   37.8840 C   0  0  0  0  0  0  0  0  0  0  0  0
   38.7950   23.3900   38.5890 C   0  0  0  0  0  0  0  0  0  0  0  0
   37.5680   23.3850   37.7370 C   0  0  0  0  0  0  0  0  0  0  0  0
   37.8950   23.9010   36.3240 C   0  0  1  0  0  0  0  0  0  0  0  0
   40.7210   22.3210   35.9770 H   0  0  0  0  0  0  0  0  0  0  0  0
   40.7210   24.0430   36.1270 H   0  0  0  0  0  0  0  0  0  0  0  0
   40.8420   23.7210   38.3530 H   0  0  0  0  0  0  0  0  0  0  0  0
   40.4420   22.0330   38.1850 H   0  0  0  0  0  0  0  0  0  0  0  0
   38.5890   22.5620   39.3310 H   0  0  0  0  0  0  0  0  0  0  0  0
   38.8730   24.2550   39.3030 H   0  0  0  0  0  0  0  0  0  0  0  0
   37.2210   22.3450   37.5600 H   0  0  0  0  0  0  0  0  0  0  0  0
   36.7810   24.0020   38.2010 H   0  0  0  0  0  0  0  0  0  0  0  0
   36.9510   23.7150   35.7670 H   0  0  0  0  0  0  0  0  0  0  0  0
   38.6140   22.2030   34.5710 C   0  0  0  0  0  0  0  0  0  0  0  0
   39.5880   21.7810   33.6680 C   0  0  0  0  0  0  0  0  0  0  0  0
   39.1890   20.9700   32.6140 C   0  0  0  0  0  0  0  0  0  0  0  0
   37.8570   20.6310   32.5230 N   0  0  0  0  0  0  0  0  0  0  0  0
   36.9650   21.0550   33.4030 C   0  0  0  0  0  0  0  0  0  0  0  0
   37.3410   21.8300   34.4120 N   0  0  0  0  0  0  0  0  0  0  0  0
   40.5820   22.1090   33.8470 H   0  0  0  0  0  0  0  0  0  0  0  0
   39.9230   20.6360   31.9100 H   0  0  0  0  0  0  0  0  0  0  0  0
   35.6110   20.6590   33.2350 N   0  0  0  0  0  0  0  0  0  0  0  0
   34.8910   20.9850   33.9210 H   0  0  0  0  0  0  0  0  0  0  0  0
   35.1370   19.6510   31.9170 S   0  0  0  0  0  0  0  0  0  0  0  0
   33.6700   19.8020   31.7010 O   0  0  0  0  0  1  0  0  0  0  0  0
   35.3830   18.1970   32.2700 O   0  0  0  0  0  1  0  0  0  0  0  0
   35.9770   20.0680   30.5290 O   0  0  0  0  0  0  0  0  0  0  0  0
   36.2130   21.0290   30.5850 H   0  0  0  0  0  0  0  0  0  0  0  0
   38.2560   25.3440   36.4330 C   0  0  0  0  0  0  0  0  0  0  0  0
   37.2930   26.0400   35.6910 F   0  0  0  0  0  0  0  0  0  0  0  0
   39.4240   25.5870   35.7450 F   0  0  0  0  0  0  0  0  0  0  0  0
   38.2280   25.8850   37.6630 F   0  0  0  0  0  0  0  0  0  0  0  0
  1  6  1  0  0  0  0
  1  2  1  0  0  0  0
  2  3  1  0  0  0  0
  3 10  1  0  0  0  0
  3  9  1  0  0  0  0
  3  4  1  0  0  0  0
  4 12  1  0  0  0  0
  4 11  1  0  0  0  0
  5 14  1  0  0  0  0
  5  4  1  0  0  0  0
  6 15  1  6  0  0  0
  6 31  1  0  0  0  0
  6  5  1  0  0  0  0
  7  2  1  0  0  0  0
  8  2  1  0  0  0  0
 13  5  1  0  0  0  0
 16  1  1  0  0  0  0
 17 22  1  0  0  0  0
 17 16  2  0  0  0  0
 18 17  1  0  0  0  0
 19 18  2  0  0  0  0
 19 20  1  0  0  0  0
 20 21  2  0  0  0  0
 21 16  1  0  0  0  0
 23 18  1  0  0  0  0
 24 20  1  0  0  0  0
 24 25  1  0  0  0  0
 26 28  1  0  0  0  0
 26 24  1  0  0  0  0
 27 26  1  0  0  0  0
 29 30  1  0  0  0  0
 29 26  1  0  0  0  0
 31 34  1  0  0  0  0
 32 31  1  0  0  0  0
 33 31  1  0  0  0  0
M  END
>  <minimizedAffinity>
-5.2979002

$$$$

 OpenBabel03262522003D

 34 35  0  0  1  0  0  0  0  0999 V2000
   38.1410   25.6870   33.4190 N   0  0  0  0  0  0  0  0  0  0  0  0
   38.6890   26.9010   32.9240 C   0  0  0  0  0  0  0  0  0  0  0  0
   40.1360   27.1240   33.0810 C   0  0  0  0  0  0  0  0  0  0  0  0
   40.8440   26.4070   34.1750 C   0  0  0  0  0  0  0  0  0  0  0  0
   40.1250   25.2200   34.7310 C   0  0  0  0  0  0  0  0  0  0  0  0
   38.6080   25.4740   34.7520 C   0  0  1  0  0  0  0  0  0  0  0  0
   38.4100   26.8910   31.8260 H   0  0  0  0  0  0  0  0  0  0  0  0
   38.1420   27.8350   33.2490 H   0  0  0  0  0  0  0  0  0  0  0  0
   40.3610   28.2190   33.2590 H   0  0  0  0  0  0  0  0  0  0  0  0
   40.6380   26.9600   32.0850 H   0  0  0  0  0  0  0  0  0  0  0  0
   41.7780   25.9500   33.7310 H   0  0  0  0  0  0  0  0  0  0  0  0
   41.3200   27.0760   34.9440 H   0  0  0  0  0  0  0  0  0  0  0  0
   40.2340   24.3480   34.0530 H   0  0  0  0  0  0  0  0  0  0  0  0
   40.4940   24.9950   35.7460 H   0  0  0  0  0  0  0  0  0  0  0  0
   38.1940   24.4860   35.0460 H   0  0  0  0  0  0  0  0  0  0  0  0
   37.2590   24.8070   32.7000 C   0  0  0  0  0  0  0  0  0  0  0  0
   36.2610   25.2220   31.8200 C   0  0  0  0  0  0  0  0  0  0  0  0
   35.4920   24.2460   31.2020 C   0  0  0  0  0  0  0  0  0  0  0  0
   35.7590   22.9270   31.4940 N   0  0  0  0  0  0  0  0  0  0  0  0
   36.7170   22.5770   32.3380 C   0  0  0  0  0  0  0  0  0  0  0  0
   37.4550   23.5060   32.9310 N   0  0  0  0  0  0  0  0  0  0  0  0
   36.1530   26.2700   31.6770 H   0  0  0  0  0  0  0  0  0  0  0  0
   34.7210   24.5450   30.5230 H   0  0  0  0  0  0  0  0  0  0  0  0
   36.9260   21.1930   32.5840 N   0  0  0  0  0  0  0  0  0  0  0  0
   37.6790   20.8970   33.2480 H   0  0  0  0  0  0  0  0  0  0  0  0
   35.9590   19.9960   31.8050 S   0  0  0  0  0  0  0  0  0  0  0  0
   36.2630   18.6660   32.4080 O   0  0  0  0  0  1  0  0  0  0  0  0
   36.3310   19.9090   30.3380 O   0  0  0  0  0  1  0  0  0  0  0  0
   34.3310   20.3550   31.9770 O   0  0  0  0  0  0  0  0  0  0  0  0
   34.2130   20.8700   32.8160 H   0  0  0  0  0  0  0  0  0  0  0  0
   38.3350   26.5590   35.7380 C   0  0  0  0  0  0  0  0  0  0  0  0
   38.0860   25.9180   36.9580 F   0  0  0  0  0  0  0  0  0  0  0  0
   37.1330   27.1660   35.4470 F   0  0  0  0  0  0  0  0  0  0  0  0
   39.3350   27.4240   35.9800 F   0  0  0  0  0  0  0  0  0  0  0  0
  1  6  1  0  0  0  0
  2  3  1  0  0  0  0
  2  8  1  0  0  0  0
  2  1  1  0  0  0  0
  3  9  1  0  0  0  0
  3  4  1  0  0  0  0
  4  5  1  0  0  0  0
  4 12  1  0  0  0  0
  5  6  1  0  0  0  0
  5 14  1  0  0  0  0
  6 15  1  1  0  0  0
  6 31  1  0  0  0  0
  7  2  1  0  0  0  0
 10  3  1  0  0  0  0
 11  4  1  0  0  0  0
 13  5  1  0  0  0  0
 16 21  1  0  0  0  0
 16  1  1  0  0  0  0
 17 16  2  0  0  0  0
 18 19  2  0  0  0  0
 18 17  1  0  0  0  0
 19 20  1  0  0  0  0
 20 24  1  0  0  0  0
 20 21  2  0  0  0  0
 22 17  1  0  0  0  0
 23 18  1  0  0  0  0
 24 25  1  0  0  0  0
 26 29  1  0  0  0  0
 26 27  1  0  0  0  0
 26 24  1  0  0  0  0
 28 26  1  0  0  0  0
 29 30  1  0  0  0  0
 31 34  1  0  0  0  0
 31 32  1  0  0  0  0
 33 31  1  0  0  0  0
M  END
>  <minimizedAffinity>
-5.29008055

$$$$

 OpenBabel03262522003D

 34 35  0  0  1  0  0  0  0  0999 V2000
   38.8330   24.1850   35.0690 N   0  0  0  0  0  0  0  0  0  0  0  0
   40.1680   24.5800   35.3490 C   0  0  0  0  0  0  0  0  0  0  0  0
   41.1540   23.5290   35.6490 C   0  0  0  0  0  0  0  0  0  0  0  0
   40.6600   22.2310   36.1800 C   0  0  0  0  0  0  0  0  0  0  0  0
   39.2060   21.9620   35.9610 C   0  0  0  0  0  0  0  0  0  0  0  0
   38.3980   23.2660   36.0720 C   0  0  1  0  0  0  0  0  0  0  0  0
   40.4760   25.1550   34.4240 H   0  0  0  0  0  0  0  0  0  0  0  0
   40.2670   25.3990   36.1220 H   0  0  0  0  0  0  0  0  0  0  0  0
   41.9100   23.8860   36.4120 H   0  0  0  0  0  0  0  0  0  0  0  0
   41.8140   23.3830   34.7450 H   0  0  0  0  0  0  0  0  0  0  0  0
   41.1600   21.4090   35.5860 H   0  0  0  0  0  0  0  0  0  0  0  0
   41.0410   21.9670   37.2050 H   0  0  0  0  0  0  0  0  0  0  0  0
   39.0260   21.6330   34.9160 H   0  0  0  0  0  0  0  0  0  0  0  0
   38.8440   21.2180   36.6890 H   0  0  0  0  0  0  0  0  0  0  0  0
   37.3790   22.9560   35.7540 H   0  0  0  0  0  0  0  0  0  0  0  0
   38.0390   24.6320   33.9560 C   0  0  0  0  0  0  0  0  0  0  0  0
   37.3890   23.7940   33.0510 C   0  0  0  0  0  0  0  0  0  0  0  0
   36.6590   24.3840   32.0280 C   0  0  0  0  0  0  0  0  0  0  0  0
   36.6190   25.7590   31.9670 N   0  0  0  0  0  0  0  0  0  0  0  0
   37.2520   26.5170   32.8470 C   0  0  0  0  0  0  0  0  0  0  0  0
   37.9510   25.9590   33.8270 N   0  0  0  0  0  0  0  0  0  0  0  0
   37.4960   22.7480   33.2050 H   0  0  0  0  0  0  0  0  0  0  0  0
   36.1540   23.7560   31.3240 H   0  0  0  0  0  0  0  0  0  0  0  0
   37.1600   27.9290   32.7120 N   0  0  0  0  0  0  0  0  0  0  0  0
   37.6540   28.5440   33.3990 H   0  0  0  0  0  0  0  0  0  0  0  0
   36.2470   28.6400   31.4330 S   0  0  0  0  0  0  0  0  0  0  0  0
   36.7220   30.0380   31.2240 O   0  0  0  0  0  1  0  0  0  0  0  0
   34.7860   28.7270   31.8310 O   0  0  0  0  0  1  0  0  0  0  0  0
   36.4180   27.7490   30.0240 O   0  0  0  0  0  0  0  0  0  0  0  0
   37.3010   27.2990   30.0460 H   0  0  0  0  0  0  0  0  0  0  0  0
   38.4700   23.7340   37.4860 C   0  0  0  0  0  0  0  0  0  0  0  0
   37.3480   23.1970   38.1290 F   0  0  0  0  0  0  0  0  0  0  0  0
   38.2480   25.0920   37.5420 F   0  0  0  0  0  0  0  0  0  0  0  0
   39.5310   23.3280   38.2050 F   0  0  0  0  0  0  0  0  0  0  0  0
  1  2  1  0  0  0  0
  1  6  1  0  0  0  0
  2  3  1  0  0  0  0
  2  8  1  0  0  0  0
  3  4  1  0  0  0  0
  3  9  1  0  0  0  0
  4 12  1  0  0  0  0
  5  6  1  0  0  0  0
  5  4  1  0  0  0  0
  5 14  1  0  0  0  0
  6 15  1  6  0  0  0
  6 31  1  0  0  0  0
  7  2  1  0  0  0  0
 10  3  1  0  0  0  0
 11  4  1  0  0  0  0
 13  5  1  0  0  0  0
 16  1  1  0  0  0  0
 17 22  1  0  0  0  0
 17 16  2  0  0  0  0
 18 17  1  0  0  0  0
 19 18  2  0  0  0  0
 19 20  1  0  0  0  0
 20 21  2  0  0  0  0
 21 16  1  0  0  0  0
 23 18  1  0  0  0  0
 24 20  1  0  0  0  0
 24 25  1  0  0  0  0
 26 28  1  0  0  0  0
 26 24  1  0  0  0  0
 27 26  1  0  0  0  0
 29 30  1  0  0  0  0
 29 26  1  0  0  0  0
 31 33  1  0  0  0  0
 31 32  1  0  0  0  0
 31 34  1  0  0  0  0
M  END
>  <minimizedAffinity>
-5.12149382

$$$$

 OpenBabel03262522003D

 34 35  0  0  1  0  0  0  0  0999 V2000
   38.2740   26.2530   34.4010 N   0  0  0  0  0  0  0  0  0  0  0  0
   39.4160   26.9480   34.8820 C   0  0  0  0  0  0  0  0  0  0  0  0
   40.7150   26.2560   34.8460 C   0  0  0  0  0  0  0  0  0  0  0  0
   40.7210   24.7690   34.8520 C   0  0  0  0  0  0  0  0  0  0  0  0
   39.4300   24.1230   34.4660 C   0  0  0  0  0  0  0  0  0  0  0  0
   38.2410   24.9500   34.9860 C   0  0  1  0  0  0  0  0  0  0  0  0
   39.4500   27.8810   34.2410 H   0  0  0  0  0  0  0  0  0  0  0  0
   39.2880   27.4230   35.9000 H   0  0  0  0  0  0  0  0  0  0  0  0
   41.3580   26.5520   35.7290 H   0  0  0  0  0  0  0  0  0  0  0  0
   41.3230   26.6700   33.9900 H   0  0  0  0  0  0  0  0  0  0  0  0
   41.4260   24.4300   34.0350 H   0  0  0  0  0  0  0  0  0  0  0  0
   41.2370   24.3050   35.7360 H   0  0  0  0  0  0  0  0  0  0  0  0
   39.2990   24.1440   33.3640 H   0  0  0  0  0  0  0  0  0  0  0  0
   39.3870   23.0940   34.8600 H   0  0  0  0  0  0  0  0  0  0  0  0
   37.3650   24.4490   34.5190 H   0  0  0  0  0  0  0  0  0  0  0  0
   37.3030   26.7700   33.4750 C   0  0  0  0  0  0  0  0  0  0  0  0
   36.8630   26.1110   32.3290 C   0  0  0  0  0  0  0  0  0  0  0  0
   35.9170   26.7460   31.5360 C   0  0  0  0  0  0  0  0  0  0  0  0
   35.4690   27.9870   31.9280 N   0  0  0  0  0  0  0  0  0  0  0  0
   35.9140   28.5780   33.0250 C   0  0  0  0  0  0  0  0  0  0  0  0
   36.8180   27.9760   33.7860 N   0  0  0  0  0  0  0  0  0  0  0  0
   37.2840   25.1550   32.1340 H   0  0  0  0  0  0  0  0  0  0  0  0
   35.5670   26.2550   30.6520 H   0  0  0  0  0  0  0  0  0  0  0  0
   35.3990   29.8610   33.3570 N   0  0  0  0  0  0  0  0  0  0  0  0
   35.7400   30.3430   34.2210 H   0  0  0  0  0  0  0  0  0  0  0  0
   34.2240   30.6320   32.3570 S   0  0  0  0  0  0  0  0  0  0  0  0
   34.0180   32.0250   32.8470 O   0  0  0  0  0  1  0  0  0  0  0  0
   32.8930   29.9180   32.4870 O   0  0  0  0  0  1  0  0  0  0  0  0
   34.7290   30.6440   30.7600 O   0  0  0  0  0  0  0  0  0  0  0  0
   35.7210   30.6410   30.7470 H   0  0  0  0  0  0  0  0  0  0  0  0
   38.2490   24.8830   36.4760 C   0  0  0  0  0  0  0  0  0  0  0  0
   37.0190   24.3240   36.8440 F   0  0  0  0  0  0  0  0  0  0  0  0
   38.1910   26.1550   37.0020 F   0  0  0  0  0  0  0  0  0  0  0  0
   39.1860   24.1040   37.0420 F   0  0  0  0  0  0  0  0  0  0  0  0
  1  2  1  0  0  0  0
  1  6  1  0  0  0  0
  2  8  1  0  0  0  0
  3  4  1  0  0  0  0
  3  2  1  0  0  0  0
  3  9  1  0  0  0  0
  4 12  1  0  0  0  0
  5  4  1  0  0  0  0
  5 14  1  0  0  0  0
  5  6  1  0  0  0  0
  6 15  1  6  0  0  0
  6 31  1  0  0  0  0
  7  2  1  0  0  0  0
 10  3  1  0  0  0  0
 11  4  1  0  0  0  0
 13  5  1  0  0  0  0
 16 21  1  0  0  0  0
 16  1  1  0  0  0  0
 17 16  2  0  0  0  0
 18 19  2  0  0  0  0
 18 17  1  0  0  0  0
 19 20  1  0  0  0  0
 20 24  1  0  0  0  0
 20 21  2  0  0  0  0
 22 17  1  0  0  0  0
 23 18  1  0  0  0  0
 24 25  1  0  0  0  0
 26 28  1  0  0  0  0
 26 27  1  0  0  0  0
 26 24  1  0  0  0  0
 29 26  1  0  0  0  0
 30 29  1  0  0  0  0
 31 32  1  0  0  0  0
 31 33  1  0  0  0  0
 31 34  1  0  0  0  0
M  END
>  <minimizedAffinity>
-5.06102371

$$$$

 OpenBabel03262522003D

 34 35  0  0  1  0  0  0  0  0999 V2000
   36.5560   21.9310   31.7880 N   0  0  0  0  0  0  0  0  0  0  0  0
   37.6140   21.5130   32.6390 C   0  0  0  0  0  0  0  0  0  0  0  0
   38.5050   20.4420   32.1620 C   0  0  0  0  0  0  0  0  0  0  0  0
   37.9840   19.4950   31.1410 C   0  0  0  0  0  0  0  0  0  0  0  0
   36.7790   19.9630   30.3900 C   0  0  0  0  0  0  0  0  0  0  0  0
   35.8570   20.7800   31.3130 C   0  0  1  0  0  0  0  0  0  0  0  0
   38.2030   22.4630   32.8180 H   0  0  0  0  0  0  0  0  0  0  0  0
   37.3040   21.2790   33.7000 H   0  0  0  0  0  0  0  0  0  0  0  0
   38.8460   19.7860   33.0190 H   0  0  0  0  0  0  0  0  0  0  0  0
   39.4840   20.9010   31.8400 H   0  0  0  0  0  0  0  0  0  0  0  0
   38.7670   19.4060   30.3310 H   0  0  0  0  0  0  0  0  0  0  0  0
   37.9460   18.4210   31.4730 H   0  0  0  0  0  0  0  0  0  0  0  0
   37.0710   20.6910   29.6040 H   0  0  0  0  0  0  0  0  0  0  0  0
   36.2380   19.1020   29.9660 H   0  0  0  0  0  0  0  0  0  0  0  0
   35.0920   21.1780   30.6110 H   0  0  0  0  0  0  0  0  0  0  0  0
   36.2330   23.2920   31.4540 C   0  0  0  0  0  0  0  0  0  0  0  0
   34.9400   23.7980   31.3300 C   0  0  0  0  0  0  0  0  0  0  0  0
   34.7960   25.1390   31.0020 C   0  0  0  0  0  0  0  0  0  0  0  0
   35.9360   25.8900   30.8190 N   0  0  0  0  0  0  0  0  0  0  0  0
   37.1450   25.3690   30.9470 C   0  0  0  0  0  0  0  0  0  0  0  0
   37.2890   24.0870   31.2600 N   0  0  0  0  0  0  0  0  0  0  0  0
   34.1410   23.1180   31.4960 H   0  0  0  0  0  0  0  0  0  0  0  0
   33.8110   25.5460   30.9010 H   0  0  0  0  0  0  0  0  0  0  0  0
   38.2690   26.2130   30.7400 N   0  0  0  0  0  0  0  0  0  0  0  0
   39.2330   25.8180   30.8370 H   0  0  0  0  0  0  0  0  0  0  0  0
   38.0670   27.8780   30.3330 S   0  0  0  0  0  0  0  0  0  0  0  0
   39.3900   28.4400   29.9430 O   0  0  0  0  0  1  0  0  0  0  0  0
   37.6020   28.6510   31.5520 O   0  0  0  0  0  1  0  0  0  0  0  0
   36.9680   28.0450   29.0790 O   0  0  0  0  0  0  0  0  0  0  0  0
   36.9950   27.2200   28.5300 H   0  0  0  0  0  0  0  0  0  0  0  0
   35.3040   19.8570   32.3450 C   0  0  0  0  0  0  0  0  0  0  0  0
   34.0040   19.5440   31.9280 F   0  0  0  0  0  0  0  0  0  0  0  0
   35.1030   20.5400   33.5240 F   0  0  0  0  0  0  0  0  0  0  0  0
   35.9290   18.6780   32.5010 F   0  0  0  0  0  0  0  0  0  0  0  0
  1  2  1  0  0  0  0
  2  7  1  0  0  0  0
  2  8  1  0  0  0  0
  3  2  1  0  0  0  0
  3  9  1  0  0  0  0
  4 12  1  0  0  0  0
  4  3  1  0  0  0  0
  5  4  1  0  0  0  0
  5  6  1  0  0  0  0
  6 15  1  6  0  0  0
  6  1  1  0  0  0  0
  6 31  1  0  0  0  0
 10  3  1  0  0  0  0
 11  4  1  0  0  0  0
 13  5  1  0  0  0  0
 14  5  1  0  0  0  0
 16  1  1  0  0  0  0
 17 16  1  0  0  0  0
 17 22  1  0  0  0  0
 18 17  2  0  0  0  0
 19 20  2  0  0  0  0
 19 18  1  0  0  0  0
 20 21  1  0  0  0  0
 21 16  2  0  0  0  0
 23 18  1  0  0  0  0
 24 25  1  0  0  0  0
 24 20  1  0  0  0  0
 26 24  1  0  0  0  0
 26 28  1  0  0  0  0
 27 26  1  0  0  0  0
 29 26  1  0  0  0  0
 30 29  1  0  0  0  0
 31 34  1  0  0  0  0
 31 33  1  0  0  0  0
 32 31  1  0  0  0  0
M  END
>  <minimizedAffinity>
-5.02761602

$$$$

 OpenBabel03262522003D

 34 35  0  0  1  0  0  0  0  0999 V2000
   36.7790   21.2800   31.9560 N   0  0  0  0  0  0  0  0  0  0  0  0
   37.7750   20.4460   32.5310 C   0  0  0  0  0  0  0  0  0  0  0  0
   38.3770   19.4010   31.6860 C   0  0  0  0  0  0  0  0  0  0  0  0
   37.5960   18.8950   30.5280 C   0  0  0  0  0  0  0  0  0  0  0  0
   36.4750   19.7760   30.0780 C   0  0  0  0  0  0  0  0  0  0  0  0
   35.8160   20.4630   31.2880 C   0  0  1  0  0  0  0  0  0  0  0  0
   38.5680   21.1770   32.8770 H   0  0  0  0  0  0  0  0  0  0  0  0
   37.4930   19.9890   33.5260 H   0  0  0  0  0  0  0  0  0  0  0  0
   38.6240   18.4790   32.2950 H   0  0  0  0  0  0  0  0  0  0  0  0
   39.4090   19.7360   31.3770 H   0  0  0  0  0  0  0  0  0  0  0  0
   38.2850   18.8880   29.6310 H   0  0  0  0  0  0  0  0  0  0  0  0
   37.3470   17.7990   30.5710 H   0  0  0  0  0  0  0  0  0  0  0  0
   36.8660   20.6250   29.4780 H   0  0  0  0  0  0  0  0  0  0  0  0
   35.7320   19.1880   29.5150 H   0  0  0  0  0  0  0  0  0  0  0  0
   35.1120   21.1810   30.8130 H   0  0  0  0  0  0  0  0  0  0  0  0
   36.7390   22.7160   32.0290 C   0  0  0  0  0  0  0  0  0  0  0  0
   35.9170   23.5310   31.2540 C   0  0  0  0  0  0  0  0  0  0  0  0
   35.9960   24.9040   31.4460 C   0  0  0  0  0  0  0  0  0  0  0  0
   36.8800   25.3780   32.3880 N   0  0  0  0  0  0  0  0  0  0  0  0
   37.6440   24.5670   33.1020 C   0  0  0  0  0  0  0  0  0  0  0  0
   37.5720   23.2550   32.9230 N   0  0  0  0  0  0  0  0  0  0  0  0
   35.2750   23.0450   30.5600 H   0  0  0  0  0  0  0  0  0  0  0  0
   35.3720   25.5470   30.8600 H   0  0  0  0  0  0  0  0  0  0  0  0
   38.5310   25.1400   34.0540 N   0  0  0  0  0  0  0  0  0  0  0  0
   39.1420   24.5140   34.6280 H   0  0  0  0  0  0  0  0  0  0  0  0
   38.6130   26.8480   34.2760 S   0  0  0  0  0  0  0  0  0  0  0  0
   39.4850   27.4290   33.2160 O   0  0  0  0  0  1  0  0  0  0  0  0
   39.2700   27.1620   35.6060 O   0  0  0  0  0  1  0  0  0  0  0  0
   37.0810   27.5230   34.2060 O   0  0  0  0  0  0  0  0  0  0  0  0
   36.5150   26.9500   33.6290 H   0  0  0  0  0  0  0  0  0  0  0  0
   35.1450   19.4130   32.1050 C   0  0  0  0  0  0  0  0  0  0  0  0
   33.7710   19.5690   31.8840 F   0  0  0  0  0  0  0  0  0  0  0  0
   35.2860   19.7000   33.4450 F   0  0  0  0  0  0  0  0  0  0  0  0
   35.4200   18.1340   31.7930 F   0  0  0  0  0  0  0  0  0  0  0  0
  1 16  1  0  0  0  0
  1  2  1  0  0  0  0
  2  7  1  0  0  0  0
  2  8  1  0  0  0  0
  3  9  1  0  0  0  0
  3  2  1  0  0  0  0
  4 12  1  0  0  0  0
  4  3  1  0  0  0  0
  5  4  1  0  0  0  0
  5  6  1  0  0  0  0
  6 15  1  6  0  0  0
  6  1  1  0  0  0  0
  6 31  1  0  0  0  0
 10  3  1  0  0  0  0
 11  4  1  0  0  0  0
 13  5  1  0  0  0  0
 14  5  1  0  0  0  0
 16 21  1  0  0  0  0
 17 18  1  0  0  0  0
 17 16  2  0  0  0  0
 18 19  2  0  0  0  0
 19 20  1  0  0  0  0
 20 24  1  0  0  0  0
 21 20  2  0  0  0  0
 22 17  1  0  0  0  0
 23 18  1  0  0  0  0
 24 26  1  0  0  0  0
 24 25  1  0  0  0  0
 26 28  1  0  0  0  0
 27 26  1  0  0  0  0
 29 26  1  0  0  0  0
 30 29  1  0  0  0  0
 31 33  1  0  0  0  0
 32 31  1  0  0  0  0
 34 31  1  0  0  0  0
M  END
>  <minimizedAffinity>
-4.97788715

$$$$

 OpenBabel03262522003D

 34 35  0  0  1  0  0  0  0  0999 V2000
   38.9080   25.6250   34.5430 N   0  0  0  0  0  0  0  0  0  0  0  0
   40.2530   25.6820   34.9940 C   0  0  0  0  0  0  0  0  0  0  0  0
   41.0300   24.4310   35.0150 C   0  0  0  0  0  0  0  0  0  0  0  0
   40.2920   23.1450   35.1120 C   0  0  0  0  0  0  0  0  0  0  0  0
   38.8430   23.2110   34.7510 C   0  0  0  0  0  0  0  0  0  0  0  0
   38.2390   24.5510   35.2050 C   0  0  1  0  0  0  0  0  0  0  0  0
   40.7370   26.4320   34.2970 H   0  0  0  0  0  0  0  0  0  0  0  0
   40.4010   26.2160   35.9790 H   0  0  0  0  0  0  0  0  0  0  0  0
   41.7530   24.4180   35.8860 H   0  0  0  0  0  0  0  0  0  0  0  0
   41.7460   24.4340   34.1430 H   0  0  0  0  0  0  0  0  0  0  0  0
   40.7150   22.4510   34.3260 H   0  0  0  0  0  0  0  0  0  0  0  0
   40.5240   22.5380   36.0300 H   0  0  0  0  0  0  0  0  0  0  0  0
   38.7180   23.2290   33.6480 H   0  0  0  0  0  0  0  0  0  0  0  0
   38.3000   22.3670   35.2070 H   0  0  0  0  0  0  0  0  0  0  0  0
   37.2210   24.5290   34.7590 H   0  0  0  0  0  0  0  0  0  0  0  0
   38.3070   26.5030   33.5750 C   0  0  0  0  0  0  0  0  0  0  0  0
   37.1500   27.2510   33.7860 C   0  0  0  0  0  0  0  0  0  0  0  0
   36.6970   28.0550   32.7490 C   0  0  0  0  0  0  0  0  0  0  0  0
   37.4150   28.0660   31.5740 N   0  0  0  0  0  0  0  0  0  0  0  0
   38.5090   27.3380   31.4160 C   0  0  0  0  0  0  0  0  0  0  0  0
   38.9460   26.5690   32.4040 N   0  0  0  0  0  0  0  0  0  0  0  0
   36.6850   27.1580   34.7370 H   0  0  0  0  0  0  0  0  0  0  0  0
   35.8100   28.6370   32.8920 H   0  0  0  0  0  0  0  0  0  0  0  0
   39.1910   27.4080   30.1710 N   0  0  0  0  0  0  0  0  0  0  0  0
   40.0580   26.8390   30.0280 H   0  0  0  0  0  0  0  0  0  0  0  0
   38.6100   28.4130   28.8950 S   0  0  0  0  0  0  0  0  0  0  0  0
   39.2940   28.0240   27.6290 O   0  0  0  0  0  1  0  0  0  0  0  0
   38.9810   29.8570   29.1700 O   0  0  0  0  0  1  0  0  0  0  0  0
   36.9500   28.2550   28.7330 O   0  0  0  0  0  0  0  0  0  0  0  0
   36.6920   27.3490   29.0420 H   0  0  0  0  0  0  0  0  0  0  0  0
   38.2420   24.5770   36.6960 C   0  0  0  0  0  0  0  0  0  0  0  0
   36.9800   24.1180   37.0940 F   0  0  0  0  0  0  0  0  0  0  0  0
   38.2620   25.8800   37.1420 F   0  0  0  0  0  0  0  0  0  0  0  0
   39.1300   23.7790   37.3140 F   0  0  0  0  0  0  0  0  0  0  0  0
  1  2  1  0  0  0  0
  1  6  1  0  0  0  0
  2  3  1  0  0  0  0
  2  8  1  0  0  0  0
  3  4  1  0  0  0  0
  3  9  1  0  0  0  0
  4 12  1  0  0  0  0
  5  4  1  0  0  0  0
  5  6  1  0  0  0  0
  5 14  1  0  0  0  0
  6 15  1  6  0  0  0
  6 31  1  0  0  0  0
  7  2  1  0  0  0  0
 10  3  1  0  0  0  0
 11  4  1  0  0  0  0
 13  5  1  0  0  0  0
 16 17  1  0  0  0  0
 16  1  1  0  0  0  0
 17 22  1  0  0  0  0
 18 23  1  0  0  0  0
 18 17  2  0  0  0  0
 19 18  1  0  0  0  0
 20 19  2  0  0  0  0
 20 21  1  0  0  0  0
 21 16  2  0  0  0  0
 24 20  1  0  0  0  0
 25 24  1  0  0  0  0
 26 28  1  0  0  0  0
 26 24  1  0  0  0  0
 27 26  1  0  0  0  0
 29 26  1  0  0  0  0
 29 30  1  0  0  0  0
 31 32  1  0  0  0  0
 31 33  1  0  0  0  0
 31 34  1  0  0  0  0
M  END
>  <minimizedAffinity>
-4.91670275

$$$$
