
 OpenBabel03272503063D

 30 31  0  0  0  0  0  0  0  0999 V2000
   38.5410   30.4080   47.2900 F   0  0  0  0  0  0  0  0  0  0  0  0
   38.7820   31.6470   47.7850 C   0  0  0  0  0  0  0  0  0  0  0  0
   38.1570   32.0750   48.9290 C   0  0  0  0  0  0  0  0  0  0  0  0
   38.4490   33.3330   49.3670 C   0  0  0  0  0  0  0  0  0  0  0  0
   39.3280   34.1660   48.7120 C   0  0  0  0  0  0  0  0  0  0  0  0
   39.9460   33.7210   47.5640 C   0  0  0  0  0  0  0  0  0  0  0  0
   39.6750   32.4520   47.0900 C   0  0  0  0  0  0  0  0  0  0  0  0
   37.9610   33.6740   50.2680 H   0  0  0  0  0  0  0  0  0  0  0  0
   39.5670   35.1650   49.0500 H   0  0  0  0  0  0  0  0  0  0  0  0
   40.6610   34.2880   46.9560 H   0  0  0  0  0  0  0  0  0  0  0  0
   36.6500   29.5580   51.3180 C   0  0  0  0  0  0  0  0  0  0  0  0
   37.5630   30.4350   50.7210 C   0  0  0  0  0  0  0  0  0  0  0  0
   37.2370   31.1520   49.5820 C   0  0  0  0  0  0  0  0  0  0  0  0
   35.9740   30.9470   49.0860 N   0  0  0  0  0  0  0  0  0  0  0  0
   35.1090   30.1020   49.6690 C   0  0  0  0  0  0  0  0  0  0  0  0
   35.4400   29.4160   50.7700 N   0  0  0  0  0  0  0  0  0  0  0  0
   36.9750   29.0460   52.1880 H   0  0  0  0  0  0  0  0  0  0  0  0
   38.5610   30.5750   51.1420 H   0  0  0  0  0  0  0  0  0  0  0  0
   34.1070   29.9520   49.2580 H   0  0  0  0  0  0  0  0  0  0  0  0
   39.6060   32.2980   44.7000 C   0  0  0  0  0  0  0  0  0  0  0  0
   38.5280   32.9470   44.8700 O   0  0  0  0  0  0  0  0  0  0  0  0
   40.2950   31.9460   45.8990 N   0  0  0  0  0  0  0  0  0  0  0  0
   41.1540   31.3710   45.7840 H   0  0  0  0  0  0  0  0  0  0  0  0
   40.0700   31.9620   43.3960 N   0  0  0  0  0  0  0  0  0  0  0  0
   41.0630   31.6430   43.2780 H   0  0  0  0  0  0  0  0  0  0  0  0
   39.0680   32.0560   41.9910 S   0  0  0  0  0  0  0  0  0  0  0  0
   39.6850   31.2780   40.8920 O   0  0  0  0  0  1  0  0  0  0  0  0
   38.9260   33.4930   41.5400 O   0  0  0  0  0  1  0  0  0  0  0  0
   37.5200   31.5240   42.3880 O   0  0  0  0  0  0  0  0  0  0  0  0
   37.0750   31.0790   41.6200 H   0  0  0  0  0  0  0  0  0  0  0  0
  1  2  1  0  0  0  0
  2  3  1  0  0  0  0
  3  4  2  0  0  0  0
  3 13  1  0  0  0  0
  4  8  1  0  0  0  0
  5  9  1  0  0  0  0
  5  4  1  0  0  0  0
  6  5  2  0  0  0  0
  7  6  1  0  0  0  0
  7  2  2  0  0  0  0
 10  6  1  0  0  0  0
 11 17  1  0  0  0  0
 12 18  1  0  0  0  0
 12 11  2  0  0  0  0
 13 12  1  0  0  0  0
 14 13  2  0  0  0  0
 14 15  1  0  0  0  0
 15 16  2  0  0  0  0
 16 11  1  0  0  0  0
 19 15  1  0  0  0  0
 20 21  2  0  0  0  0
 20 22  1  0  0  0  0
 22  7  1  0  0  0  0
 23 22  1  0  0  0  0
 24 20  1  0  0  0  0
 25 24  1  0  0  0  0
 26 29  1  0  0  0  0
 26 24  1  0  0  0  0
 27 26  1  0  0  0  0
 28 26  1  0  0  0  0
 30 29  1  0  0  0  0
M  END
>  <minimizedAffinity>
-6.19405127

>  <minimizedRMSD>
0.574287772

$$$$
