
 OpenBabel03272510323D

 26 27  0  0  0  0  0  0  0  0999 V2000
   30.9630   28.1980   46.1990 C   0  0  0  0  0  0  0  0  0  0  0  0
   29.9890   27.4990   45.5580 C   0  0  0  0  0  0  0  0  0  0  0  0
   29.2220   26.5380   46.1710 C   0  0  0  0  0  0  0  0  0  0  0  0
   29.4690   26.2890   47.4960 C   0  0  0  0  0  0  0  0  0  0  0  0
   30.4450   26.9720   48.1840 C   0  0  0  0  0  0  0  0  0  0  0  0
   31.2000   27.9340   47.5370 C   0  0  0  0  0  0  0  0  0  0  0  0
   29.7840   27.6900   44.5010 H   0  0  0  0  0  0  0  0  0  0  0  0
   28.4520   26.0070   45.6070 H   0  0  0  0  0  0  0  0  0  0  0  0
   28.8440   25.5220   47.9520 H   0  0  0  0  0  0  0  0  0  0  0  0
   30.5490   26.6910   49.2210 H   0  0  0  0  0  0  0  0  0  0  0  0
   32.1010   31.4600   45.0690 C   0  0  0  0  0  0  0  0  0  0  0  0
   33.0430   31.1830   44.0820 C   0  0  0  0  0  0  0  0  0  0  0  0
   33.2850   29.8280   43.8060 C   0  0  0  0  0  0  0  0  0  0  0  0
   32.6090   28.8600   44.4950 N   0  0  0  0  0  0  0  0  0  0  0  0
   31.7010   29.1960   45.4490 C   0  0  0  0  0  0  0  0  0  0  0  0
   31.4460   30.5020   45.7380 N   0  0  0  0  0  0  0  0  0  0  0  0
   31.9250   32.5060   45.2710 H   0  0  0  0  0  0  0  0  0  0  0  0
   33.5950   31.9140   43.5180 H   0  0  0  0  0  0  0  0  0  0  0  0
   34.0020   29.5120   43.0520 H   0  0  0  0  0  0  0  0  0  0  0  0
   32.1940   28.6200   48.2480 N   0  0  0  0  0  0  0  0  0  0  0  0
   31.8980   29.4290   48.8720 H   0  0  0  0  0  0  0  0  0  0  0  0
   33.8770   28.4670   48.3650 S   0  0  0  0  0  0  0  0  0  0  0  0
   34.6690   29.3660   47.4700 O   0  0  0  0  0  1  0  0  0  0  0  0
   34.2590   27.0320   48.2140 O   0  0  0  0  0  1  0  0  0  0  0  0
   34.3000   28.9270   49.9480 O   0  0  0  0  0  0  0  0  0  0  0  0
   33.7220   29.6980   50.2390 H   0  0  0  0  0  0  0  0  0  0  0  0
  1  6  1  0  0  0  0
  2  3  1  0  0  0  0
  2  1  2  0  0  0  0
  3  4  2  0  0  0  0
  4  9  1  0  0  0  0
  4  5  1  0  0  0  0
  5 10  1  0  0  0  0
  6  5  2  0  0  0  0
  6 20  1  0  0  0  0
  7  2  1  0  0  0  0
  8  3  1  0  0  0  0
 11 17  1  0  0  0  0
 11 16  1  0  0  0  0
 12 11  2  0  0  0  0
 13 12  1  0  0  0  0
 13 14  2  0  0  0  0
 14 15  1  0  0  0  0
 15 16  2  0  0  0  0
 15  1  1  0  0  0  0
 18 12  1  0  0  0  0
 19 13  1  0  0  0  0
 20 22  1  0  0  0  0
 20 21  1  0  0  0  0
 22 25  1  0  0  0  0
 23 22  1  0  0  0  0
 24 22  1  0  0  0  0
 25 26  1  0  0  0  0
M  END
>  <minimizedAffinity>
-2.76467299

>  <minimizedRMSD>
6.14519739

$$$$
