
 OpenBabel03272506113D

 42 44  0  0  1  0  0  0  0  0999 V2000
   37.8280   30.7910   48.6140 C   0  0  1  0  0  0  0  0  0  0  0  0
   37.8370   30.4720   50.1810 C   0  0  0  0  0  0  0  0  0  0  0  0
   37.2820   29.0780   50.4510 C   0  0  0  0  0  0  0  0  0  0  0  0
   36.0400   28.8400   49.6400 C   0  0  0  0  0  0  0  0  0  0  0  0
   35.4790   30.1620   49.2990 C   0  0  0  0  0  0  0  0  0  0  0  0
   36.3750   30.8590   48.3020 C   0  0  2  0  0  0  0  0  0  0  0  0
   38.1310   29.8430   48.3040 H   0  0  0  0  0  0  0  0  0  0  0  0
   37.2220   31.2010   50.6940 H   0  0  0  0  0  0  0  0  0  0  0  0
   38.8740   30.5500   50.5270 H   0  0  0  0  0  0  0  0  0  0  0  0
   38.0560   28.3220   50.1860 H   0  0  0  0  0  0  0  0  0  0  0  0
   37.0570   29.0450   51.5240 H   0  0  0  0  0  0  0  0  0  0  0  0
   36.2270   28.1590   48.8060 H   0  0  0  0  0  0  0  0  0  0  0  0
   35.3130   28.3090   50.2990 H   0  0  0  0  0  0  0  0  0  0  0  0
   34.4850   30.1190   48.8250 H   0  0  0  0  0  0  0  0  0  0  0  0
   35.3140   30.7120   50.2440 H   0  0  0  0  0  0  0  0  0  0  0  0
   36.0150   31.8690   48.4710 H   0  0  0  0  0  0  0  0  0  0  0  0
   38.9650   32.5070   47.2580 C   0  0  0  0  0  0  0  0  0  0  0  0
   39.6110   33.7300   47.2370 C   0  0  0  0  0  0  0  0  0  0  0  0
   39.8470   34.4990   48.3580 C   0  0  0  0  0  0  0  0  0  0  0  0
   39.4260   34.0550   49.5940 C   0  0  0  0  0  0  0  0  0  0  0  0
   38.7940   32.8550   49.6110 C   0  0  0  0  0  0  0  0  0  0  0  0
   38.5330   32.0350   48.4950 C   0  0  0  0  0  0  0  0  0  0  0  0
   39.9680   34.1540   46.2820 H   0  0  0  0  0  0  0  0  0  0  0  0
   40.3730   35.4560   48.2020 H   0  0  0  0  0  0  0  0  0  0  0  0
   39.6510   34.7150   50.3890 H   0  0  0  0  0  0  0  0  0  0  0  0
   38.5420   32.6630   50.6490 H   0  0  0  0  0  0  0  0  0  0  0  0
   39.6190   30.6670   45.8190 C   0  0  0  0  0  0  0  0  0  0  0  0
   38.8200   31.8370   46.0140 C   0  0  0  0  0  0  0  0  0  0  0  0
   37.9900   32.2040   44.9800 C   0  0  0  0  0  0  0  0  0  0  0  0
   37.9580   31.4630   43.8520 N   0  0  0  0  0  0  0  0  0  0  0  0
   38.7440   30.3400   43.6980 C   0  0  0  0  0  0  0  0  0  0  0  0
   39.5980   29.9290   44.7030 N   0  0  0  0  0  0  0  0  0  0  0  0
   40.3160   30.2340   46.5210 H   0  0  0  0  0  0  0  0  0  0  0  0
   37.3770   33.0390   44.8470 H   0  0  0  0  0  0  0  0  0  0  0  0
   38.7040   29.7560   42.7790 H   0  0  0  0  0  0  0  0  0  0  0  0
   36.0580   30.5250   46.9450 N   0  0  0  0  0  0  0  0  0  0  0  0
   36.7180   29.7150   46.7080 H   0  0  0  0  0  0  0  0  0  0  0  0
   34.5310   29.9820   46.5370 S   0  0  0  0  0  0  0  0  0  0  0  0
   33.5270   30.7520   47.3470 O   0  0  0  0  0  0  0  0  0  0  0  0
   34.1520   30.3400   45.0990 O   0  0  0  0  0  0  0  0  0  0  0  0
   34.2360   28.3720   46.8360 O   0  0  0  0  0  0  0  0  0  0  0  0
   34.2310   27.8220   45.9880 H   0  0  0  0  0  0  0  0  0  0  0  0
  1  7  1  6  0  0  0
  1  2  1  0  0  0  0
  2  3  1  0  0  0  0
  2  9  1  0  0  0  0
  2  8  1  0  0  0  0
  3 11  1  0  0  0  0
  4 13  1  0  0  0  0
  4  3  1  0  0  0  0
  5  4  1  0  0  0  0
  5 15  1  0  0  0  0
  6 16  1  1  0  0  0
  6  1  1  0  0  0  0
  6  5  1  0  0  0  0
 10  3  1  0  0  0  0
 12  4  1  0  0  0  0
 14  5  1  0  0  0  0
 17 22  1  0  0  0  0
 18 17  2  0  0  0  0
 18 19  1  0  0  0  0
 19 20  2  0  0  0  0
 20 21  1  0  0  0  0
 20 25  1  0  0  0  0
 21 26  1  0  0  0  0
 22  1  1  0  0  0  0
 22 21  2  0  0  0  0
 23 18  1  0  0  0  0
 24 19  1  0  0  0  0
 27 28  1  0  0  0  0
 27 33  1  0  0  0  0
 28 17  1  0  0  0  0
 29 28  2  0  0  0  0
 30 29  1  0  0  0  0
 31 30  2  0  0  0  0
 31 32  1  0  0  0  0
 32 27  2  0  0  0  0
 34 29  1  0  0  0  0
 35 31  1  0  0  0  0
 36  6  1  0  0  0  0
 37 36  1  0  0  0  0
 38 41  1  0  0  0  0
 38 36  1  0  0  0  0
 38 39  1  0  0  0  0
 40 38  1  0  0  0  0
 42 41  1  0  0  0  0
M  END
>  <minimizedAffinity>
-6.76119423

>  <minimizedRMSD>
3.09207249

$$$$
