
 OpenBabel03262523233D

 38 40  0  0  1  0  0  0  0  0999 V2000
   39.6890   33.1300   44.7490 C   0  0  0  0  0  0  0  0  0  0  0  0
   40.5850   32.1350   44.3550 C   0  0  0  0  0  0  0  0  0  0  0  0
   40.6510   30.9900   45.1180 C   0  0  0  0  0  0  0  0  0  0  0  0
   39.8360   30.9070   46.2010 N   0  0  0  0  0  0  0  0  0  0  0  0
   38.9790   31.8760   46.5650 C   0  0  0  0  0  0  0  0  0  0  0  0
   38.9050   32.9830   45.8410 N   0  0  0  0  0  0  0  0  0  0  0  0
   38.1530   31.6920   47.7420 N   0  0  0  0  0  0  0  0  0  0  0  0
   38.0010   32.7730   48.6800 C   0  0  0  0  0  0  0  0  0  0  0  0
   37.7790   32.2910   50.0930 C   0  0  0  0  0  0  0  0  0  0  0  0
   38.3080   30.8830   50.1940 C   0  0  0  0  0  0  0  0  0  0  0  0
   37.3620   30.0300   49.3810 C   0  0  0  0  0  0  0  0  0  0  0  0
   37.4970   30.3970   47.9460 C   0  0  1  0  0  0  0  0  0  0  0  0
   39.6490   34.0310   44.1360 H   0  0  0  0  0  0  0  0  0  0  0  0
   41.2350   32.1930   43.4990 H   0  0  0  0  0  0  0  0  0  0  0  0
   41.3050   30.1230   44.9350 H   0  0  0  0  0  0  0  0  0  0  0  0
   37.2730   33.5420   48.3890 H   0  0  0  0  0  0  0  0  0  0  0  0
   38.9970   33.3030   48.6940 H   0  0  0  0  0  0  0  0  0  0  0  0
   36.6760   32.2540   50.2360 H   0  0  0  0  0  0  0  0  0  0  0  0
   38.2020   32.9760   50.8470 H   0  0  0  0  0  0  0  0  0  0  0  0
   38.2730   30.5270   51.2520 H   0  0  0  0  0  0  0  0  0  0  0  0
   39.3270   30.8780   49.7890 H   0  0  0  0  0  0  0  0  0  0  0  0
   36.3790   30.2070   49.8430 H   0  0  0  0  0  0  0  0  0  0  0  0
   37.6750   28.9740   49.5680 H   0  0  0  0  0  0  0  0  0  0  0  0
   38.2050   29.6710   47.4560 H   0  0  0  0  0  0  0  0  0  0  0  0
   36.2370   30.3040   47.2000 C   0  0  0  0  0  0  0  0  0  0  0  0
   34.9380   30.1920   47.7150 C   0  0  0  0  0  0  0  0  0  0  0  0
   33.9050   30.1310   46.8410 C   0  0  0  0  0  0  0  0  0  0  0  0
   34.1910   30.1840   45.4340 C   0  0  0  0  0  0  0  0  0  0  0  0
   36.0720   30.3290   45.4790 S   0  0  0  0  0  0  0  0  0  0  0  0
   34.6750   30.1500   48.7660 H   0  0  0  0  0  0  0  0  0  0  0  0
   32.8650   30.0490   46.9570 H   0  0  0  0  0  0  0  0  0  0  0  0
   33.5440   30.1610   44.2260 N   0  0  0  0  0  0  0  0  0  0  0  0
   33.4510   29.2950   43.6700 H   0  0  0  0  0  0  0  0  0  0  0  0
   32.8190   31.4880   43.4720 S   0  0  0  0  0  0  0  0  0  0  0  0
   31.6370   31.9330   44.2800 O   0  0  0  0  0  0  0  0  0  0  0  0
   32.3050   31.1720   42.0920 O   0  0  0  0  0  0  0  0  0  0  0  0
   33.8540   32.8120   43.3460 O   0  0  0  0  0  0  0  0  0  0  0  0
   34.7840   32.5090   43.2800 H   0  0  0  0  0  0  0  0  0  0  0  0
  1  6  1  0  0  0  0
  2  1  2  0  0  0  0
  2  3  1  0  0  0  0
  3  4  2  0  0  0  0
  4  5  1  0  0  0  0
  5  7  1  0  0  0  0
  6  5  2  0  0  0  0
  7 12  1  0  0  0  0
  7  8  1  0  0  0  0
  8 17  1  0  0  0  0
  8  9  1  0  0  0  0
  9 10  1  0  0  0  0
  9 18  1  0  0  0  0
  9 19  1  0  0  0  0
 10 20  1  0  0  0  0
 11 23  1  0  0  0  0
 11 22  1  0  0  0  0
 11 10  1  0  0  0  0
 12 24  1  6  0  0  0
 12 11  1  0  0  0  0
 13  1  1  0  0  0  0
 14  2  1  0  0  0  0
 15  3  1  0  0  0  0
 16  8  1  0  0  0  0
 21 10  1  0  0  0  0
 25 26  2  0  0  0  0
 25 12  1  0  0  0  0
 26 30  1  0  0  0  0
 27 31  1  0  0  0  0
 27 26  1  0  0  0  0
 28 29  1  0  0  0  0
 28 27  2  0  0  0  0
 29 25  1  0  0  0  0
 32 28  1  0  0  0  0
 33 32  1  0  0  0  0
 34 32  1  0  0  0  0
 34 35  1  0  0  0  0
 36 34  1  0  0  0  0
 37 34  1  0  0  0  0
 38 37  1  0  0  0  0
M  END
>  <minimizedAffinity>
-5.55467796

>  <minimizedRMSD>
0.690987349

$$$$
