
 OpenBabel03272509563D

 41 43  0  0  0  0  0  0  0  0999 V2000
   38.2360   27.0250   35.3030 C   0  0  0  0  0  0  0  0  0  0  0  0
   38.7630   27.9860   35.1250 H   0  0  0  0  0  0  0  0  0  0  0  0
   37.7100   27.0110   36.2960 H   0  0  0  0  0  0  0  0  0  0  0  0
   39.2220   25.8940   35.2350 C   0  0  0  0  0  0  0  0  0  0  0  0
   39.7440   25.8630   34.2370 H   0  0  0  0  0  0  0  0  0  0  0  0
   40.0240   26.0050   35.9800 H   0  0  0  0  0  0  0  0  0  0  0  0
   38.5740   24.5700   35.4000 C   0  0  0  0  0  0  0  0  0  0  0  0
   38.1640   24.2160   36.6870 C   0  0  0  0  0  0  0  0  0  0  0  0
   37.5570   23.0190   36.9440 C   0  0  0  0  0  0  0  0  0  0  0  0
   37.3510   22.1740   35.9560 N   0  0  0  0  0  0  0  0  0  0  0  0
   37.7480   22.5150   34.6970 C   0  0  0  0  0  0  0  0  0  0  0  0
   38.3510   23.6840   34.3980 N   0  0  0  0  0  0  0  0  0  0  0  0
   38.3350   24.9150   37.5040 H   0  0  0  0  0  0  0  0  0  0  0  0
   37.2390   22.7440   37.9510 H   0  0  0  0  0  0  0  0  0  0  0  0
   37.5150   21.5850   33.6400 N   0  0  0  0  0  0  0  0  0  0  0  0
   38.2570   21.3710   32.9370 H   0  0  0  0  0  0  0  0  0  0  0  0
   36.0250   20.7460   33.4280 S   0  0  0  0  0  0  0  0  0  0  0  0
   35.0420   21.5650   32.6410 O   0  0  0  0  0  1  0  0  0  0  0  0
   36.2180   19.4660   32.6500 O   0  0  0  0  0  1  0  0  0  0  0  0
   35.4300   20.3750   34.9670 O   0  0  0  0  0  0  0  0  0  0  0  0
   35.8490   19.4980   35.2170 H   0  0  0  0  0  0  0  0  0  0  0  0
   37.2190   26.8300   34.3180 O   0  0  0  0  0  0  0  0  0  0  0  0
   36.1720   29.3690   31.9650 C   0  0  0  0  0  0  0  0  0  0  0  0
   35.5150   30.2760   32.8460 C   0  0  0  0  0  0  0  0  0  0  0  0
   35.4850   29.9380   34.1920 C   0  0  0  0  0  0  0  0  0  0  0  0
   36.0880   28.7650   34.5530 N   0  0  0  0  0  0  0  0  0  0  0  0
   36.6920   27.9400   33.7110 C   0  0  0  0  0  0  0  0  0  0  0  0
   36.7310   28.2510   32.4000 N   0  0  0  0  0  0  0  0  0  0  0  0
   36.1810   29.6580   30.9180 H   0  0  0  0  0  0  0  0  0  0  0  0
   35.0440   31.1940   32.5610 H   0  0  0  0  0  0  0  0  0  0  0  0
   36.7320   31.8790   35.9390 F   0  0  0  0  0  0  0  0  0  0  0  0
   35.4260   31.6350   36.0560 C   0  0  0  0  0  0  0  0  0  0  0  0
   34.8690   30.7270   35.2310 C   0  0  0  0  0  0  0  0  0  0  0  0
   33.4930   30.5520   35.4430 C   0  0  0  0  0  0  0  0  0  0  0  0
   32.7910   31.2400   36.3970 C   0  0  0  0  0  0  0  0  0  0  0  0
   33.4120   32.1580   37.2150 C   0  0  0  0  0  0  0  0  0  0  0  0
   34.7560   32.3480   37.0280 C   0  0  0  0  0  0  0  0  0  0  0  0
   32.9130   29.8450   34.8450 H   0  0  0  0  0  0  0  0  0  0  0  0
   31.7300   31.0950   36.5520 H   0  0  0  0  0  0  0  0  0  0  0  0
   32.8540   32.6900   37.9570 H   0  0  0  0  0  0  0  0  0  0  0  0
   35.2720   33.0660   37.6570 H   0  0  0  0  0  0  0  0  0  0  0  0
  1  3  1  0  0  0  0
  2  1  1  0  0  0  0
  4  1  1  0  0  0  0
  4  7  1  0  0  0  0
  4  6  1  0  0  0  0
  5  4  1  0  0  0  0
  7  8  1  0  0  0  0
  8  9  2  0  0  0  0
  8 13  1  0  0  0  0
  9 14  1  0  0  0  0
 10  9  1  0  0  0  0
 11 10  2  0  0  0  0
 12 11  1  0  0  0  0
 12  7  2  0  0  0  0
 15 11  1  0  0  0  0
 16 15  1  0  0  0  0
 17 15  1  0  0  0  0
 17 20  1  0  0  0  0
 18 17  1  0  0  0  0
 19 17  1  0  0  0  0
 20 21  1  0  0  0  0
 22  1  1  0  0  0  0
 23 28  2  0  0  0  0
 23 24  1  0  0  0  0
 24 25  2  0  0  0  0
 25 26  1  0  0  0  0
 25 33  1  0  0  0  0
 27 22  1  0  0  0  0
 27 26  2  0  0  0  0
 28 27  1  0  0  0  0
 29 23  1  0  0  0  0
 30 24  1  0  0  0  0
 31 32  1  0  0  0  0
 32 37  1  0  0  0  0
 33 34  1  0  0  0  0
 33 32  2  0  0  0  0
 34 35  2  0  0  0  0
 35 39  1  0  0  0  0
 35 36  1  0  0  0  0
 36 40  1  0  0  0  0
 37 36  2  0  0  0  0
 37 41  1  0  0  0  0
 38 34  1  0  0  0  0
M  END
>  <minimizedAffinity>
-6.57964468

$$$$

 OpenBabel03272509563D

 41 43  0  0  0  0  0  0  0  0999 V2000
   37.3550   27.6270   31.6340 C   0  0  0  0  0  0  0  0  0  0  0  0
   37.8530   27.4500   30.6570 H   0  0  0  0  0  0  0  0  0  0  0  0
   37.9920   28.2410   32.3260 H   0  0  0  0  0  0  0  0  0  0  0  0
   37.0320   26.3090   32.2780 C   0  0  0  0  0  0  0  0  0  0  0  0
   35.9200   26.1350   32.3220 H   0  0  0  0  0  0  0  0  0  0  0  0
   37.4370   25.4620   31.7020 H   0  0  0  0  0  0  0  0  0  0  0  0
   37.5150   26.2320   33.6780 C   0  0  0  0  0  0  0  0  0  0  0  0
   37.5280   27.4180   34.4140 C   0  0  0  0  0  0  0  0  0  0  0  0
   37.9540   27.4540   35.7120 C   0  0  0  0  0  0  0  0  0  0  0  0
   38.3650   26.3430   36.2880 N   0  0  0  0  0  0  0  0  0  0  0  0
   38.3530   25.1820   35.5730 C   0  0  0  0  0  0  0  0  0  0  0  0
   37.9410   25.1010   34.2910 N   0  0  0  0  0  0  0  0  0  0  0  0
   37.1890   28.3370   33.9380 H   0  0  0  0  0  0  0  0  0  0  0  0
   37.9640   28.3820   36.2860 H   0  0  0  0  0  0  0  0  0  0  0  0
   38.8020   23.9890   36.2160 N   0  0  0  0  0  0  0  0  0  0  0  0
   39.4490   23.3270   35.7320 H   0  0  0  0  0  0  0  0  0  0  0  0
   38.3310   23.5390   37.8110 S   0  0  0  0  0  0  0  0  0  0  0  0
   38.0910   24.7450   38.6740 O   0  0  0  0  0  1  0  0  0  0  0  0
   37.0330   22.7660   37.8050 O   0  0  0  0  0  1  0  0  0  0  0  0
   39.5560   22.5590   38.4420 O   0  0  0  0  0  0  0  0  0  0  0  0
   39.3360   21.6240   38.1490 H   0  0  0  0  0  0  0  0  0  0  0  0
   36.1500   28.3720   31.4440 O   0  0  0  0  0  0  0  0  0  0  0  0
   36.6180   31.9570   31.3450 C   0  0  0  0  0  0  0  0  0  0  0  0
   36.0550   32.3220   32.6020 C   0  0  0  0  0  0  0  0  0  0  0  0
   35.5540   31.2940   33.3910 C   0  0  0  0  0  0  0  0  0  0  0  0
   35.6460   30.0250   32.8910 N   0  0  0  0  0  0  0  0  0  0  0  0
   36.1760   29.7150   31.7180 C   0  0  0  0  0  0  0  0  0  0  0  0
   36.6670   30.6990   30.9380 N   0  0  0  0  0  0  0  0  0  0  0  0
   37.0030   32.7790   30.7480 H   0  0  0  0  0  0  0  0  0  0  0  0
   35.9850   33.3160   32.9900 H   0  0  0  0  0  0  0  0  0  0  0  0
   36.7710   32.3170   35.8090 F   0  0  0  0  0  0  0  0  0  0  0  0
   35.4920   31.9390   35.8270 C   0  0  0  0  0  0  0  0  0  0  0  0
   34.9490   31.4660   34.6890 C   0  0  0  0  0  0  0  0  0  0  0  0
   33.6020   31.0990   34.8250 C   0  0  0  0  0  0  0  0  0  0  0  0
   32.9120   31.2130   36.0020 C   0  0  0  0  0  0  0  0  0  0  0  0
   33.5170   31.7030   37.1380 C   0  0  0  0  0  0  0  0  0  0  0  0
   34.8330   32.0700   37.0320 C   0  0  0  0  0  0  0  0  0  0  0  0
   33.0350   30.6990   33.9800 H   0  0  0  0  0  0  0  0  0  0  0  0
   31.8720   30.9260   36.0950 H   0  0  0  0  0  0  0  0  0  0  0  0
   32.9690   31.7880   38.0540 H   0  0  0  0  0  0  0  0  0  0  0  0
   35.3370   32.4600   37.9100 H   0  0  0  0  0  0  0  0  0  0  0  0
  1  4  1  0  0  0  0
  1  3  1  0  0  0  0
  2  1  1  0  0  0  0
  4  5  1  0  0  0  0
  4  7  1  0  0  0  0
  6  4  1  0  0  0  0
  7 12  2  0  0  0  0
  7  8  1  0  0  0  0
  8  9  2  0  0  0  0
  9 14  1  0  0  0  0
  9 10  1  0  0  0  0
 11 15  1  0  0  0  0
 11 10  2  0  0  0  0
 12 11  1  0  0  0  0
 13  8  1  0  0  0  0
 15 17  1  0  0  0  0
 16 15  1  0  0  0  0
 17 20  1  0  0  0  0
 17 18  1  0  0  0  0
 19 17  1  0  0  0  0
 21 20  1  0  0  0  0
 22  1  1  0  0  0  0
 22 27  1  0  0  0  0
 23 24  1  0  0  0  0
 24 30  1  0  0  0  0
 24 25  2  0  0  0  0
 25 33  1  0  0  0  0
 26 25  1  0  0  0  0
 27 26  2  0  0  0  0
 28 23  2  0  0  0  0
 28 27  1  0  0  0  0
 29 23  1  0  0  0  0
 31 32  1  0  0  0  0
 32 37  1  0  0  0  0
 33 34  1  0  0  0  0
 33 32  2  0  0  0  0
 34 35  2  0  0  0  0
 35 39  1  0  0  0  0
 35 36  1  0  0  0  0
 36 40  1  0  0  0  0
 37 36  2  0  0  0  0
 37 41  1  0  0  0  0
 38 34  1  0  0  0  0
M  END
>  <minimizedAffinity>
-6.3711729

$$$$

 OpenBabel03272509563D

 41 43  0  0  0  0  0  0  0  0999 V2000
   39.3550   27.1230   32.4320 C   0  0  0  0  0  0  0  0  0  0  0  0
   39.6080   27.8540   31.6360 H   0  0  0  0  0  0  0  0  0  0  0  0
   38.4260   27.4140   32.9930 H   0  0  0  0  0  0  0  0  0  0  0  0
   40.5080   27.0030   33.3870 C   0  0  0  0  0  0  0  0  0  0  0  0
   41.4850   26.8850   32.8390 H   0  0  0  0  0  0  0  0  0  0  0  0
   40.6260   27.9080   34.0020 H   0  0  0  0  0  0  0  0  0  0  0  0
   40.3880   25.8170   34.2700 C   0  0  0  0  0  0  0  0  0  0  0  0
   41.4980   24.9740   34.3610 C   0  0  0  0  0  0  0  0  0  0  0  0
   41.4890   23.8560   35.1470 C   0  0  0  0  0  0  0  0  0  0  0  0
   40.4090   23.5620   35.8380 N   0  0  0  0  0  0  0  0  0  0  0  0
   39.3220   24.3820   35.7540 C   0  0  0  0  0  0  0  0  0  0  0  0
   39.2870   25.4940   34.9910 N   0  0  0  0  0  0  0  0  0  0  0  0
   42.3920   25.2180   33.7880 H   0  0  0  0  0  0  0  0  0  0  0  0
   42.3570   23.1990   35.2160 H   0  0  0  0  0  0  0  0  0  0  0  0
   38.1610   24.0450   36.5120 N   0  0  0  0  0  0  0  0  0  0  0  0
   37.2080   24.0890   36.0870 H   0  0  0  0  0  0  0  0  0  0  0  0
   38.2180   23.5450   38.1600 S   0  0  0  0  0  0  0  0  0  0  0  0
   38.2130   24.7240   39.0910 O   0  0  0  0  0  1  0  0  0  0  0  0
   37.0090   22.7180   38.5280 O   0  0  0  0  0  1  0  0  0  0  0  0
   39.6110   22.6070   38.3560 O   0  0  0  0  0  0  0  0  0  0  0  0
   39.3450   21.6690   38.1170 H   0  0  0  0  0  0  0  0  0  0  0  0
   39.0790   25.8440   31.8560 O   0  0  0  0  0  0  0  0  0  0  0  0
   35.5530   25.9240   31.0560 C   0  0  0  0  0  0  0  0  0  0  0  0
   35.2540   24.5310   31.0850 C   0  0  0  0  0  0  0  0  0  0  0  0
   36.3010   23.6670   31.3810 C   0  0  0  0  0  0  0  0  0  0  0  0
   37.5240   24.2300   31.6170 N   0  0  0  0  0  0  0  0  0  0  0  0
   37.7730   25.5300   31.5840 C   0  0  0  0  0  0  0  0  0  0  0  0
   36.7700   26.3840   31.2980 N   0  0  0  0  0  0  0  0  0  0  0  0
   34.7170   26.5770   30.8230 H   0  0  0  0  0  0  0  0  0  0  0  0
   34.2960   24.0930   30.9000 H   0  0  0  0  0  0  0  0  0  0  0  0
   38.0070   21.6790   30.1520 F   0  0  0  0  0  0  0  0  0  0  0  0
   36.9720   21.2860   30.8950 C   0  0  0  0  0  0  0  0  0  0  0  0
   36.1930   22.2310   31.4570 C   0  0  0  0  0  0  0  0  0  0  0  0
   35.1370   21.7030   32.2150 C   0  0  0  0  0  0  0  0  0  0  0  0
   34.9240   20.3590   32.3660 C   0  0  0  0  0  0  0  0  0  0  0  0
   35.7530   19.4350   31.7690 C   0  0  0  0  0  0  0  0  0  0  0  0
   36.7930   19.9240   31.0230 C   0  0  0  0  0  0  0  0  0  0  0  0
   34.4250   22.3560   32.7270 H   0  0  0  0  0  0  0  0  0  0  0  0
   34.1060   19.9640   32.9530 H   0  0  0  0  0  0  0  0  0  0  0  0
   35.5790   18.3860   31.8940 H   0  0  0  0  0  0  0  0  0  0  0  0
   37.4640   19.2200   30.5410 H   0  0  0  0  0  0  0  0  0  0  0  0
  1  3  1  0  0  0  0
  1  4  1  0  0  0  0
  2  1  1  0  0  0  0
  4  6  1  0  0  0  0
  4  7  1  0  0  0  0
  5  4  1  0  0  0  0
  7  8  2  0  0  0  0
  7 12  1  0  0  0  0
  8  9  1  0  0  0  0
  9 14  1  0  0  0  0
  9 10  2  0  0  0  0
 11 10  1  0  0  0  0
 11 15  1  0  0  0  0
 12 11  2  0  0  0  0
 13  8  1  0  0  0  0
 15 17  1  0  0  0  0
 16 15  1  0  0  0  0
 17 20  1  0  0  0  0
 17 19  1  0  0  0  0
 17 18  1  0  0  0  0
 21 20  1  0  0  0  0
 22  1  1  0  0  0  0
 23 24  2  0  0  0  0
 23 28  1  0  0  0  0
 24 25  1  0  0  0  0
 25 33  1  0  0  0  0
 25 26  2  0  0  0  0
 27 26  1  0  0  0  0
 27 22  1  0  0  0  0
 28 27  2  0  0  0  0
 29 23  1  0  0  0  0
 30 24  1  0  0  0  0
 31 32  1  0  0  0  0
 32 37  2  0  0  0  0
 32 33  1  0  0  0  0
 33 34  2  0  0  0  0
 34 35  1  0  0  0  0
 34 38  1  0  0  0  0
 35 39  1  0  0  0  0
 36 40  1  0  0  0  0
 36 35  2  0  0  0  0
 37 36  1  0  0  0  0
 41 37  1  0  0  0  0
M  END
>  <minimizedAffinity>
-6.15748787

$$$$

 OpenBabel03272509563D

 41 43  0  0  0  0  0  0  0  0999 V2000
   36.5310   26.6340   31.0830 C   0  0  0  0  0  0  0  0  0  0  0  0
   36.2060   27.4970   30.4640 H   0  0  0  0  0  0  0  0  0  0  0  0
   37.4870   26.1800   30.7060 H   0  0  0  0  0  0  0  0  0  0  0  0
   35.4470   25.5940   31.0980 C   0  0  0  0  0  0  0  0  0  0  0  0
   34.8260   25.6600   32.0350 H   0  0  0  0  0  0  0  0  0  0  0  0
   34.7370   25.7300   30.2680 H   0  0  0  0  0  0  0  0  0  0  0  0
   35.9890   24.2130   31.0630 C   0  0  0  0  0  0  0  0  0  0  0  0
   37.3570   24.0720   30.8210 C   0  0  0  0  0  0  0  0  0  0  0  0
   37.9550   22.8440   30.7690 C   0  0  0  0  0  0  0  0  0  0  0  0
   37.2260   21.7630   30.9510 N   0  0  0  0  0  0  0  0  0  0  0  0
   35.8890   21.8960   31.1890 C   0  0  0  0  0  0  0  0  0  0  0  0
   35.2590   23.0870   31.2480 N   0  0  0  0  0  0  0  0  0  0  0  0
   37.9600   24.9660   30.6690 H   0  0  0  0  0  0  0  0  0  0  0  0
   39.0240   22.7350   30.5790 H   0  0  0  0  0  0  0  0  0  0  0  0
   35.1170   20.7110   31.3840 N   0  0  0  0  0  0  0  0  0  0  0  0
   34.1930   20.5870   30.9140 H   0  0  0  0  0  0  0  0  0  0  0  0
   35.6230   19.4060   32.3880 S   0  0  0  0  0  0  0  0  0  0  0  0
   37.0320   18.9890   32.0770 O   0  0  0  0  0  1  0  0  0  0  0  0
   35.6170   19.7980   33.8470 O   0  0  0  0  0  1  0  0  0  0  0  0
   34.5340   18.1340   32.1520 O   0  0  0  0  0  0  0  0  0  0  0  0
   33.7830   18.2950   32.7980 H   0  0  0  0  0  0  0  0  0  0  0  0
   36.7990   27.0600   32.4210 O   0  0  0  0  0  0  0  0  0  0  0  0
   40.3620   27.0970   33.0410 C   0  0  0  0  0  0  0  0  0  0  0  0
   40.4310   26.2400   34.1780 C   0  0  0  0  0  0  0  0  0  0  0  0
   39.2330   25.7130   34.6440 C   0  0  0  0  0  0  0  0  0  0  0  0
   38.0960   26.0640   33.9710 N   0  0  0  0  0  0  0  0  0  0  0  0
   38.0610   26.8630   32.9160 C   0  0  0  0  0  0  0  0  0  0  0  0
   39.2140   27.3840   32.4490 N   0  0  0  0  0  0  0  0  0  0  0  0
   41.3120   27.4950   32.6970 H   0  0  0  0  0  0  0  0  0  0  0  0
   41.3220   25.9670   34.7010 H   0  0  0  0  0  0  0  0  0  0  0  0
   40.7050   23.2830   35.1950 F   0  0  0  0  0  0  0  0  0  0  0  0
   39.7730   23.6950   36.0560 C   0  0  0  0  0  0  0  0  0  0  0  0
   39.1020   24.8300   35.7760 C   0  0  0  0  0  0  0  0  0  0  0  0
   38.1490   25.1670   36.7490 C   0  0  0  0  0  0  0  0  0  0  0  0
   37.9270   24.4120   37.8700 C   0  0  0  0  0  0  0  0  0  0  0  0
   38.6420   23.2590   38.1070 C   0  0  0  0  0  0  0  0  0  0  0  0
   39.5810   22.9080   37.1720 C   0  0  0  0  0  0  0  0  0  0  0  0
   37.5310   26.0630   36.6500 H   0  0  0  0  0  0  0  0  0  0  0  0
   37.1880   24.6820   38.6130 H   0  0  0  0  0  0  0  0  0  0  0  0
   38.4620   22.6770   38.9860 H   0  0  0  0  0  0  0  0  0  0  0  0
   40.1610   22.0050   37.3310 H   0  0  0  0  0  0  0  0  0  0  0  0
  1  4  1  0  0  0  0
  1 22  1  0  0  0  0
  2  1  1  0  0  0  0
  3  1  1  0  0  0  0
  4  5  1  0  0  0  0
  6  4  1  0  0  0  0
  7  4  1  0  0  0  0
  7 12  1  0  0  0  0
  8  7  2  0  0  0  0
  9  8  1  0  0  0  0
  9 10  2  0  0  0  0
 10 11  1  0  0  0  0
 11 12  2  0  0  0  0
 11 15  1  0  0  0  0
 13  8  1  0  0  0  0
 14  9  1  0  0  0  0
 15 17  1  0  0  0  0
 16 15  1  0  0  0  0
 17 19  1  0  0  0  0
 18 17  1  0  0  0  0
 20 17  1  0  0  0  0
 20 21  1  0  0  0  0
 22 27  1  0  0  0  0
 23 24  1  0  0  0  0
 24 25  2  0  0  0  0
 24 30  1  0  0  0  0
 25 33  1  0  0  0  0
 26 25  1  0  0  0  0
 27 26  2  0  0  0  0
 28 27  1  0  0  0  0
 28 23  2  0  0  0  0
 29 23  1  0  0  0  0
 31 32  1  0  0  0  0
 32 37  1  0  0  0  0
 33 32  2  0  0  0  0
 33 34  1  0  0  0  0
 34 35  2  0  0  0  0
 35 36  1  0  0  0  0
 35 39  1  0  0  0  0
 36 40  1  0  0  0  0
 37 41  1  0  0  0  0
 37 36  2  0  0  0  0
 38 34  1  0  0  0  0
M  END
>  <minimizedAffinity>
-6.1120882

$$$$

 OpenBabel03272509563D

 41 43  0  0  0  0  0  0  0  0999 V2000
   37.1680   26.4460   31.8840 C   0  0  0  0  0  0  0  0  0  0  0  0
   37.6440   27.1280   31.1480 H   0  0  0  0  0  0  0  0  0  0  0  0
   37.9120   25.7480   32.3550 H   0  0  0  0  0  0  0  0  0  0  0  0
   36.0880   25.6530   31.2060 C   0  0  0  0  0  0  0  0  0  0  0  0
   35.1150   25.7180   31.7690 H   0  0  0  0  0  0  0  0  0  0  0  0
   35.8680   26.0390   30.1990 H   0  0  0  0  0  0  0  0  0  0  0  0
   36.4170   24.2090   31.1220 C   0  0  0  0  0  0  0  0  0  0  0  0
   37.6870   23.8710   30.6510 C   0  0  0  0  0  0  0  0  0  0  0  0
   38.0880   22.5690   30.5350 C   0  0  0  0  0  0  0  0  0  0  0  0
   37.2580   21.6050   30.8750 N   0  0  0  0  0  0  0  0  0  0  0  0
   36.0160   21.9310   31.3360 C   0  0  0  0  0  0  0  0  0  0  0  0
   35.5790   23.2000   31.4660 N   0  0  0  0  0  0  0  0  0  0  0  0
   38.3730   24.6680   30.3680 H   0  0  0  0  0  0  0  0  0  0  0  0
   39.0800   22.3070   30.1660 H   0  0  0  0  0  0  0  0  0  0  0  0
   35.1320   20.8710   31.7000 N   0  0  0  0  0  0  0  0  0  0  0  0
   34.1310   20.8780   31.4020 H   0  0  0  0  0  0  0  0  0  0  0  0
   35.6190   19.5130   32.6420 S   0  0  0  0  0  0  0  0  0  0  0  0
   34.8100   18.2930   32.3060 O   0  0  0  0  0  1  0  0  0  0  0  0
   37.0600   19.1440   32.3740 O   0  0  0  0  0  1  0  0  0  0  0  0
   35.4510   19.9390   34.2690 O   0  0  0  0  0  0  0  0  0  0  0  0
   36.3130   20.3840   34.5260 H   0  0  0  0  0  0  0  0  0  0  0  0
   36.6020   27.2000   32.9590 O   0  0  0  0  0  0  0  0  0  0  0  0
   36.3230   30.5350   31.5900 C   0  0  0  0  0  0  0  0  0  0  0  0
   35.7040   31.2080   32.6830 C   0  0  0  0  0  0  0  0  0  0  0  0
   35.4290   30.4510   33.8150 C   0  0  0  0  0  0  0  0  0  0  0  0
   35.7770   29.1300   33.7790 N   0  0  0  0  0  0  0  0  0  0  0  0
   36.3530   28.5300   32.7480 C   0  0  0  0  0  0  0  0  0  0  0  0
   36.6270   29.2480   31.6410 N   0  0  0  0  0  0  0  0  0  0  0  0
   36.5280   31.1500   30.7180 H   0  0  0  0  0  0  0  0  0  0  0  0
   35.4330   32.2420   32.7080 H   0  0  0  0  0  0  0  0  0  0  0  0
   36.6260   32.0440   35.9140 F   0  0  0  0  0  0  0  0  0  0  0  0
   35.3420   31.6950   36.0060 C   0  0  0  0  0  0  0  0  0  0  0  0
   34.8080   30.9540   35.0160 C   0  0  0  0  0  0  0  0  0  0  0  0
   33.4540   30.6470   35.2180 C   0  0  0  0  0  0  0  0  0  0  0  0
   32.7500   31.0630   36.3170 C   0  0  0  0  0  0  0  0  0  0  0  0
   33.3460   31.8200   37.3010 C   0  0  0  0  0  0  0  0  0  0  0  0
   34.6680   32.1350   37.1270 C   0  0  0  0  0  0  0  0  0  0  0  0
   32.8940   30.0500   34.4940 H   0  0  0  0  0  0  0  0  0  0  0  0
   31.7050   30.8190   36.4620 H   0  0  0  0  0  0  0  0  0  0  0  0
   32.7870   32.1410   38.1550 H   0  0  0  0  0  0  0  0  0  0  0  0
   35.1660   32.7310   37.8850 H   0  0  0  0  0  0  0  0  0  0  0  0
  1  3  1  0  0  0  0
  1 22  1  0  0  0  0
  2  1  1  0  0  0  0
  4  5  1  0  0  0  0
  4  1  1  0  0  0  0
  6  4  1  0  0  0  0
  7  4  1  0  0  0  0
  7 12  1  0  0  0  0
  8  7  2  0  0  0  0
  9  8  1  0  0  0  0
  9 10  2  0  0  0  0
 10 11  1  0  0  0  0
 11 12  2  0  0  0  0
 11 15  1  0  0  0  0
 13  8  1  0  0  0  0
 14  9  1  0  0  0  0
 15 17  1  0  0  0  0
 16 15  1  0  0  0  0
 17 20  1  0  0  0  0
 18 17  1  0  0  0  0
 19 17  1  0  0  0  0
 20 21  1  0  0  0  0
 23 28  2  0  0  0  0
 23 24  1  0  0  0  0
 24 30  1  0  0  0  0
 24 25  2  0  0  0  0
 25 33  1  0  0  0  0
 26 25  1  0  0  0  0
 27 22  1  0  0  0  0
 27 26  2  0  0  0  0
 28 27  1  0  0  0  0
 29 23  1  0  0  0  0
 31 32  1  0  0  0  0
 32 37  1  0  0  0  0
 33 34  1  0  0  0  0
 33 32  2  0  0  0  0
 34 35  2  0  0  0  0
 35 39  1  0  0  0  0
 35 36  1  0  0  0  0
 36 40  1  0  0  0  0
 37 36  2  0  0  0  0
 37 41  1  0  0  0  0
 38 34  1  0  0  0  0
M  END
>  <minimizedAffinity>
-6.09739351

$$$$

 OpenBabel03272509563D

 41 43  0  0  0  0  0  0  0  0999 V2000
   37.2650   27.2000   31.7040 C   0  0  0  0  0  0  0  0  0  0  0  0
   38.3530   27.0610   31.5260 H   0  0  0  0  0  0  0  0  0  0  0  0
   36.8390   28.0290   31.0770 H   0  0  0  0  0  0  0  0  0  0  0  0
   37.0290   27.4910   33.1590 C   0  0  0  0  0  0  0  0  0  0  0  0
   37.2890   28.5570   33.4120 H   0  0  0  0  0  0  0  0  0  0  0  0
   35.9690   27.3760   33.4320 H   0  0  0  0  0  0  0  0  0  0  0  0
   37.8640   26.6440   34.0460 C   0  0  0  0  0  0  0  0  0  0  0  0
   39.2210   26.9600   34.1380 C   0  0  0  0  0  0  0  0  0  0  0  0
   40.0740   26.2410   34.9270 C   0  0  0  0  0  0  0  0  0  0  0  0
   39.6100   25.2230   35.6210 N   0  0  0  0  0  0  0  0  0  0  0  0
   38.2840   24.9110   35.5350 C   0  0  0  0  0  0  0  0  0  0  0  0
   37.4070   25.5920   34.7690 N   0  0  0  0  0  0  0  0  0  0  0  0
   39.6050   27.8010   33.5630 H   0  0  0  0  0  0  0  0  0  0  0  0
   41.1340   26.4890   34.9970 H   0  0  0  0  0  0  0  0  0  0  0  0
   37.8010   23.8040   36.2950 N   0  0  0  0  0  0  0  0  0  0  0  0
   37.1590   23.0980   35.8710 H   0  0  0  0  0  0  0  0  0  0  0  0
   38.2190   23.5340   37.9450 S   0  0  0  0  0  0  0  0  0  0  0  0
   39.6390   23.0630   38.0810 O   0  0  0  0  0  1  0  0  0  0  0  0
   38.1230   24.8060   38.7530 O   0  0  0  0  0  1  0  0  0  0  0  0
   37.1290   22.4010   38.5640 O   0  0  0  0  0  0  0  0  0  0  0  0
   36.3390   22.9300   38.8860 H   0  0  0  0  0  0  0  0  0  0  0  0
   36.5500   26.0200   31.3330 O   0  0  0  0  0  0  0  0  0  0  0  0
   39.0030   23.7320   29.9820 C   0  0  0  0  0  0  0  0  0  0  0  0
   38.4700   22.4900   30.4350 C   0  0  0  0  0  0  0  0  0  0  0  0
   37.2960   22.5410   31.1770 C   0  0  0  0  0  0  0  0  0  0  0  0
   36.7590   23.7770   31.4060 N   0  0  0  0  0  0  0  0  0  0  0  0
   37.2760   24.9160   30.9710 C   0  0  0  0  0  0  0  0  0  0  0  0
   38.4150   24.8860   30.2510 N   0  0  0  0  0  0  0  0  0  0  0  0
   39.9200   23.6640   29.4040 H   0  0  0  0  0  0  0  0  0  0  0  0
   38.8920   21.5250   30.2540 H   0  0  0  0  0  0  0  0  0  0  0  0
   36.4210   20.1590   29.7860 F   0  0  0  0  0  0  0  0  0  0  0  0
   36.1910   20.2770   31.0940 C   0  0  0  0  0  0  0  0  0  0  0  0
   36.6090   21.3950   31.7180 C   0  0  0  0  0  0  0  0  0  0  0  0
   36.3140   21.4100   33.0910 C   0  0  0  0  0  0  0  0  0  0  0  0
   35.6660   20.3850   33.7260 C   0  0  0  0  0  0  0  0  0  0  0  0
   35.2600   19.2630   33.0380 C   0  0  0  0  0  0  0  0  0  0  0  0
   35.5360   19.2220   31.6970 C   0  0  0  0  0  0  0  0  0  0  0  0
   36.5950   22.2570   33.7210 H   0  0  0  0  0  0  0  0  0  0  0  0
   35.4430   20.4080   34.7850 H   0  0  0  0  0  0  0  0  0  0  0  0
   34.7540   18.4670   33.5450 H   0  0  0  0  0  0  0  0  0  0  0  0
   35.2300   18.3510   31.1280 H   0  0  0  0  0  0  0  0  0  0  0  0
  1  4  1  0  0  0  0
  2  1  1  0  0  0  0
  3  1  1  0  0  0  0
  4  5  1  0  0  0  0
  4  6  1  0  0  0  0
  4  7  1  0  0  0  0
  7  8  2  0  0  0  0
  7 12  1  0  0  0  0
  8  9  1  0  0  0  0
  9 14  1  0  0  0  0
  9 10  2  0  0  0  0
 11 10  1  0  0  0  0
 11 15  1  0  0  0  0
 12 11  2  0  0  0  0
 13  8  1  0  0  0  0
 15 17  1  0  0  0  0
 16 15  1  0  0  0  0
 17 18  1  0  0  0  0
 17 20  1  0  0  0  0
 17 19  1  0  0  0  0
 20 21  1  0  0  0  0
 22  1  1  0  0  0  0
 23 28  2  0  0  0  0
 23 24  1  0  0  0  0
 24 25  2  0  0  0  0
 25 26  1  0  0  0  0
 25 33  1  0  0  0  0
 27 22  1  0  0  0  0
 27 26  2  0  0  0  0
 28 27  1  0  0  0  0
 29 23  1  0  0  0  0
 30 24  1  0  0  0  0
 31 32  1  0  0  0  0
 32 37  2  0  0  0  0
 32 33  1  0  0  0  0
 33 34  2  0  0  0  0
 34 38  1  0  0  0  0
 34 35  1  0  0  0  0
 35 39  1  0  0  0  0
 36 40  1  0  0  0  0
 36 35  2  0  0  0  0
 37 36  1  0  0  0  0
 41 37  1  0  0  0  0
M  END
>  <minimizedAffinity>
-6.06556368

$$$$

 OpenBabel03272509563D

 41 43  0  0  0  0  0  0  0  0999 V2000
   37.6760   25.7710   34.4770 C   0  0  0  0  0  0  0  0  0  0  0  0
   37.9960   25.6000   35.5270 H   0  0  0  0  0  0  0  0  0  0  0  0
   36.5610   25.6930   34.3590 H   0  0  0  0  0  0  0  0  0  0  0  0
   38.3510   24.7740   33.5790 C   0  0  0  0  0  0  0  0  0  0  0  0
   38.9160   25.2840   32.7490 H   0  0  0  0  0  0  0  0  0  0  0  0
   39.1030   24.1790   34.1210 H   0  0  0  0  0  0  0  0  0  0  0  0
   37.3840   23.8640   32.9180 C   0  0  0  0  0  0  0  0  0  0  0  0
   36.5960   24.4020   31.8990 C   0  0  0  0  0  0  0  0  0  0  0  0
   35.6750   23.6480   31.2270 C   0  0  0  0  0  0  0  0  0  0  0  0
   35.5230   22.3800   31.5460 N   0  0  0  0  0  0  0  0  0  0  0  0
   36.2910   21.8490   32.5400 C   0  0  0  0  0  0  0  0  0  0  0  0
   37.2110   22.5560   33.2290 N   0  0  0  0  0  0  0  0  0  0  0  0
   36.7210   25.4520   31.6360 H   0  0  0  0  0  0  0  0  0  0  0  0
   35.0600   24.0720   30.4320 H   0  0  0  0  0  0  0  0  0  0  0  0
   36.1110   20.4720   32.8700 N   0  0  0  0  0  0  0  0  0  0  0  0
   36.0490   20.1600   33.8640 H   0  0  0  0  0  0  0  0  0  0  0  0
   35.9810   19.2250   31.6880 S   0  0  0  0  0  0  0  0  0  0  0  0
   36.2460   19.7490   30.3050 O   0  0  0  0  0  1  0  0  0  0  0  0
   37.0020   18.1350   31.9230 O   0  0  0  0  0  1  0  0  0  0  0  0
   34.4300   18.5660   31.8140 O   0  0  0  0  0  0  0  0  0  0  0  0
   34.4930   17.8500   32.5150 H   0  0  0  0  0  0  0  0  0  0  0  0
   38.0230   27.0940   34.0640 O   0  0  0  0  0  0  0  0  0  0  0  0
   35.7620   28.6490   31.7090 C   0  0  0  0  0  0  0  0  0  0  0  0
   35.0440   29.5180   32.5810 C   0  0  0  0  0  0  0  0  0  0  0  0
   35.4000   29.4980   33.9240 C   0  0  0  0  0  0  0  0  0  0  0  0
   36.4060   28.6480   34.2880 N   0  0  0  0  0  0  0  0  0  0  0  0
   37.0570   27.8510   33.4550 C   0  0  0  0  0  0  0  0  0  0  0  0
   36.7260   27.8560   32.1480 N   0  0  0  0  0  0  0  0  0  0  0  0
   35.4650   28.6840   30.6650 H   0  0  0  0  0  0  0  0  0  0  0  0
   34.2580   30.1820   32.2930 H   0  0  0  0  0  0  0  0  0  0  0  0
   32.6340   29.5180   34.7750 F   0  0  0  0  0  0  0  0  0  0  0  0
   33.5090   30.3320   35.3680 C   0  0  0  0  0  0  0  0  0  0  0  0
   34.7900   30.3030   34.9530 C   0  0  0  0  0  0  0  0  0  0  0  0
   35.6200   31.1990   35.6460 C   0  0  0  0  0  0  0  0  0  0  0  0
   35.1650   32.0180   36.6450 C   0  0  0  0  0  0  0  0  0  0  0  0
   33.8420   32.0070   37.0290 C   0  0  0  0  0  0  0  0  0  0  0  0
   33.0100   31.1400   36.3690 C   0  0  0  0  0  0  0  0  0  0  0  0
   36.6840   31.2810   35.4130 H   0  0  0  0  0  0  0  0  0  0  0  0
   35.8140   32.7050   37.1710 H   0  0  0  0  0  0  0  0  0  0  0  0
   33.4960   32.6510   37.8110 H   0  0  0  0  0  0  0  0  0  0  0  0
   31.9630   31.1080   36.6500 H   0  0  0  0  0  0  0  0  0  0  0  0
  1  2  1  0  0  0  0
  3  1  1  0  0  0  0
  4  6  1  0  0  0  0
  4  1  1  0  0  0  0
  5  4  1  0  0  0  0
  7 12  1  0  0  0  0
  7  4  1  0  0  0  0
  8  7  2  0  0  0  0
  9 10  2  0  0  0  0
  9  8  1  0  0  0  0
 10 11  1  0  0  0  0
 11 15  1  0  0  0  0
 11 12  2  0  0  0  0
 13  8  1  0  0  0  0
 14  9  1  0  0  0  0
 15 16  1  0  0  0  0
 17 20  1  0  0  0  0
 17 19  1  0  0  0  0
 17 15  1  0  0  0  0
 18 17  1  0  0  0  0
 20 21  1  0  0  0  0
 22  1  1  0  0  0  0
 23 28  2  0  0  0  0
 23 24  1  0  0  0  0
 24 25  2  0  0  0  0
 25 26  1  0  0  0  0
 25 33  1  0  0  0  0
 27 22  1  0  0  0  0
 27 26  2  0  0  0  0
 28 27  1  0  0  0  0
 29 23  1  0  0  0  0
 30 24  1  0  0  0  0
 31 32  1  0  0  0  0
 32 37  1  0  0  0  0
 33 32  2  0  0  0  0
 33 34  1  0  0  0  0
 34 35  2  0  0  0  0
 35 36  1  0  0  0  0
 35 39  1  0  0  0  0
 36 40  1  0  0  0  0
 37 41  1  0  0  0  0
 37 36  2  0  0  0  0
 38 34  1  0  0  0  0
M  END
>  <minimizedAffinity>
-5.97601604

$$$$

 OpenBabel03272509563D

 41 43  0  0  0  0  0  0  0  0999 V2000
   35.5920   22.9800   31.5120 C   0  0  0  0  0  0  0  0  0  0  0  0
   35.3560   23.4050   32.5110 H   0  0  0  0  0  0  0  0  0  0  0  0
   34.6660   22.7700   30.9130 H   0  0  0  0  0  0  0  0  0  0  0  0
   36.3840   21.7140   31.6820 C   0  0  0  0  0  0  0  0  0  0  0  0
   35.7170   20.8440   31.9400 H   0  0  0  0  0  0  0  0  0  0  0  0
   36.8950   21.4240   30.7510 H   0  0  0  0  0  0  0  0  0  0  0  0
   37.3750   21.8120   32.7810 C   0  0  0  0  0  0  0  0  0  0  0  0
   38.7240   21.8300   32.4240 C   0  0  0  0  0  0  0  0  0  0  0  0
   39.7150   21.9180   33.3610 C   0  0  0  0  0  0  0  0  0  0  0  0
   39.3940   21.9860   34.6360 N   0  0  0  0  0  0  0  0  0  0  0  0
   38.0770   21.9690   34.9910 C   0  0  0  0  0  0  0  0  0  0  0  0
   37.0670   21.8830   34.1000 N   0  0  0  0  0  0  0  0  0  0  0  0
   38.9900   21.7730   31.3690 H   0  0  0  0  0  0  0  0  0  0  0  0
   40.7690   21.9310   33.0800 H   0  0  0  0  0  0  0  0  0  0  0  0
   37.7500   22.0440   36.3780 N   0  0  0  0  0  0  0  0  0  0  0  0
   37.0300   21.4140   36.7970 H   0  0  0  0  0  0  0  0  0  0  0  0
   38.4930   23.1540   37.4660 S   0  0  0  0  0  0  0  0  0  0  0  0
   38.7230   24.4890   36.8170 O   0  0  0  0  0  1  0  0  0  0  0  0
   37.6150   23.4200   38.6660 O   0  0  0  0  0  1  0  0  0  0  0  0
   39.9440   22.4590   37.9860 O   0  0  0  0  0  0  0  0  0  0  0  0
   39.7060   21.8920   38.7790 H   0  0  0  0  0  0  0  0  0  0  0  0
   36.3520   23.9170   30.7450 O   0  0  0  0  0  0  0  0  0  0  0  0
   35.7230   27.3430   31.7150 C   0  0  0  0  0  0  0  0  0  0  0  0
   37.0020   27.6990   32.2360 C   0  0  0  0  0  0  0  0  0  0  0  0
   37.9870   26.7200   32.2120 C   0  0  0  0  0  0  0  0  0  0  0  0
   37.6430   25.5040   31.6900 N   0  0  0  0  0  0  0  0  0  0  0  0
   36.4460   25.2020   31.2120 C   0  0  0  0  0  0  0  0  0  0  0  0
   35.4760   26.1380   31.2280 N   0  0  0  0  0  0  0  0  0  0  0  0
   34.9720   28.1270   31.7460 H   0  0  0  0  0  0  0  0  0  0  0  0
   37.2680   28.6510   32.6430 H   0  0  0  0  0  0  0  0  0  0  0  0
   40.3060   27.6340   30.7410 F   0  0  0  0  0  0  0  0  0  0  0  0
   40.4310   27.3140   32.0290 C   0  0  0  0  0  0  0  0  0  0  0  0
   39.3360   26.8910   32.6920 C   0  0  0  0  0  0  0  0  0  0  0  0
   39.5850   26.5830   34.0380 C   0  0  0  0  0  0  0  0  0  0  0  0
   40.8210   26.7030   34.6160 C   0  0  0  0  0  0  0  0  0  0  0  0
   41.9070   27.1400   33.8900 C   0  0  0  0  0  0  0  0  0  0  0  0
   41.6910   27.4480   32.5730 C   0  0  0  0  0  0  0  0  0  0  0  0
   38.7870   26.2280   34.6940 H   0  0  0  0  0  0  0  0  0  0  0  0
   41.0000   26.4610   35.6550 H   0  0  0  0  0  0  0  0  0  0  0  0
   42.8690   27.2300   34.3510 H   0  0  0  0  0  0  0  0  0  0  0  0
   42.5280   27.7960   31.9760 H   0  0  0  0  0  0  0  0  0  0  0  0
  1  4  1  0  0  0  0
  1  2  1  0  0  0  0
  3  1  1  0  0  0  0
  4  5  1  0  0  0  0
  4  7  1  0  0  0  0
  6  4  1  0  0  0  0
  7 12  1  0  0  0  0
  8  7  2  0  0  0  0
  8  9  1  0  0  0  0
  9 10  2  0  0  0  0
 10 11  1  0  0  0  0
 11 15  1  0  0  0  0
 12 11  2  0  0  0  0
 13  8  1  0  0  0  0
 14  9  1  0  0  0  0
 15 16  1  0  0  0  0
 15 17  1  0  0  0  0
 17 20  1  0  0  0  0
 17 19  1  0  0  0  0
 18 17  1  0  0  0  0
 20 21  1  0  0  0  0
 22 27  1  0  0  0  0
 22  1  1  0  0  0  0
 23 29  1  0  0  0  0
 23 24  1  0  0  0  0
 24 30  1  0  0  0  0
 25 24  2  0  0  0  0
 25 33  1  0  0  0  0
 26 25  1  0  0  0  0
 27 28  1  0  0  0  0
 27 26  2  0  0  0  0
 28 23  2  0  0  0  0
 31 32  1  0  0  0  0
 32 37  2  0  0  0  0
 32 33  1  0  0  0  0
 33 34  2  0  0  0  0
 34 35  1  0  0  0  0
 34 38  1  0  0  0  0
 35 39  1  0  0  0  0
 36 40  1  0  0  0  0
 36 35  2  0  0  0  0
 37 36  1  0  0  0  0
 41 37  1  0  0  0  0
M  END
>  <minimizedAffinity>
-5.9393425

$$$$

 OpenBabel03272509563D

 41 43  0  0  0  0  0  0  0  0999 V2000
   41.3420   24.3140   34.3250 C   0  0  0  0  0  0  0  0  0  0  0  0
   42.3520   24.2060   33.8770 H   0  0  0  0  0  0  0  0  0  0  0  0
   40.5260   24.1050   33.5810 H   0  0  0  0  0  0  0  0  0  0  0  0
   41.1830   25.7030   34.8740 C   0  0  0  0  0  0  0  0  0  0  0  0
   41.3150   25.7210   35.9920 H   0  0  0  0  0  0  0  0  0  0  0  0
   41.9480   26.3890   34.4790 H   0  0  0  0  0  0  0  0  0  0  0  0
   39.8340   26.2630   34.6120 C   0  0  0  0  0  0  0  0  0  0  0  0
   39.2270   26.9750   35.6470 C   0  0  0  0  0  0  0  0  0  0  0  0
   37.9860   27.5300   35.5070 C   0  0  0  0  0  0  0  0  0  0  0  0
   37.3420   27.3920   34.3670 N   0  0  0  0  0  0  0  0  0  0  0  0
   37.9320   26.6980   33.3510 C   0  0  0  0  0  0  0  0  0  0  0  0
   39.1540   26.1340   33.4470 N   0  0  0  0  0  0  0  0  0  0  0  0
   39.7590   27.0880   36.5910 H   0  0  0  0  0  0  0  0  0  0  0  0
   37.5130   28.0860   36.3180 H   0  0  0  0  0  0  0  0  0  0  0  0
   37.2180   26.5610   32.1240 N   0  0  0  0  0  0  0  0  0  0  0  0
   37.1650   25.6420   31.6310 H   0  0  0  0  0  0  0  0  0  0  0  0
   36.3950   27.8660   31.3560 S   0  0  0  0  0  0  0  0  0  0  0  0
   35.0520   28.1120   31.9820 O   0  0  0  0  0  1  0  0  0  0  0  0
   37.1630   29.1590   31.4940 O   0  0  0  0  0  1  0  0  0  0  0  0
   36.2520   27.4790   29.7160 O   0  0  0  0  0  0  0  0  0  0  0  0
   37.0990   27.8030   29.2850 H   0  0  0  0  0  0  0  0  0  0  0  0
   41.1650   23.3630   35.3780 O   0  0  0  0  0  0  0  0  0  0  0  0
   38.1410   23.0720   37.3400 C   0  0  0  0  0  0  0  0  0  0  0  0
   37.2560   22.5320   36.3620 C   0  0  0  0  0  0  0  0  0  0  0  0
   37.7760   22.3100   35.0940 C   0  0  0  0  0  0  0  0  0  0  0  0
   39.0900   22.6280   34.8960 N   0  0  0  0  0  0  0  0  0  0  0  0
   39.8920   23.1290   35.8240 C   0  0  0  0  0  0  0  0  0  0  0  0
   39.4040   23.3520   37.0610 N   0  0  0  0  0  0  0  0  0  0  0  0
   37.7100   23.2350   38.3230 H   0  0  0  0  0  0  0  0  0  0  0  0
   36.2280   22.2830   36.5200 H   0  0  0  0  0  0  0  0  0  0  0  0
   35.5840   20.4200   35.1460 F   0  0  0  0  0  0  0  0  0  0  0  0
   36.0150   20.8920   33.9760 C   0  0  0  0  0  0  0  0  0  0  0  0
   37.0370   21.7710   33.9790 C   0  0  0  0  0  0  0  0  0  0  0  0
   37.4060   22.2000   32.6940 C   0  0  0  0  0  0  0  0  0  0  0  0
   36.7840   21.7650   31.5540 C   0  0  0  0  0  0  0  0  0  0  0  0
   35.7430   20.8640   31.6090 C   0  0  0  0  0  0  0  0  0  0  0  0
   35.3630   20.4290   32.8520 C   0  0  0  0  0  0  0  0  0  0  0  0
   38.2200   22.9130   32.5480 H   0  0  0  0  0  0  0  0  0  0  0  0
   37.0780   22.1020   30.5690 H   0  0  0  0  0  0  0  0  0  0  0  0
   35.2640   20.5300   30.7130 H   0  0  0  0  0  0  0  0  0  0  0  0
   34.5450   19.7200   32.9280 H   0  0  0  0  0  0  0  0  0  0  0  0
  1  4  1  0  0  0  0
  1 22  1  0  0  0  0
  2  1  1  0  0  0  0
  3  1  1  0  0  0  0
  4  5  1  0  0  0  0
  6  4  1  0  0  0  0
  7  4  1  0  0  0  0
  7  8  1  0  0  0  0
  8 13  1  0  0  0  0
  9  8  2  0  0  0  0
  9 14  1  0  0  0  0
 10  9  1  0  0  0  0
 11 12  1  0  0  0  0
 11 10  2  0  0  0  0
 12  7  2  0  0  0  0
 15 11  1  0  0  0  0
 16 15  1  0  0  0  0
 17 19  1  0  0  0  0
 17 18  1  0  0  0  0
 17 15  1  0  0  0  0
 20 17  1  0  0  0  0
 21 20  1  0  0  0  0
 22 27  1  0  0  0  0
 23 29  1  0  0  0  0
 24 30  1  0  0  0  0
 24 23  2  0  0  0  0
 25 24  1  0  0  0  0
 26 25  2  0  0  0  0
 26 27  1  0  0  0  0
 27 28  2  0  0  0  0
 28 23  1  0  0  0  0
 32 33  1  0  0  0  0
 32 31  1  0  0  0  0
 33 25  1  0  0  0  0
 34 33  2  0  0  0  0
 35 36  2  0  0  0  0
 35 34  1  0  0  0  0
 36 37  1  0  0  0  0
 37 41  1  0  0  0  0
 37 32  2  0  0  0  0
 38 34  1  0  0  0  0
 39 35  1  0  0  0  0
 40 36  1  0  0  0  0
M  END
>  <minimizedAffinity>
-5.9314065

$$$$
