
 OpenBabel03272503063D

 30 31  0  0  0  0  0  0  0  0999 V2000
   38.0990   30.0560   47.3040 F   0  0  0  0  0  0  0  0  0  0  0  0
   38.4870   31.3000   47.6790 C   0  0  0  0  0  0  0  0  0  0  0  0
   38.1120   31.8100   48.8960 C   0  0  0  0  0  0  0  0  0  0  0  0
   38.5400   33.0670   49.2060 C   0  0  0  0  0  0  0  0  0  0  0  0
   39.3160   33.8210   48.3540 C   0  0  0  0  0  0  0  0  0  0  0  0
   39.6830   33.2940   47.1360 C   0  0  0  0  0  0  0  0  0  0  0  0
   39.2680   32.0230   46.7890 C   0  0  0  0  0  0  0  0  0  0  0  0
   38.2480   33.4730   50.1630 H   0  0  0  0  0  0  0  0  0  0  0  0
   39.6610   34.8190   48.5890 H   0  0  0  0  0  0  0  0  0  0  0  0
   40.2960   33.7940   46.3760 H   0  0  0  0  0  0  0  0  0  0  0  0
   36.9260   29.6220   51.7460 C   0  0  0  0  0  0  0  0  0  0  0  0
   37.7480   30.4250   50.9470 C   0  0  0  0  0  0  0  0  0  0  0  0
   37.2900   30.9680   49.7580 C   0  0  0  0  0  0  0  0  0  0  0  0
   35.9940   30.6680   49.4210 N   0  0  0  0  0  0  0  0  0  0  0  0
   35.2180   29.8960   50.1980 C   0  0  0  0  0  0  0  0  0  0  0  0
   35.6760   29.3780   51.3450 N   0  0  0  0  0  0  0  0  0  0  0  0
   37.3510   29.2440   52.6420 H   0  0  0  0  0  0  0  0  0  0  0  0
   38.7750   30.6440   51.2440 H   0  0  0  0  0  0  0  0  0  0  0  0
   34.1870   29.6680   49.9120 H   0  0  0  0  0  0  0  0  0  0  0  0
   38.5990   31.5190   44.5430 C   0  0  0  0  0  0  0  0  0  0  0  0
   37.5140   32.0440   44.9410 O   0  0  0  0  0  0  0  0  0  0  0  0
   39.6260   31.4330   45.5300 N   0  0  0  0  0  0  0  0  0  0  0  0
   40.5060   30.9610   45.2380 H   0  0  0  0  0  0  0  0  0  0  0  0
   38.7520   31.0600   43.2040 N   0  0  0  0  0  0  0  0  0  0  0  0
   38.7300   30.0280   43.0160 H   0  0  0  0  0  0  0  0  0  0  0  0
   38.9740   32.1300   41.8650 S   0  0  0  0  0  0  0  0  0  0  0  0
   37.7360   32.1710   41.0540 O   0  0  0  0  0  1  0  0  0  0  0  0
   40.1060   31.6470   40.9860 O   0  0  0  0  0  1  0  0  0  0  0  0
   39.4320   33.6450   42.4450 O   0  0  0  0  0  0  0  0  0  0  0  0
   39.0940   34.3770   41.8690 H   0  0  0  0  0  0  0  0  0  0  0  0
  1  2  1  0  0  0  0
  2  3  1  0  0  0  0
  3  4  2  0  0  0  0
  3 13  1  0  0  0  0
  4  8  1  0  0  0  0
  5  9  1  0  0  0  0
  5  4  1  0  0  0  0
  6  5  2  0  0  0  0
  7  6  1  0  0  0  0
  7  2  2  0  0  0  0
 10  6  1  0  0  0  0
 11 17  1  0  0  0  0
 12 18  1  0  0  0  0
 12 11  2  0  0  0  0
 13 12  1  0  0  0  0
 14 13  2  0  0  0  0
 14 15  1  0  0  0  0
 15 16  2  0  0  0  0
 16 11  1  0  0  0  0
 19 15  1  0  0  0  0
 20 21  2  0  0  0  0
 20 22  1  0  0  0  0
 22  7  1  0  0  0  0
 23 22  1  0  0  0  0
 24 20  1  0  0  0  0
 25 24  1  0  0  0  0
 26 29  1  0  0  0  0
 26 24  1  0  0  0  0
 27 26  1  0  0  0  0
 28 26  1  0  0  0  0
 30 29  1  0  0  0  0
M  END
>  <minimizedAffinity>
-5.89021349

>  <minimizedRMSD>
0.805875242

$$$$
