
 OpenBabel03272510323D

 26 27  0  0  0  0  0  0  0  0999 V2000
   35.9990   30.3160   47.6420 C   0  0  0  0  0  0  0  0  0  0  0  0
   35.2890   29.8810   46.5680 C   0  0  0  0  0  0  0  0  0  0  0  0
   34.0850   29.2300   46.6730 C   0  0  0  0  0  0  0  0  0  0  0  0
   33.5930   29.0190   47.9360 C   0  0  0  0  0  0  0  0  0  0  0  0
   34.2780   29.4420   49.0510 C   0  0  0  0  0  0  0  0  0  0  0  0
   35.4900   30.0960   48.9100 C   0  0  0  0  0  0  0  0  0  0  0  0
   35.6730   30.0430   45.5570 H   0  0  0  0  0  0  0  0  0  0  0  0
   33.5570   28.9020   45.7750 H   0  0  0  0  0  0  0  0  0  0  0  0
   32.6360   28.5000   47.9830 H   0  0  0  0  0  0  0  0  0  0  0  0
   33.7940   29.2210   49.9900 H   0  0  0  0  0  0  0  0  0  0  0  0
   38.6190   32.8210   47.9130 C   0  0  0  0  0  0  0  0  0  0  0  0
   39.6100   32.3920   47.0340 C   0  0  0  0  0  0  0  0  0  0  0  0
   39.3570   31.2030   46.3320 C   0  0  0  0  0  0  0  0  0  0  0  0
   38.1850   30.5300   46.5320 N   0  0  0  0  0  0  0  0  0  0  0  0
   37.2560   31.0010   47.4050 C   0  0  0  0  0  0  0  0  0  0  0  0
   37.4740   32.1520   48.1000 N   0  0  0  0  0  0  0  0  0  0  0  0
   38.8270   33.7370   48.4460 H   0  0  0  0  0  0  0  0  0  0  0  0
   40.5440   32.8930   46.8480 H   0  0  0  0  0  0  0  0  0  0  0  0
   40.0700   30.7880   45.6230 H   0  0  0  0  0  0  0  0  0  0  0  0
   36.1790   30.5170   50.0540 N   0  0  0  0  0  0  0  0  0  0  0  0
   35.8900   31.4360   50.5060 H   0  0  0  0  0  0  0  0  0  0  0  0
   37.4580   29.8770   50.9630 S   0  0  0  0  0  0  0  0  0  0  0  0
   37.8360   28.4680   50.6370 O   0  0  0  0  0  1  0  0  0  0  0  0
   37.1800   30.0700   52.4170 O   0  0  0  0  0  1  0  0  0  0  0  0
   38.8330   30.8090   50.5950 O   0  0  0  0  0  0  0  0  0  0  0  0
   38.8230   31.0490   49.6190 H   0  0  0  0  0  0  0  0  0  0  0  0
  1  6  1  0  0  0  0
  2  3  1  0  0  0  0
  2  1  2  0  0  0  0
  3  4  2  0  0  0  0
  4  9  1  0  0  0  0
  4  5  1  0  0  0  0
  5 10  1  0  0  0  0
  6  5  2  0  0  0  0
  6 20  1  0  0  0  0
  7  2  1  0  0  0  0
  8  3  1  0  0  0  0
 11 16  1  0  0  0  0
 11 17  1  0  0  0  0
 12 11  2  0  0  0  0
 13 14  2  0  0  0  0
 13 12  1  0  0  0  0
 14 15  1  0  0  0  0
 15  1  1  0  0  0  0
 15 16  2  0  0  0  0
 18 12  1  0  0  0  0
 19 13  1  0  0  0  0
 20 21  1  0  0  0  0
 20 22  1  0  0  0  0
 22 24  1  0  0  0  0
 23 22  1  0  0  0  0
 25 22  1  0  0  0  0
 26 25  1  0  0  0  0
M  END
>  <minimizedAffinity>
-4.8805542

>  <minimizedRMSD>
1.53867304

$$$$
