
 OpenBabel03272510283D

 43 46  0  0  1  0  0  0  0  0999 V2000
   38.7430   25.3420   33.7250 C   0  0  0  0  0  0  0  0  0  0  0  0
   38.1090   25.6440   34.9280 C   0  0  0  0  0  0  0  0  0  0  0  0
   37.2260   26.7120   35.0270 C   0  0  0  0  0  0  0  0  0  0  0  0
   37.0140   27.4560   33.8720 C   0  0  0  0  0  0  0  0  0  0  0  0
   36.1990   28.5410   33.7140 N   0  0  0  0  0  0  0  0  0  0  0  0
   36.3190   28.9170   32.4290 C   0  0  0  0  0  0  0  0  0  0  0  0
   37.1600   28.1210   31.8030 N   0  0  0  0  0  0  0  0  0  0  0  0
   37.6170   27.1950   32.6630 C   0  0  0  0  0  0  0  0  0  0  0  0
   38.5070   26.1080   32.5870 C   0  0  0  0  0  0  0  0  0  0  0  0
   39.4370   24.5190   33.6050 H   0  0  0  0  0  0  0  0  0  0  0  0
   36.7430   26.9410   35.9480 H   0  0  0  0  0  0  0  0  0  0  0  0
   35.6160   28.9690   34.4510 H   0  0  0  0  0  0  0  0  0  0  0  0
   38.9820   25.9010   31.6400 H   0  0  0  0  0  0  0  0  0  0  0  0
   39.5430   22.9810   37.1580 C   0  0  0  0  0  0  0  0  0  0  0  0
   39.3210   23.7370   36.0160 C   0  0  0  0  0  0  0  0  0  0  0  0
   38.4170   24.7940   36.0560 C   0  0  0  0  0  0  0  0  0  0  0  0
   37.7930   25.0260   37.2420 N   0  0  0  0  0  0  0  0  0  0  0  0
   38.0070   24.2940   38.3510 C   0  0  0  0  0  0  0  0  0  0  0  0
   38.8670   23.2920   38.3040 N   0  0  0  0  0  0  0  0  0  0  0  0
   40.2570   22.1760   37.0600 H   0  0  0  0  0  0  0  0  0  0  0  0
   39.8210   23.5520   35.0660 H   0  0  0  0  0  0  0  0  0  0  0  0
   37.4780   24.5280   39.2670 H   0  0  0  0  0  0  0  0  0  0  0  0
   35.6200   30.0050   31.9030 O   0  0  0  0  0  0  0  0  0  0  0  0
   34.8870   31.8300   33.0770 N   0  0  0  0  0  0  0  0  0  0  0  0
   34.5450   30.4890   32.6890 C   0  0  1  0  0  0  0  0  0  0  0  0
   33.2970   30.4720   31.9380 C   0  0  0  0  0  0  0  0  0  0  0  0
   32.2650   30.9480   32.7660 O   0  0  0  0  0  0  0  0  0  0  0  0
   32.4780   32.1700   33.3290 C   0  0  0  0  0  0  0  0  0  0  0  0
   33.8530   32.3030   33.9460 C   0  0  1  0  0  0  0  0  0  0  0  0
   35.2910   32.4630   32.4370 H   0  0  0  0  0  0  0  0  0  0  0  0
   34.4770   29.8510   33.5800 H   0  0  0  0  0  0  0  0  0  0  0  0
   33.0190   29.3840   31.7900 H   0  0  0  0  0  0  0  0  0  0  0  0
   33.1290   30.9530   31.0150 H   0  0  0  0  0  0  0  0  0  0  0  0
   31.7580   32.3130   34.1340 H   0  0  0  0  0  0  0  0  0  0  0  0
   32.3810   32.9910   32.5770 H   0  0  0  0  0  0  0  0  0  0  0  0
   33.9980   33.4050   34.1400 H   0  0  0  0  0  0  0  0  0  0  0  0
   33.8460   31.6720   35.2310 N   0  0  0  0  0  0  0  0  0  0  0  0
   33.7090   30.6290   35.1210 H   0  0  0  0  0  0  0  0  0  0  0  0
   35.3200   31.9460   36.0850 S   0  0  0  0  0  0  0  0  0  0  0  0
   35.9260   33.2340   35.5950 O   0  0  0  0  0  1  0  0  0  0  0  0
   36.3190   30.8560   35.9080 O   0  0  0  0  0  1  0  0  0  0  0  0
   34.9610   32.1480   37.7210 O   0  0  0  0  0  0  0  0  0  0  0  0
   34.1900   31.5840   37.9840 H   0  0  0  0  0  0  0  0  0  0  0  0
  1  2  1  0  0  0  0
  2  3  2  0  0  0  0
  2 16  1  0  0  0  0
  3 11  1  0  0  0  0
  4  3  1  0  0  0  0
  5  4  1  0  0  0  0
  5 12  1  0  0  0  0
  6  5  1  0  0  0  0
  7  6  2  0  0  0  0
  7  8  1  0  0  0  0
  8  4  2  0  0  0  0
  9  8  1  0  0  0  0
  9  1  2  0  0  0  0
 10  1  1  0  0  0  0
 13  9  1  0  0  0  0
 14 19  1  0  0  0  0
 15 16  1  0  0  0  0
 15 14  2  0  0  0  0
 16 17  2  0  0  0  0
 17 18  1  0  0  0  0
 18 22  1  0  0  0  0
 19 18  2  0  0  0  0
 20 14  1  0  0  0  0
 21 15  1  0  0  0  0
 23  6  1  0  0  0  0
 23 25  1  0  0  0  0
 24 29  1  0  0  0  0
 25 24  1  0  0  0  0
 25 31  1  1  0  0  0
 26 25  1  0  0  0  0
 26 27  1  0  0  0  0
 27 28  1  0  0  0  0
 28 29  1  0  0  0  0
 28 34  1  0  0  0  0
 29 36  1  1  0  0  0
 29 37  1  0  0  0  0
 30 24  1  0  0  0  0
 32 26  1  0  0  0  0
 33 26  1  0  0  0  0
 35 28  1  0  0  0  0
 37 39  1  0  0  0  0
 38 37  1  0  0  0  0
 39 42  1  0  0  0  0
 40 39  1  0  0  0  0
 41 39  1  0  0  0  0
 42 43  1  0  0  0  0
M  END
>  <minimizedAffinity>
-5.87494087

$$$$

 OpenBabel03272510283D

 43 46  0  0  1  0  0  0  0  0999 V2000
   36.5980   27.5730   33.0840 C   0  0  0  0  0  0  0  0  0  0  0  0
   36.7970   28.1970   34.3140 C   0  0  0  0  0  0  0  0  0  0  0  0
   37.8750   27.8640   35.1230 C   0  0  0  0  0  0  0  0  0  0  0  0
   38.7350   26.8830   34.6440 C   0  0  0  0  0  0  0  0  0  0  0  0
   39.8570   26.3870   35.2470 N   0  0  0  0  0  0  0  0  0  0  0  0
   40.3580   25.4630   34.4080 C   0  0  0  0  0  0  0  0  0  0  0  0
   39.6010   25.3730   33.3340 N   0  0  0  0  0  0  0  0  0  0  0  0
   38.5790   26.2400   33.4380 C   0  0  0  0  0  0  0  0  0  0  0  0
   37.4790   26.5950   32.6340 C   0  0  0  0  0  0  0  0  0  0  0  0
   35.7710   27.8040   32.4240 H   0  0  0  0  0  0  0  0  0  0  0  0
   38.0250   28.3420   36.0630 H   0  0  0  0  0  0  0  0  0  0  0  0
   40.2270   26.6810   36.1650 H   0  0  0  0  0  0  0  0  0  0  0  0
   37.3540   26.0920   31.6880 H   0  0  0  0  0  0  0  0  0  0  0  0
   35.1330   31.2700   35.6980 C   0  0  0  0  0  0  0  0  0  0  0  0
   36.1410   30.3720   35.3770 C   0  0  0  0  0  0  0  0  0  0  0  0
   35.8280   29.2000   34.6970 C   0  0  0  0  0  0  0  0  0  0  0  0
   34.5200   29.0020   34.3810 N   0  0  0  0  0  0  0  0  0  0  0  0
   33.5410   29.8720   34.6910 C   0  0  0  0  0  0  0  0  0  0  0  0
   33.8470   30.9820   35.3380 N   0  0  0  0  0  0  0  0  0  0  0  0
   35.4440   32.1600   36.2260 H   0  0  0  0  0  0  0  0  0  0  0  0
   37.1890   30.5310   35.6290 H   0  0  0  0  0  0  0  0  0  0  0  0
   32.5160   29.6570   34.4120 H   0  0  0  0  0  0  0  0  0  0  0  0
   41.5170   24.7430   34.7000 O   0  0  0  0  0  0  0  0  0  0  0  0
   40.1850   23.1680   35.6940 N   0  0  0  0  0  0  0  0  0  0  0  0
   41.4370   23.8640   35.8070 C   0  0  1  0  0  0  0  0  0  0  0  0
   42.5500   22.9230   35.8110 C   0  0  0  0  0  0  0  0  0  0  0  0
   42.4290   22.0850   36.9340 O   0  0  0  0  0  0  0  0  0  0  0  0
   41.2390   21.4330   37.0570 C   0  0  0  0  0  0  0  0  0  0  0  0
   40.0460   22.3400   36.8520 C   0  0  1  0  0  0  0  0  0  0  0  0
   39.8650   22.8230   34.8270 H   0  0  0  0  0  0  0  0  0  0  0  0
   41.4390   24.4790   36.7160 H   0  0  0  0  0  0  0  0  0  0  0  0
   43.4830   23.5210   36.0440 H   0  0  0  0  0  0  0  0  0  0  0  0
   42.8020   22.2660   35.0260 H   0  0  0  0  0  0  0  0  0  0  0  0
   41.1620   21.0360   38.0680 H   0  0  0  0  0  0  0  0  0  0  0  0
   41.1460   20.6050   36.3120 H   0  0  0  0  0  0  0  0  0  0  0  0
   39.1580   21.6570   36.7240 H   0  0  0  0  0  0  0  0  0  0  0  0
   39.8100   23.0720   38.0600 N   0  0  0  0  0  0  0  0  0  0  0  0
   40.4900   23.8790   38.1330 H   0  0  0  0  0  0  0  0  0  0  0  0
   38.2040   23.7000   38.1230 S   0  0  0  0  0  0  0  0  0  0  0  0
   37.8250   24.1860   36.7500 O   0  0  0  0  0  1  0  0  0  0  0  0
   38.0450   24.8260   39.0840 O   0  0  0  0  0  1  0  0  0  0  0  0
   37.1530   22.4420   38.5210 O   0  0  0  0  0  0  0  0  0  0  0  0
   37.5900   21.8000   39.1370 H   0  0  0  0  0  0  0  0  0  0  0  0
  1  2  1  0  0  0  0
  2 16  1  0  0  0  0
  2  3  2  0  0  0  0
  3 11  1  0  0  0  0
  4  3  1  0  0  0  0
  4  5  1  0  0  0  0
  5 12  1  0  0  0  0
  6 23  1  0  0  0  0
  6  5  1  0  0  0  0
  7  8  1  0  0  0  0
  7  6  2  0  0  0  0
  8  4  2  0  0  0  0
  9  1  2  0  0  0  0
  9  8  1  0  0  0  0
 10  1  1  0  0  0  0
 13  9  1  0  0  0  0
 14 20  1  0  0  0  0
 15 21  1  0  0  0  0
 15 14  1  0  0  0  0
 16 15  2  0  0  0  0
 17 18  2  0  0  0  0
 17 16  1  0  0  0  0
 18 19  1  0  0  0  0
 19 14  2  0  0  0  0
 22 18  1  0  0  0  0
 23 25  1  0  0  0  0
 24 25  1  0  0  0  0
 24 29  1  0  0  0  0
 25 26  1  0  0  0  0
 25 31  1  1  0  0  0
 26 32  1  0  0  0  0
 26 27  1  0  0  0  0
 27 28  1  0  0  0  0
 28 34  1  0  0  0  0
 29 36  1  6  0  0  0
 29 28  1  0  0  0  0
 29 37  1  0  0  0  0
 30 24  1  0  0  0  0
 33 26  1  0  0  0  0
 35 28  1  0  0  0  0
 37 39  1  0  0  0  0
 37 38  1  0  0  0  0
 39 42  1  0  0  0  0
 39 41  1  0  0  0  0
 40 39  1  0  0  0  0
 42 43  1  0  0  0  0
M  END
>  <minimizedAffinity>
-5.83035374

$$$$

 OpenBabel03272510283D

 43 46  0  0  1  0  0  0  0  0999 V2000
   35.7240   29.4000   32.6800 C   0  0  0  0  0  0  0  0  0  0  0  0
   35.8500   29.1850   34.0510 C   0  0  0  0  0  0  0  0  0  0  0  0
   36.4910   28.0570   34.5460 C   0  0  0  0  0  0  0  0  0  0  0  0
   36.9930   27.1620   33.6080 C   0  0  0  0  0  0  0  0  0  0  0  0
   37.6590   25.9920   33.8410 N   0  0  0  0  0  0  0  0  0  0  0  0
   37.9470   25.4760   32.6330 C   0  0  0  0  0  0  0  0  0  0  0  0
   37.4930   26.2690   31.6850 N   0  0  0  0  0  0  0  0  0  0  0  0
   36.8920   27.3320   32.2470 C   0  0  0  0  0  0  0  0  0  0  0  0
   36.2390   28.4830   31.7680 C   0  0  0  0  0  0  0  0  0  0  0  0
   35.2330   30.2650   32.2540 H   0  0  0  0  0  0  0  0  0  0  0  0
   36.5860   27.8950   35.5950 H   0  0  0  0  0  0  0  0  0  0  0  0
   37.8840   25.6020   34.7700 H   0  0  0  0  0  0  0  0  0  0  0  0
   36.1570   28.6190   30.7010 H   0  0  0  0  0  0  0  0  0  0  0  0
   35.3860   32.0300   36.4630 C   0  0  0  0  0  0  0  0  0  0  0  0
   36.0320   31.1040   35.6570 C   0  0  0  0  0  0  0  0  0  0  0  0
   35.2830   30.1920   34.9210 C   0  0  0  0  0  0  0  0  0  0  0  0
   33.9300   30.2660   35.0410 N   0  0  0  0  0  0  0  0  0  0  0  0
   33.3020   31.1640   35.8230 C   0  0  0  0  0  0  0  0  0  0  0  0
   34.0210   32.0270   36.5180 N   0  0  0  0  0  0  0  0  0  0  0  0
   36.0260   32.7090   37.0070 H   0  0  0  0  0  0  0  0  0  0  0  0
   37.1150   31.0440   35.5590 H   0  0  0  0  0  0  0  0  0  0  0  0
   32.2200   31.1740   35.8770 H   0  0  0  0  0  0  0  0  0  0  0  0
   38.6340   24.2700   32.4830 O   0  0  0  0  0  0  0  0  0  0  0  0
   38.8010   22.8830   34.2970 N   0  0  0  0  0  0  0  0  0  0  0  0
   39.4850   23.9050   33.5540 C   0  0  1  0  0  0  0  0  0  0  0  0
   40.7660   23.4140   33.0630 C   0  0  0  0  0  0  0  0  0  0  0  0
   41.5740   23.0790   34.1630 O   0  0  0  0  0  0  0  0  0  0  0  0
   41.0260   22.2040   35.0520 C   0  0  0  0  0  0  0  0  0  0  0  0
   39.6070   22.5650   35.4350 C   0  0  1  0  0  0  0  0  0  0  0  0
   38.3190   22.1520   33.8420 H   0  0  0  0  0  0  0  0  0  0  0  0
   39.6200   24.7940   34.1840 H   0  0  0  0  0  0  0  0  0  0  0  0
   41.3070   24.3030   32.6150 H   0  0  0  0  0  0  0  0  0  0  0  0
   40.9000   22.6120   32.3910 H   0  0  0  0  0  0  0  0  0  0  0  0
   41.6130   22.2240   35.9690 H   0  0  0  0  0  0  0  0  0  0  0  0
   40.9940   21.1660   34.6390 H   0  0  0  0  0  0  0  0  0  0  0  0
   39.1880   21.6550   35.9530 H   0  0  0  0  0  0  0  0  0  0  0  0
   39.6450   23.6000   36.4230 N   0  0  0  0  0  0  0  0  0  0  0  0
   39.9420   24.5130   35.9800 H   0  0  0  0  0  0  0  0  0  0  0  0
   38.1060   23.8250   37.1710 S   0  0  0  0  0  0  0  0  0  0  0  0
   37.3580   24.8910   36.4160 O   0  0  0  0  0  1  0  0  0  0  0  0
   38.1950   24.2330   38.6000 O   0  0  0  0  0  1  0  0  0  0  0  0
   37.2260   22.3930   37.0260 O   0  0  0  0  0  0  0  0  0  0  0  0
   37.8250   21.6060   37.0730 H   0  0  0  0  0  0  0  0  0  0  0  0
  1  2  1  0  0  0  0
  2  3  2  0  0  0  0
  2 16  1  0  0  0  0
  3 11  1  0  0  0  0
  4  5  1  0  0  0  0
  4  3  1  0  0  0  0
  5 12  1  0  0  0  0
  6  5  1  0  0  0  0
  7  8  1  0  0  0  0
  7  6  2  0  0  0  0
  8  4  2  0  0  0  0
  9  8  1  0  0  0  0
  9  1  2  0  0  0  0
 10  1  1  0  0  0  0
 13  9  1  0  0  0  0
 14 19  1  0  0  0  0
 14 20  1  0  0  0  0
 15 14  2  0  0  0  0
 16 17  2  0  0  0  0
 16 15  1  0  0  0  0
 17 18  1  0  0  0  0
 18 22  1  0  0  0  0
 18 19  2  0  0  0  0
 21 15  1  0  0  0  0
 23  6  1  0  0  0  0
 23 25  1  0  0  0  0
 24 29  1  0  0  0  0
 25 31  1  1  0  0  0
 25 24  1  0  0  0  0
 26 25  1  0  0  0  0
 26 27  1  0  0  0  0
 27 28  1  0  0  0  0
 28 29  1  0  0  0  0
 28 34  1  0  0  0  0
 29 36  1  1  0  0  0
 29 37  1  0  0  0  0
 30 24  1  0  0  0  0
 32 26  1  0  0  0  0
 33 26  1  0  0  0  0
 35 28  1  0  0  0  0
 37 39  1  0  0  0  0
 38 37  1  0  0  0  0
 39 41  1  0  0  0  0
 40 39  1  0  0  0  0
 42 43  1  0  0  0  0
 42 39  1  0  0  0  0
M  END
>  <minimizedAffinity>
-5.79206562

$$$$

 OpenBabel03272510283D

 43 46  0  0  1  0  0  0  0  0999 V2000
   35.3760   28.7910   32.8630 C   0  0  0  0  0  0  0  0  0  0  0  0
   35.8930   29.0030   34.1400 C   0  0  0  0  0  0  0  0  0  0  0  0
   36.9480   28.2430   34.6240 C   0  0  0  0  0  0  0  0  0  0  0  0
   37.4550   27.2660   33.7750 C   0  0  0  0  0  0  0  0  0  0  0  0
   38.4830   26.3980   34.0160 N   0  0  0  0  0  0  0  0  0  0  0  0
   38.6120   25.6490   32.9070 C   0  0  0  0  0  0  0  0  0  0  0  0
   37.7200   26.0150   32.0100 N   0  0  0  0  0  0  0  0  0  0  0  0
   36.9780   27.0190   32.5080 C   0  0  0  0  0  0  0  0  0  0  0  0
   35.9080   27.8040   32.0380 C   0  0  0  0  0  0  0  0  0  0  0  0
   34.5550   29.3610   32.4480 H   0  0  0  0  0  0  0  0  0  0  0  0
   37.3420   28.4060   35.6000 H   0  0  0  0  0  0  0  0  0  0  0  0
   39.0370   26.3480   34.8860 H   0  0  0  0  0  0  0  0  0  0  0  0
   35.5310   27.6130   31.0450 H   0  0  0  0  0  0  0  0  0  0  0  0
   35.2870   31.9680   36.3690 C   0  0  0  0  0  0  0  0  0  0  0  0
   35.9790   31.0060   35.6470 C   0  0  0  0  0  0  0  0  0  0  0  0
   35.2750   30.0490   34.9240 C   0  0  0  0  0  0  0  0  0  0  0  0
   33.9170   30.1180   34.9700 N   0  0  0  0  0  0  0  0  0  0  0  0
   33.2440   31.0500   35.6690 C   0  0  0  0  0  0  0  0  0  0  0  0
   33.9210   31.9550   36.3540 N   0  0  0  0  0  0  0  0  0  0  0  0
   35.8930   32.6810   36.9080 H   0  0  0  0  0  0  0  0  0  0  0  0
   37.0660   30.9510   35.6090 H   0  0  0  0  0  0  0  0  0  0  0  0
   32.1600   31.0530   35.6670 H   0  0  0  0  0  0  0  0  0  0  0  0
   39.5760   24.6460   32.7930 O   0  0  0  0  0  0  0  0  0  0  0  0
   37.9680   23.5510   34.0000 N   0  0  0  0  0  0  0  0  0  0  0  0
   39.2100   23.3750   33.2990 C   0  0  1  0  0  0  0  0  0  0  0  0
   39.0600   22.4060   32.2230 C   0  0  0  0  0  0  0  0  0  0  0  0
   38.7100   21.1620   32.7790 O   0  0  0  0  0  0  0  0  0  0  0  0
   37.6130   21.1670   33.5870 C   0  0  0  0  0  0  0  0  0  0  0  0
   37.6270   22.2950   34.5950 C   0  0  1  0  0  0  0  0  0  0  0  0
   37.2430   24.1090   33.6300 H   0  0  0  0  0  0  0  0  0  0  0  0
   39.9920   23.0640   34.0040 H   0  0  0  0  0  0  0  0  0  0  0  0
   40.0970   22.2120   31.8100 H   0  0  0  0  0  0  0  0  0  0  0  0
   38.4200   22.5040   31.3910 H   0  0  0  0  0  0  0  0  0  0  0  0
   37.5930   20.2380   34.1550 H   0  0  0  0  0  0  0  0  0  0  0  0
   36.6690   21.2750   32.9960 H   0  0  0  0  0  0  0  0  0  0  0  0
   36.5810   22.3470   35.0140 H   0  0  0  0  0  0  0  0  0  0  0  0
   38.4740   21.9260   35.6880 N   0  0  0  0  0  0  0  0  0  0  0  0
   39.4470   21.7070   35.3350 H   0  0  0  0  0  0  0  0  0  0  0  0
   38.5850   23.1840   36.8640 S   0  0  0  0  0  0  0  0  0  0  0  0
   37.1940   23.6500   37.2010 O   0  0  0  0  0  1  0  0  0  0  0  0
   39.3770   24.3580   36.4020 O   0  0  0  0  0  1  0  0  0  0  0  0
   39.2580   22.5440   38.2720 O   0  0  0  0  0  0  0  0  0  0  0  0
   39.9220   21.8410   38.0560 H   0  0  0  0  0  0  0  0  0  0  0  0
  1  2  1  0  0  0  0
  2  3  2  0  0  0  0
  2 16  1  0  0  0  0
  3 11  1  0  0  0  0
  4  5  1  0  0  0  0
  4  3  1  0  0  0  0
  5 12  1  0  0  0  0
  6  5  1  0  0  0  0
  7  8  1  0  0  0  0
  7  6  2  0  0  0  0
  8  4  2  0  0  0  0
  9  8  1  0  0  0  0
  9  1  2  0  0  0  0
 10  1  1  0  0  0  0
 13  9  1  0  0  0  0
 14 20  1  0  0  0  0
 15 14  2  0  0  0  0
 16 17  2  0  0  0  0
 16 15  1  0  0  0  0
 17 18  1  0  0  0  0
 18 19  2  0  0  0  0
 19 14  1  0  0  0  0
 21 15  1  0  0  0  0
 22 18  1  0  0  0  0
 23  6  1  0  0  0  0
 23 25  1  0  0  0  0
 24 29  1  0  0  0  0
 25 24  1  0  0  0  0
 25 31  1  1  0  0  0
 26 27  1  0  0  0  0
 26 25  1  0  0  0  0
 27 28  1  0  0  0  0
 28 34  1  0  0  0  0
 28 29  1  0  0  0  0
 29 36  1  1  0  0  0
 29 37  1  0  0  0  0
 30 24  1  0  0  0  0
 32 26  1  0  0  0  0
 33 26  1  0  0  0  0
 35 28  1  0  0  0  0
 37 39  1  0  0  0  0
 38 37  1  0  0  0  0
 39 40  1  0  0  0  0
 39 42  1  0  0  0  0
 41 39  1  0  0  0  0
 43 42  1  0  0  0  0
M  END
>  <minimizedAffinity>
-5.65554476

$$$$

 OpenBabel03272510283D

 43 46  0  0  1  0  0  0  0  0999 V2000
   38.8110   27.7050   31.8250 C   0  0  0  0  0  0  0  0  0  0  0  0
   37.4350   27.6450   32.0370 C   0  0  0  0  0  0  0  0  0  0  0  0
   36.8440   26.5280   32.6110 C   0  0  0  0  0  0  0  0  0  0  0  0
   37.6910   25.4820   32.9590 C   0  0  0  0  0  0  0  0  0  0  0  0
   37.3560   24.2890   33.5350 N   0  0  0  0  0  0  0  0  0  0  0  0
   38.5050   23.6070   33.6840 C   0  0  0  0  0  0  0  0  0  0  0  0
   39.5140   24.3200   33.2300 N   0  0  0  0  0  0  0  0  0  0  0  0
   39.0540   25.4960   32.7690 C   0  0  0  0  0  0  0  0  0  0  0  0
   39.6310   26.6400   32.1860 C   0  0  0  0  0  0  0  0  0  0  0  0
   39.3110   28.5560   31.3810 H   0  0  0  0  0  0  0  0  0  0  0  0
   35.7920   26.4840   32.7710 H   0  0  0  0  0  0  0  0  0  0  0  0
   36.4010   23.9940   33.7950 H   0  0  0  0  0  0  0  0  0  0  0  0
   40.6990   26.6540   32.0350 H   0  0  0  0  0  0  0  0  0  0  0  0
   34.7690   30.2710   31.6940 C   0  0  0  0  0  0  0  0  0  0  0  0
   35.4250   29.1410   32.1580 C   0  0  0  0  0  0  0  0  0  0  0  0
   36.6650   28.7990   31.6280 C   0  0  0  0  0  0  0  0  0  0  0  0
   37.1690   29.6150   30.6640 N   0  0  0  0  0  0  0  0  0  0  0  0
   36.5330   30.7120   30.2120 C   0  0  0  0  0  0  0  0  0  0  0  0
   35.3550   31.0290   30.7210 N   0  0  0  0  0  0  0  0  0  0  0  0
   33.8100   30.4800   32.1480 H   0  0  0  0  0  0  0  0  0  0  0  0
   35.0230   28.4870   32.9310 H   0  0  0  0  0  0  0  0  0  0  0  0
   36.9860   31.3230   29.4400 H   0  0  0  0  0  0  0  0  0  0  0  0
   38.5450   22.3310   34.2470 O   0  0  0  0  0  0  0  0  0  0  0  0
   39.9340   23.0230   35.9310 N   0  0  0  0  0  0  0  0  0  0  0  0
   38.7370   22.2790   35.6490 C   0  0  1  0  0  0  0  0  0  0  0  0
   37.5980   22.8510   36.3560 C   0  0  0  0  0  0  0  0  0  0  0  0
   37.8330   22.7630   37.7390 O   0  0  0  0  0  0  0  0  0  0  0  0
   39.0020   23.3130   38.1740 C   0  0  0  0  0  0  0  0  0  0  0  0
   40.1930   22.9060   37.3340 C   0  0  1  0  0  0  0  0  0  0  0  0
   40.1210   23.8830   35.4870 H   0  0  0  0  0  0  0  0  0  0  0  0
   38.8810   21.2260   35.9230 H   0  0  0  0  0  0  0  0  0  0  0  0
   36.7280   22.1410   36.2040 H   0  0  0  0  0  0  0  0  0  0  0  0
   37.2170   23.8250   36.2210 H   0  0  0  0  0  0  0  0  0  0  0  0
   39.1970   22.9620   39.1860 H   0  0  0  0  0  0  0  0  0  0  0  0
   38.9610   24.4300   38.1560 H   0  0  0  0  0  0  0  0  0  0  0  0
   41.0280   23.6080   37.6230 H   0  0  0  0  0  0  0  0  0  0  0  0
   40.6160   21.6000   37.7360 N   0  0  0  0  0  0  0  0  0  0  0  0
   39.8700   20.8880   37.5010 H   0  0  0  0  0  0  0  0  0  0  0  0
   42.0830   21.1350   36.9550 S   0  0  0  0  0  0  0  0  0  0  0  0
   43.0240   22.3100   36.9630 O   0  0  0  0  0  1  0  0  0  0  0  0
   41.8900   20.6940   35.5460 O   0  0  0  0  0  1  0  0  0  0  0  0
   42.8040   19.9050   37.8570 O   0  0  0  0  0  0  0  0  0  0  0  0
   42.1170   19.3270   38.2750 H   0  0  0  0  0  0  0  0  0  0  0  0
  1  2  2  0  0  0  0
  1  9  1  0  0  0  0
  2  3  1  0  0  0  0
  3 11  1  0  0  0  0
  3  4  2  0  0  0  0
  4  5  1  0  0  0  0
  5  6  1  0  0  0  0
  5 12  1  0  0  0  0
  6 23  1  0  0  0  0
  7  6  2  0  0  0  0
  8  4  1  0  0  0  0
  8  7  1  0  0  0  0
  9  8  2  0  0  0  0
 10  1  1  0  0  0  0
 13  9  1  0  0  0  0
 14 20  1  0  0  0  0
 14 15  1  0  0  0  0
 15 21  1  0  0  0  0
 16  2  1  0  0  0  0
 16 15  2  0  0  0  0
 17 16  1  0  0  0  0
 18 17  2  0  0  0  0
 18 19  1  0  0  0  0
 19 14  2  0  0  0  0
 22 18  1  0  0  0  0
 23 25  1  0  0  0  0
 24 29  1  0  0  0  0
 25 31  1  1  0  0  0
 25 24  1  0  0  0  0
 25 26  1  0  0  0  0
 26 27  1  0  0  0  0
 27 28  1  0  0  0  0
 28 34  1  0  0  0  0
 29 36  1  1  0  0  0
 29 37  1  0  0  0  0
 29 28  1  0  0  0  0
 30 24  1  0  0  0  0
 32 26  1  0  0  0  0
 33 26  1  0  0  0  0
 35 28  1  0  0  0  0
 38 37  1  0  0  0  0
 39 40  1  0  0  0  0
 39 37  1  0  0  0  0
 39 42  1  0  0  0  0
 41 39  1  0  0  0  0
 42 43  1  0  0  0  0
M  END
>  <minimizedAffinity>
-5.43671131

$$$$

 OpenBabel03272510283D

 43 46  0  0  1  0  0  0  0  0999 V2000
   35.4650   29.9710   32.4400 C   0  0  0  0  0  0  0  0  0  0  0  0
   35.6530   29.5060   33.7400 C   0  0  0  0  0  0  0  0  0  0  0  0
   36.3280   28.3180   33.9880 C   0  0  0  0  0  0  0  0  0  0  0  0
   36.7990   27.6250   32.8790 C   0  0  0  0  0  0  0  0  0  0  0  0
   37.4880   26.4450   32.8600 N   0  0  0  0  0  0  0  0  0  0  0  0
   37.7300   26.1710   31.5660 C   0  0  0  0  0  0  0  0  0  0  0  0
   37.2260   27.1180   30.8030 N   0  0  0  0  0  0  0  0  0  0  0  0
   36.6370   28.0440   31.5780 C   0  0  0  0  0  0  0  0  0  0  0  0
   35.9500   29.2520   31.3520 C   0  0  0  0  0  0  0  0  0  0  0  0
   34.9450   30.8910   32.2050 H   0  0  0  0  0  0  0  0  0  0  0  0
   36.4710   27.9640   34.9820 H   0  0  0  0  0  0  0  0  0  0  0  0
   37.7590   25.8920   33.6890 H   0  0  0  0  0  0  0  0  0  0  0  0
   35.8200   29.5840   30.3340 H   0  0  0  0  0  0  0  0  0  0  0  0
   35.2470   31.9260   36.5860 C   0  0  0  0  0  0  0  0  0  0  0  0
   35.8660   31.1900   35.5860 C   0  0  0  0  0  0  0  0  0  0  0  0
   35.1130   30.3200   34.8060 C   0  0  0  0  0  0  0  0  0  0  0  0
   33.7820   30.2430   35.0780 N   0  0  0  0  0  0  0  0  0  0  0  0
   33.1800   30.9560   36.0480 C   0  0  0  0  0  0  0  0  0  0  0  0
   33.9040   31.7800   36.7850 N   0  0  0  0  0  0  0  0  0  0  0  0
   35.8890   32.5830   37.1550 H   0  0  0  0  0  0  0  0  0  0  0  0
   36.9310   31.2520   35.3670 H   0  0  0  0  0  0  0  0  0  0  0  0
   32.1150   30.8510   36.2180 H   0  0  0  0  0  0  0  0  0  0  0  0
   38.4230   25.0280   31.1640 O   0  0  0  0  0  0  0  0  0  0  0  0
   37.8910   22.8170   30.8950 N   0  0  0  0  0  0  0  0  0  0  0  0
   38.1260   23.8410   31.8760 C   0  0  1  0  0  0  0  0  0  0  0  0
   39.2260   23.4680   32.7560 C   0  0  0  0  0  0  0  0  0  0  0  0
   38.8750   22.2940   33.4460 O   0  0  0  0  0  0  0  0  0  0  0  0
   38.4960   21.2430   32.6670 C   0  0  0  0  0  0  0  0  0  0  0  0
   37.5010   21.6320   31.5950 C   0  0  1  0  0  0  0  0  0  0  0  0
   38.4660   22.7260   30.0990 H   0  0  0  0  0  0  0  0  0  0  0  0
   37.2080   24.0230   32.4500 H   0  0  0  0  0  0  0  0  0  0  0  0
   39.2630   24.2430   33.5810 H   0  0  0  0  0  0  0  0  0  0  0  0
   40.2230   23.3010   32.4560 H   0  0  0  0  0  0  0  0  0  0  0  0
   38.0070   20.5000   33.2950 H   0  0  0  0  0  0  0  0  0  0  0  0
   39.3710   20.7850   32.1420 H   0  0  0  0  0  0  0  0  0  0  0  0
   37.4670   20.7630   30.8770 H   0  0  0  0  0  0  0  0  0  0  0  0
   36.1980   21.7110   32.1830 N   0  0  0  0  0  0  0  0  0  0  0  0
   35.5880   22.3690   31.6250 H   0  0  0  0  0  0  0  0  0  0  0  0
   35.4300   20.1660   32.2420 S   0  0  0  0  0  0  0  0  0  0  0  0
   33.9670   20.3470   31.9370 O   0  0  0  0  0  1  0  0  0  0  0  0
   35.5580   19.4910   33.5620 O   0  0  0  0  0  1  0  0  0  0  0  0
   36.0830   19.1970   31.0250 O   0  0  0  0  0  0  0  0  0  0  0  0
   37.0420   19.4050   30.8870 H   0  0  0  0  0  0  0  0  0  0  0  0
  1  2  1  0  0  0  0
  2  3  2  0  0  0  0
  2 16  1  0  0  0  0
  3 11  1  0  0  0  0
  4  3  1  0  0  0  0
  5  4  1  0  0  0  0
  5 12  1  0  0  0  0
  6  5  1  0  0  0  0
  7  6  2  0  0  0  0
  7  8  1  0  0  0  0
  8  4  2  0  0  0  0
  9  8  1  0  0  0  0
  9  1  2  0  0  0  0
 10  1  1  0  0  0  0
 13  9  1  0  0  0  0
 14 19  1  0  0  0  0
 14 20  1  0  0  0  0
 15 14  2  0  0  0  0
 16 17  2  0  0  0  0
 16 15  1  0  0  0  0
 17 18  1  0  0  0  0
 18 22  1  0  0  0  0
 18 19  2  0  0  0  0
 21 15  1  0  0  0  0
 23  6  1  0  0  0  0
 23 25  1  0  0  0  0
 24 29  1  0  0  0  0
 24 25  1  0  0  0  0
 25 31  1  1  0  0  0
 25 26  1  0  0  0  0
 26 27  1  0  0  0  0
 26 32  1  0  0  0  0
 28 34  1  0  0  0  0
 28 27  1  0  0  0  0
 29 36  1  6  0  0  0
 29 37  1  0  0  0  0
 29 28  1  0  0  0  0
 30 24  1  0  0  0  0
 33 26  1  0  0  0  0
 35 28  1  0  0  0  0
 37 39  1  0  0  0  0
 38 37  1  0  0  0  0
 39 41  1  0  0  0  0
 40 39  1  0  0  0  0
 42 39  1  0  0  0  0
 43 42  1  0  0  0  0
M  END
>  <minimizedAffinity>
-5.41831923

$$$$

 OpenBabel03272510283D

 43 46  0  0  1  0  0  0  0  0999 V2000
   34.9330   31.9860   33.4320 C   0  0  0  0  0  0  0  0  0  0  0  0
   35.1400   31.7660   34.7920 C   0  0  0  0  0  0  0  0  0  0  0  0
   35.6330   30.5550   35.2580 C   0  0  0  0  0  0  0  0  0  0  0  0
   35.9040   29.5820   34.3020 C   0  0  0  0  0  0  0  0  0  0  0  0
   36.3920   28.3220   34.5060 N   0  0  0  0  0  0  0  0  0  0  0  0
   36.4910   27.7560   33.2900 C   0  0  0  0  0  0  0  0  0  0  0  0
   36.0890   28.6020   32.3650 N   0  0  0  0  0  0  0  0  0  0  0  0
   35.7150   29.7530   32.9500 C   0  0  0  0  0  0  0  0  0  0  0  0
   35.2160   30.9900   32.5010 C   0  0  0  0  0  0  0  0  0  0  0  0
   34.5520   32.9150   33.0280 H   0  0  0  0  0  0  0  0  0  0  0  0
   35.7900   30.3880   36.2980 H   0  0  0  0  0  0  0  0  0  0  0  0
   36.6310   27.9090   35.4220 H   0  0  0  0  0  0  0  0  0  0  0  0
   35.0660   31.1280   31.4420 H   0  0  0  0  0  0  0  0  0  0  0  0
   34.2160   33.8240   37.7980 C   0  0  0  0  0  0  0  0  0  0  0  0
   34.5140   32.7060   37.0310 C   0  0  0  0  0  0  0  0  0  0  0  0
   34.8170   32.8590   35.6820 C   0  0  0  0  0  0  0  0  0  0  0  0
   34.8020   34.1250   35.1870 N   0  0  0  0  0  0  0  0  0  0  0  0
   34.5140   35.2100   35.9290 C   0  0  0  0  0  0  0  0  0  0  0  0
   34.2270   35.0560   37.2100 N   0  0  0  0  0  0  0  0  0  0  0  0
   33.9900   33.6360   38.8380 H   0  0  0  0  0  0  0  0  0  0  0  0
   34.5260   31.6920   37.4270 H   0  0  0  0  0  0  0  0  0  0  0  0
   34.5180   36.1950   35.4770 H   0  0  0  0  0  0  0  0  0  0  0  0
   36.9610   26.4540   33.1110 O   0  0  0  0  0  0  0  0  0  0  0  0
   37.9910   24.6550   34.0850 N   0  0  0  0  0  0  0  0  0  0  0  0
   38.0680   26.0800   33.9110 C   0  0  1  0  0  0  0  0  0  0  0  0
   39.3240   26.4540   33.2740 C   0  0  0  0  0  0  0  0  0  0  0  0
   40.3870   26.0720   34.1130 O   0  0  0  0  0  0  0  0  0  0  0  0
   40.4010   24.7630   34.4880 C   0  0  0  0  0  0  0  0  0  0  0  0
   39.0520   24.2710   34.9650 C   0  0  1  0  0  0  0  0  0  0  0  0
   37.7610   24.0570   33.3340 H   0  0  0  0  0  0  0  0  0  0  0  0
   37.9550   26.5790   34.8820 H   0  0  0  0  0  0  0  0  0  0  0  0
   39.3790   27.5840   33.2980 H   0  0  0  0  0  0  0  0  0  0  0  0
   39.6380   26.1580   32.3120 H   0  0  0  0  0  0  0  0  0  0  0  0
   41.0900   24.6460   35.3230 H   0  0  0  0  0  0  0  0  0  0  0  0
   40.7060   24.0970   33.6420 H   0  0  0  0  0  0  0  0  0  0  0  0
   39.1270   23.1460   34.9960 H   0  0  0  0  0  0  0  0  0  0  0  0
   38.8590   24.6930   36.3190 N   0  0  0  0  0  0  0  0  0  0  0  0
   38.1580   25.4840   36.3560 H   0  0  0  0  0  0  0  0  0  0  0  0
   38.2870   23.4040   37.3140 S   0  0  0  0  0  0  0  0  0  0  0  0
   37.2730   22.6110   36.5340 O   0  0  0  0  0  1  0  0  0  0  0  0
   37.6530   23.8690   38.5780 O   0  0  0  0  0  1  0  0  0  0  0  0
   39.5800   22.3760   37.6540 O   0  0  0  0  0  0  0  0  0  0  0  0
   40.4250   22.8870   37.7310 H   0  0  0  0  0  0  0  0  0  0  0  0
  1  2  1  0  0  0  0
  2  3  2  0  0  0  0
  2 16  1  0  0  0  0
  3 11  1  0  0  0  0
  4  5  1  0  0  0  0
  4  3  1  0  0  0  0
  5 12  1  0  0  0  0
  6  5  1  0  0  0  0
  7  8  1  0  0  0  0
  7  6  2  0  0  0  0
  8  4  2  0  0  0  0
  9  8  1  0  0  0  0
  9  1  2  0  0  0  0
 10  1  1  0  0  0  0
 13  9  1  0  0  0  0
 14 20  1  0  0  0  0
 15 21  1  0  0  0  0
 15 14  2  0  0  0  0
 16 15  1  0  0  0  0
 17 16  2  0  0  0  0
 17 18  1  0  0  0  0
 18 19  2  0  0  0  0
 19 14  1  0  0  0  0
 22 18  1  0  0  0  0
 23  6  1  0  0  0  0
 23 25  1  0  0  0  0
 24 29  1  0  0  0  0
 25 24  1  0  0  0  0
 25 31  1  1  0  0  0
 26 32  1  0  0  0  0
 26 25  1  0  0  0  0
 26 27  1  0  0  0  0
 27 28  1  0  0  0  0
 28 29  1  0  0  0  0
 28 34  1  0  0  0  0
 29 36  1  1  0  0  0
 29 37  1  0  0  0  0
 30 24  1  0  0  0  0
 33 26  1  0  0  0  0
 35 28  1  0  0  0  0
 37 38  1  0  0  0  0
 37 39  1  0  0  0  0
 39 42  1  0  0  0  0
 39 41  1  0  0  0  0
 40 39  1  0  0  0  0
 42 43  1  0  0  0  0
M  END
>  <minimizedAffinity>
-5.40668488

$$$$

 OpenBabel03272510283D

 43 46  0  0  1  0  0  0  0  0999 V2000
   35.7920   29.0020   34.1390 C   0  0  0  0  0  0  0  0  0  0  0  0
   35.3620   30.3240   34.0390 C   0  0  0  0  0  0  0  0  0  0  0  0
   35.5240   31.0460   32.8640 C   0  0  0  0  0  0  0  0  0  0  0  0
   36.1340   30.3850   31.8040 C   0  0  0  0  0  0  0  0  0  0  0  0
   36.4020   30.8730   30.5560 N   0  0  0  0  0  0  0  0  0  0  0  0
   36.9930   29.8720   29.8790 C   0  0  0  0  0  0  0  0  0  0  0  0
   37.0970   28.8090   30.6480 N   0  0  0  0  0  0  0  0  0  0  0  0
   36.5740   29.0820   31.8560 C   0  0  0  0  0  0  0  0  0  0  0  0
   36.3980   28.3700   33.0570 C   0  0  0  0  0  0  0  0  0  0  0  0
   35.6840   28.4050   35.0350 H   0  0  0  0  0  0  0  0  0  0  0  0
   35.1950   32.0560   32.7900 H   0  0  0  0  0  0  0  0  0  0  0  0
   36.1830   31.8260   30.2220 H   0  0  0  0  0  0  0  0  0  0  0  0
   36.7430   27.3490   33.1020 H   0  0  0  0  0  0  0  0  0  0  0  0
   34.6860   32.2920   37.1680 C   0  0  0  0  0  0  0  0  0  0  0  0
   35.3690   31.8040   36.0640 C   0  0  0  0  0  0  0  0  0  0  0  0
   34.7450   30.8970   35.2150 C   0  0  0  0  0  0  0  0  0  0  0  0
   33.4710   30.5360   35.5270 N   0  0  0  0  0  0  0  0  0  0  0  0
   32.8070   31.0090   36.5980 C   0  0  0  0  0  0  0  0  0  0  0  0
   33.4080   31.8700   37.4000 N   0  0  0  0  0  0  0  0  0  0  0  0
   35.2280   32.9930   37.7870 H   0  0  0  0  0  0  0  0  0  0  0  0
   36.3890   32.0930   35.8130 H   0  0  0  0  0  0  0  0  0  0  0  0
   31.7920   30.6830   36.7950 H   0  0  0  0  0  0  0  0  0  0  0  0
   37.4080   30.0140   28.5540 O   0  0  0  0  0  0  0  0  0  0  0  0
   38.2970   28.0400   27.8070 N   0  0  0  0  0  0  0  0  0  0  0  0
   38.6280   29.3770   28.2170 C   0  0  1  0  0  0  0  0  0  0  0  0
   39.3120   30.0900   27.1470 C   0  0  0  0  0  0  0  0  0  0  0  0
   40.5190   29.4250   26.8610 O   0  0  0  0  0  0  0  0  0  0  0  0
   40.4060   28.1000   26.5690 C   0  0  0  0  0  0  0  0  0  0  0  0
   39.5250   27.3540   27.5470 C   0  0  1  0  0  0  0  0  0  0  0  0
   37.5230   27.8580   27.2220 H   0  0  0  0  0  0  0  0  0  0  0  0
   39.2430   29.3450   29.1250 H   0  0  0  0  0  0  0  0  0  0  0  0
   39.6650   31.0740   27.5820 H   0  0  0  0  0  0  0  0  0  0  0  0
   38.9090   30.3090   26.1980 H   0  0  0  0  0  0  0  0  0  0  0  0
   41.3940   27.6440   26.6260 H   0  0  0  0  0  0  0  0  0  0  0  0
   39.9670   27.9390   25.5530 H   0  0  0  0  0  0  0  0  0  0  0  0
   39.3060   26.3570   27.0670 H   0  0  0  0  0  0  0  0  0  0  0  0
   40.2850   27.0660   28.7260 N   0  0  0  0  0  0  0  0  0  0  0  0
   40.3040   27.9120   29.3610 H   0  0  0  0  0  0  0  0  0  0  0  0
   39.6250   25.7350   29.6030 S   0  0  0  0  0  0  0  0  0  0  0  0
   40.4570   25.5130   30.8370 O   0  0  0  0  0  1  0  0  0  0  0  0
   39.5920   24.4680   28.8220 O   0  0  0  0  0  1  0  0  0  0  0  0
   38.0690   26.1470   30.1100 O   0  0  0  0  0  0  0  0  0  0  0  0
   37.6240   26.7280   29.4420 H   0  0  0  0  0  0  0  0  0  0  0  0
  1 10  1  0  0  0  0
  2  1  1  0  0  0  0
  2 16  1  0  0  0  0
  3  2  2  0  0  0  0
  4  8  2  0  0  0  0
  4  3  1  0  0  0  0
  5  4  1  0  0  0  0
  6  5  1  0  0  0  0
  6  7  2  0  0  0  0
  7  8  1  0  0  0  0
  8  9  1  0  0  0  0
  9 13  1  0  0  0  0
  9  1  2  0  0  0  0
 11  3  1  0  0  0  0
 12  5  1  0  0  0  0
 14 19  1  0  0  0  0
 14 20  1  0  0  0  0
 15 14  2  0  0  0  0
 16 17  2  0  0  0  0
 16 15  1  0  0  0  0
 17 18  1  0  0  0  0
 18 22  1  0  0  0  0
 18 19  2  0  0  0  0
 21 15  1  0  0  0  0
 23  6  1  0  0  0  0
 24 25  1  0  0  0  0
 25 23  1  0  0  0  0
 25 31  1  1  0  0  0
 26 32  1  0  0  0  0
 26 25  1  0  0  0  0
 27 26  1  0  0  0  0
 28 34  1  0  0  0  0
 28 27  1  0  0  0  0
 28 29  1  0  0  0  0
 29 36  1  6  0  0  0
 29 24  1  0  0  0  0
 29 37  1  0  0  0  0
 30 24  1  0  0  0  0
 33 26  1  0  0  0  0
 35 28  1  0  0  0  0
 37 38  1  0  0  0  0
 37 39  1  0  0  0  0
 39 42  1  0  0  0  0
 39 40  1  0  0  0  0
 41 39  1  0  0  0  0
 43 42  1  0  0  0  0
M  END
>  <minimizedAffinity>
-5.32945395

$$$$

 OpenBabel03272510283D

 43 46  0  0  1  0  0  0  0  0999 V2000
   35.7220   29.0460   34.1930 C   0  0  0  0  0  0  0  0  0  0  0  0
   35.1950   28.8300   32.9210 C   0  0  0  0  0  0  0  0  0  0  0  0
   35.7420   27.8820   32.0680 C   0  0  0  0  0  0  0  0  0  0  0  0
   36.8360   27.1690   32.5450 C   0  0  0  0  0  0  0  0  0  0  0  0
   37.5420   26.1910   31.9040 N   0  0  0  0  0  0  0  0  0  0  0  0
   38.5020   25.7970   32.7590 C   0  0  0  0  0  0  0  0  0  0  0  0
   38.4150   26.4810   33.8800 N   0  0  0  0  0  0  0  0  0  0  0  0
   37.3900   27.3470   33.7920 C   0  0  0  0  0  0  0  0  0  0  0  0
   36.8180   28.3140   34.6400 C   0  0  0  0  0  0  0  0  0  0  0  0
   35.3260   29.7750   34.8890 H   0  0  0  0  0  0  0  0  0  0  0  0
   35.3380   27.7190   31.0960 H   0  0  0  0  0  0  0  0  0  0  0  0
   37.3560   25.8400   30.9500 H   0  0  0  0  0  0  0  0  0  0  0  0
   37.2510   28.4570   35.6180 H   0  0  0  0  0  0  0  0  0  0  0  0
   31.7580   30.3250   32.6440 C   0  0  0  0  0  0  0  0  0  0  0  0
   32.7810   29.4940   33.0770 C   0  0  0  0  0  0  0  0  0  0  0  0
   34.0580   29.6400   32.5440 C   0  0  0  0  0  0  0  0  0  0  0  0
   34.2280   30.6130   31.6090 N   0  0  0  0  0  0  0  0  0  0  0  0
   33.2360   31.4200   31.1880 C   0  0  0  0  0  0  0  0  0  0  0  0
   32.0260   31.2740   31.6990 N   0  0  0  0  0  0  0  0  0  0  0  0
   30.7910   30.1590   33.0970 H   0  0  0  0  0  0  0  0  0  0  0  0
   32.6460   28.7150   33.8260 H   0  0  0  0  0  0  0  0  0  0  0  0
   33.4340   32.1770   30.4390 H   0  0  0  0  0  0  0  0  0  0  0  0
   39.4220   24.7980   32.4360 O   0  0  0  0  0  0  0  0  0  0  0  0
   37.9640   23.6330   33.7630 N   0  0  0  0  0  0  0  0  0  0  0  0
   39.1380   23.5070   32.9430 C   0  0  1  0  0  0  0  0  0  0  0  0
   38.9100   22.5580   31.8620 C   0  0  0  0  0  0  0  0  0  0  0  0
   38.6450   21.2930   32.4180 O   0  0  0  0  0  0  0  0  0  0  0  0
   37.6300   21.2500   33.3260 C   0  0  0  0  0  0  0  0  0  0  0  0
   37.7140   22.3560   34.3560 C   0  0  1  0  0  0  0  0  0  0  0  0
   37.1940   24.1800   33.4780 H   0  0  0  0  0  0  0  0  0  0  0  0
   39.9910   23.2010   33.5620 H   0  0  0  0  0  0  0  0  0  0  0  0
   39.9060   22.4010   31.3480 H   0  0  0  0  0  0  0  0  0  0  0  0
   38.1900   22.6580   31.0970 H   0  0  0  0  0  0  0  0  0  0  0  0
   37.6880   20.3090   33.8710 H   0  0  0  0  0  0  0  0  0  0  0  0
   36.6320   21.3460   32.8310 H   0  0  0  0  0  0  0  0  0  0  0  0
   36.7120   22.3700   34.8740 H   0  0  0  0  0  0  0  0  0  0  0  0
   38.6700   21.9850   35.3540 N   0  0  0  0  0  0  0  0  0  0  0  0
   39.6330   21.9090   34.9230 H   0  0  0  0  0  0  0  0  0  0  0  0
   38.7320   23.1360   36.6390 S   0  0  0  0  0  0  0  0  0  0  0  0
   37.3240   23.5360   36.9920 O   0  0  0  0  0  1  0  0  0  0  0  0
   39.5010   24.3640   36.2970 O   0  0  0  0  0  1  0  0  0  0  0  0
   39.3990   22.3880   37.9960 O   0  0  0  0  0  0  0  0  0  0  0  0
   40.0830   21.7220   37.7300 H   0  0  0  0  0  0  0  0  0  0  0  0
  1  9  1  0  0  0  0
  1 10  1  0  0  0  0
  2  1  2  0  0  0  0
  3  4  2  0  0  0  0
  3  2  1  0  0  0  0
  4  8  1  0  0  0  0
  5  4  1  0  0  0  0
  5  6  1  0  0  0  0
  6  7  2  0  0  0  0
  8  7  1  0  0  0  0
  8  9  2  0  0  0  0
  9 13  1  0  0  0  0
 11  3  1  0  0  0  0
 12  5  1  0  0  0  0
 14 15  1  0  0  0  0
 14 20  1  0  0  0  0
 15 21  1  0  0  0  0
 16  2  1  0  0  0  0
 16 15  2  0  0  0  0
 17 16  1  0  0  0  0
 18 17  2  0  0  0  0
 18 19  1  0  0  0  0
 19 14  2  0  0  0  0
 22 18  1  0  0  0  0
 23  6  1  0  0  0  0
 23 25  1  0  0  0  0
 24 29  1  0  0  0  0
 25 31  1  1  0  0  0
 25 24  1  0  0  0  0
 26 27  1  0  0  0  0
 26 25  1  0  0  0  0
 27 28  1  0  0  0  0
 28 34  1  0  0  0  0
 28 29  1  0  0  0  0
 29 36  1  1  0  0  0
 29 37  1  0  0  0  0
 30 24  1  0  0  0  0
 32 26  1  0  0  0  0
 33 26  1  0  0  0  0
 35 28  1  0  0  0  0
 37 39  1  0  0  0  0
 38 37  1  0  0  0  0
 39 40  1  0  0  0  0
 39 42  1  0  0  0  0
 41 39  1  0  0  0  0
 43 42  1  0  0  0  0
M  END
>  <minimizedAffinity>
-5.29790688

$$$$
