
 OpenBabel03272503063D

 30 31  0  0  0  0  0  0  0  0999 V2000
   38.4930   30.4190   47.3050 F   0  0  0  0  0  0  0  0  0  0  0  0
   38.7640   31.6530   47.7950 C   0  0  0  0  0  0  0  0  0  0  0  0
   38.1980   32.0750   48.9720 C   0  0  0  0  0  0  0  0  0  0  0  0
   38.5170   33.3290   49.4040 C   0  0  0  0  0  0  0  0  0  0  0  0
   39.3670   34.1630   48.7110 C   0  0  0  0  0  0  0  0  0  0  0  0
   39.9260   33.7230   47.5320 C   0  0  0  0  0  0  0  0  0  0  0  0
   39.6260   32.4580   47.0640 C   0  0  0  0  0  0  0  0  0  0  0  0
   38.0750   33.6670   50.3290 H   0  0  0  0  0  0  0  0  0  0  0  0
   39.6270   35.1590   49.0440 H   0  0  0  0  0  0  0  0  0  0  0  0
   40.6140   34.2910   46.8940 H   0  0  0  0  0  0  0  0  0  0  0  0
   36.7830   29.5810   51.4380 C   0  0  0  0  0  0  0  0  0  0  0  0
   37.6700   30.4580   50.8050 C   0  0  0  0  0  0  0  0  0  0  0  0
   37.3060   31.1520   49.6630 C   0  0  0  0  0  0  0  0  0  0  0  0
   36.0340   30.9240   49.2020 N   0  0  0  0  0  0  0  0  0  0  0  0
   35.1940   30.0790   49.8210 C   0  0  0  0  0  0  0  0  0  0  0  0
   35.5620   29.4150   50.9240 N   0  0  0  0  0  0  0  0  0  0  0  0
   37.1370   29.0860   52.3080 H   0  0  0  0  0  0  0  0  0  0  0  0
   38.6760   30.6170   51.1980 H   0  0  0  0  0  0  0  0  0  0  0  0
   34.1840   29.9100   49.4380 H   0  0  0  0  0  0  0  0  0  0  0  0
   39.3870   32.2340   44.6900 C   0  0  0  0  0  0  0  0  0  0  0  0
   38.2870   32.8210   44.9270 O   0  0  0  0  0  0  0  0  0  0  0  0
   40.1840   31.9570   45.8400 N   0  0  0  0  0  0  0  0  0  0  0  0
   41.0670   31.4330   45.6730 H   0  0  0  0  0  0  0  0  0  0  0  0
   39.7710   31.8910   43.3620 N   0  0  0  0  0  0  0  0  0  0  0  0
   40.7550   32.0880   43.0520 H   0  0  0  0  0  0  0  0  0  0  0  0
   38.6880   31.1590   42.2320 S   0  0  0  0  0  0  0  0  0  0  0  0
   39.3120   29.9420   41.6660 O   0  0  0  0  0  1  0  0  0  0  0  0
   38.3860   32.1150   41.0980 O   0  0  0  0  0  1  0  0  0  0  0  0
   37.2210   30.8520   43.0020 O   0  0  0  0  0  0  0  0  0  0  0  0
   36.7770   30.0420   42.6390 H   0  0  0  0  0  0  0  0  0  0  0  0
  1  2  1  0  0  0  0
  2  3  1  0  0  0  0
  3  4  2  0  0  0  0
  3 13  1  0  0  0  0
  4  8  1  0  0  0  0
  5  9  1  0  0  0  0
  5  4  1  0  0  0  0
  6  5  2  0  0  0  0
  7  6  1  0  0  0  0
  7  2  2  0  0  0  0
 10  6  1  0  0  0  0
 11 17  1  0  0  0  0
 12 18  1  0  0  0  0
 12 11  2  0  0  0  0
 13 12  1  0  0  0  0
 14 13  2  0  0  0  0
 14 15  1  0  0  0  0
 15 16  2  0  0  0  0
 16 11  1  0  0  0  0
 19 15  1  0  0  0  0
 20 21  2  0  0  0  0
 20 22  1  0  0  0  0
 22  7  1  0  0  0  0
 23 22  1  0  0  0  0
 24 20  1  0  0  0  0
 25 24  1  0  0  0  0
 26 29  1  0  0  0  0
 26 24  1  0  0  0  0
 27 26  1  0  0  0  0
 28 26  1  0  0  0  0
 30 29  1  0  0  0  0
M  END
>  <minimizedAffinity>
-6.13639498

>  <minimizedRMSD>
0.200031534

$$$$
