
 OpenBabel03272506533D

 42 44  0  0  1  0  0  0  0  0999 V2000
   35.3060   30.4790   48.2640 C   0  0  1  0  0  0  0  0  0  0  0  0
   33.9370   30.5880   47.8220 C   0  0  0  0  0  0  0  0  0  0  0  0
   33.2220   29.2840   47.5240 C   0  0  0  0  0  0  0  0  0  0  0  0
   33.4670   28.1810   48.4250 C   0  0  2  0  0  0  0  0  0  0  0  0
   34.8920   28.0450   48.9670 C   0  0  0  0  0  0  0  0  0  0  0  0
   35.4550   29.3980   49.3070 C   0  0  0  0  0  0  0  0  0  0  0  0
   35.5630   31.4190   48.8530 H   0  0  0  0  0  0  0  0  0  0  0  0
   33.3300   31.0470   48.6460 H   0  0  0  0  0  0  0  0  0  0  0  0
   33.7410   31.2390   46.9590 H   0  0  0  0  0  0  0  0  0  0  0  0
   33.7270   28.9990   46.5400 H   0  0  0  0  0  0  0  0  0  0  0  0
   32.1630   29.4950   47.3850 H   0  0  0  0  0  0  0  0  0  0  0  0
   32.8650   28.1560   49.3530 H   0  0  0  0  0  0  0  0  0  0  0  0
   35.4990   27.5550   48.2120 H   0  0  0  0  0  0  0  0  0  0  0  0
   34.8460   27.5800   49.9560 H   0  0  0  0  0  0  0  0  0  0  0  0
   36.5350   29.2890   49.5300 H   0  0  0  0  0  0  0  0  0  0  0  0
   34.9870   29.7930   50.2570 H   0  0  0  0  0  0  0  0  0  0  0  0
   33.2140   26.9060   47.6920 C   0  0  0  0  0  0  0  0  0  0  0  0
   34.1920   26.4980   46.7620 C   0  0  0  0  0  0  0  0  0  0  0  0
   34.0040   25.3560   46.0130 C   0  0  0  0  0  0  0  0  0  0  0  0
   32.8730   24.6290   46.1780 C   0  0  0  0  0  0  0  0  0  0  0  0
   31.9150   25.0220   47.0800 C   0  0  0  0  0  0  0  0  0  0  0  0
   32.0920   26.1690   47.8370 C   0  0  0  0  0  0  0  0  0  0  0  0
   35.1370   26.9330   46.4650 H   0  0  0  0  0  0  0  0  0  0  0  0
   34.6860   24.9510   45.2730 H   0  0  0  0  0  0  0  0  0  0  0  0
   32.6720   23.7060   45.6060 H   0  0  0  0  0  0  0  0  0  0  0  0
   31.0220   24.4080   47.1760 H   0  0  0  0  0  0  0  0  0  0  0  0
   31.0260   26.5000   48.6680 N   0  0  0  0  0  0  0  0  0  0  0  0
   30.7400   26.2760   49.6680 H   0  0  0  0  0  0  0  0  0  0  0  0
   29.6790   27.5450   48.3250 S   0  0  0  0  0  0  0  0  0  0  0  0
   29.8950   28.1010   46.9240 O   0  0  0  0  0  0  0  0  0  0  0  0
   28.3760   26.8210   48.3170 O   0  0  0  0  0  0  0  0  0  0  0  0
   29.6230   28.8400   49.3480 O   0  0  0  0  0  0  0  0  0  0  0  0
   29.4150   28.6260   50.2800 H   0  0  0  0  0  0  0  0  0  0  0  0
   36.1050   30.3230   45.9030 C   0  0  0  0  0  0  0  0  0  0  0  0
   36.3740   30.4550   47.2550 C   0  0  0  0  0  0  0  0  0  0  0  0
   37.7150   30.5710   47.6350 C   0  0  0  0  0  0  0  0  0  0  0  0
   38.6760   30.5470   46.6660 N   0  0  0  0  0  0  0  0  0  0  0  0
   38.3680   30.4160   45.3530 C   0  0  0  0  0  0  0  0  0  0  0  0
   37.0630   30.3030   44.9740 N   0  0  0  0  0  0  0  0  0  0  0  0
   35.1610   30.2420   45.4360 H   0  0  0  0  0  0  0  0  0  0  0  0
   38.0100   30.6780   48.6660 H   0  0  0  0  0  0  0  0  0  0  0  0
   39.2430   30.4170   44.7330 H   0  0  0  0  0  0  0  0  0  0  0  0
  1  7  1  1  0  0  0
  1  6  1  0  0  0  0
  2  1  1  0  0  0  0
  2  8  1  0  0  0  0
  3  2  1  0  0  0  0
  3  4  1  0  0  0  0
  4  5  1  0  0  0  0
  4 12  1  1  0  0  0
  5  6  1  0  0  0  0
  5 14  1  0  0  0  0
  6 15  1  0  0  0  0
  6 16  1  0  0  0  0
  9  2  1  0  0  0  0
 10  3  1  0  0  0  0
 11  3  1  0  0  0  0
 13  5  1  0  0  0  0
 17 22  1  0  0  0  0
 17  4  1  0  0  0  0
 18 17  2  0  0  0  0
 19 20  2  0  0  0  0
 19 18  1  0  0  0  0
 20 21  1  0  0  0  0
 21 26  1  0  0  0  0
 21 22  2  0  0  0  0
 22 27  1  0  0  0  0
 23 18  1  0  0  0  0
 24 19  1  0  0  0  0
 25 20  1  0  0  0  0
 27 28  1  0  0  0  0
 29 27  1  0  0  0  0
 29 32  1  0  0  0  0
 30 29  1  0  0  0  0
 31 29  1  0  0  0  0
 32 33  1  0  0  0  0
 34 35  1  0  0  0  0
 35 36  2  0  0  0  0
 35  1  1  0  0  0  0
 36 41  1  0  0  0  0
 37 36  1  0  0  0  0
 38 37  2  0  0  0  0
 39 38  1  0  0  0  0
 39 34  2  0  0  0  0
 40 34  1  0  0  0  0
 42 38  1  0  0  0  0
M  END
>  <minimizedAffinity>
-4.8252244

>  <minimizedRMSD>
2.83739543

$$$$
