
 OpenBabel03272509393D

 28 29  0  0  0  0  0  0  0  0999 V2000
   38.7030   23.2410   35.9910 C   0  0  0  0  0  0  0  0  0  0  0  0
   37.8870   24.3040   36.3510 C   0  0  0  0  0  0  0  0  0  0  0  0
   37.7280   24.7760   37.6460 C   0  0  0  0  0  0  0  0  0  0  0  0
   38.4400   24.1370   38.6570 C   0  0  0  0  0  0  0  0  0  0  0  0
   39.2620   23.0690   38.3080 C   0  0  0  0  0  0  0  0  0  0  0  0
   39.3820   22.6420   37.0080 C   0  0  0  0  0  0  0  0  0  0  0  0
   37.3240   24.8110   35.5610 H   0  0  0  0  0  0  0  0  0  0  0  0
   37.0620   25.6170   37.8140 H   0  0  0  0  0  0  0  0  0  0  0  0
   38.2760   24.5470   39.6420 H   0  0  0  0  0  0  0  0  0  0  0  0
   39.7310   22.6920   39.2020 H   0  0  0  0  0  0  0  0  0  0  0  0
   38.7770   22.8490   34.6000 C   0  0  0  0  0  0  0  0  0  0  0  0
   39.9640   22.8890   34.1100 O   0  0  0  0  0  0  0  0  0  0  0  0
   36.4020   22.9580   31.8640 C   0  0  0  0  0  0  0  0  0  0  0  0
   35.5690   21.8690   32.0790 C   0  0  0  0  0  0  0  0  0  0  0  0
   35.8280   21.0850   33.1840 C   0  0  0  0  0  0  0  0  0  0  0  0
   36.8740   21.3850   34.0300 N   0  0  0  0  0  0  0  0  0  0  0  0
   37.6460   22.4410   33.7830 C   0  0  0  0  0  0  0  0  0  0  0  0
   37.4040   23.2110   32.7120 N   0  0  0  0  0  0  0  0  0  0  0  0
   36.1600   23.5450   30.9840 H   0  0  0  0  0  0  0  0  0  0  0  0
   34.7390   21.5570   31.4840 H   0  0  0  0  0  0  0  0  0  0  0  0
   35.2880   20.1920   33.5190 H   0  0  0  0  0  0  0  0  0  0  0  0
   40.2460   21.5380   36.8040 N   0  0  0  0  0  0  0  0  0  0  0  0
   40.0440   20.5550   36.5660 H   0  0  0  0  0  0  0  0  0  0  0  0
   41.9530   21.3360   36.8770 S   0  0  0  0  0  0  0  0  0  0  0  0
   42.3820   20.5660   35.6340 O   0  0  0  0  0  1  0  0  0  0  0  0
   42.7170   22.6070   36.9580 O   0  0  0  0  0  1  0  0  0  0  0  0
   42.3150   20.3120   38.1870 O   0  0  0  0  0  0  0  0  0  0  0  0
   41.6270   19.6080   38.2590 H   0  0  0  0  0  0  0  0  0  0  0  0
  1  2  2  0  0  0  0
  1  6  1  0  0  0  0
  2  3  1  0  0  0  0
  3  8  1  0  0  0  0
  3  4  2  0  0  0  0
  4  9  1  0  0  0  0
  5  4  1  0  0  0  0
  5 10  1  0  0  0  0
  6  5  2  0  0  0  0
  7  2  1  0  0  0  0
 11  1  1  0  0  0  0
 12 11  2  0  0  0  0
 13 14  2  0  0  0  0
 13 18  1  0  0  0  0
 14 15  1  0  0  0  0
 15 21  1  0  0  0  0
 15 16  2  0  0  0  0
 17 16  1  0  0  0  0
 17 11  1  0  0  0  0
 18 17  2  0  0  0  0
 19 13  1  0  0  0  0
 20 14  1  0  0  0  0
 22 24  1  0  0  0  0
 22  6  1  0  0  0  0
 23 22  1  0  0  0  0
 24 26  1  0  0  0  0
 24 27  1  0  0  0  0
 25 24  1  0  0  0  0
 27 28  1  0  0  0  0
M  END
>  <minimizedAffinity>
-5.07189035

$$$$

 OpenBabel03272509393D

 28 29  0  0  1  0  0  0  0  0999 V2000
   38.1680   25.0770   34.0370 C   0  0  0  0  0  0  0  0  0  0  0  0
   37.4430   26.1110   33.4620 C   0  0  0  0  0  0  0  0  0  0  0  0
   37.1830   27.3300   34.0720 C   0  0  0  0  0  0  0  0  0  0  0  0
   37.6880   27.5300   35.3540 C   0  0  0  0  0  0  0  0  0  0  0  0
   38.4170   26.5000   35.9410 C   0  0  0  0  0  0  0  0  0  0  0  0
   38.6450   25.3120   35.2910 C   0  0  0  0  0  0  0  0  0  0  0  0
   37.0420   25.9610   32.4550 H   0  0  0  0  0  0  0  0  0  0  0  0
   36.6030   28.0690   33.5290 H   0  0  0  0  0  0  0  0  0  0  0  0
   37.4540   28.4960   35.7770 H   0  0  0  0  0  0  0  0  0  0  0  0
   38.7280   26.8170   36.9230 H   0  0  0  0  0  0  0  0  0  0  0  0
   38.3650   23.8540   33.2890 C   0  0  2  0  0  3  0  0  0  0  0  0
   39.5970   23.5940   33.0310 O   0  0  0  0  0  1  0  0  0  0  0  0
   36.1060   21.0210   33.3730 C   0  0  0  0  0  0  0  0  0  0  0  0
   35.3420   21.1480   32.2210 C   0  0  0  0  0  0  0  0  0  0  0  0
   35.6090   22.2250   31.4020 C   0  0  0  0  0  0  0  0  0  0  0  0
   36.5980   23.1290   31.7280 N   0  0  0  0  0  0  0  0  0  0  0  0
   37.3060   22.9650   32.8440 C   0  0  0  0  0  0  0  0  0  0  0  0
   37.0550   21.9210   33.6480 N   0  0  0  0  0  0  0  0  0  0  0  0
   35.8610   20.1590   33.9850 H   0  0  0  0  0  0  0  0  0  0  0  0
   34.5580   20.5040   31.8850 H   0  0  0  0  0  0  0  0  0  0  0  0
   35.1180   22.4940   30.4590 H   0  0  0  0  0  0  0  0  0  0  0  0
   39.3940   24.3510   36.0150 N   0  0  0  0  0  0  0  0  0  0  0  0
   40.4050   24.1450   36.0200 H   0  0  0  0  0  0  0  0  0  0  0  0
   38.9760   23.1280   37.1500 S   0  0  0  0  0  0  0  0  0  0  0  0
   40.2680   22.6180   37.7770 O   0  0  0  0  0  1  0  0  0  0  0  0
   38.0520   23.5770   38.2220 O   0  0  0  0  0  1  0  0  0  0  0  0
   38.3370   21.8020   36.2960 O   0  0  0  0  0  0  0  0  0  0  0  0
   38.8250   21.6870   35.4470 H   0  0  0  0  0  0  0  0  0  0  0  0
  1  6  1  0  0  0  0
  2  1  2  0  0  0  0
  2  3  1  0  0  0  0
  3  4  2  0  0  0  0
  4  9  1  0  0  0  0
  4  5  1  0  0  0  0
  5 10  1  0  0  0  0
  6  5  2  0  0  0  0
  6 22  1  0  0  0  0
  7  2  1  0  0  0  0
  8  3  1  0  0  0  0
 11 12  1  6  0  0  0
 11  1  1  0  0  0  0
 13 18  1  0  0  0  0
 13 19  1  0  0  0  0
 14 13  2  0  0  0  0
 15 16  2  0  0  0  0
 15 14  1  0  0  0  0
 16 17  1  0  0  0  0
 17 11  1  0  0  0  0
 17 18  2  0  0  0  0
 20 14  1  0  0  0  0
 21 15  1  0  0  0  0
 22 23  1  0  0  0  0
 22 24  1  0  0  0  0
 24 25  1  0  0  0  0
 24 26  1  0  0  0  0
 27 24  1  0  0  0  0
 28 27  1  0  0  0  0
M  END
>  <minimizedAffinity>
-4.98686457

$$$$

 OpenBabel03272509393D

 28 29  0  0  1  0  0  0  0  0999 V2000
   38.9590   23.5700   35.6460 C   0  0  0  0  0  0  0  0  0  0  0  0
   39.6510   22.6680   36.4420 C   0  0  0  0  0  0  0  0  0  0  0  0
   39.6110   22.6430   37.8290 C   0  0  0  0  0  0  0  0  0  0  0  0
   38.8170   23.5920   38.4680 C   0  0  0  0  0  0  0  0  0  0  0  0
   38.1180   24.5020   37.6810 C   0  0  0  0  0  0  0  0  0  0  0  0
   38.1950   24.4820   36.3090 C   0  0  0  0  0  0  0  0  0  0  0  0
   40.2770   21.9190   35.9460 H   0  0  0  0  0  0  0  0  0  0  0  0
   40.1930   21.8910   38.3510 H   0  0  0  0  0  0  0  0  0  0  0  0
   38.8260   23.5230   39.5450 H   0  0  0  0  0  0  0  0  0  0  0  0
   37.5630   25.1590   38.3290 H   0  0  0  0  0  0  0  0  0  0  0  0
   39.0900   23.4870   34.2080 C   0  0  2  0  0  3  0  0  0  0  0  0
   40.2780   23.7260   33.7780 O   0  0  0  0  0  1  0  0  0  0  0  0
   36.7810   21.4150   32.3340 C   0  0  0  0  0  0  0  0  0  0  0  0
   36.0150   22.3150   31.6060 C   0  0  0  0  0  0  0  0  0  0  0  0
   36.2980   23.6550   31.7610 C   0  0  0  0  0  0  0  0  0  0  0  0
   37.3040   24.0690   32.6080 N   0  0  0  0  0  0  0  0  0  0  0  0
   38.0130   23.1680   33.2860 C   0  0  0  0  0  0  0  0  0  0  0  0
   37.7470   21.8620   33.1430 N   0  0  0  0  0  0  0  0  0  0  0  0
   36.5230   20.3720   32.1790 H   0  0  0  0  0  0  0  0  0  0  0  0
   35.2190   22.0930   30.9290 H   0  0  0  0  0  0  0  0  0  0  0  0
   35.8090   24.5090   31.2770 H   0  0  0  0  0  0  0  0  0  0  0  0
   37.4370   25.4750   35.6390 N   0  0  0  0  0  0  0  0  0  0  0  0
   36.4660   25.4650   35.2920 H   0  0  0  0  0  0  0  0  0  0  0  0
   37.7830   27.0720   35.1030 S   0  0  0  0  0  0  0  0  0  0  0  0
   38.7240   26.9660   33.9090 O   0  0  0  0  0  1  0  0  0  0  0  0
   36.5860   27.8620   34.7180 O   0  0  0  0  0  1  0  0  0  0  0  0
   38.6820   27.8610   36.3140 O   0  0  0  0  0  0  0  0  0  0  0  0
   39.3070   27.2230   36.7320 H   0  0  0  0  0  0  0  0  0  0  0  0
  1  6  2  0  0  0  0
  1  2  1  0  0  0  0
  2  3  2  0  0  0  0
  3  8  1  0  0  0  0
  3  4  1  0  0  0  0
  4  9  1  0  0  0  0
  5 10  1  0  0  0  0
  5  4  2  0  0  0  0
  6  5  1  0  0  0  0
  7  2  1  0  0  0  0
 11 12  1  6  0  0  0
 11  1  1  0  0  0  0
 13 18  1  0  0  0  0
 14 15  1  0  0  0  0
 14 13  2  0  0  0  0
 15 16  2  0  0  0  0
 16 17  1  0  0  0  0
 17 11  1  0  0  0  0
 18 17  2  0  0  0  0
 19 13  1  0  0  0  0
 20 14  1  0  0  0  0
 21 15  1  0  0  0  0
 22  6  1  0  0  0  0
 23 22  1  0  0  0  0
 24 22  1  0  0  0  0
 24 27  1  0  0  0  0
 25 24  1  0  0  0  0
 26 24  1  0  0  0  0
 27 28  1  0  0  0  0
M  END
>  <minimizedAffinity>
-4.98581505

$$$$

 OpenBabel03272509393D

 28 29  0  0  0  0  0  0  0  0999 V2000
   37.1810   22.2220   33.5300 C   0  0  0  0  0  0  0  0  0  0  0  0
   36.6070   21.1050   34.1210 C   0  0  0  0  0  0  0  0  0  0  0  0
   35.5260   20.4050   33.6050 C   0  0  0  0  0  0  0  0  0  0  0  0
   34.9780   20.8560   32.4070 C   0  0  0  0  0  0  0  0  0  0  0  0
   35.5450   21.9740   31.8050 C   0  0  0  0  0  0  0  0  0  0  0  0
   36.6170   22.6310   32.3600 C   0  0  0  0  0  0  0  0  0  0  0  0
   37.0320   20.7450   35.0630 H   0  0  0  0  0  0  0  0  0  0  0  0
   35.1570   19.5430   34.1520 H   0  0  0  0  0  0  0  0  0  0  0  0
   34.1400   20.2720   32.0560 H   0  0  0  0  0  0  0  0  0  0  0  0
   35.0040   22.1860   30.8980 H   0  0  0  0  0  0  0  0  0  0  0  0
   38.3080   22.8600   34.1760 C   0  0  0  0  0  0  0  0  0  0  0  0
   39.2340   23.2270   33.3640 O   0  0  0  0  0  0  0  0  0  0  0  0
   39.7500   22.6380   37.4930 C   0  0  0  0  0  0  0  0  0  0  0  0
   38.8980   23.3840   38.2960 C   0  0  0  0  0  0  0  0  0  0  0  0
   37.8100   23.9710   37.6870 C   0  0  0  0  0  0  0  0  0  0  0  0
   37.5900   23.8140   36.3350 N   0  0  0  0  0  0  0  0  0  0  0  0
   38.4350   23.0880   35.6050 C   0  0  0  0  0  0  0  0  0  0  0  0
   39.4970   22.5120   36.1860 N   0  0  0  0  0  0  0  0  0  0  0  0
   40.5920   22.1950   38.0160 H   0  0  0  0  0  0  0  0  0  0  0  0
   38.9830   23.5630   39.3460 H   0  0  0  0  0  0  0  0  0  0  0  0
   37.0310   24.5910   38.1470 H   0  0  0  0  0  0  0  0  0  0  0  0
   37.0830   23.7600   31.6410 N   0  0  0  0  0  0  0  0  0  0  0  0
   37.8330   23.8530   30.9400 H   0  0  0  0  0  0  0  0  0  0  0  0
   36.6440   25.4230   31.6270 S   0  0  0  0  0  0  0  0  0  0  0  0
   35.1950   25.5150   31.1640 O   0  0  0  0  0  1  0  0  0  0  0  0
   36.7860   26.1050   32.9380 O   0  0  0  0  0  1  0  0  0  0  0  0
   37.5520   26.2070   30.4200 O   0  0  0  0  0  0  0  0  0  0  0  0
   37.6540   25.6100   29.6410 H   0  0  0  0  0  0  0  0  0  0  0  0
  1  2  1  0  0  0  0
  1 11  1  0  0  0  0
  2  7  1  0  0  0  0
  3  2  2  0  0  0  0
  3  8  1  0  0  0  0
  4  3  1  0  0  0  0
  5  6  1  0  0  0  0
  5  4  2  0  0  0  0
  6  1  2  0  0  0  0
  9  4  1  0  0  0  0
 10  5  1  0  0  0  0
 11 17  1  0  0  0  0
 12 11  2  0  0  0  0
 13 19  1  0  0  0  0
 13 14  1  0  0  0  0
 14 20  1  0  0  0  0
 15 21  1  0  0  0  0
 15 14  2  0  0  0  0
 16 15  1  0  0  0  0
 17 18  1  0  0  0  0
 17 16  2  0  0  0  0
 18 13  2  0  0  0  0
 22  6  1  0  0  0  0
 23 22  1  0  0  0  0
 24 22  1  0  0  0  0
 24 26  1  0  0  0  0
 25 24  1  0  0  0  0
 27 24  1  0  0  0  0
 28 27  1  0  0  0  0
M  END
>  <minimizedAffinity>
-4.96824789

$$$$

 OpenBabel03272509393D

 28 29  0  0  1  0  0  0  0  0999 V2000
   39.5970   26.0130   34.9490 C   0  0  0  0  0  0  0  0  0  0  0  0
   40.7270   26.6950   34.5220 C   0  0  0  0  0  0  0  0  0  0  0  0
   42.0090   26.1630   34.4920 C   0  0  0  0  0  0  0  0  0  0  0  0
   42.1710   24.8490   34.9230 C   0  0  0  0  0  0  0  0  0  0  0  0
   41.0450   24.1550   35.3540 C   0  0  0  0  0  0  0  0  0  0  0  0
   39.7980   24.7310   35.3620 C   0  0  0  0  0  0  0  0  0  0  0  0
   40.6070   27.7280   34.1820 H   0  0  0  0  0  0  0  0  0  0  0  0
   42.8220   26.7880   34.1380 H   0  0  0  0  0  0  0  0  0  0  0  0
   43.1890   24.4910   34.8780 H   0  0  0  0  0  0  0  0  0  0  0  0
   41.3460   23.1640   35.6520 H   0  0  0  0  0  0  0  0  0  0  0  0
   38.3170   26.6880   34.9290 C   0  0  2  0  0  3  0  0  0  0  0  0
   37.9770   27.1930   36.0610 O   0  0  0  0  0  1  0  0  0  0  0  0
   36.4810   25.6370   31.9870 C   0  0  0  0  0  0  0  0  0  0  0  0
   35.8520   26.7890   31.5360 C   0  0  0  0  0  0  0  0  0  0  0  0
   36.0640   27.9460   32.2550 C   0  0  0  0  0  0  0  0  0  0  0  0
   36.8710   27.9420   33.3730 N   0  0  0  0  0  0  0  0  0  0  0  0
   37.4540   26.8120   33.7670 C   0  0  0  0  0  0  0  0  0  0  0  0
   37.2550   25.6800   33.0760 N   0  0  0  0  0  0  0  0  0  0  0  0
   36.2850   24.7520   31.3900 H   0  0  0  0  0  0  0  0  0  0  0  0
   35.2120   26.8920   30.6870 H   0  0  0  0  0  0  0  0  0  0  0  0
   35.6600   28.9460   32.0590 H   0  0  0  0  0  0  0  0  0  0  0  0
   38.7460   23.9080   35.8370 N   0  0  0  0  0  0  0  0  0  0  0  0
   38.0090   23.3930   35.3320 H   0  0  0  0  0  0  0  0  0  0  0  0
   38.2260   23.4320   37.4060 S   0  0  0  0  0  0  0  0  0  0  0  0
   38.0650   24.6950   38.2430 O   0  0  0  0  0  1  0  0  0  0  0  0
   36.9550   22.6640   37.4230 O   0  0  0  0  0  1  0  0  0  0  0  0
   39.4860   22.5600   38.1460 O   0  0  0  0  0  0  0  0  0  0  0  0
   40.3540   22.9580   37.9000 H   0  0  0  0  0  0  0  0  0  0  0  0
  1  6  1  0  0  0  0
  2  1  2  0  0  0  0
  3  2  1  0  0  0  0
  3  4  2  0  0  0  0
  4  5  1  0  0  0  0
  5  6  2  0  0  0  0
  5 10  1  0  0  0  0
  6 22  1  0  0  0  0
  7  2  1  0  0  0  0
  8  3  1  0  0  0  0
  9  4  1  0  0  0  0
 11  1  1  0  0  0  0
 11 12  1  1  0  0  0
 13 18  1  0  0  0  0
 14 13  2  0  0  0  0
 14 15  1  0  0  0  0
 15 16  2  0  0  0  0
 16 17  1  0  0  0  0
 17 11  1  0  0  0  0
 18 17  2  0  0  0  0
 19 13  1  0  0  0  0
 20 14  1  0  0  0  0
 21 15  1  0  0  0  0
 22 24  1  0  0  0  0
 23 22  1  0  0  0  0
 24 26  1  0  0  0  0
 24 27  1  0  0  0  0
 24 25  1  0  0  0  0
 28 27  1  0  0  0  0
M  END
>  <minimizedAffinity>
-4.91962814

$$$$

 OpenBabel03272509393D

 28 29  0  0  0  0  0  0  0  0999 V2000
   38.2070   24.9270   35.1730 C   0  0  0  0  0  0  0  0  0  0  0  0
   38.3260   26.0340   36.0010 C   0  0  0  0  0  0  0  0  0  0  0  0
   37.9770   27.3290   35.6450 C   0  0  0  0  0  0  0  0  0  0  0  0
   37.4690   27.5310   34.3650 C   0  0  0  0  0  0  0  0  0  0  0  0
   37.3440   26.4280   33.5260 C   0  0  0  0  0  0  0  0  0  0  0  0
   37.7060   25.1660   33.9300 C   0  0  0  0  0  0  0  0  0  0  0  0
   38.7250   25.8830   37.0090 H   0  0  0  0  0  0  0  0  0  0  0  0
   38.1130   28.1220   36.3730 H   0  0  0  0  0  0  0  0  0  0  0  0
   37.2160   28.5580   34.1450 H   0  0  0  0  0  0  0  0  0  0  0  0
   36.9420   26.7590   32.5820 H   0  0  0  0  0  0  0  0  0  0  0  0
   38.6090   23.6290   35.6710 C   0  0  0  0  0  0  0  0  0  0  0  0
   37.6340   22.8080   35.8340 O   0  0  0  0  0  0  0  0  0  0  0  0
   41.2900   21.7470   37.2200 C   0  0  0  0  0  0  0  0  0  0  0  0
   42.4530   22.3040   36.7060 C   0  0  0  0  0  0  0  0  0  0  0  0
   42.3120   23.3450   35.8140 C   0  0  0  0  0  0  0  0  0  0  0  0
   41.0610   23.8020   35.4570 N   0  0  0  0  0  0  0  0  0  0  0  0
   39.9740   23.2350   35.9770 C   0  0  0  0  0  0  0  0  0  0  0  0
   40.0990   22.2220   36.8460 N   0  0  0  0  0  0  0  0  0  0  0  0
   41.4510   20.9310   37.9190 H   0  0  0  0  0  0  0  0  0  0  0  0
   43.4610   22.0220   36.9200 H   0  0  0  0  0  0  0  0  0  0  0  0
   43.1020   23.9100   35.3040 H   0  0  0  0  0  0  0  0  0  0  0  0
   37.5330   24.1410   32.9660 N   0  0  0  0  0  0  0  0  0  0  0  0
   37.9080   23.1820   32.9240 H   0  0  0  0  0  0  0  0  0  0  0  0
   36.6730   24.0410   31.4800 S   0  0  0  0  0  0  0  0  0  0  0  0
   36.7870   22.6080   30.9740 O   0  0  0  0  0  1  0  0  0  0  0  0
   35.2400   24.4180   31.5740 O   0  0  0  0  0  1  0  0  0  0  0  0
   37.4880   24.9910   30.3260 O   0  0  0  0  0  0  0  0  0  0  0  0
   38.4620   24.9110   30.4580 H   0  0  0  0  0  0  0  0  0  0  0  0
  1 11  1  0  0  0  0
  1  2  1  0  0  0  0
  2  7  1  0  0  0  0
  3  2  2  0  0  0  0
  3  8  1  0  0  0  0
  4  3  1  0  0  0  0
  5  6  1  0  0  0  0
  5  4  2  0  0  0  0
  6  1  2  0  0  0  0
  9  4  1  0  0  0  0
 10  5  1  0  0  0  0
 11 12  2  0  0  0  0
 11 17  1  0  0  0  0
 13 19  1  0  0  0  0
 14 20  1  0  0  0  0
 14 13  2  0  0  0  0
 15 14  1  0  0  0  0
 16 15  2  0  0  0  0
 16 17  1  0  0  0  0
 17 18  2  0  0  0  0
 18 13  1  0  0  0  0
 21 15  1  0  0  0  0
 22  6  1  0  0  0  0
 23 22  1  0  0  0  0
 24 26  1  0  0  0  0
 24 22  1  0  0  0  0
 25 24  1  0  0  0  0
 27 28  1  0  0  0  0
 27 24  1  0  0  0  0
M  END
>  <minimizedAffinity>
-4.84461355

$$$$

 OpenBabel03272509393D

 28 29  0  0  1  0  0  0  0  0999 V2000
   36.5750   22.8260   32.1810 C   0  0  0  0  0  0  0  0  0  0  0  0
   35.4560   22.1570   31.7040 C   0  0  0  0  0  0  0  0  0  0  0  0
   34.9240   21.0050   32.2660 C   0  0  0  0  0  0  0  0  0  0  0  0
   35.5580   20.4840   33.3900 C   0  0  0  0  0  0  0  0  0  0  0  0
   36.6810   21.1460   33.8780 C   0  0  0  0  0  0  0  0  0  0  0  0
   37.1660   22.2840   33.2820 C   0  0  0  0  0  0  0  0  0  0  0  0
   34.9520   22.5610   30.8210 H   0  0  0  0  0  0  0  0  0  0  0  0
   34.0430   20.5640   31.8100 H   0  0  0  0  0  0  0  0  0  0  0  0
   35.1000   19.5880   33.7810 H   0  0  0  0  0  0  0  0  0  0  0  0
   37.0450   20.6120   34.7400 H   0  0  0  0  0  0  0  0  0  0  0  0
   37.0260   24.0190   31.4990 C   0  0  2  0  0  3  0  0  0  0  0  0
   37.7340   23.7850   30.4520 O   0  0  0  0  0  1  0  0  0  0  0  0
   37.1410   26.9890   33.5720 C   0  0  0  0  0  0  0  0  0  0  0  0
   36.3510   27.9140   32.9040 C   0  0  0  0  0  0  0  0  0  0  0  0
   35.7680   27.5090   31.7220 C   0  0  0  0  0  0  0  0  0  0  0  0
   35.9710   26.2340   31.2370 N   0  0  0  0  0  0  0  0  0  0  0  0
   36.7380   25.3810   31.9140 C   0  0  0  0  0  0  0  0  0  0  0  0
   37.3100   25.7640   33.0650 N   0  0  0  0  0  0  0  0  0  0  0  0
   37.5780   27.3530   34.4970 H   0  0  0  0  0  0  0  0  0  0  0  0
   36.1350   28.9190   33.1960 H   0  0  0  0  0  0  0  0  0  0  0  0
   35.1180   28.0890   31.0560 H   0  0  0  0  0  0  0  0  0  0  0  0
   38.3220   22.8440   33.8810 N   0  0  0  0  0  0  0  0  0  0  0  0
   39.2350   23.1020   33.4790 H   0  0  0  0  0  0  0  0  0  0  0  0
   38.7190   23.3080   35.4890 S   0  0  0  0  0  0  0  0  0  0  0  0
   40.0650   24.0210   35.4460 O   0  0  0  0  0  1  0  0  0  0  0  0
   37.7160   24.1890   36.1390 O   0  0  0  0  0  1  0  0  0  0  0  0
   38.9880   21.8970   36.4020 O   0  0  0  0  0  0  0  0  0  0  0  0
   39.4440   21.2230   35.8460 H   0  0  0  0  0  0  0  0  0  0  0  0
  1  6  1  0  0  0  0
  2  1  2  0  0  0  0
  2  3  1  0  0  0  0
  3  4  2  0  0  0  0
  4  9  1  0  0  0  0
  4  5  1  0  0  0  0
  5 10  1  0  0  0  0
  6  5  2  0  0  0  0
  6 22  1  0  0  0  0
  7  2  1  0  0  0  0
  8  3  1  0  0  0  0
 11 12  1  1  0  0  0
 11 17  1  0  0  0  0
 11  1  1  0  0  0  0
 13 19  1  0  0  0  0
 14 20  1  0  0  0  0
 14 13  2  0  0  0  0
 15 14  1  0  0  0  0
 16 15  2  0  0  0  0
 16 17  1  0  0  0  0
 17 18  2  0  0  0  0
 18 13  1  0  0  0  0
 21 15  1  0  0  0  0
 22 24  1  0  0  0  0
 23 22  1  0  0  0  0
 24 26  1  0  0  0  0
 24 27  1  0  0  0  0
 25 24  1  0  0  0  0
 28 27  1  0  0  0  0
M  END
>  <minimizedAffinity>
-4.82426691

$$$$

 OpenBabel03272509393D

 28 29  0  0  0  0  0  0  0  0999 V2000
   37.5940   23.8100   33.0600 C   0  0  0  0  0  0  0  0  0  0  0  0
   37.4130   22.4410   32.9180 C   0  0  0  0  0  0  0  0  0  0  0  0
   36.4950   21.8490   32.0620 C   0  0  0  0  0  0  0  0  0  0  0  0
   35.6990   22.6890   31.2890 C   0  0  0  0  0  0  0  0  0  0  0  0
   35.8710   24.0640   31.4230 C   0  0  0  0  0  0  0  0  0  0  0  0
   36.7960   24.5970   32.2870 C   0  0  0  0  0  0  0  0  0  0  0  0
   38.0360   21.7740   33.5220 H   0  0  0  0  0  0  0  0  0  0  0  0
   36.4390   20.7650   32.0310 H   0  0  0  0  0  0  0  0  0  0  0  0
   35.0050   22.1710   30.6440 H   0  0  0  0  0  0  0  0  0  0  0  0
   35.1810   24.5610   30.7620 H   0  0  0  0  0  0  0  0  0  0  0  0
   38.5890   24.2960   33.9910 C   0  0  0  0  0  0  0  0  0  0  0  0
   39.4920   25.0330   33.4500 O   0  0  0  0  0  0  0  0  0  0  0  0
   39.7170   22.7930   37.0890 C   0  0  0  0  0  0  0  0  0  0  0  0
   38.8730   23.3140   38.0600 C   0  0  0  0  0  0  0  0  0  0  0  0
   37.8990   24.1960   37.6410 C   0  0  0  0  0  0  0  0  0  0  0  0
   37.7820   24.5350   36.3100 N   0  0  0  0  0  0  0  0  0  0  0  0
   38.6150   24.0080   35.4150 C   0  0  0  0  0  0  0  0  0  0  0  0
   39.5660   23.1490   35.8100 N   0  0  0  0  0  0  0  0  0  0  0  0
   40.4660   22.1030   37.4660 H   0  0  0  0  0  0  0  0  0  0  0  0
   38.8840   23.1140   39.1090 H   0  0  0  0  0  0  0  0  0  0  0  0
   37.1450   24.7090   38.2500 H   0  0  0  0  0  0  0  0  0  0  0  0
   36.8540   26.0130   32.3240 N   0  0  0  0  0  0  0  0  0  0  0  0
   36.5740   26.6820   33.0570 H   0  0  0  0  0  0  0  0  0  0  0  0
   37.3710   27.2110   31.2040 S   0  0  0  0  0  0  0  0  0  0  0  0
   37.2860   28.5630   31.9000 O   0  0  0  0  0  1  0  0  0  0  0  0
   38.7480   27.0100   30.6850 O   0  0  0  0  0  1  0  0  0  0  0  0
   36.2370   27.2850   29.9370 O   0  0  0  0  0  0  0  0  0  0  0  0
   35.3280   27.1580   30.2980 H   0  0  0  0  0  0  0  0  0  0  0  0
  1 11  1  0  0  0  0
  2  1  1  0  0  0  0
  2  7  1  0  0  0  0
  3  2  2  0  0  0  0
  4  5  2  0  0  0  0
  4  3  1  0  0  0  0
  5  6  1  0  0  0  0
  6 22  1  0  0  0  0
  6  1  2  0  0  0  0
  8  3  1  0  0  0  0
  9  4  1  0  0  0  0
 10  5  1  0  0  0  0
 11 17  1  0  0  0  0
 12 11  2  0  0  0  0
 13 19  1  0  0  0  0
 13 14  1  0  0  0  0
 14 20  1  0  0  0  0
 15 14  2  0  0  0  0
 15 21  1  0  0  0  0
 16 15  1  0  0  0  0
 17 18  1  0  0  0  0
 17 16  2  0  0  0  0
 18 13  2  0  0  0  0
 22 23  1  0  0  0  0
 24 25  1  0  0  0  0
 24 22  1  0  0  0  0
 26 24  1  0  0  0  0
 27 28  1  0  0  0  0
 27 24  1  0  0  0  0
M  END
>  <minimizedAffinity>
-4.82002258

$$$$

 OpenBabel03272509393D

 28 29  0  0  1  0  0  0  0  0999 V2000
   37.0000   27.3250   32.3510 C   0  0  0  0  0  0  0  0  0  0  0  0
   36.6130   28.3470   31.4950 C   0  0  0  0  0  0  0  0  0  0  0  0
   35.9700   29.5110   31.8920 C   0  0  0  0  0  0  0  0  0  0  0  0
   35.6960   29.6650   33.2480 C   0  0  0  0  0  0  0  0  0  0  0  0
   36.0790   28.6470   34.1160 C   0  0  0  0  0  0  0  0  0  0  0  0
   36.7130   27.5140   33.6690 C   0  0  0  0  0  0  0  0  0  0  0  0
   36.8260   28.2320   30.4280 H   0  0  0  0  0  0  0  0  0  0  0  0
   35.7130   30.2450   31.1360 H   0  0  0  0  0  0  0  0  0  0  0  0
   35.1950   30.5890   33.4960 H   0  0  0  0  0  0  0  0  0  0  0  0
   35.7900   28.9240   35.1170 H   0  0  0  0  0  0  0  0  0  0  0  0
   37.6630   26.1610   31.8040 C   0  0  2  0  0  3  0  0  0  0  0  0
   38.7440   26.4310   31.1630 O   0  0  0  0  0  1  0  0  0  0  0  0
   35.6350   23.2320   31.1440 C   0  0  0  0  0  0  0  0  0  0  0  0
   36.1410   22.2570   31.9920 C   0  0  0  0  0  0  0  0  0  0  0  0
   37.1960   22.6130   32.8050 C   0  0  0  0  0  0  0  0  0  0  0  0
   37.7150   23.8890   32.7650 N   0  0  0  0  0  0  0  0  0  0  0  0
   37.1960   24.7920   31.9350 C   0  0  0  0  0  0  0  0  0  0  0  0
   36.1700   24.4570   31.1400 N   0  0  0  0  0  0  0  0  0  0  0  0
   34.8060   22.9050   30.5230 H   0  0  0  0  0  0  0  0  0  0  0  0
   35.8100   21.2460   32.0940 H   0  0  0  0  0  0  0  0  0  0  0  0
   37.7270   21.9900   33.5340 H   0  0  0  0  0  0  0  0  0  0  0  0
   37.0350   26.5580   34.6650 N   0  0  0  0  0  0  0  0  0  0  0  0
   36.4840   25.7830   35.0620 H   0  0  0  0  0  0  0  0  0  0  0  0
   38.4240   26.2830   35.6410 S   0  0  0  0  0  0  0  0  0  0  0  0
   38.0380   25.2800   36.7220 O   0  0  0  0  0  1  0  0  0  0  0  0
   39.6050   25.7750   34.8980 O   0  0  0  0  0  1  0  0  0  0  0  0
   38.7880   27.7220   36.4730 O   0  0  0  0  0  0  0  0  0  0  0  0
   37.9520   28.1730   36.7380 H   0  0  0  0  0  0  0  0  0  0  0  0
  1  6  1  0  0  0  0
  2  3  1  0  0  0  0
  2  1  2  0  0  0  0
  3  4  2  0  0  0  0
  4  9  1  0  0  0  0
  4  5  1  0  0  0  0
  5 10  1  0  0  0  0
  6  5  2  0  0  0  0
  6 22  1  0  0  0  0
  7  2  1  0  0  0  0
  8  3  1  0  0  0  0
 11 12  1  6  0  0  0
 11 17  1  0  0  0  0
 11  1  1  0  0  0  0
 13 14  1  0  0  0  0
 14 20  1  0  0  0  0
 14 15  2  0  0  0  0
 15 21  1  0  0  0  0
 16 15  1  0  0  0  0
 17 16  2  0  0  0  0
 18 13  2  0  0  0  0
 18 17  1  0  0  0  0
 19 13  1  0  0  0  0
 22 23  1  0  0  0  0
 22 24  1  0  0  0  0
 24 27  1  0  0  0  0
 24 25  1  0  0  0  0
 26 24  1  0  0  0  0
 27 28  1  0  0  0  0
M  END
>  <minimizedAffinity>
-4.78634787

$$$$
