
 OpenBabel03272503063D

 30 31  0  0  0  0  0  0  0  0999 V2000
   38.3750   30.5010   47.2870 F   0  0  0  0  0  0  0  0  0  0  0  0
   38.7100   31.7100   47.8020 C   0  0  0  0  0  0  0  0  0  0  0  0
   38.2590   32.0890   49.0400 C   0  0  0  0  0  0  0  0  0  0  0  0
   38.6360   33.3190   49.4930 C   0  0  0  0  0  0  0  0  0  0  0  0
   39.4350   34.1700   48.7620 C   0  0  0  0  0  0  0  0  0  0  0  0
   39.8790   33.7740   47.5210 C   0  0  0  0  0  0  0  0  0  0  0  0
   39.5170   32.5330   47.0290 C   0  0  0  0  0  0  0  0  0  0  0  0
   38.2840   33.6230   50.4680 H   0  0  0  0  0  0  0  0  0  0  0  0
   39.7410   35.1470   49.1110 H   0  0  0  0  0  0  0  0  0  0  0  0
   40.5170   34.3580   46.8470 H   0  0  0  0  0  0  0  0  0  0  0  0
   36.9970   29.5810   51.5760 C   0  0  0  0  0  0  0  0  0  0  0  0
   37.8380   30.4760   50.9040 C   0  0  0  0  0  0  0  0  0  0  0  0
   37.4160   31.1490   49.7700 C   0  0  0  0  0  0  0  0  0  0  0  0
   36.1350   30.8840   49.3560 N   0  0  0  0  0  0  0  0  0  0  0  0
   35.3400   30.0230   50.0120 C   0  0  0  0  0  0  0  0  0  0  0  0
   35.7630   29.3790   51.1060 N   0  0  0  0  0  0  0  0  0  0  0  0
   37.3940   29.1040   52.4370 H   0  0  0  0  0  0  0  0  0  0  0  0
   38.8520   30.6640   51.2600 H   0  0  0  0  0  0  0  0  0  0  0  0
   34.3220   29.8240   49.6650 H   0  0  0  0  0  0  0  0  0  0  0  0
   38.9690   32.2120   44.7190 C   0  0  0  0  0  0  0  0  0  0  0  0
   37.8450   32.6510   45.1110 O   0  0  0  0  0  0  0  0  0  0  0  0
   39.9560   32.0780   45.7410 N   0  0  0  0  0  0  0  0  0  0  0  0
   40.8680   31.6730   45.4490 H   0  0  0  0  0  0  0  0  0  0  0  0
   39.2010   31.8850   43.3520 N   0  0  0  0  0  0  0  0  0  0  0  0
   39.8890   31.1280   43.1210 H   0  0  0  0  0  0  0  0  0  0  0  0
   38.3960   32.6840   42.0480 S   0  0  0  0  0  0  0  0  0  0  0  0
   38.3410   31.7820   40.8750 O   0  0  0  0  0  1  0  0  0  0  0  0
   39.1470   33.9360   41.6540 O   0  0  0  0  0  1  0  0  0  0  0  0
   36.8730   33.1830   42.5680 O   0  0  0  0  0  0  0  0  0  0  0  0
   36.2090   33.1680   41.8320 H   0  0  0  0  0  0  0  0  0  0  0  0
  1  2  1  0  0  0  0
  2  3  1  0  0  0  0
  3  4  2  0  0  0  0
  3 13  1  0  0  0  0
  4  8  1  0  0  0  0
  5  9  1  0  0  0  0
  5  4  1  0  0  0  0
  6  5  2  0  0  0  0
  7  6  1  0  0  0  0
  7  2  2  0  0  0  0
 10  6  1  0  0  0  0
 11 17  1  0  0  0  0
 12 18  1  0  0  0  0
 12 11  2  0  0  0  0
 13 12  1  0  0  0  0
 14 13  2  0  0  0  0
 14 15  1  0  0  0  0
 15 16  2  0  0  0  0
 16 11  1  0  0  0  0
 19 15  1  0  0  0  0
 20 21  2  0  0  0  0
 20 22  1  0  0  0  0
 22  7  1  0  0  0  0
 23 22  1  0  0  0  0
 24 20  1  0  0  0  0
 25 24  1  0  0  0  0
 26 29  1  0  0  0  0
 26 24  1  0  0  0  0
 27 26  1  0  0  0  0
 28 26  1  0  0  0  0
 30 29  1  0  0  0  0
M  END
>  <minimizedAffinity>
-6.36323214

>  <minimizedRMSD>
0.400900394

$$$$
