
 OpenBabel03272508193D

 29 30  0  0  0  0  0  0  0  0999 V2000
   36.2290   22.1580   32.3970 C   0  0  0  0  0  0  0  0  0  0  0  0
   37.3330   22.6020   33.1340 C   0  0  0  0  0  0  0  0  0  0  0  0
   37.7910   23.8500   32.7510 C   0  0  0  0  0  0  0  0  0  0  0  0
   37.1870   24.5500   31.7470 N   0  0  0  0  0  0  0  0  0  0  0  0
   36.1010   24.0850   31.0820 C   0  0  0  0  0  0  0  0  0  0  0  0
   35.6240   22.8790   31.4260 N   0  0  0  0  0  0  0  0  0  0  0  0
   38.7350   24.2160   33.0710 H   0  0  0  0  0  0  0  0  0  0  0  0
   35.5070   24.6920   30.4380 H   0  0  0  0  0  0  0  0  0  0  0  0
   35.6550   20.8090   32.8110 C   0  0  0  0  0  0  0  0  0  0  0  0
   34.6130   20.1860   32.0420 C   0  0  0  0  0  0  0  0  0  0  0  0
   36.0110   19.7220   31.7690 C   0  0  0  0  0  0  0  0  0  0  0  0
   35.7360   20.5180   33.8790 H   0  0  0  0  0  0  0  0  0  0  0  0
   33.9500   19.4420   32.5070 H   0  0  0  0  0  0  0  0  0  0  0  0
   34.1220   20.6980   31.1740 H   0  0  0  0  0  0  0  0  0  0  0  0
   36.3190   18.7390   32.1490 H   0  0  0  0  0  0  0  0  0  0  0  0
   36.5010   20.0250   30.8350 H   0  0  0  0  0  0  0  0  0  0  0  0
   37.9590   21.8490   34.1770 C   0  0  0  0  0  0  0  0  0  0  0  0
   37.7760   20.7740   34.0780 H   0  0  0  0  0  0  0  0  0  0  0  0
   39.0980   21.9400   34.0520 H   0  0  0  0  0  0  0  0  0  0  0  0
   37.6960   22.2510   35.5830 C   0  0  0  0  0  0  0  0  0  0  0  0
   36.7640   21.8610   35.9930 H   0  0  0  0  0  0  0  0  0  0  0  0
   37.6810   23.3700   35.7590 H   0  0  0  0  0  0  0  0  0  0  0  0
   38.9070   21.8230   36.2200 N   0  0  0  0  0  0  0  0  0  0  0  0
   39.2270   20.8860   35.9510 H   0  0  0  0  0  0  0  0  0  0  0  0
   39.7270   22.6780   37.2780 S   0  0  0  0  0  0  0  0  0  0  0  0
   39.1700   23.4870   38.2790 O   0  0  0  0  0  1  0  0  0  0  0  0
   40.7550   23.5430   36.3490 O   0  0  0  0  0  1  0  0  0  0  0  0
   40.7970   21.4780   37.9040 O   0  0  0  0  0  0  0  0  0  0  0  0
   41.6870   21.5140   37.6380 H   0  0  0  0  0  0  0  0  0  0  0  0
  1  9  1  0  0  0  0
  1  2  1  0  0  0  0
  2 17  1  0  0  0  0
  3  7  1  0  0  0  0
  3  2  2  0  0  0  0
  4  3  1  0  0  0  0
  5  6  1  0  0  0  0
  5  4  2  0  0  0  0
  6  1  2  0  0  0  0
  8  5  1  0  0  0  0
  9 12  1  0  0  0  0
 10 13  1  0  0  0  0
 10  9  1  0  0  0  0
 11 10  1  0  0  0  0
 11 15  1  0  0  0  0
 11  9  1  0  0  0  0
 14 10  1  0  0  0  0
 16 11  1  0  0  0  0
 17 20  1  0  0  0  0
 18 17  1  0  0  0  0
 19 17  1  0  0  0  0
 20 22  1  0  0  0  0
 20 21  1  0  0  0  0
 20 23  1  0  0  0  0
 23 25  1  0  0  0  0
 24 23  1  0  0  0  0
 25 28  1  0  0  0  0
 25 26  1  0  0  0  0
 27 25  1  0  0  0  0
 29 28  1  0  0  0  0
M  END
>  <minimizedAffinity>
-4.37448359

$$$$

 OpenBabel03272508193D

 29 30  0  0  0  0  0  0  0  0999 V2000
   38.0280   25.3620   33.7970 C   0  0  0  0  0  0  0  0  0  0  0  0
   37.9760   23.9880   33.5380 C   0  0  0  0  0  0  0  0  0  0  0  0
   37.1080   23.6470   32.5160 C   0  0  0  0  0  0  0  0  0  0  0  0
   36.3940   24.5980   31.8450 N   0  0  0  0  0  0  0  0  0  0  0  0
   36.5020   25.9210   32.1180 C   0  0  0  0  0  0  0  0  0  0  0  0
   37.3360   26.2930   33.1010 N   0  0  0  0  0  0  0  0  0  0  0  0
   36.8100   22.6410   32.3540 H   0  0  0  0  0  0  0  0  0  0  0  0
   36.1050   26.6820   31.4850 H   0  0  0  0  0  0  0  0  0  0  0  0
   39.0050   25.7960   34.8830 C   0  0  0  0  0  0  0  0  0  0  0  0
   38.9950   27.1430   35.3850 C   0  0  0  0  0  0  0  0  0  0  0  0
   38.2530   26.1220   36.1950 C   0  0  0  0  0  0  0  0  0  0  0  0
   39.9530   25.2280   34.9820 H   0  0  0  0  0  0  0  0  0  0  0  0
   39.8930   27.5630   35.8620 H   0  0  0  0  0  0  0  0  0  0  0  0
   38.3440   27.9400   34.9450 H   0  0  0  0  0  0  0  0  0  0  0  0
   38.7010   25.7740   37.1350 H   0  0  0  0  0  0  0  0  0  0  0  0
   37.1560   26.1320   36.1870 H   0  0  0  0  0  0  0  0  0  0  0  0
   38.7260   23.0050   34.2590 C   0  0  0  0  0  0  0  0  0  0  0  0
   39.1230   22.2230   33.6030 H   0  0  0  0  0  0  0  0  0  0  0  0
   39.6700   23.5100   34.6770 H   0  0  0  0  0  0  0  0  0  0  0  0
   38.0840   22.3620   35.4340 C   0  0  0  0  0  0  0  0  0  0  0  0
   37.3080   21.6400   35.1800 H   0  0  0  0  0  0  0  0  0  0  0  0
   37.6220   23.0840   36.1740 H   0  0  0  0  0  0  0  0  0  0  0  0
   39.2320   21.8530   36.1270 N   0  0  0  0  0  0  0  0  0  0  0  0
   39.5640   20.9390   35.7970 H   0  0  0  0  0  0  0  0  0  0  0  0
   39.9680   22.5890   37.3270 S   0  0  0  0  0  0  0  0  0  0  0  0
   39.3400   23.3490   38.3240 O   0  0  0  0  0  1  0  0  0  0  0  0
   41.1240   23.4680   36.5790 O   0  0  0  0  0  1  0  0  0  0  0  0
   40.9150   21.2970   37.9670 O   0  0  0  0  0  0  0  0  0  0  0  0
   41.8300   21.3080   37.7980 H   0  0  0  0  0  0  0  0  0  0  0  0
  1  9  1  0  0  0  0
  2  1  1  0  0  0  0
  2 17  1  0  0  0  0
  3  2  2  0  0  0  0
  4  5  2  0  0  0  0
  4  3  1  0  0  0  0
  5  6  1  0  0  0  0
  6  1  2  0  0  0  0
  7  3  1  0  0  0  0
  8  5  1  0  0  0  0
  9 12  1  0  0  0  0
  9 10  1  0  0  0  0
  9 11  1  0  0  0  0
 10 13  1  0  0  0  0
 10 11  1  0  0  0  0
 11 15  1  0  0  0  0
 14 10  1  0  0  0  0
 16 11  1  0  0  0  0
 17 19  1  0  0  0  0
 17 20  1  0  0  0  0
 18 17  1  0  0  0  0
 20 23  1  0  0  0  0
 20 22  1  0  0  0  0
 21 20  1  0  0  0  0
 23 25  1  0  0  0  0
 24 23  1  0  0  0  0
 25 28  1  0  0  0  0
 25 26  1  0  0  0  0
 27 25  1  0  0  0  0
 29 28  1  0  0  0  0
M  END
>  <minimizedAffinity>
-4.25441933

$$$$

 OpenBabel03272508193D

 29 30  0  0  0  0  0  0  0  0999 V2000
   39.1670   25.8750   34.8900 C   0  0  0  0  0  0  0  0  0  0  0  0
   39.3030   24.4910   34.7310 C   0  0  0  0  0  0  0  0  0  0  0  0
   40.6020   24.0850   34.4830 C   0  0  0  0  0  0  0  0  0  0  0  0
   41.6260   24.9850   34.4160 N   0  0  0  0  0  0  0  0  0  0  0  0
   41.4430   26.3160   34.6040 C   0  0  0  0  0  0  0  0  0  0  0  0
   40.1980   26.7490   34.8500 N   0  0  0  0  0  0  0  0  0  0  0  0
   40.8210   23.1060   34.1360 H   0  0  0  0  0  0  0  0  0  0  0  0
   42.2480   27.0000   34.7450 H   0  0  0  0  0  0  0  0  0  0  0  0
   37.7620   26.3700   35.2130 C   0  0  0  0  0  0  0  0  0  0  0  0
   37.4760   27.7770   35.2750 C   0  0  0  0  0  0  0  0  0  0  0  0
   37.1410   27.0840   33.9890 C   0  0  0  0  0  0  0  0  0  0  0  0
   37.0950   25.6930   35.7850 H   0  0  0  0  0  0  0  0  0  0  0  0
   36.6140   28.1420   35.8540 H   0  0  0  0  0  0  0  0  0  0  0  0
   38.2760   28.5550   35.1820 H   0  0  0  0  0  0  0  0  0  0  0  0
   36.0870   26.8780   33.7650 H   0  0  0  0  0  0  0  0  0  0  0  0
   37.7690   27.2650   33.1080 H   0  0  0  0  0  0  0  0  0  0  0  0
   38.2160   23.5630   34.7960 C   0  0  0  0  0  0  0  0  0  0  0  0
   37.2800   24.0430   35.1040 H   0  0  0  0  0  0  0  0  0  0  0  0
   37.9920   23.1980   33.7300 H   0  0  0  0  0  0  0  0  0  0  0  0
   38.4010   22.3240   35.5940 C   0  0  0  0  0  0  0  0  0  0  0  0
   39.4410   22.0210   35.7140 H   0  0  0  0  0  0  0  0  0  0  0  0
   37.8470   21.4200   35.1970 H   0  0  0  0  0  0  0  0  0  0  0  0
   37.6880   22.6610   36.7920 N   0  0  0  0  0  0  0  0  0  0  0  0
   36.7020   22.3790   36.7990 H   0  0  0  0  0  0  0  0  0  0  0  0
   38.3150   23.4230   38.0370 S   0  0  0  0  0  0  0  0  0  0  0  0
   38.1510   24.7860   38.3250 O   0  0  0  0  0  1  0  0  0  0  0  0
   39.9010   23.0420   37.9540 O   0  0  0  0  0  1  0  0  0  0  0  0
   37.8100   22.3990   39.3300 O   0  0  0  0  0  0  0  0  0  0  0  0
   38.4520   21.8540   39.7250 H   0  0  0  0  0  0  0  0  0  0  0  0
  1  9  1  0  0  0  0
  2 17  1  0  0  0  0
  2  1  2  0  0  0  0
  3  2  1  0  0  0  0
  4  3  2  0  0  0  0
  4  5  1  0  0  0  0
  5  8  1  0  0  0  0
  5  6  2  0  0  0  0
  6  1  1  0  0  0  0
  7  3  1  0  0  0  0
  9 10  1  0  0  0  0
  9 12  1  0  0  0  0
 10 13  1  0  0  0  0
 11  9  1  0  0  0  0
 11 10  1  0  0  0  0
 14 10  1  0  0  0  0
 15 11  1  0  0  0  0
 16 11  1  0  0  0  0
 17 18  1  0  0  0  0
 17 20  1  0  0  0  0
 19 17  1  0  0  0  0
 20 21  1  0  0  0  0
 20 23  1  0  0  0  0
 22 20  1  0  0  0  0
 23 24  1  0  0  0  0
 23 25  1  0  0  0  0
 25 26  1  0  0  0  0
 25 28  1  0  0  0  0
 27 25  1  0  0  0  0
 28 29  1  0  0  0  0
M  END
>  <minimizedAffinity>
-4.25310135

$$$$

 OpenBabel03272508193D

 29 30  0  0  0  0  0  0  0  0999 V2000
   36.6350   21.9910   32.3090 C   0  0  0  0  0  0  0  0  0  0  0  0
   36.7420   23.3580   32.0300 C   0  0  0  0  0  0  0  0  0  0  0  0
   37.5390   24.0470   32.9260 C   0  0  0  0  0  0  0  0  0  0  0  0
   38.1520   23.4100   33.9660 N   0  0  0  0  0  0  0  0  0  0  0  0
   38.0370   22.0750   34.1750 C   0  0  0  0  0  0  0  0  0  0  0  0
   37.2740   21.3710   33.3270 N   0  0  0  0  0  0  0  0  0  0  0  0
   37.5410   25.1080   32.9640 H   0  0  0  0  0  0  0  0  0  0  0  0
   38.6550   21.5370   34.8580 H   0  0  0  0  0  0  0  0  0  0  0  0
   35.8040   21.1760   31.3240 C   0  0  0  0  0  0  0  0  0  0  0  0
   35.7270   19.7450   31.4370 C   0  0  0  0  0  0  0  0  0  0  0  0
   34.5960   20.5250   32.0380 C   0  0  0  0  0  0  0  0  0  0  0  0
   35.6130   21.6150   30.3230 H   0  0  0  0  0  0  0  0  0  0  0  0
   35.4660   19.1340   30.5600 H   0  0  0  0  0  0  0  0  0  0  0  0
   36.3340   19.1700   32.1810 H   0  0  0  0  0  0  0  0  0  0  0  0
   33.6320   20.5370   31.5140 H   0  0  0  0  0  0  0  0  0  0  0  0
   34.5230   20.6000   33.1300 H   0  0  0  0  0  0  0  0  0  0  0  0
   36.0840   24.0100   30.9390 C   0  0  0  0  0  0  0  0  0  0  0  0
   36.7880   24.3410   30.1690 H   0  0  0  0  0  0  0  0  0  0  0  0
   35.4360   23.2320   30.3940 H   0  0  0  0  0  0  0  0  0  0  0  0
   35.1560   25.1270   31.2510 C   0  0  0  0  0  0  0  0  0  0  0  0
   35.1090   25.3880   32.3080 H   0  0  0  0  0  0  0  0  0  0  0  0
   34.0880   24.9620   30.9130 H   0  0  0  0  0  0  0  0  0  0  0  0
   35.6410   26.1410   30.3600 N   0  0  0  0  0  0  0  0  0  0  0  0
   35.3300   26.0440   29.3870 H   0  0  0  0  0  0  0  0  0  0  0  0
   36.5980   27.3370   30.7820 S   0  0  0  0  0  0  0  0  0  0  0  0
   37.8210   27.2040   31.4540 O   0  0  0  0  0  1  0  0  0  0  0  0
   35.6040   28.3470   31.5940 O   0  0  0  0  0  1  0  0  0  0  0  0
   36.7470   28.1760   29.2820 O   0  0  0  0  0  0  0  0  0  0  0  0
   36.2850   28.9790   29.1890 H   0  0  0  0  0  0  0  0  0  0  0  0
  1  6  1  0  0  0  0
  2  1  2  0  0  0  0
  2  3  1  0  0  0  0
  3  7  1  0  0  0  0
  3  4  2  0  0  0  0
  4  5  1  0  0  0  0
  5  8  1  0  0  0  0
  6  5  2  0  0  0  0
  9 10  1  0  0  0  0
  9 11  1  0  0  0  0
  9  1  1  0  0  0  0
 10 11  1  0  0  0  0
 10 14  1  0  0  0  0
 11 16  1  0  0  0  0
 12  9  1  0  0  0  0
 13 10  1  0  0  0  0
 15 11  1  0  0  0  0
 17 20  1  0  0  0  0
 17  2  1  0  0  0  0
 18 17  1  0  0  0  0
 19 17  1  0  0  0  0
 20 21  1  0  0  0  0
 22 20  1  0  0  0  0
 23 25  1  0  0  0  0
 23 20  1  0  0  0  0
 24 23  1  0  0  0  0
 25 26  1  0  0  0  0
 25 27  1  0  0  0  0
 28 25  1  0  0  0  0
 29 28  1  0  0  0  0
M  END
>  <minimizedAffinity>
-4.20850086

$$$$

 OpenBabel03272508193D

 29 30  0  0  0  0  0  0  0  0999 V2000
   38.1640   24.8780   35.0380 C   0  0  0  0  0  0  0  0  0  0  0  0
   38.0560   24.0640   33.9040 C   0  0  0  0  0  0  0  0  0  0  0  0
   37.9200   22.7190   34.1970 C   0  0  0  0  0  0  0  0  0  0  0  0
   37.8900   22.2730   35.4870 N   0  0  0  0  0  0  0  0  0  0  0  0
   37.9720   23.1080   36.5510 C   0  0  0  0  0  0  0  0  0  0  0  0
   38.1020   24.4210   36.3090 N   0  0  0  0  0  0  0  0  0  0  0  0
   38.0390   21.9740   33.4500 H   0  0  0  0  0  0  0  0  0  0  0  0
   37.7590   22.8030   37.5500 H   0  0  0  0  0  0  0  0  0  0  0  0
   38.2680   26.3740   34.7720 C   0  0  0  0  0  0  0  0  0  0  0  0
   38.5640   27.2920   35.8390 C   0  0  0  0  0  0  0  0  0  0  0  0
   39.7200   26.8660   34.9850 C   0  0  0  0  0  0  0  0  0  0  0  0
   37.7300   26.7820   33.8910 H   0  0  0  0  0  0  0  0  0  0  0  0
   38.2780   28.3500   35.7540 H   0  0  0  0  0  0  0  0  0  0  0  0
   38.6370   26.9630   36.9070 H   0  0  0  0  0  0  0  0  0  0  0  0
   40.1230   27.5820   34.2570 H   0  0  0  0  0  0  0  0  0  0  0  0
   40.4590   26.1690   35.3980 H   0  0  0  0  0  0  0  0  0  0  0  0
   38.0980   24.5500   32.5590 C   0  0  0  0  0  0  0  0  0  0  0  0
   38.6000   25.5200   32.4850 H   0  0  0  0  0  0  0  0  0  0  0  0
   38.7750   23.8510   31.9470 H   0  0  0  0  0  0  0  0  0  0  0  0
   36.8240   24.6110   31.7990 C   0  0  0  0  0  0  0  0  0  0  0  0
   35.9450   24.8030   32.4140 H   0  0  0  0  0  0  0  0  0  0  0  0
   36.5940   23.6860   31.1880 H   0  0  0  0  0  0  0  0  0  0  0  0
   37.1440   25.6000   30.8100 N   0  0  0  0  0  0  0  0  0  0  0  0
   37.3740   25.2230   29.8840 H   0  0  0  0  0  0  0  0  0  0  0  0
   37.1710   27.1670   31.0690 S   0  0  0  0  0  0  0  0  0  0  0  0
   38.2950   27.9080   31.4620 O   0  0  0  0  0  1  0  0  0  0  0  0
   35.9380   27.3980   32.1150 O   0  0  0  0  0  1  0  0  0  0  0  0
   36.4610   27.7490   29.6080 O   0  0  0  0  0  0  0  0  0  0  0  0
   35.5870   28.0630   29.6490 H   0  0  0  0  0  0  0  0  0  0  0  0
  1  6  1  0  0  0  0
  2  3  1  0  0  0  0
  2  1  2  0  0  0  0
  3  4  2  0  0  0  0
  4  5  1  0  0  0  0
  5  8  1  0  0  0  0
  6  5  2  0  0  0  0
  7  3  1  0  0  0  0
  9 11  1  0  0  0  0
  9  1  1  0  0  0  0
  9 10  1  0  0  0  0
 10 14  1  0  0  0  0
 11 16  1  0  0  0  0
 11 10  1  0  0  0  0
 12  9  1  0  0  0  0
 13 10  1  0  0  0  0
 15 11  1  0  0  0  0
 17  2  1  0  0  0  0
 18 17  1  0  0  0  0
 19 17  1  0  0  0  0
 20 21  1  0  0  0  0
 20 17  1  0  0  0  0
 22 20  1  0  0  0  0
 23 25  1  0  0  0  0
 23 20  1  0  0  0  0
 24 23  1  0  0  0  0
 25 26  1  0  0  0  0
 25 27  1  0  0  0  0
 28 29  1  0  0  0  0
 28 25  1  0  0  0  0
M  END
>  <minimizedAffinity>
-4.20351315

$$$$

 OpenBabel03272508193D

 29 30  0  0  0  0  0  0  0  0999 V2000
   36.5390   26.2750   32.1830 C   0  0  0  0  0  0  0  0  0  0  0  0
   37.1240   25.0850   32.6300 C   0  0  0  0  0  0  0  0  0  0  0  0
   36.5320   23.9460   32.1140 C   0  0  0  0  0  0  0  0  0  0  0  0
   35.4820   24.0240   31.2460 N   0  0  0  0  0  0  0  0  0  0  0  0
   34.9690   25.2050   30.8220 C   0  0  0  0  0  0  0  0  0  0  0  0
   35.5170   26.3330   31.2980 N   0  0  0  0  0  0  0  0  0  0  0  0
   36.7290   22.9860   32.5220 H   0  0  0  0  0  0  0  0  0  0  0  0
   34.2860   25.2860   30.0080 H   0  0  0  0  0  0  0  0  0  0  0  0
   37.1840   27.5600   32.6850 C   0  0  0  0  0  0  0  0  0  0  0  0
   36.5630   28.8350   32.4480 C   0  0  0  0  0  0  0  0  0  0  0  0
   36.3160   28.2110   33.7880 C   0  0  0  0  0  0  0  0  0  0  0  0
   38.2810   27.5570   32.8530 H   0  0  0  0  0  0  0  0  0  0  0  0
   37.1650   29.7550   32.4590 H   0  0  0  0  0  0  0  0  0  0  0  0
   35.6440   28.9450   31.8170 H   0  0  0  0  0  0  0  0  0  0  0  0
   36.8360   28.6260   34.6620 H   0  0  0  0  0  0  0  0  0  0  0  0
   35.3280   27.7860   34.0040 H   0  0  0  0  0  0  0  0  0  0  0  0
   38.2190   25.0240   33.5490 C   0  0  0  0  0  0  0  0  0  0  0  0
   39.1850   25.1580   33.0510 H   0  0  0  0  0  0  0  0  0  0  0  0
   38.1510   25.9320   34.2500 H   0  0  0  0  0  0  0  0  0  0  0  0
   38.3080   23.8490   34.4530 C   0  0  0  0  0  0  0  0  0  0  0  0
   39.1970   23.2350   34.3030 H   0  0  0  0  0  0  0  0  0  0  0  0
   37.4210   23.1460   34.4020 H   0  0  0  0  0  0  0  0  0  0  0  0
   38.1710   24.4780   35.7330 N   0  0  0  0  0  0  0  0  0  0  0  0
   38.0920   25.5010   35.7050 H   0  0  0  0  0  0  0  0  0  0  0  0
   38.1490   23.7100   37.1250 S   0  0  0  0  0  0  0  0  0  0  0  0
   37.7280   24.2520   38.3480 O   0  0  0  0  0  1  0  0  0  0  0  0
   39.6660   23.1170   37.2520 O   0  0  0  0  0  1  0  0  0  0  0  0
   37.2850   22.2810   36.6920 O   0  0  0  0  0  0  0  0  0  0  0  0
   37.7710   21.4920   36.6080 H   0  0  0  0  0  0  0  0  0  0  0  0
  1  2  1  0  0  0  0
  1  9  1  0  0  0  0
  2 17  1  0  0  0  0
  3  7  1  0  0  0  0
  3  2  2  0  0  0  0
  4  3  1  0  0  0  0
  5  4  2  0  0  0  0
  5  6  1  0  0  0  0
  6  1  2  0  0  0  0
  8  5  1  0  0  0  0
  9 12  1  0  0  0  0
  9 11  1  0  0  0  0
 10 13  1  0  0  0  0
 10  9  1  0  0  0  0
 10 11  1  0  0  0  0
 11 16  1  0  0  0  0
 11 15  1  0  0  0  0
 14 10  1  0  0  0  0
 17 19  1  0  0  0  0
 17 20  1  0  0  0  0
 18 17  1  0  0  0  0
 20 23  1  0  0  0  0
 21 20  1  0  0  0  0
 22 20  1  0  0  0  0
 23 25  1  0  0  0  0
 24 23  1  0  0  0  0
 25 27  1  0  0  0  0
 25 26  1  0  0  0  0
 28 25  1  0  0  0  0
 29 28  1  0  0  0  0
M  END
>  <minimizedAffinity>
-4.17130423

$$$$

 OpenBabel03272508193D

 29 30  0  0  0  0  0  0  0  0999 V2000
   38.3800   24.9480   36.2390 C   0  0  0  0  0  0  0  0  0  0  0  0
   38.9850   24.3910   35.1060 C   0  0  0  0  0  0  0  0  0  0  0  0
   39.4810   25.3310   34.2220 C   0  0  0  0  0  0  0  0  0  0  0  0
   39.3740   26.6680   34.4740 N   0  0  0  0  0  0  0  0  0  0  0  0
   38.8010   27.1560   35.6020 C   0  0  0  0  0  0  0  0  0  0  0  0
   38.3100   26.2760   36.4870 N   0  0  0  0  0  0  0  0  0  0  0  0
   39.7710   25.0660   33.2360 H   0  0  0  0  0  0  0  0  0  0  0  0
   38.8810   28.1760   35.9020 H   0  0  0  0  0  0  0  0  0  0  0  0
   37.8590   23.9540   37.2690 C   0  0  0  0  0  0  0  0  0  0  0  0
   38.7380   23.3940   38.2590 C   0  0  0  0  0  0  0  0  0  0  0  0
   37.9070   24.5650   38.6900 C   0  0  0  0  0  0  0  0  0  0  0  0
   36.9520   23.3690   37.0110 H   0  0  0  0  0  0  0  0  0  0  0  0
   38.4900   22.4360   38.7410 H   0  0  0  0  0  0  0  0  0  0  0  0
   39.8400   23.5890   38.2590 H   0  0  0  0  0  0  0  0  0  0  0  0
   37.0480   24.3830   39.3480 H   0  0  0  0  0  0  0  0  0  0  0  0
   38.3920   25.5390   38.8300 H   0  0  0  0  0  0  0  0  0  0  0  0
   39.0790   22.9850   34.8550 C   0  0  0  0  0  0  0  0  0  0  0  0
   40.1020   22.6120   34.9690 H   0  0  0  0  0  0  0  0  0  0  0  0
   38.4990   22.4340   35.6800 H   0  0  0  0  0  0  0  0  0  0  0  0
   38.5200   22.4650   33.5820 C   0  0  0  0  0  0  0  0  0  0  0  0
   39.1620   21.7480   33.0700 H   0  0  0  0  0  0  0  0  0  0  0  0
   38.2580   23.2620   32.8200 H   0  0  0  0  0  0  0  0  0  0  0  0
   37.2430   21.9830   34.0210 N   0  0  0  0  0  0  0  0  0  0  0  0
   36.9150   22.3790   34.9080 H   0  0  0  0  0  0  0  0  0  0  0  0
   36.3620   20.9100   33.2470 S   0  0  0  0  0  0  0  0  0  0  0  0
   36.8550   19.9220   32.3830 O   0  0  0  0  0  1  0  0  0  0  0  0
   35.2350   21.8200   32.4920 O   0  0  0  0  0  1  0  0  0  0  0  0
   35.4290   20.2610   34.5450 O   0  0  0  0  0  0  0  0  0  0  0  0
   34.5350   20.5090   34.5990 H   0  0  0  0  0  0  0  0  0  0  0  0
  1  6  1  0  0  0  0
  1  9  1  0  0  0  0
  2  1  2  0  0  0  0
  3  4  2  0  0  0  0
  3  2  1  0  0  0  0
  4  5  1  0  0  0  0
  5  8  1  0  0  0  0
  5  6  2  0  0  0  0
  7  3  1  0  0  0  0
  9 10  1  0  0  0  0
  9 11  1  0  0  0  0
 10 11  1  0  0  0  0
 10 13  1  0  0  0  0
 11 16  1  0  0  0  0
 11 15  1  0  0  0  0
 12  9  1  0  0  0  0
 14 10  1  0  0  0  0
 17 18  1  0  0  0  0
 17  2  1  0  0  0  0
 17 19  1  0  0  0  0
 20 23  1  0  0  0  0
 20 17  1  0  0  0  0
 21 20  1  0  0  0  0
 22 20  1  0  0  0  0
 23 24  1  0  0  0  0
 25 23  1  0  0  0  0
 25 28  1  0  0  0  0
 26 25  1  0  0  0  0
 27 25  1  0  0  0  0
 28 29  1  0  0  0  0
M  END
>  <minimizedAffinity>
-4.16567659

$$$$

 OpenBabel03272508193D

 29 30  0  0  0  0  0  0  0  0999 V2000
   38.7680   24.8270   36.0270 C   0  0  0  0  0  0  0  0  0  0  0  0
   39.8790   24.0120   35.7800 C   0  0  0  0  0  0  0  0  0  0  0  0
   40.0670   23.0260   36.7320 C   0  0  0  0  0  0  0  0  0  0  0  0
   39.2190   22.8930   37.7930 N   0  0  0  0  0  0  0  0  0  0  0  0
   38.1390   23.6940   37.9710 C   0  0  0  0  0  0  0  0  0  0  0  0
   37.9210   24.6620   37.0680 N   0  0  0  0  0  0  0  0  0  0  0  0
   40.9740   22.4780   36.7900 H   0  0  0  0  0  0  0  0  0  0  0  0
   37.3690   23.4860   38.6770 H   0  0  0  0  0  0  0  0  0  0  0  0
   38.4880   25.9000   34.9820 C   0  0  0  0  0  0  0  0  0  0  0  0
   37.4130   26.8380   35.1610 C   0  0  0  0  0  0  0  0  0  0  0  0
   38.7820   27.3080   35.5530 C   0  0  0  0  0  0  0  0  0  0  0  0
   38.8200   25.7070   33.9410 H   0  0  0  0  0  0  0  0  0  0  0  0
   36.9700   27.3450   34.2920 H   0  0  0  0  0  0  0  0  0  0  0  0
   36.6920   26.7640   36.0150 H   0  0  0  0  0  0  0  0  0  0  0  0
   39.2970   28.0220   34.8980 H   0  0  0  0  0  0  0  0  0  0  0  0
   39.0270   27.4060   36.6180 H   0  0  0  0  0  0  0  0  0  0  0  0
   40.7620   24.1730   34.6660 C   0  0  0  0  0  0  0  0  0  0  0  0
   40.6920   23.3400   33.9590 H   0  0  0  0  0  0  0  0  0  0  0  0
   40.4050   25.0760   34.0530 H   0  0  0  0  0  0  0  0  0  0  0  0
   42.1960   24.4430   34.9450 C   0  0  0  0  0  0  0  0  0  0  0  0
   42.8830   23.9960   34.2270 H   0  0  0  0  0  0  0  0  0  0  0  0
   42.5460   24.1170   35.9720 H   0  0  0  0  0  0  0  0  0  0  0  0
   42.1930   25.8740   35.0260 N   0  0  0  0  0  0  0  0  0  0  0  0
   42.0080   26.2530   35.9620 H   0  0  0  0  0  0  0  0  0  0  0  0
   42.4360   26.8530   33.7980 S   0  0  0  0  0  0  0  0  0  0  0  0
   41.4700   27.6880   33.2180 O   0  0  0  0  0  1  0  0  0  0  0  0
   43.1080   25.8830   32.6690 O   0  0  0  0  0  1  0  0  0  0  0  0
   43.8270   27.7160   34.3430 O   0  0  0  0  0  0  0  0  0  0  0  0
   44.6440   27.5090   33.9500 H   0  0  0  0  0  0  0  0  0  0  0  0
  1  6  1  0  0  0  0
  2  1  2  0  0  0  0
  2  3  1  0  0  0  0
  3  7  1  0  0  0  0
  3  4  2  0  0  0  0
  4  5  1  0  0  0  0
  5  8  1  0  0  0  0
  6  5  2  0  0  0  0
  9 10  1  0  0  0  0
  9 11  1  0  0  0  0
  9  1  1  0  0  0  0
 10 11  1  0  0  0  0
 10 14  1  0  0  0  0
 11 16  1  0  0  0  0
 12  9  1  0  0  0  0
 13 10  1  0  0  0  0
 15 11  1  0  0  0  0
 17 20  1  0  0  0  0
 17  2  1  0  0  0  0
 18 17  1  0  0  0  0
 19 17  1  0  0  0  0
 20 23  1  0  0  0  0
 20 22  1  0  0  0  0
 21 20  1  0  0  0  0
 23 24  1  0  0  0  0
 25 28  1  0  0  0  0
 25 23  1  0  0  0  0
 26 25  1  0  0  0  0
 27 25  1  0  0  0  0
 29 28  1  0  0  0  0
M  END
>  <minimizedAffinity>
-4.12355089

$$$$

 OpenBabel03272508193D

 29 30  0  0  0  0  0  0  0  0999 V2000
   38.1090   24.9350   35.4370 C   0  0  0  0  0  0  0  0  0  0  0  0
   38.2110   23.9040   34.4960 C   0  0  0  0  0  0  0  0  0  0  0  0
   38.0140   22.6440   35.0300 C   0  0  0  0  0  0  0  0  0  0  0  0
   37.7380   22.4690   36.3550 N   0  0  0  0  0  0  0  0  0  0  0  0
   37.6220   23.5060   37.2200 C   0  0  0  0  0  0  0  0  0  0  0  0
   37.8050   24.7460   36.7410 N   0  0  0  0  0  0  0  0  0  0  0  0
   38.2670   21.7670   34.4880 H   0  0  0  0  0  0  0  0  0  0  0  0
   37.2220   23.4030   38.2030 H   0  0  0  0  0  0  0  0  0  0  0  0
   38.2720   26.3490   34.8920 C   0  0  0  0  0  0  0  0  0  0  0  0
   38.4190   27.4670   35.7830 C   0  0  0  0  0  0  0  0  0  0  0  0
   39.6820   26.8970   35.2120 C   0  0  0  0  0  0  0  0  0  0  0  0
   37.8740   26.5610   33.8780 H   0  0  0  0  0  0  0  0  0  0  0  0
   38.1630   28.4820   35.4460 H   0  0  0  0  0  0  0  0  0  0  0  0
   38.3300   27.3620   36.8950 H   0  0  0  0  0  0  0  0  0  0  0  0
   40.1980   27.4580   34.4220 H   0  0  0  0  0  0  0  0  0  0  0  0
   40.3430   26.3100   35.8620 H   0  0  0  0  0  0  0  0  0  0  0  0
   38.5110   24.1070   33.1120 C   0  0  0  0  0  0  0  0  0  0  0  0
   38.4850   25.1660   32.8330 H   0  0  0  0  0  0  0  0  0  0  0  0
   39.6060   23.8090   32.9340 H   0  0  0  0  0  0  0  0  0  0  0  0
   37.7370   23.3310   32.1090 C   0  0  0  0  0  0  0  0  0  0  0  0
   37.7100   22.2580   32.2980 H   0  0  0  0  0  0  0  0  0  0  0  0
   38.0870   23.4600   31.0400 H   0  0  0  0  0  0  0  0  0  0  0  0
   36.4800   24.0200   32.1410 N   0  0  0  0  0  0  0  0  0  0  0  0
   35.7300   23.5250   32.6370 H   0  0  0  0  0  0  0  0  0  0  0  0
   36.2010   25.4330   31.4690 S   0  0  0  0  0  0  0  0  0  0  0  0
   36.1310   26.6580   32.1470 O   0  0  0  0  0  1  0  0  0  0  0  0
   34.8390   25.1770   30.6050 O   0  0  0  0  0  1  0  0  0  0  0  0
   37.3810   25.4300   30.2100 O   0  0  0  0  0  0  0  0  0  0  0  0
   37.0830   25.2950   29.3400 H   0  0  0  0  0  0  0  0  0  0  0  0
  1  6  1  0  0  0  0
  2  3  1  0  0  0  0
  2  1  2  0  0  0  0
  3  4  2  0  0  0  0
  4  5  1  0  0  0  0
  5  8  1  0  0  0  0
  6  5  2  0  0  0  0
  7  3  1  0  0  0  0
  9 11  1  0  0  0  0
  9  1  1  0  0  0  0
  9 10  1  0  0  0  0
 10 14  1  0  0  0  0
 11 10  1  0  0  0  0
 11 16  1  0  0  0  0
 12  9  1  0  0  0  0
 13 10  1  0  0  0  0
 15 11  1  0  0  0  0
 17  2  1  0  0  0  0
 18 17  1  0  0  0  0
 19 17  1  0  0  0  0
 20 23  1  0  0  0  0
 20 21  1  0  0  0  0
 20 17  1  0  0  0  0
 22 20  1  0  0  0  0
 23 24  1  0  0  0  0
 25 23  1  0  0  0  0
 25 26  1  0  0  0  0
 27 25  1  0  0  0  0
 28 25  1  0  0  0  0
 29 28  1  0  0  0  0
M  END
>  <minimizedAffinity>
-4.09039497

$$$$
