
 OpenBabel03272510323D

 26 27  0  0  0  0  0  0  0  0999 V2000
   35.7920   30.0860   47.4310 C   0  0  0  0  0  0  0  0  0  0  0  0
   34.6980   30.1580   46.6280 C   0  0  0  0  0  0  0  0  0  0  0  0
   33.5410   29.4560   46.8640 C   0  0  0  0  0  0  0  0  0  0  0  0
   33.5120   28.6480   47.9710 C   0  0  0  0  0  0  0  0  0  0  0  0
   34.5960   28.5440   48.8110 C   0  0  0  0  0  0  0  0  0  0  0  0
   35.7470   29.2650   48.5440 C   0  0  0  0  0  0  0  0  0  0  0  0
   34.7110   30.7990   45.7420 H   0  0  0  0  0  0  0  0  0  0  0  0
   32.6920   29.5530   46.1840 H   0  0  0  0  0  0  0  0  0  0  0  0
   32.5800   28.1060   48.1280 H   0  0  0  0  0  0  0  0  0  0  0  0
   34.4570   27.8780   49.6490 H   0  0  0  0  0  0  0  0  0  0  0  0
   38.5410   32.4370   47.7870 C   0  0  0  0  0  0  0  0  0  0  0  0
   39.1610   32.4460   46.5400 C   0  0  0  0  0  0  0  0  0  0  0  0
   38.6080   31.6130   45.5550 C   0  0  0  0  0  0  0  0  0  0  0  0
   37.5140   30.8470   45.8470 N   0  0  0  0  0  0  0  0  0  0  0  0
   36.9540   30.8820   47.0850 C   0  0  0  0  0  0  0  0  0  0  0  0
   37.4700   31.6810   48.0600 N   0  0  0  0  0  0  0  0  0  0  0  0
   38.9780   33.0830   48.5350 H   0  0  0  0  0  0  0  0  0  0  0  0
   40.0220   33.0340   46.2720 H   0  0  0  0  0  0  0  0  0  0  0  0
   39.0220   31.5520   44.5520 H   0  0  0  0  0  0  0  0  0  0  0  0
   36.8450   29.1470   49.4050 N   0  0  0  0  0  0  0  0  0  0  0  0
   37.7570   28.7670   49.0090 H   0  0  0  0  0  0  0  0  0  0  0  0
   37.0980   29.4820   51.0480 S   0  0  0  0  0  0  0  0  0  0  0  0
   35.8920   29.3630   51.9220 O   0  0  0  0  0  1  0  0  0  0  0  0
   37.7730   30.8070   51.1860 O   0  0  0  0  0  1  0  0  0  0  0  0
   38.1900   28.3100   51.6230 O   0  0  0  0  0  0  0  0  0  0  0  0
   37.9850   27.4230   51.1920 H   0  0  0  0  0  0  0  0  0  0  0  0
  1  6  1  0  0  0  0
  2  3  1  0  0  0  0
  2  1  2  0  0  0  0
  3  4  2  0  0  0  0
  4  9  1  0  0  0  0
  4  5  1  0  0  0  0
  5 10  1  0  0  0  0
  6  5  2  0  0  0  0
  6 20  1  0  0  0  0
  7  2  1  0  0  0  0
  8  3  1  0  0  0  0
 11 16  1  0  0  0  0
 11 17  1  0  0  0  0
 12 11  2  0  0  0  0
 13 14  2  0  0  0  0
 13 12  1  0  0  0  0
 14 15  1  0  0  0  0
 15  1  1  0  0  0  0
 15 16  2  0  0  0  0
 18 12  1  0  0  0  0
 19 13  1  0  0  0  0
 20 22  1  0  0  0  0
 21 20  1  0  0  0  0
 22 24  1  0  0  0  0
 22 25  1  0  0  0  0
 22 23  1  0  0  0  0
 26 25  1  0  0  0  0
M  END
>  <minimizedAffinity>
-4.83420086

>  <minimizedRMSD>
1.55980957

$$$$
