
 OpenBabel03272510323D

 26 27  0  0  0  0  0  0  0  0999 V2000
   37.0400   31.2990   48.6220 C   0  0  0  0  0  0  0  0  0  0  0  0
   37.1140   32.1150   49.7070 C   0  0  0  0  0  0  0  0  0  0  0  0
   38.0360   33.1250   49.8300 C   0  0  0  0  0  0  0  0  0  0  0  0
   38.9170   33.3010   48.7940 C   0  0  0  0  0  0  0  0  0  0  0  0
   38.8790   32.4990   47.6780 C   0  0  0  0  0  0  0  0  0  0  0  0
   37.9360   31.4890   47.5850 C   0  0  0  0  0  0  0  0  0  0  0  0
   36.4170   31.9830   50.5390 H   0  0  0  0  0  0  0  0  0  0  0  0
   38.0500   33.7510   50.7260 H   0  0  0  0  0  0  0  0  0  0  0  0
   39.6350   34.1100   48.9240 H   0  0  0  0  0  0  0  0  0  0  0  0
   39.6200   32.7310   46.9280 H   0  0  0  0  0  0  0  0  0  0  0  0
   34.1180   29.4220   47.5510 C   0  0  0  0  0  0  0  0  0  0  0  0
   34.0170   28.3750   48.4640 C   0  0  0  0  0  0  0  0  0  0  0  0
   34.9900   28.3240   49.4740 C   0  0  0  0  0  0  0  0  0  0  0  0
   35.9710   29.2740   49.5240 N   0  0  0  0  0  0  0  0  0  0  0  0
   36.0160   30.2720   48.6020 C   0  0  0  0  0  0  0  0  0  0  0  0
   35.0850   30.3460   47.6100 N   0  0  0  0  0  0  0  0  0  0  0  0
   33.3620   29.4480   46.7800 H   0  0  0  0  0  0  0  0  0  0  0  0
   33.2610   27.6090   48.4600 H   0  0  0  0  0  0  0  0  0  0  0  0
   34.9950   27.5450   50.2330 H   0  0  0  0  0  0  0  0  0  0  0  0
   37.9110   30.6770   46.4450 N   0  0  0  0  0  0  0  0  0  0  0  0
   37.8680   29.6220   46.5780 H   0  0  0  0  0  0  0  0  0  0  0  0
   37.9390   30.9840   44.7780 S   0  0  0  0  0  0  0  0  0  0  0  0
   37.5810   32.3780   44.3730 O   0  0  0  0  0  1  0  0  0  0  0  0
   37.1160   29.9580   44.0700 O   0  0  0  0  0  1  0  0  0  0  0  0
   39.5470   30.7660   44.2670 O   0  0  0  0  0  0  0  0  0  0  0  0
   40.1720   31.1130   44.9740 H   0  0  0  0  0  0  0  0  0  0  0  0
  1  2  1  0  0  0  0
  2  3  2  0  0  0  0
  2  7  1  0  0  0  0
  3  8  1  0  0  0  0
  4  9  1  0  0  0  0
  4  3  1  0  0  0  0
  5  4  2  0  0  0  0
  6  5  1  0  0  0  0
  6  1  2  0  0  0  0
 10  5  1  0  0  0  0
 11 16  2  0  0  0  0
 11 12  1  0  0  0  0
 12 13  2  0  0  0  0
 13 14  1  0  0  0  0
 13 19  1  0  0  0  0
 15  1  1  0  0  0  0
 15 14  2  0  0  0  0
 16 15  1  0  0  0  0
 17 11  1  0  0  0  0
 18 12  1  0  0  0  0
 20 21  1  0  0  0  0
 20  6  1  0  0  0  0
 22 20  1  0  0  0  0
 23 22  1  0  0  0  0
 24 22  1  0  0  0  0
 25 22  1  0  0  0  0
 25 26  1  0  0  0  0
M  END
>  <minimizedAffinity>
-5.28851986

>  <minimizedRMSD>
6.07114887

$$$$
