
 OpenBabel03272503063D

 30 31  0  0  0  0  0  0  0  0999 V2000
   38.5500   30.4550   47.3580 F   0  0  0  0  0  0  0  0  0  0  0  0
   38.7790   31.6960   47.8540 C   0  0  0  0  0  0  0  0  0  0  0  0
   38.1650   32.1090   49.0090 C   0  0  0  0  0  0  0  0  0  0  0  0
   38.4430   33.3700   49.4480 C   0  0  0  0  0  0  0  0  0  0  0  0
   39.2990   34.2190   48.7820 C   0  0  0  0  0  0  0  0  0  0  0  0
   39.9060   33.7880   47.6240 C   0  0  0  0  0  0  0  0  0  0  0  0
   39.6480   32.5160   47.1500 C   0  0  0  0  0  0  0  0  0  0  0  0
   37.9630   33.7010   50.3570 H   0  0  0  0  0  0  0  0  0  0  0  0
   39.5270   35.2210   49.1200 H   0  0  0  0  0  0  0  0  0  0  0  0
   40.6040   34.3680   47.0080 H   0  0  0  0  0  0  0  0  0  0  0  0
   36.7260   29.5740   51.4200 C   0  0  0  0  0  0  0  0  0  0  0  0
   37.6160   30.4670   50.8140 C   0  0  0  0  0  0  0  0  0  0  0  0
   37.2690   31.1690   49.6720 C   0  0  0  0  0  0  0  0  0  0  0  0
   36.0080   30.9320   49.1820 N   0  0  0  0  0  0  0  0  0  0  0  0
   35.1660   30.0720   49.7750 C   0  0  0  0  0  0  0  0  0  0  0  0
   35.5170   29.4000   50.8790 N   0  0  0  0  0  0  0  0  0  0  0  0
   37.0670   29.0750   52.2920 H   0  0  0  0  0  0  0  0  0  0  0  0
   38.6120   30.6330   51.2300 H   0  0  0  0  0  0  0  0  0  0  0  0
   34.1650   29.8960   49.3690 H   0  0  0  0  0  0  0  0  0  0  0  0
   39.4530   32.1960   44.7830 C   0  0  0  0  0  0  0  0  0  0  0  0
   38.3050   32.6970   44.9920 O   0  0  0  0  0  0  0  0  0  0  0  0
   40.2590   32.0240   45.9470 N   0  0  0  0  0  0  0  0  0  0  0  0
   41.1830   31.5700   45.8030 H   0  0  0  0  0  0  0  0  0  0  0  0
   39.8770   31.8430   43.4700 N   0  0  0  0  0  0  0  0  0  0  0  0
   40.3750   32.5600   42.8870 H   0  0  0  0  0  0  0  0  0  0  0  0
   39.6090   30.2780   42.7870 S   0  0  0  0  0  0  0  0  0  0  0  0
   40.7160   29.9460   41.8620 O   0  0  0  0  0  1  0  0  0  0  0  0
   38.3120   30.2580   42.0090 O   0  0  0  0  0  1  0  0  0  0  0  0
   39.4350   29.1590   44.0360 O   0  0  0  0  0  0  0  0  0  0  0  0
   39.7790   28.2650   43.7800 H   0  0  0  0  0  0  0  0  0  0  0  0
  1  2  1  0  0  0  0
  2  3  1  0  0  0  0
  3  4  2  0  0  0  0
  3 13  1  0  0  0  0
  4  8  1  0  0  0  0
  5  9  1  0  0  0  0
  5  4  1  0  0  0  0
  6  5  2  0  0  0  0
  7  6  1  0  0  0  0
  7  2  2  0  0  0  0
 10  6  1  0  0  0  0
 11 17  1  0  0  0  0
 12 18  1  0  0  0  0
 12 11  2  0  0  0  0
 13 12  1  0  0  0  0
 14 13  2  0  0  0  0
 14 15  1  0  0  0  0
 15 16  2  0  0  0  0
 16 11  1  0  0  0  0
 19 15  1  0  0  0  0
 20 21  2  0  0  0  0
 20 22  1  0  0  0  0
 22  7  1  0  0  0  0
 23 22  1  0  0  0  0
 24 20  1  0  0  0  0
 25 24  1  0  0  0  0
 26 24  1  0  0  0  0
 26 29  1  0  0  0  0
 27 26  1  0  0  0  0
 28 26  1  0  0  0  0
 30 29  1  0  0  0  0
M  END
>  <minimizedAffinity>
-6.49549913

>  <minimizedRMSD>
0.339055628

$$$$
