
 OpenBabel03272510323D

 26 27  0  0  0  0  0  0  0  0999 V2000
   38.1430   31.7160   47.2460 C   0  0  0  0  0  0  0  0  0  0  0  0
   39.2270   32.4990   47.4940 C   0  0  0  0  0  0  0  0  0  0  0  0
   39.9020   33.1850   46.5140 C   0  0  0  0  0  0  0  0  0  0  0  0
   39.4420   33.0590   45.2290 C   0  0  0  0  0  0  0  0  0  0  0  0
   38.3500   32.2770   44.9320 C   0  0  0  0  0  0  0  0  0  0  0  0
   37.6920   31.5990   45.9430 C   0  0  0  0  0  0  0  0  0  0  0  0
   39.6020   32.6060   48.5160 H   0  0  0  0  0  0  0  0  0  0  0  0
   40.7670   33.8000   46.7710 H   0  0  0  0  0  0  0  0  0  0  0  0
   40.0000   33.6160   44.4770 H   0  0  0  0  0  0  0  0  0  0  0  0
   38.0800   32.2540   43.8870 H   0  0  0  0  0  0  0  0  0  0  0  0
   35.5160   30.5200   49.4540 C   0  0  0  0  0  0  0  0  0  0  0  0
   36.1860   29.8170   50.4520 C   0  0  0  0  0  0  0  0  0  0  0  0
   37.5850   29.7590   50.3500 C   0  0  0  0  0  0  0  0  0  0  0  0
   38.2180   30.3760   49.3090 N   0  0  0  0  0  0  0  0  0  0  0  0
   37.5070   31.0480   48.3650 C   0  0  0  0  0  0  0  0  0  0  0  0
   36.1490   31.1200   48.4380 N   0  0  0  0  0  0  0  0  0  0  0  0
   34.4400   30.5560   49.5450 H   0  0  0  0  0  0  0  0  0  0  0  0
   35.7240   29.3200   51.2870 H   0  0  0  0  0  0  0  0  0  0  0  0
   38.1950   29.2340   51.0810 H   0  0  0  0  0  0  0  0  0  0  0  0
   36.5840   30.8030   45.6270 N   0  0  0  0  0  0  0  0  0  0  0  0
   35.8830   30.5850   46.3980 H   0  0  0  0  0  0  0  0  0  0  0  0
   36.0460   30.0390   44.2130 S   0  0  0  0  0  0  0  0  0  0  0  0
   35.5770   30.9520   43.1260 O   0  0  0  0  0  1  0  0  0  0  0  0
   35.0290   29.0030   44.5640 O   0  0  0  0  0  1  0  0  0  0  0  0
   37.3840   29.2150   43.5620 O   0  0  0  0  0  0  0  0  0  0  0  0
   38.2130   29.7700   43.6930 H   0  0  0  0  0  0  0  0  0  0  0  0
  1  2  1  0  0  0  0
  1 15  1  0  0  0  0
  2  7  1  0  0  0  0
  3  8  1  0  0  0  0
  3  2  2  0  0  0  0
  4  3  1  0  0  0  0
  5  4  2  0  0  0  0
  5  6  1  0  0  0  0
  6  1  2  0  0  0  0
  9  4  1  0  0  0  0
 10  5  1  0  0  0  0
 11 17  1  0  0  0  0
 11 12  1  0  0  0  0
 12 18  1  0  0  0  0
 13 12  2  0  0  0  0
 13 19  1  0  0  0  0
 14 13  1  0  0  0  0
 15 16  1  0  0  0  0
 15 14  2  0  0  0  0
 16 11  2  0  0  0  0
 20  6  1  0  0  0  0
 20 21  1  0  0  0  0
 22 24  1  0  0  0  0
 22 20  1  0  0  0  0
 23 22  1  0  0  0  0
 25 26  1  0  0  0  0
 25 22  1  0  0  0  0
M  END
>  <minimizedAffinity>
-4.65764666

>  <minimizedRMSD>
6.1346221

$$$$
