
 OpenBabel03272510133D

 39 41  0  0  0  0  0  0  0  0999 V2000
   38.3640   31.5930   48.8380 C   0  0  0  0  0  0  0  0  0  0  0  0
   38.5430   32.8630   49.3750 C   0  0  0  0  0  0  0  0  0  0  0  0
   39.1850   33.6320   48.4050 C   0  0  0  0  0  0  0  0  0  0  0  0
   39.3710   32.8440   47.3510 N   0  0  0  0  0  0  0  0  0  0  0  0
   38.8900   31.6480   47.6030 N   0  0  0  0  0  0  0  0  0  0  0  0
   38.3100   33.3600   50.3220 H   0  0  0  0  0  0  0  0  0  0  0  0
   39.5020   34.6820   48.4390 H   0  0  0  0  0  0  0  0  0  0  0  0
   40.0080   33.2240   46.0980 C   0  0  0  0  0  0  0  0  0  0  0  0
   40.7970   33.9590   46.3510 H   0  0  0  0  0  0  0  0  0  0  0  0
   39.2950   33.6930   45.4060 H   0  0  0  0  0  0  0  0  0  0  0  0
   40.6250   31.9640   45.5150 C   0  0  0  0  0  0  0  0  0  0  0  0
   41.6730   31.9030   45.8280 H   0  0  0  0  0  0  0  0  0  0  0  0
   40.1150   31.0880   45.9860 H   0  0  0  0  0  0  0  0  0  0  0  0
   40.4620   31.8670   44.1000 N   0  0  0  0  0  0  0  0  0  0  0  0
   41.3100   31.4440   43.6640 H   0  0  0  0  0  0  0  0  0  0  0  0
   39.1200   30.7890   43.7990 S   0  0  0  0  0  0  0  0  0  0  0  0
   37.8180   31.5260   43.9270 O   0  0  0  0  0  0  0  0  0  0  0  0
   39.1040   29.6440   44.7640 O   0  0  0  0  0  0  0  0  0  0  0  0
   39.2270   30.2480   42.2000 O   0  0  0  0  0  0  0  0  0  0  0  0
   38.8680   30.9360   41.5880 H   0  0  0  0  0  0  0  0  0  0  0  0
   37.7320   30.7100   49.6950 O   0  0  0  0  0  0  0  0  0  0  0  0
   34.1440   28.9150   48.4160 C   0  0  0  0  0  0  0  0  0  0  0  0
   34.8810   28.3800   49.4220 C   0  0  0  0  0  0  0  0  0  0  0  0
   36.0580   28.9090   49.8920 C   0  0  0  0  0  0  0  0  0  0  0  0
   36.5680   30.0480   49.3460 C   0  0  0  0  0  0  0  0  0  0  0  0
   35.8130   30.6100   48.3040 C   0  0  0  0  0  0  0  0  0  0  0  0
   34.6690   30.0610   47.8770 N   0  0  0  0  0  0  0  0  0  0  0  0
   34.5280   27.4730   49.8970 H   0  0  0  0  0  0  0  0  0  0  0  0
   36.6360   28.4710   50.6940 H   0  0  0  0  0  0  0  0  0  0  0  0
   36.1120   31.5170   47.7870 H   0  0  0  0  0  0  0  0  0  0  0  0
   32.0420   27.6140   48.6790 C   0  0  0  0  0  0  0  0  0  0  0  0
   32.9150   28.3900   47.9040 C   0  0  0  0  0  0  0  0  0  0  0  0
   32.5370   28.6310   46.6110 C   0  0  0  0  0  0  0  0  0  0  0  0
   31.3590   28.1200   46.1440 N   0  0  0  0  0  0  0  0  0  0  0  0
   30.5510   27.3750   46.9350 C   0  0  0  0  0  0  0  0  0  0  0  0
   30.8810   27.1110   48.2170 N   0  0  0  0  0  0  0  0  0  0  0  0
   32.2810   27.3900   49.7000 H   0  0  0  0  0  0  0  0  0  0  0  0
   33.1900   29.2290   45.9810 H   0  0  0  0  0  0  0  0  0  0  0  0
   29.6750   27.0630   46.3930 H   0  0  0  0  0  0  0  0  0  0  0  0
  1  2  1  0  0  0  0
  1 21  1  0  0  0  0
  2  6  1  0  0  0  0
  3  7  1  0  0  0  0
  3  2  2  0  0  0  0
  4  5  1  0  0  0  0
  4  3  1  0  0  0  0
  5  1  2  0  0  0  0
  8  9  1  0  0  0  0
  8  4  1  0  0  0  0
 10  8  1  0  0  0  0
 11 12  1  0  0  0  0
 11 13  1  0  0  0  0
 11  8  1  0  0  0  0
 14 11  1  0  0  0  0
 15 14  1  0  0  0  0
 16 17  1  0  0  0  0
 16 14  1  0  0  0  0
 16 18  1  0  0  0  0
 19 16  1  0  0  0  0
 20 19  1  0  0  0  0
 22 23  1  0  0  0  0
 23 24  2  0  0  0  0
 23 28  1  0  0  0  0
 24 29  1  0  0  0  0
 25 21  1  0  0  0  0
 25 24  1  0  0  0  0
 26 25  2  0  0  0  0
 27 26  1  0  0  0  0
 27 22  2  0  0  0  0
 30 26  1  0  0  0  0
 31 37  1  0  0  0  0
 32 22  1  0  0  0  0
 32 31  2  0  0  0  0
 33 32  1  0  0  0  0
 34 33  2  0  0  0  0
 34 35  1  0  0  0  0
 35 36  2  0  0  0  0
 36 31  1  0  0  0  0
 38 33  1  0  0  0  0
 39 35  1  0  0  0  0
M  END
>  <minimizedAffinity>
-5.62984514

>  <minimizedRMSD>
1.04424131

$$$$
