
 OpenBabel03272503063D

 30 31  0  0  0  0  0  0  0  0999 V2000
   38.5250   30.4340   47.3170 F   0  0  0  0  0  0  0  0  0  0  0  0
   38.7800   31.6710   47.8080 C   0  0  0  0  0  0  0  0  0  0  0  0
   38.1970   32.0910   48.9760 C   0  0  0  0  0  0  0  0  0  0  0  0
   38.5000   33.3490   49.4090 C   0  0  0  0  0  0  0  0  0  0  0  0
   39.3520   34.1870   48.7260 C   0  0  0  0  0  0  0  0  0  0  0  0
   39.9290   33.7500   47.5550 C   0  0  0  0  0  0  0  0  0  0  0  0
   39.6440   32.4810   47.0850 C   0  0  0  0  0  0  0  0  0  0  0  0
   38.0440   33.6850   50.3290 H   0  0  0  0  0  0  0  0  0  0  0  0
   39.6000   35.1860   49.0590 H   0  0  0  0  0  0  0  0  0  0  0  0
   40.6200   34.3220   46.9240 H   0  0  0  0  0  0  0  0  0  0  0  0
   36.7750   29.5820   51.4250 C   0  0  0  0  0  0  0  0  0  0  0  0
   37.6630   30.4650   50.8000 C   0  0  0  0  0  0  0  0  0  0  0  0
   37.3030   31.1630   49.6580 C   0  0  0  0  0  0  0  0  0  0  0  0
   36.0350   30.9320   49.1890 N   0  0  0  0  0  0  0  0  0  0  0  0
   35.1940   30.0810   49.8000 C   0  0  0  0  0  0  0  0  0  0  0  0
   35.5570   29.4150   50.9020 N   0  0  0  0  0  0  0  0  0  0  0  0
   37.1250   29.0860   52.2950 H   0  0  0  0  0  0  0  0  0  0  0  0
   38.6660   30.6260   51.2000 H   0  0  0  0  0  0  0  0  0  0  0  0
   34.1870   29.9100   49.4090 H   0  0  0  0  0  0  0  0  0  0  0  0
   39.4260   32.2310   44.7120 C   0  0  0  0  0  0  0  0  0  0  0  0
   38.3110   32.7960   44.9370 O   0  0  0  0  0  0  0  0  0  0  0  0
   40.2220   31.9830   45.8690 N   0  0  0  0  0  0  0  0  0  0  0  0
   41.1170   31.4770   45.7120 H   0  0  0  0  0  0  0  0  0  0  0  0
   39.8260   31.8850   43.3900 N   0  0  0  0  0  0  0  0  0  0  0  0
   40.5560   32.4680   42.9120 H   0  0  0  0  0  0  0  0  0  0  0  0
   39.1630   30.5410   42.5310 S   0  0  0  0  0  0  0  0  0  0  0  0
   40.0050   29.3450   42.7560 O   0  0  0  0  0  1  0  0  0  0  0  0
   39.1270   30.8300   41.0460 O   0  0  0  0  0  1  0  0  0  0  0  0
   37.5630   30.3210   43.0130 O   0  0  0  0  0  0  0  0  0  0  0  0
   37.2980   29.3650   42.9880 H   0  0  0  0  0  0  0  0  0  0  0  0
  1  2  1  0  0  0  0
  2  3  1  0  0  0  0
  3  4  2  0  0  0  0
  3 13  1  0  0  0  0
  4  8  1  0  0  0  0
  5  9  1  0  0  0  0
  5  4  1  0  0  0  0
  6  5  2  0  0  0  0
  7  6  1  0  0  0  0
  7  2  2  0  0  0  0
 10  6  1  0  0  0  0
 11 17  1  0  0  0  0
 12 18  1  0  0  0  0
 12 11  2  0  0  0  0
 13 12  1  0  0  0  0
 14 13  2  0  0  0  0
 14 15  1  0  0  0  0
 15 16  2  0  0  0  0
 16 11  1  0  0  0  0
 19 15  1  0  0  0  0
 20 21  2  0  0  0  0
 20 22  1  0  0  0  0
 22  7  1  0  0  0  0
 23 22  1  0  0  0  0
 24 20  1  0  0  0  0
 25 24  1  0  0  0  0
 26 27  1  0  0  0  0
 26 29  1  0  0  0  0
 26 24  1  0  0  0  0
 28 26  1  0  0  0  0
 30 29  1  0  0  0  0
M  END
>  <minimizedAffinity>
-6.21584892

>  <minimizedRMSD>
0.4015356

$$$$
