
 OpenBabel03272503063D

 30 31  0  0  0  0  0  0  0  0999 V2000
   38.0200   30.0860   47.2030 F   0  0  0  0  0  0  0  0  0  0  0  0
   38.4770   31.3140   47.5520 C   0  0  0  0  0  0  0  0  0  0  0  0
   38.2200   31.8240   48.7990 C   0  0  0  0  0  0  0  0  0  0  0  0
   38.7120   33.0660   49.0800 C   0  0  0  0  0  0  0  0  0  0  0  0
   39.4390   33.8020   48.1720 C   0  0  0  0  0  0  0  0  0  0  0  0
   39.6870   33.2750   46.9240 C   0  0  0  0  0  0  0  0  0  0  0  0
   39.2050   32.0200   46.6050 C   0  0  0  0  0  0  0  0  0  0  0  0
   38.5130   33.4720   50.0600 H   0  0  0  0  0  0  0  0  0  0  0  0
   39.8340   34.7870   48.3820 H   0  0  0  0  0  0  0  0  0  0  0  0
   40.2510   33.7610   46.1190 H   0  0  0  0  0  0  0  0  0  0  0  0
   37.1810   29.7210   51.7670 C   0  0  0  0  0  0  0  0  0  0  0  0
   37.9580   30.5080   50.9090 C   0  0  0  0  0  0  0  0  0  0  0  0
   37.4460   31.0020   49.7210 C   0  0  0  0  0  0  0  0  0  0  0  0
   36.1430   30.6710   49.4460 N   0  0  0  0  0  0  0  0  0  0  0  0
   35.4100   29.9150   50.2790 C   0  0  0  0  0  0  0  0  0  0  0  0
   35.9200   29.4450   51.4240 N   0  0  0  0  0  0  0  0  0  0  0  0
   37.6450   29.3810   52.6580 H   0  0  0  0  0  0  0  0  0  0  0  0
   38.9920   30.7520   51.1590 H   0  0  0  0  0  0  0  0  0  0  0  0
   34.3730   29.6620   50.0410 H   0  0  0  0  0  0  0  0  0  0  0  0
   38.3240   31.5220   44.4320 C   0  0  0  0  0  0  0  0  0  0  0  0
   37.2830   32.0510   44.9320 O   0  0  0  0  0  0  0  0  0  0  0  0
   39.4390   31.4290   45.3170 N   0  0  0  0  0  0  0  0  0  0  0  0
   40.2850   30.9540   44.9430 H   0  0  0  0  0  0  0  0  0  0  0  0
   38.3460   31.0640   43.0840 N   0  0  0  0  0  0  0  0  0  0  0  0
   37.8500   30.1710   42.8430 H   0  0  0  0  0  0  0  0  0  0  0  0
   39.1570   31.9150   41.8180 S   0  0  0  0  0  0  0  0  0  0  0  0
   38.3630   31.8260   40.5730 O   0  0  0  0  0  1  0  0  0  0  0  0
   40.5190   31.3050   41.5620 O   0  0  0  0  0  1  0  0  0  0  0  0
   39.4310   33.5020   42.3140 O   0  0  0  0  0  0  0  0  0  0  0  0
   39.4030   34.1360   41.5520 H   0  0  0  0  0  0  0  0  0  0  0  0
  1  2  1  0  0  0  0
  2  3  1  0  0  0  0
  3  4  2  0  0  0  0
  3 13  1  0  0  0  0
  4  8  1  0  0  0  0
  5  9  1  0  0  0  0
  5  4  1  0  0  0  0
  6  5  2  0  0  0  0
  7  6  1  0  0  0  0
  7  2  2  0  0  0  0
 10  6  1  0  0  0  0
 11 17  1  0  0  0  0
 12 18  1  0  0  0  0
 12 11  2  0  0  0  0
 13 12  1  0  0  0  0
 14 13  2  0  0  0  0
 14 15  1  0  0  0  0
 15 16  2  0  0  0  0
 16 11  1  0  0  0  0
 19 15  1  0  0  0  0
 20 21  2  0  0  0  0
 20 22  1  0  0  0  0
 22  7  1  0  0  0  0
 23 22  1  0  0  0  0
 24 20  1  0  0  0  0
 25 24  1  0  0  0  0
 26 29  1  0  0  0  0
 26 24  1  0  0  0  0
 27 26  1  0  0  0  0
 28 26  1  0  0  0  0
 30 29  1  0  0  0  0
M  END
>  <minimizedAffinity>
-5.81517935

>  <minimizedRMSD>
1.02929056

$$$$
