
 OpenBabel03272503063D

 30 31  0  0  0  0  0  0  0  0999 V2000
   38.3200   30.4430   47.2370 F   0  0  0  0  0  0  0  0  0  0  0  0
   38.6870   31.6560   47.7160 C   0  0  0  0  0  0  0  0  0  0  0  0
   38.2950   32.0590   48.9670 C   0  0  0  0  0  0  0  0  0  0  0  0
   38.7020   33.2930   49.3830 C   0  0  0  0  0  0  0  0  0  0  0  0
   39.4740   34.1250   48.6030 C   0  0  0  0  0  0  0  0  0  0  0  0
   39.8590   33.7050   47.3500 C   0  0  0  0  0  0  0  0  0  0  0  0
   39.4650   32.4600   46.8950 C   0  0  0  0  0  0  0  0  0  0  0  0
   38.3960   33.6160   50.3670 H   0  0  0  0  0  0  0  0  0  0  0  0
   39.8030   35.1050   48.9220 H   0  0  0  0  0  0  0  0  0  0  0  0
   40.4700   34.2730   46.6390 H   0  0  0  0  0  0  0  0  0  0  0  0
   37.1170   29.6290   51.6170 C   0  0  0  0  0  0  0  0  0  0  0  0
   37.9340   30.5060   50.8940 C   0  0  0  0  0  0  0  0  0  0  0  0
   37.4780   31.1390   49.7490 C   0  0  0  0  0  0  0  0  0  0  0  0
   36.1890   30.8510   49.3780 N   0  0  0  0  0  0  0  0  0  0  0  0
   35.4180   30.0070   50.0820 C   0  0  0  0  0  0  0  0  0  0  0  0
   35.8730   29.4030   51.1860 N   0  0  0  0  0  0  0  0  0  0  0  0
   37.5400   29.1840   52.4830 H   0  0  0  0  0  0  0  0  0  0  0  0
   38.9560   30.7140   51.2180 H   0  0  0  0  0  0  0  0  0  0  0  0
   34.3920   29.7900   49.7690 H   0  0  0  0  0  0  0  0  0  0  0  0
   38.8400   32.1760   44.5990 C   0  0  0  0  0  0  0  0  0  0  0  0
   37.7550   32.6840   45.0200 O   0  0  0  0  0  0  0  0  0  0  0  0
   39.8420   31.9810   45.5960 N   0  0  0  0  0  0  0  0  0  0  0  0
   40.7200   31.5200   45.2820 H   0  0  0  0  0  0  0  0  0  0  0  0
   39.0160   31.8380   43.2270 N   0  0  0  0  0  0  0  0  0  0  0  0
   38.5070   32.3950   42.4980 H   0  0  0  0  0  0  0  0  0  0  0  0
   40.0340   30.5440   42.7040 S   0  0  0  0  0  0  0  0  0  0  0  0
   40.6080   30.8720   41.3790 O   0  0  0  0  0  1  0  0  0  0  0  0
   39.2370   29.2650   42.5770 O   0  0  0  0  0  1  0  0  0  0  0  0
   41.2070   30.2620   43.8800 O   0  0  0  0  0  0  0  0  0  0  0  0
   42.0600   29.9490   43.4820 H   0  0  0  0  0  0  0  0  0  0  0  0
  1  2  1  0  0  0  0
  2  3  1  0  0  0  0
  3  4  2  0  0  0  0
  3 13  1  0  0  0  0
  4  8  1  0  0  0  0
  5  9  1  0  0  0  0
  5  4  1  0  0  0  0
  6  5  2  0  0  0  0
  7  6  1  0  0  0  0
  7  2  2  0  0  0  0
 10  6  1  0  0  0  0
 11 17  1  0  0  0  0
 12 18  1  0  0  0  0
 12 11  2  0  0  0  0
 13 12  1  0  0  0  0
 14 13  2  0  0  0  0
 14 15  1  0  0  0  0
 15 16  2  0  0  0  0
 16 11  1  0  0  0  0
 19 15  1  0  0  0  0
 20 21  2  0  0  0  0
 20 22  1  0  0  0  0
 22  7  1  0  0  0  0
 23 22  1  0  0  0  0
 24 20  1  0  0  0  0
 25 24  1  0  0  0  0
 26 24  1  0  0  0  0
 26 29  1  0  0  0  0
 27 26  1  0  0  0  0
 28 26  1  0  0  0  0
 30 29  1  0  0  0  0
M  END
>  <minimizedAffinity>
-6.55486822

>  <minimizedRMSD>
0.43082267

$$$$
