
 OpenBabel03272510143D

 39 41  0  0  0  0  0  0  0  0999 V2000
   37.1820   24.8200   32.1550 C   0  0  0  0  0  0  0  0  0  0  0  0
   36.1710   24.1650   31.4590 C   0  0  0  0  0  0  0  0  0  0  0  0
   36.1190   22.8590   31.9450 C   0  0  0  0  0  0  0  0  0  0  0  0
   37.0560   22.7590   32.8820 N   0  0  0  0  0  0  0  0  0  0  0  0
   37.6790   23.9090   33.0070 N   0  0  0  0  0  0  0  0  0  0  0  0
   35.4600   24.4250   30.6700 H   0  0  0  0  0  0  0  0  0  0  0  0
   35.4610   22.0290   31.6560 H   0  0  0  0  0  0  0  0  0  0  0  0
   37.3630   21.5710   33.6650 C   0  0  0  0  0  0  0  0  0  0  0  0
   37.8150   20.8380   32.9670 H   0  0  0  0  0  0  0  0  0  0  0  0
   36.4590   21.1290   34.1050 H   0  0  0  0  0  0  0  0  0  0  0  0
   38.3700   21.9860   34.7230 C   0  0  0  0  0  0  0  0  0  0  0  0
   39.2360   21.3160   34.6740 H   0  0  0  0  0  0  0  0  0  0  0  0
   38.7520   22.9990   34.4470 H   0  0  0  0  0  0  0  0  0  0  0  0
   37.8030   22.0640   36.0320 N   0  0  0  0  0  0  0  0  0  0  0  0
   37.9210   21.1580   36.5350 H   0  0  0  0  0  0  0  0  0  0  0  0
   38.6930   23.2800   36.9170 S   0  0  0  0  0  0  0  0  0  0  0  0
   37.7970   24.4320   37.2690 O   0  0  0  0  0  1  0  0  0  0  0  0
   39.8450   23.8100   36.1220 O   0  0  0  0  0  1  0  0  0  0  0  0
   39.2110   22.5940   38.3750 O   0  0  0  0  0  0  0  0  0  0  0  0
   38.4710   22.5980   39.0290 H   0  0  0  0  0  0  0  0  0  0  0  0
   37.3530   26.1390   31.7770 O   0  0  0  0  0  0  0  0  0  0  0  0
   35.6340   29.2290   34.0640 C   0  0  0  0  0  0  0  0  0  0  0  0
   35.3310   29.0720   32.7510 C   0  0  0  0  0  0  0  0  0  0  0  0
   35.8510   28.0890   31.9440 C   0  0  0  0  0  0  0  0  0  0  0  0
   36.7370   27.1840   32.4450 C   0  0  0  0  0  0  0  0  0  0  0  0
   37.0570   27.3380   33.8030 C   0  0  0  0  0  0  0  0  0  0  0  0
   36.5260   28.3100   34.5540 N   0  0  0  0  0  0  0  0  0  0  0  0
   34.6310   29.7610   32.2950 H   0  0  0  0  0  0  0  0  0  0  0  0
   35.6010   27.9760   30.8980 H   0  0  0  0  0  0  0  0  0  0  0  0
   37.7500   26.6810   34.3200 H   0  0  0  0  0  0  0  0  0  0  0  0
   35.9310   31.1100   35.6640 C   0  0  0  0  0  0  0  0  0  0  0  0
   35.1100   30.2400   34.9320 C   0  0  0  0  0  0  0  0  0  0  0  0
   33.7600   30.3970   35.0850 C   0  0  0  0  0  0  0  0  0  0  0  0
   33.2810   31.3680   35.9190 N   0  0  0  0  0  0  0  0  0  0  0  0
   34.1180   32.1840   36.6030 C   0  0  0  0  0  0  0  0  0  0  0  0
   35.4580   32.0670   36.4850 N   0  0  0  0  0  0  0  0  0  0  0  0
   36.9980   31.0380   35.5870 H   0  0  0  0  0  0  0  0  0  0  0  0
   33.0930   29.7390   34.5340 H   0  0  0  0  0  0  0  0  0  0  0  0
   33.5590   32.8800   37.2040 H   0  0  0  0  0  0  0  0  0  0  0  0
  1  5  2  0  0  0  0
  2  3  2  0  0  0  0
  2  1  1  0  0  0  0
  3  4  1  0  0  0  0
  4  5  1  0  0  0  0
  4  8  1  0  0  0  0
  6  2  1  0  0  0  0
  7  3  1  0  0  0  0
  8 10  1  0  0  0  0
  8 11  1  0  0  0  0
  9  8  1  0  0  0  0
 11 14  1  0  0  0  0
 12 11  1  0  0  0  0
 13 11  1  0  0  0  0
 14 15  1  0  0  0  0
 14 16  1  0  0  0  0
 16 17  1  0  0  0  0
 16 19  1  0  0  0  0
 18 16  1  0  0  0  0
 19 20  1  0  0  0  0
 21  1  1  0  0  0  0
 21 25  1  0  0  0  0
 22 27  1  0  0  0  0
 22 32  1  0  0  0  0
 23 22  2  0  0  0  0
 24 25  2  0  0  0  0
 24 23  1  0  0  0  0
 25 26  1  0  0  0  0
 26 30  1  0  0  0  0
 26 27  2  0  0  0  0
 28 23  1  0  0  0  0
 29 24  1  0  0  0  0
 31 36  1  0  0  0  0
 32 33  1  0  0  0  0
 32 31  2  0  0  0  0
 33 34  2  0  0  0  0
 34 35  1  0  0  0  0
 35 39  1  0  0  0  0
 36 35  2  0  0  0  0
 37 31  1  0  0  0  0
 38 33  1  0  0  0  0
M  END
>  <minimizedAffinity>
-5.5856719

$$$$

 OpenBabel03272510143D

 39 41  0  0  0  0  0  0  0  0999 V2000
   36.0960   25.9990   31.5900 C   0  0  0  0  0  0  0  0  0  0  0  0
   35.1460   25.1710   31.0000 C   0  0  0  0  0  0  0  0  0  0  0  0
   35.5310   23.8560   31.2600 C   0  0  0  0  0  0  0  0  0  0  0  0
   36.6530   23.9170   31.9700 N   0  0  0  0  0  0  0  0  0  0  0  0
   36.9850   25.1730   32.1650 N   0  0  0  0  0  0  0  0  0  0  0  0
   34.2310   25.3100   30.4170 H   0  0  0  0  0  0  0  0  0  0  0  0
   35.0510   22.9140   30.9670 H   0  0  0  0  0  0  0  0  0  0  0  0
   37.4160   22.7810   32.4670 C   0  0  0  0  0  0  0  0  0  0  0  0
   37.1570   22.6680   33.5390 H   0  0  0  0  0  0  0  0  0  0  0  0
   38.4990   22.9490   32.3810 H   0  0  0  0  0  0  0  0  0  0  0  0
   36.9600   21.5640   31.6820 C   0  0  0  0  0  0  0  0  0  0  0  0
   35.9380   21.7310   31.3260 H   0  0  0  0  0  0  0  0  0  0  0  0
   37.5950   21.4960   30.7650 H   0  0  0  0  0  0  0  0  0  0  0  0
   37.1020   20.3450   32.4130 N   0  0  0  0  0  0  0  0  0  0  0  0
   37.7210   20.4870   33.2410 H   0  0  0  0  0  0  0  0  0  0  0  0
   35.5190   19.9020   33.0060 S   0  0  0  0  0  0  0  0  0  0  0  0
   35.3350   18.4140   32.9460 O   0  0  0  0  0  1  0  0  0  0  0  0
   34.4290   20.5400   32.2020 O   0  0  0  0  0  1  0  0  0  0  0  0
   35.4250   20.3470   34.6360 O   0  0  0  0  0  0  0  0  0  0  0  0
   35.8730   19.6670   35.1960 H   0  0  0  0  0  0  0  0  0  0  0  0
   35.8440   27.3480   31.4130 O   0  0  0  0  0  0  0  0  0  0  0  0
   34.8570   30.0320   34.5040 C   0  0  0  0  0  0  0  0  0  0  0  0
   35.9600   29.2450   34.5790 C   0  0  0  0  0  0  0  0  0  0  0  0
   36.3440   28.3490   33.6120 C   0  0  0  0  0  0  0  0  0  0  0  0
   35.6030   28.1990   32.4790 C   0  0  0  0  0  0  0  0  0  0  0  0
   34.4600   29.0090   32.3910 C   0  0  0  0  0  0  0  0  0  0  0  0
   34.1220   29.8710   33.3580 N   0  0  0  0  0  0  0  0  0  0  0  0
   36.5900   29.3180   35.4570 H   0  0  0  0  0  0  0  0  0  0  0  0
   37.2250   27.7260   33.6860 H   0  0  0  0  0  0  0  0  0  0  0  0
   33.7880   28.9830   31.5390 H   0  0  0  0  0  0  0  0  0  0  0  0
   33.0830   31.1540   35.8380 C   0  0  0  0  0  0  0  0  0  0  0  0
   34.4300   30.9760   35.4920 C   0  0  0  0  0  0  0  0  0  0  0  0
   35.3400   31.7580   36.1500 C   0  0  0  0  0  0  0  0  0  0  0  0
   34.9090   32.6530   37.0890 N   0  0  0  0  0  0  0  0  0  0  0  0
   33.5950   32.7850   37.3860 C   0  0  0  0  0  0  0  0  0  0  0  0
   32.6600   32.0360   36.7640 N   0  0  0  0  0  0  0  0  0  0  0  0
   32.3210   30.5710   35.3580 H   0  0  0  0  0  0  0  0  0  0  0  0
   36.3930   31.6480   35.9070 H   0  0  0  0  0  0  0  0  0  0  0  0
   33.4530   33.5350   38.1450 H   0  0  0  0  0  0  0  0  0  0  0  0
  1  5  2  0  0  0  0
  2  3  2  0  0  0  0
  2  1  1  0  0  0  0
  3  4  1  0  0  0  0
  4  5  1  0  0  0  0
  4  8  1  0  0  0  0
  6  2  1  0  0  0  0
  7  3  1  0  0  0  0
  8  9  1  0  0  0  0
 10  8  1  0  0  0  0
 11 14  1  0  0  0  0
 11  8  1  0  0  0  0
 12 11  1  0  0  0  0
 13 11  1  0  0  0  0
 14 16  1  0  0  0  0
 14 15  1  0  0  0  0
 16 19  1  0  0  0  0
 17 16  1  0  0  0  0
 18 16  1  0  0  0  0
 19 20  1  0  0  0  0
 21  1  1  0  0  0  0
 21 25  1  0  0  0  0
 22 23  1  0  0  0  0
 22 32  1  0  0  0  0
 23 28  1  0  0  0  0
 24 29  1  0  0  0  0
 24 23  2  0  0  0  0
 25 24  1  0  0  0  0
 26 25  2  0  0  0  0
 26 27  1  0  0  0  0
 27 22  2  0  0  0  0
 30 26  1  0  0  0  0
 31 36  1  0  0  0  0
 32 31  2  0  0  0  0
 32 33  1  0  0  0  0
 33 34  2  0  0  0  0
 34 35  1  0  0  0  0
 35 39  1  0  0  0  0
 36 35  2  0  0  0  0
 37 31  1  0  0  0  0
 38 33  1  0  0  0  0
M  END
>  <minimizedAffinity>
-5.4536128

$$$$

 OpenBabel03272510143D

 39 41  0  0  0  0  0  0  0  0999 V2000
   35.4310   28.9370   32.3100 C   0  0  0  0  0  0  0  0  0  0  0  0
   35.5220   30.0420   31.4700 C   0  0  0  0  0  0  0  0  0  0  0  0
   34.4350   30.8670   31.7580 C   0  0  0  0  0  0  0  0  0  0  0  0
   33.7440   30.2680   32.7220 N   0  0  0  0  0  0  0  0  0  0  0  0
   34.3270   29.1370   33.0480 N   0  0  0  0  0  0  0  0  0  0  0  0
   36.2060   30.3850   30.6880 H   0  0  0  0  0  0  0  0  0  0  0  0
   34.1480   31.8290   31.3150 H   0  0  0  0  0  0  0  0  0  0  0  0
   32.5240   30.7700   33.3410 C   0  0  0  0  0  0  0  0  0  0  0  0
   31.9500   29.8830   33.6750 H   0  0  0  0  0  0  0  0  0  0  0  0
   31.9130   31.3410   32.6300 H   0  0  0  0  0  0  0  0  0  0  0  0
   32.9470   31.6080   34.5350 C   0  0  0  0  0  0  0  0  0  0  0  0
   33.5390   32.4590   34.1820 H   0  0  0  0  0  0  0  0  0  0  0  0
   32.0220   32.0450   34.9860 H   0  0  0  0  0  0  0  0  0  0  0  0
   33.6160   30.8460   35.5410 N   0  0  0  0  0  0  0  0  0  0  0  0
   33.9030   29.9170   35.1630 H   0  0  0  0  0  0  0  0  0  0  0  0
   35.0700   31.7130   35.9750 S   0  0  0  0  0  0  0  0  0  0  0  0
   35.2290   32.9310   35.1120 O   0  0  0  0  0  1  0  0  0  0  0  0
   36.2900   30.8610   35.8110 O   0  0  0  0  0  1  0  0  0  0  0  0
   34.9030   32.2540   37.5700 O   0  0  0  0  0  0  0  0  0  0  0  0
   34.3560   33.0760   37.5900 H   0  0  0  0  0  0  0  0  0  0  0  0
   36.4530   28.0210   32.1360 O   0  0  0  0  0  0  0  0  0  0  0  0
   38.0470   25.5380   35.1410 C   0  0  0  0  0  0  0  0  0  0  0  0
   37.6970   26.8240   35.4010 C   0  0  0  0  0  0  0  0  0  0  0  0
   37.1730   27.6900   34.4730 C   0  0  0  0  0  0  0  0  0  0  0  0
   36.9690   27.2840   33.1890 C   0  0  0  0  0  0  0  0  0  0  0  0
   37.3270   25.9550   32.9100 C   0  0  0  0  0  0  0  0  0  0  0  0
   37.8360   25.1440   33.8450 N   0  0  0  0  0  0  0  0  0  0  0  0
   37.8360   27.2060   36.4040 H   0  0  0  0  0  0  0  0  0  0  0  0
   36.8990   28.7130   34.6940 H   0  0  0  0  0  0  0  0  0  0  0  0
   37.2130   25.5120   31.9260 H   0  0  0  0  0  0  0  0  0  0  0  0
   39.7230   23.8250   35.8050 C   0  0  0  0  0  0  0  0  0  0  0  0
   38.5950   24.6110   36.0830 C   0  0  0  0  0  0  0  0  0  0  0  0
   38.0260   24.4510   37.3170 C   0  0  0  0  0  0  0  0  0  0  0  0
   38.5650   23.5590   38.2010 N   0  0  0  0  0  0  0  0  0  0  0  0
   39.6560   22.8240   37.8820 C   0  0  0  0  0  0  0  0  0  0  0  0
   40.2530   22.9460   36.6780 N   0  0  0  0  0  0  0  0  0  0  0  0
   40.2140   23.9040   34.8560 H   0  0  0  0  0  0  0  0  0  0  0  0
   37.1500   25.0430   37.5670 H   0  0  0  0  0  0  0  0  0  0  0  0
   39.9310   22.1820   38.7010 H   0  0  0  0  0  0  0  0  0  0  0  0
  1  5  2  0  0  0  0
  2  3  2  0  0  0  0
  2  1  1  0  0  0  0
  3  4  1  0  0  0  0
  4  5  1  0  0  0  0
  4  8  1  0  0  0  0
  6  2  1  0  0  0  0
  7  3  1  0  0  0  0
  8  9  1  0  0  0  0
  8 11  1  0  0  0  0
 10  8  1  0  0  0  0
 11 13  1  0  0  0  0
 11 14  1  0  0  0  0
 12 11  1  0  0  0  0
 14 16  1  0  0  0  0
 15 14  1  0  0  0  0
 16 19  1  0  0  0  0
 17 16  1  0  0  0  0
 18 16  1  0  0  0  0
 19 20  1  0  0  0  0
 21  1  1  0  0  0  0
 21 25  1  0  0  0  0
 22 23  1  0  0  0  0
 22 32  1  0  0  0  0
 23 28  1  0  0  0  0
 24 29  1  0  0  0  0
 24 23  2  0  0  0  0
 25 24  1  0  0  0  0
 26 25  2  0  0  0  0
 26 27  1  0  0  0  0
 27 22  2  0  0  0  0
 30 26  1  0  0  0  0
 31 32  2  0  0  0  0
 31 36  1  0  0  0  0
 32 33  1  0  0  0  0
 33 38  1  0  0  0  0
 33 34  2  0  0  0  0
 35 34  1  0  0  0  0
 35 39  1  0  0  0  0
 36 35  2  0  0  0  0
 37 31  1  0  0  0  0
M  END
>  <minimizedAffinity>
-5.45131874

$$$$

 OpenBabel03272510143D

 39 41  0  0  0  0  0  0  0  0999 V2000
   36.9810   24.8020   32.0940 C   0  0  0  0  0  0  0  0  0  0  0  0
   36.0690   24.1140   31.3010 C   0  0  0  0  0  0  0  0  0  0  0  0
   36.0760   22.7860   31.7290 C   0  0  0  0  0  0  0  0  0  0  0  0
   36.9510   22.7070   32.7250 N   0  0  0  0  0  0  0  0  0  0  0  0
   37.4830   23.8890   32.9410 N   0  0  0  0  0  0  0  0  0  0  0  0
   35.3960   24.3610   30.4750 H   0  0  0  0  0  0  0  0  0  0  0  0
   35.4990   21.9280   31.3610 H   0  0  0  0  0  0  0  0  0  0  0  0
   37.2880   21.5070   33.4790 C   0  0  0  0  0  0  0  0  0  0  0  0
   37.7900   20.8180   32.7720 H   0  0  0  0  0  0  0  0  0  0  0  0
   36.3910   21.0140   33.8790 H   0  0  0  0  0  0  0  0  0  0  0  0
   38.2470   21.9300   34.5780 C   0  0  0  0  0  0  0  0  0  0  0  0
   39.1320   21.2840   34.5470 H   0  0  0  0  0  0  0  0  0  0  0  0
   38.6110   22.9570   34.3330 H   0  0  0  0  0  0  0  0  0  0  0  0
   37.6340   21.9690   35.8670 N   0  0  0  0  0  0  0  0  0  0  0  0
   37.8360   21.0910   36.3940 H   0  0  0  0  0  0  0  0  0  0  0  0
   38.3560   23.2920   36.7510 S   0  0  0  0  0  0  0  0  0  0  0  0
   39.7710   22.9600   37.1260 O   0  0  0  0  0  1  0  0  0  0  0  0
   37.5990   23.5960   38.0070 O   0  0  0  0  0  1  0  0  0  0  0  0
   38.4190   24.6370   35.7260 O   0  0  0  0  0  0  0  0  0  0  0  0
   39.1950   24.5610   35.1200 H   0  0  0  0  0  0  0  0  0  0  0  0
   37.0840   26.1460   31.7820 O   0  0  0  0  0  0  0  0  0  0  0  0
   35.6950   29.2810   34.2280 C   0  0  0  0  0  0  0  0  0  0  0  0
   36.5780   28.3610   34.6930 C   0  0  0  0  0  0  0  0  0  0  0  0
   37.0740   27.3140   33.9550 C   0  0  0  0  0  0  0  0  0  0  0  0
   36.6860   27.1400   32.6610 C   0  0  0  0  0  0  0  0  0  0  0  0
   35.7730   28.0860   32.1700 C   0  0  0  0  0  0  0  0  0  0  0  0
   35.3150   29.0920   32.9240 N   0  0  0  0  0  0  0  0  0  0  0  0
   36.9240   28.4470   35.7160 H   0  0  0  0  0  0  0  0  0  0  0  0
   37.7770   26.5880   34.3400 H   0  0  0  0  0  0  0  0  0  0  0  0
   35.3880   28.0560   31.1550 H   0  0  0  0  0  0  0  0  0  0  0  0
   35.9630   31.2420   35.7330 C   0  0  0  0  0  0  0  0  0  0  0  0
   35.1610   30.3820   34.9690 C   0  0  0  0  0  0  0  0  0  0  0  0
   33.8180   30.6430   34.9600 C   0  0  0  0  0  0  0  0  0  0  0  0
   33.3290   31.7000   35.6760 N   0  0  0  0  0  0  0  0  0  0  0  0
   34.1490   32.5010   36.3990 C   0  0  0  0  0  0  0  0  0  0  0  0
   35.4800   32.2830   36.4370 N   0  0  0  0  0  0  0  0  0  0  0  0
   37.0230   31.0900   35.7800 H   0  0  0  0  0  0  0  0  0  0  0  0
   33.1660   29.9980   34.3800 H   0  0  0  0  0  0  0  0  0  0  0  0
   33.5840   33.2740   36.8900 H   0  0  0  0  0  0  0  0  0  0  0  0
  1  5  2  0  0  0  0
  2  3  2  0  0  0  0
  2  1  1  0  0  0  0
  3  4  1  0  0  0  0
  4  5  1  0  0  0  0
  4  8  1  0  0  0  0
  6  2  1  0  0  0  0
  7  3  1  0  0  0  0
  8 10  1  0  0  0  0
  8 11  1  0  0  0  0
  9  8  1  0  0  0  0
 11 14  1  0  0  0  0
 12 11  1  0  0  0  0
 13 11  1  0  0  0  0
 14 15  1  0  0  0  0
 14 16  1  0  0  0  0
 16 17  1  0  0  0  0
 16 18  1  0  0  0  0
 19 16  1  0  0  0  0
 20 19  1  0  0  0  0
 21  1  1  0  0  0  0
 21 25  1  0  0  0  0
 22 23  1  0  0  0  0
 22 32  1  0  0  0  0
 23 28  1  0  0  0  0
 24 29  1  0  0  0  0
 24 23  2  0  0  0  0
 25 24  1  0  0  0  0
 26 25  2  0  0  0  0
 26 27  1  0  0  0  0
 27 22  2  0  0  0  0
 30 26  1  0  0  0  0
 31 37  1  0  0  0  0
 31 36  1  0  0  0  0
 32 31  2  0  0  0  0
 33 32  1  0  0  0  0
 33 34  2  0  0  0  0
 34 35  1  0  0  0  0
 35 36  2  0  0  0  0
 35 39  1  0  0  0  0
 38 33  1  0  0  0  0
M  END
>  <minimizedAffinity>
-5.24734879

$$$$

 OpenBabel03272510143D

 39 41  0  0  0  0  0  0  0  0999 V2000
   35.5580   28.4010   32.3440 C   0  0  0  0  0  0  0  0  0  0  0  0
   36.2980   28.5840   33.5070 C   0  0  0  0  0  0  0  0  0  0  0  0
   35.5090   29.3300   34.3820 C   0  0  0  0  0  0  0  0  0  0  0  0
   34.3610   29.5680   33.7570 N   0  0  0  0  0  0  0  0  0  0  0  0
   34.3870   29.0240   32.5620 N   0  0  0  0  0  0  0  0  0  0  0  0
   37.2920   28.2960   33.8640 H   0  0  0  0  0  0  0  0  0  0  0  0
   35.7300   29.6830   35.3980 H   0  0  0  0  0  0  0  0  0  0  0  0
   33.2320   30.3150   34.2930 C   0  0  0  0  0  0  0  0  0  0  0  0
   32.8860   30.9920   33.4860 H   0  0  0  0  0  0  0  0  0  0  0  0
   33.5200   30.9200   35.1630 H   0  0  0  0  0  0  0  0  0  0  0  0
   32.1520   29.3020   34.6320 C   0  0  0  0  0  0  0  0  0  0  0  0
   31.1710   29.7440   34.4300 H   0  0  0  0  0  0  0  0  0  0  0  0
   32.2550   28.4470   33.9200 H   0  0  0  0  0  0  0  0  0  0  0  0
   32.2670   28.7910   35.9610 N   0  0  0  0  0  0  0  0  0  0  0  0
   32.2980   29.5730   36.6510 H   0  0  0  0  0  0  0  0  0  0  0  0
   30.8290   27.8540   36.2890 S   0  0  0  0  0  0  0  0  0  0  0  0
   30.0810   27.5820   35.0160 O   0  0  0  0  0  1  0  0  0  0  0  0
   29.9070   28.5670   37.2290 O   0  0  0  0  0  1  0  0  0  0  0  0
   31.3080   26.3550   36.9110 O   0  0  0  0  0  0  0  0  0  0  0  0
   31.5810   25.7570   36.1740 H   0  0  0  0  0  0  0  0  0  0  0  0
   36.2180   27.6710   31.3730 O   0  0  0  0  0  0  0  0  0  0  0  0
   36.2850   23.4630   31.2220 C   0  0  0  0  0  0  0  0  0  0  0  0
   35.1280   24.1560   31.0640 C   0  0  0  0  0  0  0  0  0  0  0  0
   35.0310   25.5260   31.1010 C   0  0  0  0  0  0  0  0  0  0  0  0
   36.1400   26.2900   31.3070 C   0  0  0  0  0  0  0  0  0  0  0  0
   37.3410   25.5820   31.4710 C   0  0  0  0  0  0  0  0  0  0  0  0
   37.3910   24.2450   31.4270 N   0  0  0  0  0  0  0  0  0  0  0  0
   34.2120   23.6040   30.8970 H   0  0  0  0  0  0  0  0  0  0  0  0
   34.1020   26.0650   30.9750 H   0  0  0  0  0  0  0  0  0  0  0  0
   38.2930   26.0760   31.6410 H   0  0  0  0  0  0  0  0  0  0  0  0
   35.3710   21.1690   31.5160 C   0  0  0  0  0  0  0  0  0  0  0  0
   36.4210   22.0390   31.1870 C   0  0  0  0  0  0  0  0  0  0  0  0
   37.6060   21.4590   30.8260 C   0  0  0  0  0  0  0  0  0  0  0  0
   37.7140   20.0970   30.8010 N   0  0  0  0  0  0  0  0  0  0  0  0
   36.6680   19.3010   31.1280 C   0  0  0  0  0  0  0  0  0  0  0  0
   35.4790   19.8270   31.4900 N   0  0  0  0  0  0  0  0  0  0  0  0
   34.4170   21.5610   31.8070 H   0  0  0  0  0  0  0  0  0  0  0  0
   38.4420   22.1020   30.5650 H   0  0  0  0  0  0  0  0  0  0  0  0
   36.9440   18.2640   31.0490 H   0  0  0  0  0  0  0  0  0  0  0  0
  1  5  2  0  0  0  0
  1  2  1  0  0  0  0
  2  6  1  0  0  0  0
  2  3  2  0  0  0  0
  3  7  1  0  0  0  0
  4  8  1  0  0  0  0
  4  3  1  0  0  0  0
  5  4  1  0  0  0  0
  8 11  1  0  0  0  0
  8 10  1  0  0  0  0
  9  8  1  0  0  0  0
 11 14  1  0  0  0  0
 12 11  1  0  0  0  0
 13 11  1  0  0  0  0
 14 16  1  0  0  0  0
 14 15  1  0  0  0  0
 16 19  1  0  0  0  0
 16 18  1  0  0  0  0
 17 16  1  0  0  0  0
 20 19  1  0  0  0  0
 21  1  1  0  0  0  0
 22 27  1  0  0  0  0
 23 24  1  0  0  0  0
 23 22  2  0  0  0  0
 24 25  2  0  0  0  0
 25 21  1  0  0  0  0
 25 26  1  0  0  0  0
 26 30  1  0  0  0  0
 27 26  2  0  0  0  0
 28 23  1  0  0  0  0
 29 24  1  0  0  0  0
 31 37  1  0  0  0  0
 32 22  1  0  0  0  0
 32 31  2  0  0  0  0
 33 32  1  0  0  0  0
 34 33  2  0  0  0  0
 34 35  1  0  0  0  0
 35 36  2  0  0  0  0
 36 31  1  0  0  0  0
 38 33  1  0  0  0  0
 39 35  1  0  0  0  0
M  END
>  <minimizedAffinity>
-5.19511509

$$$$

 OpenBabel03272510143D

 39 41  0  0  0  0  0  0  0  0999 V2000
   35.8740   28.6070   32.1550 C   0  0  0  0  0  0  0  0  0  0  0  0
   35.9900   29.5430   31.1330 C   0  0  0  0  0  0  0  0  0  0  0  0
   34.9560   30.4640   31.3020 C   0  0  0  0  0  0  0  0  0  0  0  0
   34.2710   30.0810   32.3750 N   0  0  0  0  0  0  0  0  0  0  0  0
   34.8090   28.9920   32.8760 N   0  0  0  0  0  0  0  0  0  0  0  0
   36.6610   29.7070   30.2850 H   0  0  0  0  0  0  0  0  0  0  0  0
   34.7020   31.3510   30.7070 H   0  0  0  0  0  0  0  0  0  0  0  0
   33.1020   30.7480   32.9300 C   0  0  0  0  0  0  0  0  0  0  0  0
   32.2750   30.0110   32.9080 H   0  0  0  0  0  0  0  0  0  0  0  0
   32.8120   31.6240   32.3330 H   0  0  0  0  0  0  0  0  0  0  0  0
   33.4430   31.1180   34.3630 C   0  0  0  0  0  0  0  0  0  0  0  0
   32.5140   31.2370   34.9310 H   0  0  0  0  0  0  0  0  0  0  0  0
   33.9710   30.2470   34.8210 H   0  0  0  0  0  0  0  0  0  0  0  0
   34.2990   32.2580   34.4550 N   0  0  0  0  0  0  0  0  0  0  0  0
   33.7720   33.0810   34.8190 H   0  0  0  0  0  0  0  0  0  0  0  0
   35.5530   31.8790   35.6120 S   0  0  0  0  0  0  0  0  0  0  0  0
   35.0010   31.9050   37.0080 O   0  0  0  0  0  1  0  0  0  0  0  0
   36.6850   32.8560   35.5400 O   0  0  0  0  0  1  0  0  0  0  0  0
   36.0800   30.2990   35.3180 O   0  0  0  0  0  0  0  0  0  0  0  0
   35.4510   29.6540   35.7240 H   0  0  0  0  0  0  0  0  0  0  0  0
   36.8420   27.6190   32.1160 O   0  0  0  0  0  0  0  0  0  0  0  0
   36.1220   23.4900   31.7100 C   0  0  0  0  0  0  0  0  0  0  0  0
   35.3450   24.4070   31.0780 C   0  0  0  0  0  0  0  0  0  0  0  0
   35.5200   25.7660   31.1640 C   0  0  0  0  0  0  0  0  0  0  0  0
   36.5270   26.2850   31.9210 C   0  0  0  0  0  0  0  0  0  0  0  0
   37.3360   25.3450   32.5790 C   0  0  0  0  0  0  0  0  0  0  0  0
   37.1300   24.0270   32.4680 N   0  0  0  0  0  0  0  0  0  0  0  0
   34.5280   24.0560   30.4610 H   0  0  0  0  0  0  0  0  0  0  0  0
   34.8930   26.4850   30.6560 H   0  0  0  0  0  0  0  0  0  0  0  0
   38.1700   25.6310   33.2120 H   0  0  0  0  0  0  0  0  0  0  0  0
   36.8090   21.2510   30.8730 C   0  0  0  0  0  0  0  0  0  0  0  0
   35.9670   22.0690   31.6420 C   0  0  0  0  0  0  0  0  0  0  0  0
   34.9710   21.4400   32.3380 C   0  0  0  0  0  0  0  0  0  0  0  0
   34.8420   20.0820   32.2570 N   0  0  0  0  0  0  0  0  0  0  0  0
   35.6820   19.3380   31.4990 C   0  0  0  0  0  0  0  0  0  0  0  0
   36.6800   19.9130   30.7950 N   0  0  0  0  0  0  0  0  0  0  0  0
   37.6080   21.6840   30.3050 H   0  0  0  0  0  0  0  0  0  0  0  0
   34.3000   22.0420   32.9430 H   0  0  0  0  0  0  0  0  0  0  0  0
   35.4240   18.2950   31.5620 H   0  0  0  0  0  0  0  0  0  0  0  0
  1  5  2  0  0  0  0
  2  3  2  0  0  0  0
  2  1  1  0  0  0  0
  3  4  1  0  0  0  0
  4  5  1  0  0  0  0
  4  8  1  0  0  0  0
  6  2  1  0  0  0  0
  7  3  1  0  0  0  0
  8 11  1  0  0  0  0
  9  8  1  0  0  0  0
 10  8  1  0  0  0  0
 11 14  1  0  0  0  0
 11 13  1  0  0  0  0
 11 12  1  0  0  0  0
 14 15  1  0  0  0  0
 14 16  1  0  0  0  0
 16 17  1  0  0  0  0
 18 16  1  0  0  0  0
 19 16  1  0  0  0  0
 19 20  1  0  0  0  0
 21  1  1  0  0  0  0
 22 27  1  0  0  0  0
 23 24  1  0  0  0  0
 23 22  2  0  0  0  0
 24 25  2  0  0  0  0
 25 21  1  0  0  0  0
 25 26  1  0  0  0  0
 26 30  1  0  0  0  0
 27 26  2  0  0  0  0
 28 23  1  0  0  0  0
 29 24  1  0  0  0  0
 31 32  1  0  0  0  0
 32 22  1  0  0  0  0
 32 33  2  0  0  0  0
 33 38  1  0  0  0  0
 34 33  1  0  0  0  0
 35 39  1  0  0  0  0
 35 34  2  0  0  0  0
 36 31  2  0  0  0  0
 36 35  1  0  0  0  0
 37 31  1  0  0  0  0
M  END
>  <minimizedAffinity>
-5.05293751

$$$$

 OpenBabel03272510143D

 39 41  0  0  0  0  0  0  0  0999 V2000
   36.2230   28.3680   31.7790 C   0  0  0  0  0  0  0  0  0  0  0  0
   36.2170   29.6440   31.2240 C   0  0  0  0  0  0  0  0  0  0  0  0
   35.8630   30.5310   32.2400 C   0  0  0  0  0  0  0  0  0  0  0  0
   35.6730   29.8040   33.3360 N   0  0  0  0  0  0  0  0  0  0  0  0
   35.8840   28.5350   33.0680 N   0  0  0  0  0  0  0  0  0  0  0  0
   36.4130   30.0770   30.2390 H   0  0  0  0  0  0  0  0  0  0  0  0
   35.7470   31.6220   32.2100 H   0  0  0  0  0  0  0  0  0  0  0  0
   35.2890   30.3110   34.6460 C   0  0  0  0  0  0  0  0  0  0  0  0
   35.8270   31.2690   34.7870 H   0  0  0  0  0  0  0  0  0  0  0  0
   35.5800   29.6210   35.4510 H   0  0  0  0  0  0  0  0  0  0  0  0
   33.7890   30.5460   34.6080 C   0  0  0  0  0  0  0  0  0  0  0  0
   33.5060   31.1850   35.4520 H   0  0  0  0  0  0  0  0  0  0  0  0
   33.5630   31.1390   33.6880 H   0  0  0  0  0  0  0  0  0  0  0  0
   33.0370   29.3330   34.5530 N   0  0  0  0  0  0  0  0  0  0  0  0
   32.5190   29.1850   35.4460 H   0  0  0  0  0  0  0  0  0  0  0  0
   31.8520   29.5080   33.2800 S   0  0  0  0  0  0  0  0  0  0  0  0
   32.4020   30.3520   32.1660 O   0  0  0  0  0  1  0  0  0  0  0  0
   30.5960   30.1540   33.7790 O   0  0  0  0  0  1  0  0  0  0  0  0
   31.5450   27.9750   32.6330 O   0  0  0  0  0  0  0  0  0  0  0  0
   32.2580   27.7310   31.9950 H   0  0  0  0  0  0  0  0  0  0  0  0
   36.5610   27.3730   30.8800 O   0  0  0  0  0  0  0  0  0  0  0  0
   35.9250   23.2810   31.6490 C   0  0  0  0  0  0  0  0  0  0  0  0
   34.9200   24.0810   31.2110 C   0  0  0  0  0  0  0  0  0  0  0  0
   35.0530   25.4210   30.9400 C   0  0  0  0  0  0  0  0  0  0  0  0
   36.2550   26.0410   31.1050 C   0  0  0  0  0  0  0  0  0  0  0  0
   37.3010   25.2230   31.5570 C   0  0  0  0  0  0  0  0  0  0  0  0
   37.1280   23.9190   31.8090 N   0  0  0  0  0  0  0  0  0  0  0  0
   33.9400   23.6460   31.0610 H   0  0  0  0  0  0  0  0  0  0  0  0
   34.2420   26.0470   30.5930 H   0  0  0  0  0  0  0  0  0  0  0  0
   38.3060   25.5970   31.7270 H   0  0  0  0  0  0  0  0  0  0  0  0
   35.7160   21.3870   33.2470 C   0  0  0  0  0  0  0  0  0  0  0  0
   35.8210   21.8840   31.9400 C   0  0  0  0  0  0  0  0  0  0  0  0
   35.8200   20.9590   30.9310 C   0  0  0  0  0  0  0  0  0  0  0  0
   35.7200   19.6300   31.2320 N   0  0  0  0  0  0  0  0  0  0  0  0
   35.6210   19.2030   32.5130 C   0  0  0  0  0  0  0  0  0  0  0  0
   35.6170   20.0770   33.5410 N   0  0  0  0  0  0  0  0  0  0  0  0
   35.7110   22.0610   34.0810 H   0  0  0  0  0  0  0  0  0  0  0  0
   35.9010   21.3080   29.9050 H   0  0  0  0  0  0  0  0  0  0  0  0
   35.5520   18.1290   32.5480 H   0  0  0  0  0  0  0  0  0  0  0  0
  1  5  2  0  0  0  0
  2  1  1  0  0  0  0
  2  3  2  0  0  0  0
  3  4  1  0  0  0  0
  4  8  1  0  0  0  0
  5  4  1  0  0  0  0
  6  2  1  0  0  0  0
  7  3  1  0  0  0  0
  8  9  1  0  0  0  0
  8 10  1  0  0  0  0
 11  8  1  0  0  0  0
 11 12  1  0  0  0  0
 13 11  1  0  0  0  0
 14 11  1  0  0  0  0
 14 15  1  0  0  0  0
 16 18  1  0  0  0  0
 16 14  1  0  0  0  0
 17 16  1  0  0  0  0
 19 16  1  0  0  0  0
 20 19  1  0  0  0  0
 21 25  1  0  0  0  0
 21  1  1  0  0  0  0
 22 27  1  0  0  0  0
 22 32  1  0  0  0  0
 23 22  2  0  0  0  0
 24 25  2  0  0  0  0
 24 23  1  0  0  0  0
 25 26  1  0  0  0  0
 26 30  1  0  0  0  0
 26 27  2  0  0  0  0
 28 23  1  0  0  0  0
 29 24  1  0  0  0  0
 31 36  1  0  0  0  0
 31 37  1  0  0  0  0
 32 31  2  0  0  0  0
 33 34  2  0  0  0  0
 33 32  1  0  0  0  0
 34 35  1  0  0  0  0
 35 39  1  0  0  0  0
 35 36  2  0  0  0  0
 38 33  1  0  0  0  0
M  END
>  <minimizedAffinity>
-5.02364302

$$$$

 OpenBabel03272510143D

 39 41  0  0  0  0  0  0  0  0999 V2000
   35.5820   29.0680   32.1790 C   0  0  0  0  0  0  0  0  0  0  0  0
   35.5870   30.2320   31.4180 C   0  0  0  0  0  0  0  0  0  0  0  0
   34.3380   30.8320   31.5770 C   0  0  0  0  0  0  0  0  0  0  0  0
   33.6380   30.0510   32.3940 N   0  0  0  0  0  0  0  0  0  0  0  0
   34.3670   29.0170   32.7490 N   0  0  0  0  0  0  0  0  0  0  0  0
   36.3000   30.7470   30.7670 H   0  0  0  0  0  0  0  0  0  0  0  0
   33.9450   31.7610   31.1430 H   0  0  0  0  0  0  0  0  0  0  0  0
   32.2730   30.2850   32.8440 C   0  0  0  0  0  0  0  0  0  0  0  0
   31.6380   29.5300   32.3390 H   0  0  0  0  0  0  0  0  0  0  0  0
   31.9190   31.2880   32.5660 H   0  0  0  0  0  0  0  0  0  0  0  0
   32.2590   30.0690   34.3470 C   0  0  0  0  0  0  0  0  0  0  0  0
   31.3160   29.5880   34.6300 H   0  0  0  0  0  0  0  0  0  0  0  0
   33.0630   29.3320   34.5900 H   0  0  0  0  0  0  0  0  0  0  0  0
   32.5140   31.2660   35.0840 N   0  0  0  0  0  0  0  0  0  0  0  0
   32.2740   32.1050   34.5100 H   0  0  0  0  0  0  0  0  0  0  0  0
   31.4590   31.2600   36.4760 S   0  0  0  0  0  0  0  0  0  0  0  0
   30.1980   30.5020   36.1740 O   0  0  0  0  0  1  0  0  0  0  0  0
   31.0800   32.6480   36.8900 O   0  0  0  0  0  1  0  0  0  0  0  0
   32.2440   30.4340   37.7270 O   0  0  0  0  0  0  0  0  0  0  0  0
   32.1500   29.4600   37.5970 H   0  0  0  0  0  0  0  0  0  0  0  0
   36.7680   28.3600   32.1190 O   0  0  0  0  0  0  0  0  0  0  0  0
   38.1800   25.6780   35.0430 C   0  0  0  0  0  0  0  0  0  0  0  0
   37.4650   26.7800   35.3830 C   0  0  0  0  0  0  0  0  0  0  0  0
   36.9730   27.6960   34.4870 C   0  0  0  0  0  0  0  0  0  0  0  0
   37.1890   27.5370   33.1510 C   0  0  0  0  0  0  0  0  0  0  0  0
   37.9280   26.4010   32.7880 C   0  0  0  0  0  0  0  0  0  0  0  0
   38.3890   25.5320   33.6960 N   0  0  0  0  0  0  0  0  0  0  0  0
   37.2600   26.9610   36.4310 H   0  0  0  0  0  0  0  0  0  0  0  0
   36.4050   28.5710   34.7720 H   0  0  0  0  0  0  0  0  0  0  0  0
   38.1670   26.1620   31.7560 H   0  0  0  0  0  0  0  0  0  0  0  0
   38.1400   24.4600   37.2110 C   0  0  0  0  0  0  0  0  0  0  0  0
   38.7060   24.7040   35.9510 C   0  0  0  0  0  0  0  0  0  0  0  0
   39.8040   23.9600   35.6170 C   0  0  0  0  0  0  0  0  0  0  0  0
   40.2890   23.0360   36.5010 N   0  0  0  0  0  0  0  0  0  0  0  0
   39.7040   22.8390   37.7060 C   0  0  0  0  0  0  0  0  0  0  0  0
   38.6190   23.5490   38.0790 N   0  0  0  0  0  0  0  0  0  0  0  0
   37.2780   25.0110   37.5300 H   0  0  0  0  0  0  0  0  0  0  0  0
   40.2690   24.1220   34.6500 H   0  0  0  0  0  0  0  0  0  0  0  0
   40.2250   22.0760   38.2580 H   0  0  0  0  0  0  0  0  0  0  0  0
  1  5  2  0  0  0  0
  2  3  2  0  0  0  0
  2  1  1  0  0  0  0
  3  4  1  0  0  0  0
  4  5  1  0  0  0  0
  4  8  1  0  0  0  0
  6  2  1  0  0  0  0
  7  3  1  0  0  0  0
  8 11  1  0  0  0  0
  9  8  1  0  0  0  0
 10  8  1  0  0  0  0
 11 13  1  0  0  0  0
 11 12  1  0  0  0  0
 11 14  1  0  0  0  0
 14 16  1  0  0  0  0
 15 14  1  0  0  0  0
 16 18  1  0  0  0  0
 16 19  1  0  0  0  0
 17 16  1  0  0  0  0
 20 19  1  0  0  0  0
 21  1  1  0  0  0  0
 21 25  1  0  0  0  0
 22 23  1  0  0  0  0
 22 32  1  0  0  0  0
 23 28  1  0  0  0  0
 24 29  1  0  0  0  0
 24 23  2  0  0  0  0
 25 24  1  0  0  0  0
 26 25  2  0  0  0  0
 26 27  1  0  0  0  0
 27 22  2  0  0  0  0
 30 26  1  0  0  0  0
 31 37  1  0  0  0  0
 31 36  1  0  0  0  0
 32 31  2  0  0  0  0
 33 32  1  0  0  0  0
 33 34  2  0  0  0  0
 34 35  1  0  0  0  0
 35 36  2  0  0  0  0
 35 39  1  0  0  0  0
 38 33  1  0  0  0  0
M  END
>  <minimizedAffinity>
-4.99046612

$$$$

 OpenBabel03272510143D

 39 41  0  0  0  0  0  0  0  0999 V2000
   35.4930   28.9110   32.6330 C   0  0  0  0  0  0  0  0  0  0  0  0
   34.1530   29.1610   32.9110 C   0  0  0  0  0  0  0  0  0  0  0  0
   34.1130   29.9110   34.0870 C   0  0  0  0  0  0  0  0  0  0  0  0
   35.3720   30.0880   34.4730 N   0  0  0  0  0  0  0  0  0  0  0  0
   36.1820   29.5030   33.6210 N   0  0  0  0  0  0  0  0  0  0  0  0
   33.1920   28.9190   32.4490 H   0  0  0  0  0  0  0  0  0  0  0  0
   33.2490   30.3070   34.6370 H   0  0  0  0  0  0  0  0  0  0  0  0
   35.8120   30.8160   35.6550 C   0  0  0  0  0  0  0  0  0  0  0  0
   36.5850   31.5350   35.3170 H   0  0  0  0  0  0  0  0  0  0  0  0
   36.2550   30.1460   36.4040 H   0  0  0  0  0  0  0  0  0  0  0  0
   34.6010   31.5570   36.1950 C   0  0  0  0  0  0  0  0  0  0  0  0
   34.1830   32.1840   35.4000 H   0  0  0  0  0  0  0  0  0  0  0  0
   33.8160   30.7970   36.4290 H   0  0  0  0  0  0  0  0  0  0  0  0
   34.8820   32.2880   37.3890 N   0  0  0  0  0  0  0  0  0  0  0  0
   35.8880   32.5650   37.4180 H   0  0  0  0  0  0  0  0  0  0  0  0
   33.9330   33.7550   37.3420 S   0  0  0  0  0  0  0  0  0  0  0  0
   34.1700   34.5710   38.5800 O   0  0  0  0  0  1  0  0  0  0  0  0
   32.4670   33.4610   37.2500 O   0  0  0  0  0  1  0  0  0  0  0  0
   34.4620   34.6820   36.0300 O   0  0  0  0  0  0  0  0  0  0  0  0
   35.2850   35.1710   36.2750 H   0  0  0  0  0  0  0  0  0  0  0  0
   35.6910   28.1690   31.4820 O   0  0  0  0  0  0  0  0  0  0  0  0
   36.1370   23.9880   31.7190 C   0  0  0  0  0  0  0  0  0  0  0  0
   35.1430   24.5510   30.9860 C   0  0  0  0  0  0  0  0  0  0  0  0
   34.9370   25.9030   30.8630 C   0  0  0  0  0  0  0  0  0  0  0  0
   35.7570   26.7860   31.4990 C   0  0  0  0  0  0  0  0  0  0  0  0
   36.7890   26.2140   32.2590 C   0  0  0  0  0  0  0  0  0  0  0  0
   36.9540   24.8890   32.3520 N   0  0  0  0  0  0  0  0  0  0  0  0
   34.4580   23.9000   30.4570 H   0  0  0  0  0  0  0  0  0  0  0  0
   34.1400   26.3380   30.2760 H   0  0  0  0  0  0  0  0  0  0  0  0
   37.5080   26.8090   32.8130 H   0  0  0  0  0  0  0  0  0  0  0  0
   35.6250   21.6110   31.1990 C   0  0  0  0  0  0  0  0  0  0  0  0
   36.3800   22.5850   31.8670 C   0  0  0  0  0  0  0  0  0  0  0  0
   37.3790   22.1320   32.6850 C   0  0  0  0  0  0  0  0  0  0  0  0
   37.5930   20.7880   32.8120 N   0  0  0  0  0  0  0  0  0  0  0  0
   36.8340   19.8880   32.1430 C   0  0  0  0  0  0  0  0  0  0  0  0
   35.8370   20.2870   31.3250 N   0  0  0  0  0  0  0  0  0  0  0  0
   34.8280   21.9020   30.5440 H   0  0  0  0  0  0  0  0  0  0  0  0
   37.9840   22.8590   33.2190 H   0  0  0  0  0  0  0  0  0  0  0  0
   37.1510   18.8850   32.3690 H   0  0  0  0  0  0  0  0  0  0  0  0
  1  2  1  0  0  0  0
  1  5  2  0  0  0  0
  2  3  2  0  0  0  0
  3  4  1  0  0  0  0
  3  7  1  0  0  0  0
  4  8  1  0  0  0  0
  5  4  1  0  0  0  0
  6  2  1  0  0  0  0
  8 11  1  0  0  0  0
  8 10  1  0  0  0  0
  9  8  1  0  0  0  0
 11 13  1  0  0  0  0
 11 14  1  0  0  0  0
 12 11  1  0  0  0  0
 14 15  1  0  0  0  0
 16 14  1  0  0  0  0
 16 17  1  0  0  0  0
 18 16  1  0  0  0  0
 19 20  1  0  0  0  0
 19 16  1  0  0  0  0
 21 25  1  0  0  0  0
 21  1  1  0  0  0  0
 22 32  1  0  0  0  0
 22 27  1  0  0  0  0
 23 22  2  0  0  0  0
 24 23  1  0  0  0  0
 24 25  2  0  0  0  0
 25 26  1  0  0  0  0
 26 27  2  0  0  0  0
 26 30  1  0  0  0  0
 28 23  1  0  0  0  0
 29 24  1  0  0  0  0
 31 36  2  0  0  0  0
 31 32  1  0  0  0  0
 32 33  2  0  0  0  0
 33 34  1  0  0  0  0
 33 38  1  0  0  0  0
 35 39  1  0  0  0  0
 35 34  2  0  0  0  0
 36 35  1  0  0  0  0
 37 31  1  0  0  0  0
M  END
>  <minimizedAffinity>
-4.98698568

$$$$
