
 OpenBabel03272506503D

 32 33  0  0  1  0  0  0  0  0999 V2000
   34.7560   30.5780   48.7930 C   0  0  1  0  0  0  0  0  0  0  0  0
   34.1370   30.2370   47.5190 C   0  0  0  0  0  0  0  0  0  0  0  0
   34.2310   28.8050   47.0680 C   0  0  0  0  0  0  0  0  0  0  0  0
   34.1210   27.7930   48.1470 C   0  0  1  0  0  0  0  0  0  0  0  0
   34.7640   28.1190   49.4500 C   0  0  0  0  0  0  0  0  0  0  0  0
   34.5090   29.5360   49.8530 C   0  0  0  0  0  0  0  0  0  0  0  0
   34.2260   31.4930   49.2140 H   0  0  0  0  0  0  0  0  0  0  0  0
   34.3590   30.8680   46.6640 H   0  0  0  0  0  0  0  0  0  0  0  0
   33.0140   30.3810   47.6630 H   0  0  0  0  0  0  0  0  0  0  0  0
   33.4730   28.6440   46.3040 H   0  0  0  0  0  0  0  0  0  0  0  0
   35.2270   28.6900   46.5770 H   0  0  0  0  0  0  0  0  0  0  0  0
   34.6240   26.8570   47.7860 H   0  0  0  0  0  0  0  0  0  0  0  0
   35.8440   27.9540   49.3440 H   0  0  0  0  0  0  0  0  0  0  0  0
   34.3490   27.4710   50.2210 H   0  0  0  0  0  0  0  0  0  0  0  0
   33.3710   29.5610   49.9420 H   0  0  0  0  0  0  0  0  0  0  0  0
   34.8200   29.7910   50.8580 H   0  0  0  0  0  0  0  0  0  0  0  0
   36.9400   30.9270   47.5700 C   0  0  0  0  0  0  0  0  0  0  0  0
   36.1680   31.0250   48.7480 C   0  0  0  0  0  0  0  0  0  0  0  0
   36.7870   31.5660   49.8570 C   0  0  0  0  0  0  0  0  0  0  0  0
   38.0960   31.9740   49.7650 N   0  0  0  0  0  0  0  0  0  0  0  0
   38.7910   31.8590   48.6190 C   0  0  0  0  0  0  0  0  0  0  0  0
   38.2040   31.3360   47.5310 N   0  0  0  0  0  0  0  0  0  0  0  0
   36.5520   30.5210   46.6480 H   0  0  0  0  0  0  0  0  0  0  0  0
   36.2990   31.6920   50.8130 H   0  0  0  0  0  0  0  0  0  0  0  0
   39.8230   32.1810   48.5440 H   0  0  0  0  0  0  0  0  0  0  0  0
   32.7600   27.4310   48.4060 N   0  0  0  0  0  0  0  0  0  0  0  0
   32.5480   27.0410   49.3240 H   0  0  0  0  0  0  0  0  0  0  0  0
   31.9770   26.6340   47.1050 S   0  0  0  0  0  0  0  0  0  0  0  0
   31.2010   27.5430   46.2370 O   0  0  0  0  0  0  0  0  0  0  0  0
   30.9700   25.6790   47.7300 O   0  0  0  0  0  0  0  0  0  0  0  0
   33.0100   25.7250   46.1580 O   0  0  0  0  0  0  0  0  0  0  0  0
   32.8700   25.8690   45.1830 H   0  0  0  0  0  0  0  0  0  0  0  0
  1  7  1  1  0  0  0
  1  6  1  0  0  0  0
  2  9  1  0  0  0  0
  2  1  1  0  0  0  0
  3  2  1  0  0  0  0
  3  4  1  0  0  0  0
  4 12  1  6  0  0  0
  4 26  1  0  0  0  0
  4  5  1  0  0  0  0
  5  6  1  0  0  0  0
  5 14  1  0  0  0  0
  6 15  1  0  0  0  0
  6 16  1  0  0  0  0
  8  2  1  0  0  0  0
 10  3  1  0  0  0  0
 11  3  1  0  0  0  0
 13  5  1  0  0  0  0
 17 18  1  0  0  0  0
 18  1  1  0  0  0  0
 18 19  2  0  0  0  0
 19 24  1  0  0  0  0
 20 19  1  0  0  0  0
 21 20  2  0  0  0  0
 22 17  2  0  0  0  0
 22 21  1  0  0  0  0
 23 17  1  0  0  0  0
 25 21  1  0  0  0  0
 26 27  1  0  0  0  0
 28 30  1  0  0  0  0
 28 26  1  0  0  0  0
 29 28  1  0  0  0  0
 31 28  1  0  0  0  0
 32 31  1  0  0  0  0
M  END
>  <minimizedAffinity>
-4.41066694

>  <minimizedRMSD>
1.89925635

$$$$
