
 OpenBabel03272508183D

 23 24  0  0  0  0  0  0  0  0999 V2000
   37.7880   25.3360   34.3560 C   0  0  0  0  0  0  0  0  0  0  0  0
   38.6420   24.3650   34.8760 C   0  0  0  0  0  0  0  0  0  0  0  0
   39.1360   23.4210   33.9450 C   0  0  0  0  0  0  0  0  0  0  0  0
   38.7550   23.5230   32.6360 N   0  0  0  0  0  0  0  0  0  0  0  0
   37.9200   24.4920   32.1910 C   0  0  0  0  0  0  0  0  0  0  0  0
   37.4540   25.3830   33.0740 N   0  0  0  0  0  0  0  0  0  0  0  0
   39.7840   22.6050   34.0960 H   0  0  0  0  0  0  0  0  0  0  0  0
   37.6360   24.5520   31.1620 H   0  0  0  0  0  0  0  0  0  0  0  0
   37.3660   26.3790   35.3690 C   0  0  0  0  0  0  0  0  0  0  0  0
   38.2240   27.5110   35.6400 C   0  0  0  0  0  0  0  0  0  0  0  0
   37.0870   27.7250   34.6710 C   0  0  0  0  0  0  0  0  0  0  0  0
   36.4620   26.0990   35.9880 H   0  0  0  0  0  0  0  0  0  0  0  0
   39.2270   27.5090   35.1310 H   0  0  0  0  0  0  0  0  0  0  0  0
   38.2420   28.0520   36.6040 H   0  0  0  0  0  0  0  0  0  0  0  0
   37.2940   27.7840   33.5940 H   0  0  0  0  0  0  0  0  0  0  0  0
   36.2300   28.2820   35.0760 H   0  0  0  0  0  0  0  0  0  0  0  0
   39.0730   24.1930   36.2120 N   0  0  0  0  0  0  0  0  0  0  0  0
   40.0170   24.5070   36.5300 H   0  0  0  0  0  0  0  0  0  0  0  0
   38.4050   23.5390   37.6550 S   0  0  0  0  0  0  0  0  0  0  0  0
   37.1440   22.7870   37.3350 O   0  0  0  0  0  1  0  0  0  0  0  0
   38.0180   24.6580   38.5810 O   0  0  0  0  0  1  0  0  0  0  0  0
   39.4710   22.4610   38.3870 O   0  0  0  0  0  0  0  0  0  0  0  0
   39.6150   22.7320   39.3230 H   0  0  0  0  0  0  0  0  0  0  0  0
  1  2  1  0  0  0  0
  1  9  1  0  0  0  0
  2 17  1  0  0  0  0
  3  7  1  0  0  0  0
  3  2  2  0  0  0  0
  4  3  1  0  0  0  0
  5  4  2  0  0  0  0
  5  6  1  0  0  0  0
  6  1  2  0  0  0  0
  8  5  1  0  0  0  0
  9 10  1  0  0  0  0
  9 12  1  0  0  0  0
 10 14  1  0  0  0  0
 11 16  1  0  0  0  0
 11  9  1  0  0  0  0
 11 10  1  0  0  0  0
 13 10  1  0  0  0  0
 15 11  1  0  0  0  0
 17 18  1  0  0  0  0
 17 19  1  0  0  0  0
 19 22  1  0  0  0  0
 19 21  1  0  0  0  0
 20 19  1  0  0  0  0
 22 23  1  0  0  0  0
M  END
>  <minimizedAffinity>
-4.22802877

$$$$

 OpenBabel03272508183D

 23 24  0  0  0  0  0  0  0  0999 V2000
   39.4930   23.2890   36.8720 C   0  0  0  0  0  0  0  0  0  0  0  0
   39.9360   24.0000   35.7580 C   0  0  0  0  0  0  0  0  0  0  0  0
   41.2260   23.6610   35.2870 C   0  0  0  0  0  0  0  0  0  0  0  0
   41.9310   22.6870   35.9360 N   0  0  0  0  0  0  0  0  0  0  0  0
   41.4450   22.0290   37.0160 C   0  0  0  0  0  0  0  0  0  0  0  0
   40.2250   22.3520   37.4600 N   0  0  0  0  0  0  0  0  0  0  0  0
   41.7690   24.0550   34.4760 H   0  0  0  0  0  0  0  0  0  0  0  0
   42.0150   21.2700   37.5080 H   0  0  0  0  0  0  0  0  0  0  0  0
   38.0710   23.6160   37.2760 C   0  0  0  0  0  0  0  0  0  0  0  0
   37.5450   23.1210   38.5280 C   0  0  0  0  0  0  0  0  0  0  0  0
   38.0630   24.5380   38.5110 C   0  0  0  0  0  0  0  0  0  0  0  0
   37.4470   24.0940   36.4640 H   0  0  0  0  0  0  0  0  0  0  0  0
   38.2130   22.4280   39.1100 H   0  0  0  0  0  0  0  0  0  0  0  0
   36.4740   22.9230   38.7090 H   0  0  0  0  0  0  0  0  0  0  0  0
   39.0330   24.7700   38.9720 H   0  0  0  0  0  0  0  0  0  0  0  0
   37.2860   25.3170   38.4960 H   0  0  0  0  0  0  0  0  0  0  0  0
   39.2700   25.0210   35.0420 N   0  0  0  0  0  0  0  0  0  0  0  0
   38.4490   24.8180   34.4290 H   0  0  0  0  0  0  0  0  0  0  0  0
   39.4350   26.7240   34.8700 S   0  0  0  0  0  0  0  0  0  0  0  0
   38.6180   27.1970   33.7010 O   0  0  0  0  0  1  0  0  0  0  0  0
   40.8670   27.0620   34.5620 O   0  0  0  0  0  1  0  0  0  0  0  0
   38.8820   27.5320   36.2400 O   0  0  0  0  0  0  0  0  0  0  0  0
   39.5910   28.1300   36.5720 H   0  0  0  0  0  0  0  0  0  0  0  0
  1  9  1  0  0  0  0
  1  6  1  0  0  0  0
  2  1  2  0  0  0  0
  3  2  1  0  0  0  0
  3  4  2  0  0  0  0
  4  5  1  0  0  0  0
  5  6  2  0  0  0  0
  5  8  1  0  0  0  0
  7  3  1  0  0  0  0
  9 11  1  0  0  0  0
  9 10  1  0  0  0  0
 10 14  1  0  0  0  0
 10 13  1  0  0  0  0
 11 10  1  0  0  0  0
 11 15  1  0  0  0  0
 12  9  1  0  0  0  0
 16 11  1  0  0  0  0
 17  2  1  0  0  0  0
 18 17  1  0  0  0  0
 19 17  1  0  0  0  0
 19 22  1  0  0  0  0
 20 19  1  0  0  0  0
 21 19  1  0  0  0  0
 22 23  1  0  0  0  0
M  END
>  <minimizedAffinity>
-4.12229967

$$$$

 OpenBabel03272508183D

 23 24  0  0  0  0  0  0  0  0999 V2000
   38.2270   24.8280   35.3150 C   0  0  0  0  0  0  0  0  0  0  0  0
   38.0900   23.9480   34.2430 C   0  0  0  0  0  0  0  0  0  0  0  0
   37.9660   22.5800   34.5830 C   0  0  0  0  0  0  0  0  0  0  0  0
   37.9860   22.2240   35.9030 N   0  0  0  0  0  0  0  0  0  0  0  0
   38.1220   23.1280   36.9020 C   0  0  0  0  0  0  0  0  0  0  0  0
   38.2400   24.4210   36.5780 N   0  0  0  0  0  0  0  0  0  0  0  0
   37.8550   21.7400   33.9580 H   0  0  0  0  0  0  0  0  0  0  0  0
   38.1350   22.8260   37.9280 H   0  0  0  0  0  0  0  0  0  0  0  0
   38.2560   26.2850   34.9060 C   0  0  0  0  0  0  0  0  0  0  0  0
   38.5360   27.3050   35.8910 C   0  0  0  0  0  0  0  0  0  0  0  0
   39.6860   26.8490   35.0270 C   0  0  0  0  0  0  0  0  0  0  0  0
   37.8730   26.4910   33.8620 H   0  0  0  0  0  0  0  0  0  0  0  0
   38.6360   26.9570   36.9550 H   0  0  0  0  0  0  0  0  0  0  0  0
   38.1670   28.3450   35.8210 H   0  0  0  0  0  0  0  0  0  0  0  0
   40.4530   26.1850   35.4470 H   0  0  0  0  0  0  0  0  0  0  0  0
   39.9720   27.5470   34.2260 H   0  0  0  0  0  0  0  0  0  0  0  0
   38.0680   24.2400   32.8600 N   0  0  0  0  0  0  0  0  0  0  0  0
   38.9460   24.3110   32.2980 H   0  0  0  0  0  0  0  0  0  0  0  0
   36.8580   24.5460   31.6770 S   0  0  0  0  0  0  0  0  0  0  0  0
   36.1880   25.8590   31.9640 O   0  0  0  0  0  1  0  0  0  0  0  0
   35.7920   23.4880   31.7640 O   0  0  0  0  0  1  0  0  0  0  0  0
   37.5240   24.6380   30.1330 O   0  0  0  0  0  0  0  0  0  0  0  0
   37.0540   24.0080   29.5390 H   0  0  0  0  0  0  0  0  0  0  0  0
  1  6  1  0  0  0  0
  2  3  1  0  0  0  0
  2  1  2  0  0  0  0
  3  4  2  0  0  0  0
  4  5  1  0  0  0  0
  5  8  1  0  0  0  0
  6  5  2  0  0  0  0
  7  3  1  0  0  0  0
  9 11  1  0  0  0  0
  9  1  1  0  0  0  0
  9 10  1  0  0  0  0
 10 13  1  0  0  0  0
 11 15  1  0  0  0  0
 11 10  1  0  0  0  0
 12  9  1  0  0  0  0
 14 10  1  0  0  0  0
 16 11  1  0  0  0  0
 17  2  1  0  0  0  0
 18 17  1  0  0  0  0
 19 21  1  0  0  0  0
 19 20  1  0  0  0  0
 19 17  1  0  0  0  0
 22 19  1  0  0  0  0
 23 22  1  0  0  0  0
M  END
>  <minimizedAffinity>
-4.05861187

$$$$

 OpenBabel03272508183D

 23 24  0  0  0  0  0  0  0  0999 V2000
   38.1860   23.3000   35.9930 C   0  0  0  0  0  0  0  0  0  0  0  0
   38.8210   23.9870   34.9600 C   0  0  0  0  0  0  0  0  0  0  0  0
   38.6420   23.4490   33.6640 C   0  0  0  0  0  0  0  0  0  0  0  0
   37.8800   22.3240   33.5160 N   0  0  0  0  0  0  0  0  0  0  0  0
   37.2860   21.7000   34.5620 C   0  0  0  0  0  0  0  0  0  0  0  0
   37.4580   22.2110   35.7870 N   0  0  0  0  0  0  0  0  0  0  0  0
   39.0180   23.7840   32.7400 H   0  0  0  0  0  0  0  0  0  0  0  0
   36.6940   20.8210   34.4230 H   0  0  0  0  0  0  0  0  0  0  0  0
   38.3250   23.9700   37.3440 C   0  0  0  0  0  0  0  0  0  0  0  0
   37.8480   23.3010   38.5330 C   0  0  0  0  0  0  0  0  0  0  0  0
   39.3220   23.1950   38.2280 C   0  0  0  0  0  0  0  0  0  0  0  0
   38.6440   25.0540   37.3030 H   0  0  0  0  0  0  0  0  0  0  0  0
   37.3070   22.3280   38.3750 H   0  0  0  0  0  0  0  0  0  0  0  0
   37.5050   23.8300   39.4400 H   0  0  0  0  0  0  0  0  0  0  0  0
   39.7290   22.2580   37.8240 H   0  0  0  0  0  0  0  0  0  0  0  0
   39.9720   23.8290   38.8490 H   0  0  0  0  0  0  0  0  0  0  0  0
   39.6270   25.1460   35.0360 N   0  0  0  0  0  0  0  0  0  0  0  0
   40.6340   25.1000   35.3130 H   0  0  0  0  0  0  0  0  0  0  0  0
   39.4070   26.8290   34.7640 S   0  0  0  0  0  0  0  0  0  0  0  0
   38.3410   27.0400   33.7260 O   0  0  0  0  0  1  0  0  0  0  0  0
   40.6740   27.4190   34.2080 O   0  0  0  0  0  1  0  0  0  0  0  0
   38.9140   27.6160   36.1690 O   0  0  0  0  0  0  0  0  0  0  0  0
   39.5260   28.3670   36.3520 H   0  0  0  0  0  0  0  0  0  0  0  0
  1  9  1  0  0  0  0
  2 17  1  0  0  0  0
  2  1  2  0  0  0  0
  3  2  1  0  0  0  0
  4  3  2  0  0  0  0
  4  5  1  0  0  0  0
  5  6  2  0  0  0  0
  6  1  1  0  0  0  0
  7  3  1  0  0  0  0
  8  5  1  0  0  0  0
  9 11  1  0  0  0  0
  9 10  1  0  0  0  0
 10 14  1  0  0  0  0
 11 10  1  0  0  0  0
 11 16  1  0  0  0  0
 12  9  1  0  0  0  0
 13 10  1  0  0  0  0
 15 11  1  0  0  0  0
 17 18  1  0  0  0  0
 19 17  1  0  0  0  0
 19 22  1  0  0  0  0
 20 19  1  0  0  0  0
 21 19  1  0  0  0  0
 22 23  1  0  0  0  0
M  END
>  <minimizedAffinity>
-4.0224328

$$$$

 OpenBabel03272508183D

 23 24  0  0  0  0  0  0  0  0999 V2000
   37.9740   25.2210   34.2730 C   0  0  0  0  0  0  0  0  0  0  0  0
   37.6100   25.0490   32.9390 C   0  0  0  0  0  0  0  0  0  0  0  0
   37.4570   23.7090   32.5120 C   0  0  0  0  0  0  0  0  0  0  0  0
   37.6690   22.7010   33.4120 N   0  0  0  0  0  0  0  0  0  0  0  0
   38.0210   22.9330   34.6990 C   0  0  0  0  0  0  0  0  0  0  0  0
   38.1660   24.2010   35.1000 N   0  0  0  0  0  0  0  0  0  0  0  0
   37.1940   23.3310   31.5650 H   0  0  0  0  0  0  0  0  0  0  0  0
   38.1820   22.1290   35.3850 H   0  0  0  0  0  0  0  0  0  0  0  0
   38.0270   26.6700   34.7070 C   0  0  0  0  0  0  0  0  0  0  0  0
   38.4020   27.0040   36.0630 C   0  0  0  0  0  0  0  0  0  0  0  0
   39.4800   27.0870   35.0110 C   0  0  0  0  0  0  0  0  0  0  0  0
   37.5880   27.4020   33.9650 H   0  0  0  0  0  0  0  0  0  0  0  0
   38.5540   26.1400   36.7650 H   0  0  0  0  0  0  0  0  0  0  0  0
   38.0650   27.9170   36.5860 H   0  0  0  0  0  0  0  0  0  0  0  0
   40.2490   26.3040   34.9560 H   0  0  0  0  0  0  0  0  0  0  0  0
   39.7400   28.1070   34.6900 H   0  0  0  0  0  0  0  0  0  0  0  0
   37.3820   26.0360   31.9530 N   0  0  0  0  0  0  0  0  0  0  0  0
   38.1690   26.5170   31.4630 H   0  0  0  0  0  0  0  0  0  0  0  0
   36.0060   26.7650   31.2240 S   0  0  0  0  0  0  0  0  0  0  0  0
   35.4600   27.8340   32.1270 O   0  0  0  0  0  1  0  0  0  0  0  0
   34.9190   25.7380   31.0640 O   0  0  0  0  0  1  0  0  0  0  0  0
   36.4040   27.4900   29.7570 O   0  0  0  0  0  0  0  0  0  0  0  0
   35.8100   27.1420   29.0520 H   0  0  0  0  0  0  0  0  0  0  0  0
  1  9  1  0  0  0  0
  1  6  1  0  0  0  0
  2  1  2  0  0  0  0
  3  2  1  0  0  0  0
  3  4  2  0  0  0  0
  4  5  1  0  0  0  0
  5  6  2  0  0  0  0
  5  8  1  0  0  0  0
  7  3  1  0  0  0  0
  9 11  1  0  0  0  0
  9 10  1  0  0  0  0
 10 14  1  0  0  0  0
 10 13  1  0  0  0  0
 11 10  1  0  0  0  0
 12  9  1  0  0  0  0
 15 11  1  0  0  0  0
 16 11  1  0  0  0  0
 17  2  1  0  0  0  0
 18 17  1  0  0  0  0
 19 17  1  0  0  0  0
 19 20  1  0  0  0  0
 21 19  1  0  0  0  0
 22 19  1  0  0  0  0
 23 22  1  0  0  0  0
M  END
>  <minimizedAffinity>
-4.00292397

$$$$

 OpenBabel03272508183D

 23 24  0  0  0  0  0  0  0  0999 V2000
   39.3550   26.2840   35.0860 C   0  0  0  0  0  0  0  0  0  0  0  0
   39.6320   24.9500   35.3790 C   0  0  0  0  0  0  0  0  0  0  0  0
   40.9340   24.5060   35.0450 C   0  0  0  0  0  0  0  0  0  0  0  0
   41.8060   25.3900   34.4740 N   0  0  0  0  0  0  0  0  0  0  0  0
   41.4760   26.6780   34.2130 C   0  0  0  0  0  0  0  0  0  0  0  0
   40.2450   27.0950   34.5300 N   0  0  0  0  0  0  0  0  0  0  0  0
   41.3710   23.5560   35.1650 H   0  0  0  0  0  0  0  0  0  0  0  0
   42.1750   27.3520   33.7660 H   0  0  0  0  0  0  0  0  0  0  0  0
   37.9870   26.7360   35.5520 C   0  0  0  0  0  0  0  0  0  0  0  0
   37.5420   28.0840   35.2790 C   0  0  0  0  0  0  0  0  0  0  0  0
   37.0670   27.0000   34.3440 C   0  0  0  0  0  0  0  0  0  0  0  0
   37.4660   26.0200   36.2550 H   0  0  0  0  0  0  0  0  0  0  0  0
   38.2910   28.7690   34.7960 H   0  0  0  0  0  0  0  0  0  0  0  0
   36.8170   28.6320   35.9090 H   0  0  0  0  0  0  0  0  0  0  0  0
   37.5130   26.9090   33.3440 H   0  0  0  0  0  0  0  0  0  0  0  0
   36.0220   26.6860   34.4870 H   0  0  0  0  0  0  0  0  0  0  0  0
   38.7840   23.9790   35.9590 N   0  0  0  0  0  0  0  0  0  0  0  0
   38.1740   23.3620   35.3760 H   0  0  0  0  0  0  0  0  0  0  0  0
   38.4210   23.4420   37.5510 S   0  0  0  0  0  0  0  0  0  0  0  0
   38.0280   24.6140   38.4050 O   0  0  0  0  0  1  0  0  0  0  0  0
   39.6540   22.8480   38.1740 O   0  0  0  0  0  1  0  0  0  0  0  0
   37.1340   22.3560   37.5510 O   0  0  0  0  0  0  0  0  0  0  0  0
   37.4080   21.5280   38.0120 H   0  0  0  0  0  0  0  0  0  0  0  0
  1  2  1  0  0  0  0
  1  9  1  0  0  0  0
  2 17  1  0  0  0  0
  3  7  1  0  0  0  0
  3  2  2  0  0  0  0
  4  3  1  0  0  0  0
  5  4  2  0  0  0  0
  5  6  1  0  0  0  0
  6  1  2  0  0  0  0
  8  5  1  0  0  0  0
  9 12  1  0  0  0  0
 10  9  1  0  0  0  0
 10 14  1  0  0  0  0
 11 16  1  0  0  0  0
 11 10  1  0  0  0  0
 11  9  1  0  0  0  0
 13 10  1  0  0  0  0
 15 11  1  0  0  0  0
 17 19  1  0  0  0  0
 18 17  1  0  0  0  0
 19 22  1  0  0  0  0
 19 21  1  0  0  0  0
 19 20  1  0  0  0  0
 22 23  1  0  0  0  0
M  END
>  <minimizedAffinity>
-3.9639945

$$$$

 OpenBabel03272508183D

 23 24  0  0  0  0  0  0  0  0999 V2000
   36.8730   27.8100   33.8660 C   0  0  0  0  0  0  0  0  0  0  0  0
   36.5350   27.4850   32.5540 C   0  0  0  0  0  0  0  0  0  0  0  0
   35.4500   28.2060   32.0030 C   0  0  0  0  0  0  0  0  0  0  0  0
   34.8240   29.1480   32.7720 N   0  0  0  0  0  0  0  0  0  0  0  0
   35.2000   29.4190   34.0450 C   0  0  0  0  0  0  0  0  0  0  0  0
   36.2260   28.7350   34.5640 N   0  0  0  0  0  0  0  0  0  0  0  0
   35.0150   28.1380   31.0470 H   0  0  0  0  0  0  0  0  0  0  0  0
   34.6960   30.1600   34.6280 H   0  0  0  0  0  0  0  0  0  0  0  0
   38.1000   27.0840   34.3760 C   0  0  0  0  0  0  0  0  0  0  0  0
   38.5290   27.2650   35.7450 C   0  0  0  0  0  0  0  0  0  0  0  0
   37.7040   26.0390   35.4380 C   0  0  0  0  0  0  0  0  0  0  0  0
   38.7130   26.5730   33.5750 H   0  0  0  0  0  0  0  0  0  0  0  0
   37.9600   28.0230   36.3490 H   0  0  0  0  0  0  0  0  0  0  0  0
   39.5760   27.1600   36.0800 H   0  0  0  0  0  0  0  0  0  0  0  0
   36.6480   26.0040   35.7380 H   0  0  0  0  0  0  0  0  0  0  0  0
   38.2710   25.0980   35.3870 H   0  0  0  0  0  0  0  0  0  0  0  0
   37.1280   26.5240   31.7030 N   0  0  0  0  0  0  0  0  0  0  0  0
   37.9690   26.7450   31.1240 H   0  0  0  0  0  0  0  0  0  0  0  0
   36.8340   24.8800   31.2970 S   0  0  0  0  0  0  0  0  0  0  0  0
   35.3960   24.7050   30.8950 O   0  0  0  0  0  1  0  0  0  0  0  0
   37.0520   24.0160   32.5080 O   0  0  0  0  0  1  0  0  0  0  0  0
   37.7900   24.3910   29.9990 O   0  0  0  0  0  0  0  0  0  0  0  0
   38.2930   23.5830   30.2520 H   0  0  0  0  0  0  0  0  0  0  0  0
  1  9  1  0  0  0  0
  1  6  1  0  0  0  0
  2  1  2  0  0  0  0
  3  2  1  0  0  0  0
  3  4  2  0  0  0  0
  4  5  1  0  0  0  0
  5  6  2  0  0  0  0
  5  8  1  0  0  0  0
  7  3  1  0  0  0  0
  9 11  1  0  0  0  0
  9 10  1  0  0  0  0
 10 14  1  0  0  0  0
 10 13  1  0  0  0  0
 11 15  1  0  0  0  0
 11 10  1  0  0  0  0
 12  9  1  0  0  0  0
 16 11  1  0  0  0  0
 17  2  1  0  0  0  0
 18 17  1  0  0  0  0
 19 17  1  0  0  0  0
 19 21  1  0  0  0  0
 20 19  1  0  0  0  0
 22 23  1  0  0  0  0
 22 19  1  0  0  0  0
M  END
>  <minimizedAffinity>
-3.8101759

$$$$

 OpenBabel03272508183D

 23 24  0  0  0  0  0  0  0  0999 V2000
   40.6190   24.6820   34.3730 C   0  0  0  0  0  0  0  0  0  0  0  0
   39.7950   23.9080   35.1880 C   0  0  0  0  0  0  0  0  0  0  0  0
   39.7470   22.5280   34.8800 C   0  0  0  0  0  0  0  0  0  0  0  0
   40.4930   22.0590   33.8340 N   0  0  0  0  0  0  0  0  0  0  0  0
   41.2770   22.8640   33.0770 C   0  0  0  0  0  0  0  0  0  0  0  0
   41.3190   24.1690   33.3700 N   0  0  0  0  0  0  0  0  0  0  0  0
   39.2040   21.7550   35.3430 H   0  0  0  0  0  0  0  0  0  0  0  0
   41.8520   22.4750   32.2640 H   0  0  0  0  0  0  0  0  0  0  0  0
   40.7130   26.1300   34.8030 C   0  0  0  0  0  0  0  0  0  0  0  0
   41.3580   27.0980   33.9440 C   0  0  0  0  0  0  0  0  0  0  0  0
   39.8520   27.0210   33.8860 C   0  0  0  0  0  0  0  0  0  0  0  0
   40.4180   26.3240   35.8770 H   0  0  0  0  0  0  0  0  0  0  0  0
   41.8440   26.6930   33.0150 H   0  0  0  0  0  0  0  0  0  0  0  0
   41.8540   28.0140   34.3140 H   0  0  0  0  0  0  0  0  0  0  0  0
   39.3640   26.5360   33.0300 H   0  0  0  0  0  0  0  0  0  0  0  0
   39.3250   27.8360   34.4040 H   0  0  0  0  0  0  0  0  0  0  0  0
   38.9930   24.3210   36.2770 N   0  0  0  0  0  0  0  0  0  0  0  0
   38.6150   25.2930   36.3450 H   0  0  0  0  0  0  0  0  0  0  0  0
   38.3710   23.5920   37.7040 S   0  0  0  0  0  0  0  0  0  0  0  0
   37.1210   22.8240   37.3780 O   0  0  0  0  0  1  0  0  0  0  0  0
   37.9770   24.6620   38.6850 O   0  0  0  0  0  1  0  0  0  0  0  0
   39.4770   22.5100   38.3690 O   0  0  0  0  0  0  0  0  0  0  0  0
   39.6340   22.7450   39.3130 H   0  0  0  0  0  0  0  0  0  0  0  0
  1  9  1  0  0  0  0
  1  2  1  0  0  0  0
  2 17  1  0  0  0  0
  3  2  2  0  0  0  0
  3  7  1  0  0  0  0
  4  3  1  0  0  0  0
  5  6  1  0  0  0  0
  5  4  2  0  0  0  0
  6  1  2  0  0  0  0
  8  5  1  0  0  0  0
  9 12  1  0  0  0  0
 10 14  1  0  0  0  0
 10  9  1  0  0  0  0
 11 10  1  0  0  0  0
 11 16  1  0  0  0  0
 11  9  1  0  0  0  0
 13 10  1  0  0  0  0
 15 11  1  0  0  0  0
 17 18  1  0  0  0  0
 17 19  1  0  0  0  0
 19 22  1  0  0  0  0
 19 21  1  0  0  0  0
 20 19  1  0  0  0  0
 22 23  1  0  0  0  0
M  END
>  <minimizedAffinity>
-3.79352331

$$$$

 OpenBabel03272508183D

 23 24  0  0  0  0  0  0  0  0999 V2000
   36.2510   22.6430   32.1710 C   0  0  0  0  0  0  0  0  0  0  0  0
   37.3010   23.1840   32.9110 C   0  0  0  0  0  0  0  0  0  0  0  0
   37.6060   24.5390   32.6440 C   0  0  0  0  0  0  0  0  0  0  0  0
   36.8710   25.2090   31.7050 N   0  0  0  0  0  0  0  0  0  0  0  0
   35.8600   24.6260   31.0170 C   0  0  0  0  0  0  0  0  0  0  0  0
   35.5740   23.3440   31.2710 N   0  0  0  0  0  0  0  0  0  0  0  0
   38.3460   25.1570   33.0670 H   0  0  0  0  0  0  0  0  0  0  0  0
   35.2990   25.1700   30.2870 H   0  0  0  0  0  0  0  0  0  0  0  0
   35.8990   21.2240   32.5620 C   0  0  0  0  0  0  0  0  0  0  0  0
   34.7520   20.5750   31.9690 C   0  0  0  0  0  0  0  0  0  0  0  0
   36.1020   20.2700   31.3680 C   0  0  0  0  0  0  0  0  0  0  0  0
   36.4750   20.8210   33.4490 H   0  0  0  0  0  0  0  0  0  0  0  0
   34.1160   21.2090   31.2920 H   0  0  0  0  0  0  0  0  0  0  0  0
   34.1720   19.7760   32.4660 H   0  0  0  0  0  0  0  0  0  0  0  0
   36.3860   20.7220   30.4080 H   0  0  0  0  0  0  0  0  0  0  0  0
   36.5180   19.2870   31.6340 H   0  0  0  0  0  0  0  0  0  0  0  0
   38.1070   22.5550   33.8880 N   0  0  0  0  0  0  0  0  0  0  0  0
   38.9290   21.9660   33.6270 H   0  0  0  0  0  0  0  0  0  0  0  0
   38.1360   22.4740   35.6050 S   0  0  0  0  0  0  0  0  0  0  0  0
   37.9300   23.8460   36.1820 O   0  0  0  0  0  1  0  0  0  0  0  0
   39.4920   22.0120   36.0630 O   0  0  0  0  0  1  0  0  0  0  0  0
   36.9060   21.4830   36.1900 O   0  0  0  0  0  0  0  0  0  0  0  0
   37.2950   20.7960   36.7790 H   0  0  0  0  0  0  0  0  0  0  0  0
  1  9  1  0  0  0  0
  1  2  1  0  0  0  0
  2 17  1  0  0  0  0
  3  2  2  0  0  0  0
  3  7  1  0  0  0  0
  4  3  1  0  0  0  0
  5  6  1  0  0  0  0
  5  4  2  0  0  0  0
  6  1  2  0  0  0  0
  8  5  1  0  0  0  0
  9 12  1  0  0  0  0
 10 14  1  0  0  0  0
 10  9  1  0  0  0  0
 11 16  1  0  0  0  0
 11 10  1  0  0  0  0
 11  9  1  0  0  0  0
 13 10  1  0  0  0  0
 15 11  1  0  0  0  0
 17 19  1  0  0  0  0
 18 17  1  0  0  0  0
 19 21  1  0  0  0  0
 19 20  1  0  0  0  0
 19 22  1  0  0  0  0
 22 23  1  0  0  0  0
M  END
>  <minimizedAffinity>
-3.75532866

$$$$
