
 OpenBabel03272510153D

 26 27  0  0  0  0  0  0  0  0999 V2000
   37.4670   29.2170   50.9200 Br  0  0  0  0  0  0  0  0  0  0  0  0
   36.0240   29.3020   49.6840 C   0  0  0  0  0  0  0  0  0  0  0  0
   35.9830   30.2690   48.7040 C   0  0  0  0  0  0  0  0  0  0  0  0
   34.9010   30.2640   47.8440 C   0  0  0  0  0  0  0  0  0  0  0  0
   33.8710   29.3410   47.9240 C   0  0  0  0  0  0  0  0  0  0  0  0
   33.9410   28.3910   48.9090 C   0  0  0  0  0  0  0  0  0  0  0  0
   35.0200   28.3770   49.7860 C   0  0  0  0  0  0  0  0  0  0  0  0
   34.8760   31.0380   47.0680 H   0  0  0  0  0  0  0  0  0  0  0  0
   33.1310   27.6750   48.9620 H   0  0  0  0  0  0  0  0  0  0  0  0
   34.9890   27.5870   50.5330 H   0  0  0  0  0  0  0  0  0  0  0  0
   38.0190   33.2070   49.4240 C   0  0  0  0  0  0  0  0  0  0  0  0
   39.0350   33.1710   48.4320 C   0  0  0  0  0  0  0  0  0  0  0  0
   38.9900   32.1210   47.5290 C   0  0  0  0  0  0  0  0  0  0  0  0
   37.9950   31.1780   47.6210 N   0  0  0  0  0  0  0  0  0  0  0  0
   37.0480   31.2590   48.5880 C   0  0  0  0  0  0  0  0  0  0  0  0
   37.0620   32.2760   49.4910 N   0  0  0  0  0  0  0  0  0  0  0  0
   37.9770   33.9940   50.1720 H   0  0  0  0  0  0  0  0  0  0  0  0
   39.7740   33.9520   48.4360 H   0  0  0  0  0  0  0  0  0  0  0  0
   39.7510   32.0810   46.7720 H   0  0  0  0  0  0  0  0  0  0  0  0
   32.8210   29.4700   46.9580 N   0  0  0  0  0  0  0  0  0  0  0  0
   31.9630   29.7910   47.4120 H   0  0  0  0  0  0  0  0  0  0  0  0
   33.0030   29.1260   45.2760 S   0  0  0  0  0  0  0  0  0  0  0  0
   33.4760   30.3390   44.5580 O   0  0  0  0  0  1  0  0  0  0  0  0
   34.0800   28.0600   45.1400 O   0  0  0  0  0  1  0  0  0  0  0  0
   31.6140   28.4640   44.6050 O   0  0  0  0  0  0  0  0  0  0  0  0
   31.0050   29.2190   44.3760 H   0  0  0  0  0  0  0  0  0  0  0  0
  2  7  1  0  0  0  0
  2  1  1  0  0  0  0
  3  2  2  0  0  0  0
  4  5  2  0  0  0  0
  4  3  1  0  0  0  0
  5  6  1  0  0  0  0
  6  9  1  0  0  0  0
  6  7  2  0  0  0  0
  7 10  1  0  0  0  0
  8  4  1  0  0  0  0
 11 16  1  0  0  0  0
 11 17  1  0  0  0  0
 12 18  1  0  0  0  0
 12 11  2  0  0  0  0
 13 14  2  0  0  0  0
 13 12  1  0  0  0  0
 14 15  1  0  0  0  0
 15  3  1  0  0  0  0
 15 16  2  0  0  0  0
 19 13  1  0  0  0  0
 20 21  1  0  0  0  0
 20  5  1  0  0  0  0
 22 20  1  0  0  0  0
 23 22  1  0  0  0  0
 24 22  1  0  0  0  0
 25 22  1  0  0  0  0
 26 25  1  0  0  0  0
M  END
>  <minimizedAffinity>
-5.37029266

>  <minimizedRMSD>
0.912251413

$$$$
