
 OpenBabel03272509103D

 38 40  0  0  0  0  0  0  0  0999 V2000
   35.2680   29.6390   33.2870 C   0  0  0  0  0  0  0  0  0  0  0  0
   35.6830   30.3900   32.5500 H   0  0  0  0  0  0  0  0  0  0  0  0
   34.3750   29.2390   32.7930 H   0  0  0  0  0  0  0  0  0  0  0  0
   34.9860   30.4380   34.5010 C   0  0  0  0  0  0  0  0  0  0  0  0
   35.8580   31.3380   35.0540 C   0  0  0  0  0  0  0  0  0  0  0  0
   35.5940   32.0690   36.1790 C   0  0  0  0  0  0  0  0  0  0  0  0
   34.3710   31.9100   36.8190 C   0  0  0  0  0  0  0  0  0  0  0  0
   33.4870   31.0280   36.2950 C   0  0  0  0  0  0  0  0  0  0  0  0
   33.7890   30.3170   35.1720 C   0  0  0  0  0  0  0  0  0  0  0  0
   36.8240   31.4940   34.5870 H   0  0  0  0  0  0  0  0  0  0  0  0
   36.3390   32.7700   36.5640 H   0  0  0  0  0  0  0  0  0  0  0  0
   34.2000   32.5080   37.7060 H   0  0  0  0  0  0  0  0  0  0  0  0
   32.5650   30.9540   36.8400 H   0  0  0  0  0  0  0  0  0  0  0  0
   32.8510   29.3940   34.6370 N   0  0  0  0  0  0  0  0  0  0  0  0
   32.7850   28.3960   34.9530 H   0  0  0  0  0  0  0  0  0  0  0  0
   31.6170   29.4700   33.4440 S   0  0  0  0  0  0  0  0  0  0  0  0
   31.9140   30.4840   32.3600 O   0  0  0  0  0  1  0  0  0  0  0  0
   30.2890   29.8100   34.0550 O   0  0  0  0  0  1  0  0  0  0  0  0
   31.4900   27.9830   32.6300 O   0  0  0  0  0  0  0  0  0  0  0  0
   30.7380   27.5010   33.0470 H   0  0  0  0  0  0  0  0  0  0  0  0
   36.5030   27.8660   34.5160 C   0  0  0  0  0  3  0  0  0  0  0  0
   36.3500   28.6550   33.4810 C   0  0  0  0  0  3  0  0  0  0  0  0
   39.6040   26.1660   33.5750 C   0  0  0  0  0  0  0  0  0  0  0  0
   39.7400   25.2200   34.6100 C   0  0  0  0  0  0  0  0  0  0  0  0
   38.7510   25.1940   35.6150 C   0  0  0  0  0  0  0  0  0  0  0  0
   37.6960   26.0880   35.5450 N   0  0  0  0  0  0  0  0  0  0  0  0
   37.6510   26.9570   34.5160 C   0  0  0  0  0  0  0  0  0  0  0  0
   38.5760   27.0090   33.5420 N   0  0  0  0  0  0  0  0  0  0  0  0
   40.3940   26.1370   32.8350 H   0  0  0  0  0  0  0  0  0  0  0  0
   40.5450   24.5010   34.7090 H   0  0  0  0  0  0  0  0  0  0  0  0
   38.7810   24.2540   36.7450 C   0  0  0  0  0  0  0  0  0  0  0  0
   37.9120   24.3380   37.8040 C   0  0  0  0  0  0  0  0  0  0  0  0
   38.2220   23.2940   38.6860 C   0  0  0  0  0  0  0  0  0  0  0  0
   39.2700   22.6230   38.1180 N   0  0  0  0  0  0  0  0  0  0  0  0
   39.5900   23.2060   36.9660 N   0  0  0  0  0  0  0  0  0  0  0  0
   37.1160   25.0720   37.9570 H   0  0  0  0  0  0  0  0  0  0  0  0
   37.7370   23.0610   39.6230 H   0  0  0  0  0  0  0  0  0  0  0  0
   39.7690   21.7780   38.4990 H   0  0  0  0  0  0  0  0  0  0  0  0
  1 22  1  0  0  0  0
  1  4  1  0  0  0  0
  2  1  1  0  0  0  0
  3  1  1  0  0  0  0
  4  5  2  0  0  0  0
  4  9  1  0  0  0  0
  5  6  1  0  0  0  0
  6 11  1  0  0  0  0
  6  7  2  0  0  0  0
  7 12  1  0  0  0  0
  8  7  1  0  0  0  0
  8 13  1  0  0  0  0
  9  8  2  0  0  0  0
 10  5  1  0  0  0  0
 14 15  1  0  0  0  0
 14  9  1  0  0  0  0
 16 18  1  0  0  0  0
 16 14  1  0  0  0  0
 17 16  1  0  0  0  0
 19 20  1  0  0  0  0
 19 16  1  0  0  0  0
 22 21  2  0  0  0  0
 23 24  1  0  0  0  0
 24 30  1  0  0  0  0
 24 25  2  0  0  0  0
 25 31  1  0  0  0  0
 26 25  1  0  0  0  0
 27 21  1  0  0  0  0
 27 26  2  0  0  0  0
 28 23  2  0  0  0  0
 28 27  1  0  0  0  0
 29 23  1  0  0  0  0
 31 35  2  0  0  0  0
 31 32  1  0  0  0  0
 32 36  1  0  0  0  0
 32 33  2  0  0  0  0
 33 37  1  0  0  0  0
 34 38  1  0  0  0  0
 34 33  1  0  0  0  0
 35 34  1  0  0  0  0
M  END
>  <minimizedAffinity>
-6.24371672

$$$$

 OpenBabel03272509103D

 38 40  0  0  0  0  0  0  0  0999 V2000
   37.8020   25.8330   34.6320 C   0  0  0  0  0  0  0  0  0  0  0  0
   37.4980   25.6060   35.6980 H   0  0  0  0  0  0  0  0  0  0  0  0
   37.3550   25.0230   34.0440 H   0  0  0  0  0  0  0  0  0  0  0  0
   39.2820   25.8170   34.6640 C   0  0  0  0  0  0  0  0  0  0  0  0
   40.0780   26.8090   34.1540 C   0  0  0  0  0  0  0  0  0  0  0  0
   41.4440   26.7860   34.1820 C   0  0  0  0  0  0  0  0  0  0  0  0
   42.0930   25.7010   34.7590 C   0  0  0  0  0  0  0  0  0  0  0  0
   41.3330   24.7050   35.2740 C   0  0  0  0  0  0  0  0  0  0  0  0
   39.9720   24.7650   35.2250 C   0  0  0  0  0  0  0  0  0  0  0  0
   39.6130   27.6740   33.6940 H   0  0  0  0  0  0  0  0  0  0  0  0
   42.0150   27.6140   33.7540 H   0  0  0  0  0  0  0  0  0  0  0  0
   43.1750   25.7210   34.7630 H   0  0  0  0  0  0  0  0  0  0  0  0
   41.8980   23.8990   35.7020 H   0  0  0  0  0  0  0  0  0  0  0  0
   39.1900   23.7100   35.7670 N   0  0  0  0  0  0  0  0  0  0  0  0
   38.9610   22.8350   35.2360 H   0  0  0  0  0  0  0  0  0  0  0  0
   38.4030   23.4280   37.2680 S   0  0  0  0  0  0  0  0  0  0  0  0
   37.1170   22.6450   37.1160 O   0  0  0  0  0  1  0  0  0  0  0  0
   38.0890   24.7170   37.9700 O   0  0  0  0  0  1  0  0  0  0  0  0
   39.3810   22.4710   38.2770 O   0  0  0  0  0  0  0  0  0  0  0  0
   39.8350   23.0920   38.8950 H   0  0  0  0  0  0  0  0  0  0  0  0
   36.6350   27.5400   33.2530 C   0  0  0  0  0  3  0  0  0  0  0  0
   37.2450   27.1700   34.3510 C   0  0  0  0  0  3  0  0  0  0  0  0
   35.7130   30.8420   31.9720 C   0  0  0  0  0  0  0  0  0  0  0  0
   35.2440   31.4820   33.1370 C   0  0  0  0  0  0  0  0  0  0  0  0
   35.2570   30.7520   34.3430 C   0  0  0  0  0  0  0  0  0  0  0  0
   35.7260   29.4490   34.3360 N   0  0  0  0  0  0  0  0  0  0  0  0
   36.1550   28.9210   33.1720 C   0  0  0  0  0  0  0  0  0  0  0  0
   36.1560   29.5880   32.0060 N   0  0  0  0  0  0  0  0  0  0  0  0
   35.6770   31.4540   31.0800 H   0  0  0  0  0  0  0  0  0  0  0  0
   34.8680   32.4970   33.1930 H   0  0  0  0  0  0  0  0  0  0  0  0
   34.7960   31.3100   35.6220 C   0  0  0  0  0  0  0  0  0  0  0  0
   33.4950   31.2130   36.0480 C   0  0  0  0  0  0  0  0  0  0  0  0
   33.4120   31.8460   37.2950 C   0  0  0  0  0  0  0  0  0  0  0  0
   34.6730   32.3000   37.5680 N   0  0  0  0  0  0  0  0  0  0  0  0
   35.4830   31.9740   36.5650 N   0  0  0  0  0  0  0  0  0  0  0  0
   32.6570   30.7360   35.5310 H   0  0  0  0  0  0  0  0  0  0  0  0
   32.5360   31.9570   37.9180 H   0  0  0  0  0  0  0  0  0  0  0  0
   34.9910   32.8260   38.4240 H   0  0  0  0  0  0  0  0  0  0  0  0
  1  4  1  0  0  0  0
  1  2  1  0  0  0  0
  3  1  1  0  0  0  0
  4  9  1  0  0  0  0
  5  6  1  0  0  0  0
  5  4  2  0  0  0  0
  6  7  2  0  0  0  0
  7 12  1  0  0  0  0
  7  8  1  0  0  0  0
  8 13  1  0  0  0  0
  9  8  2  0  0  0  0
  9 14  1  0  0  0  0
 10  5  1  0  0  0  0
 11  6  1  0  0  0  0
 14 16  1  0  0  0  0
 15 14  1  0  0  0  0
 16 18  1  0  0  0  0
 16 19  1  0  0  0  0
 17 16  1  0  0  0  0
 19 20  1  0  0  0  0
 21 22  2  0  0  0  0
 22  1  1  0  0  0  0
 23 28  2  0  0  0  0
 23 24  1  0  0  0  0
 24 30  1  0  0  0  0
 24 25  2  0  0  0  0
 25 31  1  0  0  0  0
 26 25  1  0  0  0  0
 27 21  1  0  0  0  0
 27 26  2  0  0  0  0
 28 27  1  0  0  0  0
 29 23  1  0  0  0  0
 31 32  1  0  0  0  0
 31 35  2  0  0  0  0
 32 33  2  0  0  0  0
 33 34  1  0  0  0  0
 33 37  1  0  0  0  0
 34 38  1  0  0  0  0
 35 34  1  0  0  0  0
 36 32  1  0  0  0  0
M  END
>  <minimizedAffinity>
-6.16392183

$$$$

 OpenBabel03272509103D

 38 40  0  0  0  0  0  0  0  0999 V2000
   38.5320   27.1040   35.8290 C   0  0  0  0  0  0  0  0  0  0  0  0
   39.0590   27.8700   36.4720 H   0  0  0  0  0  0  0  0  0  0  0  0
   37.8970   26.5520   36.5310 H   0  0  0  0  0  0  0  0  0  0  0  0
   39.6310   26.3030   35.2430 C   0  0  0  0  0  0  0  0  0  0  0  0
   40.6890   26.8310   34.5520 C   0  0  0  0  0  0  0  0  0  0  0  0
   41.6990   26.0860   34.0080 C   0  0  0  0  0  0  0  0  0  0  0  0
   41.6750   24.7050   34.1530 C   0  0  0  0  0  0  0  0  0  0  0  0
   40.6410   24.1530   34.8320 C   0  0  0  0  0  0  0  0  0  0  0  0
   39.6530   24.9300   35.3580 C   0  0  0  0  0  0  0  0  0  0  0  0
   40.7480   27.9050   34.4160 H   0  0  0  0  0  0  0  0  0  0  0  0
   42.5130   26.5770   33.4690 H   0  0  0  0  0  0  0  0  0  0  0  0
   42.4920   24.1500   33.7090 H   0  0  0  0  0  0  0  0  0  0  0  0
   40.6850   23.0820   34.9040 H   0  0  0  0  0  0  0  0  0  0  0  0
   38.5750   24.3350   36.0660 N   0  0  0  0  0  0  0  0  0  0  0  0
   37.6040   24.2630   35.6760 H   0  0  0  0  0  0  0  0  0  0  0  0
   38.3940   23.5920   37.6040 S   0  0  0  0  0  0  0  0  0  0  0  0
   37.9980   24.5760   38.6850 O   0  0  0  0  0  1  0  0  0  0  0  0
   39.6600   22.9080   38.0320 O   0  0  0  0  0  1  0  0  0  0  0  0
   37.1330   22.4530   37.5660 O   0  0  0  0  0  0  0  0  0  0  0  0
   37.5580   21.5720   37.4470 H   0  0  0  0  0  0  0  0  0  0  0  0
   36.4990   27.8520   34.6100 C   0  0  0  0  0  3  0  0  0  0  0  0
   37.7910   27.8900   34.8250 C   0  0  0  0  0  3  0  0  0  0  0  0
   34.4410   30.2880   32.8140 C   0  0  0  0  0  0  0  0  0  0  0  0
   35.0310   30.2750   31.5340 C   0  0  0  0  0  0  0  0  0  0  0  0
   36.1320   29.4210   31.3230 C   0  0  0  0  0  0  0  0  0  0  0  0
   36.5860   28.6360   32.3680 N   0  0  0  0  0  0  0  0  0  0  0  0
   35.9580   28.7160   33.5590 C   0  0  0  0  0  0  0  0  0  0  0  0
   34.9070   29.5190   33.7940 N   0  0  0  0  0  0  0  0  0  0  0  0
   33.6010   30.9640   32.9140 H   0  0  0  0  0  0  0  0  0  0  0  0
   34.7130   30.8700   30.6850 H   0  0  0  0  0  0  0  0  0  0  0  0
   36.8300   29.3180   30.0320 C   0  0  0  0  0  0  0  0  0  0  0  0
   37.2790   30.4160   29.3420 C   0  0  0  0  0  0  0  0  0  0  0  0
   37.8900   29.9530   28.1690 C   0  0  0  0  0  0  0  0  0  0  0  0
   37.7810   28.5900   28.2020 N   0  0  0  0  0  0  0  0  0  0  0  0
   37.1480   28.2290   29.3150 N   0  0  0  0  0  0  0  0  0  0  0  0
   37.1920   31.4670   29.6300 H   0  0  0  0  0  0  0  0  0  0  0  0
   38.3530   30.5450   27.3930 H   0  0  0  0  0  0  0  0  0  0  0  0
   38.1290   27.9040   27.4840 H   0  0  0  0  0  0  0  0  0  0  0  0
  1  2  1  0  0  0  0
  1  3  1  0  0  0  0
  4  9  1  0  0  0  0
  4  1  1  0  0  0  0
  5  4  2  0  0  0  0
  6  7  2  0  0  0  0
  6  5  1  0  0  0  0
  7  8  1  0  0  0  0
  8 13  1  0  0  0  0
  8  9  2  0  0  0  0
  9 14  1  0  0  0  0
 10  5  1  0  0  0  0
 11  6  1  0  0  0  0
 12  7  1  0  0  0  0
 14 16  1  0  0  0  0
 15 14  1  0  0  0  0
 16 18  1  0  0  0  0
 16 17  1  0  0  0  0
 19 16  1  0  0  0  0
 20 19  1  0  0  0  0
 21 22  2  0  0  0  0
 22  1  1  0  0  0  0
 23 29  1  0  0  0  0
 23 28  1  0  0  0  0
 24 23  2  0  0  0  0
 25 24  1  0  0  0  0
 25 26  2  0  0  0  0
 26 27  1  0  0  0  0
 27 28  2  0  0  0  0
 27 21  1  0  0  0  0
 30 24  1  0  0  0  0
 31 25  1  0  0  0  0
 32 36  1  0  0  0  0
 32 31  1  0  0  0  0
 33 34  1  0  0  0  0
 33 32  2  0  0  0  0
 34 35  1  0  0  0  0
 35 31  2  0  0  0  0
 37 33  1  0  0  0  0
 38 34  1  0  0  0  0
M  END
>  <minimizedAffinity>
-5.99620295

$$$$

 OpenBabel03272509103D

 38 40  0  0  0  0  0  0  0  0999 V2000
   34.9200   29.7870   34.1590 C   0  0  0  0  0  0  0  0  0  0  0  0
   34.0040   29.6330   33.5140 H   0  0  0  0  0  0  0  0  0  0  0  0
   34.5160   29.9730   35.1610 H   0  0  0  0  0  0  0  0  0  0  0  0
   35.6010   30.9520   33.5510 C   0  0  0  0  0  0  0  0  0  0  0  0
   35.9990   31.0180   32.2420 C   0  0  0  0  0  0  0  0  0  0  0  0
   36.6330   32.0950   31.6870 C   0  0  0  0  0  0  0  0  0  0  0  0
   36.9020   33.2050   32.4780 C   0  0  0  0  0  0  0  0  0  0  0  0
   36.5200   33.1700   33.7770 C   0  0  0  0  0  0  0  0  0  0  0  0
   35.8910   32.0760   34.2930 C   0  0  0  0  0  0  0  0  0  0  0  0
   35.8090   30.1740   31.5890 H   0  0  0  0  0  0  0  0  0  0  0  0
   36.9230   32.0770   30.6330 H   0  0  0  0  0  0  0  0  0  0  0  0
   37.4050   34.0380   32.0020 H   0  0  0  0  0  0  0  0  0  0  0  0
   36.7590   34.0590   34.3300 H   0  0  0  0  0  0  0  0  0  0  0  0
   35.4980   32.0550   35.6580 N   0  0  0  0  0  0  0  0  0  0  0  0
   36.1330   31.7430   36.4320 H   0  0  0  0  0  0  0  0  0  0  0  0
   34.0660   32.4570   36.5170 S   0  0  0  0  0  0  0  0  0  0  0  0
   33.2970   31.2360   36.9760 O   0  0  0  0  0  1  0  0  0  0  0  0
   33.1490   33.3040   35.6830 O   0  0  0  0  0  1  0  0  0  0  0  0
   34.4500   33.2950   37.9450 O   0  0  0  0  0  0  0  0  0  0  0  0
   34.3240   34.2530   37.7480 H   0  0  0  0  0  0  0  0  0  0  0  0
   36.6860   28.1610   34.8000 C   0  0  0  0  0  3  0  0  0  0  0  0
   35.6910   28.5360   34.0350 C   0  0  0  0  0  3  0  0  0  0  0  0
   38.1330   25.3130   33.0130 C   0  0  0  0  0  0  0  0  0  0  0  0
   38.5100   24.4680   34.0750 C   0  0  0  0  0  0  0  0  0  0  0  0
   38.2550   24.9060   35.3910 C   0  0  0  0  0  0  0  0  0  0  0  0
   37.6500   26.1360   35.5860 N   0  0  0  0  0  0  0  0  0  0  0  0
   37.3240   26.8760   34.5070 C   0  0  0  0  0  0  0  0  0  0  0  0
   37.5530   26.4890   33.2410 N   0  0  0  0  0  0  0  0  0  0  0  0
   38.3550   24.9220   32.0280 H   0  0  0  0  0  0  0  0  0  0  0  0
   38.9860   23.4990   33.9750 H   0  0  0  0  0  0  0  0  0  0  0  0
   38.6010   24.1140   36.5810 C   0  0  0  0  0  0  0  0  0  0  0  0
   38.0320   24.3350   37.8100 C   0  0  0  0  0  0  0  0  0  0  0  0
   38.5870   23.4080   38.7020 C   0  0  0  0  0  0  0  0  0  0  0  0
   39.4710   22.6650   37.9690 N   0  0  0  0  0  0  0  0  0  0  0  0
   39.4670   23.0980   36.7110 N   0  0  0  0  0  0  0  0  0  0  0  0
   37.2820   25.0870   38.0730 H   0  0  0  0  0  0  0  0  0  0  0  0
   38.3660   23.2970   39.7540 H   0  0  0  0  0  0  0  0  0  0  0  0
   40.0740   21.8720   38.3080 H   0  0  0  0  0  0  0  0  0  0  0  0
  1  3  1  0  0  0  0
  2  1  1  0  0  0  0
  4  1  1  0  0  0  0
  4  9  1  0  0  0  0
  5  4  2  0  0  0  0
  6  5  1  0  0  0  0
  6  7  2  0  0  0  0
  7  8  1  0  0  0  0
  8  9  2  0  0  0  0
  8 13  1  0  0  0  0
  9 14  1  0  0  0  0
 10  5  1  0  0  0  0
 11  6  1  0  0  0  0
 12  7  1  0  0  0  0
 14 15  1  0  0  0  0
 14 16  1  0  0  0  0
 16 17  1  0  0  0  0
 16 19  1  0  0  0  0
 18 16  1  0  0  0  0
 20 19  1  0  0  0  0
 22  1  1  0  0  0  0
 22 21  2  0  0  0  0
 23 28  2  0  0  0  0
 23 24  1  0  0  0  0
 24 25  2  0  0  0  0
 25 26  1  0  0  0  0
 25 31  1  0  0  0  0
 27 21  1  0  0  0  0
 27 26  2  0  0  0  0
 28 27  1  0  0  0  0
 29 23  1  0  0  0  0
 30 24  1  0  0  0  0
 31 35  2  0  0  0  0
 31 32  1  0  0  0  0
 32 36  1  0  0  0  0
 32 33  2  0  0  0  0
 33 37  1  0  0  0  0
 34 38  1  0  0  0  0
 34 33  1  0  0  0  0
 35 34  1  0  0  0  0
M  END
>  <minimizedAffinity>
-5.74613428

$$$$

 OpenBabel03272509103D

 38 40  0  0  0  0  0  0  0  0999 V2000
   38.5490   26.6330   34.4200 C   0  0  0  0  0  0  0  0  0  0  0  0
   38.8130   26.3640   33.3530 H   0  0  0  0  0  0  0  0  0  0  0  0
   39.4270   27.1740   34.7890 H   0  0  0  0  0  0  0  0  0  0  0  0
   38.3170   25.3270   35.0770 C   0  0  0  0  0  0  0  0  0  0  0  0
   38.2080   25.1520   36.4320 C   0  0  0  0  0  0  0  0  0  0  0  0
   37.9990   23.9420   37.0340 C   0  0  0  0  0  0  0  0  0  0  0  0
   37.8860   22.8040   36.2460 C   0  0  0  0  0  0  0  0  0  0  0  0
   37.9890   22.9450   34.9030 C   0  0  0  0  0  0  0  0  0  0  0  0
   38.1980   24.1690   34.3410 C   0  0  0  0  0  0  0  0  0  0  0  0
   38.2900   26.0140   37.0840 H   0  0  0  0  0  0  0  0  0  0  0  0
   37.9220   23.8780   38.1220 H   0  0  0  0  0  0  0  0  0  0  0  0
   37.7200   21.8650   36.7600 H   0  0  0  0  0  0  0  0  0  0  0  0
   37.8930   22.0260   34.3560 H   0  0  0  0  0  0  0  0  0  0  0  0
   38.3060   24.2990   32.9300 N   0  0  0  0  0  0  0  0  0  0  0  0
   39.2100   24.5060   32.4420 H   0  0  0  0  0  0  0  0  0  0  0  0
   37.2080   24.1960   31.6140 S   0  0  0  0  0  0  0  0  0  0  0  0
   35.9080   24.9270   31.8780 O   0  0  0  0  0  1  0  0  0  0  0  0
   36.8850   22.7680   31.2820 O   0  0  0  0  0  1  0  0  0  0  0  0
   37.8620   24.9520   30.2390 O   0  0  0  0  0  0  0  0  0  0  0  0
   38.2400   24.2330   29.6800 H   0  0  0  0  0  0  0  0  0  0  0  0
   36.8530   28.0030   33.2270 C   0  0  0  0  0  3  0  0  0  0  0  0
   37.3270   27.4530   34.3170 C   0  0  0  0  0  3  0  0  0  0  0  0
   33.5490   29.4210   32.5430 C   0  0  0  0  0  0  0  0  0  0  0  0
   33.3720   30.2830   33.6440 C   0  0  0  0  0  0  0  0  0  0  0  0
   34.4040   30.3520   34.6010 C   0  0  0  0  0  0  0  0  0  0  0  0
   35.5390   29.5800   34.4250 N   0  0  0  0  0  0  0  0  0  0  0  0
   35.6200   28.7850   33.3390 C   0  0  0  0  0  0  0  0  0  0  0  0
   34.6550   28.6950   32.4080 N   0  0  0  0  0  0  0  0  0  0  0  0
   32.7220   29.4120   31.8440 H   0  0  0  0  0  0  0  0  0  0  0  0
   32.5030   30.9060   33.8270 H   0  0  0  0  0  0  0  0  0  0  0  0
   34.3380   31.2140   35.7900 C   0  0  0  0  0  0  0  0  0  0  0  0
   33.1500   31.6370   36.3350 C   0  0  0  0  0  0  0  0  0  0  0  0
   33.4580   32.4320   37.4470 C   0  0  0  0  0  0  0  0  0  0  0  0
   34.8230   32.4560   37.5240 N   0  0  0  0  0  0  0  0  0  0  0  0
   35.3300   31.7280   36.5330 N   0  0  0  0  0  0  0  0  0  0  0  0
   32.1390   31.4090   35.9880 H   0  0  0  0  0  0  0  0  0  0  0  0
   32.7640   32.9280   38.1100 H   0  0  0  0  0  0  0  0  0  0  0  0
   35.4140   32.9570   38.2370 H   0  0  0  0  0  0  0  0  0  0  0  0
  1  3  1  0  0  0  0
  1  4  1  0  0  0  0
  2  1  1  0  0  0  0
  4  5  1  0  0  0  0
  5  6  2  0  0  0  0
  5 10  1  0  0  0  0
  6 11  1  0  0  0  0
  7 12  1  0  0  0  0
  7  6  1  0  0  0  0
  8  7  2  0  0  0  0
  9  8  1  0  0  0  0
  9  4  2  0  0  0  0
 13  8  1  0  0  0  0
 14  9  1  0  0  0  0
 15 14  1  0  0  0  0
 16 17  1  0  0  0  0
 16 14  1  0  0  0  0
 18 16  1  0  0  0  0
 19 16  1  0  0  0  0
 20 19  1  0  0  0  0
 21 27  1  0  0  0  0
 21 22  2  0  0  0  0
 22  1  1  0  0  0  0
 23 24  1  0  0  0  0
 24 30  1  0  0  0  0
 24 25  2  0  0  0  0
 25 31  1  0  0  0  0
 26 25  1  0  0  0  0
 27 26  2  0  0  0  0
 28 23  2  0  0  0  0
 28 27  1  0  0  0  0
 29 23  1  0  0  0  0
 31 32  1  0  0  0  0
 31 35  2  0  0  0  0
 32 33  2  0  0  0  0
 33 34  1  0  0  0  0
 33 37  1  0  0  0  0
 34 38  1  0  0  0  0
 35 34  1  0  0  0  0
 36 32  1  0  0  0  0
M  END
>  <minimizedAffinity>
-5.67946196

$$$$

 OpenBabel03272509103D

 38 40  0  0  0  0  0  0  0  0999 V2000
   37.7790   26.7700   30.9620 C   0  0  0  0  0  0  0  0  0  0  0  0
   38.8460   27.0850   31.1640 H   0  0  0  0  0  0  0  0  0  0  0  0
   37.7600   26.5510   29.8880 H   0  0  0  0  0  0  0  0  0  0  0  0
   36.9710   27.9450   31.3580 C   0  0  0  0  0  0  0  0  0  0  0  0
   36.5130   28.1770   32.6280 C   0  0  0  0  0  0  0  0  0  0  0  0
   35.7630   29.2620   32.9870 C   0  0  0  0  0  0  0  0  0  0  0  0
   35.4300   30.2050   32.0230 C   0  0  0  0  0  0  0  0  0  0  0  0
   35.8690   30.0040   30.7570 C   0  0  0  0  0  0  0  0  0  0  0  0
   36.6140   28.9080   30.4390 C   0  0  0  0  0  0  0  0  0  0  0  0
   36.7500   27.4660   33.4120 H   0  0  0  0  0  0  0  0  0  0  0  0
   35.4320   29.3810   34.0220 H   0  0  0  0  0  0  0  0  0  0  0  0
   34.8360   31.0500   32.3460 H   0  0  0  0  0  0  0  0  0  0  0  0
   35.5750   30.7700   30.0640 H   0  0  0  0  0  0  0  0  0  0  0  0
   37.0650   28.7120   29.1060 N   0  0  0  0  0  0  0  0  0  0  0  0
   36.4900   28.2310   28.3720 H   0  0  0  0  0  0  0  0  0  0  0  0
   38.4950   29.1010   28.2370 S   0  0  0  0  0  0  0  0  0  0  0  0
   39.1080   27.8970   27.5540 O   0  0  0  0  0  1  0  0  0  0  0  0
   39.5300   29.7100   29.1360 O   0  0  0  0  0  1  0  0  0  0  0  0
   38.1430   30.1860   26.9780 O   0  0  0  0  0  0  0  0  0  0  0  0
   38.3780   31.0840   27.3110 H   0  0  0  0  0  0  0  0  0  0  0  0
   38.3830   24.5990   32.0100 C   0  0  0  0  0  3  0  0  0  0  0  0
   37.5540   25.5960   31.8260 C   0  0  0  0  0  3  0  0  0  0  0  0
   36.8400   21.5540   33.3290 C   0  0  0  0  0  0  0  0  0  0  0  0
   37.2500   21.5840   34.6770 C   0  0  0  0  0  0  0  0  0  0  0  0
   38.0560   22.6610   35.0980 C   0  0  0  0  0  0  0  0  0  0  0  0
   38.4080   23.6370   34.1830 N   0  0  0  0  0  0  0  0  0  0  0  0
   37.9680   23.5250   32.9130 C   0  0  0  0  0  0  0  0  0  0  0  0
   37.1990   22.5120   32.4790 N   0  0  0  0  0  0  0  0  0  0  0  0
   36.2240   20.7030   33.0670 H   0  0  0  0  0  0  0  0  0  0  0  0
   37.0020   20.8450   35.4300 H   0  0  0  0  0  0  0  0  0  0  0  0
   38.5460   22.8040   36.4780 C   0  0  0  0  0  0  0  0  0  0  0  0
   37.8670   23.5140   37.4360 C   0  0  0  0  0  0  0  0  0  0  0  0
   38.6120   23.4400   38.6200 C   0  0  0  0  0  0  0  0  0  0  0  0
   39.7140   22.6860   38.3230 N   0  0  0  0  0  0  0  0  0  0  0  0
   39.6600   22.3170   37.0460 N   0  0  0  0  0  0  0  0  0  0  0  0
   36.9180   24.0470   37.3250 H   0  0  0  0  0  0  0  0  0  0  0  0
   38.3730   23.8850   39.5750 H   0  0  0  0  0  0  0  0  0  0  0  0
   40.5000   22.4200   38.9710 H   0  0  0  0  0  0  0  0  0  0  0  0
  1  2  1  0  0  0  0
  1  4  1  0  0  0  0
  1 22  1  0  0  0  0
  3  1  1  0  0  0  0
  4  5  1  0  0  0  0
  5  6  2  0  0  0  0
  5 10  1  0  0  0  0
  6 11  1  0  0  0  0
  7 12  1  0  0  0  0
  7  6  1  0  0  0  0
  8  7  2  0  0  0  0
  9  8  1  0  0  0  0
  9  4  2  0  0  0  0
 13  8  1  0  0  0  0
 14  9  1  0  0  0  0
 15 14  1  0  0  0  0
 16 14  1  0  0  0  0
 16 18  1  0  0  0  0
 17 16  1  0  0  0  0
 19 20  1  0  0  0  0
 19 16  1  0  0  0  0
 21 27  1  0  0  0  0
 22 21  2  0  0  0  0
 23 24  1  0  0  0  0
 24 25  2  0  0  0  0
 24 30  1  0  0  0  0
 25 31  1  0  0  0  0
 26 25  1  0  0  0  0
 27 26  2  0  0  0  0
 28 27  1  0  0  0  0
 28 23  2  0  0  0  0
 29 23  1  0  0  0  0
 31 35  2  0  0  0  0
 31 32  1  0  0  0  0
 32 33  2  0  0  0  0
 33 37  1  0  0  0  0
 34 33  1  0  0  0  0
 34 38  1  0  0  0  0
 35 34  1  0  0  0  0
 36 32  1  0  0  0  0
M  END
>  <minimizedAffinity>
-5.67481709

$$$$

 OpenBabel03272509103D

 38 40  0  0  0  0  0  0  0  0999 V2000
   38.2820   24.4480   32.5980 C   0  0  0  0  0  0  0  0  0  0  0  0
   38.9460   24.3350   31.6900 H   0  0  0  0  0  0  0  0  0  0  0  0
   38.9700   24.3780   33.4480 H   0  0  0  0  0  0  0  0  0  0  0  0
   37.3280   23.3200   32.4920 C   0  0  0  0  0  0  0  0  0  0  0  0
   36.3710   23.2050   31.5180 C   0  0  0  0  0  0  0  0  0  0  0  0
   35.4900   22.1640   31.4290 C   0  0  0  0  0  0  0  0  0  0  0  0
   35.5460   21.1450   32.3710 C   0  0  0  0  0  0  0  0  0  0  0  0
   36.4820   21.2300   33.3470 C   0  0  0  0  0  0  0  0  0  0  0  0
   37.3430   22.2860   33.4020 C   0  0  0  0  0  0  0  0  0  0  0  0
   36.2920   23.9780   30.7620 H   0  0  0  0  0  0  0  0  0  0  0  0
   34.7520   22.1390   30.6230 H   0  0  0  0  0  0  0  0  0  0  0  0
   34.8320   20.3380   32.2660 H   0  0  0  0  0  0  0  0  0  0  0  0
   36.4690   20.4110   34.0410 H   0  0  0  0  0  0  0  0  0  0  0  0
   38.3170   22.3610   34.4330 N   0  0  0  0  0  0  0  0  0  0  0  0
   39.3340   22.1560   34.2760 H   0  0  0  0  0  0  0  0  0  0  0  0
   38.2890   22.7510   36.1060 S   0  0  0  0  0  0  0  0  0  0  0  0
   38.0820   24.2290   36.3570 O   0  0  0  0  0  1  0  0  0  0  0  0
   39.5600   22.3310   36.7850 O   0  0  0  0  0  1  0  0  0  0  0  0
   36.9740   21.9890   36.8670 O   0  0  0  0  0  0  0  0  0  0  0  0
   37.3340   21.1790   37.2990 H   0  0  0  0  0  0  0  0  0  0  0  0
   37.2330   26.5500   33.4090 C   0  0  0  0  0  3  0  0  0  0  0  0
   37.6380   25.7660   32.4420 C   0  0  0  0  0  3  0  0  0  0  0  0
   35.9500   29.3670   31.4560 C   0  0  0  0  0  0  0  0  0  0  0  0
   35.4490   30.2120   32.4660 C   0  0  0  0  0  0  0  0  0  0  0  0
   35.5660   29.7850   33.8050 C   0  0  0  0  0  0  0  0  0  0  0  0
   36.1630   28.5650   34.0720 N   0  0  0  0  0  0  0  0  0  0  0  0
   36.6140   27.8240   33.0400 C   0  0  0  0  0  0  0  0  0  0  0  0
   36.5180   28.2010   31.7540 N   0  0  0  0  0  0  0  0  0  0  0  0
   35.8310   29.7500   30.4510 H   0  0  0  0  0  0  0  0  0  0  0  0
   34.9730   31.1740   32.3080 H   0  0  0  0  0  0  0  0  0  0  0  0
   35.0830   30.5790   34.9440 C   0  0  0  0  0  0  0  0  0  0  0  0
   35.9180   31.3300   35.7320 C   0  0  0  0  0  0  0  0  0  0  0  0
   35.1290   31.9480   36.7110 C   0  0  0  0  0  0  0  0  0  0  0  0
   33.8460   31.5390   36.4710 N   0  0  0  0  0  0  0  0  0  0  0  0
   33.8360   30.7260   35.4180 N   0  0  0  0  0  0  0  0  0  0  0  0
   37.0020   31.4450   35.6360 H   0  0  0  0  0  0  0  0  0  0  0  0
   35.4590   32.6120   37.4980 H   0  0  0  0  0  0  0  0  0  0  0  0
   32.9800   31.8040   37.0080 H   0  0  0  0  0  0  0  0  0  0  0  0
  1  3  1  0  0  0  0
  2  1  1  0  0  0  0
  4  1  1  0  0  0  0
  4  9  1  0  0  0  0
  5  4  2  0  0  0  0
  6  5  1  0  0  0  0
  6  7  2  0  0  0  0
  7  8  1  0  0  0  0
  8  9  2  0  0  0  0
  8 13  1  0  0  0  0
  9 14  1  0  0  0  0
 10  5  1  0  0  0  0
 11  6  1  0  0  0  0
 12  7  1  0  0  0  0
 14 16  1  0  0  0  0
 15 14  1  0  0  0  0
 16 17  1  0  0  0  0
 16 18  1  0  0  0  0
 16 19  1  0  0  0  0
 19 20  1  0  0  0  0
 22  1  1  0  0  0  0
 22 21  2  0  0  0  0
 23 28  2  0  0  0  0
 23 24  1  0  0  0  0
 24 25  2  0  0  0  0
 25 26  1  0  0  0  0
 25 31  1  0  0  0  0
 27 21  1  0  0  0  0
 27 26  2  0  0  0  0
 28 27  1  0  0  0  0
 29 23  1  0  0  0  0
 30 24  1  0  0  0  0
 31 35  2  0  0  0  0
 31 32  1  0  0  0  0
 32 33  2  0  0  0  0
 33 37  1  0  0  0  0
 34 33  1  0  0  0  0
 34 38  1  0  0  0  0
 35 34  1  0  0  0  0
 36 32  1  0  0  0  0
M  END
>  <minimizedAffinity>
-5.65613222

$$$$

 OpenBabel03272509103D

 38 40  0  0  0  0  0  0  0  0999 V2000
   35.2720   29.4660   34.1800 C   0  0  0  0  0  0  0  0  0  0  0  0
   35.1990   29.5940   33.0590 H   0  0  0  0  0  0  0  0  0  0  0  0
   34.3230   28.9950   34.4620 H   0  0  0  0  0  0  0  0  0  0  0  0
   35.4460   30.8430   34.6930 C   0  0  0  0  0  0  0  0  0  0  0  0
   35.2540   31.2120   35.9990 C   0  0  0  0  0  0  0  0  0  0  0  0
   35.4110   32.4870   36.4660 C   0  0  0  0  0  0  0  0  0  0  0  0
   35.7890   33.4910   35.5840 C   0  0  0  0  0  0  0  0  0  0  0  0
   35.9870   33.1570   34.2860 C   0  0  0  0  0  0  0  0  0  0  0  0
   35.8190   31.8740   33.8590 C   0  0  0  0  0  0  0  0  0  0  0  0
   34.9580   30.4600   36.7220 H   0  0  0  0  0  0  0  0  0  0  0  0
   35.2400   32.7080   37.5230 H   0  0  0  0  0  0  0  0  0  0  0  0
   35.9040   34.4870   35.9920 H   0  0  0  0  0  0  0  0  0  0  0  0
   36.2760   33.9800   33.6600 H   0  0  0  0  0  0  0  0  0  0  0  0
   36.0290   31.5410   32.4940 N   0  0  0  0  0  0  0  0  0  0  0  0
   36.9010   31.0740   32.1460 H   0  0  0  0  0  0  0  0  0  0  0  0
   35.1200   31.7150   31.0470 S   0  0  0  0  0  0  0  0  0  0  0  0
   34.8490   33.1640   30.6980 O   0  0  0  0  0  1  0  0  0  0  0  0
   33.8040   31.0000   31.1400 O   0  0  0  0  0  1  0  0  0  0  0  0
   35.9930   31.1030   29.7240 O   0  0  0  0  0  0  0  0  0  0  0  0
   35.6460   30.1940   29.5580 H   0  0  0  0  0  0  0  0  0  0  0  0
   36.7220   27.4860   33.7840 C   0  0  0  0  0  3  0  0  0  0  0  0
   36.4590   28.6160   34.3920 C   0  0  0  0  0  3  0  0  0  0  0  0
   40.2110   26.3810   33.8300 C   0  0  0  0  0  0  0  0  0  0  0  0
   40.2020   25.4450   34.8840 C   0  0  0  0  0  0  0  0  0  0  0  0
   38.9840   25.2190   35.5570 C   0  0  0  0  0  0  0  0  0  0  0  0
   37.8560   25.9170   35.1610 N   0  0  0  0  0  0  0  0  0  0  0  0
   37.9610   26.7920   34.1410 C   0  0  0  0  0  0  0  0  0  0  0  0
   39.1050   27.0310   33.4780 N   0  0  0  0  0  0  0  0  0  0  0  0
   41.1740   26.5100   33.3540 H   0  0  0  0  0  0  0  0  0  0  0  0
   41.0570   24.8760   35.2320 H   0  0  0  0  0  0  0  0  0  0  0  0
   38.8490   24.2680   36.6700 C   0  0  0  0  0  0  0  0  0  0  0  0
   37.8730   24.3830   37.6290 C   0  0  0  0  0  0  0  0  0  0  0  0
   38.0380   23.3180   38.5250 C   0  0  0  0  0  0  0  0  0  0  0  0
   39.1110   22.6050   38.0660 N   0  0  0  0  0  0  0  0  0  0  0  0
   39.5810   23.1830   36.9640 N   0  0  0  0  0  0  0  0  0  0  0  0
   37.0980   25.1500   37.7040 H   0  0  0  0  0  0  0  0  0  0  0  0
   37.4430   23.0990   39.4000 H   0  0  0  0  0  0  0  0  0  0  0  0
   39.5270   21.7350   38.4880 H   0  0  0  0  0  0  0  0  0  0  0  0
  1 22  1  0  0  0  0
  1  3  1  0  0  0  0
  1  4  1  0  0  0  0
  2  1  1  0  0  0  0
  4  5  1  0  0  0  0
  5  6  2  0  0  0  0
  5 10  1  0  0  0  0
  6 11  1  0  0  0  0
  7 12  1  0  0  0  0
  7  6  1  0  0  0  0
  8  7  2  0  0  0  0
  9  8  1  0  0  0  0
  9  4  2  0  0  0  0
 13  8  1  0  0  0  0
 14  9  1  0  0  0  0
 15 14  1  0  0  0  0
 16 18  1  0  0  0  0
 16 14  1  0  0  0  0
 17 16  1  0  0  0  0
 19 16  1  0  0  0  0
 20 19  1  0  0  0  0
 21 27  1  0  0  0  0
 21 22  2  0  0  0  0
 23 24  1  0  0  0  0
 24 30  1  0  0  0  0
 24 25  2  0  0  0  0
 25 31  1  0  0  0  0
 26 25  1  0  0  0  0
 27 26  2  0  0  0  0
 28 23  2  0  0  0  0
 28 27  1  0  0  0  0
 29 23  1  0  0  0  0
 31 35  2  0  0  0  0
 31 32  1  0  0  0  0
 32 36  1  0  0  0  0
 32 33  2  0  0  0  0
 33 37  1  0  0  0  0
 34 38  1  0  0  0  0
 34 33  1  0  0  0  0
 35 34  1  0  0  0  0
M  END
>  <minimizedAffinity>
-5.63564968

$$$$

 OpenBabel03272509103D

 38 40  0  0  0  0  0  0  0  0999 V2000
   35.2360   29.6340   32.7540 C   0  0  0  0  0  0  0  0  0  0  0  0
   35.8510   30.3470   33.3800 H   0  0  0  0  0  0  0  0  0  0  0  0
   35.2770   30.0570   31.7440 H   0  0  0  0  0  0  0  0  0  0  0  0
   33.8930   29.6700   33.3750 C   0  0  0  0  0  0  0  0  0  0  0  0
   32.7770   29.0820   32.8400 C   0  0  0  0  0  0  0  0  0  0  0  0
   31.5380   29.1230   33.4160 C   0  0  0  0  0  0  0  0  0  0  0  0
   31.3720   29.7940   34.6210 C   0  0  0  0  0  0  0  0  0  0  0  0
   32.4570   30.3850   35.1760 C   0  0  0  0  0  0  0  0  0  0  0  0
   33.6760   30.3230   34.5690 C   0  0  0  0  0  0  0  0  0  0  0  0
   32.8610   28.5470   31.9010 H   0  0  0  0  0  0  0  0  0  0  0  0
   30.6910   28.6300   32.9300 H   0  0  0  0  0  0  0  0  0  0  0  0
   30.3760   29.8030   35.0450 H   0  0  0  0  0  0  0  0  0  0  0  0
   32.2570   30.8870   36.1040 H   0  0  0  0  0  0  0  0  0  0  0  0
   34.8040   30.9490   35.1640 N   0  0  0  0  0  0  0  0  0  0  0  0
   35.7580   30.5160   35.1790 H   0  0  0  0  0  0  0  0  0  0  0  0
   35.0770   32.4350   35.9820 S   0  0  0  0  0  0  0  0  0  0  0  0
   34.0970   33.5150   35.5760 O   0  0  0  0  0  1  0  0  0  0  0  0
   36.4670   32.9450   35.7360 O   0  0  0  0  0  1  0  0  0  0  0  0
   34.8450   32.2390   37.6540 O   0  0  0  0  0  0  0  0  0  0  0  0
   35.7420   32.1240   38.0480 H   0  0  0  0  0  0  0  0  0  0  0  0
   36.5760   27.9080   33.9380 C   0  0  0  0  0  3  0  0  0  0  0  0
   35.9030   28.3260   32.8950 C   0  0  0  0  0  3  0  0  0  0  0  0
   37.8870   24.7290   32.6830 C   0  0  0  0  0  0  0  0  0  0  0  0
   38.2670   24.0830   33.8760 C   0  0  0  0  0  0  0  0  0  0  0  0
   38.0600   24.7660   35.0920 C   0  0  0  0  0  0  0  0  0  0  0  0
   37.4980   26.0310   35.0670 N   0  0  0  0  0  0  0  0  0  0  0  0
   37.1660   26.5690   33.8760 C   0  0  0  0  0  0  0  0  0  0  0  0
   37.3490   25.9460   32.7000 N   0  0  0  0  0  0  0  0  0  0  0  0
   38.0710   24.1540   31.7840 H   0  0  0  0  0  0  0  0  0  0  0  0
   38.7100   23.0970   33.9480 H   0  0  0  0  0  0  0  0  0  0  0  0
   38.4130   24.1970   36.4010 C   0  0  0  0  0  0  0  0  0  0  0  0
   39.4940   23.3710   36.5840 C   0  0  0  0  0  0  0  0  0  0  0  0
   39.5300   23.0210   37.9400 C   0  0  0  0  0  0  0  0  0  0  0  0
   38.4640   23.6530   38.5190 N   0  0  0  0  0  0  0  0  0  0  0  0
   37.8110   24.3470   37.5910 N   0  0  0  0  0  0  0  0  0  0  0  0
   40.2100   23.0330   35.8300 H   0  0  0  0  0  0  0  0  0  0  0  0
   40.2490   22.3830   38.4340 H   0  0  0  0  0  0  0  0  0  0  0  0
   38.1750   23.6210   39.5310 H   0  0  0  0  0  0  0  0  0  0  0  0
  1 22  1  0  0  0  0
  1  4  1  0  0  0  0
  1  2  1  0  0  0  0
  3  1  1  0  0  0  0
  4  9  1  0  0  0  0
  5  4  2  0  0  0  0
  5  6  1  0  0  0  0
  6  7  2  0  0  0  0
  7 12  1  0  0  0  0
  7  8  1  0  0  0  0
  8 13  1  0  0  0  0
  9 14  1  0  0  0  0
  9  8  2  0  0  0  0
 10  5  1  0  0  0  0
 11  6  1  0  0  0  0
 14 15  1  0  0  0  0
 14 16  1  0  0  0  0
 16 19  1  0  0  0  0
 17 16  1  0  0  0  0
 18 16  1  0  0  0  0
 19 20  1  0  0  0  0
 22 21  2  0  0  0  0
 23 28  2  0  0  0  0
 23 24  1  0  0  0  0
 24 30  1  0  0  0  0
 24 25  2  0  0  0  0
 25 31  1  0  0  0  0
 26 25  1  0  0  0  0
 27 21  1  0  0  0  0
 27 26  2  0  0  0  0
 28 27  1  0  0  0  0
 29 23  1  0  0  0  0
 31 32  1  0  0  0  0
 31 35  2  0  0  0  0
 32 33  2  0  0  0  0
 33 37  1  0  0  0  0
 33 34  1  0  0  0  0
 34 38  1  0  0  0  0
 35 34  1  0  0  0  0
 36 32  1  0  0  0  0
M  END
>  <minimizedAffinity>
-5.6165843

$$$$
