
 OpenBabel03272510153D

 26 27  0  0  0  0  0  0  0  0999 V2000
   37.3760   29.3900   51.1000 Br  0  0  0  0  0  0  0  0  0  0  0  0
   35.9660   29.4160   49.8250 C   0  0  0  0  0  0  0  0  0  0  0  0
   35.9620   30.3210   48.7860 C   0  0  0  0  0  0  0  0  0  0  0  0
   34.9020   30.2760   47.9000 C   0  0  0  0  0  0  0  0  0  0  0  0
   33.8590   29.3720   48.0110 C   0  0  0  0  0  0  0  0  0  0  0  0
   33.8900   28.4840   49.0540 C   0  0  0  0  0  0  0  0  0  0  0  0
   34.9470   28.5110   49.9570 C   0  0  0  0  0  0  0  0  0  0  0  0
   34.9080   31.0000   47.0770 H   0  0  0  0  0  0  0  0  0  0  0  0
   33.0700   27.7820   49.1300 H   0  0  0  0  0  0  0  0  0  0  0  0
   34.8870   27.7700   50.7510 H   0  0  0  0  0  0  0  0  0  0  0  0
   38.0510   33.2440   49.4100 C   0  0  0  0  0  0  0  0  0  0  0  0
   39.0620   33.1620   48.4170 C   0  0  0  0  0  0  0  0  0  0  0  0
   38.9960   32.0860   47.5460 C   0  0  0  0  0  0  0  0  0  0  0  0
   37.9860   31.1630   47.6690 N   0  0  0  0  0  0  0  0  0  0  0  0
   37.0430   31.2890   48.6370 C   0  0  0  0  0  0  0  0  0  0  0  0
   37.0780   32.3320   49.5080 N   0  0  0  0  0  0  0  0  0  0  0  0
   38.0240   34.0550   50.1350 H   0  0  0  0  0  0  0  0  0  0  0  0
   39.8130   33.9300   48.3950 H   0  0  0  0  0  0  0  0  0  0  0  0
   39.7530   32.0100   46.7880 H   0  0  0  0  0  0  0  0  0  0  0  0
   32.8350   29.4530   47.0110 N   0  0  0  0  0  0  0  0  0  0  0  0
   32.2110   30.2380   47.2100 H   0  0  0  0  0  0  0  0  0  0  0  0
   32.6950   28.3680   45.6770 S   0  0  0  0  0  0  0  0  0  0  0  0
   32.7440   29.1260   44.3980 O   0  0  0  0  0  1  0  0  0  0  0  0
   33.9020   27.4420   45.7090 O   0  0  0  0  0  1  0  0  0  0  0  0
   31.3490   27.3720   45.8000 O   0  0  0  0  0  0  0  0  0  0  0  0
   30.5680   27.8840   45.4550 H   0  0  0  0  0  0  0  0  0  0  0  0
  2  7  1  0  0  0  0
  2  1  1  0  0  0  0
  3  2  2  0  0  0  0
  4  5  2  0  0  0  0
  4  3  1  0  0  0  0
  5  6  1  0  0  0  0
  6  9  1  0  0  0  0
  6  7  2  0  0  0  0
  7 10  1  0  0  0  0
  8  4  1  0  0  0  0
 11 16  1  0  0  0  0
 11 17  1  0  0  0  0
 12 11  2  0  0  0  0
 13 14  2  0  0  0  0
 13 12  1  0  0  0  0
 14 15  1  0  0  0  0
 15  3  1  0  0  0  0
 15 16  2  0  0  0  0
 18 12  1  0  0  0  0
 19 13  1  0  0  0  0
 20 21  1  0  0  0  0
 20  5  1  0  0  0  0
 22 24  1  0  0  0  0
 22 25  1  0  0  0  0
 22 20  1  0  0  0  0
 23 22  1  0  0  0  0
 26 25  1  0  0  0  0
M  END
>  <minimizedAffinity>
-5.34483242

>  <minimizedRMSD>
0.364380956

$$$$
