
 OpenBabel03272506133D

 22 22  0  0  0  0  0  0  0  0999 V2000
   32.6750   28.1820   47.6940 C   0  0  0  0  0  0  0  0  0  0  0  0
   33.5040   28.2800   48.8100 C   0  0  0  0  0  0  0  0  0  0  0  0
   34.4040   29.3230   48.9040 C   0  0  0  0  0  0  0  0  0  0  0  0
   34.4540   30.2390   47.8860 N   0  0  0  0  0  0  0  0  0  0  0  0
   33.6420   30.1250   46.8130 C   0  0  0  0  0  0  0  0  0  0  0  0
   32.7540   29.0970   46.7200 N   0  0  0  0  0  0  0  0  0  0  0  0
   33.4040   27.5320   49.5520 H   0  0  0  0  0  0  0  0  0  0  0  0
   33.7370   30.8800   46.0530 H   0  0  0  0  0  0  0  0  0  0  0  0
   35.2700   29.4670   50.0160 N   0  0  0  0  0  0  0  0  0  0  0  0
   34.8750   29.3440   50.9800 H   0  0  0  0  0  0  0  0  0  0  0  0
   36.9400   29.8290   50.1180 S   0  0  0  0  0  0  0  0  0  0  0  0
   37.7460   28.8420   50.8680 O   0  0  0  0  0  0  0  0  0  0  0  0
   37.0660   31.1820   50.8080 O   0  0  0  0  0  0  0  0  0  0  0  0
   37.6100   30.0300   48.5660 O   0  0  0  0  0  0  0  0  0  0  0  0
   38.0640   29.1780   48.3530 H   0  0  0  0  0  0  0  0  0  0  0  0
   31.7340   27.1970   47.4680 O   0  0  0  0  0  0  0  0  0  0  0  0
   33.4810   25.7870   45.9730 O   0  0  0  0  0  0  0  0  0  0  0  0
   32.1410   25.7190   46.6920 P   0  0  0  0  0  0  0  0  0  0  0  0
   32.1900   24.5320   47.9110 O   0  0  0  0  0  0  0  0  0  0  0  0
   31.7300   24.8300   48.7260 H   0  0  0  0  0  0  0  0  0  0  0  0
   30.9720   25.3510   45.5230 O   0  0  0  0  0  0  0  0  0  0  0  0
   31.3040   24.5450   45.0540 H   0  0  0  0  0  0  0  0  0  0  0  0
  1  2  1  0  0  0  0
  2  3  2  0  0  0  0
  2  7  1  0  0  0  0
  3  9  1  0  0  0  0
  4  3  1  0  0  0  0
  5  4  2  0  0  0  0
  6  5  1  0  0  0  0
  6  1  2  0  0  0  0
  8  5  1  0  0  0  0
  9 11  1  0  0  0  0
  9 10  1  0  0  0  0
 11 13  1  0  0  0  0
 11 12  1  0  0  0  0
 14 11  1  0  0  0  0
 15 14  1  0  0  0  0
 16  1  1  0  0  0  0
 17 18  2  0  0  0  0
 18 16  1  0  0  0  0
 18 19  1  0  0  0  0
 19 20  1  0  0  0  0
 21 18  1  0  0  0  0
 22 21  1  0  0  0  0
M  END
>  <minimizedAffinity>
-3.49311042

>  <minimizedRMSD>
4.63489342

$$$$
