
 OpenBabel03272510153D

 26 27  0  0  0  0  0  0  0  0999 V2000
   37.5370   29.2640   50.9580 Br  0  0  0  0  0  0  0  0  0  0  0  0
   36.0840   29.3130   49.7320 C   0  0  0  0  0  0  0  0  0  0  0  0
   36.0190   30.2700   48.7420 C   0  0  0  0  0  0  0  0  0  0  0  0
   34.9310   30.2380   47.8910 C   0  0  0  0  0  0  0  0  0  0  0  0
   33.9180   29.2990   47.9880 C   0  0  0  0  0  0  0  0  0  0  0  0
   34.0100   28.3600   48.9820 C   0  0  0  0  0  0  0  0  0  0  0  0
   35.0960   28.3730   49.8500 C   0  0  0  0  0  0  0  0  0  0  0  0
   34.8880   31.0040   47.1070 H   0  0  0  0  0  0  0  0  0  0  0  0
   33.2130   27.6310   49.0480 H   0  0  0  0  0  0  0  0  0  0  0  0
   35.0840   27.5900   50.6060 H   0  0  0  0  0  0  0  0  0  0  0  0
   38.0220   33.2380   49.4280 C   0  0  0  0  0  0  0  0  0  0  0  0
   39.0220   33.2180   48.4200 C   0  0  0  0  0  0  0  0  0  0  0  0
   38.9780   32.1670   47.5180 C   0  0  0  0  0  0  0  0  0  0  0  0
   38.0000   31.2090   47.6260 N   0  0  0  0  0  0  0  0  0  0  0  0
   37.0670   31.2750   48.6090 C   0  0  0  0  0  0  0  0  0  0  0  0
   37.0810   32.2930   49.5110 N   0  0  0  0  0  0  0  0  0  0  0  0
   37.9800   34.0250   50.1770 H   0  0  0  0  0  0  0  0  0  0  0  0
   39.7490   34.0100   48.4110 H   0  0  0  0  0  0  0  0  0  0  0  0
   39.7270   32.1380   46.7490 H   0  0  0  0  0  0  0  0  0  0  0  0
   32.8580   29.4010   47.0280 N   0  0  0  0  0  0  0  0  0  0  0  0
   33.0870   30.1060   46.3250 H   0  0  0  0  0  0  0  0  0  0  0  0
   31.4150   28.4550   47.0770 S   0  0  0  0  0  0  0  0  0  0  0  0
   31.5100   27.3310   46.1080 O   0  0  0  0  0  1  0  0  0  0  0  0
   31.3050   27.8530   48.4700 O   0  0  0  0  0  1  0  0  0  0  0  0
   30.0330   29.3880   46.8700 O   0  0  0  0  0  0  0  0  0  0  0  0
   29.9060   29.5180   45.8910 H   0  0  0  0  0  0  0  0  0  0  0  0
  2  7  1  0  0  0  0
  2  1  1  0  0  0  0
  3  2  2  0  0  0  0
  4  5  2  0  0  0  0
  4  3  1  0  0  0  0
  5  6  1  0  0  0  0
  6  9  1  0  0  0  0
  6  7  2  0  0  0  0
  7 10  1  0  0  0  0
  8  4  1  0  0  0  0
 11 16  1  0  0  0  0
 11 17  1  0  0  0  0
 12 11  2  0  0  0  0
 13 14  2  0  0  0  0
 13 12  1  0  0  0  0
 14 15  1  0  0  0  0
 15  3  1  0  0  0  0
 15 16  2  0  0  0  0
 18 12  1  0  0  0  0
 19 13  1  0  0  0  0
 20 22  1  0  0  0  0
 20  5  1  0  0  0  0
 21 20  1  0  0  0  0
 22 24  1  0  0  0  0
 23 22  1  0  0  0  0
 25 22  1  0  0  0  0
 26 25  1  0  0  0  0
M  END
>  <minimizedAffinity>
-5.72572756

>  <minimizedRMSD>
0.292913765

$$$$
