
 OpenBabel03272505453D

 23 24  0  0  0  0  0  0  0  0999 V2000
   38.3280   32.0930   49.0430 C   0  0  0  0  0  0  0  0  0  0  0  0
   37.5080   33.1330   49.6930 C   0  0  0  0  0  0  0  0  0  0  0  0
   38.9990   33.3100   49.5580 C   0  0  0  0  0  0  0  0  0  0  0  0
   36.8280   33.7060   49.0270 H   0  0  0  0  0  0  0  0  0  0  0  0
   37.0510   32.8970   50.6790 H   0  0  0  0  0  0  0  0  0  0  0  0
   39.6140   33.3080   50.4740 H   0  0  0  0  0  0  0  0  0  0  0  0
   39.2850   34.0960   48.8080 H   0  0  0  0  0  0  0  0  0  0  0  0
   39.1620   32.2910   45.4230 C   0  0  0  0  0  0  0  0  0  0  0  0
   38.1800   31.4740   44.8530 C   0  0  0  0  0  0  0  0  0  0  0  0
   37.2240   30.8570   45.7090 C   0  0  0  0  0  0  0  0  0  0  0  0
   37.3320   31.1030   47.0290 N   0  0  0  0  0  0  0  0  0  0  0  0
   38.2870   31.8940   47.5600 C   0  0  0  0  0  0  0  0  0  0  0  0
   39.1950   32.4840   46.7720 N   0  0  0  0  0  0  0  0  0  0  0  0
   39.8910   32.7620   44.7640 H   0  0  0  0  0  0  0  0  0  0  0  0
   38.0920   31.2780   43.8070 H   0  0  0  0  0  0  0  0  0  0  0  0
   36.4560   30.2200   45.2770 H   0  0  0  0  0  0  0  0  0  0  0  0
   38.6710   30.8770   49.7480 N   0  0  0  0  0  0  0  0  0  0  0  0
   39.3310   30.2770   49.2490 H   0  0  0  0  0  0  0  0  0  0  0  0
   37.3850   30.0800   50.5100 S   0  0  0  0  0  0  0  0  0  0  0  0
   37.2630   30.3640   51.9580 O   0  0  0  0  0  0  0  0  0  0  0  0
   37.6680   28.5870   50.4020 O   0  0  0  0  0  0  0  0  0  0  0  0
   35.9230   30.2960   49.6970 O   0  0  0  0  0  0  0  0  0  0  0  0
   35.3920   29.4610   49.6270 H   0  0  0  0  0  0  0  0  0  0  0  0
  1  3  1  0  0  0  0
  1  2  1  0  0  0  0
  1 17  1  0  0  0  0
  2  5  1  0  0  0  0
  3  2  1  0  0  0  0
  3  6  1  0  0  0  0
  4  2  1  0  0  0  0
  7  3  1  0  0  0  0
  8 13  1  0  0  0  0
  9  8  2  0  0  0  0
  9 10  1  0  0  0  0
 10 11  2  0  0  0  0
 11 12  1  0  0  0  0
 12  1  1  0  0  0  0
 13 12  2  0  0  0  0
 14  8  1  0  0  0  0
 15  9  1  0  0  0  0
 16 10  1  0  0  0  0
 17 19  1  0  0  0  0
 18 17  1  0  0  0  0
 19 20  1  0  0  0  0
 21 19  1  0  0  0  0
 22 19  1  0  0  0  0
 23 22  1  0  0  0  0
M  END
>  <minimizedAffinity>
-4.57529163

>  <minimizedRMSD>
3.44287372

$$$$
