
 OpenBabel03272510153D

 26 27  0  0  0  0  0  0  0  0999 V2000
   37.3150   29.4480   51.1660 Br  0  0  0  0  0  0  0  0  0  0  0  0
   36.0310   29.3110   49.7690 C   0  0  0  0  0  0  0  0  0  0  0  0
   36.0660   30.1600   48.6850 C   0  0  0  0  0  0  0  0  0  0  0  0
   35.0980   29.9970   47.7120 C   0  0  0  0  0  0  0  0  0  0  0  0
   34.1100   29.0300   47.7790 C   0  0  0  0  0  0  0  0  0  0  0  0
   34.1010   28.2000   48.8690 C   0  0  0  0  0  0  0  0  0  0  0  0
   35.0650   28.3460   49.8610 C   0  0  0  0  0  0  0  0  0  0  0  0
   35.1340   30.6780   46.8530 H   0  0  0  0  0  0  0  0  0  0  0  0
   33.3240   27.4480   48.9110 H   0  0  0  0  0  0  0  0  0  0  0  0
   34.9790   27.6430   50.6870 H   0  0  0  0  0  0  0  0  0  0  0  0
   37.9670   33.1860   49.4130 C   0  0  0  0  0  0  0  0  0  0  0  0
   39.0010   33.1830   48.4410 C   0  0  0  0  0  0  0  0  0  0  0  0
   39.0160   32.1240   47.5470 C   0  0  0  0  0  0  0  0  0  0  0  0
   38.0600   31.1420   47.6300 N   0  0  0  0  0  0  0  0  0  0  0  0
   37.0920   31.1920   48.5790 C   0  0  0  0  0  0  0  0  0  0  0  0
   37.0470   32.2170   49.4720 N   0  0  0  0  0  0  0  0  0  0  0  0
   37.8780   33.9780   50.1530 H   0  0  0  0  0  0  0  0  0  0  0  0
   39.7070   33.9940   48.4500 H   0  0  0  0  0  0  0  0  0  0  0  0
   39.7930   32.1080   46.8050 H   0  0  0  0  0  0  0  0  0  0  0  0
   33.1800   28.9890   46.6890 N   0  0  0  0  0  0  0  0  0  0  0  0
   33.6180   29.3520   45.8400 H   0  0  0  0  0  0  0  0  0  0  0  0
   31.5590   28.4080   46.8200 S   0  0  0  0  0  0  0  0  0  0  0  0
   31.3470   27.2790   45.8750 O   0  0  0  0  0  1  0  0  0  0  0  0
   31.3780   27.8680   48.2300 O   0  0  0  0  0  1  0  0  0  0  0  0
   30.4250   29.6330   46.6470 O   0  0  0  0  0  0  0  0  0  0  0  0
   30.2870   29.7750   45.6700 H   0  0  0  0  0  0  0  0  0  0  0  0
  2  7  1  0  0  0  0
  2  1  1  0  0  0  0
  3  2  2  0  0  0  0
  4  5  2  0  0  0  0
  4  3  1  0  0  0  0
  5  6  1  0  0  0  0
  6  9  1  0  0  0  0
  6  7  2  0  0  0  0
  7 10  1  0  0  0  0
  8  4  1  0  0  0  0
 11 16  1  0  0  0  0
 11 17  1  0  0  0  0
 12 18  1  0  0  0  0
 12 11  2  0  0  0  0
 13 14  2  0  0  0  0
 13 12  1  0  0  0  0
 14 15  1  0  0  0  0
 15  3  1  0  0  0  0
 15 16  2  0  0  0  0
 19 13  1  0  0  0  0
 20 22  1  0  0  0  0
 20  5  1  0  0  0  0
 21 20  1  0  0  0  0
 22 24  1  0  0  0  0
 23 22  1  0  0  0  0
 25 22  1  0  0  0  0
 26 25  1  0  0  0  0
M  END
>  <minimizedAffinity>
-5.72665882

>  <minimizedRMSD>
0.458102256

$$$$
