
 OpenBabel03272505463D

 23 24  0  0  0  0  0  0  0  0999 V2000
   38.8390   25.4900   35.2190 C   0  0  0  0  0  0  0  0  0  0  0  0
   38.4280   26.6720   36.0010 C   0  0  0  0  0  0  0  0  0  0  0  0
   39.6340   26.7350   35.0970 C   0  0  0  0  0  0  0  0  0  0  0  0
   37.4830   27.1620   35.6850 H   0  0  0  0  0  0  0  0  0  0  0  0
   38.5490   26.6330   37.1060 H   0  0  0  0  0  0  0  0  0  0  0  0
   40.6300   26.8530   35.5560 H   0  0  0  0  0  0  0  0  0  0  0  0
   39.4660   27.3640   34.1820 H   0  0  0  0  0  0  0  0  0  0  0  0
   37.3720   23.3650   32.5410 C   0  0  0  0  0  0  0  0  0  0  0  0
   36.5730   24.2800   31.8480 C   0  0  0  0  0  0  0  0  0  0  0  0
   36.5400   25.6320   32.2940 C   0  0  0  0  0  0  0  0  0  0  0  0
   37.2890   25.9420   33.3700 N   0  0  0  0  0  0  0  0  0  0  0  0
   38.0530   25.0450   34.0250 C   0  0  0  0  0  0  0  0  0  0  0  0
   38.0990   23.7690   33.6210 N   0  0  0  0  0  0  0  0  0  0  0  0
   37.3940   22.3310   32.1950 H   0  0  0  0  0  0  0  0  0  0  0  0
   35.9790   24.0360   30.9950 H   0  0  0  0  0  0  0  0  0  0  0  0
   35.9220   26.3530   31.7630 H   0  0  0  0  0  0  0  0  0  0  0  0
   39.5390   24.3940   35.8520 N   0  0  0  0  0  0  0  0  0  0  0  0
   40.1980   23.9090   35.2380 H   0  0  0  0  0  0  0  0  0  0  0  0
   38.6000   23.3990   36.8510 S   0  0  0  0  0  0  0  0  0  0  0  0
   37.3850   24.0510   37.3900 O   0  0  0  0  0  1  0  0  0  0  0  0
   39.4590   23.0560   38.0610 O   0  0  0  0  0  1  0  0  0  0  0  0
   38.2570   21.9110   36.1370 O   0  0  0  0  0  0  0  0  0  0  0  0
   38.3520   21.1490   36.7650 H   0  0  0  0  0  0  0  0  0  0  0  0
  1 17  1  0  0  0  0
  1  2  1  0  0  0  0
  2  5  1  0  0  0  0
  3  1  1  0  0  0  0
  3  6  1  0  0  0  0
  3  2  1  0  0  0  0
  4  2  1  0  0  0  0
  7  3  1  0  0  0  0
  8 13  1  0  0  0  0
  9 10  1  0  0  0  0
  9  8  2  0  0  0  0
 10 11  2  0  0  0  0
 11 12  1  0  0  0  0
 12  1  1  0  0  0  0
 13 12  2  0  0  0  0
 14  8  1  0  0  0  0
 15  9  1  0  0  0  0
 16 10  1  0  0  0  0
 17 19  1  0  0  0  0
 18 17  1  0  0  0  0
 19 20  1  0  0  0  0
 19 21  1  0  0  0  0
 22 23  1  0  0  0  0
 22 19  1  0  0  0  0
M  END
>  <minimizedAffinity>
-4.03921366

$$$$

 OpenBabel03272505463D

 23 24  0  0  0  0  0  0  0  0999 V2000
   38.4660   26.0720   35.1740 C   0  0  0  0  0  0  0  0  0  0  0  0
   39.5770   26.9630   34.7870 C   0  0  0  0  0  0  0  0  0  0  0  0
   38.4640   27.4690   35.6680 C   0  0  0  0  0  0  0  0  0  0  0  0
   40.5660   26.7330   35.2350 H   0  0  0  0  0  0  0  0  0  0  0  0
   39.6460   27.2780   33.7220 H   0  0  0  0  0  0  0  0  0  0  0  0
   37.7850   28.2410   35.2680 H   0  0  0  0  0  0  0  0  0  0  0  0
   38.7850   27.6390   36.7310 H   0  0  0  0  0  0  0  0  0  0  0  0
   39.7390   23.0090   36.8580 C   0  0  0  0  0  0  0  0  0  0  0  0
   39.0190   23.0150   38.0570 C   0  0  0  0  0  0  0  0  0  0  0  0
   38.0900   24.0690   38.2890 C   0  0  0  0  0  0  0  0  0  0  0  0
   37.9660   25.0020   37.3260 N   0  0  0  0  0  0  0  0  0  0  0  0
   38.6690   24.9780   36.1760 C   0  0  0  0  0  0  0  0  0  0  0  0
   39.5480   23.9960   35.9380 N   0  0  0  0  0  0  0  0  0  0  0  0
   40.4490   22.2000   36.6840 H   0  0  0  0  0  0  0  0  0  0  0  0
   39.1150   22.2770   38.8220 H   0  0  0  0  0  0  0  0  0  0  0  0
   37.5240   24.0850   39.2180 H   0  0  0  0  0  0  0  0  0  0  0  0
   37.4050   25.7670   34.2390 N   0  0  0  0  0  0  0  0  0  0  0  0
   36.5920   25.3160   34.6630 H   0  0  0  0  0  0  0  0  0  0  0  0
   37.8990   25.1380   32.7460 S   0  0  0  0  0  0  0  0  0  0  0  0
   38.1780   26.1630   31.7150 O   0  0  0  0  0  1  0  0  0  0  0  0
   36.7340   24.3150   32.2090 O   0  0  0  0  0  1  0  0  0  0  0  0
   39.1640   24.0330   32.9000 O   0  0  0  0  0  0  0  0  0  0  0  0
   39.0450   23.2280   32.3330 H   0  0  0  0  0  0  0  0  0  0  0  0
  1  3  1  0  0  0  0
  1 12  1  0  0  0  0
  2  1  1  0  0  0  0
  2  4  1  0  0  0  0
  2  3  1  0  0  0  0
  3  7  1  0  0  0  0
  5  2  1  0  0  0  0
  6  3  1  0  0  0  0
  8  9  1  0  0  0  0
  9 10  2  0  0  0  0
  9 15  1  0  0  0  0
 10 16  1  0  0  0  0
 11 10  1  0  0  0  0
 12 11  2  0  0  0  0
 13 12  1  0  0  0  0
 13  8  2  0  0  0  0
 14  8  1  0  0  0  0
 17 18  1  0  0  0  0
 17  1  1  0  0  0  0
 19 22  1  0  0  0  0
 19 17  1  0  0  0  0
 20 19  1  0  0  0  0
 21 19  1  0  0  0  0
 23 22  1  0  0  0  0
M  END
>  <minimizedAffinity>
-3.80021596

$$$$

 OpenBabel03272505463D

 23 24  0  0  0  0  0  0  0  0999 V2000
   38.7250   22.6810   35.2910 C   0  0  0  0  0  0  0  0  0  0  0  0
   37.6810   22.0530   34.4600 C   0  0  0  0  0  0  0  0  0  0  0  0
   37.5540   22.0670   35.9620 C   0  0  0  0  0  0  0  0  0  0  0  0
   37.0580   22.7430   33.8530 H   0  0  0  0  0  0  0  0  0  0  0  0
   37.9390   21.1140   33.9210 H   0  0  0  0  0  0  0  0  0  0  0  0
   37.6150   21.1080   36.5050 H   0  0  0  0  0  0  0  0  0  0  0  0
   36.7510   22.7600   36.3300 H   0  0  0  0  0  0  0  0  0  0  0  0
   38.3200   26.2290   36.3350 C   0  0  0  0  0  0  0  0  0  0  0  0
   39.1760   26.8920   35.4500 C   0  0  0  0  0  0  0  0  0  0  0  0
   39.8920   26.1240   34.4880 C   0  0  0  0  0  0  0  0  0  0  0  0
   39.6940   24.7920   34.4960 N   0  0  0  0  0  0  0  0  0  0  0  0
   38.8640   24.1710   35.3570 C   0  0  0  0  0  0  0  0  0  0  0  0
   38.1810   24.8740   36.2700 N   0  0  0  0  0  0  0  0  0  0  0  0
   37.7740   26.8220   37.0700 H   0  0  0  0  0  0  0  0  0  0  0  0
   39.3340   27.9480   35.4420 H   0  0  0  0  0  0  0  0  0  0  0  0
   40.5600   26.6290   33.7950 H   0  0  0  0  0  0  0  0  0  0  0  0
   39.9790   22.0040   35.5380 N   0  0  0  0  0  0  0  0  0  0  0  0
   39.9810   21.0180   35.2670 H   0  0  0  0  0  0  0  0  0  0  0  0
   40.7300   22.3610   37.0130 S   0  0  0  0  0  0  0  0  0  0  0  0
   41.7680   23.4140   36.9300 O   0  0  0  0  0  1  0  0  0  0  0  0
   41.4570   21.0960   37.4540 O   0  0  0  0  0  1  0  0  0  0  0  0
   39.6190   22.6630   38.2450 O   0  0  0  0  0  0  0  0  0  0  0  0
   39.8640   22.2300   39.1020 H   0  0  0  0  0  0  0  0  0  0  0  0
  1 12  1  0  0  0  0
  1 17  1  0  0  0  0
  1  3  1  0  0  0  0
  2  1  1  0  0  0  0
  2  3  1  0  0  0  0
  3  7  1  0  0  0  0
  3  6  1  0  0  0  0
  4  2  1  0  0  0  0
  5  2  1  0  0  0  0
  8 14  1  0  0  0  0
  9  8  2  0  0  0  0
 10 11  2  0  0  0  0
 10  9  1  0  0  0  0
 11 12  1  0  0  0  0
 12 13  2  0  0  0  0
 13  8  1  0  0  0  0
 15  9  1  0  0  0  0
 16 10  1  0  0  0  0
 17 19  1  0  0  0  0
 18 17  1  0  0  0  0
 19 21  1  0  0  0  0
 19 22  1  0  0  0  0
 20 19  1  0  0  0  0
 22 23  1  0  0  0  0
M  END
>  <minimizedAffinity>
-3.78707838

$$$$

 OpenBabel03272505463D

 23 24  0  0  0  0  0  0  0  0999 V2000
   37.2080   27.3160   32.8250 C   0  0  0  0  0  0  0  0  0  0  0  0
   38.4380   27.2510   33.6380 C   0  0  0  0  0  0  0  0  0  0  0  0
   37.1020   27.5050   34.2910 C   0  0  0  0  0  0  0  0  0  0  0  0
   38.9090   26.2510   33.7310 H   0  0  0  0  0  0  0  0  0  0  0  0
   39.1800   28.0730   33.5260 H   0  0  0  0  0  0  0  0  0  0  0  0
   36.9210   28.4910   34.7520 H   0  0  0  0  0  0  0  0  0  0  0  0
   36.7350   26.6330   34.8970 H   0  0  0  0  0  0  0  0  0  0  0  0
   34.9760   25.0240   30.9260 C   0  0  0  0  0  0  0  0  0  0  0  0
   35.5660   23.7790   31.1650 C   0  0  0  0  0  0  0  0  0  0  0  0
   36.7290   23.7200   31.9840 C   0  0  0  0  0  0  0  0  0  0  0  0
   37.1910   24.8850   32.4790 N   0  0  0  0  0  0  0  0  0  0  0  0
   36.6080   26.0760   32.2370 C   0  0  0  0  0  0  0  0  0  0  0  0
   35.5130   26.1530   31.4690 N   0  0  0  0  0  0  0  0  0  0  0  0
   34.0850   25.0630   30.2980 H   0  0  0  0  0  0  0  0  0  0  0  0
   35.2010   22.8540   30.7740 H   0  0  0  0  0  0  0  0  0  0  0  0
   37.1960   22.7570   32.1780 H   0  0  0  0  0  0  0  0  0  0  0  0
   36.9000   28.4950   32.0460 N   0  0  0  0  0  0  0  0  0  0  0  0
   35.9150   28.7700   32.0760 H   0  0  0  0  0  0  0  0  0  0  0  0
   37.6420   28.5880   30.5260 S   0  0  0  0  0  0  0  0  0  0  0  0
   39.0350   28.0880   30.4960 O   0  0  0  0  0  1  0  0  0  0  0  0
   37.7230   30.0670   30.1670 O   0  0  0  0  0  1  0  0  0  0  0  0
   36.6980   27.9060   29.3070 O   0  0  0  0  0  0  0  0  0  0  0  0
   36.6800   28.4530   28.4790 H   0  0  0  0  0  0  0  0  0  0  0  0
  1  2  1  0  0  0  0
  1  3  1  0  0  0  0
  2  4  1  0  0  0  0
  2  3  1  0  0  0  0
  3  6  1  0  0  0  0
  3  7  1  0  0  0  0
  5  2  1  0  0  0  0
  8  9  2  0  0  0  0
  8 13  1  0  0  0  0
  9 10  1  0  0  0  0
 10 16  1  0  0  0  0
 10 11  2  0  0  0  0
 12 11  1  0  0  0  0
 12  1  1  0  0  0  0
 13 12  2  0  0  0  0
 14  8  1  0  0  0  0
 15  9  1  0  0  0  0
 17 18  1  0  0  0  0
 17  1  1  0  0  0  0
 19 17  1  0  0  0  0
 20 19  1  0  0  0  0
 21 19  1  0  0  0  0
 22 19  1  0  0  0  0
 23 22  1  0  0  0  0
M  END
>  <minimizedAffinity>
-3.78423858

$$$$

 OpenBabel03272505463D

 23 24  0  0  0  0  0  0  0  0999 V2000
   38.1600   26.3030   34.9230 C   0  0  0  0  0  0  0  0  0  0  0  0
   39.4700   26.9660   34.7740 C   0  0  0  0  0  0  0  0  0  0  0  0
   38.5940   27.2640   35.9650 C   0  0  0  0  0  0  0  0  0  0  0  0
   40.3620   26.3190   34.9020 H   0  0  0  0  0  0  0  0  0  0  0  0
   39.5870   27.7110   33.9560 H   0  0  0  0  0  0  0  0  0  0  0  0
   38.1610   28.2740   36.0610 H   0  0  0  0  0  0  0  0  0  0  0  0
   38.9930   26.8370   36.9240 H   0  0  0  0  0  0  0  0  0  0  0  0
   37.6130   23.1890   36.8820 C   0  0  0  0  0  0  0  0  0  0  0  0
   37.8880   22.1970   35.9350 C   0  0  0  0  0  0  0  0  0  0  0  0
   38.2680   22.5940   34.6210 C   0  0  0  0  0  0  0  0  0  0  0  0
   38.3360   23.9170   34.3760 N   0  0  0  0  0  0  0  0  0  0  0  0
   38.0670   24.8580   35.3030 C   0  0  0  0  0  0  0  0  0  0  0  0
   37.7080   24.5060   36.5440 N   0  0  0  0  0  0  0  0  0  0  0  0
   37.3220   22.8790   37.8870 H   0  0  0  0  0  0  0  0  0  0  0  0
   37.8340   21.1480   36.1280 H   0  0  0  0  0  0  0  0  0  0  0  0
   38.4840   21.8320   33.8770 H   0  0  0  0  0  0  0  0  0  0  0  0
   37.0200   26.7390   34.1460 N   0  0  0  0  0  0  0  0  0  0  0  0
   36.1300   26.3370   34.4480 H   0  0  0  0  0  0  0  0  0  0  0  0
   37.2590   26.8180   32.4710 S   0  0  0  0  0  0  0  0  0  0  0  0
   37.7490   28.1280   31.9860 O   0  0  0  0  0  1  0  0  0  0  0  0
   35.8940   26.6200   31.8230 O   0  0  0  0  0  1  0  0  0  0  0  0
   38.1930   25.5390   31.8930 O   0  0  0  0  0  0  0  0  0  0  0  0
   37.8400   25.1510   31.0520 H   0  0  0  0  0  0  0  0  0  0  0  0
  1 12  1  0  0  0  0
  1  3  1  0  0  0  0
  2  4  1  0  0  0  0
  2  1  1  0  0  0  0
  2  3  1  0  0  0  0
  3  6  1  0  0  0  0
  3  7  1  0  0  0  0
  5  2  1  0  0  0  0
  8 14  1  0  0  0  0
  9 15  1  0  0  0  0
  9  8  2  0  0  0  0
 10  9  1  0  0  0  0
 11 10  2  0  0  0  0
 11 12  1  0  0  0  0
 12 13  2  0  0  0  0
 13  8  1  0  0  0  0
 16 10  1  0  0  0  0
 17 18  1  0  0  0  0
 17  1  1  0  0  0  0
 19 17  1  0  0  0  0
 20 19  1  0  0  0  0
 21 19  1  0  0  0  0
 22 19  1  0  0  0  0
 23 22  1  0  0  0  0
M  END
>  <minimizedAffinity>
-3.73638463

$$$$

 OpenBabel03272505463D

 23 24  0  0  0  0  0  0  0  0999 V2000
   38.4130   22.3810   34.7960 C   0  0  0  0  0  0  0  0  0  0  0  0
   39.4280   23.4170   34.5260 C   0  0  0  0  0  0  0  0  0  0  0  0
   39.7900   21.9550   34.4500 C   0  0  0  0  0  0  0  0  0  0  0  0
   39.2970   23.9960   33.5880 H   0  0  0  0  0  0  0  0  0  0  0  0
   39.7730   24.0430   35.3780 H   0  0  0  0  0  0  0  0  0  0  0  0
   40.4920   21.5470   35.1970 H   0  0  0  0  0  0  0  0  0  0  0  0
   39.9690   21.5990   33.4000 H   0  0  0  0  0  0  0  0  0  0  0  0
   36.2770   22.4940   31.7520 C   0  0  0  0  0  0  0  0  0  0  0  0
   35.3280   21.5040   32.0260 C   0  0  0  0  0  0  0  0  0  0  0  0
   35.4140   20.7970   33.2590 C   0  0  0  0  0  0  0  0  0  0  0  0
   36.4190   21.1340   34.0900 N   0  0  0  0  0  0  0  0  0  0  0  0
   37.3250   22.0920   33.8080 C   0  0  0  0  0  0  0  0  0  0  0  0
   37.2620   22.7680   32.6540 N   0  0  0  0  0  0  0  0  0  0  0  0
   36.2070   23.0320   30.8060 H   0  0  0  0  0  0  0  0  0  0  0  0
   34.5300   21.2360   31.3680 H   0  0  0  0  0  0  0  0  0  0  0  0
   34.6810   20.0260   33.4830 H   0  0  0  0  0  0  0  0  0  0  0  0
   38.0150   22.0740   36.1520 N   0  0  0  0  0  0  0  0  0  0  0  0
   37.0770   21.6750   36.2330 H   0  0  0  0  0  0  0  0  0  0  0  0
   38.4230   23.2320   37.3190 S   0  0  0  0  0  0  0  0  0  0  0  0
   39.8020   23.1120   37.8420 O   0  0  0  0  0  1  0  0  0  0  0  0
   37.5040   22.9960   38.5120 O   0  0  0  0  0  1  0  0  0  0  0  0
   38.0700   24.8030   36.8160 O   0  0  0  0  0  0  0  0  0  0  0  0
   37.6500   25.3520   37.5270 H   0  0  0  0  0  0  0  0  0  0  0  0
  1 17  1  0  0  0  0
  2  1  1  0  0  0  0
  2  5  1  0  0  0  0
  3  2  1  0  0  0  0
  3  1  1  0  0  0  0
  3  6  1  0  0  0  0
  4  2  1  0  0  0  0
  7  3  1  0  0  0  0
  8  9  2  0  0  0  0
  8 13  1  0  0  0  0
  9 10  1  0  0  0  0
 10 16  1  0  0  0  0
 10 11  2  0  0  0  0
 12 11  1  0  0  0  0
 12  1  1  0  0  0  0
 13 12  2  0  0  0  0
 14  8  1  0  0  0  0
 15  9  1  0  0  0  0
 17 18  1  0  0  0  0
 17 19  1  0  0  0  0
 19 20  1  0  0  0  0
 19 21  1  0  0  0  0
 22 19  1  0  0  0  0
 22 23  1  0  0  0  0
M  END
>  <minimizedAffinity>
-3.68790054

$$$$

 OpenBabel03272505463D

 23 24  0  0  0  0  0  0  0  0999 V2000
   39.4210   24.1430   35.1760 C   0  0  0  0  0  0  0  0  0  0  0  0
   40.8680   24.1530   34.8880 C   0  0  0  0  0  0  0  0  0  0  0  0
   40.1820   22.8790   35.3130 C   0  0  0  0  0  0  0  0  0  0  0  0
   41.1530   24.2900   33.8240 H   0  0  0  0  0  0  0  0  0  0  0  0
   41.5350   24.6990   35.5910 H   0  0  0  0  0  0  0  0  0  0  0  0
   40.4400   22.4430   36.2930 H   0  0  0  0  0  0  0  0  0  0  0  0
   40.0880   22.1300   34.4810 H   0  0  0  0  0  0  0  0  0  0  0  0
   37.0150   25.5060   32.6870 C   0  0  0  0  0  0  0  0  0  0  0  0
   36.5950   24.3480   32.0240 C   0  0  0  0  0  0  0  0  0  0  0  0
   37.1320   23.0940   32.4330 C   0  0  0  0  0  0  0  0  0  0  0  0
   38.0220   23.1080   33.4440 N   0  0  0  0  0  0  0  0  0  0  0  0
   38.4150   24.2350   34.0710 C   0  0  0  0  0  0  0  0  0  0  0  0
   37.9210   25.4240   33.7020 N   0  0  0  0  0  0  0  0  0  0  0  0
   36.6000   26.4630   32.3700 H   0  0  0  0  0  0  0  0  0  0  0  0
   35.8890   24.3350   31.2220 H   0  0  0  0  0  0  0  0  0  0  0  0
   36.8130   22.1870   31.9250 H   0  0  0  0  0  0  0  0  0  0  0  0
   38.9130   24.6740   36.4230 N   0  0  0  0  0  0  0  0  0  0  0  0
   39.5050   25.3950   36.8410 H   0  0  0  0  0  0  0  0  0  0  0  0
   38.2710   23.5350   37.4990 S   0  0  0  0  0  0  0  0  0  0  0  0
   37.1590   22.7310   36.9440 O   0  0  0  0  0  1  0  0  0  0  0  0
   37.6770   24.3180   38.6640 O   0  0  0  0  0  1  0  0  0  0  0  0
   39.4620   22.5690   38.2000 O   0  0  0  0  0  0  0  0  0  0  0  0
   39.3250   22.4290   39.1720 H   0  0  0  0  0  0  0  0  0  0  0  0
  1  3  1  0  0  0  0
  1 17  1  0  0  0  0
  2  1  1  0  0  0  0
  2  3  1  0  0  0  0
  2  5  1  0  0  0  0
  3  6  1  0  0  0  0
  4  2  1  0  0  0  0
  7  3  1  0  0  0  0
  8 13  1  0  0  0  0
  9 10  1  0  0  0  0
  9  8  2  0  0  0  0
 10 11  2  0  0  0  0
 11 12  1  0  0  0  0
 12  1  1  0  0  0  0
 13 12  2  0  0  0  0
 14  8  1  0  0  0  0
 15  9  1  0  0  0  0
 16 10  1  0  0  0  0
 17 18  1  0  0  0  0
 17 19  1  0  0  0  0
 19 22  1  0  0  0  0
 19 21  1  0  0  0  0
 20 19  1  0  0  0  0
 22 23  1  0  0  0  0
M  END
>  <minimizedAffinity>
-3.67278337

$$$$

 OpenBabel03272505463D

 23 24  0  0  0  0  0  0  0  0999 V2000
   38.5730   23.8380   36.3710 C   0  0  0  0  0  0  0  0  0  0  0  0
   37.9880   24.5080   37.5490 C   0  0  0  0  0  0  0  0  0  0  0  0
   37.5160   23.1360   37.1380 C   0  0  0  0  0  0  0  0  0  0  0  0
   38.6540   24.6140   38.4300 H   0  0  0  0  0  0  0  0  0  0  0  0
   37.3500   25.4020   37.3760 H   0  0  0  0  0  0  0  0  0  0  0  0
   36.4840   23.0240   36.7650 H   0  0  0  0  0  0  0  0  0  0  0  0
   37.8460   22.3270   37.8440 H   0  0  0  0  0  0  0  0  0  0  0  0
   42.2040   23.3220   35.7490 C   0  0  0  0  0  0  0  0  0  0  0  0
   42.4820   22.2130   36.5530 C   0  0  0  0  0  0  0  0  0  0  0  0
   41.4230   21.6340   37.3090 C   0  0  0  0  0  0  0  0  0  0  0  0
   40.2070   22.2030   37.1970 N   0  0  0  0  0  0  0  0  0  0  0  0
   39.9580   23.2730   36.4150 C   0  0  0  0  0  0  0  0  0  0  0  0
   40.9400   23.8320   35.6960 N   0  0  0  0  0  0  0  0  0  0  0  0
   43.0180   23.7610   35.1720 H   0  0  0  0  0  0  0  0  0  0  0  0
   43.4450   21.7600   36.6430 H   0  0  0  0  0  0  0  0  0  0  0  0
   41.6280   20.7710   37.9380 H   0  0  0  0  0  0  0  0  0  0  0  0
   38.1820   24.2250   35.0330 N   0  0  0  0  0  0  0  0  0  0  0  0
   38.5680   23.6300   34.2970 H   0  0  0  0  0  0  0  0  0  0  0  0
   38.1950   25.8890   34.7150 S   0  0  0  0  0  0  0  0  0  0  0  0
   36.9400   26.5870   35.0730 O   0  0  0  0  0  1  0  0  0  0  0  0
   38.3430   26.0460   33.2070 O   0  0  0  0  0  1  0  0  0  0  0  0
   39.5520   26.6560   35.3570 O   0  0  0  0  0  0  0  0  0  0  0  0
   39.9580   27.3110   34.7340 H   0  0  0  0  0  0  0  0  0  0  0  0
  1 12  1  0  0  0  0
  1  3  1  0  0  0  0
  1  2  1  0  0  0  0
  2  4  1  0  0  0  0
  3  2  1  0  0  0  0
  3  7  1  0  0  0  0
  5  2  1  0  0  0  0
  6  3  1  0  0  0  0
  8  9  1  0  0  0  0
  9 15  1  0  0  0  0
  9 10  2  0  0  0  0
 10 16  1  0  0  0  0
 11 10  1  0  0  0  0
 12 11  2  0  0  0  0
 13  8  2  0  0  0  0
 13 12  1  0  0  0  0
 14  8  1  0  0  0  0
 17  1  1  0  0  0  0
 18 17  1  0  0  0  0
 19 17  1  0  0  0  0
 19 20  1  0  0  0  0
 19 22  1  0  0  0  0
 21 19  1  0  0  0  0
 23 22  1  0  0  0  0
M  END
>  <minimizedAffinity>
-3.6538887

$$$$

 OpenBabel03272505463D

 23 24  0  0  0  0  0  0  0  0999 V2000
   37.6000   27.0120   32.7860 C   0  0  0  0  0  0  0  0  0  0  0  0
   38.9970   26.9900   33.2570 C   0  0  0  0  0  0  0  0  0  0  0  0
   38.6900   27.0390   31.7820 C   0  0  0  0  0  0  0  0  0  0  0  0
   39.3540   27.9070   33.7710 H   0  0  0  0  0  0  0  0  0  0  0  0
   39.3740   26.0550   33.7280 H   0  0  0  0  0  0  0  0  0  0  0  0
   38.9490   26.1640   31.1610 H   0  0  0  0  0  0  0  0  0  0  0  0
   38.9330   28.0300   31.3130 H   0  0  0  0  0  0  0  0  0  0  0  0
   35.8470   30.2080   32.0430 C   0  0  0  0  0  0  0  0  0  0  0  0
   35.1800   30.4610   33.2460 C   0  0  0  0  0  0  0  0  0  0  0  0
   35.3350   29.5380   34.3190 C   0  0  0  0  0  0  0  0  0  0  0  0
   36.1220   28.4670   34.1000 N   0  0  0  0  0  0  0  0  0  0  0  0
   36.7570   28.2410   32.9320 C   0  0  0  0  0  0  0  0  0  0  0  0
   36.6250   29.0970   31.9100 N   0  0  0  0  0  0  0  0  0  0  0  0
   35.7260   30.9180   31.2240 H   0  0  0  0  0  0  0  0  0  0  0  0
   34.5560   31.3090   33.4220 H   0  0  0  0  0  0  0  0  0  0  0  0
   34.8210   29.7240   35.2590 H   0  0  0  0  0  0  0  0  0  0  0  0
   36.8060   25.8030   32.7740 N   0  0  0  0  0  0  0  0  0  0  0  0
   37.2100   25.0320   33.3110 H   0  0  0  0  0  0  0  0  0  0  0  0
   36.1300   25.3810   31.2790 S   0  0  0  0  0  0  0  0  0  0  0  0
   34.8740   24.6040   31.3760 O   0  0  0  0  0  1  0  0  0  0  0  0
   37.1330   24.4650   30.5870 O   0  0  0  0  0  1  0  0  0  0  0  0
   35.9790   26.7040   30.2450 O   0  0  0  0  0  0  0  0  0  0  0  0
   36.2510   26.5000   29.3140 H   0  0  0  0  0  0  0  0  0  0  0  0
  1 12  1  0  0  0  0
  1  2  1  0  0  0  0
  2  5  1  0  0  0  0
  2  4  1  0  0  0  0
  3  1  1  0  0  0  0
  3  2  1  0  0  0  0
  6  3  1  0  0  0  0
  7  3  1  0  0  0  0
  8  9  1  0  0  0  0
  9 15  1  0  0  0  0
  9 10  2  0  0  0  0
 10 16  1  0  0  0  0
 11 10  1  0  0  0  0
 12 11  2  0  0  0  0
 13  8  2  0  0  0  0
 13 12  1  0  0  0  0
 14  8  1  0  0  0  0
 17  1  1  0  0  0  0
 17 18  1  0  0  0  0
 19 20  1  0  0  0  0
 19 17  1  0  0  0  0
 21 19  1  0  0  0  0
 22 19  1  0  0  0  0
 23 22  1  0  0  0  0
M  END
>  <minimizedAffinity>
-3.60467434

$$$$
