
 OpenBabel03272500243D

 32 33  0  0  0  0  0  0  0  0999 V2000
   39.7870   32.2950   46.9910 C   0  0  0  0  0  0  0  0  0  0  0  0
   40.6300   33.0360   47.1250 H   0  0  0  0  0  0  0  0  0  0  0  0
   40.2040   31.3900   47.5190 H   0  0  0  0  0  0  0  0  0  0  0  0
   39.6910   32.0190   45.5830 C   0  0  0  0  0  0  0  0  0  0  0  0
   39.6840   33.0630   44.6890 C   0  0  0  0  0  0  0  0  0  0  0  0
   39.5920   32.8220   43.3100 C   0  0  0  0  0  0  0  0  0  0  0  0
   39.5100   31.4800   42.9380 N   0  0  0  0  0  0  0  0  0  0  0  0
   39.5200   30.4960   43.8490 C   0  0  0  0  0  0  0  0  0  0  0  0
   39.6110   30.7820   45.1570 N   0  0  0  0  0  0  0  0  0  0  0  0
   39.7460   34.1100   44.9490 H   0  0  0  0  0  0  0  0  0  0  0  0
   39.5830   33.6050   42.5810 H   0  0  0  0  0  0  0  0  0  0  0  0
   39.4350   29.1390   43.4320 N   0  0  0  0  0  0  0  0  0  0  0  0
   38.8000   28.4720   43.9180 H   0  0  0  0  0  0  0  0  0  0  0  0
   40.3820   28.5600   42.1110 S   0  0  0  0  0  0  0  0  0  0  0  0
   40.1410   27.0730   41.9150 O   0  0  0  0  0  0  0  0  0  0  0  0
   39.9350   29.2320   40.8480 O   0  0  0  0  0  0  0  0  0  0  0  0
   42.0220   28.8420   42.4240 O   0  0  0  0  0  0  0  0  0  0  0  0
   42.1540   28.9170   43.4200 H   0  0  0  0  0  0  0  0  0  0  0  0
   38.6050   32.7080   47.7550 C   0  0  0  0  0  0  0  0  0  0  0  0
   38.8960   33.4920   48.5120 H   0  0  0  0  0  0  0  0  0  0  0  0
   37.8020   33.2330   47.1670 H   0  0  0  0  0  0  0  0  0  0  0  0
   37.9460   31.6200   48.5020 C   0  0  0  0  0  0  0  0  0  0  0  0
   37.0450   30.7680   47.8620 C   0  0  0  0  0  0  0  0  0  0  0  0
   36.5900   29.8600   48.7900 C   0  0  0  0  0  0  0  0  0  0  0  0
   37.1950   30.1590   49.9400 N   0  0  0  0  0  0  0  0  0  0  0  0
   37.9780   31.1870   49.7450 N   0  0  0  0  0  0  0  0  0  0  0  0
   36.6940   30.7380   46.8190 H   0  0  0  0  0  0  0  0  0  0  0  0
   35.8810   29.0360   48.6870 H   0  0  0  0  0  0  0  0  0  0  0  0
   37.0490   29.4880   51.2360 C   0  0  0  0  0  0  0  0  0  0  0  0
   37.8380   28.3490   51.2700 F   0  0  0  0  0  0  0  0  0  0  0  0
   35.7390   29.1110   51.4720 F   0  0  0  0  0  0  0  0  0  0  0  0
   37.4720   30.2940   52.2690 F   0  0  0  0  0  0  0  0  0  0  0  0
  1  2  1  0  0  0  0
  1  3  1  0  0  0  0
  1 19  1  0  0  0  0
  4  1  1  0  0  0  0
  5 10  1  0  0  0  0
  5  4  2  0  0  0  0
  6  5  1  0  0  0  0
  7  6  2  0  0  0  0
  7  8  1  0  0  0  0
  8  9  2  0  0  0  0
  9  4  1  0  0  0  0
 11  6  1  0  0  0  0
 12  8  1  0  0  0  0
 12 13  1  0  0  0  0
 14 17  1  0  0  0  0
 14 12  1  0  0  0  0
 15 14  1  0  0  0  0
 16 14  1  0  0  0  0
 17 18  1  0  0  0  0
 19 22  1  0  0  0  0
 19 20  1  0  0  0  0
 21 19  1  0  0  0  0
 22 26  2  0  0  0  0
 23 22  1  0  0  0  0
 23 24  2  0  0  0  0
 24 25  1  0  0  0  0
 25 29  1  0  0  0  0
 26 25  1  0  0  0  0
 27 23  1  0  0  0  0
 28 24  1  0  0  0  0
 29 30  1  0  0  0  0
 29 31  1  0  0  0  0
 29 32  1  0  0  0  0
M  END
>  <minimizedAffinity>
-6.48101425

>  <minimizedRMSD>
1.46826339

$$$$
