
 OpenBabel03272509063D

 38 40  0  0  0  0  0  0  0  0999 V2000
   32.8990   27.8660   48.3820 C   0  0  0  0  0  0  0  0  0  0  0  0
   32.5930   27.1900   49.2360 H   0  0  0  0  0  0  0  0  0  0  0  0
   31.9980   28.4510   48.1640 H   0  0  0  0  0  0  0  0  0  0  0  0
   33.2970   26.9340   47.3040 C   0  0  0  0  0  0  0  0  0  0  0  0
   33.7620   25.6620   47.5130 C   0  0  0  0  0  0  0  0  0  0  0  0
   34.1330   24.8070   46.5130 C   0  0  0  0  0  0  0  0  0  0  0  0
   34.0410   25.2280   45.1920 C   0  0  0  0  0  0  0  0  0  0  0  0
   33.5830   26.4810   44.9530 C   0  0  0  0  0  0  0  0  0  0  0  0
   33.2240   27.3030   45.9780 C   0  0  0  0  0  0  0  0  0  0  0  0
   33.8490   25.2930   48.5290 H   0  0  0  0  0  0  0  0  0  0  0  0
   34.4960   23.8050   46.7550 H   0  0  0  0  0  0  0  0  0  0  0  0
   34.3430   24.5220   44.4290 H   0  0  0  0  0  0  0  0  0  0  0  0
   33.5390   26.7400   43.9120 H   0  0  0  0  0  0  0  0  0  0  0  0
   32.7480   28.6150   45.7100 N   0  0  0  0  0  0  0  0  0  0  0  0
   31.7320   28.8410   45.5860 H   0  0  0  0  0  0  0  0  0  0  0  0
   33.4810   30.1550   45.5050 S   0  0  0  0  0  0  0  0  0  0  0  0
   33.2240   30.7460   44.1340 O   0  0  0  0  0  0  0  0  0  0  0  0
   34.9650   30.0860   45.7160 O   0  0  0  0  0  0  0  0  0  0  0  0
   32.8160   31.2760   46.5960 O   0  0  0  0  0  0  0  0  0  0  0  0
   33.4450   31.3340   47.3530 H   0  0  0  0  0  0  0  0  0  0  0  0
   35.1560   28.1860   49.3720 C   0  0  0  0  0  0  0  0  0  0  0  0
   34.0270   28.6590   48.9060 C   0  0  0  0  0  0  0  0  0  0  0  0
   37.3230   30.1680   51.5550 C   0  0  0  0  0  0  0  0  0  0  0  0
   38.0200   30.9640   50.6240 C   0  0  0  0  0  0  0  0  0  0  0  0
   37.7230   30.7940   49.2570 C   0  0  0  0  0  0  0  0  0  0  0  0
   36.7680   29.8630   48.8860 N   0  0  0  0  0  0  0  0  0  0  0  0
   36.1530   29.1470   49.8480 C   0  0  0  0  0  0  0  0  0  0  0  0
   36.4120   29.2840   51.1600 N   0  0  0  0  0  0  0  0  0  0  0  0
   37.5960   30.3450   52.5880 H   0  0  0  0  0  0  0  0  0  0  0  0
   38.7750   31.7050   50.8640 H   0  0  0  0  0  0  0  0  0  0  0  0
   38.3800   31.5660   48.1920 C   0  0  0  0  0  0  0  0  0  0  0  0
   38.5980   31.0590   46.9350 C   0  0  0  0  0  0  0  0  0  0  0  0
   39.2380   32.0550   46.1860 C   0  0  0  0  0  0  0  0  0  0  0  0
   39.3810   33.1240   47.0280 N   0  0  0  0  0  0  0  0  0  0  0  0
   38.8660   32.8160   48.2150 N   0  0  0  0  0  0  0  0  0  0  0  0
   38.3310   30.0670   46.5590 H   0  0  0  0  0  0  0  0  0  0  0  0
   39.5570   31.9980   45.1550 H   0  0  0  0  0  0  0  0  0  0  0  0
   39.8200   34.0550   46.8080 H   0  0  0  0  0  0  0  0  0  0  0  0
  1 22  1  0  0  0  0
  1  2  1  0  0  0  0
  3  1  1  0  0  0  0
  4  5  1  0  0  0  0
  4  1  1  0  0  0  0
  5 10  1  0  0  0  0
  6 11  1  0  0  0  0
  6  5  2  0  0  0  0
  7  6  1  0  0  0  0
  8  7  2  0  0  0  0
  8  9  1  0  0  0  0
  9  4  2  0  0  0  0
 12  7  1  0  0  0  0
 13  8  1  0  0  0  0
 14  9  1  0  0  0  0
 15 14  1  0  0  0  0
 16 14  1  0  0  0  0
 16 18  1  0  0  0  0
 16 19  1  0  0  0  0
 17 16  1  0  0  0  0
 19 20  1  0  0  0  0
 21 27  1  0  0  0  0
 22 21  2  0  0  0  0
 23 29  1  0  0  0  0
 24 30  1  0  0  0  0
 24 23  2  0  0  0  0
 25 24  1  0  0  0  0
 26 25  2  0  0  0  0
 26 27  1  0  0  0  0
 27 28  2  0  0  0  0
 28 23  1  0  0  0  0
 31 35  2  0  0  0  0
 31 25  1  0  0  0  0
 32 31  1  0  0  0  0
 33 32  2  0  0  0  0
 33 34  1  0  0  0  0
 34 35  1  0  0  0  0
 36 32  1  0  0  0  0
 37 33  1  0  0  0  0
 38 34  1  0  0  0  0
M  END
>  <minimizedAffinity>
-6.38073349

>  <minimizedRMSD>
0.612479031

$$$$
