
 OpenBabel03272501473D

 45 48  0  0  1  0  0  0  0  0999 V2000
   36.1110   28.8620   33.5560 C   0  0  0  0  0  0  0  0  0  0  0  0
   35.7130   28.5250   32.5730 H   0  0  0  0  0  0  0  0  0  0  0  0
   36.8360   29.6720   33.3270 H   0  0  0  0  0  0  0  0  0  0  0  0
   35.0620   29.3770   34.4750 C   0  0  1  0  0  0  0  0  0  0  0  0
   35.4550   30.7830   34.8830 C   0  0  0  0  0  0  0  0  0  0  0  0
   34.3240   31.6910   34.4720 C   0  0  0  0  0  0  0  0  0  0  0  0
   33.7050   30.9690   33.3060 C   0  0  0  0  0  0  0  0  0  0  0  0
   33.6960   29.5330   33.8510 C   0  0  2  0  0  0  0  0  0  0  0  0
   34.9870   28.6910   35.3450 H   0  0  0  0  0  0  0  0  0  0  0  0
   36.4390   31.0910   34.4850 H   0  0  0  0  0  0  0  0  0  0  0  0
   35.4750   30.7930   36.0010 H   0  0  0  0  0  0  0  0  0  0  0  0
   34.7960   32.6320   34.0910 H   0  0  0  0  0  0  0  0  0  0  0  0
   33.6360   31.9190   35.2890 H   0  0  0  0  0  0  0  0  0  0  0  0
   32.6840   31.3190   33.0760 H   0  0  0  0  0  0  0  0  0  0  0  0
   34.3840   31.0080   32.4530 H   0  0  0  0  0  0  0  0  0  0  0  0
   33.5690   28.7860   33.0470 H   0  0  0  0  0  0  0  0  0  0  0  0
   32.7000   29.3780   34.8680 N   0  0  0  0  0  0  0  0  0  0  0  0
   33.0040   28.8450   35.7110 H   0  0  0  0  0  0  0  0  0  0  0  0
   31.2120   28.7780   34.2370 S   0  0  0  0  0  0  0  0  0  0  0  0
   30.2540   29.9300   34.1430 O   0  0  0  0  0  1  0  0  0  0  0  0
   30.7350   27.6820   35.1260 O   0  0  0  0  0  1  0  0  0  0  0  0
   31.5340   28.2080   32.6840 O   0  0  0  0  0  0  0  0  0  0  0  0
   30.6670   28.1300   32.2050 H   0  0  0  0  0  0  0  0  0  0  0  0
   38.2000   26.8070   35.8180 C   0  0  0  0  0  0  0  0  0  0  0  0
   38.2940   25.5870   35.1070 C   0  0  0  0  0  0  0  0  0  0  0  0
   37.6460   25.4980   33.8790 C   0  0  0  0  0  0  0  0  0  0  0  0
   36.9610   26.5670   33.4240 N   0  0  0  0  0  0  0  0  0  0  0  0
   36.8860   27.7380   34.1340 C   0  0  0  0  0  0  0  0  0  0  0  0
   37.5090   27.8390   35.3260 N   0  0  0  0  0  0  0  0  0  0  0  0
   38.6680   26.9710   36.7760 H   0  0  0  0  0  0  0  0  0  0  0  0
   37.7370   24.5700   33.3730 H   0  0  0  0  0  0  0  0  0  0  0  0
   38.5890   24.0460   36.9530 C   0  0  0  0  0  0  0  0  0  0  0  0
   39.0710   24.5520   35.7530 C   0  0  0  0  0  0  0  0  0  0  0  0
   40.2570   24.0190   35.2810 C   0  0  0  0  0  0  0  0  0  0  0  0
   40.9120   23.0160   36.0080 C   0  0  0  0  0  0  0  0  0  0  0  0
   42.0340   22.3400   35.7990 N   0  0  0  0  0  0  0  0  0  0  0  0
   42.2420   21.4770   36.7900 C   0  0  0  0  0  0  0  0  0  0  0  0
   41.2200   21.5920   37.6770 N   0  0  0  0  0  0  0  0  0  0  0  0
   40.4020   22.5420   37.1900 C   0  0  0  0  0  0  0  0  0  0  0  0
   39.2260   23.0590   37.6760 C   0  0  0  0  0  0  0  0  0  0  0  0
   37.6660   24.3970   37.4100 H   0  0  0  0  0  0  0  0  0  0  0  0
   40.6360   24.3980   34.3650 H   0  0  0  0  0  0  0  0  0  0  0  0
   42.6700   22.4630   34.9770 H   0  0  0  0  0  0  0  0  0  0  0  0
   43.0480   20.7690   36.9520 H   0  0  0  0  0  0  0  0  0  0  0  0
   38.8480   22.6680   38.6090 H   0  0  0  0  0  0  0  0  0  0  0  0
  1 28  1  0  0  0  0
  1  4  1  0  0  0  0
  2  1  1  0  0  0  0
  3  1  1  0  0  0  0
  4  5  1  0  0  0  0
  4  9  1  1  0  0  0
  5 11  1  0  0  0  0
  6  5  1  0  0  0  0
  6 13  1  0  0  0  0
  7  8  1  0  0  0  0
  7  6  1  0  0  0  0
  8 16  1  6  0  0  0
  8  4  1  0  0  0  0
  8 17  1  0  0  0  0
 10  5  1  0  0  0  0
 12  6  1  0  0  0  0
 14  7  1  0  0  0  0
 15  7  1  0  0  0  0
 17 18  1  0  0  0  0
 19 17  1  0  0  0  0
 19 21  1  0  0  0  0
 20 19  1  0  0  0  0
 22 19  1  0  0  0  0
 23 22  1  0  0  0  0
 24 30  1  0  0  0  0
 25 33  1  0  0  0  0
 25 24  2  0  0  0  0
 26 25  1  0  0  0  0
 27 26  2  0  0  0  0
 27 28  1  0  0  0  0
 28 29  2  0  0  0  0
 29 24  1  0  0  0  0
 31 26  1  0  0  0  0
 32 41  1  0  0  0  0
 32 40  1  0  0  0  0
 33 32  2  0  0  0  0
 34 33  1  0  0  0  0
 34 35  2  0  0  0  0
 35 39  1  0  0  0  0
 36 35  1  0  0  0  0
 36 37  1  0  0  0  0
 37 44  1  0  0  0  0
 37 38  2  0  0  0  0
 39 40  2  0  0  0  0
 39 38  1  0  0  0  0
 40 45  1  0  0  0  0
 42 34  1  0  0  0  0
 43 36  1  0  0  0  0
M  END
>  <minimizedAffinity>
-6.12137747

$$$$

 OpenBabel03272501473D

 45 48  0  0  1  0  0  0  0  0999 V2000
   35.9510   28.9360   34.2110 C   0  0  0  0  0  0  0  0  0  0  0  0
   36.4590   29.8930   34.4620 H   0  0  0  0  0  0  0  0  0  0  0  0
   35.0950   28.8550   34.9140 H   0  0  0  0  0  0  0  0  0  0  0  0
   35.4530   28.8750   32.8120 C   0  0  1  0  0  0  0  0  0  0  0  0
   34.0460   29.4350   32.7960 C   0  0  0  0  0  0  0  0  0  0  0  0
   34.0450   30.5950   31.8350 C   0  0  0  0  0  0  0  0  0  0  0  0
   35.4680   31.0810   31.8750 C   0  0  0  0  0  0  0  0  0  0  0  0
   36.2130   29.7380   31.8330 C   0  0  2  0  0  0  0  0  0  0  0  0
   35.4920   27.8200   32.4690 H   0  0  0  0  0  0  0  0  0  0  0  0
   33.6700   29.6920   33.8030 H   0  0  0  0  0  0  0  0  0  0  0  0
   33.3980   28.6460   32.3380 H   0  0  0  0  0  0  0  0  0  0  0  0
   33.3930   31.3830   32.2900 H   0  0  0  0  0  0  0  0  0  0  0  0
   33.6780   30.3300   30.8410 H   0  0  0  0  0  0  0  0  0  0  0  0
   35.7320   31.7150   31.0130 H   0  0  0  0  0  0  0  0  0  0  0  0
   35.6630   31.5510   32.8410 H   0  0  0  0  0  0  0  0  0  0  0  0
   37.2630   29.8370   32.1640 H   0  0  0  0  0  0  0  0  0  0  0  0
   36.1310   29.1480   30.5310 N   0  0  0  0  0  0  0  0  0  0  0  0
   35.2020   28.7450   30.2830 H   0  0  0  0  0  0  0  0  0  0  0  0
   37.4090   28.0280   30.2420 S   0  0  0  0  0  0  0  0  0  0  0  0
   38.4850   28.2860   31.2550 O   0  0  0  0  0  1  0  0  0  0  0  0
   37.8690   28.1970   28.8340 O   0  0  0  0  0  1  0  0  0  0  0  0
   36.7770   26.4870   30.4960 O   0  0  0  0  0  0  0  0  0  0  0  0
   37.5410   25.8640   30.6190 H   0  0  0  0  0  0  0  0  0  0  0  0
   38.5550   26.8860   35.8630 C   0  0  0  0  0  0  0  0  0  0  0  0
   38.5750   25.7250   35.0540 C   0  0  0  0  0  0  0  0  0  0  0  0
   37.7030   25.6720   33.9700 C   0  0  0  0  0  0  0  0  0  0  0  0
   36.8840   26.7190   33.7400 N   0  0  0  0  0  0  0  0  0  0  0  0
   36.8860   27.8330   34.5410 C   0  0  0  0  0  0  0  0  0  0  0  0
   37.7250   27.8980   35.5940 N   0  0  0  0  0  0  0  0  0  0  0  0
   39.1930   27.0190   36.7220 H   0  0  0  0  0  0  0  0  0  0  0  0
   37.7430   24.7880   33.3850 H   0  0  0  0  0  0  0  0  0  0  0  0
   40.7280   24.6500   34.7740 C   0  0  0  0  0  0  0  0  0  0  0  0
   39.5190   24.7060   35.4560 C   0  0  0  0  0  0  0  0  0  0  0  0
   39.3260   23.7780   36.4620 C   0  0  0  0  0  0  0  0  0  0  0  0
   40.3270   22.8410   36.7520 C   0  0  0  0  0  0  0  0  0  0  0  0
   40.4120   21.8600   37.6410 N   0  0  0  0  0  0  0  0  0  0  0  0
   41.5800   21.2350   37.5270 C   0  0  0  0  0  0  0  0  0  0  0  0
   42.2850   21.8300   36.5290 N   0  0  0  0  0  0  0  0  0  0  0  0
   41.5080   22.8190   36.0540 C   0  0  0  0  0  0  0  0  0  0  0  0
   41.7190   23.7320   35.0510 C   0  0  0  0  0  0  0  0  0  0  0  0
   40.9780   25.3340   33.9650 H   0  0  0  0  0  0  0  0  0  0  0  0
   38.4060   23.8100   36.9910 H   0  0  0  0  0  0  0  0  0  0  0  0
   39.6700   21.6060   38.3340 H   0  0  0  0  0  0  0  0  0  0  0  0
   41.9910   20.3970   38.0810 H   0  0  0  0  0  0  0  0  0  0  0  0
   42.6570   23.6910   34.5180 H   0  0  0  0  0  0  0  0  0  0  0  0
  1  2  1  0  0  0  0
  1 28  1  0  0  0  0
  1  3  1  0  0  0  0
  4  9  1  6  0  0  0
  4  1  1  0  0  0  0
  5  4  1  0  0  0  0
  5 10  1  0  0  0  0
  6  7  1  0  0  0  0
  6 12  1  0  0  0  0
  6  5  1  0  0  0  0
  7 15  1  0  0  0  0
  8  7  1  0  0  0  0
  8 16  1  1  0  0  0
  8  4  1  0  0  0  0
 11  5  1  0  0  0  0
 13  6  1  0  0  0  0
 14  7  1  0  0  0  0
 17  8  1  0  0  0  0
 18 17  1  0  0  0  0
 19 22  1  0  0  0  0
 19 17  1  0  0  0  0
 19 20  1  0  0  0  0
 21 19  1  0  0  0  0
 22 23  1  0  0  0  0
 24 30  1  0  0  0  0
 25 33  1  0  0  0  0
 25 24  2  0  0  0  0
 26 25  1  0  0  0  0
 27 26  2  0  0  0  0
 27 28  1  0  0  0  0
 28 29  2  0  0  0  0
 29 24  1  0  0  0  0
 31 26  1  0  0  0  0
 32 40  2  0  0  0  0
 32 33  1  0  0  0  0
 33 34  2  0  0  0  0
 34 35  1  0  0  0  0
 34 42  1  0  0  0  0
 35 36  1  0  0  0  0
 36 43  1  0  0  0  0
 37 36  1  0  0  0  0
 37 44  1  0  0  0  0
 38 37  2  0  0  0  0
 39 38  1  0  0  0  0
 39 35  2  0  0  0  0
 40 39  1  0  0  0  0
 41 32  1  0  0  0  0
 45 40  1  0  0  0  0
M  END
>  <minimizedAffinity>
-5.83991385

$$$$

 OpenBabel03272501473D

 45 48  0  0  1  0  0  0  0  0999 V2000
   35.9220   29.2310   32.9830 C   0  0  0  0  0  0  0  0  0  0  0  0
   35.5290   29.7440   32.0770 H   0  0  0  0  0  0  0  0  0  0  0  0
   36.9180   29.6810   33.1780 H   0  0  0  0  0  0  0  0  0  0  0  0
   35.0580   29.3950   34.1820 C   0  0  1  0  0  0  0  0  0  0  0  0
   35.6320   30.5240   35.0140 C   0  0  0  0  0  0  0  0  0  0  0  0
   34.5480   31.5620   35.1530 C   0  0  0  0  0  0  0  0  0  0  0  0
   33.7140   31.3620   33.9170 C   0  0  0  0  0  0  0  0  0  0  0  0
   33.6420   29.8280   33.8850 C   0  0  2  0  0  0  0  0  0  0  0  0
   35.0340   28.4330   34.7350 H   0  0  0  0  0  0  0  0  0  0  0  0
   36.5800   30.9240   34.6080 H   0  0  0  0  0  0  0  0  0  0  0  0
   35.8010   30.1070   36.0370 H   0  0  0  0  0  0  0  0  0  0  0  0
   35.0520   32.5590   35.0790 H   0  0  0  0  0  0  0  0  0  0  0  0
   33.9990   31.4870   36.0950 H   0  0  0  0  0  0  0  0  0  0  0  0
   32.7100   31.8110   33.9980 H   0  0  0  0  0  0  0  0  0  0  0  0
   34.2750   31.6980   33.0440 H   0  0  0  0  0  0  0  0  0  0  0  0
   33.3400   29.4490   32.8920 H   0  0  0  0  0  0  0  0  0  0  0  0
   32.7790   29.3350   34.9160 N   0  0  0  0  0  0  0  0  0  0  0  0
   33.2070   28.6290   35.5540 H   0  0  0  0  0  0  0  0  0  0  0  0
   31.2640   28.7970   34.2940 S   0  0  0  0  0  0  0  0  0  0  0  0
   30.3350   29.9750   34.2640 O   0  0  0  0  0  1  0  0  0  0  0  0
   30.7770   27.6800   35.1530 O   0  0  0  0  0  1  0  0  0  0  0  0
   31.5390   28.2770   32.7160 O   0  0  0  0  0  0  0  0  0  0  0  0
   30.6610   28.2380   32.2530 H   0  0  0  0  0  0  0  0  0  0  0  0
   35.8210   25.9610   31.2490 C   0  0  0  0  0  0  0  0  0  0  0  0
   36.6540   25.1640   32.0710 C   0  0  0  0  0  0  0  0  0  0  0  0
   37.2250   25.7610   33.1910 C   0  0  0  0  0  0  0  0  0  0  0  0
   36.9640   27.0610   33.4420 N   0  0  0  0  0  0  0  0  0  0  0  0
   36.1530   27.8090   32.6280 C   0  0  0  0  0  0  0  0  0  0  0  0
   35.5920   27.2440   31.5390 N   0  0  0  0  0  0  0  0  0  0  0  0
   35.3340   25.5880   30.3620 H   0  0  0  0  0  0  0  0  0  0  0  0
   37.8430   25.1360   33.7850 H   0  0  0  0  0  0  0  0  0  0  0  0
   38.0190   23.4510   31.0350 C   0  0  0  0  0  0  0  0  0  0  0  0
   36.8170   23.7920   31.6420 C   0  0  0  0  0  0  0  0  0  0  0  0
   35.8800   22.7860   31.7830 C   0  0  0  0  0  0  0  0  0  0  0  0
   36.1660   21.4930   31.3220 C   0  0  0  0  0  0  0  0  0  0  0  0
   35.4730   20.3630   31.3260 N   0  0  0  0  0  0  0  0  0  0  0  0
   36.1810   19.3870   30.7650 C   0  0  0  0  0  0  0  0  0  0  0  0
   37.3810   19.8970   30.3820 N   0  0  0  0  0  0  0  0  0  0  0  0
   37.3660   21.1960   30.7280 C   0  0  0  0  0  0  0  0  0  0  0  0
   38.3100   22.1830   30.5790 C   0  0  0  0  0  0  0  0  0  0  0  0
   38.8210   24.1690   30.8770 H   0  0  0  0  0  0  0  0  0  0  0  0
   34.9570   23.0340   32.2450 H   0  0  0  0  0  0  0  0  0  0  0  0
   34.5060   20.2460   31.7110 H   0  0  0  0  0  0  0  0  0  0  0  0
   35.9380   18.3430   30.5980 H   0  0  0  0  0  0  0  0  0  0  0  0
   39.2450   21.9210   30.1070 H   0  0  0  0  0  0  0  0  0  0  0  0
  1  3  1  0  0  0  0
  1  4  1  0  0  0  0
  2  1  1  0  0  0  0
  4  9  1  1  0  0  0
  4  5  1  0  0  0  0
  5  6  1  0  0  0  0
  5 11  1  0  0  0  0
  6 13  1  0  0  0  0
  7 14  1  0  0  0  0
  7  6  1  0  0  0  0
  8 16  1  6  0  0  0
  8  7  1  0  0  0  0
  8  4  1  0  0  0  0
  8 17  1  0  0  0  0
 10  5  1  0  0  0  0
 12  6  1  0  0  0  0
 15  7  1  0  0  0  0
 17 18  1  0  0  0  0
 19 17  1  0  0  0  0
 19 21  1  0  0  0  0
 20 19  1  0  0  0  0
 22 19  1  0  0  0  0
 23 22  1  0  0  0  0
 24 29  2  0  0  0  0
 24 25  1  0  0  0  0
 25 26  2  0  0  0  0
 26 27  1  0  0  0  0
 26 31  1  0  0  0  0
 28  1  1  0  0  0  0
 28 27  2  0  0  0  0
 29 28  1  0  0  0  0
 30 24  1  0  0  0  0
 32 33  1  0  0  0  0
 33 34  2  0  0  0  0
 33 25  1  0  0  0  0
 34 42  1  0  0  0  0
 35 36  1  0  0  0  0
 35 34  1  0  0  0  0
 36 43  1  0  0  0  0
 37 36  1  0  0  0  0
 38 39  1  0  0  0  0
 38 37  2  0  0  0  0
 39 35  2  0  0  0  0
 40 39  1  0  0  0  0
 40 32  2  0  0  0  0
 41 32  1  0  0  0  0
 44 37  1  0  0  0  0
 45 40  1  0  0  0  0
M  END
>  <minimizedAffinity>
-5.71705437

$$$$

 OpenBabel03272501473D

 45 48  0  0  1  0  0  0  0  0999 V2000
   39.1950   22.7790   36.1110 C   0  0  0  0  0  0  0  0  0  0  0  0
   39.1370   21.9410   35.3800 H   0  0  0  0  0  0  0  0  0  0  0  0
   38.5190   22.4980   36.9460 H   0  0  0  0  0  0  0  0  0  0  0  0
   40.5650   23.0160   36.6370 C   0  0  1  0  0  0  0  0  0  0  0  0
   40.9190   21.8550   37.5450 C   0  0  0  0  0  0  0  0  0  0  0  0
   42.1720   21.2290   36.9880 C   0  0  0  0  0  0  0  0  0  0  0  0
   42.1000   21.5520   35.5210 C   0  0  0  0  0  0  0  0  0  0  0  0
   41.6520   23.0200   35.5890 C   0  0  2  0  0  0  0  0  0  0  0  0
   40.5750   23.9890   37.1720 H   0  0  0  0  0  0  0  0  0  0  0  0
   40.0870   21.1400   37.6800 H   0  0  0  0  0  0  0  0  0  0  0  0
   41.2020   22.3020   38.5300 H   0  0  0  0  0  0  0  0  0  0  0  0
   42.0540   20.1220   37.1100 H   0  0  0  0  0  0  0  0  0  0  0  0
   43.0810   21.5680   37.4900 H   0  0  0  0  0  0  0  0  0  0  0  0
   43.0720   21.4500   35.0090 H   0  0  0  0  0  0  0  0  0  0  0  0
   41.3000   20.9700   35.0610 H   0  0  0  0  0  0  0  0  0  0  0  0
   41.2370   23.3710   34.6270 H   0  0  0  0  0  0  0  0  0  0  0  0
   42.7230   23.8610   36.0320 N   0  0  0  0  0  0  0  0  0  0  0  0
   42.6900   24.1300   37.0390 H   0  0  0  0  0  0  0  0  0  0  0  0
   42.9360   25.2350   35.0130 S   0  0  0  0  0  0  0  0  0  0  0  0
   41.6230   25.9570   34.9340 O   0  0  0  0  0  1  0  0  0  0  0  0
   43.4320   24.7620   33.6890 O   0  0  0  0  0  1  0  0  0  0  0  0
   44.0650   26.2340   35.7660 O   0  0  0  0  0  0  0  0  0  0  0  0
   43.9880   27.1360   35.3590 H   0  0  0  0  0  0  0  0  0  0  0  0
   37.7760   26.1520   35.5490 C   0  0  0  0  0  0  0  0  0  0  0  0
   37.5260   26.1400   34.1560 C   0  0  0  0  0  0  0  0  0  0  0  0
   37.8460   24.9850   33.4480 C   0  0  0  0  0  0  0  0  0  0  0  0
   38.3760   23.9380   34.1130 N   0  0  0  0  0  0  0  0  0  0  0  0
   38.6090   23.9770   35.4640 C   0  0  0  0  0  0  0  0  0  0  0  0
   38.3040   25.0900   36.1630 N   0  0  0  0  0  0  0  0  0  0  0  0
   37.5610   26.9990   36.1810 H   0  0  0  0  0  0  0  0  0  0  0  0
   37.6450   25.0100   32.4060 H   0  0  0  0  0  0  0  0  0  0  0  0
   36.3670   28.2370   34.5170 C   0  0  0  0  0  0  0  0  0  0  0  0
   36.9530   27.3550   33.6190 C   0  0  0  0  0  0  0  0  0  0  0  0
   36.9370   27.7180   32.2850 C   0  0  0  0  0  0  0  0  0  0  0  0
   36.3470   28.9290   31.8970 C   0  0  0  0  0  0  0  0  0  0  0  0
   36.1920   29.5170   30.7180 N   0  0  0  0  0  0  0  0  0  0  0  0
   35.5580   30.6770   30.8620 C   0  0  0  0  0  0  0  0  0  0  0  0
   35.2900   30.8540   32.1820 N   0  0  0  0  0  0  0  0  0  0  0  0
   35.7790   29.7740   32.8160 C   0  0  0  0  0  0  0  0  0  0  0  0
   35.7840   29.4300   34.1450 C   0  0  0  0  0  0  0  0  0  0  0  0
   36.3270   28.0450   35.5880 H   0  0  0  0  0  0  0  0  0  0  0  0
   37.3820   27.0520   31.5880 H   0  0  0  0  0  0  0  0  0  0  0  0
   36.5180   29.1300   29.8010 H   0  0  0  0  0  0  0  0  0  0  0  0
   35.2630   31.4170   30.1260 H   0  0  0  0  0  0  0  0  0  0  0  0
   35.3290   30.1130   34.8470 H   0  0  0  0  0  0  0  0  0  0  0  0
  1  4  1  0  0  0  0
  1  3  1  0  0  0  0
  2  1  1  0  0  0  0
  4  9  1  1  0  0  0
  4  5  1  0  0  0  0
  5 10  1  0  0  0  0
  5 11  1  0  0  0  0
  6 12  1  0  0  0  0
  6 13  1  0  0  0  0
  6  5  1  0  0  0  0
  7  8  1  0  0  0  0
  7  6  1  0  0  0  0
  8 16  1  6  0  0  0
  8 17  1  0  0  0  0
  8  4  1  0  0  0  0
 14  7  1  0  0  0  0
 15  7  1  0  0  0  0
 17 18  1  0  0  0  0
 19 22  1  0  0  0  0
 19 17  1  0  0  0  0
 20 19  1  0  0  0  0
 21 19  1  0  0  0  0
 23 22  1  0  0  0  0
 24 29  1  0  0  0  0
 24 30  1  0  0  0  0
 25 24  2  0  0  0  0
 26 27  2  0  0  0  0
 26 25  1  0  0  0  0
 27 28  1  0  0  0  0
 28  1  1  0  0  0  0
 28 29  2  0  0  0  0
 31 26  1  0  0  0  0
 32 41  1  0  0  0  0
 33 25  1  0  0  0  0
 33 32  2  0  0  0  0
 34 33  1  0  0  0  0
 35 34  2  0  0  0  0
 35 39  1  0  0  0  0
 36 37  1  0  0  0  0
 36 35  1  0  0  0  0
 37 38  2  0  0  0  0
 38 39  1  0  0  0  0
 39 40  2  0  0  0  0
 40 32  1  0  0  0  0
 40 45  1  0  0  0  0
 42 34  1  0  0  0  0
 43 36  1  0  0  0  0
 44 37  1  0  0  0  0
M  END
>  <minimizedAffinity>
-5.70943975

$$$$

 OpenBabel03272501473D

 45 48  0  0  1  0  0  0  0  0999 V2000
   36.3670   28.7340   32.4240 C   0  0  0  0  0  0  0  0  0  0  0  0
   37.3860   29.0190   32.7670 H   0  0  0  0  0  0  0  0  0  0  0  0
   35.6910   28.9420   33.2800 H   0  0  0  0  0  0  0  0  0  0  0  0
   35.9080   29.4920   31.2310 C   0  0  1  0  0  0  0  0  0  0  0  0
   34.7290   30.3470   31.6510 C   0  0  0  0  0  0  0  0  0  0  0  0
   35.0950   31.7780   31.3510 C   0  0  0  0  0  0  0  0  0  0  0  0
   36.5970   31.7790   31.4400 C   0  0  0  0  0  0  0  0  0  0  0  0
   36.9120   30.4790   30.6840 C   0  0  2  0  0  0  0  0  0  0  0  0
   35.6410   28.7680   30.4330 H   0  0  0  0  0  0  0  0  0  0  0  0
   34.4220   30.1770   32.6990 H   0  0  0  0  0  0  0  0  0  0  0  0
   33.8890   30.0860   30.9610 H   0  0  0  0  0  0  0  0  0  0  0  0
   34.6940   32.3910   32.1980 H   0  0  0  0  0  0  0  0  0  0  0  0
   34.6900   32.1360   30.4020 H   0  0  0  0  0  0  0  0  0  0  0  0
   37.0570   32.6520   30.9480 H   0  0  0  0  0  0  0  0  0  0  0  0
   36.8990   31.6520   32.4810 H   0  0  0  0  0  0  0  0  0  0  0  0
   37.9360   30.1170   30.8920 H   0  0  0  0  0  0  0  0  0  0  0  0
   36.6910   30.6370   29.2780 N   0  0  0  0  0  0  0  0  0  0  0  0
   35.7740   30.2850   28.9300 H   0  0  0  0  0  0  0  0  0  0  0  0
   38.0040   30.0320   28.3400 S   0  0  0  0  0  0  0  0  0  0  0  0
   39.2570   30.1770   29.1540 O   0  0  0  0  0  1  0  0  0  0  0  0
   38.0440   30.7820   27.0530 O   0  0  0  0  0  1  0  0  0  0  0  0
   37.7080   28.3940   28.0820 O   0  0  0  0  0  0  0  0  0  0  0  0
   38.5630   27.9710   27.8060 H   0  0  0  0  0  0  0  0  0  0  0  0
   37.1570   25.1250   32.6710 C   0  0  0  0  0  0  0  0  0  0  0  0
   36.2510   24.5600   31.7420 C   0  0  0  0  0  0  0  0  0  0  0  0
   35.3990   25.4210   31.0570 C   0  0  0  0  0  0  0  0  0  0  0  0
   35.4710   26.7450   31.3070 N   0  0  0  0  0  0  0  0  0  0  0  0
   36.3590   27.2660   32.2150 C   0  0  0  0  0  0  0  0  0  0  0  0
   37.1900   26.4430   32.8850 N   0  0  0  0  0  0  0  0  0  0  0  0
   37.8550   24.5400   33.2480 H   0  0  0  0  0  0  0  0  0  0  0  0
   34.7340   24.9650   30.3680 H   0  0  0  0  0  0  0  0  0  0  0  0
   37.4380   22.5890   30.9790 C   0  0  0  0  0  0  0  0  0  0  0  0
   36.3190   23.1210   31.6080 C   0  0  0  0  0  0  0  0  0  0  0  0
   35.3650   22.2230   32.0510 C   0  0  0  0  0  0  0  0  0  0  0  0
   35.5550   20.8480   31.8570 C   0  0  0  0  0  0  0  0  0  0  0  0
   34.8240   19.7870   32.1710 N   0  0  0  0  0  0  0  0  0  0  0  0
   35.4350   18.6740   31.7710 C   0  0  0  0  0  0  0  0  0  0  0  0
   36.6050   19.0220   31.1760 N   0  0  0  0  0  0  0  0  0  0  0  0
   36.6750   20.3630   31.2310 C   0  0  0  0  0  0  0  0  0  0  0  0
   37.6330   21.2390   30.7840 C   0  0  0  0  0  0  0  0  0  0  0  0
   38.2450   23.2090   30.5940 H   0  0  0  0  0  0  0  0  0  0  0  0
   34.5050   22.6170   32.5330 H   0  0  0  0  0  0  0  0  0  0  0  0
   33.9000   19.8110   32.6610 H   0  0  0  0  0  0  0  0  0  0  0  0
   35.1370   17.6350   31.8580 H   0  0  0  0  0  0  0  0  0  0  0  0
   38.5040   20.8290   30.2940 H   0  0  0  0  0  0  0  0  0  0  0  0
  1  2  1  0  0  0  0
  1  3  1  0  0  0  0
  4  9  1  6  0  0  0
  4  5  1  0  0  0  0
  4  1  1  0  0  0  0
  5 10  1  0  0  0  0
  6  7  1  0  0  0  0
  6  5  1  0  0  0  0
  6 12  1  0  0  0  0
  7 15  1  0  0  0  0
  8 16  1  1  0  0  0
  8  4  1  0  0  0  0
  8  7  1  0  0  0  0
 11  5  1  0  0  0  0
 13  6  1  0  0  0  0
 14  7  1  0  0  0  0
 17  8  1  0  0  0  0
 18 17  1  0  0  0  0
 19 20  1  0  0  0  0
 19 17  1  0  0  0  0
 21 19  1  0  0  0  0
 22 19  1  0  0  0  0
 23 22  1  0  0  0  0
 24 29  1  0  0  0  0
 24 30  1  0  0  0  0
 25 24  2  0  0  0  0
 26 27  2  0  0  0  0
 26 25  1  0  0  0  0
 27 28  1  0  0  0  0
 28  1  1  0  0  0  0
 28 29  2  0  0  0  0
 31 26  1  0  0  0  0
 32 33  1  0  0  0  0
 33 25  1  0  0  0  0
 33 34  2  0  0  0  0
 34 42  1  0  0  0  0
 35 34  1  0  0  0  0
 35 36  1  0  0  0  0
 36 43  1  0  0  0  0
 37 44  1  0  0  0  0
 37 36  1  0  0  0  0
 38 39  1  0  0  0  0
 38 37  2  0  0  0  0
 39 35  2  0  0  0  0
 40 32  2  0  0  0  0
 40 39  1  0  0  0  0
 41 32  1  0  0  0  0
 45 40  1  0  0  0  0
M  END
>  <minimizedAffinity>
-5.67144156

$$$$

 OpenBabel03272501473D

 45 48  0  0  1  0  0  0  0  0999 V2000
   36.9640   24.1950   31.3390 C   0  0  0  0  0  0  0  0  0  0  0  0
   38.0380   24.1480   31.0510 H   0  0  0  0  0  0  0  0  0  0  0  0
   36.3930   24.1060   30.3900 H   0  0  0  0  0  0  0  0  0  0  0  0
   36.5490   23.1160   32.2730 C   0  0  1  0  0  0  0  0  0  0  0  0
   35.8260   22.0580   31.4650 C   0  0  0  0  0  0  0  0  0  0  0  0
   36.5720   20.7640   31.6660 C   0  0  0  0  0  0  0  0  0  0  0  0
   37.9770   21.2160   31.9600 C   0  0  0  0  0  0  0  0  0  0  0  0
   37.6910   22.3740   32.9270 C   0  0  2  0  0  0  0  0  0  0  0  0
   35.9060   23.5580   33.0610 H   0  0  0  0  0  0  0  0  0  0  0  0
   35.6960   22.3360   30.4030 H   0  0  0  0  0  0  0  0  0  0  0  0
   34.8260   21.9220   31.9480 H   0  0  0  0  0  0  0  0  0  0  0  0
   36.5720   20.2420   30.6750 H   0  0  0  0  0  0  0  0  0  0  0  0
   36.1260   20.1240   32.4300 H   0  0  0  0  0  0  0  0  0  0  0  0
   38.5890   20.4330   32.4390 H   0  0  0  0  0  0  0  0  0  0  0  0
   38.4220   21.6280   31.0540 H   0  0  0  0  0  0  0  0  0  0  0  0
   38.5590   23.0500   33.0320 H   0  0  0  0  0  0  0  0  0  0  0  0
   37.2570   21.8830   34.2010 N   0  0  0  0  0  0  0  0  0  0  0  0
   36.2240   21.8760   34.3460 H   0  0  0  0  0  0  0  0  0  0  0  0
   38.0800   22.6470   35.5080 S   0  0  0  0  0  0  0  0  0  0  0  0
   39.3850   21.9330   35.7100 O   0  0  0  0  0  1  0  0  0  0  0  0
   37.1920   22.6090   36.7050 O   0  0  0  0  0  1  0  0  0  0  0  0
   38.3930   24.2320   35.0310 O   0  0  0  0  0  0  0  0  0  0  0  0
   39.0990   24.5940   35.6280 H   0  0  0  0  0  0  0  0  0  0  0  0
   36.9300   27.1870   33.5200 C   0  0  0  0  0  0  0  0  0  0  0  0
   36.1550   28.0970   32.7620 C   0  0  0  0  0  0  0  0  0  0  0  0
   35.6660   27.6680   31.5320 C   0  0  0  0  0  0  0  0  0  0  0  0
   35.9500   26.4150   31.1180 N   0  0  0  0  0  0  0  0  0  0  0  0
   36.7040   25.5540   31.8740 C   0  0  0  0  0  0  0  0  0  0  0  0
   37.1840   25.9560   33.0680 N   0  0  0  0  0  0  0  0  0  0  0  0
   37.3510   27.4280   34.4830 H   0  0  0  0  0  0  0  0  0  0  0  0
   35.0900   28.3750   30.9900 H   0  0  0  0  0  0  0  0  0  0  0  0
   35.8100   30.4830   32.5160 C   0  0  0  0  0  0  0  0  0  0  0  0
   35.9570   29.3960   33.3680 C   0  0  0  0  0  0  0  0  0  0  0  0
   35.9010   29.6530   34.7250 C   0  0  0  0  0  0  0  0  0  0  0  0
   35.7020   30.9640   35.1810 C   0  0  0  0  0  0  0  0  0  0  0  0
   35.6080   31.4890   36.3950 N   0  0  0  0  0  0  0  0  0  0  0  0
   35.4180   32.8030   36.3140 C   0  0  0  0  0  0  0  0  0  0  0  0
   35.3860   33.1480   35.0010 N   0  0  0  0  0  0  0  0  0  0  0  0
   35.5610   32.0110   34.3060 C   0  0  0  0  0  0  0  0  0  0  0  0
   35.6150   31.7750   32.9550 C   0  0  0  0  0  0  0  0  0  0  0  0
   35.8390   30.3880   31.4320 H   0  0  0  0  0  0  0  0  0  0  0  0
   36.0120   28.8310   35.3870 H   0  0  0  0  0  0  0  0  0  0  0  0
   35.6740   30.9550   37.2930 H   0  0  0  0  0  0  0  0  0  0  0  0
   35.2980   33.5490   37.0930 H   0  0  0  0  0  0  0  0  0  0  0  0
   35.5010   32.6180   32.2890 H   0  0  0  0  0  0  0  0  0  0  0  0
  1 28  1  0  0  0  0
  1  4  1  0  0  0  0
  2  1  1  0  0  0  0
  3  1  1  0  0  0  0
  4  8  1  0  0  0  0
  4  9  1  1  0  0  0
  5  6  1  0  0  0  0
  5 11  1  0  0  0  0
  5  4  1  0  0  0  0
  6  7  1  0  0  0  0
  6 13  1  0  0  0  0
  7 14  1  0  0  0  0
  7  8  1  0  0  0  0
  8 16  1  1  0  0  0
  8 17  1  0  0  0  0
 10  5  1  0  0  0  0
 12  6  1  0  0  0  0
 15  7  1  0  0  0  0
 17 18  1  0  0  0  0
 17 19  1  0  0  0  0
 19 20  1  0  0  0  0
 19 21  1  0  0  0  0
 22 19  1  0  0  0  0
 22 23  1  0  0  0  0
 24 30  1  0  0  0  0
 25 33  1  0  0  0  0
 25 24  2  0  0  0  0
 26 25  1  0  0  0  0
 27 26  2  0  0  0  0
 27 28  1  0  0  0  0
 28 29  2  0  0  0  0
 29 24  1  0  0  0  0
 31 26  1  0  0  0  0
 32 40  2  0  0  0  0
 32 33  1  0  0  0  0
 33 34  2  0  0  0  0
 34 35  1  0  0  0  0
 34 42  1  0  0  0  0
 35 36  1  0  0  0  0
 36 43  1  0  0  0  0
 37 36  1  0  0  0  0
 37 44  1  0  0  0  0
 38 37  2  0  0  0  0
 39 38  1  0  0  0  0
 39 35  2  0  0  0  0
 40 39  1  0  0  0  0
 41 32  1  0  0  0  0
 45 40  1  0  0  0  0
M  END
>  <minimizedAffinity>
-5.65527916

$$$$

 OpenBabel03272501473D

 45 48  0  0  1  0  0  0  0  0999 V2000
   36.1840   28.1670   30.9750 C   0  0  0  0  0  0  0  0  0  0  0  0
   35.1460   28.4150   30.6600 H   0  0  0  0  0  0  0  0  0  0  0  0
   36.8340   28.4350   30.1150 H   0  0  0  0  0  0  0  0  0  0  0  0
   36.6310   28.9040   32.1860 C   0  0  1  0  0  0  0  0  0  0  0  0
   36.1360   30.3320   32.0670 C   0  0  0  0  0  0  0  0  0  0  0  0
   35.2740   30.6000   33.2740 C   0  0  0  0  0  0  0  0  0  0  0  0
   34.7540   29.2370   33.6400 C   0  0  0  0  0  0  0  0  0  0  0  0
   36.0370   28.4070   33.4830 C   0  0  2  0  0  0  0  0  0  0  0  0
   37.7370   28.8450   32.2480 H   0  0  0  0  0  0  0  0  0  0  0  0
   35.6310   30.5370   31.1060 H   0  0  0  0  0  0  0  0  0  0  0  0
   37.0360   30.9860   32.1710 H   0  0  0  0  0  0  0  0  0  0  0  0
   34.4130   31.2200   32.9160 H   0  0  0  0  0  0  0  0  0  0  0  0
   35.8050   31.1200   34.0750 H   0  0  0  0  0  0  0  0  0  0  0  0
   34.3650   29.1870   34.6710 H   0  0  0  0  0  0  0  0  0  0  0  0
   34.0380   28.9080   32.8850 H   0  0  0  0  0  0  0  0  0  0  0  0
   35.8240   27.3260   33.4010 H   0  0  0  0  0  0  0  0  0  0  0  0
   36.9550   28.6780   34.5480 N   0  0  0  0  0  0  0  0  0  0  0  0
   37.5270   29.5420   34.4340 H   0  0  0  0  0  0  0  0  0  0  0  0
   37.9350   27.3110   34.9270 S   0  0  0  0  0  0  0  0  0  0  0  0
   39.0550   27.2570   33.9300 O   0  0  0  0  0  1  0  0  0  0  0  0
   37.0690   26.0970   34.9100 O   0  0  0  0  0  1  0  0  0  0  0  0
   38.5800   27.5790   36.4600 O   0  0  0  0  0  0  0  0  0  0  0  0
   39.3520   26.9660   36.5740 H   0  0  0  0  0  0  0  0  0  0  0  0
   35.2710   24.5920   31.2860 C   0  0  0  0  0  0  0  0  0  0  0  0
   36.5360   23.9750   31.4330 C   0  0  0  0  0  0  0  0  0  0  0  0
   37.6630   24.7920   31.4230 C   0  0  0  0  0  0  0  0  0  0  0  0
   37.5030   26.1230   31.2740 N   0  0  0  0  0  0  0  0  0  0  0  0
   36.2640   26.6940   31.1330 C   0  0  0  0  0  0  0  0  0  0  0  0
   35.1630   25.9150   31.1410 N   0  0  0  0  0  0  0  0  0  0  0  0
   34.3430   24.0430   31.2820 H   0  0  0  0  0  0  0  0  0  0  0  0
   38.5950   24.2970   31.5360 H   0  0  0  0  0  0  0  0  0  0  0  0
   35.3260   21.9600   32.0210 C   0  0  0  0  0  0  0  0  0  0  0  0
   36.5110   22.5360   31.5810 C   0  0  0  0  0  0  0  0  0  0  0  0
   37.5650   21.6790   31.3230 C   0  0  0  0  0  0  0  0  0  0  0  0
   37.4060   20.2990   31.5080 C   0  0  0  0  0  0  0  0  0  0  0  0
   38.2260   19.2690   31.3420 N   0  0  0  0  0  0  0  0  0  0  0  0
   37.6060   18.1340   31.6530 C   0  0  0  0  0  0  0  0  0  0  0  0
   36.3370   18.4330   32.0350 N   0  0  0  0  0  0  0  0  0  0  0  0
   36.2190   19.7690   31.9440 C   0  0  0  0  0  0  0  0  0  0  0  0
   35.1610   20.6030   32.2060 C   0  0  0  0  0  0  0  0  0  0  0  0
   34.4380   22.5450   32.2510 H   0  0  0  0  0  0  0  0  0  0  0  0
   38.4760   22.1080   30.9870 H   0  0  0  0  0  0  0  0  0  0  0  0
   39.2180   19.3320   31.0150 H   0  0  0  0  0  0  0  0  0  0  0  0
   37.9600   17.1090   31.6380 H   0  0  0  0  0  0  0  0  0  0  0  0
   34.2380   20.1590   32.5480 H   0  0  0  0  0  0  0  0  0  0  0  0
  1 28  1  0  0  0  0
  1  4  1  0  0  0  0
  2  1  1  0  0  0  0
  3  1  1  0  0  0  0
  4  9  1  1  0  0  0
  4  8  1  0  0  0  0
  5 11  1  0  0  0  0
  5  4  1  0  0  0  0
  5  6  1  0  0  0  0
  6  7  1  0  0  0  0
  6 13  1  0  0  0  0
  7 14  1  0  0  0  0
  8 16  1  6  0  0  0
  8  7  1  0  0  0  0
  8 17  1  0  0  0  0
 10  5  1  0  0  0  0
 12  6  1  0  0  0  0
 15  7  1  0  0  0  0
 17 19  1  0  0  0  0
 18 17  1  0  0  0  0
 19 22  1  0  0  0  0
 20 19  1  0  0  0  0
 21 19  1  0  0  0  0
 22 23  1  0  0  0  0
 24 25  1  0  0  0  0
 25 33  1  0  0  0  0
 26 25  2  0  0  0  0
 26 31  1  0  0  0  0
 27 26  1  0  0  0  0
 28 29  1  0  0  0  0
 28 27  2  0  0  0  0
 29 24  2  0  0  0  0
 30 24  1  0  0  0  0
 32 40  1  0  0  0  0
 32 41  1  0  0  0  0
 33 32  2  0  0  0  0
 34 35  2  0  0  0  0
 34 33  1  0  0  0  0
 35 39  1  0  0  0  0
 36 35  1  0  0  0  0
 36 37  1  0  0  0  0
 37 38  2  0  0  0  0
 39 38  1  0  0  0  0
 39 40  2  0  0  0  0
 40 45  1  0  0  0  0
 42 34  1  0  0  0  0
 43 36  1  0  0  0  0
 44 37  1  0  0  0  0
M  END
>  <minimizedAffinity>
-5.64545345

$$$$

 OpenBabel03272501473D

 45 48  0  0  1  0  0  0  0  0999 V2000
   34.8640   29.2230   33.3430 C   0  0  0  0  0  0  0  0  0  0  0  0
   34.2480   28.6210   32.6400 H   0  0  0  0  0  0  0  0  0  0  0  0
   35.1530   30.1390   32.7840 H   0  0  0  0  0  0  0  0  0  0  0  0
   34.1460   29.6050   34.5870 C   0  0  1  0  0  0  0  0  0  0  0  0
   34.2930   31.1030   34.7650 C   0  0  0  0  0  0  0  0  0  0  0  0
   32.9000   31.6780   34.8090 C   0  0  0  0  0  0  0  0  0  0  0  0
   32.0930   30.6970   34.0060 C   0  0  0  0  0  0  0  0  0  0  0  0
   32.6540   29.3750   34.5510 C   0  0  2  0  0  0  0  0  0  0  0  0
   34.5790   29.0350   35.4350 H   0  0  0  0  0  0  0  0  0  0  0  0
   34.9420   31.5690   34.0020 H   0  0  0  0  0  0  0  0  0  0  0  0
   34.7290   31.2570   35.7830 H   0  0  0  0  0  0  0  0  0  0  0  0
   32.9400   32.6450   34.2460 H   0  0  0  0  0  0  0  0  0  0  0  0
   32.5380   31.8490   35.8250 H   0  0  0  0  0  0  0  0  0  0  0  0
   31.0080   30.7800   34.1880 H   0  0  0  0  0  0  0  0  0  0  0  0
   32.3670   30.7770   32.9530 H   0  0  0  0  0  0  0  0  0  0  0  0
   32.4270   28.5230   33.8840 H   0  0  0  0  0  0  0  0  0  0  0  0
   32.1880   29.1320   35.8830 N   0  0  0  0  0  0  0  0  0  0  0  0
   32.9320   28.9220   36.5830 H   0  0  0  0  0  0  0  0  0  0  0  0
   30.9230   27.9620   35.9270 S   0  0  0  0  0  0  0  0  0  0  0  0
   30.6790   27.4940   34.5220 O   0  0  0  0  0  1  0  0  0  0  0  0
   29.7270   28.5910   36.5580 O   0  0  0  0  0  1  0  0  0  0  0  0
   31.4850   26.6660   36.8450 O   0  0  0  0  0  0  0  0  0  0  0  0
   30.9080   25.8830   36.6470 H   0  0  0  0  0  0  0  0  0  0  0  0
   37.6350   27.4630   35.0560 C   0  0  0  0  0  0  0  0  0  0  0  0
   38.4470   27.0600   33.9690 C   0  0  0  0  0  0  0  0  0  0  0  0
   38.0300   27.4000   32.6850 C   0  0  0  0  0  0  0  0  0  0  0  0
   36.8800   28.0900   32.5330 N   0  0  0  0  0  0  0  0  0  0  0  0
   36.1120   28.4670   33.6050 C   0  0  0  0  0  0  0  0  0  0  0  0
   36.5040   28.1450   34.8550 N   0  0  0  0  0  0  0  0  0  0  0  0
   37.8750   27.2470   36.0850 H   0  0  0  0  0  0  0  0  0  0  0  0
   38.6610   27.0830   31.8930 H   0  0  0  0  0  0  0  0  0  0  0  0
   39.4960   24.9870   34.6560 C   0  0  0  0  0  0  0  0  0  0  0  0
   39.6420   26.3280   34.3260 C   0  0  0  0  0  0  0  0  0  0  0  0
   40.9230   26.8460   34.3690 C   0  0  0  0  0  0  0  0  0  0  0  0
   41.9990   26.0240   34.7330 C   0  0  0  0  0  0  0  0  0  0  0  0
   43.3000   26.2470   34.8550 N   0  0  0  0  0  0  0  0  0  0  0  0
   43.9240   25.1350   35.2330 C   0  0  0  0  0  0  0  0  0  0  0  0
   42.9970   24.1500   35.3600 N   0  0  0  0  0  0  0  0  0  0  0  0
   41.8120   24.7030   35.0510 C   0  0  0  0  0  0  0  0  0  0  0  0
   40.5470   24.1710   35.0150 C   0  0  0  0  0  0  0  0  0  0  0  0
   38.5310   24.4840   34.6530 H   0  0  0  0  0  0  0  0  0  0  0  0
   41.0490   27.8700   34.1190 H   0  0  0  0  0  0  0  0  0  0  0  0
   43.7770   27.1640   34.6820 H   0  0  0  0  0  0  0  0  0  0  0  0
   44.9740   24.9450   35.4280 H   0  0  0  0  0  0  0  0  0  0  0  0
   40.4290   23.1280   35.2710 H   0  0  0  0  0  0  0  0  0  0  0  0
  1 28  1  0  0  0  0
  1  4  1  0  0  0  0
  2  1  1  0  0  0  0
  3  1  1  0  0  0  0
  4  5  1  0  0  0  0
  4  9  1  1  0  0  0
  5  6  1  0  0  0  0
  5 11  1  0  0  0  0
  6 13  1  0  0  0  0
  7 14  1  0  0  0  0
  7  8  1  0  0  0  0
  7  6  1  0  0  0  0
  8 16  1  6  0  0  0
  8  4  1  0  0  0  0
  8 17  1  0  0  0  0
 10  5  1  0  0  0  0
 12  6  1  0  0  0  0
 15  7  1  0  0  0  0
 17 19  1  0  0  0  0
 17 18  1  0  0  0  0
 19 21  1  0  0  0  0
 19 22  1  0  0  0  0
 20 19  1  0  0  0  0
 23 22  1  0  0  0  0
 24 30  1  0  0  0  0
 25 33  1  0  0  0  0
 25 24  2  0  0  0  0
 26 25  1  0  0  0  0
 27 26  2  0  0  0  0
 27 28  1  0  0  0  0
 28 29  2  0  0  0  0
 29 24  1  0  0  0  0
 31 26  1  0  0  0  0
 32 40  1  0  0  0  0
 33 34  1  0  0  0  0
 33 32  2  0  0  0  0
 34 35  2  0  0  0  0
 35 36  1  0  0  0  0
 35 39  1  0  0  0  0
 36 37  1  0  0  0  0
 37 38  2  0  0  0  0
 37 44  1  0  0  0  0
 39 38  1  0  0  0  0
 40 39  2  0  0  0  0
 40 45  1  0  0  0  0
 41 32  1  0  0  0  0
 42 34  1  0  0  0  0
 43 36  1  0  0  0  0
M  END
>  <minimizedAffinity>
-5.62120962

$$$$

 OpenBabel03272501473D

 45 48  0  0  1  0  0  0  0  0999 V2000
   35.7700   22.4480   30.9850 C   0  0  0  0  0  0  0  0  0  0  0  0
   36.5780   22.0150   30.3540 H   0  0  0  0  0  0  0  0  0  0  0  0
   34.8230   22.2550   30.4370 H   0  0  0  0  0  0  0  0  0  0  0  0
   35.6900   21.8500   32.3430 C   0  0  1  0  0  0  0  0  0  0  0  0
   34.7170   20.6900   32.2820 C   0  0  0  0  0  0  0  0  0  0  0  0
   35.4690   19.4610   32.7230 C   0  0  0  0  0  0  0  0  0  0  0  0
   36.8940   19.7770   32.3610 C   0  0  0  0  0  0  0  0  0  0  0  0
   36.9780   21.2340   32.8390 C   0  0  2  0  0  0  0  0  0  0  0  0
   35.3670   22.6360   33.0570 H   0  0  0  0  0  0  0  0  0  0  0  0
   34.2310   20.5840   31.2940 H   0  0  0  0  0  0  0  0  0  0  0  0
   33.9450   20.8860   33.0670 H   0  0  0  0  0  0  0  0  0  0  0  0
   35.1180   18.6240   32.0680 H   0  0  0  0  0  0  0  0  0  0  0  0
   35.3060   19.2110   33.7730 H   0  0  0  0  0  0  0  0  0  0  0  0
   37.6240   19.1380   32.8860 H   0  0  0  0  0  0  0  0  0  0  0  0
   37.0030   19.7650   31.2750 H   0  0  0  0  0  0  0  0  0  0  0  0
   37.8380   21.7670   32.3940 H   0  0  0  0  0  0  0  0  0  0  0  0
   37.0060   21.3030   34.2690 N   0  0  0  0  0  0  0  0  0  0  0  0
   36.0980   21.5490   34.7200 H   0  0  0  0  0  0  0  0  0  0  0  0
   38.2930   22.2910   34.8480 S   0  0  0  0  0  0  0  0  0  0  0  0
   37.9630   23.7180   34.5180 O   0  0  0  0  0  1  0  0  0  0  0  0
   39.5620   21.8180   34.2250 O   0  0  0  0  0  1  0  0  0  0  0  0
   38.3330   22.1130   36.5230 O   0  0  0  0  0  0  0  0  0  0  0  0
   38.8560   22.8710   36.8960 H   0  0  0  0  0  0  0  0  0  0  0  0
   35.1300   26.0940   31.0730 C   0  0  0  0  0  0  0  0  0  0  0  0
   36.4420   26.6250   31.0580 C   0  0  0  0  0  0  0  0  0  0  0  0
   37.5060   25.7290   31.0180 C   0  0  0  0  0  0  0  0  0  0  0  0
   37.2450   24.4060   30.9960 N   0  0  0  0  0  0  0  0  0  0  0  0
   35.9620   23.9180   31.0110 C   0  0  0  0  0  0  0  0  0  0  0  0
   34.9220   24.7750   31.0500 N   0  0  0  0  0  0  0  0  0  0  0  0
   34.2440   26.7080   31.1030 H   0  0  0  0  0  0  0  0  0  0  0  0
   38.4760   26.1610   31.0080 H   0  0  0  0  0  0  0  0  0  0  0  0
   35.8870   28.7260   32.1290 C   0  0  0  0  0  0  0  0  0  0  0  0
   36.5260   28.0690   31.0860 C   0  0  0  0  0  0  0  0  0  0  0  0
   37.1890   28.8570   30.1640 C   0  0  0  0  0  0  0  0  0  0  0  0
   37.1930   30.2510   30.3080 C   0  0  0  0  0  0  0  0  0  0  0  0
   37.7330   31.2280   29.5930 N   0  0  0  0  0  0  0  0  0  0  0  0
   37.4550   32.4080   30.1410 C   0  0  0  0  0  0  0  0  0  0  0  0
   36.7080   32.1940   31.2550 N   0  0  0  0  0  0  0  0  0  0  0  0
   36.5490   30.8630   31.3540 C   0  0  0  0  0  0  0  0  0  0  0  0
   35.8850   30.0970   32.2800 C   0  0  0  0  0  0  0  0  0  0  0  0
   35.3380   28.1990   32.9070 H   0  0  0  0  0  0  0  0  0  0  0  0
   37.6820   28.3670   29.3610 H   0  0  0  0  0  0  0  0  0  0  0  0
   38.2970   31.0990   28.7200 H   0  0  0  0  0  0  0  0  0  0  0  0
   37.7290   33.4120   29.8340 H   0  0  0  0  0  0  0  0  0  0  0  0
   35.3860   30.6040   33.0930 H   0  0  0  0  0  0  0  0  0  0  0  0
  1 28  1  0  0  0  0
  1  4  1  0  0  0  0
  2  1  1  0  0  0  0
  3  1  1  0  0  0  0
  4  8  1  0  0  0  0
  4  9  1  1  0  0  0
  5  4  1  0  0  0  0
  5  6  1  0  0  0  0
  5 11  1  0  0  0  0
  6 13  1  0  0  0  0
  7  6  1  0  0  0  0
  7  8  1  0  0  0  0
  7 14  1  0  0  0  0
  8 16  1  6  0  0  0
  8 17  1  0  0  0  0
 10  5  1  0  0  0  0
 12  6  1  0  0  0  0
 15  7  1  0  0  0  0
 17 18  1  0  0  0  0
 17 19  1  0  0  0  0
 19 22  1  0  0  0  0
 20 19  1  0  0  0  0
 21 19  1  0  0  0  0
 22 23  1  0  0  0  0
 24 30  1  0  0  0  0
 25 24  1  0  0  0  0
 25 33  1  0  0  0  0
 26 25  2  0  0  0  0
 27 28  2  0  0  0  0
 27 26  1  0  0  0  0
 28 29  1  0  0  0  0
 29 24  2  0  0  0  0
 31 26  1  0  0  0  0
 32 40  1  0  0  0  0
 32 41  1  0  0  0  0
 33 32  2  0  0  0  0
 34 35  2  0  0  0  0
 34 33  1  0  0  0  0
 35 39  1  0  0  0  0
 36 37  1  0  0  0  0
 36 35  1  0  0  0  0
 37 38  2  0  0  0  0
 38 39  1  0  0  0  0
 39 40  2  0  0  0  0
 40 45  1  0  0  0  0
 42 34  1  0  0  0  0
 43 36  1  0  0  0  0
 44 37  1  0  0  0  0
M  END
>  <minimizedAffinity>
-5.60924101

$$$$
