
 OpenBabel03272510153D

 26 27  0  0  0  0  0  0  0  0999 V2000
   37.4620   29.2200   50.9170 Br  0  0  0  0  0  0  0  0  0  0  0  0
   36.0220   29.3030   49.6770 C   0  0  0  0  0  0  0  0  0  0  0  0
   35.9830   30.2680   48.6950 C   0  0  0  0  0  0  0  0  0  0  0  0
   34.9030   30.2610   47.8320 C   0  0  0  0  0  0  0  0  0  0  0  0
   33.8740   29.3390   47.9120 C   0  0  0  0  0  0  0  0  0  0  0  0
   33.9400   28.3900   48.8980 C   0  0  0  0  0  0  0  0  0  0  0  0
   35.0180   28.3780   49.7780 C   0  0  0  0  0  0  0  0  0  0  0  0
   34.8810   31.0340   47.0540 H   0  0  0  0  0  0  0  0  0  0  0  0
   33.1300   27.6750   48.9510 H   0  0  0  0  0  0  0  0  0  0  0  0
   34.9840   27.5900   50.5270 H   0  0  0  0  0  0  0  0  0  0  0  0
   38.0220   33.2030   49.4190 C   0  0  0  0  0  0  0  0  0  0  0  0
   39.0370   33.1690   48.4260 C   0  0  0  0  0  0  0  0  0  0  0  0
   38.9910   32.1210   47.5210 C   0  0  0  0  0  0  0  0  0  0  0  0
   37.9950   31.1780   47.6120 N   0  0  0  0  0  0  0  0  0  0  0  0
   37.0490   31.2570   48.5810 C   0  0  0  0  0  0  0  0  0  0  0  0
   37.0640   32.2730   49.4850 N   0  0  0  0  0  0  0  0  0  0  0  0
   37.9800   33.9900   50.1680 H   0  0  0  0  0  0  0  0  0  0  0  0
   39.7760   33.9490   48.4310 H   0  0  0  0  0  0  0  0  0  0  0  0
   39.7510   32.0810   46.7640 H   0  0  0  0  0  0  0  0  0  0  0  0
   32.8260   29.4660   46.9420 N   0  0  0  0  0  0  0  0  0  0  0  0
   32.1150   30.1200   47.2770 H   0  0  0  0  0  0  0  0  0  0  0  0
   32.7920   28.6230   45.4360 S   0  0  0  0  0  0  0  0  0  0  0  0
   32.7360   29.5930   44.3120 O   0  0  0  0  0  1  0  0  0  0  0  0
   34.0960   27.8500   45.3130 O   0  0  0  0  0  1  0  0  0  0  0  0
   31.5680   27.4740   45.3750 O   0  0  0  0  0  0  0  0  0  0  0  0
   30.7290   27.9460   45.1200 H   0  0  0  0  0  0  0  0  0  0  0  0
  2  7  1  0  0  0  0
  2  1  1  0  0  0  0
  3  2  2  0  0  0  0
  4  5  2  0  0  0  0
  4  3  1  0  0  0  0
  5  6  1  0  0  0  0
  6  9  1  0  0  0  0
  6  7  2  0  0  0  0
  7 10  1  0  0  0  0
  8  4  1  0  0  0  0
 11 16  1  0  0  0  0
 11 17  1  0  0  0  0
 12 18  1  0  0  0  0
 12 11  2  0  0  0  0
 13 14  2  0  0  0  0
 13 12  1  0  0  0  0
 14 15  1  0  0  0  0
 15  3  1  0  0  0  0
 15 16  2  0  0  0  0
 19 13  1  0  0  0  0
 20 21  1  0  0  0  0
 20  5  1  0  0  0  0
 22 20  1  0  0  0  0
 23 22  1  0  0  0  0
 24 22  1  0  0  0  0
 25 22  1  0  0  0  0
 26 25  1  0  0  0  0
M  END
>  <minimizedAffinity>
-5.330091

>  <minimizedRMSD>
0.353563666

$$$$
