
 OpenBabel03272506153D

 22 22  0  0  0  0  0  0  0  0999 V2000
   38.6440   25.2450   35.4540 C   0  0  0  0  0  0  0  0  0  0  0  0
   38.2900   25.1910   34.1070 C   0  0  0  0  0  0  0  0  0  0  0  0
   37.7530   26.3060   33.4950 C   0  0  0  0  0  0  0  0  0  0  0  0
   37.5830   27.4430   34.2390 N   0  0  0  0  0  0  0  0  0  0  0  0
   37.9330   27.4750   35.5430 C   0  0  0  0  0  0  0  0  0  0  0  0
   38.4630   26.3760   36.1470 N   0  0  0  0  0  0  0  0  0  0  0  0
   38.4520   24.2740   33.6030 H   0  0  0  0  0  0  0  0  0  0  0  0
   37.7710   28.4020   36.0640 H   0  0  0  0  0  0  0  0  0  0  0  0
   37.3750   26.3010   32.1290 N   0  0  0  0  0  0  0  0  0  0  0  0
   38.0300   25.8800   31.4270 H   0  0  0  0  0  0  0  0  0  0  0  0
   35.9750   26.8870   31.3350 S   0  0  0  0  0  0  0  0  0  0  0  0
   35.2120   27.9050   32.0890 O   0  0  0  0  0  1  0  0  0  0  0  0
   35.0670   25.6890   31.0820 O   0  0  0  0  0  1  0  0  0  0  0  0
   36.3690   27.5100   29.8000 O   0  0  0  0  0  0  0  0  0  0  0  0
   36.4120   28.4920   29.9080 H   0  0  0  0  0  0  0  0  0  0  0  0
   39.1880   24.2130   36.1910 O   0  0  0  0  0  0  0  0  0  0  0  0
   37.0920   22.8190   37.1600 O   0  0  0  0  0  0  0  0  0  0  0  0
   38.3730   23.5440   37.5470 P   0  0  0  0  0  0  0  0  0  0  0  0
   39.4620   22.4570   38.2770 O   0  0  0  0  0  0  0  0  0  0  0  0
   40.3850   22.6160   37.9820 H   0  0  0  0  0  0  0  0  0  0  0  0
   37.9350   24.7840   38.6140 O   0  0  0  0  0  0  0  0  0  0  0  0
   37.3960   24.3510   39.3240 H   0  0  0  0  0  0  0  0  0  0  0  0
  1  6  1  0  0  0  0
  1 16  1  0  0  0  0
  2  1  2  0  0  0  0
  3  2  1  0  0  0  0
  3  4  2  0  0  0  0
  4  5  1  0  0  0  0
  5  8  1  0  0  0  0
  5  6  2  0  0  0  0
  7  2  1  0  0  0  0
  9  3  1  0  0  0  0
 10  9  1  0  0  0  0
 11 12  1  0  0  0  0
 11  9  1  0  0  0  0
 13 11  1  0  0  0  0
 14 15  1  0  0  0  0
 14 11  1  0  0  0  0
 16 18  1  0  0  0  0
 17 18  2  0  0  0  0
 18 19  1  0  0  0  0
 18 21  1  0  0  0  0
 20 19  1  0  0  0  0
 21 22  1  0  0  0  0
M  END
>  <minimizedAffinity>
-4.97525215

$$$$

 OpenBabel03272506153D

 22 22  0  0  0  0  0  0  0  0999 V2000
   35.9050   22.1870   31.9330 C   0  0  0  0  0  0  0  0  0  0  0  0
   35.9000   23.3070   31.1030 C   0  0  0  0  0  0  0  0  0  0  0  0
   36.7550   24.3580   31.3670 C   0  0  0  0  0  0  0  0  0  0  0  0
   37.5900   24.2680   32.4490 N   0  0  0  0  0  0  0  0  0  0  0  0
   37.5790   23.1740   33.2420 C   0  0  0  0  0  0  0  0  0  0  0  0
   36.7370   22.1370   32.9810 N   0  0  0  0  0  0  0  0  0  0  0  0
   35.2250   23.2990   30.2880 H   0  0  0  0  0  0  0  0  0  0  0  0
   38.2610   23.1730   34.0720 H   0  0  0  0  0  0  0  0  0  0  0  0
   36.7880   25.5190   30.5550 N   0  0  0  0  0  0  0  0  0  0  0  0
   36.7930   25.4040   29.5120 H   0  0  0  0  0  0  0  0  0  0  0  0
   36.8280   27.1840   30.9520 S   0  0  0  0  0  0  0  0  0  0  0  0
   38.0720   27.6370   31.6110 O   0  0  0  0  0  1  0  0  0  0  0  0
   35.6570   27.4510   31.8900 O   0  0  0  0  0  1  0  0  0  0  0  0
   36.5500   28.1410   29.5710 O   0  0  0  0  0  0  0  0  0  0  0  0
   37.4400   28.4490   29.2690 H   0  0  0  0  0  0  0  0  0  0  0  0
   35.1090   21.0690   31.7900 O   0  0  0  0  0  0  0  0  0  0  0  0
   36.9140   19.0870   32.0890 O   0  0  0  0  0  0  0  0  0  0  0  0
   35.5290   19.5630   32.5040 P   0  0  0  0  0  0  0  0  0  0  0  0
   35.4700   19.7950   34.1890 O   0  0  0  0  0  0  0  0  0  0  0  0
   34.9650   20.6030   34.4270 H   0  0  0  0  0  0  0  0  0  0  0  0
   34.4300   18.3740   32.0080 O   0  0  0  0  0  0  0  0  0  0  0  0
   34.7720   17.5200   32.3760 H   0  0  0  0  0  0  0  0  0  0  0  0
  1  6  1  0  0  0  0
  2  3  1  0  0  0  0
  2  1  2  0  0  0  0
  3  4  2  0  0  0  0
  4  5  1  0  0  0  0
  5  8  1  0  0  0  0
  6  5  2  0  0  0  0
  7  2  1  0  0  0  0
  9 11  1  0  0  0  0
  9  3  1  0  0  0  0
 10  9  1  0  0  0  0
 11 12  1  0  0  0  0
 11 13  1  0  0  0  0
 14 11  1  0  0  0  0
 15 14  1  0  0  0  0
 16  1  1  0  0  0  0
 16 18  1  0  0  0  0
 17 18  2  0  0  0  0
 18 19  1  0  0  0  0
 19 20  1  0  0  0  0
 21 22  1  0  0  0  0
 21 18  1  0  0  0  0
M  END
>  <minimizedAffinity>
-4.7301383

$$$$

 OpenBabel03272506153D

 22 22  0  0  0  0  0  0  0  0999 V2000
   38.4450   24.4840   34.8990 C   0  0  0  0  0  0  0  0  0  0  0  0
   37.9090   25.7190   34.5390 C   0  0  0  0  0  0  0  0  0  0  0  0
   37.2080   25.8420   33.3560 C   0  0  0  0  0  0  0  0  0  0  0  0
   37.0600   24.7340   32.5640 N   0  0  0  0  0  0  0  0  0  0  0  0
   37.5880   23.5460   32.9310 C   0  0  0  0  0  0  0  0  0  0  0  0
   38.2780   23.4240   34.0980 N   0  0  0  0  0  0  0  0  0  0  0  0
   38.0680   26.5260   35.2050 H   0  0  0  0  0  0  0  0  0  0  0  0
   37.4320   22.7200   32.2600 H   0  0  0  0  0  0  0  0  0  0  0  0
   36.6440   27.0750   32.9440 N   0  0  0  0  0  0  0  0  0  0  0  0
   36.1180   27.6480   33.6470 H   0  0  0  0  0  0  0  0  0  0  0  0
   36.6430   27.8760   31.4300 S   0  0  0  0  0  0  0  0  0  0  0  0
   37.9520   28.4290   31.0180 O   0  0  0  0  0  1  0  0  0  0  0  0
   35.6420   29.0200   31.5270 O   0  0  0  0  0  1  0  0  0  0  0  0
   36.0640   26.8470   30.2040 O   0  0  0  0  0  0  0  0  0  0  0  0
   36.8640   26.5010   29.7370 H   0  0  0  0  0  0  0  0  0  0  0  0
   39.1650   24.2160   36.0460 O   0  0  0  0  0  0  0  0  0  0  0  0
   37.8420   24.4060   38.3890 O   0  0  0  0  0  0  0  0  0  0  0  0
   38.4530   23.4270   37.3960 P   0  0  0  0  0  0  0  0  0  0  0  0
   37.2490   22.3970   36.7740 O   0  0  0  0  0  0  0  0  0  0  0  0
   37.3690   22.2380   35.8120 H   0  0  0  0  0  0  0  0  0  0  0  0
   39.6380   22.5530   38.2330 O   0  0  0  0  0  0  0  0  0  0  0  0
   39.1910   22.1980   39.0410 H   0  0  0  0  0  0  0  0  0  0  0  0
  1 16  1  0  0  0  0
  2  1  1  0  0  0  0
  2  7  1  0  0  0  0
  3  2  2  0  0  0  0
  4  5  2  0  0  0  0
  4  3  1  0  0  0  0
  5  6  1  0  0  0  0
  6  1  2  0  0  0  0
  8  5  1  0  0  0  0
  9  3  1  0  0  0  0
  9 10  1  0  0  0  0
 11 13  1  0  0  0  0
 11  9  1  0  0  0  0
 12 11  1  0  0  0  0
 14 11  1  0  0  0  0
 15 14  1  0  0  0  0
 16 18  1  0  0  0  0
 18 21  1  0  0  0  0
 18 17  2  0  0  0  0
 19 18  1  0  0  0  0
 20 19  1  0  0  0  0
 21 22  1  0  0  0  0
M  END
>  <minimizedAffinity>
-4.67548275

$$$$

 OpenBabel03272506153D

 22 22  0  0  0  0  0  0  0  0999 V2000
   37.3750   26.1520   33.1040 C   0  0  0  0  0  0  0  0  0  0  0  0
   37.8610   26.0750   34.4080 C   0  0  0  0  0  0  0  0  0  0  0  0
   38.1970   24.8470   34.9420 C   0  0  0  0  0  0  0  0  0  0  0  0
   38.0400   23.7300   34.1640 N   0  0  0  0  0  0  0  0  0  0  0  0
   37.5680   23.8260   32.9030 C   0  0  0  0  0  0  0  0  0  0  0  0
   37.2370   25.0370   32.3760 N   0  0  0  0  0  0  0  0  0  0  0  0
   37.9520   26.9850   34.9420 H   0  0  0  0  0  0  0  0  0  0  0  0
   37.4720   22.9070   32.3520 H   0  0  0  0  0  0  0  0  0  0  0  0
   38.6930   24.7160   36.2630 N   0  0  0  0  0  0  0  0  0  0  0  0
   39.4350   25.3800   36.5900 H   0  0  0  0  0  0  0  0  0  0  0  0
   38.3080   23.6170   37.5180 S   0  0  0  0  0  0  0  0  0  0  0  0
   37.7140   24.2350   38.7240 O   0  0  0  0  0  1  0  0  0  0  0  0
   39.6020   22.9190   37.9180 O   0  0  0  0  0  1  0  0  0  0  0  0
   37.2690   22.3930   36.9510 O   0  0  0  0  0  0  0  0  0  0  0  0
   36.3590   22.6520   37.2400 H   0  0  0  0  0  0  0  0  0  0  0  0
   37.0020   27.3060   32.4440 O   0  0  0  0  0  0  0  0  0  0  0  0
   36.4260   28.7290   30.2270 O   0  0  0  0  0  0  0  0  0  0  0  0
   36.7690   27.3390   30.7420 P   0  0  0  0  0  0  0  0  0  0  0  0
   38.2240   26.7970   30.0450 O   0  0  0  0  0  0  0  0  0  0  0  0
   38.7870   26.3280   30.6980 H   0  0  0  0  0  0  0  0  0  0  0  0
   35.4750   26.3280   30.3270 O   0  0  0  0  0  0  0  0  0  0  0  0
   35.3330   26.4560   29.3550 H   0  0  0  0  0  0  0  0  0  0  0  0
  1  2  1  0  0  0  0
  2  7  1  0  0  0  0
  2  3  2  0  0  0  0
  3  9  1  0  0  0  0
  4  3  1  0  0  0  0
  5  4  2  0  0  0  0
  6  5  1  0  0  0  0
  6  1  2  0  0  0  0
  8  5  1  0  0  0  0
  9 10  1  0  0  0  0
  9 11  1  0  0  0  0
 11 13  1  0  0  0  0
 11 12  1  0  0  0  0
 14 15  1  0  0  0  0
 14 11  1  0  0  0  0
 16  1  1  0  0  0  0
 17 18  2  0  0  0  0
 18 16  1  0  0  0  0
 19 20  1  0  0  0  0
 19 18  1  0  0  0  0
 21 18  1  0  0  0  0
 22 21  1  0  0  0  0
M  END
>  <minimizedAffinity>
-4.41188431

$$$$

 OpenBabel03272506153D

 22 22  0  0  0  0  0  0  0  0999 V2000
   37.8260   26.6570   33.5040 C   0  0  0  0  0  0  0  0  0  0  0  0
   37.6440   25.7500   34.5460 C   0  0  0  0  0  0  0  0  0  0  0  0
   38.7270   25.3570   35.3080 C   0  0  0  0  0  0  0  0  0  0  0  0
   39.9590   25.8760   35.0100 N   0  0  0  0  0  0  0  0  0  0  0  0
   40.1140   26.7530   33.9950 C   0  0  0  0  0  0  0  0  0  0  0  0
   39.0470   27.1410   33.2450 N   0  0  0  0  0  0  0  0  0  0  0  0
   36.6600   25.3970   34.7110 H   0  0  0  0  0  0  0  0  0  0  0  0
   41.1100   27.1180   33.8200 H   0  0  0  0  0  0  0  0  0  0  0  0
   38.5950   24.4380   36.3780 N   0  0  0  0  0  0  0  0  0  0  0  0
   37.8030   24.5620   37.0540 H   0  0  0  0  0  0  0  0  0  0  0  0
   39.5300   23.0750   36.8280 S   0  0  0  0  0  0  0  0  0  0  0  0
   40.9900   23.2400   36.6600 O   0  0  0  0  0  1  0  0  0  0  0  0
   39.0710   21.9090   35.9620 O   0  0  0  0  0  1  0  0  0  0  0  0
   39.2020   22.6230   38.4360 O   0  0  0  0  0  0  0  0  0  0  0  0
   39.9410   22.9940   38.9800 H   0  0  0  0  0  0  0  0  0  0  0  0
   36.8400   27.1350   32.6650 O   0  0  0  0  0  0  0  0  0  0  0  0
   37.6100   25.4480   30.7060 O   0  0  0  0  0  0  0  0  0  0  0  0
   36.5050   26.3970   31.1500 P   0  0  0  0  0  0  0  0  0  0  0  0
   35.0430   25.5460   31.3390 O   0  0  0  0  0  0  0  0  0  0  0  0
   34.5490   25.8460   32.1330 H   0  0  0  0  0  0  0  0  0  0  0  0
   36.3710   27.5890   29.9550 O   0  0  0  0  0  0  0  0  0  0  0  0
   36.2680   27.1030   29.0980 H   0  0  0  0  0  0  0  0  0  0  0  0
  1  2  1  0  0  0  0
  2  7  1  0  0  0  0
  2  3  2  0  0  0  0
  3  9  1  0  0  0  0
  4  3  1  0  0  0  0
  5  4  2  0  0  0  0
  6  1  2  0  0  0  0
  6  5  1  0  0  0  0
  8  5  1  0  0  0  0
  9 11  1  0  0  0  0
  9 10  1  0  0  0  0
 11 14  1  0  0  0  0
 12 11  1  0  0  0  0
 13 11  1  0  0  0  0
 14 15  1  0  0  0  0
 16  1  1  0  0  0  0
 17 18  2  0  0  0  0
 18 19  1  0  0  0  0
 18 16  1  0  0  0  0
 19 20  1  0  0  0  0
 21 18  1  0  0  0  0
 22 21  1  0  0  0  0
M  END
>  <minimizedAffinity>
-4.37647963

$$$$

 OpenBabel03272506153D

 22 22  0  0  0  0  0  0  0  0999 V2000
   38.1340   24.7930   35.3560 C   0  0  0  0  0  0  0  0  0  0  0  0
   37.6030   26.0000   34.9020 C   0  0  0  0  0  0  0  0  0  0  0  0
   37.2400   26.1310   33.5770 C   0  0  0  0  0  0  0  0  0  0  0  0
   37.4150   25.0600   32.7400 N   0  0  0  0  0  0  0  0  0  0  0  0
   37.9310   23.9000   33.2000 C   0  0  0  0  0  0  0  0  0  0  0  0
   38.2880   23.7700   34.5070 N   0  0  0  0  0  0  0  0  0  0  0  0
   37.5010   26.7780   35.6120 H   0  0  0  0  0  0  0  0  0  0  0  0
   38.0390   23.1030   32.4860 H   0  0  0  0  0  0  0  0  0  0  0  0
   36.6980   27.3370   33.0650 N   0  0  0  0  0  0  0  0  0  0  0  0
   35.9500   27.8250   33.6140 H   0  0  0  0  0  0  0  0  0  0  0  0
   37.0320   28.2170   31.6350 S   0  0  0  0  0  0  0  0  0  0  0  0
   36.7120   29.6600   31.7040 O   0  0  0  0  0  1  0  0  0  0  0  0
   36.2060   27.5910   30.5180 O   0  0  0  0  0  1  0  0  0  0  0  0
   38.6610   28.0290   31.1770 O   0  0  0  0  0  0  0  0  0  0  0  0
   39.1270   28.8440   31.4880 H   0  0  0  0  0  0  0  0  0  0  0  0
   38.5380   24.5210   36.6470 O   0  0  0  0  0  0  0  0  0  0  0  0
   40.5930   22.7740   36.6050 O   0  0  0  0  0  0  0  0  0  0  0  0
   39.1670   22.9850   37.0930 P   0  0  0  0  0  0  0  0  0  0  0  0
   39.1120   22.9160   38.7930 O   0  0  0  0  0  0  0  0  0  0  0  0
   38.5110   23.5970   39.1640 H   0  0  0  0  0  0  0  0  0  0  0  0
   38.2230   21.7620   36.3980 O   0  0  0  0  0  0  0  0  0  0  0  0
   38.6810   20.9120   36.6140 H   0  0  0  0  0  0  0  0  0  0  0  0
  1 16  1  0  0  0  0
  2  1  1  0  0  0  0
  2  7  1  0  0  0  0
  3  2  2  0  0  0  0
  4  5  2  0  0  0  0
  4  3  1  0  0  0  0
  5  6  1  0  0  0  0
  6  1  2  0  0  0  0
  8  5  1  0  0  0  0
  9  3  1  0  0  0  0
  9 10  1  0  0  0  0
 11 12  1  0  0  0  0
 11  9  1  0  0  0  0
 13 11  1  0  0  0  0
 14 15  1  0  0  0  0
 14 11  1  0  0  0  0
 16 18  1  0  0  0  0
 17 18  2  0  0  0  0
 18 19  1  0  0  0  0
 19 20  1  0  0  0  0
 21 22  1  0  0  0  0
 21 18  1  0  0  0  0
M  END
>  <minimizedAffinity>
-4.32982254

$$$$

 OpenBabel03272506153D

 22 22  0  0  0  0  0  0  0  0999 V2000
   35.2000   30.3590   34.3140 C   0  0  0  0  0  0  0  0  0  0  0  0
   35.5370   29.0280   34.0720 C   0  0  0  0  0  0  0  0  0  0  0  0
   36.1130   28.6760   32.8680 C   0  0  0  0  0  0  0  0  0  0  0  0
   36.3380   29.6570   31.9380 N   0  0  0  0  0  0  0  0  0  0  0  0
   36.0040   30.9410   32.1920 C   0  0  0  0  0  0  0  0  0  0  0  0
   35.4360   31.2880   33.3790 N   0  0  0  0  0  0  0  0  0  0  0  0
   35.3300   28.3320   34.8420 H   0  0  0  0  0  0  0  0  0  0  0  0
   36.2090   31.6560   31.4160 H   0  0  0  0  0  0  0  0  0  0  0  0
   36.4730   27.3380   32.5720 N   0  0  0  0  0  0  0  0  0  0  0  0
   36.9780   26.7790   33.3030 H   0  0  0  0  0  0  0  0  0  0  0  0
   36.2410   26.3810   31.1720 S   0  0  0  0  0  0  0  0  0  0  0  0
   35.0000   25.5750   31.1670 O   0  0  0  0  0  1  0  0  0  0  0  0
   37.4320   25.4350   31.0710 O   0  0  0  0  0  1  0  0  0  0  0  0
   36.2850   27.3430   29.7690 O   0  0  0  0  0  0  0  0  0  0  0  0
   35.3420   27.4970   29.5130 H   0  0  0  0  0  0  0  0  0  0  0  0
   34.6210   30.8520   35.4660 O   0  0  0  0  0  0  0  0  0  0  0  0
   34.1960   33.5150   35.5240 O   0  0  0  0  0  0  0  0  0  0  0  0
   35.0440   32.3910   36.1030 P   0  0  0  0  0  0  0  0  0  0  0  0
   34.8180   32.2940   37.7870 O   0  0  0  0  0  0  0  0  0  0  0  0
   34.7690   31.3630   38.0940 H   0  0  0  0  0  0  0  0  0  0  0  0
   36.6550   32.7410   35.7180 O   0  0  0  0  0  0  0  0  0  0  0  0
   36.8120   33.6670   36.0300 H   0  0  0  0  0  0  0  0  0  0  0  0
  1 16  1  0  0  0  0
  2  1  1  0  0  0  0
  2  7  1  0  0  0  0
  3  2  2  0  0  0  0
  4  5  2  0  0  0  0
  4  3  1  0  0  0  0
  5  6  1  0  0  0  0
  6  1  2  0  0  0  0
  8  5  1  0  0  0  0
  9  3  1  0  0  0  0
  9 10  1  0  0  0  0
 11  9  1  0  0  0  0
 12 11  1  0  0  0  0
 13 11  1  0  0  0  0
 14 11  1  0  0  0  0
 15 14  1  0  0  0  0
 16 18  1  0  0  0  0
 17 18  2  0  0  0  0
 18 19  1  0  0  0  0
 19 20  1  0  0  0  0
 21 22  1  0  0  0  0
 21 18  1  0  0  0  0
M  END
>  <minimizedAffinity>
-4.32390738

$$$$

 OpenBabel03272506153D

 22 22  0  0  0  0  0  0  0  0999 V2000
   37.8490   26.2630   33.2760 C   0  0  0  0  0  0  0  0  0  0  0  0
   37.5550   25.9800   34.6080 C   0  0  0  0  0  0  0  0  0  0  0  0
   38.4050   25.1750   35.3400 C   0  0  0  0  0  0  0  0  0  0  0  0
   39.5220   24.6730   34.7260 N   0  0  0  0  0  0  0  0  0  0  0  0
   39.7880   24.9590   33.4330 C   0  0  0  0  0  0  0  0  0  0  0  0
   38.9510   25.7540   32.7120 N   0  0  0  0  0  0  0  0  0  0  0  0
   36.6730   26.4070   35.0080 H   0  0  0  0  0  0  0  0  0  0  0  0
   40.6820   24.5300   33.0180 H   0  0  0  0  0  0  0  0  0  0  0  0
   38.1510   24.8560   36.6970 N   0  0  0  0  0  0  0  0  0  0  0  0
   37.8570   25.6240   37.3480 H   0  0  0  0  0  0  0  0  0  0  0  0
   38.2340   23.3750   37.5520 S   0  0  0  0  0  0  0  0  0  0  0  0
   36.9330   22.7050   37.7640 O   0  0  0  0  0  1  0  0  0  0  0  0
   38.8520   23.6750   38.9130 O   0  0  0  0  0  1  0  0  0  0  0  0
   39.2990   22.2930   36.7820 O   0  0  0  0  0  0  0  0  0  0  0  0
   38.7290   21.6720   36.2640 H   0  0  0  0  0  0  0  0  0  0  0  0
   37.0930   27.0490   32.4290 O   0  0  0  0  0  0  0  0  0  0  0  0
   34.9640   25.9020   31.2360 O   0  0  0  0  0  0  0  0  0  0  0  0
   36.3790   26.4120   31.0020 P   0  0  0  0  0  0  0  0  0  0  0  0
   36.3650   27.6760   29.8620 O   0  0  0  0  0  0  0  0  0  0  0  0
   36.9820   28.3970   30.1130 H   0  0  0  0  0  0  0  0  0  0  0  0
   37.2910   25.0960   30.4490 O   0  0  0  0  0  0  0  0  0  0  0  0
   36.7860   24.7200   29.6850 H   0  0  0  0  0  0  0  0  0  0  0  0
  1  2  1  0  0  0  0
  2  7  1  0  0  0  0
  2  3  2  0  0  0  0
  3  9  1  0  0  0  0
  4  3  1  0  0  0  0
  5  4  2  0  0  0  0
  6  1  2  0  0  0  0
  6  5  1  0  0  0  0
  8  5  1  0  0  0  0
  9 10  1  0  0  0  0
  9 11  1  0  0  0  0
 11 12  1  0  0  0  0
 11 13  1  0  0  0  0
 14 11  1  0  0  0  0
 15 14  1  0  0  0  0
 16  1  1  0  0  0  0
 18 17  2  0  0  0  0
 18 16  1  0  0  0  0
 19 20  1  0  0  0  0
 19 18  1  0  0  0  0
 21 18  1  0  0  0  0
 22 21  1  0  0  0  0
M  END
>  <minimizedAffinity>
-4.25806904

$$$$

 OpenBabel03272506153D

 22 22  0  0  0  0  0  0  0  0999 V2000
   36.9670   27.2630   34.3350 C   0  0  0  0  0  0  0  0  0  0  0  0
   37.5850   26.6110   35.4010 C   0  0  0  0  0  0  0  0  0  0  0  0
   38.0720   25.3310   35.2310 C   0  0  0  0  0  0  0  0  0  0  0  0
   37.9310   24.7350   34.0050 N   0  0  0  0  0  0  0  0  0  0  0  0
   37.3290   25.3840   32.9850 C   0  0  0  0  0  0  0  0  0  0  0  0
   36.8500   26.6460   33.1530 N   0  0  0  0  0  0  0  0  0  0  0  0
   37.6530   27.1410   36.3150 H   0  0  0  0  0  0  0  0  0  0  0  0
   37.2550   24.8530   32.0530 H   0  0  0  0  0  0  0  0  0  0  0  0
   38.7060   24.6250   36.2830 N   0  0  0  0  0  0  0  0  0  0  0  0
   39.4200   25.1250   36.8660 H   0  0  0  0  0  0  0  0  0  0  0  0
   38.5390   23.0120   36.8330 S   0  0  0  0  0  0  0  0  0  0  0  0
   39.0710   21.9830   35.9130 O   0  0  0  0  0  1  0  0  0  0  0  0
   37.0500   22.7570   37.0340 O   0  0  0  0  0  1  0  0  0  0  0  0
   39.2600   22.8180   38.3620 O   0  0  0  0  0  0  0  0  0  0  0  0
   40.1430   22.4030   38.1970 H   0  0  0  0  0  0  0  0  0  0  0  0
   36.4370   28.5370   34.3620 O   0  0  0  0  0  0  0  0  0  0  0  0
   35.5300   30.7700   33.1510 O   0  0  0  0  0  0  0  0  0  0  0  0
   35.8240   29.2910   32.9450 P   0  0  0  0  0  0  0  0  0  0  0  0
   37.0110   29.0930   31.7410 O   0  0  0  0  0  0  0  0  0  0  0  0
   37.6530   28.3880   31.9770 H   0  0  0  0  0  0  0  0  0  0  0  0
   34.3660   28.5570   32.4960 O   0  0  0  0  0  0  0  0  0  0  0  0
   34.0200   29.0860   31.7340 H   0  0  0  0  0  0  0  0  0  0  0  0
  1 16  1  0  0  0  0
  1  2  1  0  0  0  0
  2  7  1  0  0  0  0
  3  2  2  0  0  0  0
  3  9  1  0  0  0  0
  4  3  1  0  0  0  0
  5  6  1  0  0  0  0
  5  4  2  0  0  0  0
  6  1  2  0  0  0  0
  8  5  1  0  0  0  0
  9 11  1  0  0  0  0
  9 10  1  0  0  0  0
 11 13  1  0  0  0  0
 11 14  1  0  0  0  0
 12 11  1  0  0  0  0
 15 14  1  0  0  0  0
 18 17  2  0  0  0  0
 18 16  1  0  0  0  0
 19 20  1  0  0  0  0
 19 18  1  0  0  0  0
 21 18  1  0  0  0  0
 22 21  1  0  0  0  0
M  END
>  <minimizedAffinity>
-4.22208309

$$$$
