
 OpenBabel03272510153D

 26 27  0  0  0  0  0  0  0  0999 V2000
   37.1100   29.6190   51.2350 Br  0  0  0  0  0  0  0  0  0  0  0  0
   35.9930   29.3490   49.7200 C   0  0  0  0  0  0  0  0  0  0  0  0
   36.1330   30.1190   48.5860 C   0  0  0  0  0  0  0  0  0  0  0  0
   35.2830   29.8610   47.5270 C   0  0  0  0  0  0  0  0  0  0  0  0
   34.3100   28.8760   47.5570 C   0  0  0  0  0  0  0  0  0  0  0  0
   34.1950   28.1260   48.6980 C   0  0  0  0  0  0  0  0  0  0  0  0
   35.0400   28.3680   49.7760 C   0  0  0  0  0  0  0  0  0  0  0  0
   35.4020   30.4790   46.6290 H   0  0  0  0  0  0  0  0  0  0  0  0
   33.4310   27.3590   48.7100 H   0  0  0  0  0  0  0  0  0  0  0  0
   34.8740   27.7240   50.6380 H   0  0  0  0  0  0  0  0  0  0  0  0
   37.9740   33.1590   49.3990 C   0  0  0  0  0  0  0  0  0  0  0  0
   39.0290   33.1860   48.4480 C   0  0  0  0  0  0  0  0  0  0  0  0
   39.0780   32.1410   47.5400 C   0  0  0  0  0  0  0  0  0  0  0  0
   38.1340   31.1440   47.5880 N   0  0  0  0  0  0  0  0  0  0  0  0
   37.1460   31.1660   48.5170 C   0  0  0  0  0  0  0  0  0  0  0  0
   37.0680   32.1770   49.4240 N   0  0  0  0  0  0  0  0  0  0  0  0
   37.8590   33.9380   50.1480 H   0  0  0  0  0  0  0  0  0  0  0  0
   39.7230   34.0060   48.4850 H   0  0  0  0  0  0  0  0  0  0  0  0
   39.8690   32.1470   46.8140 H   0  0  0  0  0  0  0  0  0  0  0  0
   33.5080   28.7330   46.3780 N   0  0  0  0  0  0  0  0  0  0  0  0
   33.7270   27.8510   45.9090 H   0  0  0  0  0  0  0  0  0  0  0  0
   32.3480   29.8970   45.8490 S   0  0  0  0  0  0  0  0  0  0  0  0
   32.2770   29.9040   44.3630 O   0  0  0  0  0  1  0  0  0  0  0  0
   30.9880   29.4600   46.3720 O   0  0  0  0  0  1  0  0  0  0  0  0
   32.6260   31.4190   46.5010 O   0  0  0  0  0  0  0  0  0  0  0  0
   33.3160   31.8630   45.9380 H   0  0  0  0  0  0  0  0  0  0  0  0
  2  7  1  0  0  0  0
  2  1  1  0  0  0  0
  3  2  2  0  0  0  0
  4  5  2  0  0  0  0
  4  3  1  0  0  0  0
  5  6  1  0  0  0  0
  6  9  1  0  0  0  0
  6  7  2  0  0  0  0
  7 10  1  0  0  0  0
  8  4  1  0  0  0  0
 11 16  1  0  0  0  0
 11 17  1  0  0  0  0
 12 18  1  0  0  0  0
 12 11  2  0  0  0  0
 13 14  2  0  0  0  0
 13 12  1  0  0  0  0
 14 15  1  0  0  0  0
 15  3  1  0  0  0  0
 15 16  2  0  0  0  0
 19 13  1  0  0  0  0
 20  5  1  0  0  0  0
 21 20  1  0  0  0  0
 22 24  1  0  0  0  0
 22 20  1  0  0  0  0
 22 25  1  0  0  0  0
 23 22  1  0  0  0  0
 26 25  1  0  0  0  0
M  END
>  <minimizedAffinity>
-5.98516417

>  <minimizedRMSD>
1.06874049

$$$$
