
 OpenBabel03262521053D

 26 27  0  0  0  0  0  0  0  0999 V2000
   38.3000   27.2380   35.3940 Br  0  0  0  0  0  0  0  0  0  0  0  0
   38.0590   25.6190   34.4530 C   0  0  0  0  0  0  0  0  0  0  0  0
   37.5860   25.7270   33.1770 C   0  0  0  0  0  0  0  0  0  0  0  0
   37.3810   24.5770   32.4130 C   0  0  0  0  0  0  0  0  0  0  0  0
   37.6620   23.3340   32.9650 C   0  0  0  0  0  0  0  0  0  0  0  0
   38.1290   23.2970   34.2390 C   0  0  0  0  0  0  0  0  0  0  0  0
   38.3380   24.4080   35.0070 C   0  0  0  0  0  0  0  0  0  0  0  0
   37.0070   24.5890   31.3920 H   0  0  0  0  0  0  0  0  0  0  0  0
   37.5010   22.4360   32.3680 H   0  0  0  0  0  0  0  0  0  0  0  0
   38.3370   22.3130   34.6340 H   0  0  0  0  0  0  0  0  0  0  0  0
   36.0140   27.6170   32.5500 C   0  0  0  0  0  0  0  0  0  0  0  0
   37.2420   26.9560   32.4520 C   0  0  0  0  0  0  0  0  0  0  0  0
   38.2190   27.5200   31.5900 C   0  0  0  0  0  0  0  0  0  0  0  0
   37.8790   28.6700   30.9200 N   0  0  0  0  0  0  0  0  0  0  0  0
   36.6860   29.2530   31.0580 C   0  0  0  0  0  0  0  0  0  0  0  0
   35.7530   28.7360   31.8660 N   0  0  0  0  0  0  0  0  0  0  0  0
   35.2780   27.1760   33.2120 H   0  0  0  0  0  0  0  0  0  0  0  0
   39.2020   27.0600   31.4620 H   0  0  0  0  0  0  0  0  0  0  0  0
   36.5980   30.1540   30.4490 H   0  0  0  0  0  0  0  0  0  0  0  0
   38.8260   24.3830   36.3380 N   0  0  0  0  0  0  0  0  0  0  0  0
   39.6820   24.9110   36.6150 H   0  0  0  0  0  0  0  0  0  0  0  0
   38.3080   23.6170   37.7610 S   0  0  0  0  0  0  0  0  0  0  0  0
   37.0490   22.8350   37.5260 O   0  0  0  0  0  1  0  0  0  0  0  0
   37.9960   24.6540   38.8160 O   0  0  0  0  0  1  0  0  0  0  0  0
   39.5320   22.5820   38.3010 O   0  0  0  0  0  0  0  0  0  0  0  0
   39.4820   21.8000   37.6690 H   0  0  0  0  0  0  0  0  0  0  0  0
  2  7  1  0  0  0  0
  2  1  1  0  0  0  0
  3  2  2  0  0  0  0
  4  5  2  0  0  0  0
  4  3  1  0  0  0  0
  5  6  1  0  0  0  0
  6 10  1  0  0  0  0
  6  7  2  0  0  0  0
  7 20  1  0  0  0  0
  8  4  1  0  0  0  0
  9  5  1  0  0  0  0
 11 17  1  0  0  0  0
 12 11  1  0  0  0  0
 12  3  1  0  0  0  0
 13 12  2  0  0  0  0
 14 15  2  0  0  0  0
 14 13  1  0  0  0  0
 15 16  1  0  0  0  0
 16 11  2  0  0  0  0
 18 13  1  0  0  0  0
 19 15  1  0  0  0  0
 20 21  1  0  0  0  0
 20 22  1  0  0  0  0
 22 25  1  0  0  0  0
 22 24  1  0  0  0  0
 23 22  1  0  0  0  0
 26 25  1  0  0  0  0
M  END
>  <minimizedAffinity>
-4.89935398

$$$$

 OpenBabel03262521053D

 26 27  0  0  0  0  0  0  0  0999 V2000
   36.1720   32.2840   35.5560 Br  0  0  0  0  0  0  0  0  0  0  0  0
   34.5120   31.4950   35.9900 C   0  0  0  0  0  0  0  0  0  0  0  0
   34.0960   30.4820   35.1760 C   0  0  0  0  0  0  0  0  0  0  0  0
   32.8800   29.8440   35.4280 C   0  0  0  0  0  0  0  0  0  0  0  0
   32.1080   30.2540   36.5080 C   0  0  0  0  0  0  0  0  0  0  0  0
   32.5810   31.2670   37.2770 C   0  0  0  0  0  0  0  0  0  0  0  0
   33.7670   31.9060   37.0510 C   0  0  0  0  0  0  0  0  0  0  0  0
   32.4870   29.0310   34.8220 H   0  0  0  0  0  0  0  0  0  0  0  0
   31.1590   29.7550   36.7050 H   0  0  0  0  0  0  0  0  0  0  0  0
   31.9540   31.5570   38.1080 H   0  0  0  0  0  0  0  0  0  0  0  0
   35.7520   28.9250   34.0510 C   0  0  0  0  0  0  0  0  0  0  0  0
   34.7870   29.9350   34.0020 C   0  0  0  0  0  0  0  0  0  0  0  0
   34.4580   30.4620   32.7260 C   0  0  0  0  0  0  0  0  0  0  0  0
   35.1160   29.9370   31.6400 N   0  0  0  0  0  0  0  0  0  0  0  0
   36.0290   28.9710   31.7530 C   0  0  0  0  0  0  0  0  0  0  0  0
   36.3530   28.4620   32.9490 N   0  0  0  0  0  0  0  0  0  0  0  0
   35.9940   28.5310   35.0320 H   0  0  0  0  0  0  0  0  0  0  0  0
   33.7140   31.2530   32.6090 H   0  0  0  0  0  0  0  0  0  0  0  0
   36.4430   28.6830   30.7860 H   0  0  0  0  0  0  0  0  0  0  0  0
   34.2720   32.9660   37.8470 N   0  0  0  0  0  0  0  0  0  0  0  0
   35.0380   32.8110   38.5380 H   0  0  0  0  0  0  0  0  0  0  0  0
   33.8980   34.6160   37.9730 S   0  0  0  0  0  0  0  0  0  0  0  0
   32.4480   34.8660   37.6820 O   0  0  0  0  0  1  0  0  0  0  0  0
   34.6970   35.4020   36.9590 O   0  0  0  0  0  1  0  0  0  0  0  0
   34.2650   35.1400   39.5400 O   0  0  0  0  0  0  0  0  0  0  0  0
   33.5200   34.7610   40.1010 H   0  0  0  0  0  0  0  0  0  0  0  0
  1  2  1  0  0  0  0
  2  7  1  0  0  0  0
  3  4  1  0  0  0  0
  3  2  2  0  0  0  0
  4  5  2  0  0  0  0
  5  9  1  0  0  0  0
  5  6  1  0  0  0  0
  6 10  1  0  0  0  0
  7  6  2  0  0  0  0
  7 20  1  0  0  0  0
  8  4  1  0  0  0  0
 11 17  1  0  0  0  0
 12 11  1  0  0  0  0
 12  3  1  0  0  0  0
 13 12  2  0  0  0  0
 14 15  2  0  0  0  0
 14 13  1  0  0  0  0
 15 16  1  0  0  0  0
 16 11  2  0  0  0  0
 18 13  1  0  0  0  0
 19 15  1  0  0  0  0
 20 22  1  0  0  0  0
 20 21  1  0  0  0  0
 22 25  1  0  0  0  0
 23 22  1  0  0  0  0
 24 22  1  0  0  0  0
 25 26  1  0  0  0  0
M  END
>  <minimizedAffinity>
-4.80420732

$$$$

 OpenBabel03262521053D

 26 27  0  0  0  0  0  0  0  0999 V2000
   38.5390   27.0570   35.2550 Br  0  0  0  0  0  0  0  0  0  0  0  0
   38.0500   25.7420   33.9910 C   0  0  0  0  0  0  0  0  0  0  0  0
   38.1620   24.4440   34.3970 C   0  0  0  0  0  0  0  0  0  0  0  0
   37.8200   23.4110   33.5230 C   0  0  0  0  0  0  0  0  0  0  0  0
   37.3700   23.7220   32.2460 C   0  0  0  0  0  0  0  0  0  0  0  0
   37.2820   25.0330   31.9060 C   0  0  0  0  0  0  0  0  0  0  0  0
   37.6110   26.0610   32.7440 C   0  0  0  0  0  0  0  0  0  0  0  0
   37.8850   22.3560   33.7790 H   0  0  0  0  0  0  0  0  0  0  0  0
   37.1030   22.9150   31.5630 H   0  0  0  0  0  0  0  0  0  0  0  0
   36.9270   25.2350   30.9060 H   0  0  0  0  0  0  0  0  0  0  0  0
   39.9070   23.4740   35.9620 C   0  0  0  0  0  0  0  0  0  0  0  0
   38.6190   23.9510   35.7020 C   0  0  0  0  0  0  0  0  0  0  0  0
   37.6950   23.9570   36.7800 C   0  0  0  0  0  0  0  0  0  0  0  0
   38.1410   23.4910   37.9930 N   0  0  0  0  0  0  0  0  0  0  0  0
   39.3870   23.0490   38.1770 C   0  0  0  0  0  0  0  0  0  0  0  0
   40.2710   23.0360   37.1720 N   0  0  0  0  0  0  0  0  0  0  0  0
   40.6020   23.4760   35.1300 H   0  0  0  0  0  0  0  0  0  0  0  0
   36.6710   24.3140   36.6530 H   0  0  0  0  0  0  0  0  0  0  0  0
   39.5580   22.7210   39.2030 H   0  0  0  0  0  0  0  0  0  0  0  0
   37.5230   27.4350   32.4010 N   0  0  0  0  0  0  0  0  0  0  0  0
   38.2330   28.1240   32.7290 H   0  0  0  0  0  0  0  0  0  0  0  0
   36.4240   28.3440   31.4820 S   0  0  0  0  0  0  0  0  0  0  0  0
   36.8330   29.7870   31.4230 O   0  0  0  0  0  1  0  0  0  0  0  0
   35.0570   28.2960   32.1250 O   0  0  0  0  0  1  0  0  0  0  0  0
   36.3590   27.7030   29.9180 O   0  0  0  0  0  0  0  0  0  0  0  0
   37.2190   28.0130   29.4950 H   0  0  0  0  0  0  0  0  0  0  0  0
  2  3  1  0  0  0  0
  2  1  1  0  0  0  0
  3 12  1  0  0  0  0
  4  8  1  0  0  0  0
  4  3  2  0  0  0  0
  5  4  1  0  0  0  0
  6  5  2  0  0  0  0
  6  7  1  0  0  0  0
  7  2  2  0  0  0  0
  9  5  1  0  0  0  0
 10  6  1  0  0  0  0
 11 16  1  0  0  0  0
 12 11  2  0  0  0  0
 12 13  1  0  0  0  0
 13 14  2  0  0  0  0
 14 15  1  0  0  0  0
 15 19  1  0  0  0  0
 16 15  2  0  0  0  0
 17 11  1  0  0  0  0
 18 13  1  0  0  0  0
 20 21  1  0  0  0  0
 20  7  1  0  0  0  0
 22 24  1  0  0  0  0
 22 20  1  0  0  0  0
 23 22  1  0  0  0  0
 25 22  1  0  0  0  0
 26 25  1  0  0  0  0
M  END
>  <minimizedAffinity>
-4.72650146

$$$$

 OpenBabel03262521053D

 26 27  0  0  0  0  0  0  0  0999 V2000
   36.6560   25.2890   32.1690 Br  0  0  0  0  0  0  0  0  0  0  0  0
   37.3430   26.0360   33.7620 C   0  0  0  0  0  0  0  0  0  0  0  0
   37.1590   27.3790   33.9260 C   0  0  0  0  0  0  0  0  0  0  0  0
   37.6370   28.0090   35.0760 C   0  0  0  0  0  0  0  0  0  0  0  0
   38.2950   27.2570   36.0410 C   0  0  0  0  0  0  0  0  0  0  0  0
   38.4440   25.9270   35.8150 C   0  0  0  0  0  0  0  0  0  0  0  0
   37.9860   25.2870   34.6970 C   0  0  0  0  0  0  0  0  0  0  0  0
   37.5250   29.0730   35.2730 H   0  0  0  0  0  0  0  0  0  0  0  0
   38.6680   27.7490   36.9390 H   0  0  0  0  0  0  0  0  0  0  0  0
   38.9610   25.3750   36.5870 H   0  0  0  0  0  0  0  0  0  0  0  0
   35.2500   28.9070   33.2510 C   0  0  0  0  0  0  0  0  0  0  0  0
   36.4900   28.3090   33.0090 C   0  0  0  0  0  0  0  0  0  0  0  0
   37.1420   28.6310   31.7890 C   0  0  0  0  0  0  0  0  0  0  0  0
   36.5000   29.5030   30.9440 N   0  0  0  0  0  0  0  0  0  0  0  0
   35.3140   30.0410   31.2350 C   0  0  0  0  0  0  0  0  0  0  0  0
   34.6850   29.7490   32.3800 N   0  0  0  0  0  0  0  0  0  0  0  0
   34.7640   28.6530   34.1870 H   0  0  0  0  0  0  0  0  0  0  0  0
   38.1130   28.2020   31.5300 H   0  0  0  0  0  0  0  0  0  0  0  0
   34.9620   30.7080   30.4470 H   0  0  0  0  0  0  0  0  0  0  0  0
   38.1360   23.8990   34.4500 N   0  0  0  0  0  0  0  0  0  0  0  0
   38.4220   23.5400   33.5130 H   0  0  0  0  0  0  0  0  0  0  0  0
   37.9410   22.5110   35.4070 S   0  0  0  0  0  0  0  0  0  0  0  0
   37.2850   22.8440   36.7140 O   0  0  0  0  0  1  0  0  0  0  0  0
   39.2940   21.9160   35.7260 O   0  0  0  0  0  1  0  0  0  0  0  0
   36.9950   21.3930   34.5600 O   0  0  0  0  0  0  0  0  0  0  0  0
   36.0620   21.7680   34.6260 H   0  0  0  0  0  0  0  0  0  0  0  0
  1  2  1  0  0  0  0
  2  3  2  0  0  0  0
  2  7  1  0  0  0  0
  3  4  1  0  0  0  0
  4  8  1  0  0  0  0
  4  5  2  0  0  0  0
  5  9  1  0  0  0  0
  6  5  1  0  0  0  0
  6 10  1  0  0  0  0
  7  6  2  0  0  0  0
 11 17  1  0  0  0  0
 12 11  1  0  0  0  0
 12  3  1  0  0  0  0
 13 12  2  0  0  0  0
 14 15  2  0  0  0  0
 14 13  1  0  0  0  0
 15 16  1  0  0  0  0
 16 11  2  0  0  0  0
 18 13  1  0  0  0  0
 19 15  1  0  0  0  0
 20  7  1  0  0  0  0
 20 22  1  0  0  0  0
 21 20  1  0  0  0  0
 22 24  1  0  0  0  0
 22 23  1  0  0  0  0
 25 26  1  0  0  0  0
 25 22  1  0  0  0  0
M  END
>  <minimizedAffinity>
-4.56825018

$$$$

 OpenBabel03262521053D

 26 27  0  0  0  0  0  0  0  0999 V2000
   38.3140   22.7840   33.6890 Br  0  0  0  0  0  0  0  0  0  0  0  0
   37.1980   23.8950   32.6470 C   0  0  0  0  0  0  0  0  0  0  0  0
   36.2980   23.2590   31.8410 C   0  0  0  0  0  0  0  0  0  0  0  0
   35.4350   24.0080   31.0380 C   0  0  0  0  0  0  0  0  0  0  0  0
   35.5060   25.3950   31.0730 C   0  0  0  0  0  0  0  0  0  0  0  0
   36.4240   25.9630   31.8960 C   0  0  0  0  0  0  0  0  0  0  0  0
   37.2790   25.2520   32.6910 C   0  0  0  0  0  0  0  0  0  0  0  0
   34.6950   23.5690   30.3740 H   0  0  0  0  0  0  0  0  0  0  0  0
   34.8320   25.9790   30.4460 H   0  0  0  0  0  0  0  0  0  0  0  0
   36.4490   27.0430   31.8960 H   0  0  0  0  0  0  0  0  0  0  0  0
   36.8480   20.9940   30.8410 C   0  0  0  0  0  0  0  0  0  0  0  0
   36.0980   21.8130   31.6890 C   0  0  0  0  0  0  0  0  0  0  0  0
   35.0740   21.1960   32.4550 C   0  0  0  0  0  0  0  0  0  0  0  0
   34.9020   19.8410   32.2990 N   0  0  0  0  0  0  0  0  0  0  0  0
   35.6540   19.1140   31.4700 C   0  0  0  0  0  0  0  0  0  0  0  0
   36.6240   19.6800   30.7410 N   0  0  0  0  0  0  0  0  0  0  0  0
   37.6270   21.4780   30.2620 H   0  0  0  0  0  0  0  0  0  0  0  0
   34.4470   21.7710   33.1390 H   0  0  0  0  0  0  0  0  0  0  0  0
   35.3720   18.0600   31.4800 H   0  0  0  0  0  0  0  0  0  0  0  0
   38.2410   25.8330   33.5550 N   0  0  0  0  0  0  0  0  0  0  0  0
   39.2510   25.8700   33.2990 H   0  0  0  0  0  0  0  0  0  0  0  0
   38.1510   26.5700   35.0810 S   0  0  0  0  0  0  0  0  0  0  0  0
   37.7740   25.5770   36.1400 O   0  0  0  0  0  1  0  0  0  0  0  0
   37.0800   27.6380   35.0720 O   0  0  0  0  0  1  0  0  0  0  0  0
   39.6550   27.2520   35.4460 O   0  0  0  0  0  0  0  0  0  0  0  0
   40.2280   26.4590   35.6830 H   0  0  0  0  0  0  0  0  0  0  0  0
  2  7  1  0  0  0  0
  2  1  1  0  0  0  0
  3  2  2  0  0  0  0
  4  5  2  0  0  0  0
  4  3  1  0  0  0  0
  5  6  1  0  0  0  0
  6 10  1  0  0  0  0
  6  7  2  0  0  0  0
  7 20  1  0  0  0  0
  8  4  1  0  0  0  0
  9  5  1  0  0  0  0
 11 12  1  0  0  0  0
 12  3  1  0  0  0  0
 12 13  2  0  0  0  0
 13 18  1  0  0  0  0
 14 13  1  0  0  0  0
 15 19  1  0  0  0  0
 15 14  2  0  0  0  0
 16 11  2  0  0  0  0
 16 15  1  0  0  0  0
 17 11  1  0  0  0  0
 20 22  1  0  0  0  0
 21 20  1  0  0  0  0
 22 25  1  0  0  0  0
 22 23  1  0  0  0  0
 24 22  1  0  0  0  0
 25 26  1  0  0  0  0
M  END
>  <minimizedAffinity>
-4.56404638

$$$$

 OpenBabel03262521053D

 26 27  0  0  0  0  0  0  0  0999 V2000
   38.5060   26.7910   33.6520 Br  0  0  0  0  0  0  0  0  0  0  0  0
   37.4370   25.4990   32.7850 C   0  0  0  0  0  0  0  0  0  0  0  0
   36.5190   25.9760   31.8940 C   0  0  0  0  0  0  0  0  0  0  0  0
   35.6890   25.0870   31.2090 C   0  0  0  0  0  0  0  0  0  0  0  0
   35.8100   23.7230   31.4460 C   0  0  0  0  0  0  0  0  0  0  0  0
   36.7430   23.3160   32.3440 C   0  0  0  0  0  0  0  0  0  0  0  0
   37.5670   24.1670   33.0270 C   0  0  0  0  0  0  0  0  0  0  0  0
   34.9370   25.3960   30.4870 H   0  0  0  0  0  0  0  0  0  0  0  0
   35.1620   23.0290   30.9110 H   0  0  0  0  0  0  0  0  0  0  0  0
   36.8080   22.2500   32.5020 H   0  0  0  0  0  0  0  0  0  0  0  0
   35.4150   28.2340   32.2350 C   0  0  0  0  0  0  0  0  0  0  0  0
   36.2660   27.3760   31.5330 C   0  0  0  0  0  0  0  0  0  0  0  0
   36.9290   27.9040   30.3930 C   0  0  0  0  0  0  0  0  0  0  0  0
   36.6800   29.2160   30.0720 N   0  0  0  0  0  0  0  0  0  0  0  0
   35.8540   29.9840   30.7850 C   0  0  0  0  0  0  0  0  0  0  0  0
   35.2200   29.5040   31.8620 N   0  0  0  0  0  0  0  0  0  0  0  0
   34.9150   27.8190   33.1030 H   0  0  0  0  0  0  0  0  0  0  0  0
   37.6090   27.2930   29.7950 H   0  0  0  0  0  0  0  0  0  0  0  0
   35.7810   30.9940   30.3790 H   0  0  0  0  0  0  0  0  0  0  0  0
   38.5450   23.7550   33.9670 N   0  0  0  0  0  0  0  0  0  0  0  0
   39.5310   23.5710   33.6820 H   0  0  0  0  0  0  0  0  0  0  0  0
   38.5090   23.4480   35.6350 S   0  0  0  0  0  0  0  0  0  0  0  0
   37.6430   24.4430   36.3500 O   0  0  0  0  0  1  0  0  0  0  0  0
   39.9010   23.5770   36.2100 O   0  0  0  0  0  1  0  0  0  0  0  0
   37.9130   21.8850   35.8900 O   0  0  0  0  0  0  0  0  0  0  0  0
   36.9240   21.9740   35.7200 H   0  0  0  0  0  0  0  0  0  0  0  0
  2  7  1  0  0  0  0
  2  1  1  0  0  0  0
  3  2  2  0  0  0  0
  4  5  2  0  0  0  0
  4  3  1  0  0  0  0
  5  6  1  0  0  0  0
  6 10  1  0  0  0  0
  6  7  2  0  0  0  0
  7 20  1  0  0  0  0
  8  4  1  0  0  0  0
  9  5  1  0  0  0  0
 11 17  1  0  0  0  0
 12  3  1  0  0  0  0
 12 11  2  0  0  0  0
 13 12  1  0  0  0  0
 14 13  2  0  0  0  0
 14 15  1  0  0  0  0
 15 16  2  0  0  0  0
 16 11  1  0  0  0  0
 18 13  1  0  0  0  0
 19 15  1  0  0  0  0
 20 22  1  0  0  0  0
 21 20  1  0  0  0  0
 22 25  1  0  0  0  0
 22 24  1  0  0  0  0
 22 23  1  0  0  0  0
 26 25  1  0  0  0  0
M  END
>  <minimizedAffinity>
-4.48799372

$$$$

 OpenBabel03262521053D

 26 27  0  0  0  0  0  0  0  0999 V2000
   36.8330   24.5400   32.0960 Br  0  0  0  0  0  0  0  0  0  0  0  0
   38.1130   25.3500   33.2230 C   0  0  0  0  0  0  0  0  0  0  0  0
   38.5270   26.6000   32.8630 C   0  0  0  0  0  0  0  0  0  0  0  0
   39.4720   27.2700   33.6430 C   0  0  0  0  0  0  0  0  0  0  0  0
   39.9780   26.6510   34.7790 C   0  0  0  0  0  0  0  0  0  0  0  0
   39.5240   25.4080   35.0800 C   0  0  0  0  0  0  0  0  0  0  0  0
   38.6000   24.7320   34.3320 C   0  0  0  0  0  0  0  0  0  0  0  0
   39.8460   28.2660   33.4160 H   0  0  0  0  0  0  0  0  0  0  0  0
   40.7160   27.1740   35.3880 H   0  0  0  0  0  0  0  0  0  0  0  0
   39.9400   24.9590   35.9700 H   0  0  0  0  0  0  0  0  0  0  0  0
   38.7000   27.3410   30.4430 C   0  0  0  0  0  0  0  0  0  0  0  0
   38.0940   27.3860   31.7020 C   0  0  0  0  0  0  0  0  0  0  0  0
   36.9830   28.2560   31.8600 C   0  0  0  0  0  0  0  0  0  0  0  0
   36.5920   28.9840   30.7620 N   0  0  0  0  0  0  0  0  0  0  0  0
   37.2150   28.8940   29.5850 C   0  0  0  0  0  0  0  0  0  0  0  0
   38.2640   28.0790   29.4170 N   0  0  0  0  0  0  0  0  0  0  0  0
   39.5470   26.6720   30.3370 H   0  0  0  0  0  0  0  0  0  0  0  0
   36.4580   28.3450   32.8140 H   0  0  0  0  0  0  0  0  0  0  0  0
   36.7650   29.5440   28.8330 H   0  0  0  0  0  0  0  0  0  0  0  0
   38.1180   23.4330   34.6360 N   0  0  0  0  0  0  0  0  0  0  0  0
   37.8300   22.7700   33.8850 H   0  0  0  0  0  0  0  0  0  0  0  0
   37.8590   22.5900   36.0850 S   0  0  0  0  0  0  0  0  0  0  0  0
   36.8020   21.5380   35.9170 O   0  0  0  0  0  1  0  0  0  0  0  0
   37.3710   23.5430   37.1530 O   0  0  0  0  0  1  0  0  0  0  0  0
   39.3120   21.8690   36.5630 O   0  0  0  0  0  0  0  0  0  0  0  0
   39.4110   21.0870   35.9360 H   0  0  0  0  0  0  0  0  0  0  0  0
  1  2  1  0  0  0  0
  2  7  1  0  0  0  0
  3  2  2  0  0  0  0
  3  4  1  0  0  0  0
  4  5  2  0  0  0  0
  5  6  1  0  0  0  0
  5  9  1  0  0  0  0
  6 10  1  0  0  0  0
  7 20  1  0  0  0  0
  7  6  2  0  0  0  0
  8  4  1  0  0  0  0
 11 12  1  0  0  0  0
 12 13  2  0  0  0  0
 12  3  1  0  0  0  0
 13 18  1  0  0  0  0
 14 13  1  0  0  0  0
 15 14  2  0  0  0  0
 16 15  1  0  0  0  0
 16 11  2  0  0  0  0
 17 11  1  0  0  0  0
 19 15  1  0  0  0  0
 20 22  1  0  0  0  0
 21 20  1  0  0  0  0
 22 25  1  0  0  0  0
 22 24  1  0  0  0  0
 23 22  1  0  0  0  0
 26 25  1  0  0  0  0
M  END
>  <minimizedAffinity>
-4.46482468

$$$$

 OpenBabel03262521053D

 26 27  0  0  0  0  0  0  0  0999 V2000
   38.5780   26.7750   33.5510 Br  0  0  0  0  0  0  0  0  0  0  0  0
   37.4690   25.4920   32.7200 C   0  0  0  0  0  0  0  0  0  0  0  0
   36.5530   25.9740   31.8290 C   0  0  0  0  0  0  0  0  0  0  0  0
   35.6950   25.0910   31.1710 C   0  0  0  0  0  0  0  0  0  0  0  0
   35.7870   23.7300   31.4330 C   0  0  0  0  0  0  0  0  0  0  0  0
   36.7200   23.3180   32.3290 C   0  0  0  0  0  0  0  0  0  0  0  0
   37.5700   24.1620   32.9860 C   0  0  0  0  0  0  0  0  0  0  0  0
   34.9430   25.4050   30.4500 H   0  0  0  0  0  0  0  0  0  0  0  0
   35.1170   23.0410   30.9180 H   0  0  0  0  0  0  0  0  0  0  0  0
   36.7620   22.2540   32.5060 H   0  0  0  0  0  0  0  0  0  0  0  0
   36.9380   28.0010   30.3550 C   0  0  0  0  0  0  0  0  0  0  0  0
   36.3290   27.3720   31.4440 C   0  0  0  0  0  0  0  0  0  0  0  0
   35.4320   28.1460   32.2270 C   0  0  0  0  0  0  0  0  0  0  0  0
   35.2350   29.4530   31.8500 N   0  0  0  0  0  0  0  0  0  0  0  0
   35.8490   29.9950   30.7970 C   0  0  0  0  0  0  0  0  0  0  0  0
   36.6980   29.2800   30.0470 N   0  0  0  0  0  0  0  0  0  0  0  0
   37.6200   27.3980   29.7660 H   0  0  0  0  0  0  0  0  0  0  0  0
   34.9190   27.7230   33.0930 H   0  0  0  0  0  0  0  0  0  0  0  0
   35.5700   31.0400   30.6530 H   0  0  0  0  0  0  0  0  0  0  0  0
   38.5490   23.7450   33.9240 N   0  0  0  0  0  0  0  0  0  0  0  0
   39.5330   23.5540   33.6360 H   0  0  0  0  0  0  0  0  0  0  0  0
   38.5160   23.4400   35.5930 S   0  0  0  0  0  0  0  0  0  0  0  0
   37.6610   24.4440   36.3090 O   0  0  0  0  0  1  0  0  0  0  0  0
   39.9110   23.5580   36.1620 O   0  0  0  0  0  1  0  0  0  0  0  0
   37.9080   21.8830   35.8510 O   0  0  0  0  0  0  0  0  0  0  0  0
   36.9190   21.9800   35.6850 H   0  0  0  0  0  0  0  0  0  0  0  0
  2  7  1  0  0  0  0
  2  1  1  0  0  0  0
  3  2  2  0  0  0  0
  4  5  2  0  0  0  0
  4  3  1  0  0  0  0
  5  6  1  0  0  0  0
  6 10  1  0  0  0  0
  6  7  2  0  0  0  0
  7 20  1  0  0  0  0
  8  4  1  0  0  0  0
  9  5  1  0  0  0  0
 11 12  1  0  0  0  0
 12  3  1  0  0  0  0
 12 13  2  0  0  0  0
 13 18  1  0  0  0  0
 14 13  1  0  0  0  0
 15 14  2  0  0  0  0
 16 11  2  0  0  0  0
 16 15  1  0  0  0  0
 17 11  1  0  0  0  0
 19 15  1  0  0  0  0
 20 22  1  0  0  0  0
 21 20  1  0  0  0  0
 22 25  1  0  0  0  0
 22 24  1  0  0  0  0
 22 23  1  0  0  0  0
 26 25  1  0  0  0  0
M  END
>  <minimizedAffinity>
-4.45693493

$$$$

 OpenBabel03262521053D

 26 27  0  0  0  0  0  0  0  0999 V2000
   37.2030   25.2320   32.7190 Br  0  0  0  0  0  0  0  0  0  0  0  0
   38.8670   26.0340   33.1090 C   0  0  0  0  0  0  0  0  0  0  0  0
   39.4410   25.6850   34.2980 C   0  0  0  0  0  0  0  0  0  0  0  0
   40.6720   26.2330   34.6620 C   0  0  0  0  0  0  0  0  0  0  0  0
   41.2970   27.1300   33.8050 C   0  0  0  0  0  0  0  0  0  0  0  0
   40.6720   27.4340   32.6390 C   0  0  0  0  0  0  0  0  0  0  0  0
   39.4680   26.9110   32.2610 C   0  0  0  0  0  0  0  0  0  0  0  0
   41.1860   26.0000   35.5920 H   0  0  0  0  0  0  0  0  0  0  0  0
   42.2590   27.5580   34.0900 H   0  0  0  0  0  0  0  0  0  0  0  0
   41.1890   28.1340   31.9990 H   0  0  0  0  0  0  0  0  0  0  0  0
   39.1040   23.3750   35.2900 C   0  0  0  0  0  0  0  0  0  0  0  0
   38.9140   24.7590   35.3080 C   0  0  0  0  0  0  0  0  0  0  0  0
   38.1590   25.3000   36.3820 C   0  0  0  0  0  0  0  0  0  0  0  0
   37.6740   24.4170   37.3170 N   0  0  0  0  0  0  0  0  0  0  0  0
   37.8920   23.1030   37.2420 C   0  0  0  0  0  0  0  0  0  0  0  0
   38.6020   22.5760   36.2370 N   0  0  0  0  0  0  0  0  0  0  0  0
   39.6830   22.9750   34.4640 H   0  0  0  0  0  0  0  0  0  0  0  0
   37.9680   26.3720   36.4630 H   0  0  0  0  0  0  0  0  0  0  0  0
   37.4310   22.5640   38.0710 H   0  0  0  0  0  0  0  0  0  0  0  0
   38.8050   27.2210   31.0460 N   0  0  0  0  0  0  0  0  0  0  0  0
   38.9930   26.6850   30.1710 H   0  0  0  0  0  0  0  0  0  0  0  0
   37.6480   28.3810   30.6060 S   0  0  0  0  0  0  0  0  0  0  0  0
   38.2780   29.5090   29.8420 O   0  0  0  0  0  1  0  0  0  0  0  0
   37.0230   28.9780   31.8460 O   0  0  0  0  0  1  0  0  0  0  0  0
   36.4650   27.6370   29.6540 O   0  0  0  0  0  0  0  0  0  0  0  0
   36.9160   27.5120   28.7620 H   0  0  0  0  0  0  0  0  0  0  0  0
  1  2  1  0  0  0  0
  2  3  1  0  0  0  0
  3  4  2  0  0  0  0
  3 12  1  0  0  0  0
  4  8  1  0  0  0  0
  5  9  1  0  0  0  0
  5  4  1  0  0  0  0
  6  5  2  0  0  0  0
  7  6  1  0  0  0  0
  7  2  2  0  0  0  0
 10  6  1  0  0  0  0
 11 12  2  0  0  0  0
 11 16  1  0  0  0  0
 12 13  1  0  0  0  0
 13 18  1  0  0  0  0
 13 14  2  0  0  0  0
 15 14  1  0  0  0  0
 15 19  1  0  0  0  0
 16 15  2  0  0  0  0
 17 11  1  0  0  0  0
 20  7  1  0  0  0  0
 21 20  1  0  0  0  0
 22 20  1  0  0  0  0
 22 24  1  0  0  0  0
 23 22  1  0  0  0  0
 25 22  1  0  0  0  0
 26 25  1  0  0  0  0
M  END
>  <minimizedAffinity>
-4.43983126

$$$$
