
 OpenBabel03272500283D

 32 33  0  0  0  0  0  0  0  0999 V2000
   36.9830   26.9000   33.4860 C   0  0  0  0  0  0  0  0  0  0  0  0
   37.1540   26.5930   32.4120 H   0  0  0  0  0  0  0  0  0  0  0  0
   36.2940   26.0820   33.8410 H   0  0  0  0  0  0  0  0  0  0  0  0
   36.2640   28.1440   33.4560 C   0  0  0  0  0  0  0  0  0  0  0  0
   35.4950   28.4540   32.3590 C   0  0  0  0  0  0  0  0  0  0  0  0
   34.7830   29.6620   32.3040 C   0  0  0  0  0  0  0  0  0  0  0  0
   34.9190   30.4910   33.4160 N   0  0  0  0  0  0  0  0  0  0  0  0
   35.6820   30.1460   34.4630 C   0  0  0  0  0  0  0  0  0  0  0  0
   36.3420   28.9770   34.4650 N   0  0  0  0  0  0  0  0  0  0  0  0
   35.3720   27.8310   31.4850 H   0  0  0  0  0  0  0  0  0  0  0  0
   34.1740   29.9410   31.4700 H   0  0  0  0  0  0  0  0  0  0  0  0
   35.7970   31.0170   35.5800 N   0  0  0  0  0  0  0  0  0  0  0  0
   36.7250   31.2110   36.0110 H   0  0  0  0  0  0  0  0  0  0  0  0
   34.4020   31.7780   36.2530 S   0  0  0  0  0  0  0  0  0  0  0  0
   33.9510   32.9180   35.3560 O   0  0  0  0  0  1  0  0  0  0  0  0
   33.2700   30.7960   36.2920 O   0  0  0  0  0  1  0  0  0  0  0  0
   34.7700   32.3700   37.7960 O   0  0  0  0  0  0  0  0  0  0  0  0
   35.7650   32.5160   37.8590 H   0  0  0  0  0  0  0  0  0  0  0  0
   38.2170   26.7660   34.2680 C   0  0  0  0  0  0  0  0  0  0  0  0
   39.0920   26.6040   33.5750 H   0  0  0  0  0  0  0  0  0  0  0  0
   38.5350   27.6810   34.8400 H   0  0  0  0  0  0  0  0  0  0  0  0
   38.2190   25.6430   35.2240 C   0  0  0  0  0  0  0  0  0  0  0  0
   38.2200   24.3250   34.7670 C   0  0  0  0  0  0  0  0  0  0  0  0
   38.2220   23.4960   35.8650 C   0  0  0  0  0  0  0  0  0  0  0  0
   38.2210   24.2890   36.9380 N   0  0  0  0  0  0  0  0  0  0  0  0
   38.2190   25.5330   36.5360 N   0  0  0  0  0  0  0  0  0  0  0  0
   38.2190   23.9140   33.7460 H   0  0  0  0  0  0  0  0  0  0  0  0
   38.2230   22.4070   35.9310 H   0  0  0  0  0  0  0  0  0  0  0  0
   38.2240   23.8940   38.3500 C   0  0  0  0  0  0  0  0  0  0  0  0
   39.4560   23.3610   38.6900 F   0  0  0  0  0  0  0  0  0  0  0  0
   37.2530   22.9440   38.6160 F   0  0  0  0  0  0  0  0  0  0  0  0
   38.0210   24.9790   39.1740 F   0  0  0  0  0  0  0  0  0  0  0  0
  1  3  1  0  0  0  0
  1 19  1  0  0  0  0
  2  1  1  0  0  0  0
  4  1  1  0  0  0  0
  4  9  1  0  0  0  0
  5  4  2  0  0  0  0
  6  5  1  0  0  0  0
  6  7  2  0  0  0  0
  7  8  1  0  0  0  0
  8  9  2  0  0  0  0
  8 12  1  0  0  0  0
 10  5  1  0  0  0  0
 11  6  1  0  0  0  0
 12 13  1  0  0  0  0
 12 14  1  0  0  0  0
 14 16  1  0  0  0  0
 14 17  1  0  0  0  0
 15 14  1  0  0  0  0
 17 18  1  0  0  0  0
 19 21  1  0  0  0  0
 19 22  1  0  0  0  0
 20 19  1  0  0  0  0
 22 26  2  0  0  0  0
 23 22  1  0  0  0  0
 23 24  2  0  0  0  0
 24 28  1  0  0  0  0
 24 25  1  0  0  0  0
 25 29  1  0  0  0  0
 26 25  1  0  0  0  0
 27 23  1  0  0  0  0
 29 31  1  0  0  0  0
 29 30  1  0  0  0  0
 29 32  1  0  0  0  0
M  END
>  <minimizedAffinity>
-5.74203062

$$$$

 OpenBabel03272500283D

 32 33  0  0  0  0  0  0  0  0999 V2000
   37.7870   25.2300   31.6170 C   0  0  0  0  0  0  0  0  0  0  0  0
   38.7680   24.7120   31.4010 H   0  0  0  0  0  0  0  0  0  0  0  0
   37.9160   26.1920   31.0430 H   0  0  0  0  0  0  0  0  0  0  0  0
   37.7670   25.5190   33.0250 C   0  0  0  0  0  0  0  0  0  0  0  0
   37.0600   26.6060   33.4820 C   0  0  0  0  0  0  0  0  0  0  0  0
   37.0240   26.9100   34.8510 C   0  0  0  0  0  0  0  0  0  0  0  0
   37.7410   26.0460   35.6780 N   0  0  0  0  0  0  0  0  0  0  0  0
   38.4160   24.9980   35.1850 C   0  0  0  0  0  0  0  0  0  0  0  0
   38.4180   24.7520   33.8660 N   0  0  0  0  0  0  0  0  0  0  0  0
   36.4970   27.2910   32.8640 H   0  0  0  0  0  0  0  0  0  0  0  0
   36.4870   27.7460   35.2480 H   0  0  0  0  0  0  0  0  0  0  0  0
   39.1360   24.1390   36.0590 N   0  0  0  0  0  0  0  0  0  0  0  0
   40.1020   23.8300   35.8250 H   0  0  0  0  0  0  0  0  0  0  0  0
   38.4290   23.5850   37.5330 S   0  0  0  0  0  0  0  0  0  0  0  0
   38.1490   24.7650   38.4480 O   0  0  0  0  0  1  0  0  0  0  0  0
   37.1040   22.9500   37.2410 O   0  0  0  0  0  1  0  0  0  0  0  0
   39.4870   22.5040   38.2950 O   0  0  0  0  0  0  0  0  0  0  0  0
   40.4250   22.6890   37.9760 H   0  0  0  0  0  0  0  0  0  0  0  0
   36.6730   24.5190   30.9820 C   0  0  0  0  0  0  0  0  0  0  0  0
   35.6940   24.9820   31.3000 H   0  0  0  0  0  0  0  0  0  0  0  0
   36.6190   24.5990   29.8610 H   0  0  0  0  0  0  0  0  0  0  0  0
   36.5910   23.0840   31.3130 C   0  0  0  0  0  0  0  0  0  0  0  0
   37.6250   22.2170   30.9590 C   0  0  0  0  0  0  0  0  0  0  0  0
   37.2850   20.9550   31.3880 C   0  0  0  0  0  0  0  0  0  0  0  0
   36.0920   21.0640   31.9740 N   0  0  0  0  0  0  0  0  0  0  0  0
   35.7110   22.3130   31.9170 N   0  0  0  0  0  0  0  0  0  0  0  0
   38.5770   22.4010   30.4370 H   0  0  0  0  0  0  0  0  0  0  0  0
   37.8220   20.0090   31.3040 H   0  0  0  0  0  0  0  0  0  0  0  0
   35.2930   20.0030   32.5960 C   0  0  0  0  0  0  0  0  0  0  0  0
   35.1490   20.2520   33.9510 F   0  0  0  0  0  0  0  0  0  0  0  0
   35.8880   18.7620   32.4460 F   0  0  0  0  0  0  0  0  0  0  0  0
   34.0240   19.9540   32.0650 F   0  0  0  0  0  0  0  0  0  0  0  0
  1  4  1  0  0  0  0
  2  1  1  0  0  0  0
  3  1  1  0  0  0  0
  4  5  2  0  0  0  0
  4  9  1  0  0  0  0
  5  6  1  0  0  0  0
  6 11  1  0  0  0  0
  6  7  2  0  0  0  0
  8  7  1  0  0  0  0
  8 12  1  0  0  0  0
  9  8  2  0  0  0  0
 10  5  1  0  0  0  0
 12 14  1  0  0  0  0
 13 12  1  0  0  0  0
 14 17  1  0  0  0  0
 14 15  1  0  0  0  0
 16 14  1  0  0  0  0
 18 17  1  0  0  0  0
 19 20  1  0  0  0  0
 19 22  1  0  0  0  0
 19  1  1  0  0  0  0
 21 19  1  0  0  0  0
 22 26  2  0  0  0  0
 23 22  1  0  0  0  0
 23 24  2  0  0  0  0
 24 25  1  0  0  0  0
 25 29  1  0  0  0  0
 26 25  1  0  0  0  0
 27 23  1  0  0  0  0
 28 24  1  0  0  0  0
 29 30  1  0  0  0  0
 31 29  1  0  0  0  0
 32 29  1  0  0  0  0
M  END
>  <minimizedAffinity>
-5.59297895

$$$$

 OpenBabel03272500283D

 32 33  0  0  0  0  0  0  0  0999 V2000
   37.0100   27.4220   33.8270 C   0  0  0  0  0  0  0  0  0  0  0  0
   36.2910   26.5500   33.8430 H   0  0  0  0  0  0  0  0  0  0  0  0
   36.5420   28.1070   34.5900 H   0  0  0  0  0  0  0  0  0  0  0  0
   36.9090   28.0240   32.5260 C   0  0  0  0  0  0  0  0  0  0  0  0
   36.1140   29.1330   32.3550 C   0  0  0  0  0  0  0  0  0  0  0  0
   35.9970   29.7410   31.0950 C   0  0  0  0  0  0  0  0  0  0  0  0
   36.7290   29.1440   30.0690 N   0  0  0  0  0  0  0  0  0  0  0  0
   37.4900   28.0610   30.2860 C   0  0  0  0  0  0  0  0  0  0  0  0
   37.5670   27.5190   31.5110 N   0  0  0  0  0  0  0  0  0  0  0  0
   35.5370   29.6150   33.1310 H   0  0  0  0  0  0  0  0  0  0  0  0
   35.3900   30.6040   30.9190 H   0  0  0  0  0  0  0  0  0  0  0  0
   38.2230   27.4800   29.2150 N   0  0  0  0  0  0  0  0  0  0  0  0
   38.2310   26.4480   29.0740 H   0  0  0  0  0  0  0  0  0  0  0  0
   39.1190   28.4670   28.1190 S   0  0  0  0  0  0  0  0  0  0  0  0
   40.3080   29.0860   28.8340 O   0  0  0  0  0  1  0  0  0  0  0  0
   39.6800   27.6100   27.0240 O   0  0  0  0  0  1  0  0  0  0  0  0
   38.1150   29.6860   27.5080 O   0  0  0  0  0  0  0  0  0  0  0  0
   37.3610   29.8410   28.1570 H   0  0  0  0  0  0  0  0  0  0  0  0
   38.3140   27.0300   34.3720 C   0  0  0  0  0  0  0  0  0  0  0  0
   39.0180   26.7720   33.5290 H   0  0  0  0  0  0  0  0  0  0  0  0
   38.8800   27.8380   34.9130 H   0  0  0  0  0  0  0  0  0  0  0  0
   38.2790   25.8600   35.2690 C   0  0  0  0  0  0  0  0  0  0  0  0
   38.2580   24.5670   34.7440 C   0  0  0  0  0  0  0  0  0  0  0  0
   38.2270   23.6830   35.7970 C   0  0  0  0  0  0  0  0  0  0  0  0
   38.2280   24.4200   36.9090 N   0  0  0  0  0  0  0  0  0  0  0  0
   38.2580   25.6820   36.5730 N   0  0  0  0  0  0  0  0  0  0  0  0
   38.2640   24.2090   33.7020 H   0  0  0  0  0  0  0  0  0  0  0  0
   38.2040   22.5920   35.8070 H   0  0  0  0  0  0  0  0  0  0  0  0
   38.2010   23.9520   38.2990 C   0  0  0  0  0  0  0  0  0  0  0  0
   37.2560   22.9500   38.4430 F   0  0  0  0  0  0  0  0  0  0  0  0
   37.8830   24.9750   39.1760 F   0  0  0  0  0  0  0  0  0  0  0  0
   39.4130   23.4110   38.6690 F   0  0  0  0  0  0  0  0  0  0  0  0
  1  2  1  0  0  0  0
  1 19  1  0  0  0  0
  1  3  1  0  0  0  0
  4  1  1  0  0  0  0
  5  4  1  0  0  0  0
  5 10  1  0  0  0  0
  6  5  2  0  0  0  0
  7  8  2  0  0  0  0
  7  6  1  0  0  0  0
  8  9  1  0  0  0  0
  9  4  2  0  0  0  0
 11  6  1  0  0  0  0
 12  8  1  0  0  0  0
 13 12  1  0  0  0  0
 14 15  1  0  0  0  0
 14 12  1  0  0  0  0
 16 14  1  0  0  0  0
 17 14  1  0  0  0  0
 17 18  1  0  0  0  0
 19 21  1  0  0  0  0
 19 22  1  0  0  0  0
 20 19  1  0  0  0  0
 22 26  2  0  0  0  0
 23 22  1  0  0  0  0
 23 24  2  0  0  0  0
 24 28  1  0  0  0  0
 24 25  1  0  0  0  0
 25 29  1  0  0  0  0
 26 25  1  0  0  0  0
 27 23  1  0  0  0  0
 29 30  1  0  0  0  0
 29 32  1  0  0  0  0
 29 31  1  0  0  0  0
M  END
>  <minimizedAffinity>
-5.57173014

$$$$

 OpenBabel03272500283D

 32 33  0  0  0  0  0  0  0  0999 V2000
   38.0370   27.0570   33.1370 C   0  0  0  0  0  0  0  0  0  0  0  0
   38.7980   27.1060   32.3040 H   0  0  0  0  0  0  0  0  0  0  0  0
   37.6590   26.0000   33.0260 H   0  0  0  0  0  0  0  0  0  0  0  0
   36.9830   27.9730   32.7970 C   0  0  0  0  0  0  0  0  0  0  0  0
   36.8990   28.4580   31.5130 C   0  0  0  0  0  0  0  0  0  0  0  0
   35.8800   29.3540   31.1540 C   0  0  0  0  0  0  0  0  0  0  0  0
   34.9940   29.6980   32.1750 N   0  0  0  0  0  0  0  0  0  0  0  0
   35.1180   29.1980   33.4130 C   0  0  0  0  0  0  0  0  0  0  0  0
   36.1110   28.3440   33.7030 N   0  0  0  0  0  0  0  0  0  0  0  0
   37.5710   28.2090   30.7040 H   0  0  0  0  0  0  0  0  0  0  0  0
   35.7790   29.7560   30.1670 H   0  0  0  0  0  0  0  0  0  0  0  0
   34.1960   29.5710   34.4270 N   0  0  0  0  0  0  0  0  0  0  0  0
   34.5280   29.8290   35.3800 H   0  0  0  0  0  0  0  0  0  0  0  0
   32.5000   29.6100   34.1090 S   0  0  0  0  0  0  0  0  0  0  0  0
   31.7440   28.9540   35.2530 O   0  0  0  0  0  1  0  0  0  0  0  0
   32.0370   31.0340   34.0550 O   0  0  0  0  0  1  0  0  0  0  0  0
   32.1780   28.7910   32.6620 O   0  0  0  0  0  0  0  0  0  0  0  0
   32.9250   28.1380   32.4860 H   0  0  0  0  0  0  0  0  0  0  0  0
   38.6940   27.1230   34.4470 C   0  0  0  0  0  0  0  0  0  0  0  0
   39.8060   27.2560   34.3090 H   0  0  0  0  0  0  0  0  0  0  0  0
   38.4260   28.0120   35.0830 H   0  0  0  0  0  0  0  0  0  0  0  0
   38.5100   25.9250   35.2880 C   0  0  0  0  0  0  0  0  0  0  0  0
   38.3900   24.6630   34.7040 C   0  0  0  0  0  0  0  0  0  0  0  0
   38.2310   23.7430   35.7140 C   0  0  0  0  0  0  0  0  0  0  0  0
   38.2550   24.4300   36.8580 N   0  0  0  0  0  0  0  0  0  0  0  0
   38.4180   25.6960   36.5810 N   0  0  0  0  0  0  0  0  0  0  0  0
   38.4060   24.3500   33.6490 H   0  0  0  0  0  0  0  0  0  0  0  0
   38.1050   22.6600   35.6740 H   0  0  0  0  0  0  0  0  0  0  0  0
   38.1250   23.9100   38.2230 C   0  0  0  0  0  0  0  0  0  0  0  0
   39.3420   23.4080   38.6560 F   0  0  0  0  0  0  0  0  0  0  0  0
   37.1880   22.8940   38.2970 F   0  0  0  0  0  0  0  0  0  0  0  0
   37.7710   24.9060   39.1070 F   0  0  0  0  0  0  0  0  0  0  0  0
  1 19  1  0  0  0  0
  2  1  1  0  0  0  0
  3  1  1  0  0  0  0
  4  1  1  0  0  0  0
  4  9  1  0  0  0  0
  5  4  2  0  0  0  0
  6  5  1  0  0  0  0
  6  7  2  0  0  0  0
  7  8  1  0  0  0  0
  8  9  2  0  0  0  0
  8 12  1  0  0  0  0
 10  5  1  0  0  0  0
 11  6  1  0  0  0  0
 12 13  1  0  0  0  0
 14 12  1  0  0  0  0
 14 15  1  0  0  0  0
 16 14  1  0  0  0  0
 17 14  1  0  0  0  0
 18 17  1  0  0  0  0
 19 21  1  0  0  0  0
 19 22  1  0  0  0  0
 20 19  1  0  0  0  0
 22 26  2  0  0  0  0
 23 22  1  0  0  0  0
 23 24  2  0  0  0  0
 24 25  1  0  0  0  0
 25 29  1  0  0  0  0
 26 25  1  0  0  0  0
 27 23  1  0  0  0  0
 28 24  1  0  0  0  0
 29 31  1  0  0  0  0
 29 30  1  0  0  0  0
 29 32  1  0  0  0  0
M  END
>  <minimizedAffinity>
-5.44119883

$$$$

 OpenBabel03272500283D

 32 33  0  0  0  0  0  0  0  0999 V2000
   37.7270   27.3580   33.4830 C   0  0  0  0  0  0  0  0  0  0  0  0
   38.2280   28.3530   33.6700 H   0  0  0  0  0  0  0  0  0  0  0  0
   36.7100   27.5360   33.9360 H   0  0  0  0  0  0  0  0  0  0  0  0
   38.4300   26.3800   34.2670 C   0  0  0  0  0  0  0  0  0  0  0  0
   39.8020   26.3180   34.1960 C   0  0  0  0  0  0  0  0  0  0  0  0
   40.5140   25.3740   34.9510 C   0  0  0  0  0  0  0  0  0  0  0  0
   39.7380   24.5330   35.7490 N   0  0  0  0  0  0  0  0  0  0  0  0
   38.4010   24.6320   35.7830 C   0  0  0  0  0  0  0  0  0  0  0  0
   37.7700   25.5550   35.0410 N   0  0  0  0  0  0  0  0  0  0  0  0
   40.4270   26.9560   33.5870 H   0  0  0  0  0  0  0  0  0  0  0  0
   41.5800   25.2910   34.9250 H   0  0  0  0  0  0  0  0  0  0  0  0
   37.6430   23.7580   36.6090 N   0  0  0  0  0  0  0  0  0  0  0  0
   36.7830   23.2970   36.2470 H   0  0  0  0  0  0  0  0  0  0  0  0
   38.1280   23.4360   38.2340 S   0  0  0  0  0  0  0  0  0  0  0  0
   38.2080   24.7360   39.0170 O   0  0  0  0  0  1  0  0  0  0  0  0
   37.0840   22.5980   38.9070 O   0  0  0  0  0  1  0  0  0  0  0  0
   39.6390   22.6710   38.2320 O   0  0  0  0  0  0  0  0  0  0  0  0
   40.1170   22.8990   37.3740 H   0  0  0  0  0  0  0  0  0  0  0  0
   37.5050   27.1500   32.0480 C   0  0  0  0  0  0  0  0  0  0  0  0
   36.9410   28.0270   31.6170 H   0  0  0  0  0  0  0  0  0  0  0  0
   38.4310   27.1280   31.4090 H   0  0  0  0  0  0  0  0  0  0  0  0
   36.7280   25.9410   31.7150 C   0  0  0  0  0  0  0  0  0  0  0  0
   35.4680   26.0500   31.1280 C   0  0  0  0  0  0  0  0  0  0  0  0
   34.9810   24.7780   30.9310 C   0  0  0  0  0  0  0  0  0  0  0  0
   35.9150   23.9410   31.3850 N   0  0  0  0  0  0  0  0  0  0  0  0
   36.9210   24.6440   31.8350 N   0  0  0  0  0  0  0  0  0  0  0  0
   34.8800   26.9340   30.8350 H   0  0  0  0  0  0  0  0  0  0  0  0
   34.0370   24.4380   30.5010 H   0  0  0  0  0  0  0  0  0  0  0  0
   35.8800   22.4750   31.4020 C   0  0  0  0  0  0  0  0  0  0  0  0
   37.1510   21.9690   31.1880 F   0  0  0  0  0  0  0  0  0  0  0  0
   35.0440   21.9730   30.4200 F   0  0  0  0  0  0  0  0  0  0  0  0
   35.4650   21.9980   32.6250 F   0  0  0  0  0  0  0  0  0  0  0  0
  1  2  1  0  0  0  0
  1  3  1  0  0  0  0
  1  4  1  0  0  0  0
  4  9  1  0  0  0  0
  5  4  2  0  0  0  0
  5  6  1  0  0  0  0
  6  7  2  0  0  0  0
  7  8  1  0  0  0  0
  8 12  1  0  0  0  0
  9  8  2  0  0  0  0
 10  5  1  0  0  0  0
 11  6  1  0  0  0  0
 12 14  1  0  0  0  0
 13 12  1  0  0  0  0
 14 16  1  0  0  0  0
 14 15  1  0  0  0  0
 17 14  1  0  0  0  0
 18 17  1  0  0  0  0
 19  1  1  0  0  0  0
 20 19  1  0  0  0  0
 21 19  1  0  0  0  0
 22 26  2  0  0  0  0
 22 19  1  0  0  0  0
 23 22  1  0  0  0  0
 24 23  2  0  0  0  0
 24 25  1  0  0  0  0
 25 29  1  0  0  0  0
 25 26  1  0  0  0  0
 27 23  1  0  0  0  0
 28 24  1  0  0  0  0
 29 32  1  0  0  0  0
 30 29  1  0  0  0  0
 31 29  1  0  0  0  0
M  END
>  <minimizedAffinity>
-5.41591978

$$$$

 OpenBabel03272500283D

 32 33  0  0  0  0  0  0  0  0999 V2000
   38.2400   26.4670   33.3140 C   0  0  0  0  0  0  0  0  0  0  0  0
   39.0730   26.7740   34.0130 H   0  0  0  0  0  0  0  0  0  0  0  0
   38.7890   26.4050   32.3310 H   0  0  0  0  0  0  0  0  0  0  0  0
   37.3080   27.5600   33.2660 C   0  0  0  0  0  0  0  0  0  0  0  0
   36.6880   27.9700   34.4230 C   0  0  0  0  0  0  0  0  0  0  0  0
   35.7740   29.0340   34.4050 C   0  0  0  0  0  0  0  0  0  0  0  0
   35.5570   29.6190   33.1580 N   0  0  0  0  0  0  0  0  0  0  0  0
   36.1860   29.1830   32.0570 C   0  0  0  0  0  0  0  0  0  0  0  0
   37.0510   28.1600   32.1300 N   0  0  0  0  0  0  0  0  0  0  0  0
   36.8380   27.5350   35.4010 H   0  0  0  0  0  0  0  0  0  0  0  0
   35.2700   29.3840   35.2820 H   0  0  0  0  0  0  0  0  0  0  0  0
   35.9390   29.8050   30.8030 N   0  0  0  0  0  0  0  0  0  0  0  0
   35.7810   29.2320   29.9470 H   0  0  0  0  0  0  0  0  0  0  0  0
   35.8930   31.5240   30.6620 S   0  0  0  0  0  0  0  0  0  0  0  0
   36.4780   31.9500   29.3270 O   0  0  0  0  0  1  0  0  0  0  0  0
   34.4670   31.9850   30.6670 O   0  0  0  0  0  1  0  0  0  0  0  0
   36.7790   32.2180   31.9270 O   0  0  0  0  0  0  0  0  0  0  0  0
   37.4510   31.5450   32.2600 H   0  0  0  0  0  0  0  0  0  0  0  0
   37.7830   25.1060   33.6150 C   0  0  0  0  0  0  0  0  0  0  0  0
   36.6550   25.0770   33.6330 H   0  0  0  0  0  0  0  0  0  0  0  0
   38.0270   24.3260   32.8420 H   0  0  0  0  0  0  0  0  0  0  0  0
   38.2420   24.5780   34.9140 C   0  0  0  0  0  0  0  0  0  0  0  0
   39.4160   23.8270   34.9970 C   0  0  0  0  0  0  0  0  0  0  0  0
   39.5970   23.4700   36.3130 C   0  0  0  0  0  0  0  0  0  0  0  0
   38.5710   23.9870   36.9900 N   0  0  0  0  0  0  0  0  0  0  0  0
   37.7980   24.6260   36.1520 N   0  0  0  0  0  0  0  0  0  0  0  0
   40.1340   23.5200   34.2220 H   0  0  0  0  0  0  0  0  0  0  0  0
   40.3880   22.8870   36.7870 H   0  0  0  0  0  0  0  0  0  0  0  0
   38.3000   23.8910   38.4280 C   0  0  0  0  0  0  0  0  0  0  0  0
   39.4540   23.5270   39.1040 F   0  0  0  0  0  0  0  0  0  0  0  0
   37.3240   22.9490   38.7030 F   0  0  0  0  0  0  0  0  0  0  0  0
   37.9040   25.1040   38.9460 F   0  0  0  0  0  0  0  0  0  0  0  0
  1 19  1  0  0  0  0
  1  2  1  0  0  0  0
  3  1  1  0  0  0  0
  4  1  1  0  0  0  0
  4  5  1  0  0  0  0
  5 10  1  0  0  0  0
  6  5  2  0  0  0  0
  6 11  1  0  0  0  0
  7  6  1  0  0  0  0
  8  9  1  0  0  0  0
  8  7  2  0  0  0  0
  9  4  2  0  0  0  0
 12  8  1  0  0  0  0
 13 12  1  0  0  0  0
 14 16  1  0  0  0  0
 14 12  1  0  0  0  0
 14 17  1  0  0  0  0
 15 14  1  0  0  0  0
 17 18  1  0  0  0  0
 19 20  1  0  0  0  0
 19 22  1  0  0  0  0
 21 19  1  0  0  0  0
 22 23  1  0  0  0  0
 22 26  2  0  0  0  0
 23 24  2  0  0  0  0
 24 28  1  0  0  0  0
 24 25  1  0  0  0  0
 25 29  1  0  0  0  0
 26 25  1  0  0  0  0
 27 23  1  0  0  0  0
 29 31  1  0  0  0  0
 29 32  1  0  0  0  0
 29 30  1  0  0  0  0
M  END
>  <minimizedAffinity>
-5.13514042

$$$$

 OpenBabel03272500283D

 32 33  0  0  0  0  0  0  0  0999 V2000
   37.0350   28.5100   34.8860 C   0  0  0  0  0  0  0  0  0  0  0  0
   37.9580   29.0800   34.5700 H   0  0  0  0  0  0  0  0  0  0  0  0
   37.0210   28.7130   35.9950 H   0  0  0  0  0  0  0  0  0  0  0  0
   37.3090   27.1160   34.6650 C   0  0  0  0  0  0  0  0  0  0  0  0
   37.2980   26.6220   33.3820 C   0  0  0  0  0  0  0  0  0  0  0  0
   37.5610   25.2650   33.1370 C   0  0  0  0  0  0  0  0  0  0  0  0
   37.8240   24.4900   34.2660 N   0  0  0  0  0  0  0  0  0  0  0  0
   37.8220   25.0190   35.4990 C   0  0  0  0  0  0  0  0  0  0  0  0
   37.5640   26.3240   35.6770 N   0  0  0  0  0  0  0  0  0  0  0  0
   37.0980   27.1990   32.4900 H   0  0  0  0  0  0  0  0  0  0  0  0
   37.5630   24.8400   32.1550 H   0  0  0  0  0  0  0  0  0  0  0  0
   38.0940   24.1980   36.6260 N   0  0  0  0  0  0  0  0  0  0  0  0
   37.5080   24.2610   37.4850 H   0  0  0  0  0  0  0  0  0  0  0  0
   39.4030   23.0730   36.6050 S   0  0  0  0  0  0  0  0  0  0  0  0
   39.0580   21.8950   35.7110 O   0  0  0  0  0  1  0  0  0  0  0  0
   40.6090   23.7260   36.0000 O   0  0  0  0  0  1  0  0  0  0  0  0
   39.7080   22.5310   38.1800 O   0  0  0  0  0  0  0  0  0  0  0  0
   38.8720   22.6450   38.7300 H   0  0  0  0  0  0  0  0  0  0  0  0
   35.8260   29.1330   34.3390 C   0  0  0  0  0  0  0  0  0  0  0  0
   36.0440   29.5560   33.3160 H   0  0  0  0  0  0  0  0  0  0  0  0
   34.9700   28.4340   34.1270 H   0  0  0  0  0  0  0  0  0  0  0  0
   35.2840   30.2390   35.1500 C   0  0  0  0  0  0  0  0  0  0  0  0
   36.1300   31.2300   35.6490 C   0  0  0  0  0  0  0  0  0  0  0  0
   35.3620   32.1230   36.3600 C   0  0  0  0  0  0  0  0  0  0  0  0
   34.1050   31.6820   36.2880 N   0  0  0  0  0  0  0  0  0  0  0  0
   34.0880   30.5850   35.5780 N   0  0  0  0  0  0  0  0  0  0  0  0
   37.2180   31.3680   35.5540 H   0  0  0  0  0  0  0  0  0  0  0  0
   35.6440   33.0280   36.9000 H   0  0  0  0  0  0  0  0  0  0  0  0
   32.9050   32.2810   36.8800 C   0  0  0  0  0  0  0  0  0  0  0  0
   32.1510   32.9020   35.8980 F   0  0  0  0  0  0  0  0  0  0  0  0
   33.2260   33.2260   37.8390 F   0  0  0  0  0  0  0  0  0  0  0  0
   32.0970   31.3240   37.4530 F   0  0  0  0  0  0  0  0  0  0  0  0
  1  3  1  0  0  0  0
  2  1  1  0  0  0  0
  4  1  1  0  0  0  0
  4  9  1  0  0  0  0
  5  4  2  0  0  0  0
  6  5  1  0  0  0  0
  6  7  2  0  0  0  0
  7  8  1  0  0  0  0
  8  9  2  0  0  0  0
  8 12  1  0  0  0  0
 10  5  1  0  0  0  0
 11  6  1  0  0  0  0
 12 13  1  0  0  0  0
 14 12  1  0  0  0  0
 14 17  1  0  0  0  0
 15 14  1  0  0  0  0
 16 14  1  0  0  0  0
 17 18  1  0  0  0  0
 19  1  1  0  0  0  0
 19 22  1  0  0  0  0
 20 19  1  0  0  0  0
 21 19  1  0  0  0  0
 22 26  2  0  0  0  0
 22 23  1  0  0  0  0
 23 24  2  0  0  0  0
 24 28  1  0  0  0  0
 25 24  1  0  0  0  0
 25 29  1  0  0  0  0
 26 25  1  0  0  0  0
 27 23  1  0  0  0  0
 29 32  1  0  0  0  0
 29 31  1  0  0  0  0
 30 29  1  0  0  0  0
M  END
>  <minimizedAffinity>
-5.11315441

$$$$

 OpenBabel03272500283D

 32 33  0  0  0  0  0  0  0  0999 V2000
   36.1470   28.1210   33.2840 C   0  0  0  0  0  0  0  0  0  0  0  0
   35.1390   27.6110   33.2520 H   0  0  0  0  0  0  0  0  0  0  0  0
   36.4910   27.9950   32.2180 H   0  0  0  0  0  0  0  0  0  0  0  0
   36.9860   27.3360   34.1470 C   0  0  0  0  0  0  0  0  0  0  0  0
   37.5860   27.9330   35.2320 C   0  0  0  0  0  0  0  0  0  0  0  0
   38.4100   27.1900   36.0910 C   0  0  0  0  0  0  0  0  0  0  0  0
   38.5640   25.8440   35.7610 N   0  0  0  0  0  0  0  0  0  0  0  0
   37.9590   25.3070   34.6920 C   0  0  0  0  0  0  0  0  0  0  0  0
   37.1800   26.0630   33.9020 N   0  0  0  0  0  0  0  0  0  0  0  0
   37.4840   28.9720   35.5100 H   0  0  0  0  0  0  0  0  0  0  0  0
   38.8950   27.6160   36.9440 H   0  0  0  0  0  0  0  0  0  0  0  0
   38.1390   23.9310   34.3870 N   0  0  0  0  0  0  0  0  0  0  0  0
   38.3320   23.6220   33.4110 H   0  0  0  0  0  0  0  0  0  0  0  0
   38.0440   22.7320   35.6250 S   0  0  0  0  0  0  0  0  0  0  0  0
   37.1080   21.6160   35.1940 O   0  0  0  0  0  1  0  0  0  0  0  0
   39.3920   22.1060   35.8150 O   0  0  0  0  0  1  0  0  0  0  0  0
   37.4760   23.4400   37.0540 O   0  0  0  0  0  0  0  0  0  0  0  0
   36.9550   24.2710   36.8200 H   0  0  0  0  0  0  0  0  0  0  0  0
   35.9930   29.5640   33.4980 C   0  0  0  0  0  0  0  0  0  0  0  0
   36.9080   29.9730   34.0170 H   0  0  0  0  0  0  0  0  0  0  0  0
   35.9490   30.1930   32.5660 H   0  0  0  0  0  0  0  0  0  0  0  0
   34.8310   29.9410   34.3240 C   0  0  0  0  0  0  0  0  0  0  0  0
   33.5420   29.5670   33.9450 C   0  0  0  0  0  0  0  0  0  0  0  0
   32.6660   30.0490   34.8900 C   0  0  0  0  0  0  0  0  0  0  0  0
   33.4040   30.6870   35.7990 N   0  0  0  0  0  0  0  0  0  0  0  0
   34.6600   30.6090   35.4460 N   0  0  0  0  0  0  0  0  0  0  0  0
   33.1810   28.9960   33.0750 H   0  0  0  0  0  0  0  0  0  0  0  0
   31.5790   29.9700   34.9550 H   0  0  0  0  0  0  0  0  0  0  0  0
   32.9450   31.3760   37.0100 C   0  0  0  0  0  0  0  0  0  0  0  0
   31.8560   32.1800   36.7120 F   0  0  0  0  0  0  0  0  0  0  0  0
   33.9370   32.1750   37.5500 F   0  0  0  0  0  0  0  0  0  0  0  0
   32.5250   30.4800   37.9680 F   0  0  0  0  0  0  0  0  0  0  0  0
  1 19  1  0  0  0  0
  1  4  1  0  0  0  0
  2  1  1  0  0  0  0
  3  1  1  0  0  0  0
  4  5  1  0  0  0  0
  5 10  1  0  0  0  0
  5  6  2  0  0  0  0
  6 11  1  0  0  0  0
  7  6  1  0  0  0  0
  8  7  2  0  0  0  0
  9  4  2  0  0  0  0
  9  8  1  0  0  0  0
 12  8  1  0  0  0  0
 12 14  1  0  0  0  0
 13 12  1  0  0  0  0
 14 16  1  0  0  0  0
 14 17  1  0  0  0  0
 15 14  1  0  0  0  0
 18 17  1  0  0  0  0
 19 20  1  0  0  0  0
 19 22  1  0  0  0  0
 21 19  1  0  0  0  0
 22 26  2  0  0  0  0
 23 22  1  0  0  0  0
 23 24  2  0  0  0  0
 24 28  1  0  0  0  0
 24 25  1  0  0  0  0
 25 29  1  0  0  0  0
 26 25  1  0  0  0  0
 27 23  1  0  0  0  0
 29 31  1  0  0  0  0
 29 32  1  0  0  0  0
 30 29  1  0  0  0  0
M  END
>  <minimizedAffinity>
-5.05464077

$$$$

 OpenBabel03272500283D

 32 33  0  0  0  0  0  0  0  0999 V2000
   38.7830   25.2800   32.1550 C   0  0  0  0  0  0  0  0  0  0  0  0
   38.7940   25.9700   31.2600 H   0  0  0  0  0  0  0  0  0  0  0  0
   39.7030   24.6580   31.9640 H   0  0  0  0  0  0  0  0  0  0  0  0
   37.6160   24.4490   32.0290 C   0  0  0  0  0  0  0  0  0  0  0  0
   36.4540   24.9890   31.5320 C   0  0  0  0  0  0  0  0  0  0  0  0
   35.3000   24.2010   31.3980 C   0  0  0  0  0  0  0  0  0  0  0  0
   35.4310   22.8710   31.7990 N   0  0  0  0  0  0  0  0  0  0  0  0
   36.5870   22.3910   32.2780 C   0  0  0  0  0  0  0  0  0  0  0  0
   37.6610   23.1890   32.3850 N   0  0  0  0  0  0  0  0  0  0  0  0
   36.3250   26.0140   31.2140 H   0  0  0  0  0  0  0  0  0  0  0  0
   34.3760   24.5810   31.0170 H   0  0  0  0  0  0  0  0  0  0  0  0
   36.6820   21.0300   32.6770 N   0  0  0  0  0  0  0  0  0  0  0  0
   37.1470   20.7690   33.5710 H   0  0  0  0  0  0  0  0  0  0  0  0
   36.0300   19.7730   31.6910 S   0  0  0  0  0  0  0  0  0  0  0  0
   34.5330   19.6570   31.9240 O   0  0  0  0  0  1  0  0  0  0  0  0
   36.2080   20.1310   30.2470 O   0  0  0  0  0  1  0  0  0  0  0  0
   36.7870   18.3070   32.0700 O   0  0  0  0  0  0  0  0  0  0  0  0
   37.1540   18.3640   33.0070 H   0  0  0  0  0  0  0  0  0  0  0  0
   39.0400   26.0270   33.3910 C   0  0  0  0  0  0  0  0  0  0  0  0
   40.0170   26.5850   33.3020 H   0  0  0  0  0  0  0  0  0  0  0  0
   38.3150   26.8560   33.6200 H   0  0  0  0  0  0  0  0  0  0  0  0
   39.1350   25.1940   34.6040 C   0  0  0  0  0  0  0  0  0  0  0  0
   40.2410   24.3680   34.8100 C   0  0  0  0  0  0  0  0  0  0  0  0
   40.0640   23.7150   36.0080 C   0  0  0  0  0  0  0  0  0  0  0  0
   38.8970   24.1350   36.4990 N   0  0  0  0  0  0  0  0  0  0  0  0
   38.3770   24.9940   35.6620 N   0  0  0  0  0  0  0  0  0  0  0  0
   41.1390   24.1950   34.1960 H   0  0  0  0  0  0  0  0  0  0  0  0
   40.6980   22.9900   36.5210 H   0  0  0  0  0  0  0  0  0  0  0  0
   38.2530   23.7380   37.7550 C   0  0  0  0  0  0  0  0  0  0  0  0
   39.1210   22.9630   38.5070 F   0  0  0  0  0  0  0  0  0  0  0  0
   37.1030   23.0030   37.5300 F   0  0  0  0  0  0  0  0  0  0  0  0
   37.9360   24.8360   38.5240 F   0  0  0  0  0  0  0  0  0  0  0  0
  1 19  1  0  0  0  0
  2  1  1  0  0  0  0
  3  1  1  0  0  0  0
  4  1  1  0  0  0  0
  4  9  1  0  0  0  0
  5  4  2  0  0  0  0
  6  5  1  0  0  0  0
  6  7  2  0  0  0  0
  7  8  1  0  0  0  0
  8  9  2  0  0  0  0
  8 12  1  0  0  0  0
 10  5  1  0  0  0  0
 11  6  1  0  0  0  0
 12 13  1  0  0  0  0
 14 15  1  0  0  0  0
 14 17  1  0  0  0  0
 14 12  1  0  0  0  0
 16 14  1  0  0  0  0
 17 18  1  0  0  0  0
 19 21  1  0  0  0  0
 19 22  1  0  0  0  0
 20 19  1  0  0  0  0
 22 23  1  0  0  0  0
 22 26  2  0  0  0  0
 23 24  2  0  0  0  0
 24 25  1  0  0  0  0
 24 28  1  0  0  0  0
 25 29  1  0  0  0  0
 26 25  1  0  0  0  0
 27 23  1  0  0  0  0
 29 30  1  0  0  0  0
 29 32  1  0  0  0  0
 31 29  1  0  0  0  0
M  END
>  <minimizedAffinity>
-4.93756723

$$$$
