
 OpenBabel03272506223D

 26 27  0  0  0  0  0  0  0  0999 V2000
   41.3410   26.3070   34.6590 C   0  0  0  0  0  0  0  0  0  0  0  0
   40.0820   25.7300   34.9260 C   0  0  0  0  0  0  0  0  0  0  0  0
   40.0630   24.4340   35.4320 C   0  0  0  0  0  0  0  0  0  0  0  0
   41.2240   23.7850   35.6470 N   0  0  0  0  0  0  0  0  0  0  0  0
   42.4250   24.3690   35.3800 C   0  0  0  0  0  0  0  0  0  0  0  0
   42.4800   25.6360   34.8830 N   0  0  0  0  0  0  0  0  0  0  0  0
   41.5140   27.2990   34.2660 H   0  0  0  0  0  0  0  0  0  0  0  0
   43.3000   23.7410   35.5950 H   0  0  0  0  0  0  0  0  0  0  0  0
   38.9160   26.5530   34.6370 C   0  0  0  0  0  0  0  0  0  0  0  0
   38.5060   26.5890   33.3090 C   0  0  0  0  0  0  0  0  0  0  0  0
   37.4210   27.3200   32.8580 C   0  0  0  0  0  0  0  0  0  0  0  0
   36.6820   28.0710   33.7650 C   0  0  0  0  0  0  0  0  0  0  0  0
   37.0970   28.0280   35.0760 C   0  0  0  0  0  0  0  0  0  0  0  0
   38.1790   27.3010   35.5380 C   0  0  0  0  0  0  0  0  0  0  0  0
   39.0340   26.0280   32.5370 H   0  0  0  0  0  0  0  0  0  0  0  0
   37.1360   27.3210   31.8130 H   0  0  0  0  0  0  0  0  0  0  0  0
   35.8230   28.6660   33.4900 H   0  0  0  0  0  0  0  0  0  0  0  0
   36.5950   28.5750   35.8780 H   0  0  0  0  0  0  0  0  0  0  0  0
   38.5100   27.2590   36.5490 H   0  0  0  0  0  0  0  0  0  0  0  0
   38.8170   23.8610   35.6970 N   0  0  0  0  0  0  0  0  0  0  0  0
   38.1210   23.6370   34.9550 H   0  0  0  0  0  0  0  0  0  0  0  0
   38.2870   23.4570   37.2900 S   0  0  0  0  0  0  0  0  0  0  0  0
   37.0270   22.6230   37.2620 O   0  0  0  0  0  1  0  0  0  0  0  0
   38.0470   24.7200   38.0460 O   0  0  0  0  0  1  0  0  0  0  0  0
   39.4650   22.5050   38.0520 O   0  0  0  0  0  0  0  0  0  0  0  0
   40.3280   23.0070   38.0220 H   0  0  0  0  0  0  0  0  0  0  0  0
  1  6  2  0  0  0  0
  1  2  1  0  0  0  0
  2  3  2  0  0  0  0
  3  4  1  0  0  0  0
  3 20  1  0  0  0  0
  5  8  1  0  0  0  0
  5  4  2  0  0  0  0
  6  5  1  0  0  0  0
  7  1  1  0  0  0  0
  9  2  1  0  0  0  0
  9 14  1  0  0  0  0
 10  9  2  0  0  0  0
 11 10  1  0  0  0  0
 11 12  2  0  0  0  0
 12 13  1  0  0  0  0
 13 14  2  0  0  0  0
 13 18  1  0  0  0  0
 14 19  1  0  0  0  0
 15 10  1  0  0  0  0
 16 11  1  0  0  0  0
 17 12  1  0  0  0  0
 20 22  1  0  0  0  0
 21 20  1  0  0  0  0
 22 24  1  0  0  0  0
 22 25  1  0  0  0  0
 23 22  1  0  0  0  0
 26 25  1  0  0  0  0
M  END
>  <minimizedAffinity>
-4.88484859

$$$$

 OpenBabel03272506223D

 26 27  0  0  0  0  0  0  0  0999 V2000
   37.6840   27.0310   35.3830 C   0  0  0  0  0  0  0  0  0  0  0  0
   37.8760   25.7400   34.8490 C   0  0  0  0  0  0  0  0  0  0  0  0
   37.4200   25.5060   33.5550 C   0  0  0  0  0  0  0  0  0  0  0  0
   36.8240   26.4990   32.8670 N   0  0  0  0  0  0  0  0  0  0  0  0
   36.6530   27.7360   33.4110 C   0  0  0  0  0  0  0  0  0  0  0  0
   37.0860   28.0000   34.6740 N   0  0  0  0  0  0  0  0  0  0  0  0
   37.9830   27.3610   36.3680 H   0  0  0  0  0  0  0  0  0  0  0  0
   36.1530   28.4610   32.7540 H   0  0  0  0  0  0  0  0  0  0  0  0
   38.5330   24.7700   35.7140 C   0  0  0  0  0  0  0  0  0  0  0  0
   37.8350   24.4000   36.8580 C   0  0  0  0  0  0  0  0  0  0  0  0
   38.3110   23.4940   37.7900 C   0  0  0  0  0  0  0  0  0  0  0  0
   39.5540   22.9050   37.5940 C   0  0  0  0  0  0  0  0  0  0  0  0
   40.2350   23.2780   36.4580 C   0  0  0  0  0  0  0  0  0  0  0  0
   39.7700   24.1820   35.5200 C   0  0  0  0  0  0  0  0  0  0  0  0
   36.8530   24.8180   37.0840 H   0  0  0  0  0  0  0  0  0  0  0  0
   37.7340   23.2350   38.6690 H   0  0  0  0  0  0  0  0  0  0  0  0
   39.9920   22.1900   38.2750 H   0  0  0  0  0  0  0  0  0  0  0  0
   41.2190   22.8820   36.1970 H   0  0  0  0  0  0  0  0  0  0  0  0
   40.2870   24.4790   34.6380 H   0  0  0  0  0  0  0  0  0  0  0  0
   37.6100   24.2270   33.0240 N   0  0  0  0  0  0  0  0  0  0  0  0
   38.1840   23.4940   33.4900 H   0  0  0  0  0  0  0  0  0  0  0  0
   36.9110   23.7160   31.5300 S   0  0  0  0  0  0  0  0  0  0  0  0
   35.4070   23.6090   31.6280 O   0  0  0  0  0  1  0  0  0  0  0  0
   37.4940   22.3930   31.1610 O   0  0  0  0  0  1  0  0  0  0  0  0
   37.2250   24.8760   30.3340 O   0  0  0  0  0  0  0  0  0  0  0  0
   38.2130   25.0150   30.2970 H   0  0  0  0  0  0  0  0  0  0  0  0
  1  7  1  0  0  0  0
  2  1  1  0  0  0  0
  2  9  1  0  0  0  0
  3  2  2  0  0  0  0
  4  5  2  0  0  0  0
  4  3  1  0  0  0  0
  5  6  1  0  0  0  0
  6  1  2  0  0  0  0
  8  5  1  0  0  0  0
  9 10  1  0  0  0  0
 10 15  1  0  0  0  0
 10 11  2  0  0  0  0
 11 16  1  0  0  0  0
 12 11  1  0  0  0  0
 12 17  1  0  0  0  0
 13 12  2  0  0  0  0
 14  9  2  0  0  0  0
 14 13  1  0  0  0  0
 18 13  1  0  0  0  0
 19 14  1  0  0  0  0
 20 21  1  0  0  0  0
 20  3  1  0  0  0  0
 22 23  1  0  0  0  0
 22 20  1  0  0  0  0
 24 22  1  0  0  0  0
 25 22  1  0  0  0  0
 26 25  1  0  0  0  0
M  END
>  <minimizedAffinity>
-4.69818258

$$$$

 OpenBabel03272506223D

 26 27  0  0  0  0  0  0  0  0999 V2000
   39.0760   25.3780   34.0810 C   0  0  0  0  0  0  0  0  0  0  0  0
   38.5850   24.1360   34.5340 C   0  0  0  0  0  0  0  0  0  0  0  0
   37.9700   23.3080   33.6010 C   0  0  0  0  0  0  0  0  0  0  0  0
   37.8660   23.7100   32.3190 N   0  0  0  0  0  0  0  0  0  0  0  0
   38.3500   24.9160   31.9110 C   0  0  0  0  0  0  0  0  0  0  0  0
   38.9570   25.7510   32.7990 N   0  0  0  0  0  0  0  0  0  0  0  0
   39.5750   26.1220   34.6860 H   0  0  0  0  0  0  0  0  0  0  0  0
   38.2050   25.1330   30.8440 H   0  0  0  0  0  0  0  0  0  0  0  0
   38.7680   23.8430   35.9490 C   0  0  0  0  0  0  0  0  0  0  0  0
   37.8730   24.4530   36.8210 C   0  0  0  0  0  0  0  0  0  0  0  0
   37.9020   24.2870   38.1950 C   0  0  0  0  0  0  0  0  0  0  0  0
   38.8730   23.4690   38.7610 C   0  0  0  0  0  0  0  0  0  0  0  0
   39.7530   22.8700   37.8890 C   0  0  0  0  0  0  0  0  0  0  0  0
   39.7330   23.0280   36.5150 C   0  0  0  0  0  0  0  0  0  0  0  0
   37.0830   25.1090   36.4540 H   0  0  0  0  0  0  0  0  0  0  0  0
   37.1850   24.7830   38.8380 H   0  0  0  0  0  0  0  0  0  0  0  0
   38.9590   23.2900   39.8230 H   0  0  0  0  0  0  0  0  0  0  0  0
   40.5560   22.2060   38.2170 H   0  0  0  0  0  0  0  0  0  0  0  0
   40.4080   22.5710   35.8300 H   0  0  0  0  0  0  0  0  0  0  0  0
   37.4830   22.0770   34.0480 N   0  0  0  0  0  0  0  0  0  0  0  0
   37.7500   21.6550   34.9630 H   0  0  0  0  0  0  0  0  0  0  0  0
   36.3820   21.1120   33.1340 S   0  0  0  0  0  0  0  0  0  0  0  0
   35.4490   20.3330   34.0310 O   0  0  0  0  0  1  0  0  0  0  0  0
   37.1670   20.1760   32.2770 O   0  0  0  0  0  1  0  0  0  0  0  0
   35.3970   22.1210   32.1920 O   0  0  0  0  0  0  0  0  0  0  0  0
   35.9940   22.6970   31.6370 H   0  0  0  0  0  0  0  0  0  0  0  0
  1  2  1  0  0  0  0
  1  7  1  0  0  0  0
  2  9  1  0  0  0  0
  3 20  1  0  0  0  0
  3  2  2  0  0  0  0
  4  3  1  0  0  0  0
  5  4  2  0  0  0  0
  5  6  1  0  0  0  0
  6  1  2  0  0  0  0
  8  5  1  0  0  0  0
  9 14  2  0  0  0  0
  9 10  1  0  0  0  0
 10 11  2  0  0  0  0
 11 12  1  0  0  0  0
 11 16  1  0  0  0  0
 12 17  1  0  0  0  0
 13 18  1  0  0  0  0
 13 12  2  0  0  0  0
 14 13  1  0  0  0  0
 15 10  1  0  0  0  0
 19 14  1  0  0  0  0
 20 21  1  0  0  0  0
 22 23  1  0  0  0  0
 22 20  1  0  0  0  0
 24 22  1  0  0  0  0
 25 22  1  0  0  0  0
 26 25  1  0  0  0  0
M  END
>  <minimizedAffinity>
-4.59770012

$$$$

 OpenBabel03272506223D

 26 27  0  0  0  0  0  0  0  0999 V2000
   37.3680   21.8960   34.2570 C   0  0  0  0  0  0  0  0  0  0  0  0
   38.1090   23.0310   34.6470 C   0  0  0  0  0  0  0  0  0  0  0  0
   38.3600   23.9990   33.6790 C   0  0  0  0  0  0  0  0  0  0  0  0
   37.8960   23.8250   32.4260 N   0  0  0  0  0  0  0  0  0  0  0  0
   37.1830   22.7180   32.0800 C   0  0  0  0  0  0  0  0  0  0  0  0
   36.9190   21.7510   33.0020 N   0  0  0  0  0  0  0  0  0  0  0  0
   37.0960   21.0660   34.8940 H   0  0  0  0  0  0  0  0  0  0  0  0
   36.8600   22.6880   31.0300 H   0  0  0  0  0  0  0  0  0  0  0  0
   38.5470   23.0750   36.0350 C   0  0  0  0  0  0  0  0  0  0  0  0
   37.6470   23.6210   36.9430 C   0  0  0  0  0  0  0  0  0  0  0  0
   37.8990   23.7430   38.2990 C   0  0  0  0  0  0  0  0  0  0  0  0
   39.1160   23.3030   38.8070 C   0  0  0  0  0  0  0  0  0  0  0  0
   39.9980   22.7640   37.8990 C   0  0  0  0  0  0  0  0  0  0  0  0
   39.7560   22.6370   36.5430 C   0  0  0  0  0  0  0  0  0  0  0  0
   36.6720   23.9900   36.6230 H   0  0  0  0  0  0  0  0  0  0  0  0
   37.1690   24.1770   38.9720 H   0  0  0  0  0  0  0  0  0  0  0  0
   39.3850   23.3640   39.8510 H   0  0  0  0  0  0  0  0  0  0  0  0
   40.9830   22.3840   38.1800 H   0  0  0  0  0  0  0  0  0  0  0  0
   40.4310   22.2220   35.8310 H   0  0  0  0  0  0  0  0  0  0  0  0
   39.0930   25.1240   34.0640 N   0  0  0  0  0  0  0  0  0  0  0  0
   40.1310   25.1250   34.1590 H   0  0  0  0  0  0  0  0  0  0  0  0
   38.3620   26.6460   34.4250 S   0  0  0  0  0  0  0  0  0  0  0  0
   36.9730   26.4730   34.9950 O   0  0  0  0  0  1  0  0  0  0  0  0
   38.3030   27.4540   33.1720 O   0  0  0  0  0  1  0  0  0  0  0  0
   39.2670   27.4370   35.6190 O   0  0  0  0  0  0  0  0  0  0  0  0
   40.2090   27.5030   35.2940 H   0  0  0  0  0  0  0  0  0  0  0  0
  1  2  1  0  0  0  0
  1  7  1  0  0  0  0
  2  9  1  0  0  0  0
  3 20  1  0  0  0  0
  3  2  2  0  0  0  0
  4  3  1  0  0  0  0
  5  4  2  0  0  0  0
  5  6  1  0  0  0  0
  6  1  2  0  0  0  0
  8  5  1  0  0  0  0
  9 14  2  0  0  0  0
  9 10  1  0  0  0  0
 10 11  2  0  0  0  0
 11 12  1  0  0  0  0
 11 16  1  0  0  0  0
 12 17  1  0  0  0  0
 13 18  1  0  0  0  0
 13 12  2  0  0  0  0
 14 13  1  0  0  0  0
 15 10  1  0  0  0  0
 19 14  1  0  0  0  0
 20 21  1  0  0  0  0
 20 22  1  0  0  0  0
 22 23  1  0  0  0  0
 22 25  1  0  0  0  0
 24 22  1  0  0  0  0
 26 25  1  0  0  0  0
M  END
>  <minimizedAffinity>
-4.58035898

$$$$

 OpenBabel03272506223D

 26 27  0  0  0  0  0  0  0  0999 V2000
   37.5060   25.5060   33.7910 C   0  0  0  0  0  0  0  0  0  0  0  0
   38.6560   25.6650   34.5900 C   0  0  0  0  0  0  0  0  0  0  0  0
   39.6330   26.5490   34.1430 C   0  0  0  0  0  0  0  0  0  0  0  0
   39.4520   27.2120   32.9840 N   0  0  0  0  0  0  0  0  0  0  0  0
   38.3290   27.0370   32.2330 C   0  0  0  0  0  0  0  0  0  0  0  0
   37.3540   26.1790   32.6410 N   0  0  0  0  0  0  0  0  0  0  0  0
   36.6670   24.8590   34.0070 H   0  0  0  0  0  0  0  0  0  0  0  0
   38.2960   27.6300   31.3090 H   0  0  0  0  0  0  0  0  0  0  0  0
   38.7110   24.8770   35.8140 C   0  0  0  0  0  0  0  0  0  0  0  0
   39.5440   23.7650   35.7890 C   0  0  0  0  0  0  0  0  0  0  0  0
   39.7140   22.9060   36.8610 C   0  0  0  0  0  0  0  0  0  0  0  0
   39.0230   23.1470   38.0420 C   0  0  0  0  0  0  0  0  0  0  0  0
   38.2020   24.2510   38.0560 C   0  0  0  0  0  0  0  0  0  0  0  0
   38.0250   25.1160   36.9920 C   0  0  0  0  0  0  0  0  0  0  0  0
   40.1190   23.5080   34.8990 H   0  0  0  0  0  0  0  0  0  0  0  0
   40.3730   22.0490   36.7970 H   0  0  0  0  0  0  0  0  0  0  0  0
   39.1040   22.5230   38.9200 H   0  0  0  0  0  0  0  0  0  0  0  0
   37.6100   24.5410   38.9280 H   0  0  0  0  0  0  0  0  0  0  0  0
   37.3930   25.9730   36.9900 H   0  0  0  0  0  0  0  0  0  0  0  0
   40.7730   26.7090   34.9340 N   0  0  0  0  0  0  0  0  0  0  0  0
   40.7580   27.1580   35.8740 H   0  0  0  0  0  0  0  0  0  0  0  0
   42.3410   26.1790   34.4430 S   0  0  0  0  0  0  0  0  0  0  0  0
   42.2950   25.4690   33.1100 O   0  0  0  0  0  1  0  0  0  0  0  0
   42.8840   25.2650   35.4900 O   0  0  0  0  0  1  0  0  0  0  0  0
   43.3490   27.5250   34.2260 O   0  0  0  0  0  0  0  0  0  0  0  0
   43.3420   28.0500   35.0750 H   0  0  0  0  0  0  0  0  0  0  0  0
  1  7  1  0  0  0  0
  1  2  1  0  0  0  0
  2  9  1  0  0  0  0
  3  2  2  0  0  0  0
  3 20  1  0  0  0  0
  4  3  1  0  0  0  0
  5  6  1  0  0  0  0
  5  4  2  0  0  0  0
  6  1  2  0  0  0  0
  8  5  1  0  0  0  0
  9 14  1  0  0  0  0
 10  9  2  0  0  0  0
 10 11  1  0  0  0  0
 11 12  2  0  0  0  0
 12 13  1  0  0  0  0
 12 17  1  0  0  0  0
 13 18  1  0  0  0  0
 14 13  2  0  0  0  0
 15 10  1  0  0  0  0
 16 11  1  0  0  0  0
 19 14  1  0  0  0  0
 20 21  1  0  0  0  0
 22 20  1  0  0  0  0
 22 24  1  0  0  0  0
 23 22  1  0  0  0  0
 25 22  1  0  0  0  0
 25 26  1  0  0  0  0
M  END
>  <minimizedAffinity>
-4.57547474

$$$$

 OpenBabel03272506223D

 26 27  0  0  0  0  0  0  0  0999 V2000
   35.5690   26.6600   31.4390 C   0  0  0  0  0  0  0  0  0  0  0  0
   36.4930   27.2140   32.3490 C   0  0  0  0  0  0  0  0  0  0  0  0
   37.6360   26.4750   32.6350 C   0  0  0  0  0  0  0  0  0  0  0  0
   37.8220   25.2770   32.0460 N   0  0  0  0  0  0  0  0  0  0  0  0
   36.9110   24.7680   31.1710 C   0  0  0  0  0  0  0  0  0  0  0  0
   35.7810   25.4650   30.8680 N   0  0  0  0  0  0  0  0  0  0  0  0
   34.6410   27.1140   31.1210 H   0  0  0  0  0  0  0  0  0  0  0  0
   37.1710   23.7850   30.7570 H   0  0  0  0  0  0  0  0  0  0  0  0
   36.1530   28.5160   32.9080 C   0  0  0  0  0  0  0  0  0  0  0  0
   36.1700   29.5860   32.0210 C   0  0  0  0  0  0  0  0  0  0  0  0
   35.8760   30.8890   32.3820 C   0  0  0  0  0  0  0  0  0  0  0  0
   35.5420   31.1710   33.7010 C   0  0  0  0  0  0  0  0  0  0  0  0
   35.5270   30.1040   34.5700 C   0  0  0  0  0  0  0  0  0  0  0  0
   35.8180   28.7980   34.2200 C   0  0  0  0  0  0  0  0  0  0  0  0
   36.4240   29.4470   30.9690 H   0  0  0  0  0  0  0  0  0  0  0  0
   35.9030   31.6940   31.6570 H   0  0  0  0  0  0  0  0  0  0  0  0
   35.2990   32.1620   34.0580 H   0  0  0  0  0  0  0  0  0  0  0  0
   35.2780   30.2030   35.6290 H   0  0  0  0  0  0  0  0  0  0  0  0
   35.8110   27.9640   34.8830 H   0  0  0  0  0  0  0  0  0  0  0  0
   38.5530   27.0230   33.5360 N   0  0  0  0  0  0  0  0  0  0  0  0
   39.1620   27.8370   33.3080 H   0  0  0  0  0  0  0  0  0  0  0  0
   38.7810   26.4130   35.1350 S   0  0  0  0  0  0  0  0  0  0  0  0
   40.0930   25.6750   35.2660 O   0  0  0  0  0  1  0  0  0  0  0  0
   37.6480   25.4990   35.4610 O   0  0  0  0  0  1  0  0  0  0  0  0
   38.8560   27.7070   36.2270 O   0  0  0  0  0  0  0  0  0  0  0  0
   38.0270   28.2510   36.1120 H   0  0  0  0  0  0  0  0  0  0  0  0
  1  2  1  0  0  0  0
  2  3  2  0  0  0  0
  2  9  1  0  0  0  0
  3 20  1  0  0  0  0
  4  3  1  0  0  0  0
  5  4  2  0  0  0  0
  6  5  1  0  0  0  0
  6  1  2  0  0  0  0
  7  1  1  0  0  0  0
  8  5  1  0  0  0  0
  9 14  1  0  0  0  0
 10 11  1  0  0  0  0
 10  9  2  0  0  0  0
 11 12  2  0  0  0  0
 12 17  1  0  0  0  0
 12 13  1  0  0  0  0
 13 18  1  0  0  0  0
 14 13  2  0  0  0  0
 14 19  1  0  0  0  0
 15 10  1  0  0  0  0
 16 11  1  0  0  0  0
 20 22  1  0  0  0  0
 21 20  1  0  0  0  0
 22 23  1  0  0  0  0
 22 24  1  0  0  0  0
 22 25  1  0  0  0  0
 26 25  1  0  0  0  0
M  END
>  <minimizedAffinity>
-4.57085276

$$$$

 OpenBabel03272506223D

 26 27  0  0  0  0  0  0  0  0999 V2000
   35.8880   31.3700   35.5960 C   0  0  0  0  0  0  0  0  0  0  0  0
   35.0900   30.3920   34.9680 C   0  0  0  0  0  0  0  0  0  0  0  0
   33.7600   30.2940   35.3670 C   0  0  0  0  0  0  0  0  0  0  0  0
   33.2880   31.1210   36.3200 N   0  0  0  0  0  0  0  0  0  0  0  0
   34.0840   32.0560   36.9080 C   0  0  0  0  0  0  0  0  0  0  0  0
   35.3900   32.1780   36.5420 N   0  0  0  0  0  0  0  0  0  0  0  0
   36.9320   31.5630   35.3930 H   0  0  0  0  0  0  0  0  0  0  0  0
   33.5870   32.6700   37.6720 H   0  0  0  0  0  0  0  0  0  0  0  0
   35.7430   29.5690   33.9590 C   0  0  0  0  0  0  0  0  0  0  0  0
   36.3310   28.3950   34.4150 C   0  0  0  0  0  0  0  0  0  0  0  0
   36.9940   27.4980   33.5950 C   0  0  0  0  0  0  0  0  0  0  0  0
   37.0930   27.7640   32.2340 C   0  0  0  0  0  0  0  0  0  0  0  0
   36.5070   28.9290   31.7950 C   0  0  0  0  0  0  0  0  0  0  0  0
   35.8410   29.8310   32.6040 C   0  0  0  0  0  0  0  0  0  0  0  0
   36.2970   28.1150   35.4680 H   0  0  0  0  0  0  0  0  0  0  0  0
   37.4390   26.5940   33.9920 H   0  0  0  0  0  0  0  0  0  0  0  0
   37.5940   27.1140   31.5320 H   0  0  0  0  0  0  0  0  0  0  0  0
   36.5190   29.2430   30.7490 H   0  0  0  0  0  0  0  0  0  0  0  0
   35.3840   30.7360   32.2770 H   0  0  0  0  0  0  0  0  0  0  0  0
   32.9670   29.3260   34.7460 N   0  0  0  0  0  0  0  0  0  0  0  0
   33.0020   28.3140   34.9920 H   0  0  0  0  0  0  0  0  0  0  0  0
   31.8340   29.6980   33.4980 S   0  0  0  0  0  0  0  0  0  0  0  0
   32.4110   30.6680   32.4940 O   0  0  0  0  0  1  0  0  0  0  0  0
   30.6110   30.2790   34.1240 O   0  0  0  0  0  1  0  0  0  0  0  0
   31.4650   28.2880   32.6320 O   0  0  0  0  0  0  0  0  0  0  0  0
   31.1440   27.6050   33.2860 H   0  0  0  0  0  0  0  0  0  0  0  0
  1  6  1  0  0  0  0
  2  3  1  0  0  0  0
  2  1  2  0  0  0  0
  3  4  2  0  0  0  0
  4  5  1  0  0  0  0
  5  8  1  0  0  0  0
  6  5  2  0  0  0  0
  7  1  1  0  0  0  0
  9 10  1  0  0  0  0
  9  2  1  0  0  0  0
 10 15  1  0  0  0  0
 11 16  1  0  0  0  0
 11 10  2  0  0  0  0
 12 11  1  0  0  0  0
 13 12  2  0  0  0  0
 13 14  1  0  0  0  0
 14  9  2  0  0  0  0
 17 12  1  0  0  0  0
 18 13  1  0  0  0  0
 19 14  1  0  0  0  0
 20 21  1  0  0  0  0
 20  3  1  0  0  0  0
 22 24  1  0  0  0  0
 22 20  1  0  0  0  0
 23 22  1  0  0  0  0
 25 26  1  0  0  0  0
 25 22  1  0  0  0  0
M  END
>  <minimizedAffinity>
-4.55878305

$$$$

 OpenBabel03272506223D

 26 27  0  0  0  0  0  0  0  0999 V2000
   35.8750   24.4330   31.3120 C   0  0  0  0  0  0  0  0  0  0  0  0
   36.5490   23.4880   32.1120 C   0  0  0  0  0  0  0  0  0  0  0  0
   37.4920   23.9670   33.0170 C   0  0  0  0  0  0  0  0  0  0  0  0
   37.7260   25.2910   33.0980 N   0  0  0  0  0  0  0  0  0  0  0  0
   37.0580   26.1800   32.3120 C   0  0  0  0  0  0  0  0  0  0  0  0
   36.1300   25.7460   31.4160 N   0  0  0  0  0  0  0  0  0  0  0  0
   35.1210   24.2140   30.5700 H   0  0  0  0  0  0  0  0  0  0  0  0
   37.3360   27.2310   32.4680 H   0  0  0  0  0  0  0  0  0  0  0  0
   36.1930   22.0910   31.9070 C   0  0  0  0  0  0  0  0  0  0  0  0
   36.9570   21.3940   30.9780 C   0  0  0  0  0  0  0  0  0  0  0  0
   36.7560   20.0630   30.6590 C   0  0  0  0  0  0  0  0  0  0  0  0
   35.7350   19.3590   31.2870 C   0  0  0  0  0  0  0  0  0  0  0  0
   34.9850   20.0580   32.2050 C   0  0  0  0  0  0  0  0  0  0  0  0
   35.1780   21.3880   32.5330 C   0  0  0  0  0  0  0  0  0  0  0  0
   37.7760   21.8760   30.4420 H   0  0  0  0  0  0  0  0  0  0  0  0
   37.3750   19.5580   29.9270 H   0  0  0  0  0  0  0  0  0  0  0  0
   35.5170   18.3190   31.0920 H   0  0  0  0  0  0  0  0  0  0  0  0
   34.1590   19.6110   32.7620 H   0  0  0  0  0  0  0  0  0  0  0  0
   34.6050   21.9400   33.2400 H   0  0  0  0  0  0  0  0  0  0  0  0
   38.1610   23.0310   33.8110 N   0  0  0  0  0  0  0  0  0  0  0  0
   38.4010   22.0710   33.4840 H   0  0  0  0  0  0  0  0  0  0  0  0
   38.6680   23.3610   35.4280 S   0  0  0  0  0  0  0  0  0  0  0  0
   37.6520   24.1990   36.1690 O   0  0  0  0  0  1  0  0  0  0  0  0
   39.9780   24.0730   35.3800 O   0  0  0  0  0  1  0  0  0  0  0  0
   38.7950   21.9050   36.2870 O   0  0  0  0  0  0  0  0  0  0  0  0
   39.4120   21.3060   35.7800 H   0  0  0  0  0  0  0  0  0  0  0  0
  1  6  2  0  0  0  0
  1  2  1  0  0  0  0
  2  3  2  0  0  0  0
  3  4  1  0  0  0  0
  3 20  1  0  0  0  0
  5  8  1  0  0  0  0
  5  4  2  0  0  0  0
  6  5  1  0  0  0  0
  7  1  1  0  0  0  0
  9  2  1  0  0  0  0
  9 14  1  0  0  0  0
 10  9  2  0  0  0  0
 11 10  1  0  0  0  0
 11 12  2  0  0  0  0
 12 13  1  0  0  0  0
 13 14  2  0  0  0  0
 13 18  1  0  0  0  0
 14 19  1  0  0  0  0
 15 10  1  0  0  0  0
 16 11  1  0  0  0  0
 17 12  1  0  0  0  0
 20 22  1  0  0  0  0
 21 20  1  0  0  0  0
 22 23  1  0  0  0  0
 22 25  1  0  0  0  0
 24 22  1  0  0  0  0
 26 25  1  0  0  0  0
M  END
>  <minimizedAffinity>
-4.55515528

$$$$

 OpenBabel03272506223D

 26 27  0  0  0  0  0  0  0  0999 V2000
   40.4230   26.5880   34.4490 C   0  0  0  0  0  0  0  0  0  0  0  0
   39.3550   25.6710   34.3820 C   0  0  0  0  0  0  0  0  0  0  0  0
   38.6760   25.5600   33.1720 C   0  0  0  0  0  0  0  0  0  0  0  0
   39.0550   26.3170   32.1240 N   0  0  0  0  0  0  0  0  0  0  0  0
   40.0920   27.1950   32.2190 C   0  0  0  0  0  0  0  0  0  0  0  0
   40.7770   27.3280   33.3880 N   0  0  0  0  0  0  0  0  0  0  0  0
   41.0400   26.7820   35.3150 H   0  0  0  0  0  0  0  0  0  0  0  0
   40.3060   27.7560   31.2990 H   0  0  0  0  0  0  0  0  0  0  0  0
   39.0600   24.9270   35.5990 C   0  0  0  0  0  0  0  0  0  0  0  0
   39.8390   23.7990   35.8300 C   0  0  0  0  0  0  0  0  0  0  0  0
   39.6940   22.9760   36.9340 C   0  0  0  0  0  0  0  0  0  0  0  0
   38.7200   23.2720   37.8800 C   0  0  0  0  0  0  0  0  0  0  0  0
   37.9560   24.3910   37.6410 C   0  0  0  0  0  0  0  0  0  0  0  0
   38.0920   25.2200   36.5430 C   0  0  0  0  0  0  0  0  0  0  0  0
   40.6230   23.4990   35.1340 H   0  0  0  0  0  0  0  0  0  0  0  0
   40.3230   22.1050   37.0740 H   0  0  0  0  0  0  0  0  0  0  0  0
   38.5470   22.6790   38.7660 H   0  0  0  0  0  0  0  0  0  0  0  0
   37.1620   24.7230   38.3140 H   0  0  0  0  0  0  0  0  0  0  0  0
   37.5070   26.0880   36.3470 H   0  0  0  0  0  0  0  0  0  0  0  0
   37.6170   24.6510   33.1040 N   0  0  0  0  0  0  0  0  0  0  0  0
   37.3630   24.0100   33.8850 H   0  0  0  0  0  0  0  0  0  0  0  0
   36.6060   24.4880   31.7150 S   0  0  0  0  0  0  0  0  0  0  0  0
   35.6430   25.6460   31.5890 O   0  0  0  0  0  1  0  0  0  0  0  0
   35.8500   23.2070   31.8250 O   0  0  0  0  0  1  0  0  0  0  0  0
   37.5610   24.5140   30.3150 O   0  0  0  0  0  0  0  0  0  0  0  0
   38.2510   23.7980   30.4050 H   0  0  0  0  0  0  0  0  0  0  0  0
  1  7  1  0  0  0  0
  2  1  1  0  0  0  0
  2  9  1  0  0  0  0
  3  2  2  0  0  0  0
  4  5  2  0  0  0  0
  4  3  1  0  0  0  0
  5  6  1  0  0  0  0
  6  1  2  0  0  0  0
  8  5  1  0  0  0  0
  9 10  2  0  0  0  0
  9 14  1  0  0  0  0
 10 11  1  0  0  0  0
 11 16  1  0  0  0  0
 11 12  2  0  0  0  0
 12 17  1  0  0  0  0
 13 12  1  0  0  0  0
 13 18  1  0  0  0  0
 14 13  2  0  0  0  0
 15 10  1  0  0  0  0
 19 14  1  0  0  0  0
 20  3  1  0  0  0  0
 20 21  1  0  0  0  0
 22 24  1  0  0  0  0
 22 20  1  0  0  0  0
 23 22  1  0  0  0  0
 25 26  1  0  0  0  0
 25 22  1  0  0  0  0
M  END
>  <minimizedAffinity>
-4.519454

$$$$
