
 OpenBabel03272500073D

 42 45  0  0  1  0  0  0  0  0999 V2000
   31.0860   27.2640   48.2780 C   0  0  0  0  0  0  0  0  0  0  0  0
   30.8390   27.7860   49.5310 C   0  0  0  0  0  0  0  0  0  0  0  0
   29.5750   28.2080   49.8880 C   0  0  0  0  0  0  0  0  0  0  0  0
   28.5410   28.1060   48.9690 C   0  0  0  0  0  0  0  0  0  0  0  0
   28.8020   27.5860   47.7260 C   0  0  0  0  0  0  0  0  0  0  0  0
   30.0520   27.1700   47.3800 C   0  0  0  0  0  0  0  0  0  0  0  0
   31.6180   27.8900   50.2950 H   0  0  0  0  0  0  0  0  0  0  0  0
   29.4060   28.6160   50.8820 H   0  0  0  0  0  0  0  0  0  0  0  0
   27.5700   28.4450   49.2800 H   0  0  0  0  0  0  0  0  0  0  0  0
   27.9570   27.5320   47.0540 H   0  0  0  0  0  0  0  0  0  0  0  0
   30.7200   27.6320   45.0340 C   0  0  2  0  0  3  0  0  0  0  0  0
   30.2890   26.6000   46.0580 C   0  0  1  0  0  3  0  0  0  0  0  0
   31.2830   25.4720   45.9970 C   0  0  0  0  0  3  0  0  0  0  0  0
   30.7640   24.5230   46.2850 H   0  0  0  0  0  0  0  0  0  0  0  0
   31.6450   25.2820   44.6610 O   0  0  0  0  0  0  0  0  0  0  0  0
   30.6420   25.5360   43.7650 C   0  0  0  0  0  3  0  0  0  0  0  0
   30.9970   25.1200   42.7840 H   0  0  0  0  0  0  0  0  0  0  0  0
   30.4140   27.0450   43.6710 C   0  0  2  0  0  3  0  0  0  0  0  0
   32.0980   27.7970   45.1700 O   0  0  0  0  0  0  0  0  0  0  0  0
   32.3340   28.7440   44.9830 H   0  0  0  0  0  0  0  0  0  0  0  0
   31.1480   27.6340   42.6710 O   0  0  0  0  0  0  0  0  0  0  0  0
   30.5230   27.9940   41.9930 H   0  0  0  0  0  0  0  0  0  0  0  0
   32.4090   26.8850   48.0670 O   0  0  0  0  0  0  0  0  0  0  0  0
   35.3170   28.7090   49.1430 C   0  0  0  0  0  0  0  0  0  0  0  0
   35.2440   29.9000   48.4200 C   0  0  0  0  0  0  0  0  0  0  0  0
   34.1540   30.0560   47.5440 C   0  0  0  0  0  0  0  0  0  0  0  0
   33.2500   29.0450   47.4600 N   0  0  0  0  0  0  0  0  0  0  0  0
   33.3470   27.9180   48.1650 C   0  0  0  0  0  0  0  0  0  0  0  0
   34.3940   27.7400   49.0220 N   0  0  0  0  0  0  0  0  0  0  0  0
   36.1320   28.4980   49.8510 H   0  0  0  0  0  0  0  0  0  0  0  0
   34.0930   30.9680   46.9870 H   0  0  0  0  0  0  0  0  0  0  0  0
   36.2550   30.8700   48.6020 N   0  0  0  0  0  0  0  0  0  0  0  0
   36.4040   31.5350   49.7430 C   0  0  0  0  0  0  0  0  0  0  0  0
   37.4160   32.4830   49.8620 C   0  0  0  0  0  0  0  0  0  0  0  0
   38.1960   32.6490   48.7450 C   0  0  0  0  0  0  0  0  0  0  0  0
   39.1140   33.5080   48.8460 O   0  0  0  0  0  0  0  0  0  0  0  0
   38.0760   32.0050   47.5930 N   0  0  0  0  0  0  0  0  0  0  0  0
   37.0730   31.0870   47.5200 C   0  0  0  0  0  0  0  0  0  0  0  0
   36.9460   30.4600   46.4190 O   0  0  0  0  0  0  0  0  0  0  0  0
   35.7620   31.3650   50.5920 H   0  0  0  0  0  0  0  0  0  0  0  0
   37.5440   33.0270   50.7890 H   0  0  0  0  0  0  0  0  0  0  0  0
   38.6990   32.1750   46.7830 H   0  0  0  0  0  0  0  0  0  0  0  0
  1  2  1  0  0  0  0
  2  3  2  0  0  0  0
  2  7  1  0  0  0  0
  3  8  1  0  0  0  0
  4  9  1  0  0  0  0
  4  3  1  0  0  0  0
  5  4  2  0  0  0  0
  6  5  1  0  0  0  0
  6  1  2  0  0  0  0
 10  5  1  0  0  0  0
 11 19  1  6  0  0  0
 11 12  1  0  0  0  0
 12  6  1  1  0  0  0
 13 12  1  0  0  0  0
 13 14  1  0  0  0  0
 15 13  1  0  0  0  0
 16 15  1  0  0  0  0
 17 16  1  0  0  0  0
 18 21  1  6  0  0  0
 18 16  1  0  0  0  0
 18 11  1  0  0  0  0
 20 19  1  0  0  0  0
 22 21  1  0  0  0  0
 23 28  1  0  0  0  0
 23  1  1  0  0  0  0
 24 30  1  0  0  0  0
 25 32  1  0  0  0  0
 25 24  2  0  0  0  0
 26 25  1  0  0  0  0
 27 26  2  0  0  0  0
 27 28  1  0  0  0  0
 28 29  2  0  0  0  0
 29 24  1  0  0  0  0
 31 26  1  0  0  0  0
 32 33  1  0  0  0  0
 33 34  2  0  0  0  0
 33 40  1  0  0  0  0
 34 41  1  0  0  0  0
 35 36  2  0  0  0  0
 35 34  1  0  0  0  0
 37 35  1  0  0  0  0
 38 37  1  0  0  0  0
 38 32  1  0  0  0  0
 39 38  2  0  0  0  0
 42 37  1  0  0  0  0
M  END
>  <minimizedAffinity>
-5.73364067

>  <minimizedRMSD>
0.904020667

$$$$
