
 OpenBabel03262521233D

 50 53  0  0  1  0  0  0  0  0999 V2000
   40.3880   25.2560   53.3780 C   0  0  0  0  0  0  0  0  0  0  0  0
   39.7720   26.0720   52.4280 C   0  0  0  0  0  0  0  0  0  0  0  0
   40.0980   25.7980   51.0910 C   0  0  0  0  0  0  0  0  0  0  0  0
   40.9490   24.8130   50.7100 C   0  0  0  0  0  0  0  0  0  0  0  0
   41.4280   24.3380   49.5820 N   0  0  0  0  0  0  0  0  0  0  0  0
   42.2890   23.2960   49.7660 C   0  0  0  0  0  0  0  0  0  0  0  0
   42.3510   23.1050   51.1320 C   0  0  0  0  0  0  0  0  0  0  0  0
   41.5240   24.0450   51.6900 C   0  0  0  0  0  0  0  0  0  0  0  0
   41.2630   24.2430   53.0260 C   0  0  0  0  0  0  0  0  0  0  0  0
   40.1170   25.4950   54.3860 H   0  0  0  0  0  0  0  0  0  0  0  0
   39.6600   26.3880   50.2870 H   0  0  0  0  0  0  0  0  0  0  0  0
   41.1980   24.6950   48.6130 H   0  0  0  0  0  0  0  0  0  0  0  0
   42.7970   22.7570   48.9730 H   0  0  0  0  0  0  0  0  0  0  0  0
   42.9540   22.3460   51.6150 H   0  0  0  0  0  0  0  0  0  0  0  0
   40.7470   22.6420   54.7520 C   0  0  2  0  0  3  0  0  0  0  0  0
   41.8820   23.4140   54.0780 C   0  0  2  0  0  3  0  0  0  0  0  0
   42.6440   24.1450   55.1170 C   0  0  0  0  0  3  0  0  0  0  0  0
   42.0610   24.9390   55.6280 H   0  0  0  0  0  0  0  0  0  0  0  0
   43.0400   23.2680   56.0900 O   0  0  0  0  0  0  0  0  0  0  0  0
   42.8350   21.9380   55.8440 C   0  0  0  0  0  3  0  0  0  0  0  0
   43.5760   21.4950   55.1170 H   0  0  0  0  0  0  0  0  0  0  0  0
   41.4370   21.5350   55.5140 C   0  0  1  0  0  3  0  0  0  0  0  0
   39.8410   22.1950   53.8170 O   0  0  0  0  0  0  0  0  0  0  0  0
   39.5860   21.2590   54.0140 H   0  0  0  0  0  0  0  0  0  0  0  0
   40.6570   21.2030   56.5950 O   0  0  0  0  0  0  0  0  0  0  0  0
   39.7130   21.2740   56.2970 H   0  0  0  0  0  0  0  0  0  0  0  0
   38.6380   27.4010   52.7090 S   0  0  0  0  0  0  0  0  0  0  0  0
   38.1230   28.2470   51.2250 C   0  0  0  0  0  0  0  0  0  0  0  0
   39.0230   28.6920   50.7500 H   0  0  0  0  0  0  0  0  0  0  0  0
   37.7590   27.4730   50.4870 H   0  0  0  0  0  0  0  0  0  0  0  0
   37.1140   29.3440   51.4510 C   0  0  0  0  0  0  0  0  0  0  0  0
   36.9930   29.3880   52.5760 H   0  0  0  0  0  0  0  0  0  0  0  0
   36.1320   28.9380   51.1240 H   0  0  0  0  0  0  0  0  0  0  0  0
   37.4680   30.5450   50.9230 C   0  0  0  0  0  0  0  0  0  0  0  0
   38.4830   30.9210   51.2210 H   0  0  0  0  0  0  0  0  0  0  0  0
   36.7680   31.3890   51.1000 H   0  0  0  0  0  0  0  0  0  0  0  0
   37.4860   30.1820   49.6030 O   0  0  0  0  0  0  0  0  0  0  0  0
   38.0960   31.0200   48.7020 C   0  0  0  0  0  0  0  0  0  0  0  0
   38.3810   32.2550   49.2300 C   0  0  0  0  0  0  0  0  0  0  0  0
   39.0070   33.2110   48.4130 C   0  0  0  0  0  0  0  0  0  0  0  0
   39.2970   32.8520   47.1330 N   0  0  0  0  0  0  0  0  0  0  0  0
   38.9990   31.6090   46.6340 C   0  0  0  0  0  0  0  0  0  0  0  0
   38.4040   30.7280   47.4430 N   0  0  0  0  0  0  0  0  0  0  0  0
   39.9270   32.4330   44.5870 C   0  0  0  0  0  0  0  0  0  0  0  0
   40.1500   33.5860   45.0670 O   0  0  0  0  0  0  0  0  0  0  0  0
   39.3460   31.3400   45.2820 N   0  0  0  0  0  0  0  0  0  0  0  0
   38.2050   32.6700   50.2240 H   0  0  0  0  0  0  0  0  0  0  0  0
   39.2720   34.1990   48.7240 H   0  0  0  0  0  0  0  0  0  0  0  0
   40.2080   32.2680   43.5460 H   0  0  0  0  0  0  0  0  0  0  0  0
   39.1570   30.3880   44.8990 H   0  0  0  0  0  0  0  0  0  0  0  0
  1 10  1  0  0  0  0
  2 27  1  0  0  0  0
  2  1  2  0  0  0  0
  3  2  1  0  0  0  0
  4  3  2  0  0  0  0
  4  8  1  0  0  0  0
  5  6  1  0  0  0  0
  5  4  1  0  0  0  0
  6  7  2  0  0  0  0
  7 14  1  0  0  0  0
  7  8  1  0  0  0  0
  8  9  2  0  0  0  0
  9  1  1  0  0  0  0
 11  3  1  0  0  0  0
 12  5  1  0  0  0  0
 13  6  1  0  0  0  0
 15 23  1  6  0  0  0
 15 22  1  0  0  0  0
 16  9  1  6  0  0  0
 16 15  1  0  0  0  0
 16 17  1  0  0  0  0
 17 18  1  0  0  0  0
 17 19  1  0  0  0  0
 20 19  1  0  0  0  0
 21 20  1  0  0  0  0
 22 20  1  0  0  0  0
 22 25  1  1  0  0  0
 23 24  1  0  0  0  0
 26 25  1  0  0  0  0
 28 31  1  0  0  0  0
 28 27  1  0  0  0  0
 29 28  1  0  0  0  0
 30 28  1  0  0  0  0
 31 32  1  0  0  0  0
 33 31  1  0  0  0  0
 34 36  1  0  0  0  0
 34 35  1  0  0  0  0
 34 31  1  0  0  0  0
 37 34  1  0  0  0  0
 38 39  1  0  0  0  0
 38 37  1  0  0  0  0
 39 47  1  0  0  0  0
 40 48  1  0  0  0  0
 40 39  2  0  0  0  0
 41 40  1  0  0  0  0
 42 41  2  0  0  0  0
 42 43  1  0  0  0  0
 43 38  2  0  0  0  0
 44 45  2  0  0  0  0
 44 46  1  0  0  0  0
 46 42  1  0  0  0  0
 49 44  1  0  0  0  0
 50 46  1  0  0  0  0
M  END
>  <minimizedAffinity>
-4.48569155

>  <minimizedRMSD>
0.65594542

$$$$
