
 OpenBabel03272500073D

 42 45  0  0  1  0  0  0  0  0999 V2000
   31.0970   27.3820   48.3670 C   0  0  0  0  0  0  0  0  0  0  0  0
   30.7490   27.7890   49.6390 C   0  0  0  0  0  0  0  0  0  0  0  0
   29.4730   28.2350   49.9170 C   0  0  0  0  0  0  0  0  0  0  0  0
   28.5320   28.2760   48.8990 C   0  0  0  0  0  0  0  0  0  0  0  0
   28.8930   27.8690   47.6390 C   0  0  0  0  0  0  0  0  0  0  0  0
   30.1540   27.4280   47.3710 C   0  0  0  0  0  0  0  0  0  0  0  0
   31.4520   27.7780   50.4790 H   0  0  0  0  0  0  0  0  0  0  0  0
   29.2230   28.5500   50.9270 H   0  0  0  0  0  0  0  0  0  0  0  0
   27.5490   28.6290   49.1510 H   0  0  0  0  0  0  0  0  0  0  0  0
   28.1180   27.9230   46.8880 H   0  0  0  0  0  0  0  0  0  0  0  0
   30.4410   25.4750   45.8630 C   0  0  2  0  0  3  0  0  0  0  0  0
   30.4980   26.9820   46.0250 C   0  0  1  0  0  3  0  0  0  0  0  0
   29.6870   27.5800   44.9070 C   0  0  0  0  0  3  0  0  0  0  0  0
   30.1110   28.5840   44.6550 H   0  0  0  0  0  0  0  0  0  0  0  0
   29.8970   26.8130   43.7580 O   0  0  0  0  0  0  0  0  0  0  0  0
   31.1540   26.2790   43.6600 C   0  0  0  0  0  3  0  0  0  0  0  0
   31.2460   25.9060   42.6060 H   0  0  0  0  0  0  0  0  0  0  0  0
   31.3010   25.1340   44.6630 C   0  0  2  0  0  3  0  0  0  0  0  0
   29.1150   25.1400   45.5960 O   0  0  0  0  0  0  0  0  0  0  0  0
   28.9100   24.2600   46.0100 H   0  0  0  0  0  0  0  0  0  0  0  0
   30.9850   23.9110   44.1250 O   0  0  0  0  0  0  0  0  0  0  0  0
   31.8020   23.3520   44.1160 H   0  0  0  0  0  0  0  0  0  0  0  0
   32.4180   26.9610   48.2430 O   0  0  0  0  0  0  0  0  0  0  0  0
   35.3800   28.7740   49.1850 C   0  0  0  0  0  0  0  0  0  0  0  0
   35.3080   29.9410   48.4230 C   0  0  0  0  0  0  0  0  0  0  0  0
   34.1980   30.0840   47.5700 C   0  0  0  0  0  0  0  0  0  0  0  0
   33.2770   29.0860   47.5420 N   0  0  0  0  0  0  0  0  0  0  0  0
   33.3740   27.9820   48.2830 C   0  0  0  0  0  0  0  0  0  0  0  0
   34.4400   27.8160   49.1200 N   0  0  0  0  0  0  0  0  0  0  0  0
   36.2090   28.5740   49.8800 H   0  0  0  0  0  0  0  0  0  0  0  0
   34.1370   30.9780   46.9830 H   0  0  0  0  0  0  0  0  0  0  0  0
   36.3370   30.9000   48.5480 N   0  0  0  0  0  0  0  0  0  0  0  0
   36.5520   31.5690   49.6760 C   0  0  0  0  0  0  0  0  0  0  0  0
   37.5800   32.5060   49.7370 C   0  0  0  0  0  0  0  0  0  0  0  0
   38.3040   32.6570   48.5800 C   0  0  0  0  0  0  0  0  0  0  0  0
   39.2350   33.5060   48.6290 O   0  0  0  0  0  0  0  0  0  0  0  0
   38.1160   32.0080   47.4400 N   0  0  0  0  0  0  0  0  0  0  0  0
   37.1010   31.1010   47.4240 C   0  0  0  0  0  0  0  0  0  0  0  0
   36.9100   30.4700   46.3350 O   0  0  0  0  0  0  0  0  0  0  0  0
   35.9530   31.4110   50.5570 H   0  0  0  0  0  0  0  0  0  0  0  0
   37.7610   33.0540   50.6520 H   0  0  0  0  0  0  0  0  0  0  0  0
   38.6990   32.1660   46.5980 H   0  0  0  0  0  0  0  0  0  0  0  0
  1  2  1  0  0  0  0
  2  3  2  0  0  0  0
  2  7  1  0  0  0  0
  3  8  1  0  0  0  0
  4  9  1  0  0  0  0
  4  3  1  0  0  0  0
  5  4  2  0  0  0  0
  6  5  1  0  0  0  0
  6  1  2  0  0  0  0
 10  5  1  0  0  0  0
 11 19  1  6  0  0  0
 11 12  1  0  0  0  0
 12  6  1  1  0  0  0
 13 12  1  0  0  0  0
 14 13  1  0  0  0  0
 15 13  1  0  0  0  0
 16 15  1  0  0  0  0
 16 18  1  0  0  0  0
 17 16  1  0  0  0  0
 18 21  1  6  0  0  0
 18 11  1  0  0  0  0
 19 20  1  0  0  0  0
 22 21  1  0  0  0  0
 23 28  1  0  0  0  0
 23  1  1  0  0  0  0
 24 30  1  0  0  0  0
 25 32  1  0  0  0  0
 25 24  2  0  0  0  0
 26 25  1  0  0  0  0
 27 26  2  0  0  0  0
 27 28  1  0  0  0  0
 28 29  2  0  0  0  0
 29 24  1  0  0  0  0
 31 26  1  0  0  0  0
 32 33  1  0  0  0  0
 33 34  2  0  0  0  0
 33 40  1  0  0  0  0
 34 41  1  0  0  0  0
 35 36  2  0  0  0  0
 35 34  1  0  0  0  0
 37 35  1  0  0  0  0
 38 37  1  0  0  0  0
 38 32  1  0  0  0  0
 39 38  2  0  0  0  0
 42 37  1  0  0  0  0
M  END
>  <minimizedAffinity>
-5.89112854

>  <minimizedRMSD>
1.20144284

$$$$
