
 OpenBabel03272510263D

 48 52  0  0  1  0  0  0  0  0999 V2000
   39.2920   31.6660   41.9450 N   0  0  0  0  0  0  0  0  0  0  0  0
   39.3350   33.0980   41.9330 C   0  0  1  0  0  0  0  0  0  0  0  0
   38.1310   33.6570   41.3350 C   0  0  0  0  0  0  0  0  0  0  0  0
   38.0610   33.2410   39.9960 O   0  0  0  0  0  0  0  0  0  0  0  0
   38.1360   31.8880   39.8020 C   0  0  0  0  0  0  0  0  0  0  0  0
   39.2190   31.2160   40.5730 C   0  0  1  0  0  0  0  0  0  0  0  0
   38.6410   31.1760   42.5110 H   0  0  0  0  0  0  0  0  0  0  0  0
   40.2210   33.4220   41.3640 H   0  0  0  0  0  0  0  0  0  0  0  0
   38.3030   34.7730   41.2420 H   0  0  0  0  0  0  0  0  0  0  0  0
   37.1460   33.5380   41.6970 H   0  0  0  0  0  0  0  0  0  0  0  0
   38.1800   31.6990   38.7380 H   0  0  0  0  0  0  0  0  0  0  0  0
   37.1580   31.4680   40.1830 H   0  0  0  0  0  0  0  0  0  0  0  0
   38.9140   30.1270   40.6310 H   0  0  0  0  0  0  0  0  0  0  0  0
   41.2630   29.8960   40.2800 C   0  0  2  0  0  3  0  0  0  0  0  0
   40.5660   31.1880   39.9180 C   0  0  1  0  0  3  0  0  0  0  0  0
   40.4840   31.2790   38.4380 C   0  0  0  0  0  3  0  0  0  0  0  0
   41.5500   31.2480   38.0620 H   0  0  0  0  0  0  0  0  0  0  0  0
   39.8780   30.1750   37.8430 O   0  0  0  0  0  0  0  0  0  0  0  0
   40.8160   29.1280   37.9970 C   0  0  0  0  0  3  0  0  0  0  0  0
   41.8210   29.5620   37.8030 H   0  0  0  0  0  0  0  0  0  0  0  0
   40.7670   28.7340   39.4470 C   0  0  1  0  0  3  0  0  0  0  0  0
   41.1210   29.5540   41.6010 O   0  0  0  0  0  0  0  0  0  0  0  0
   41.2450   28.6070   41.7650 H   0  0  0  0  0  0  0  0  0  0  0  0
   41.6120   27.6590   39.7250 O   0  0  0  0  0  0  0  0  0  0  0  0
   42.4820   27.9430   40.1120 H   0  0  0  0  0  0  0  0  0  0  0  0
   39.4640   33.5150   43.2870 O   0  0  0  0  0  0  0  0  0  0  0  0
   36.1720   30.2270   46.9150 C   0  0  0  0  0  0  0  0  0  0  0  0
   37.0510   30.7420   47.8580 C   0  0  0  0  0  0  0  0  0  0  0  0
   38.0750   31.6210   47.4840 C   0  0  0  0  0  0  0  0  0  0  0  0
   38.1580   31.9400   46.1320 C   0  0  0  0  0  0  0  0  0  0  0  0
   39.0610   32.7710   45.5280 N   0  0  0  0  0  0  0  0  0  0  0  0
   38.7460   32.7700   44.2230 C   0  0  0  0  0  0  0  0  0  0  0  0
   37.7070   31.9870   44.0050 N   0  0  0  0  0  0  0  0  0  0  0  0
   37.3000   31.4450   45.1660 C   0  0  0  0  0  0  0  0  0  0  0  0
   36.2880   30.5690   45.5720 C   0  0  0  0  0  0  0  0  0  0  0  0
   35.3720   29.5490   47.1570 H   0  0  0  0  0  0  0  0  0  0  0  0
   38.7700   32.0340   48.2030 H   0  0  0  0  0  0  0  0  0  0  0  0
   39.8430   33.2960   46.0210 H   0  0  0  0  0  0  0  0  0  0  0  0
   35.6190   30.1820   44.8220 H   0  0  0  0  0  0  0  0  0  0  0  0
   37.4580   30.1510   51.5440 C   0  0  0  0  0  0  0  0  0  0  0  0
   37.7760   30.5940   50.2670 C   0  0  0  0  0  0  0  0  0  0  0  0
   36.8890   30.3570   49.2450 C   0  0  0  0  0  0  0  0  0  0  0  0
   35.7250   29.6860   49.5620 N   0  0  0  0  0  0  0  0  0  0  0  0
   35.4260   29.2610   50.8050 C   0  0  0  0  0  0  0  0  0  0  0  0
   36.2840   29.4930   51.7780 N   0  0  0  0  0  0  0  0  0  0  0  0
   38.1940   30.3640   52.3150 H   0  0  0  0  0  0  0  0  0  0  0  0
   38.6850   31.1200   50.0090 H   0  0  0  0  0  0  0  0  0  0  0  0
   34.4900   28.7440   50.9550 H   0  0  0  0  0  0  0  0  0  0  0  0
  1  7  1  0  0  0  0
  2  8  1  6  0  0  0
  2  1  1  0  0  0  0
  2 26  1  0  0  0  0
  3 10  1  0  0  0  0
  3  2  1  0  0  0  0
  4  3  1  0  0  0  0
  5  4  1  0  0  0  0
  5 12  1  0  0  0  0
  5  6  1  0  0  0  0
  6 13  1  1  0  0  0
  6  1  1  0  0  0  0
  9  3  1  0  0  0  0
 11  5  1  0  0  0  0
 14 22  1  1  0  0  0
 15 16  1  6  0  0  0
 15 14  1  0  0  0  0
 15  6  1  0  0  0  0
 17 16  1  0  0  0  0
 18 19  1  0  0  0  0
 18 16  1  0  0  0  0
 19 21  1  0  0  0  0
 20 19  1  0  0  0  0
 21 24  1  6  0  0  0
 21 14  1  0  0  0  0
 22 23  1  0  0  0  0
 24 25  1  0  0  0  0
 26 32  1  0  0  0  0
 27 36  1  0  0  0  0
 27 28  1  0  0  0  0
 28 42  1  0  0  0  0
 29 28  2  0  0  0  0
 29 37  1  0  0  0  0
 30 29  1  0  0  0  0
 31 38  1  0  0  0  0
 31 30  1  0  0  0  0
 32 31  1  0  0  0  0
 33 32  2  0  0  0  0
 33 34  1  0  0  0  0
 34 35  1  0  0  0  0
 34 30  2  0  0  0  0
 35 27  2  0  0  0  0
 39 35  1  0  0  0  0
 40 45  1  0  0  0  0
 40 46  1  0  0  0  0
 41 40  2  0  0  0  0
 42 43  2  0  0  0  0
 42 41  1  0  0  0  0
 43 44  1  0  0  0  0
 44 48  1  0  0  0  0
 44 45  2  0  0  0  0
 47 41  1  0  0  0  0
M  END
>  <minimizedAffinity>
-6.04424095

>  <minimizedRMSD>
2.27829885

$$$$
