
 OpenBabel03272502063D

 42 45  0  0  1  0  0  0  0  0999 V2000
   34.3210   30.4480   47.5600 F   0  0  0  0  0  0  0  0  0  0  0  0
   34.6950   29.9610   46.3320 C   0  0  0  0  0  0  0  0  0  0  0  0
   33.7970   29.3260   45.4880 C   0  0  0  0  0  0  0  0  0  0  0  0
   34.2420   28.8810   44.2610 C   0  0  0  0  0  0  0  0  0  0  0  0
   35.5730   29.0650   43.8740 C   0  0  0  0  0  0  0  0  0  0  0  0
   36.4140   29.7040   44.7630 C   0  0  0  0  0  0  0  0  0  0  0  0
   36.0260   30.1540   45.9690 C   0  0  0  0  0  0  0  0  0  0  0  0
   33.5120   28.3990   43.6490 H   0  0  0  0  0  0  0  0  0  0  0  0
   35.8840   28.7070   42.9140 H   0  0  0  0  0  0  0  0  0  0  0  0
   37.4240   29.8070   44.3910 H   0  0  0  0  0  0  0  0  0  0  0  0
   37.8850   32.3680   44.7650 Br  0  0  0  0  0  0  0  0  0  0  0  0
   37.8500   31.8160   46.5880 C   0  0  0  0  0  0  0  0  0  0  0  0
   36.9640   30.8050   46.8620 C   0  0  0  0  0  0  0  0  0  0  0  0
   36.9110   30.3180   48.1820 C   0  0  0  0  0  0  0  0  0  0  0  0
   37.7120   30.8370   49.1480 C   0  0  0  0  0  0  0  0  0  0  0  0
   38.5820   31.8550   48.8120 C   0  0  0  0  0  0  0  0  0  0  0  0
   38.6640   32.3650   47.5100 C   0  0  0  0  0  0  0  0  0  0  0  0
   36.2440   29.5220   48.4850 H   0  0  0  0  0  0  0  0  0  0  0  0
   37.7070   30.4940   50.1750 H   0  0  0  0  0  0  0  0  0  0  0  0
   39.2390   32.2990   49.5480 H   0  0  0  0  0  0  0  0  0  0  0  0
   39.4860   33.3650   47.0920 O   0  0  0  0  0  0  0  0  0  0  0  0
   40.3520   33.6500   47.5260 H   0  0  0  0  0  0  0  0  0  0  0  0
   32.2140   28.1750   46.8880 C   0  0  0  0  0  0  0  0  0  0  0  0
   32.4620   29.2020   46.0020 C   0  0  0  0  0  0  0  0  0  0  0  0
   31.4080   30.0590   45.6770 C   0  0  0  0  0  0  0  0  0  0  0  0
   30.1860   29.8560   46.2380 N   0  0  0  0  0  0  0  0  0  0  0  0
   29.9870   28.8550   47.0890 C   0  0  0  0  0  0  0  0  0  0  0  0
   30.9670   28.0270   47.4140 N   0  0  0  0  0  0  0  0  0  0  0  0
   32.9620   27.4500   47.2090 H   0  0  0  0  0  0  0  0  0  0  0  0
   31.6260   30.8480   44.9870 H   0  0  0  0  0  0  0  0  0  0  0  0
   27.5080   29.1690   46.8990 C   0  0  1  0  0  3  0  0  0  0  0  0
   28.6590   28.6180   47.7140 C   0  0  1  0  0  3  0  0  0  0  0  0
   28.3770   27.1420   47.8900 C   0  0  0  0  0  3  0  0  0  0  0  0
   28.6850   26.5320   47.0160 H   0  0  0  0  0  0  0  0  0  0  0  0
   27.0210   27.0200   48.1170 O   0  0  0  0  0  0  0  0  0  0  0  0
   26.4520   28.0950   48.7790 C   0  0  0  0  0  3  0  0  0  0  0  0
   25.3990   27.8040   48.9910 H   0  0  0  0  0  0  0  0  0  0  0  0
   26.3320   29.3240   47.8700 C   0  0  1  0  0  3  0  0  0  0  0  0
   27.8920   30.3550   46.3240 O   0  0  0  0  0  0  0  0  0  0  0  0
   28.2090   30.2230   45.3790 H   0  0  0  0  0  0  0  0  0  0  0  0
   26.5900   30.5040   48.5720 O   0  0  0  0  0  0  0  0  0  0  0  0
   27.2240   31.1010   48.0870 H   0  0  0  0  0  0  0  0  0  0  0  0
  2  1  1  0  0  0  0
  3 24  1  0  0  0  0
  3  2  2  0  0  0  0
  4  3  1  0  0  0  0
  5  4  2  0  0  0  0
  5  6  1  0  0  0  0
  6  7  2  0  0  0  0
  7  2  1  0  0  0  0
  7 13  1  0  0  0  0
  8  4  1  0  0  0  0
  9  5  1  0  0  0  0
 10  6  1  0  0  0  0
 11 12  1  0  0  0  0
 12 13  2  0  0  0  0
 12 17  1  0  0  0  0
 13 14  1  0  0  0  0
 14 18  1  0  0  0  0
 14 15  2  0  0  0  0
 15 19  1  0  0  0  0
 16 15  1  0  0  0  0
 16 20  1  0  0  0  0
 17 16  2  0  0  0  0
 21 17  1  0  0  0  0
 21 22  1  0  0  0  0
 23 29  1  0  0  0  0
 23 28  1  0  0  0  0
 24 23  2  0  0  0  0
 25 24  1  0  0  0  0
 25 26  2  0  0  0  0
 26 27  1  0  0  0  0
 27 28  2  0  0  0  0
 30 25  1  0  0  0  0
 31 39  1  1  0  0  0
 31 32  1  0  0  0  0
 31 38  1  0  0  0  0
 32 27  1  6  0  0  0
 32 33  1  0  0  0  0
 33 35  1  0  0  0  0
 34 33  1  0  0  0  0
 35 36  1  0  0  0  0
 36 37  1  0  0  0  0
 38 41  1  1  0  0  0
 38 36  1  0  0  0  0
 40 39  1  0  0  0  0
 42 41  1  0  0  0  0
M  END
>  <minimizedAffinity>
-6.98254251

>  <minimizedRMSD>
0.187443793

$$$$
