
 OpenBabel03262521233D

 50 53  0  0  1  0  0  0  0  0999 V2000
   40.3780   25.2900   53.3670 C   0  0  0  0  0  0  0  0  0  0  0  0
   39.7500   26.1060   52.4250 C   0  0  0  0  0  0  0  0  0  0  0  0
   40.0150   25.7940   51.0820 C   0  0  0  0  0  0  0  0  0  0  0  0
   40.8190   24.7760   50.6900 C   0  0  0  0  0  0  0  0  0  0  0  0
   41.2380   24.2630   49.5540 N   0  0  0  0  0  0  0  0  0  0  0  0
   42.0710   23.1970   49.7270 C   0  0  0  0  0  0  0  0  0  0  0  0
   42.1810   23.0320   51.0930 C   0  0  0  0  0  0  0  0  0  0  0  0
   41.4070   24.0090   51.6630 C   0  0  0  0  0  0  0  0  0  0  0  0
   41.2050   24.2420   53.0030 C   0  0  0  0  0  0  0  0  0  0  0  0
   40.1540   25.5570   54.3800 H   0  0  0  0  0  0  0  0  0  0  0  0
   39.5640   26.3820   50.2840 H   0  0  0  0  0  0  0  0  0  0  0  0
   40.9810   24.6080   48.5880 H   0  0  0  0  0  0  0  0  0  0  0  0
   42.5310   22.6260   48.9260 H   0  0  0  0  0  0  0  0  0  0  0  0
   42.7780   22.2630   51.5690 H   0  0  0  0  0  0  0  0  0  0  0  0
   40.8670   23.3770   55.2280 C   0  0  2  0  0  0  0  0  0  0  0  0
   41.8390   23.4140   54.0480 C   0  0  2  0  0  0  0  0  0  0  0  0
   43.1580   23.8800   54.5330 C   0  0  0  0  0  0  0  0  0  0  0  0
   43.1610   24.9270   54.9000 H   0  0  0  0  0  0  0  0  0  0  0  0
   43.5570   23.0990   55.5840 O   0  0  0  0  0  0  0  0  0  0  0  0
   42.7990   21.9930   55.8540 C   0  0  0  0  0  0  0  0  0  0  0  0
   42.9750   21.1420   55.1340 H   0  0  0  0  0  0  0  0  0  0  0  0
   41.3440   22.2270   56.0830 C   0  0  1  0  0  0  0  0  0  0  0  0
   39.5710   23.2450   54.7850 O   0  0  0  0  0  0  0  0  0  0  0  0
   39.0910   22.5800   55.3400 H   0  0  0  0  0  0  0  0  0  0  0  0
   40.9930   22.4820   57.3850 O   0  0  0  0  0  0  0  0  0  0  0  0
   40.1050   22.9250   57.3600 H   0  0  0  0  0  0  0  0  0  0  0  0
   38.6710   27.4760   52.7210 S   0  0  0  0  0  0  0  0  0  0  0  0
   38.0600   28.2590   51.2390 C   0  0  0  0  0  0  0  0  0  0  0  0
   38.9290   28.6670   50.6800 H   0  0  0  0  0  0  0  0  0  0  0  0
   37.6360   27.4560   50.5670 H   0  0  0  0  0  0  0  0  0  0  0  0
   37.0820   29.3800   51.4820 C   0  0  0  0  0  0  0  0  0  0  0  0
   36.9850   29.4290   52.6100 H   0  0  0  0  0  0  0  0  0  0  0  0
   36.0850   28.9960   51.1760 H   0  0  0  0  0  0  0  0  0  0  0  0
   37.4540   30.5700   50.9440 C   0  0  0  0  0  0  0  0  0  0  0  0
   38.4670   30.9430   51.2540 H   0  0  0  0  0  0  0  0  0  0  0  0
   36.7580   31.4220   51.0990 H   0  0  0  0  0  0  0  0  0  0  0  0
   37.4900   30.1900   49.6300 O   0  0  0  0  0  0  0  0  0  0  0  0
   38.0960   31.0250   48.7240 C   0  0  0  0  0  0  0  0  0  0  0  0
   38.3840   32.2620   49.2450 C   0  0  0  0  0  0  0  0  0  0  0  0
   39.0060   33.2150   48.4220 C   0  0  0  0  0  0  0  0  0  0  0  0
   39.2910   32.8510   47.1420 N   0  0  0  0  0  0  0  0  0  0  0  0
   38.9910   31.6060   46.6500 C   0  0  0  0  0  0  0  0  0  0  0  0
   38.3990   30.7280   47.4640 N   0  0  0  0  0  0  0  0  0  0  0  0
   39.9110   32.4230   44.5950 C   0  0  0  0  0  0  0  0  0  0  0  0
   40.1350   33.5770   45.0710 O   0  0  0  0  0  0  0  0  0  0  0  0
   39.3330   31.3320   45.2970 N   0  0  0  0  0  0  0  0  0  0  0  0
   38.2120   32.6800   50.2390 H   0  0  0  0  0  0  0  0  0  0  0  0
   39.2720   34.2040   48.7280 H   0  0  0  0  0  0  0  0  0  0  0  0
   40.1880   32.2540   43.5540 H   0  0  0  0  0  0  0  0  0  0  0  0
   39.1420   30.3780   44.9180 H   0  0  0  0  0  0  0  0  0  0  0  0
  1 10  1  0  0  0  0
  2 27  1  0  0  0  0
  2  1  2  0  0  0  0
  3  2  1  0  0  0  0
  4  3  2  0  0  0  0
  4  8  1  0  0  0  0
  5  6  1  0  0  0  0
  5  4  1  0  0  0  0
  6  7  2  0  0  0  0
  7 14  1  0  0  0  0
  7  8  1  0  0  0  0
  8  9  2  0  0  0  0
  9  1  1  0  0  0  0
 11  3  1  0  0  0  0
 12  5  1  0  0  0  0
 13  6  1  0  0  0  0
 15 23  1  6  0  0  0
 15 22  1  0  0  0  0
 16  9  1  6  0  0  0
 16 17  1  0  0  0  0
 16 15  1  0  0  0  0
 17 18  1  0  0  0  0
 17 19  1  0  0  0  0
 19 20  1  0  0  0  0
 20 22  1  0  0  0  0
 21 20  1  0  0  0  0
 22 25  1  1  0  0  0
 23 24  1  0  0  0  0
 26 25  1  0  0  0  0
 28 31  1  0  0  0  0
 28 27  1  0  0  0  0
 29 28  1  0  0  0  0
 30 28  1  0  0  0  0
 31 32  1  0  0  0  0
 33 31  1  0  0  0  0
 34 36  1  0  0  0  0
 34 35  1  0  0  0  0
 34 31  1  0  0  0  0
 37 34  1  0  0  0  0
 38 39  1  0  0  0  0
 38 37  1  0  0  0  0
 39 47  1  0  0  0  0
 40 48  1  0  0  0  0
 40 39  2  0  0  0  0
 41 40  1  0  0  0  0
 42 41  2  0  0  0  0
 42 43  1  0  0  0  0
 43 38  2  0  0  0  0
 44 45  2  0  0  0  0
 44 46  1  0  0  0  0
 46 42  1  0  0  0  0
 49 44  1  0  0  0  0
 50 46  1  0  0  0  0
M  END
>  <minimizedAffinity>
-4.69663048

>  <minimizedRMSD>
0.228502035

$$$$
