
 OpenBabel03272500073D

 42 45  0  0  1  0  0  0  0  0999 V2000
   31.1980   27.5330   48.2740 C   0  0  0  0  0  0  0  0  0  0  0  0
   30.8110   27.7680   49.5770 C   0  0  0  0  0  0  0  0  0  0  0  0
   29.5320   28.1920   49.8730 C   0  0  0  0  0  0  0  0  0  0  0  0
   28.6260   28.3860   48.8410 C   0  0  0  0  0  0  0  0  0  0  0  0
   29.0250   28.1490   47.5490 C   0  0  0  0  0  0  0  0  0  0  0  0
   30.2890   27.7290   47.2630 C   0  0  0  0  0  0  0  0  0  0  0  0
   31.4850   27.6310   50.4300 H   0  0  0  0  0  0  0  0  0  0  0  0
   29.2520   28.3710   50.9080 H   0  0  0  0  0  0  0  0  0  0  0  0
   27.6400   28.7180   49.1070 H   0  0  0  0  0  0  0  0  0  0  0  0
   28.2760   28.3170   46.7890 H   0  0  0  0  0  0  0  0  0  0  0  0
   30.6650   25.9890   45.5320 C   0  0  2  0  0  3  0  0  0  0  0  0
   30.6730   27.4640   45.8810 C   0  0  1  0  0  3  0  0  0  0  0  0
   29.8680   28.1740   44.8270 C   0  0  0  0  0  3  0  0  0  0  0  0
   30.2650   29.2140   44.7140 H   0  0  0  0  0  0  0  0  0  0  0  0
   30.1220   27.5640   43.5970 O   0  0  0  0  0  0  0  0  0  0  0  0
   31.3960   27.0810   43.4630 C   0  0  0  0  0  3  0  0  0  0  0  0
   31.5210   26.8450   42.3730 H   0  0  0  0  0  0  0  0  0  0  0  0
   31.5580   25.8240   44.3190 C   0  0  2  0  0  3  0  0  0  0  0  0
   29.3540   25.6520   45.1930 O   0  0  0  0  0  0  0  0  0  0  0  0
   29.1690   24.7230   45.4900 H   0  0  0  0  0  0  0  0  0  0  0  0
   31.2900   24.6700   43.6250 O   0  0  0  0  0  0  0  0  0  0  0  0
   32.1240   24.1390   43.5660 H   0  0  0  0  0  0  0  0  0  0  0  0
   32.5170   27.1110   48.1360 O   0  0  0  0  0  0  0  0  0  0  0  0
   35.4780   28.8950   49.1340 C   0  0  0  0  0  0  0  0  0  0  0  0
   35.4150   30.0760   48.3950 C   0  0  0  0  0  0  0  0  0  0  0  0
   34.3130   30.2400   47.5360 C   0  0  0  0  0  0  0  0  0  0  0  0
   33.3890   29.2460   47.4820 N   0  0  0  0  0  0  0  0  0  0  0  0
   33.4770   28.1270   48.2020 C   0  0  0  0  0  0  0  0  0  0  0  0
   34.5350   27.9410   49.0440 N   0  0  0  0  0  0  0  0  0  0  0  0
   36.3010   28.6790   49.8310 H   0  0  0  0  0  0  0  0  0  0  0  0
   34.2590   31.1450   46.9660 H   0  0  0  0  0  0  0  0  0  0  0  0
   36.4470   31.0290   48.5450 N   0  0  0  0  0  0  0  0  0  0  0  0
   36.6120   31.7270   49.6650 C   0  0  0  0  0  0  0  0  0  0  0  0
   37.6450   32.6560   49.7520 C   0  0  0  0  0  0  0  0  0  0  0  0
   38.4280   32.7690   48.6300 C   0  0  0  0  0  0  0  0  0  0  0  0
   39.3640   33.6100   48.7030 O   0  0  0  0  0  0  0  0  0  0  0  0
   38.2910   32.0910   47.5000 N   0  0  0  0  0  0  0  0  0  0  0  0
   37.2690   31.1930   47.4570 C   0  0  0  0  0  0  0  0  0  0  0  0
   37.1260   30.5340   46.3760 O   0  0  0  0  0  0  0  0  0  0  0  0
   35.9680   31.5980   50.5180 H   0  0  0  0  0  0  0  0  0  0  0  0
   37.7860   33.2270   50.6610 H   0  0  0  0  0  0  0  0  0  0  0  0
   38.9170   32.2210   46.6840 H   0  0  0  0  0  0  0  0  0  0  0  0
  1  2  1  0  0  0  0
  2  3  2  0  0  0  0
  2  7  1  0  0  0  0
  3  8  1  0  0  0  0
  4  9  1  0  0  0  0
  4  3  1  0  0  0  0
  5  4  2  0  0  0  0
  6  5  1  0  0  0  0
  6  1  2  0  0  0  0
 10  5  1  0  0  0  0
 11 19  1  6  0  0  0
 11 12  1  0  0  0  0
 12  6  1  1  0  0  0
 13 12  1  0  0  0  0
 14 13  1  0  0  0  0
 15 13  1  0  0  0  0
 16 15  1  0  0  0  0
 16 18  1  0  0  0  0
 17 16  1  0  0  0  0
 18 21  1  6  0  0  0
 18 11  1  0  0  0  0
 19 20  1  0  0  0  0
 22 21  1  0  0  0  0
 23 28  1  0  0  0  0
 23  1  1  0  0  0  0
 24 30  1  0  0  0  0
 25 32  1  0  0  0  0
 25 24  2  0  0  0  0
 26 25  1  0  0  0  0
 27 26  2  0  0  0  0
 27 28  1  0  0  0  0
 28 29  2  0  0  0  0
 29 24  1  0  0  0  0
 31 26  1  0  0  0  0
 32 33  1  0  0  0  0
 33 34  2  0  0  0  0
 33 40  1  0  0  0  0
 34 41  1  0  0  0  0
 35 36  2  0  0  0  0
 35 34  1  0  0  0  0
 37 35  1  0  0  0  0
 38 37  1  0  0  0  0
 38 32  1  0  0  0  0
 39 38  2  0  0  0  0
 42 37  1  0  0  0  0
M  END
>  <minimizedAffinity>
-5.88031673

>  <minimizedRMSD>
0.273658067

$$$$
