
 OpenBabel03272507503D

 31 33  0  0  1  0  0  0  0  0999 V2000
   34.5500   29.1890   47.4280 C   0  0  0  0  0  0  0  0  0  0  0  0
   33.9540   28.8850   46.1910 C   0  0  0  0  0  0  0  0  0  0  0  0
   33.4330   27.5950   46.0230 C   0  0  0  0  0  0  0  0  0  0  0  0
   33.5330   26.7180   47.0550 N   0  0  0  0  0  0  0  0  0  0  0  0
   34.1140   27.0460   48.2340 C   0  0  0  0  0  0  0  0  0  0  0  0
   34.6290   28.2870   48.4300 N   0  0  0  0  0  0  0  0  0  0  0  0
   32.9740   27.3570   45.0750 H   0  0  0  0  0  0  0  0  0  0  0  0
   34.0920   26.2090   48.9250 H   0  0  0  0  0  0  0  0  0  0  0  0
   33.9110   29.8960   45.2020 N   0  0  0  0  0  0  0  0  0  0  0  0
   34.8720   30.0360   44.2830 C   0  0  0  0  0  0  0  0  0  0  0  0
   34.8040   31.0440   43.3210 C   0  0  0  0  0  0  0  0  0  0  0  0
   33.6760   31.8350   43.4380 C   0  0  0  0  0  0  0  0  0  0  0  0
   33.5710   32.7730   42.5790 O   0  0  0  0  0  0  0  0  0  0  0  0
   32.6960   31.7290   44.3390 N   0  0  0  0  0  0  0  0  0  0  0  0
   32.8440   30.7260   45.2310 C   0  0  0  0  0  0  0  0  0  0  0  0
   31.9230   30.6100   46.0930 O   0  0  0  0  0  0  0  0  0  0  0  0
   35.7380   29.3890   44.2440 H   0  0  0  0  0  0  0  0  0  0  0  0
   35.5460   31.2100   42.5530 H   0  0  0  0  0  0  0  0  0  0  0  0
   31.8880   32.3890   44.3280 H   0  0  0  0  0  0  0  0  0  0  0  0
   35.2850   30.7120   49.2740 C   0  0  2  0  0  3  0  0  0  0  0  0
   35.1600   30.4890   47.8000 C   0  0  1  0  0  3  0  0  0  0  0  0
   36.5360   30.6670   47.1980 C   0  0  0  0  0  3  0  0  0  0  0  0
   36.4720   30.3860   46.1280 H   0  0  0  0  0  0  0  0  0  0  0  0
   37.5150   29.9000   47.7800 O   0  0  0  0  0  0  0  0  0  0  0  0
   37.6830   30.1090   49.1250 C   0  0  0  0  0  3  0  0  0  0  0  0
   37.6630   29.1620   49.7080 H   0  0  0  0  0  0  0  0  0  0  0  0
   36.7030   31.0990   49.6740 C   0  0  2  0  0  3  0  0  0  0  0  0
   34.9820   29.5070   49.9040 O   0  0  0  0  0  0  0  0  0  0  0  0
   34.7350   29.6230   50.8540 H   0  0  0  0  0  0  0  0  0  0  0  0
   36.7880   31.0530   51.0640 O   0  0  0  0  0  0  0  0  0  0  0  0
   37.7300   31.0150   51.3800 H   0  0  0  0  0  0  0  0  0  0  0  0
  1  6  1  0  0  0  0
  2  1  2  0  0  0  0
  3  2  1  0  0  0  0
  3  4  2  0  0  0  0
  4  5  1  0  0  0  0
  5  6  2  0  0  0  0
  5  8  1  0  0  0  0
  7  3  1  0  0  0  0
  9 15  1  0  0  0  0
  9  2  1  0  0  0  0
 10  9  1  0  0  0  0
 11 12  1  0  0  0  0
 11 10  2  0  0  0  0
 12 14  1  0  0  0  0
 13 12  2  0  0  0  0
 14 15  1  0  0  0  0
 15 16  2  0  0  0  0
 17 10  1  0  0  0  0
 18 11  1  0  0  0  0
 19 14  1  0  0  0  0
 20 27  1  0  0  0  0
 20 28  1  1  0  0  0
 21  1  1  1  0  0  0
 21 20  1  0  0  0  0
 22 24  1  0  0  0  0
 22 21  1  0  0  0  0
 23 22  1  0  0  0  0
 24 25  1  0  0  0  0
 25 27  1  0  0  0  0
 25 26  1  0  0  0  0
 27 30  1  1  0  0  0
 28 29  1  0  0  0  0
 30 31  1  0  0  0  0
M  END
>  <minimizedAffinity>
-4.35785007

>  <minimizedRMSD>
4.86932325

$$$$
