
 OpenBabel03272506083D

 47 50  0  0  1  0  0  0  0  0999 V2000
   34.8130   28.4520   49.2080 C   0  0  0  0  0  0  0  0  0  0  0  0
   35.7050   28.2990   48.5670 H   0  0  0  0  0  0  0  0  0  0  0  0
   34.8520   27.6100   49.9440 H   0  0  0  0  0  0  0  0  0  0  0  0
   33.5570   28.3460   48.3780 C   0  0  0  0  0  0  0  0  0  0  0  0
   33.6000   28.6780   46.9770 C   0  0  0  0  0  0  0  0  0  0  0  0
   31.9210   28.3910   46.5060 S   0  0  0  0  0  0  0  0  0  0  0  0
   31.3710   27.8650   48.2360 C   0  0  0  0  0  0  0  0  0  0  0  0
   32.4000   27.9730   48.8240 N   0  0  0  0  0  0  0  0  0  0  0  0
   30.0780   27.4480   48.7350 N   0  0  0  0  0  0  0  0  0  0  0  0
   29.2220   26.7780   47.8060 C   0  0  0  0  0  0  0  0  0  0  0  0
   27.7880   26.7300   48.2140 C   0  0  0  0  0  0  0  0  0  0  0  0
   27.4940   27.5320   49.4060 N   0  0  0  0  0  0  0  0  0  0  0  0
   28.4250   27.0740   50.4220 C   0  0  0  0  0  0  0  0  0  0  0  0
   29.7430   27.7270   50.1080 C   0  0  0  0  0  0  0  0  0  0  0  0
   34.4360   29.0000   46.4270 H   0  0  0  0  0  0  0  0  0  0  0  0
   29.5980   25.7380   47.5870 H   0  0  0  0  0  0  0  0  0  0  0  0
   29.2780   27.3140   46.8350 H   0  0  0  0  0  0  0  0  0  0  0  0
   27.4930   25.6750   48.4890 H   0  0  0  0  0  0  0  0  0  0  0  0
   27.0710   27.0300   47.4220 H   0  0  0  0  0  0  0  0  0  0  0  0
   26.5420   27.1940   49.7220 H   0  0  0  0  0  0  0  0  0  0  0  0
   28.1150   27.4410   51.4300 H   0  0  0  0  0  0  0  0  0  0  0  0
   28.5590   25.9710   50.4200 H   0  0  0  0  0  0  0  0  0  0  0  0
   30.5100   27.2720   50.7690 H   0  0  0  0  0  0  0  0  0  0  0  0
   29.6370   28.8120   50.3110 H   0  0  0  0  0  0  0  0  0  0  0  0
   34.8590   29.7250   49.9550 C   0  0  0  0  0  0  0  0  0  0  0  0
   33.9260   30.3140   49.7320 H   0  0  0  0  0  0  0  0  0  0  0  0
   34.9380   29.5760   51.0470 H   0  0  0  0  0  0  0  0  0  0  0  0
   37.4410   32.3720   49.6740 C   0  0  0  0  0  0  0  0  0  0  0  0
   38.0530   32.0910   48.4630 C   0  0  0  0  0  0  0  0  0  0  0  0
   37.5690   30.9910   47.7540 C   0  0  0  0  0  0  0  0  0  0  0  0
   36.5520   30.2540   48.2490 N   0  0  0  0  0  0  0  0  0  0  0  0
   35.9940   30.5870   49.4520 C   0  0  0  0  0  0  0  0  0  0  0  0
   36.4400   31.6360   50.1500 N   0  0  0  0  0  0  0  0  0  0  0  0
   37.8260   33.2360   50.2260 H   0  0  0  0  0  0  0  0  0  0  0  0
   38.8600   32.6280   48.0090 H   0  0  0  0  0  0  0  0  0  0  0  0
   37.2390   30.9370   45.2790 C   0  0  2  0  0  3  0  0  0  0  0  0
   38.1290   30.5740   46.4420 C   0  0  1  0  0  3  0  0  0  0  0  0
   39.5010   31.1540   46.1740 C   0  0  0  0  0  3  0  0  0  0  0  0
   39.6070   32.1670   46.5590 H   0  0  0  0  0  0  0  0  0  0  0  0
   39.7730   31.0630   44.8150 O   0  0  0  0  0  0  0  0  0  0  0  0
   39.2030   29.9360   44.2370 C   0  0  0  0  0  3  0  0  0  0  0  0
   39.6200   29.8070   43.2290 H   0  0  0  0  0  0  0  0  0  0  0  0
   37.6970   30.0940   44.0860 C   0  0  2  0  0  3  0  0  0  0  0  0
   37.3340   32.2580   44.9210 O   0  0  0  0  0  0  0  0  0  0  0  0
   37.9580   32.7290   45.4980 H   0  0  0  0  0  0  0  0  0  0  0  0
   37.4410   30.8330   42.9350 O   0  0  0  0  0  0  0  0  0  0  0  0
   36.6790   31.4430   43.1150 H   0  0  0  0  0  0  0  0  0  0  0  0
  1  3  1  0  0  0  0
  1 25  1  0  0  0  0
  2  1  1  0  0  0  0
  4  8  1  0  0  0  0
  4  1  1  0  0  0  0
  5  4  2  0  0  0  0
  6  5  1  0  0  0  0
  6  7  1  0  0  0  0
  7  9  1  0  0  0  0
  7  8  2  0  0  0  0
  9 14  1  0  0  0  0
 10 11  1  0  0  0  0
 10  9  1  0  0  0  0
 11 18  1  0  0  0  0
 11 12  1  0  0  0  0
 12 20  1  0  0  0  0
 12 13  1  0  0  0  0
 13 21  1  0  0  0  0
 14 24  1  0  0  0  0
 14 13  1  0  0  0  0
 14 23  1  0  0  0  0
 15  5  1  0  0  0  0
 16 10  1  0  0  0  0
 17 10  1  0  0  0  0
 19 11  1  0  0  0  0
 22 13  1  0  0  0  0
 25 27  1  0  0  0  0
 26 25  1  0  0  0  0
 28 33  1  0  0  0  0
 28 34  1  0  0  0  0
 29 28  2  0  0  0  0
 30 31  2  0  0  0  0
 30 29  1  0  0  0  0
 31 32  1  0  0  0  0
 32 25  1  0  0  0  0
 32 33  2  0  0  0  0
 35 29  1  0  0  0  0
 36 44  1  6  0  0  0
 36 37  1  0  0  0  0
 37 30  1  1  0  0  0
 38 37  1  0  0  0  0
 38 39  1  0  0  0  0
 40 38  1  0  0  0  0
 41 40  1  0  0  0  0
 42 41  1  0  0  0  0
 43 46  1  6  0  0  0
 43 41  1  0  0  0  0
 43 36  1  0  0  0  0
 44 45  1  0  0  0  0
 46 47  1  0  0  0  0
M  END
>  <minimizedAffinity>
-7.06414175

>  <minimizedRMSD>
1.07772839

$$$$
