
 OpenBabel03272502063D

 42 45  0  0  1  0  0  0  0  0999 V2000
   34.3160   30.2480   47.8500 F   0  0  0  0  0  0  0  0  0  0  0  0
   34.7080   29.8840   46.5850 C   0  0  0  0  0  0  0  0  0  0  0  0
   33.8460   29.2560   45.7000 C   0  0  0  0  0  0  0  0  0  0  0  0
   34.3050   28.9390   44.4390 C   0  0  0  0  0  0  0  0  0  0  0  0
   35.6170   29.2430   44.0590 C   0  0  0  0  0  0  0  0  0  0  0  0
   36.4220   29.8660   44.9900 C   0  0  0  0  0  0  0  0  0  0  0  0
   36.0190   30.1950   46.2300 C   0  0  0  0  0  0  0  0  0  0  0  0
   33.6030   28.4570   43.7950 H   0  0  0  0  0  0  0  0  0  0  0  0
   35.9400   28.9820   43.0720 H   0  0  0  0  0  0  0  0  0  0  0  0
   37.4190   30.0670   44.6220 H   0  0  0  0  0  0  0  0  0  0  0  0
   37.9880   32.3530   45.1040 Br  0  0  0  0  0  0  0  0  0  0  0  0
   37.8430   31.8260   46.9280 C   0  0  0  0  0  0  0  0  0  0  0  0
   36.9210   30.8370   47.1660 C   0  0  0  0  0  0  0  0  0  0  0  0
   36.7850   30.3680   48.4860 C   0  0  0  0  0  0  0  0  0  0  0  0
   37.5440   30.8820   49.4880 C   0  0  0  0  0  0  0  0  0  0  0  0
   38.4530   31.8770   49.1890 C   0  0  0  0  0  0  0  0  0  0  0  0
   38.6170   32.3690   47.8870 C   0  0  0  0  0  0  0  0  0  0  0  0
   36.0860   29.5910   48.7610 H   0  0  0  0  0  0  0  0  0  0  0  0
   37.4760   30.5530   50.5170 H   0  0  0  0  0  0  0  0  0  0  0  0
   39.0790   32.3170   49.9540 H   0  0  0  0  0  0  0  0  0  0  0  0
   39.4820   33.3460   47.5020 O   0  0  0  0  0  0  0  0  0  0  0  0
   40.3290   33.6180   47.9810 H   0  0  0  0  0  0  0  0  0  0  0  0
   32.3510   27.8730   46.9820 C   0  0  0  0  0  0  0  0  0  0  0  0
   32.5280   29.0020   46.2110 C   0  0  0  0  0  0  0  0  0  0  0  0
   31.4230   29.8280   45.9910 C   0  0  0  0  0  0  0  0  0  0  0  0
   30.2240   29.4970   46.5390 N   0  0  0  0  0  0  0  0  0  0  0  0
   30.0930   28.4000   47.2780 C   0  0  0  0  0  0  0  0  0  0  0  0
   31.1230   27.5990   47.5010 N   0  0  0  0  0  0  0  0  0  0  0  0
   33.1440   27.1610   47.2150 H   0  0  0  0  0  0  0  0  0  0  0  0
   31.5860   30.6980   45.3880 H   0  0  0  0  0  0  0  0  0  0  0  0
   28.4850   28.7790   49.1620 C   0  0  1  0  0  3  0  0  0  0  0  0
   28.7910   28.0220   47.8870 C   0  0  1  0  0  3  0  0  0  0  0  0
   27.6340   28.2940   46.9510 C   0  0  0  0  0  3  0  0  0  0  0  0
   27.7240   29.2610   46.4150 H   0  0  0  0  0  0  0  0  0  0  0  0
   26.4870   28.2670   47.7180 O   0  0  0  0  0  0  0  0  0  0  0  0
   26.5420   27.4040   48.8000 C   0  0  0  0  0  3  0  0  0  0  0  0
   25.5220   27.4010   49.2460 H   0  0  0  0  0  0  0  0  0  0  0  0
   27.4440   27.9450   49.9160 C   0  0  1  0  0  3  0  0  0  0  0  0
   29.6490   28.9560   49.8690 O   0  0  0  0  0  0  0  0  0  0  0  0
   30.0560   29.8580   49.6910 H   0  0  0  0  0  0  0  0  0  0  0  0
   28.1680   26.9200   50.5280 O   0  0  0  0  0  0  0  0  0  0  0  0
   29.1350   27.1450   50.6220 H   0  0  0  0  0  0  0  0  0  0  0  0
  2  1  1  0  0  0  0
  3 24  1  0  0  0  0
  3  2  2  0  0  0  0
  4  3  1  0  0  0  0
  5  4  2  0  0  0  0
  5  6  1  0  0  0  0
  6  7  2  0  0  0  0
  7  2  1  0  0  0  0
  7 13  1  0  0  0  0
  8  4  1  0  0  0  0
  9  5  1  0  0  0  0
 10  6  1  0  0  0  0
 11 12  1  0  0  0  0
 12 13  2  0  0  0  0
 12 17  1  0  0  0  0
 13 14  1  0  0  0  0
 14 18  1  0  0  0  0
 14 15  2  0  0  0  0
 15 19  1  0  0  0  0
 16 15  1  0  0  0  0
 16 20  1  0  0  0  0
 17 16  2  0  0  0  0
 21 17  1  0  0  0  0
 21 22  1  0  0  0  0
 23 29  1  0  0  0  0
 23 28  1  0  0  0  0
 24 23  2  0  0  0  0
 25 24  1  0  0  0  0
 25 26  2  0  0  0  0
 26 27  1  0  0  0  0
 27 28  2  0  0  0  0
 30 25  1  0  0  0  0
 31 39  1  1  0  0  0
 31 38  1  0  0  0  0
 32 27  1  6  0  0  0
 32 31  1  0  0  0  0
 33 35  1  0  0  0  0
 33 32  1  0  0  0  0
 34 33  1  0  0  0  0
 35 36  1  0  0  0  0
 36 37  1  0  0  0  0
 36 38  1  0  0  0  0
 38 41  1  6  0  0  0
 40 39  1  0  0  0  0
 41 42  1  0  0  0  0
M  END
>  <minimizedAffinity>
-7.54965401

>  <minimizedRMSD>
0.717323661

$$$$
