
 OpenBabel03272510263D

 48 52  0  0  1  0  0  0  0  0999 V2000
   39.3630   31.6430   41.8570 N   0  0  0  0  0  0  0  0  0  0  0  0
   39.2420   33.0700   41.8550 C   0  0  1  0  0  0  0  0  0  0  0  0
   37.9540   33.4900   41.3200 C   0  0  0  0  0  0  0  0  0  0  0  0
   37.8690   33.0720   39.9820 O   0  0  0  0  0  0  0  0  0  0  0  0
   38.0870   31.7370   39.7730 C   0  0  0  0  0  0  0  0  0  0  0  0
   39.2750   31.1910   40.4870 C   0  0  1  0  0  0  0  0  0  0  0  0
   38.7990   31.0800   42.4500 H   0  0  0  0  0  0  0  0  0  0  0  0
   40.0570   33.4940   41.2480 H   0  0  0  0  0  0  0  0  0  0  0  0
   37.9950   34.6180   41.2280 H   0  0  0  0  0  0  0  0  0  0  0  0
   37.0090   33.2590   41.7270 H   0  0  0  0  0  0  0  0  0  0  0  0
   38.1010   31.5570   38.7070 H   0  0  0  0  0  0  0  0  0  0  0  0
   37.1820   31.2080   40.1980 H   0  0  0  0  0  0  0  0  0  0  0  0
   39.0990   30.0740   40.5510 H   0  0  0  0  0  0  0  0  0  0  0  0
   41.4370   30.1110   40.0810 C   0  0  2  0  0  3  0  0  0  0  0  0
   40.5840   31.3180   39.7680 C   0  0  1  0  0  3  0  0  0  0  0  0
   40.4200   31.4080   38.2940 C   0  0  0  0  0  3  0  0  0  0  0  0
   41.4640   31.5010   37.8670 H   0  0  0  0  0  0  0  0  0  0  0  0
   39.9130   30.2470   37.7160 O   0  0  0  0  0  0  0  0  0  0  0  0
   40.9700   29.3110   37.8130 C   0  0  0  0  0  3  0  0  0  0  0  0
   41.9090   29.8560   37.5770 H   0  0  0  0  0  0  0  0  0  0  0  0
   41.0340   28.9050   39.2600 C   0  0  1  0  0  3  0  0  0  0  0  0
   41.3990   29.7470   41.4040 O   0  0  0  0  0  0  0  0  0  0  0  0
   41.6360   28.8170   41.5500 H   0  0  0  0  0  0  0  0  0  0  0  0
   42.0070   27.9310   39.4850 O   0  0  0  0  0  0  0  0  0  0  0  0
   42.8570   28.3080   39.8330 H   0  0  0  0  0  0  0  0  0  0  0  0
   39.3880   33.4960   43.2050 O   0  0  0  0  0  0  0  0  0  0  0  0
   36.1650   30.2100   46.8970 C   0  0  0  0  0  0  0  0  0  0  0  0
   37.0520   30.7370   47.8250 C   0  0  0  0  0  0  0  0  0  0  0  0
   38.0660   31.6210   47.4320 C   0  0  0  0  0  0  0  0  0  0  0  0
   38.1290   31.9310   46.0770 C   0  0  0  0  0  0  0  0  0  0  0  0
   39.0190   32.7630   45.4560 N   0  0  0  0  0  0  0  0  0  0  0  0
   38.6870   32.7520   44.1550 C   0  0  0  0  0  0  0  0  0  0  0  0
   37.6500   31.9610   43.9560 N   0  0  0  0  0  0  0  0  0  0  0  0
   37.2620   31.4240   45.1260 C   0  0  0  0  0  0  0  0  0  0  0  0
   36.2610   30.5440   45.5500 C   0  0  0  0  0  0  0  0  0  0  0  0
   35.3720   29.5290   47.1540 H   0  0  0  0  0  0  0  0  0  0  0  0
   38.7670   32.0430   48.1390 H   0  0  0  0  0  0  0  0  0  0  0  0
   39.8040   33.2960   45.9350 H   0  0  0  0  0  0  0  0  0  0  0  0
   35.5850   30.1480   44.8120 H   0  0  0  0  0  0  0  0  0  0  0  0
   37.5150   30.1650   51.5080 C   0  0  0  0  0  0  0  0  0  0  0  0
   37.8150   30.6000   50.2230 C   0  0  0  0  0  0  0  0  0  0  0  0
   36.9110   30.3600   49.2170 C   0  0  0  0  0  0  0  0  0  0  0  0
   35.7500   29.6950   49.5560 N   0  0  0  0  0  0  0  0  0  0  0  0
   35.4690   29.2780   50.8050 C   0  0  0  0  0  0  0  0  0  0  0  0
   36.3430   29.5120   51.7630 N   0  0  0  0  0  0  0  0  0  0  0  0
   38.2640   30.3800   52.2650 H   0  0  0  0  0  0  0  0  0  0  0  0
   38.7210   31.1220   49.9480 H   0  0  0  0  0  0  0  0  0  0  0  0
   34.5340   28.7650   50.9730 H   0  0  0  0  0  0  0  0  0  0  0  0
  1  7  1  0  0  0  0
  2  8  1  6  0  0  0
  2  1  1  0  0  0  0
  2 26  1  0  0  0  0
  3 10  1  0  0  0  0
  3  2  1  0  0  0  0
  4  3  1  0  0  0  0
  5  4  1  0  0  0  0
  5 12  1  0  0  0  0
  5  6  1  0  0  0  0
  6 13  1  1  0  0  0
  6  1  1  0  0  0  0
  9  3  1  0  0  0  0
 11  5  1  0  0  0  0
 14 22  1  1  0  0  0
 15 16  1  6  0  0  0
 15 14  1  0  0  0  0
 15  6  1  0  0  0  0
 17 16  1  0  0  0  0
 18 19  1  0  0  0  0
 18 16  1  0  0  0  0
 19 21  1  0  0  0  0
 20 19  1  0  0  0  0
 21 24  1  6  0  0  0
 21 14  1  0  0  0  0
 22 23  1  0  0  0  0
 24 25  1  0  0  0  0
 26 32  1  0  0  0  0
 27 36  1  0  0  0  0
 27 28  1  0  0  0  0
 28 42  1  0  0  0  0
 29 28  2  0  0  0  0
 29 37  1  0  0  0  0
 30 29  1  0  0  0  0
 31 38  1  0  0  0  0
 31 30  1  0  0  0  0
 32 31  1  0  0  0  0
 33 32  2  0  0  0  0
 33 34  1  0  0  0  0
 34 35  1  0  0  0  0
 34 30  2  0  0  0  0
 35 27  2  0  0  0  0
 39 35  1  0  0  0  0
 40 45  1  0  0  0  0
 40 46  1  0  0  0  0
 41 40  2  0  0  0  0
 42 43  2  0  0  0  0
 42 41  1  0  0  0  0
 43 44  1  0  0  0  0
 44 48  1  0  0  0  0
 44 45  2  0  0  0  0
 47 41  1  0  0  0  0
M  END
>  <minimizedAffinity>
-6.04254484

>  <minimizedRMSD>
0.572713256

$$$$
