
 OpenBabel03272502303D

 27 28  0  0  1  0  0  0  0  0999 V2000
   39.4220   31.9790   46.2180 C   0  0  0  0  0  0  0  0  0  0  0  0
   40.4390   31.5130   46.2370 H   0  0  0  0  0  0  0  0  0  0  0  0
   39.4590   33.0750   46.1160 H   0  0  0  0  0  0  0  0  0  0  0  0
   37.9890   30.5680   47.6390 C   0  0  0  0  0  3  0  0  0  0  0  0
   38.8150   31.5990   47.5220 C   0  0  0  0  0  3  0  0  0  0  0  0
   37.4130   30.2700   51.2930 C   0  0  0  0  0  0  0  0  0  0  0  0
   37.9940   30.6350   50.0670 C   0  0  0  0  0  0  0  0  0  0  0  0
   37.4090   30.2050   48.8960 C   0  0  0  0  0  0  0  0  0  0  0  0
   36.2860   29.4410   48.9510 N   0  0  0  0  0  0  0  0  0  0  0  0
   35.7480   29.1050   50.1390 C   0  0  0  0  0  0  0  0  0  0  0  0
   36.2970   29.5090   51.3070 N   0  0  0  0  0  0  0  0  0  0  0  0
   37.8240   30.5740   52.2400 H   0  0  0  0  0  0  0  0  0  0  0  0
   38.8860   31.2430   50.0970 H   0  0  0  0  0  0  0  0  0  0  0  0
   34.8510   28.4920   50.0930 H   0  0  0  0  0  0  0  0  0  0  0  0
   38.4970   31.1950   44.8630 S   0  0  0  0  0  0  0  0  0  0  0  0
   39.0930   29.1380   43.1180 C   0  0  2  0  0  3  0  0  0  0  0  0
   39.6680   30.3850   43.7620 C   0  0  1  0  0  3  0  0  0  0  0  0
   40.0460   31.3010   42.6080 C   0  0  0  0  0  3  0  0  0  0  0  0
   39.0590   31.6120   42.1540 H   0  0  0  0  0  0  0  0  0  0  0  0
   40.7380   30.6380   41.6200 O   0  0  0  0  0  0  0  0  0  0  0  0
   41.3100   29.4520   42.0340 C   0  0  0  0  0  3  0  0  0  0  0  0
   41.7860   29.0040   41.1150 H   0  0  0  0  0  0  0  0  0  0  0  0
   40.2990   28.4220   42.5070 C   0  0  2  0  0  3  0  0  0  0  0  0
   38.2800   29.5230   42.0440 O   0  0  0  0  0  0  0  0  0  0  0  0
   37.4150   29.0340   42.0790 H   0  0  0  0  0  0  0  0  0  0  0  0
   39.8750   27.5840   41.4770 O   0  0  0  0  0  0  0  0  0  0  0  0
   40.0360   27.9920   40.5890 H   0  0  0  0  0  0  0  0  0  0  0  0
  1  2  1  0  0  0  0
  1  5  1  0  0  0  0
  3  1  1  0  0  0  0
  4  8  1  0  0  0  0
  5  4  2  0  0  0  0
  6 11  1  0  0  0  0
  6 12  1  0  0  0  0
  7 13  1  0  0  0  0
  7  6  2  0  0  0  0
  8  9  2  0  0  0  0
  8  7  1  0  0  0  0
  9 10  1  0  0  0  0
 10 11  2  0  0  0  0
 14 10  1  0  0  0  0
 15  1  1  0  0  0  0
 16 24  1  6  0  0  0
 16 17  1  0  0  0  0
 17 15  1  1  0  0  0
 18 17  1  0  0  0  0
 19 18  1  0  0  0  0
 20 21  1  0  0  0  0
 20 18  1  0  0  0  0
 21 23  1  0  0  0  0
 22 21  1  0  0  0  0
 23 26  1  6  0  0  0
 23 16  1  0  0  0  0
 24 25  1  0  0  0  0
 27 26  1  0  0  0  0
M  END
>  <minimizedAffinity>
-4.99060583

>  <minimizedRMSD>
2.5243969

$$$$
