
 OpenBabel03272502063D

 42 45  0  0  1  0  0  0  0  0999 V2000
   34.1750   30.3700   47.9030 F   0  0  0  0  0  0  0  0  0  0  0  0
   34.5740   29.9400   46.6620 C   0  0  0  0  0  0  0  0  0  0  0  0
   33.7030   29.3100   45.7860 C   0  0  0  0  0  0  0  0  0  0  0  0
   34.1710   28.9230   44.5480 C   0  0  0  0  0  0  0  0  0  0  0  0
   35.5000   29.1600   44.1810 C   0  0  0  0  0  0  0  0  0  0  0  0
   36.3130   29.7900   45.1010 C   0  0  0  0  0  0  0  0  0  0  0  0
   35.9020   30.1850   46.3190 C   0  0  0  0  0  0  0  0  0  0  0  0
   33.4620   28.4430   43.9110 H   0  0  0  0  0  0  0  0  0  0  0  0
   35.8300   28.8470   43.2120 H   0  0  0  0  0  0  0  0  0  0  0  0
   37.3240   29.9370   44.7440 H   0  0  0  0  0  0  0  0  0  0  0  0
   37.9140   32.2830   45.1560 Br  0  0  0  0  0  0  0  0  0  0  0  0
   37.7530   31.7960   46.9910 C   0  0  0  0  0  0  0  0  0  0  0  0
   36.8130   30.8290   47.2450 C   0  0  0  0  0  0  0  0  0  0  0  0
   36.6640   30.3900   48.5740 C   0  0  0  0  0  0  0  0  0  0  0  0
   37.4280   30.9110   49.5680 C   0  0  0  0  0  0  0  0  0  0  0  0
   38.3570   31.8820   49.2520 C   0  0  0  0  0  0  0  0  0  0  0  0
   38.5340   32.3440   47.9420 C   0  0  0  0  0  0  0  0  0  0  0  0
   35.9490   29.6310   48.8620 H   0  0  0  0  0  0  0  0  0  0  0  0
   37.3500   30.6040   50.6040 H   0  0  0  0  0  0  0  0  0  0  0  0
   38.9880   32.3260   50.0110 H   0  0  0  0  0  0  0  0  0  0  0  0
   39.4180   33.2970   47.5400 O   0  0  0  0  0  0  0  0  0  0  0  0
   40.2680   33.5640   48.0160 H   0  0  0  0  0  0  0  0  0  0  0  0
   32.1610   28.1230   47.2020 C   0  0  0  0  0  0  0  0  0  0  0  0
   32.3680   29.1280   46.2820 C   0  0  0  0  0  0  0  0  0  0  0  0
   31.2720   29.9100   45.9070 C   0  0  0  0  0  0  0  0  0  0  0  0
   30.0540   29.6590   46.4540 N   0  0  0  0  0  0  0  0  0  0  0  0
   29.8960   28.6800   47.3390 C   0  0  0  0  0  0  0  0  0  0  0  0
   30.9160   27.9230   47.7120 N   0  0  0  0  0  0  0  0  0  0  0  0
   32.9440   27.4540   47.5630 H   0  0  0  0  0  0  0  0  0  0  0  0
   31.4580   30.6850   45.1900 H   0  0  0  0  0  0  0  0  0  0  0  0
   28.3970   29.0130   49.3190 C   0  0  1  0  0  3  0  0  0  0  0  0
   28.5720   28.3900   47.9500 C   0  0  1  0  0  3  0  0  0  0  0  0
   27.4350   28.9150   47.1020 C   0  0  0  0  0  3  0  0  0  0  0  0
   27.6320   29.9230   46.6840 H   0  0  0  0  0  0  0  0  0  0  0  0
   26.3140   28.9310   47.9070 O   0  0  0  0  0  0  0  0  0  0  0  0
   26.2870   27.9390   48.8730 C   0  0  0  0  0  3  0  0  0  0  0  0
   25.2860   28.0060   49.3560 H   0  0  0  0  0  0  0  0  0  0  0  0
   27.2780   28.2230   50.0090 C   0  0  1  0  0  3  0  0  0  0  0  0
   29.5910   28.9580   49.9950 O   0  0  0  0  0  0  0  0  0  0  0  0
   30.1040   29.8190   49.9110 H   0  0  0  0  0  0  0  0  0  0  0  0
   27.8840   27.0500   50.4610 O   0  0  0  0  0  0  0  0  0  0  0  0
   28.8730   27.1420   50.5420 H   0  0  0  0  0  0  0  0  0  0  0  0
  2  1  1  0  0  0  0
  3 24  1  0  0  0  0
  3  2  2  0  0  0  0
  4  3  1  0  0  0  0
  5  4  2  0  0  0  0
  5  6  1  0  0  0  0
  6  7  2  0  0  0  0
  7  2  1  0  0  0  0
  7 13  1  0  0  0  0
  8  4  1  0  0  0  0
  9  5  1  0  0  0  0
 10  6  1  0  0  0  0
 11 12  1  0  0  0  0
 12 13  2  0  0  0  0
 12 17  1  0  0  0  0
 13 14  1  0  0  0  0
 14 18  1  0  0  0  0
 14 15  2  0  0  0  0
 15 19  1  0  0  0  0
 16 15  1  0  0  0  0
 16 20  1  0  0  0  0
 17 16  2  0  0  0  0
 21 17  1  0  0  0  0
 21 22  1  0  0  0  0
 23 29  1  0  0  0  0
 23 28  1  0  0  0  0
 24 23  2  0  0  0  0
 25 24  1  0  0  0  0
 25 26  2  0  0  0  0
 26 27  1  0  0  0  0
 27 28  2  0  0  0  0
 30 25  1  0  0  0  0
 31 39  1  1  0  0  0
 31 38  1  0  0  0  0
 32 27  1  6  0  0  0
 32 31  1  0  0  0  0
 33 35  1  0  0  0  0
 33 32  1  0  0  0  0
 34 33  1  0  0  0  0
 35 36  1  0  0  0  0
 36 37  1  0  0  0  0
 36 38  1  0  0  0  0
 38 41  1  6  0  0  0
 40 39  1  0  0  0  0
 41 42  1  0  0  0  0
M  END
>  <minimizedAffinity>
-7.7135787

>  <minimizedRMSD>
0.427514195

$$$$
