
 OpenBabel03272500073D

 42 45  0  0  1  0  0  0  0  0999 V2000
   30.9430   27.5490   48.2280 C   0  0  0  0  0  0  0  0  0  0  0  0
   30.7250   27.7010   49.5820 C   0  0  0  0  0  0  0  0  0  0  0  0
   29.4990   28.1130   50.0610 C   0  0  0  0  0  0  0  0  0  0  0  0
   28.4750   28.3800   49.1660 C   0  0  0  0  0  0  0  0  0  0  0  0
   28.7070   28.2260   47.8220 C   0  0  0  0  0  0  0  0  0  0  0  0
   29.9190   27.8170   47.3540 C   0  0  0  0  0  0  0  0  0  0  0  0
   31.4980   27.5040   50.3330 H   0  0  0  0  0  0  0  0  0  0  0  0
   29.3520   28.2250   51.1330 H   0  0  0  0  0  0  0  0  0  0  0  0
   27.5340   28.7000   49.5740 H   0  0  0  0  0  0  0  0  0  0  0  0
   27.8720   28.4490   47.1730 H   0  0  0  0  0  0  0  0  0  0  0  0
   30.0160   26.1970   45.4740 C   0  0  2  0  0  3  0  0  0  0  0  0
   30.1250   27.6420   45.9200 C   0  0  1  0  0  3  0  0  0  0  0  0
   29.2270   28.4520   45.0230 C   0  0  0  0  0  3  0  0  0  0  0  0
   29.6490   29.4830   44.9330 H   0  0  0  0  0  0  0  0  0  0  0  0
   29.3100   27.9230   43.7320 O   0  0  0  0  0  0  0  0  0  0  0  0
   30.5400   27.4130   43.4120 C   0  0  0  0  0  3  0  0  0  0  0  0
   30.5230   27.2530   42.3010 H   0  0  0  0  0  0  0  0  0  0  0  0
   30.7520   26.0930   44.1530 C   0  0  2  0  0  3  0  0  0  0  0  0
   28.6640   25.9260   45.2760 O   0  0  0  0  0  0  0  0  0  0  0  0
   28.4780   24.9840   45.5290 H   0  0  0  0  0  0  0  0  0  0  0  0
   30.3580   25.0010   43.4210 O   0  0  0  0  0  0  0  0  0  0  0  0
   31.1580   24.4490   43.2250 H   0  0  0  0  0  0  0  0  0  0  0  0
   32.2290   27.1290   47.8990 O   0  0  0  0  0  0  0  0  0  0  0  0
   35.2470   28.7850   48.9450 C   0  0  0  0  0  0  0  0  0  0  0  0
   35.2180   29.9930   48.2490 C   0  0  0  0  0  0  0  0  0  0  0  0
   34.1180   30.2210   47.4010 C   0  0  0  0  0  0  0  0  0  0  0  0
   33.1630   29.2580   47.3180 N   0  0  0  0  0  0  0  0  0  0  0  0
   33.2190   28.1120   47.9970 C   0  0  0  0  0  0  0  0  0  0  0  0
   34.2750   27.8650   48.8260 N   0  0  0  0  0  0  0  0  0  0  0  0
   36.0660   28.5190   49.6300 H   0  0  0  0  0  0  0  0  0  0  0  0
   34.0900   31.1470   46.8640 H   0  0  0  0  0  0  0  0  0  0  0  0
   36.2790   30.9080   48.4270 N   0  0  0  0  0  0  0  0  0  0  0  0
   36.4860   31.5400   49.5780 C   0  0  0  0  0  0  0  0  0  0  0  0
   37.5460   32.4350   49.6930 C   0  0  0  0  0  0  0  0  0  0  0  0
   38.3090   32.5860   48.5620 C   0  0  0  0  0  0  0  0  0  0  0  0
   39.2700   33.3960   48.6600 O   0  0  0  0  0  0  0  0  0  0  0  0
   38.1320   31.9730   47.4010 N   0  0  0  0  0  0  0  0  0  0  0  0
   37.0840   31.1070   47.3320 C   0  0  0  0  0  0  0  0  0  0  0  0
   36.9020   30.5110   46.2220 O   0  0  0  0  0  0  0  0  0  0  0  0
   35.8540   31.3840   50.4380 H   0  0  0  0  0  0  0  0  0  0  0  0
   37.7210   32.9520   50.6270 H   0  0  0  0  0  0  0  0  0  0  0  0
   38.7450   32.1290   46.5800 H   0  0  0  0  0  0  0  0  0  0  0  0
  1  2  1  0  0  0  0
  2  3  2  0  0  0  0
  2  7  1  0  0  0  0
  3  8  1  0  0  0  0
  4  9  1  0  0  0  0
  4  3  1  0  0  0  0
  5  4  2  0  0  0  0
  6  5  1  0  0  0  0
  6  1  2  0  0  0  0
 10  5  1  0  0  0  0
 11 19  1  6  0  0  0
 11 12  1  0  0  0  0
 12  6  1  1  0  0  0
 13 12  1  0  0  0  0
 14 13  1  0  0  0  0
 15 13  1  0  0  0  0
 16 15  1  0  0  0  0
 16 18  1  0  0  0  0
 17 16  1  0  0  0  0
 18 21  1  6  0  0  0
 18 11  1  0  0  0  0
 19 20  1  0  0  0  0
 22 21  1  0  0  0  0
 23 28  1  0  0  0  0
 23  1  1  0  0  0  0
 24 30  1  0  0  0  0
 25 32  1  0  0  0  0
 25 24  2  0  0  0  0
 26 25  1  0  0  0  0
 27 26  2  0  0  0  0
 27 28  1  0  0  0  0
 28 29  2  0  0  0  0
 29 24  1  0  0  0  0
 31 26  1  0  0  0  0
 32 33  1  0  0  0  0
 33 34  2  0  0  0  0
 33 40  1  0  0  0  0
 34 41  1  0  0  0  0
 35 36  2  0  0  0  0
 35 34  1  0  0  0  0
 37 35  1  0  0  0  0
 38 37  1  0  0  0  0
 38 32  1  0  0  0  0
 39 38  2  0  0  0  0
 42 37  1  0  0  0  0
M  END
>  <minimizedAffinity>
-5.84695244

>  <minimizedRMSD>
1.55404627

$$$$
