
 OpenBabel03272502073D

 42 45  0  0  1  0  0  0  0  0999 V2000
   34.3950   30.4180   47.4990 F   0  0  0  0  0  0  0  0  0  0  0  0
   34.6840   29.8850   46.2670 C   0  0  0  0  0  0  0  0  0  0  0  0
   33.7370   29.1990   45.5220 C   0  0  0  0  0  0  0  0  0  0  0  0
   34.0950   28.7090   44.2840 C   0  0  0  0  0  0  0  0  0  0  0  0
   35.3890   28.8990   43.7870 C   0  0  0  0  0  0  0  0  0  0  0  0
   36.2820   29.5910   44.5810 C   0  0  0  0  0  0  0  0  0  0  0  0
   35.9790   30.0860   45.7930 C   0  0  0  0  0  0  0  0  0  0  0  0
   33.3310   28.1880   43.7510 H   0  0  0  0  0  0  0  0  0  0  0  0
   35.6330   28.5050   42.8220 H   0  0  0  0  0  0  0  0  0  0  0  0
   37.2580   29.6960   44.1280 H   0  0  0  0  0  0  0  0  0  0  0  0
   37.6880   32.2830   44.3590 Br  0  0  0  0  0  0  0  0  0  0  0  0
   37.8080   31.8070   46.2000 C   0  0  0  0  0  0  0  0  0  0  0  0
   36.9690   30.7910   46.5830 C   0  0  0  0  0  0  0  0  0  0  0  0
   37.0300   30.3580   47.9210 C   0  0  0  0  0  0  0  0  0  0  0  0
   37.8930   30.9320   48.7990 C   0  0  0  0  0  0  0  0  0  0  0  0
   38.7110   31.9520   48.3560 C   0  0  0  0  0  0  0  0  0  0  0  0
   38.6800   32.4090   47.0320 C   0  0  0  0  0  0  0  0  0  0  0  0
   36.4070   29.5630   48.3070 H   0  0  0  0  0  0  0  0  0  0  0  0
   37.9760   30.6320   49.8360 H   0  0  0  0  0  0  0  0  0  0  0  0
   39.4140   32.4390   49.0190 H   0  0  0  0  0  0  0  0  0  0  0  0
   39.4430   33.4060   46.5100 O   0  0  0  0  0  0  0  0  0  0  0  0
   40.3340   33.7260   46.8640 H   0  0  0  0  0  0  0  0  0  0  0  0
   32.3190   28.1530   47.1610 C   0  0  0  0  0  0  0  0  0  0  0  0
   32.4490   29.0740   46.1430 C   0  0  0  0  0  0  0  0  0  0  0  0
   31.3280   29.8320   45.7960 C   0  0  0  0  0  0  0  0  0  0  0  0
   30.1600   29.6400   46.4640 N   0  0  0  0  0  0  0  0  0  0  0  0
   30.0750   28.7430   47.4410 C   0  0  0  0  0  0  0  0  0  0  0  0
   31.1210   28.0100   47.7900 N   0  0  0  0  0  0  0  0  0  0  0  0
   33.1280   27.5110   47.5110 H   0  0  0  0  0  0  0  0  0  0  0  0
   31.4530   30.5390   45.0020 H   0  0  0  0  0  0  0  0  0  0  0  0
   28.1020   27.2380   47.7910 C   0  0  1  0  0  3  0  0  0  0  0  0
   28.8070   28.5200   48.1850 C   0  0  1  0  0  3  0  0  0  0  0  0
   29.0400   28.4280   49.6760 C   0  0  0  0  0  3  0  0  0  0  0  0
   29.9400   27.8350   49.9430 H   0  0  0  0  0  0  0  0  0  0  0  0
   27.9050   27.8630   50.2220 O   0  0  0  0  0  0  0  0  0  0  0  0
   26.7350   28.1620   49.5450 C   0  0  0  0  0  3  0  0  0  0  0  0
   25.9070   27.7420   50.1610 H   0  0  0  0  0  0  0  0  0  0  0  0
   26.6380   27.4080   48.2130 C   0  0  1  0  0  3  0  0  0  0  0  0
   28.2550   27.0370   46.4420 O   0  0  0  0  0  0  0  0  0  0  0  0
   29.0210   26.4170   46.2440 H   0  0  0  0  0  0  0  0  0  0  0  0
   26.0600   28.2010   47.2200 O   0  0  0  0  0  0  0  0  0  0  0  0
   26.5810   28.1810   46.3700 H   0  0  0  0  0  0  0  0  0  0  0  0
  2  1  1  0  0  0  0
  3 24  1  0  0  0  0
  3  2  2  0  0  0  0
  4  3  1  0  0  0  0
  5  4  2  0  0  0  0
  5  6  1  0  0  0  0
  6  7  2  0  0  0  0
  7  2  1  0  0  0  0
  7 13  1  0  0  0  0
  8  4  1  0  0  0  0
  9  5  1  0  0  0  0
 10  6  1  0  0  0  0
 11 12  1  0  0  0  0
 12 13  2  0  0  0  0
 12 17  1  0  0  0  0
 13 14  1  0  0  0  0
 14 18  1  0  0  0  0
 14 15  2  0  0  0  0
 15 19  1  0  0  0  0
 16 15  1  0  0  0  0
 16 20  1  0  0  0  0
 17 16  2  0  0  0  0
 21 22  1  0  0  0  0
 21 17  1  0  0  0  0
 23 29  1  0  0  0  0
 23 28  1  0  0  0  0
 24 23  2  0  0  0  0
 25 24  1  0  0  0  0
 25 26  2  0  0  0  0
 26 27  1  0  0  0  0
 27 28  2  0  0  0  0
 30 25  1  0  0  0  0
 31 39  1  6  0  0  0
 31 32  1  0  0  0  0
 31 38  1  0  0  0  0
 32 27  1  6  0  0  0
 32 33  1  0  0  0  0
 33 34  1  0  0  0  0
 33 35  1  0  0  0  0
 36 37  1  0  0  0  0
 36 35  1  0  0  0  0
 38 41  1  6  0  0  0
 38 36  1  0  0  0  0
 40 39  1  0  0  0  0
 42 41  1  0  0  0  0
M  END
>  <minimizedAffinity>
-7.08355331

>  <minimizedRMSD>
0.617856324

$$$$
