
 OpenBabel03272502303D

 27 28  0  0  1  0  0  0  0  0999 V2000
   39.4280   32.5200   46.5100 C   0  0  0  0  0  0  0  0  0  0  0  0
   40.2820   31.8160   46.3440 H   0  0  0  0  0  0  0  0  0  0  0  0
   39.7580   33.5610   46.6500 H   0  0  0  0  0  0  0  0  0  0  0  0
   38.1600   30.8340   47.7790 C   0  0  0  0  0  3  0  0  0  0  0  0
   38.7620   32.0150   47.7410 C   0  0  0  0  0  3  0  0  0  0  0  0
   37.3850   30.2240   51.3570 C   0  0  0  0  0  0  0  0  0  0  0  0
   38.0210   30.7060   50.2010 C   0  0  0  0  0  0  0  0  0  0  0  0
   37.5230   30.3510   48.9660 C   0  0  0  0  0  0  0  0  0  0  0  0
   36.4300   29.5460   48.8930 N   0  0  0  0  0  0  0  0  0  0  0  0
   35.8380   29.0970   50.0150 C   0  0  0  0  0  0  0  0  0  0  0  0
   36.3010   29.4250   51.2430 N   0  0  0  0  0  0  0  0  0  0  0  0
   37.7280   30.4640   52.3480 H   0  0  0  0  0  0  0  0  0  0  0  0
   38.8850   31.3400   50.3330 H   0  0  0  0  0  0  0  0  0  0  0  0
   34.9690   28.4590   49.8670 H   0  0  0  0  0  0  0  0  0  0  0  0
   38.3040   32.3440   45.0910 S   0  0  0  0  0  0  0  0  0  0  0  0
   38.6720   31.3840   42.5270 C   0  0  2  0  0  3  0  0  0  0  0  0
   38.9700   31.0900   43.9850 C   0  0  1  0  0  3  0  0  0  0  0  0
   40.4870   31.0330   44.0850 C   0  0  0  0  0  3  0  0  0  0  0  0
   40.8270   32.0940   43.9060 H   0  0  0  0  0  0  0  0  0  0  0  0
   41.0470   30.2690   43.0860 O   0  0  0  0  0  0  0  0  0  0  0  0
   40.1660   29.3950   42.4830 C   0  0  0  0  0  3  0  0  0  0  0  0
   40.7490   28.8900   41.6610 H   0  0  0  0  0  0  0  0  0  0  0  0
   39.0050   30.0860   41.7900 C   0  0  2  0  0  3  0  0  0  0  0  0
   39.5860   32.3420   42.0680 O   0  0  0  0  0  0  0  0  0  0  0  0
   39.1100   33.0540   41.5650 H   0  0  0  0  0  0  0  0  0  0  0  0
   39.2760   30.3620   40.4500 O   0  0  0  0  0  0  0  0  0  0  0  0
   40.2500   30.3700   40.2730 H   0  0  0  0  0  0  0  0  0  0  0  0
  1  3  1  0  0  0  0
  1  5  1  0  0  0  0
  2  1  1  0  0  0  0
  4  8  1  0  0  0  0
  5  4  2  0  0  0  0
  6 12  1  0  0  0  0
  7 13  1  0  0  0  0
  7  6  2  0  0  0  0
  8  7  1  0  0  0  0
  9  8  2  0  0  0  0
  9 10  1  0  0  0  0
 10 11  2  0  0  0  0
 11  6  1  0  0  0  0
 14 10  1  0  0  0  0
 15  1  1  0  0  0  0
 16 24  1  6  0  0  0
 16 17  1  0  0  0  0
 17 18  1  0  0  0  0
 17 15  1  1  0  0  0
 19 18  1  0  0  0  0
 20 18  1  0  0  0  0
 21 20  1  0  0  0  0
 22 21  1  0  0  0  0
 23 26  1  6  0  0  0
 23 21  1  0  0  0  0
 23 16  1  0  0  0  0
 25 24  1  0  0  0  0
 27 26  1  0  0  0  0
M  END
>  <minimizedAffinity>
-5.14579725

>  <minimizedRMSD>
2.4717648

$$$$
