
 OpenBabel03272500073D

 42 45  0  0  1  0  0  0  0  0999 V2000
   31.0710   27.2830   48.2610 C   0  0  0  0  0  0  0  0  0  0  0  0
   30.8410   27.7620   49.5350 C   0  0  0  0  0  0  0  0  0  0  0  0
   29.5820   28.1760   49.9210 C   0  0  0  0  0  0  0  0  0  0  0  0
   28.5370   28.1100   49.0120 C   0  0  0  0  0  0  0  0  0  0  0  0
   28.7810   27.6320   47.7490 C   0  0  0  0  0  0  0  0  0  0  0  0
   30.0250   27.2230   47.3730 C   0  0  0  0  0  0  0  0  0  0  0  0
   31.6290   27.8360   50.2920 H   0  0  0  0  0  0  0  0  0  0  0  0
   29.4270   28.5490   50.9310 H   0  0  0  0  0  0  0  0  0  0  0  0
   27.5720   28.4410   49.3470 H   0  0  0  0  0  0  0  0  0  0  0  0
   27.9280   27.6040   47.0850 H   0  0  0  0  0  0  0  0  0  0  0  0
   30.6220   27.7720   45.0260 C   0  0  2  0  0  3  0  0  0  0  0  0
   30.2440   26.7000   46.0290 C   0  0  1  0  0  3  0  0  0  0  0  0
   31.2650   25.6010   45.9100 C   0  0  0  0  0  3  0  0  0  0  0  0
   30.7800   24.6300   46.1820 H   0  0  0  0  0  0  0  0  0  0  0  0
   31.6000   25.4600   44.5600 O   0  0  0  0  0  0  0  0  0  0  0  0
   30.5680   25.7130   43.6980 C   0  0  0  0  0  3  0  0  0  0  0  0
   30.9080   25.3370   42.6960 H   0  0  0  0  0  0  0  0  0  0  0  0
   30.2970   27.2170   43.6540 C   0  0  2  0  0  3  0  0  0  0  0  0
   31.9980   27.9710   45.1330 O   0  0  0  0  0  0  0  0  0  0  0  0
   32.2030   28.9290   44.9690 H   0  0  0  0  0  0  0  0  0  0  0  0
   30.9890   27.8550   42.6550 O   0  0  0  0  0  0  0  0  0  0  0  0
   30.3390   28.2180   42.0030 H   0  0  0  0  0  0  0  0  0  0  0  0
   32.3890   26.9070   48.0210 O   0  0  0  0  0  0  0  0  0  0  0  0
   35.3050   28.7080   49.1140 C   0  0  0  0  0  0  0  0  0  0  0  0
   35.2350   29.9080   48.4060 C   0  0  0  0  0  0  0  0  0  0  0  0
   34.1440   30.0780   47.5340 C   0  0  0  0  0  0  0  0  0  0  0  0
   33.2360   29.0720   47.4390 N   0  0  0  0  0  0  0  0  0  0  0  0
   33.3310   27.9350   48.1300 C   0  0  0  0  0  0  0  0  0  0  0  0
   34.3790   27.7430   48.9830 N   0  0  0  0  0  0  0  0  0  0  0  0
   36.1210   28.4860   49.8180 H   0  0  0  0  0  0  0  0  0  0  0  0
   34.0850   30.9970   46.9880 H   0  0  0  0  0  0  0  0  0  0  0  0
   36.2490   30.8730   48.5980 N   0  0  0  0  0  0  0  0  0  0  0  0
   36.3960   31.5300   49.7450 C   0  0  0  0  0  0  0  0  0  0  0  0
   37.4120   32.4730   49.8730 C   0  0  0  0  0  0  0  0  0  0  0  0
   38.1980   32.6420   48.7610 C   0  0  0  0  0  0  0  0  0  0  0  0
   39.1190   33.4960   48.8710 O   0  0  0  0  0  0  0  0  0  0  0  0
   38.0790   32.0050   47.6050 N   0  0  0  0  0  0  0  0  0  0  0  0
   37.0730   31.0930   47.5210 C   0  0  0  0  0  0  0  0  0  0  0  0
   36.9470   30.4730   46.4160 O   0  0  0  0  0  0  0  0  0  0  0  0
   35.7500   31.3570   50.5890 H   0  0  0  0  0  0  0  0  0  0  0  0
   37.5380   33.0100   50.8040 H   0  0  0  0  0  0  0  0  0  0  0  0
   38.7060   32.1780   46.7980 H   0  0  0  0  0  0  0  0  0  0  0  0
  1  2  1  0  0  0  0
  2  3  2  0  0  0  0
  2  7  1  0  0  0  0
  3  8  1  0  0  0  0
  4  9  1  0  0  0  0
  4  3  1  0  0  0  0
  5  4  2  0  0  0  0
  6  5  1  0  0  0  0
  6  1  2  0  0  0  0
 10  5  1  0  0  0  0
 11 19  1  6  0  0  0
 11 12  1  0  0  0  0
 12  6  1  1  0  0  0
 13 12  1  0  0  0  0
 13 14  1  0  0  0  0
 15 13  1  0  0  0  0
 16 15  1  0  0  0  0
 17 16  1  0  0  0  0
 18 21  1  6  0  0  0
 18 16  1  0  0  0  0
 18 11  1  0  0  0  0
 20 19  1  0  0  0  0
 22 21  1  0  0  0  0
 23 28  1  0  0  0  0
 23  1  1  0  0  0  0
 24 30  1  0  0  0  0
 25 32  1  0  0  0  0
 25 24  2  0  0  0  0
 26 25  1  0  0  0  0
 27 26  2  0  0  0  0
 27 28  1  0  0  0  0
 28 29  2  0  0  0  0
 29 24  1  0  0  0  0
 31 26  1  0  0  0  0
 32 33  1  0  0  0  0
 33 34  2  0  0  0  0
 33 40  1  0  0  0  0
 34 41  1  0  0  0  0
 35 36  2  0  0  0  0
 35 34  1  0  0  0  0
 37 35  1  0  0  0  0
 38 37  1  0  0  0  0
 38 32  1  0  0  0  0
 39 38  2  0  0  0  0
 42 37  1  0  0  0  0
M  END
>  <minimizedAffinity>
-5.74067259

>  <minimizedRMSD>
0.886575937

$$$$
