
 OpenBabel03272500073D

 42 45  0  0  1  0  0  0  0  0999 V2000
   30.7820   27.6400   48.1860 C   0  0  0  0  0  0  0  0  0  0  0  0
   30.6090   27.6720   49.5550 C   0  0  0  0  0  0  0  0  0  0  0  0
   29.4120   28.0770   50.1090 C   0  0  0  0  0  0  0  0  0  0  0  0
   28.3720   28.4570   49.2750 C   0  0  0  0  0  0  0  0  0  0  0  0
   28.5590   28.4210   47.9160 C   0  0  0  0  0  0  0  0  0  0  0  0
   29.7430   28.0200   47.3740 C   0  0  0  0  0  0  0  0  0  0  0  0
   31.3960   27.3830   50.2600 H   0  0  0  0  0  0  0  0  0  0  0  0
   29.3010   28.0930   51.1910 H   0  0  0  0  0  0  0  0  0  0  0  0
   27.4550   28.7680   49.7410 H   0  0  0  0  0  0  0  0  0  0  0  0
   27.7140   28.7290   47.3180 H   0  0  0  0  0  0  0  0  0  0  0  0
   29.6450   26.5950   45.3430 C   0  0  2  0  0  3  0  0  0  0  0  0
   29.9000   27.9720   45.9250 C   0  0  1  0  0  3  0  0  0  0  0  0
   29.0660   28.9480   45.1400 C   0  0  0  0  0  3  0  0  0  0  0  0
   29.5830   29.9400   45.1380 H   0  0  0  0  0  0  0  0  0  0  0  0
   29.0700   28.5470   43.8010 O   0  0  0  0  0  0  0  0  0  0  0  0
   30.2380   27.9590   43.3940 C   0  0  0  0  0  3  0  0  0  0  0  0
   30.1830   27.9130   42.2740 H   0  0  0  0  0  0  0  0  0  0  0  0
   30.3390   26.5570   43.9960 C   0  0  2  0  0  3  0  0  0  0  0  0
   28.2680   26.4730   45.1600 O   0  0  0  0  0  0  0  0  0  0  0  0
   27.9990   25.5310   45.3240 H   0  0  0  0  0  0  0  0  0  0  0  0
   29.8270   25.5860   43.1720 O   0  0  0  0  0  0  0  0  0  0  0  0
   30.5650   24.9860   42.8980 H   0  0  0  0  0  0  0  0  0  0  0  0
   32.0430   27.2120   47.7790 O   0  0  0  0  0  0  0  0  0  0  0  0
   35.0910   28.7740   48.8810 C   0  0  0  0  0  0  0  0  0  0  0  0
   35.1110   29.9840   48.1860 C   0  0  0  0  0  0  0  0  0  0  0  0
   34.0330   30.2460   47.3200 C   0  0  0  0  0  0  0  0  0  0  0  0
   33.0520   29.3130   47.2180 N   0  0  0  0  0  0  0  0  0  0  0  0
   33.0610   28.1650   47.8960 C   0  0  0  0  0  0  0  0  0  0  0  0
   34.0940   27.8840   48.7430 N   0  0  0  0  0  0  0  0  0  0  0  0
   35.8900   28.4820   49.5800 H   0  0  0  0  0  0  0  0  0  0  0  0
   34.0430   31.1730   46.7840 H   0  0  0  0  0  0  0  0  0  0  0  0
   36.1960   30.8660   48.3850 N   0  0  0  0  0  0  0  0  0  0  0  0
   36.4130   31.4740   49.5470 C   0  0  0  0  0  0  0  0  0  0  0  0
   37.4980   32.3370   49.6820 C   0  0  0  0  0  0  0  0  0  0  0  0
   38.2720   32.4840   48.5580 C   0  0  0  0  0  0  0  0  0  0  0  0
   39.2550   33.2650   48.6740 O   0  0  0  0  0  0  0  0  0  0  0  0
   38.0850   31.8930   47.3860 N   0  0  0  0  0  0  0  0  0  0  0  0
   37.0130   31.0580   47.2980 C   0  0  0  0  0  0  0  0  0  0  0  0
   36.8220   30.4840   46.1780 O   0  0  0  0  0  0  0  0  0  0  0  0
   35.7720   31.3230   50.4000 H   0  0  0  0  0  0  0  0  0  0  0  0
   37.6800   32.8350   50.6250 H   0  0  0  0  0  0  0  0  0  0  0  0
   38.7070   32.0450   46.5720 H   0  0  0  0  0  0  0  0  0  0  0  0
  1  2  1  0  0  0  0
  2  3  2  0  0  0  0
  2  7  1  0  0  0  0
  3  8  1  0  0  0  0
  4  9  1  0  0  0  0
  4  3  1  0  0  0  0
  5  4  2  0  0  0  0
  6  5  1  0  0  0  0
  6  1  2  0  0  0  0
 10  5  1  0  0  0  0
 11 19  1  6  0  0  0
 11 12  1  0  0  0  0
 12  6  1  1  0  0  0
 13 12  1  0  0  0  0
 14 13  1  0  0  0  0
 15 13  1  0  0  0  0
 16 15  1  0  0  0  0
 16 18  1  0  0  0  0
 17 16  1  0  0  0  0
 18 21  1  6  0  0  0
 18 11  1  0  0  0  0
 19 20  1  0  0  0  0
 22 21  1  0  0  0  0
 23 28  1  0  0  0  0
 23  1  1  0  0  0  0
 24 30  1  0  0  0  0
 25 32  1  0  0  0  0
 25 24  2  0  0  0  0
 26 25  1  0  0  0  0
 27 26  2  0  0  0  0
 27 28  1  0  0  0  0
 28 29  2  0  0  0  0
 29 24  1  0  0  0  0
 31 26  1  0  0  0  0
 32 33  1  0  0  0  0
 33 34  2  0  0  0  0
 33 40  1  0  0  0  0
 34 41  1  0  0  0  0
 35 36  2  0  0  0  0
 35 34  1  0  0  0  0
 37 35  1  0  0  0  0
 38 37  1  0  0  0  0
 38 32  1  0  0  0  0
 39 38  2  0  0  0  0
 42 37  1  0  0  0  0
M  END
>  <minimizedAffinity>
-5.84841537

>  <minimizedRMSD>
1.13307667

$$$$
