
 OpenBabel03272510263D

 48 52  0  0  1  0  0  0  0  0999 V2000
   39.3620   31.6440   41.8560 N   0  0  0  0  0  0  0  0  0  0  0  0
   39.2410   33.0710   41.8530 C   0  0  1  0  0  0  0  0  0  0  0  0
   37.9540   33.4910   41.3180 C   0  0  0  0  0  0  0  0  0  0  0  0
   37.8680   33.0730   39.9800 O   0  0  0  0  0  0  0  0  0  0  0  0
   38.0860   31.7380   39.7720 C   0  0  0  0  0  0  0  0  0  0  0  0
   39.2750   31.1910   40.4860 C   0  0  1  0  0  0  0  0  0  0  0  0
   38.7970   31.0820   42.4490 H   0  0  0  0  0  0  0  0  0  0  0  0
   40.0570   33.4950   41.2460 H   0  0  0  0  0  0  0  0  0  0  0  0
   37.9940   34.6200   41.2250 H   0  0  0  0  0  0  0  0  0  0  0  0
   37.0080   33.2600   41.7250 H   0  0  0  0  0  0  0  0  0  0  0  0
   38.1010   31.5580   38.7050 H   0  0  0  0  0  0  0  0  0  0  0  0
   37.1820   31.2090   40.1960 H   0  0  0  0  0  0  0  0  0  0  0  0
   39.0970   30.0750   40.5490 H   0  0  0  0  0  0  0  0  0  0  0  0
   41.4360   30.1120   40.0820 C   0  0  2  0  0  3  0  0  0  0  0  0
   40.5830   31.3180   39.7670 C   0  0  1  0  0  3  0  0  0  0  0  0
   40.4200   31.4090   38.2930 C   0  0  0  0  0  3  0  0  0  0  0  0
   41.4630   31.4990   37.8670 H   0  0  0  0  0  0  0  0  0  0  0  0
   39.9130   30.2470   37.7170 O   0  0  0  0  0  0  0  0  0  0  0  0
   40.9690   29.3100   37.8130 C   0  0  0  0  0  3  0  0  0  0  0  0
   41.9080   29.8560   37.5770 H   0  0  0  0  0  0  0  0  0  0  0  0
   41.0340   28.9050   39.2610 C   0  0  1  0  0  3  0  0  0  0  0  0
   41.3980   29.7470   41.4050 O   0  0  0  0  0  0  0  0  0  0  0  0
   41.6350   28.8180   41.5510 H   0  0  0  0  0  0  0  0  0  0  0  0
   42.0060   27.9310   39.4860 O   0  0  0  0  0  0  0  0  0  0  0  0
   42.8560   28.3080   39.8340 H   0  0  0  0  0  0  0  0  0  0  0  0
   39.3870   33.4970   43.2040 O   0  0  0  0  0  0  0  0  0  0  0  0
   36.1670   30.2090   46.8960 C   0  0  0  0  0  0  0  0  0  0  0  0
   37.0530   30.7370   47.8240 C   0  0  0  0  0  0  0  0  0  0  0  0
   38.0660   31.6220   47.4310 C   0  0  0  0  0  0  0  0  0  0  0  0
   38.1290   31.9320   46.0760 C   0  0  0  0  0  0  0  0  0  0  0  0
   39.0180   32.7650   45.4540 N   0  0  0  0  0  0  0  0  0  0  0  0
   38.6870   32.7520   44.1530 C   0  0  0  0  0  0  0  0  0  0  0  0
   37.6500   31.9610   43.9540 N   0  0  0  0  0  0  0  0  0  0  0  0
   37.2630   31.4240   45.1240 C   0  0  0  0  0  0  0  0  0  0  0  0
   36.2620   30.5430   45.5490 C   0  0  0  0  0  0  0  0  0  0  0  0
   35.3750   29.5270   47.1530 H   0  0  0  0  0  0  0  0  0  0  0  0
   38.7670   32.0440   48.1380 H   0  0  0  0  0  0  0  0  0  0  0  0
   39.8030   33.2990   45.9340 H   0  0  0  0  0  0  0  0  0  0  0  0
   35.5870   30.1460   44.8100 H   0  0  0  0  0  0  0  0  0  0  0  0
   37.5180   30.1630   51.5060 C   0  0  0  0  0  0  0  0  0  0  0  0
   37.8180   30.5970   50.2210 C   0  0  0  0  0  0  0  0  0  0  0  0
   36.9120   30.3600   49.2150 C   0  0  0  0  0  0  0  0  0  0  0  0
   35.7500   29.6990   49.5550 N   0  0  0  0  0  0  0  0  0  0  0  0
   35.4680   29.2820   50.8050 C   0  0  0  0  0  0  0  0  0  0  0  0
   36.3450   29.5140   51.7620 N   0  0  0  0  0  0  0  0  0  0  0  0
   38.2690   30.3760   52.2630 H   0  0  0  0  0  0  0  0  0  0  0  0
   38.7260   31.1170   49.9450 H   0  0  0  0  0  0  0  0  0  0  0  0
   34.5320   28.7720   50.9740 H   0  0  0  0  0  0  0  0  0  0  0  0
  1  7  1  0  0  0  0
  2  8  1  6  0  0  0
  2  1  1  0  0  0  0
  2 26  1  0  0  0  0
  3 10  1  0  0  0  0
  3  2  1  0  0  0  0
  4  3  1  0  0  0  0
  5  4  1  0  0  0  0
  5 12  1  0  0  0  0
  5  6  1  0  0  0  0
  6 13  1  1  0  0  0
  6  1  1  0  0  0  0
  9  3  1  0  0  0  0
 11  5  1  0  0  0  0
 14 22  1  1  0  0  0
 15 16  1  6  0  0  0
 15 14  1  0  0  0  0
 15  6  1  0  0  0  0
 17 16  1  0  0  0  0
 18 19  1  0  0  0  0
 18 16  1  0  0  0  0
 19 21  1  0  0  0  0
 20 19  1  0  0  0  0
 21 24  1  6  0  0  0
 21 14  1  0  0  0  0
 22 23  1  0  0  0  0
 24 25  1  0  0  0  0
 26 32  1  0  0  0  0
 27 36  1  0  0  0  0
 27 28  1  0  0  0  0
 28 42  1  0  0  0  0
 29 28  2  0  0  0  0
 29 37  1  0  0  0  0
 30 29  1  0  0  0  0
 31 38  1  0  0  0  0
 31 30  1  0  0  0  0
 32 31  1  0  0  0  0
 33 32  2  0  0  0  0
 33 34  1  0  0  0  0
 34 35  1  0  0  0  0
 34 30  2  0  0  0  0
 35 27  2  0  0  0  0
 39 35  1  0  0  0  0
 40 45  1  0  0  0  0
 40 46  1  0  0  0  0
 41 40  2  0  0  0  0
 42 43  2  0  0  0  0
 42 41  1  0  0  0  0
 43 44  1  0  0  0  0
 44 48  1  0  0  0  0
 44 45  2  0  0  0  0
 47 41  1  0  0  0  0
M  END
>  <minimizedAffinity>
-6.04072905

>  <minimizedRMSD>
1.57482028

$$$$
