
 OpenBabel03272502073D

 42 45  0  0  1  0  0  0  0  0999 V2000
   34.5560   30.3660   47.6490 F   0  0  0  0  0  0  0  0  0  0  0  0
   34.8680   29.9200   46.3890 C   0  0  0  0  0  0  0  0  0  0  0  0
   33.9490   29.2470   45.5990 C   0  0  0  0  0  0  0  0  0  0  0  0
   34.3280   28.8460   44.3350 C   0  0  0  0  0  0  0  0  0  0  0  0
   35.6160   29.1110   43.8580 C   0  0  0  0  0  0  0  0  0  0  0  0
   36.4820   29.7830   44.6980 C   0  0  0  0  0  0  0  0  0  0  0  0
   36.1570   30.1930   45.9360 C   0  0  0  0  0  0  0  0  0  0  0  0
   33.5850   28.3320   43.7660 H   0  0  0  0  0  0  0  0  0  0  0  0
   35.8770   28.7850   42.8720 H   0  0  0  0  0  0  0  0  0  0  0  0
   37.4560   29.9500   44.2570 H   0  0  0  0  0  0  0  0  0  0  0  0
   37.9330   32.3970   44.5970 Br  0  0  0  0  0  0  0  0  0  0  0  0
   37.9780   31.8980   46.4350 C   0  0  0  0  0  0  0  0  0  0  0  0
   37.1190   30.8830   46.7730 C   0  0  0  0  0  0  0  0  0  0  0  0
   37.1240   30.4340   48.1070 C   0  0  0  0  0  0  0  0  0  0  0  0
   37.9550   30.9920   49.0260 C   0  0  0  0  0  0  0  0  0  0  0  0
   38.7950   32.0120   48.6270 C   0  0  0  0  0  0  0  0  0  0  0  0
   38.8190   32.4850   47.3090 C   0  0  0  0  0  0  0  0  0  0  0  0
   36.4820   29.6380   48.4580 H   0  0  0  0  0  0  0  0  0  0  0  0
   37.9950   30.6790   50.0610 H   0  0  0  0  0  0  0  0  0  0  0  0
   39.4740   32.4870   49.3240 H   0  0  0  0  0  0  0  0  0  0  0  0
   39.6080   33.4840   46.8300 O   0  0  0  0  0  0  0  0  0  0  0  0
   40.4860   33.7940   47.2220 H   0  0  0  0  0  0  0  0  0  0  0  0
   32.5630   28.0590   47.1660 C   0  0  0  0  0  0  0  0  0  0  0  0
   32.6630   29.0400   46.2030 C   0  0  0  0  0  0  0  0  0  0  0  0
   31.5160   29.7750   45.8920 C   0  0  0  0  0  0  0  0  0  0  0  0
   30.3530   29.5030   46.5420 N   0  0  0  0  0  0  0  0  0  0  0  0
   30.2970   28.5490   47.4650 C   0  0  0  0  0  0  0  0  0  0  0  0
   31.3680   27.8360   47.7780 N   0  0  0  0  0  0  0  0  0  0  0  0
   33.3930   27.4260   47.4840 H   0  0  0  0  0  0  0  0  0  0  0  0
   31.6200   30.5310   45.1410 H   0  0  0  0  0  0  0  0  0  0  0  0
   28.0930   27.3610   47.3900 C   0  0  1  0  0  3  0  0  0  0  0  0
   29.0360   28.2370   48.1870 C   0  0  1  0  0  3  0  0  0  0  0  0
   29.2980   27.5010   49.4820 C   0  0  0  0  0  3  0  0  0  0  0  0
   30.0790   26.7180   49.3890 H   0  0  0  0  0  0  0  0  0  0  0  0
   28.0970   26.9440   49.8730 O   0  0  0  0  0  0  0  0  0  0  0  0
   26.9800   27.6750   49.5030 C   0  0  0  0  0  3  0  0  0  0  0  0
   26.1090   27.1730   49.9820 H   0  0  0  0  0  0  0  0  0  0  0  0
   26.7010   27.5660   47.9980 C   0  0  1  0  0  3  0  0  0  0  0  0
   28.1600   27.7170   46.0660 O   0  0  0  0  0  0  0  0  0  0  0  0
   28.7910   27.1240   45.5540 H   0  0  0  0  0  0  0  0  0  0  0  0
   26.2480   28.7790   47.4760 O   0  0  0  0  0  0  0  0  0  0  0  0
   26.7260   29.0320   46.6390 H   0  0  0  0  0  0  0  0  0  0  0  0
  2  1  1  0  0  0  0
  3 24  1  0  0  0  0
  3  2  2  0  0  0  0
  4  3  1  0  0  0  0
  5  4  2  0  0  0  0
  5  6  1  0  0  0  0
  6  7  2  0  0  0  0
  7  2  1  0  0  0  0
  7 13  1  0  0  0  0
  8  4  1  0  0  0  0
  9  5  1  0  0  0  0
 10  6  1  0  0  0  0
 11 12  1  0  0  0  0
 12 13  2  0  0  0  0
 12 17  1  0  0  0  0
 13 14  1  0  0  0  0
 14 18  1  0  0  0  0
 14 15  2  0  0  0  0
 15 19  1  0  0  0  0
 16 15  1  0  0  0  0
 16 20  1  0  0  0  0
 17 16  2  0  0  0  0
 21 22  1  0  0  0  0
 21 17  1  0  0  0  0
 23 29  1  0  0  0  0
 23 28  1  0  0  0  0
 24 23  2  0  0  0  0
 25 24  1  0  0  0  0
 25 26  2  0  0  0  0
 26 27  1  0  0  0  0
 27 28  2  0  0  0  0
 30 25  1  0  0  0  0
 31 39  1  6  0  0  0
 31 38  1  0  0  0  0
 31 32  1  0  0  0  0
 32 27  1  6  0  0  0
 32 33  1  0  0  0  0
 33 35  1  0  0  0  0
 34 33  1  0  0  0  0
 36 35  1  0  0  0  0
 36 37  1  0  0  0  0
 38 41  1  6  0  0  0
 38 36  1  0  0  0  0
 40 39  1  0  0  0  0
 42 41  1  0  0  0  0
M  END
>  <minimizedAffinity>
-6.97499514

>  <minimizedRMSD>
0.870383441

$$$$
