
 OpenBabel03272500073D

 42 45  0  0  1  0  0  0  0  0999 V2000
   31.2000   27.5330   48.2760 C   0  0  0  0  0  0  0  0  0  0  0  0
   30.8100   27.7710   49.5780 C   0  0  0  0  0  0  0  0  0  0  0  0
   29.5300   28.1960   49.8680 C   0  0  0  0  0  0  0  0  0  0  0  0
   28.6270   28.3880   48.8330 C   0  0  0  0  0  0  0  0  0  0  0  0
   29.0300   28.1480   47.5430 C   0  0  0  0  0  0  0  0  0  0  0  0
   30.2950   27.7270   47.2620 C   0  0  0  0  0  0  0  0  0  0  0  0
   31.4810   27.6360   50.4330 H   0  0  0  0  0  0  0  0  0  0  0  0
   29.2460   28.3770   50.9030 H   0  0  0  0  0  0  0  0  0  0  0  0
   27.6400   28.7210   49.0950 H   0  0  0  0  0  0  0  0  0  0  0  0
   28.2830   28.3150   46.7800 H   0  0  0  0  0  0  0  0  0  0  0  0
   30.6840   25.9830   45.5380 C   0  0  2  0  0  3  0  0  0  0  0  0
   30.6830   27.4600   45.8820 C   0  0  1  0  0  3  0  0  0  0  0  0
   29.8750   28.1620   44.8240 C   0  0  0  0  0  3  0  0  0  0  0  0
   30.2670   29.2030   44.7070 H   0  0  0  0  0  0  0  0  0  0  0  0
   30.1360   27.5480   43.5960 O   0  0  0  0  0  0  0  0  0  0  0  0
   31.4140   27.0720   43.4670 C   0  0  0  0  0  3  0  0  0  0  0  0
   31.5420   26.8330   42.3780 H   0  0  0  0  0  0  0  0  0  0  0  0
   31.5810   25.8200   44.3270 C   0  0  2  0  0  3  0  0  0  0  0  0
   29.3780   25.6380   45.1980 O   0  0  0  0  0  0  0  0  0  0  0  0
   29.1960   24.7080   45.4970 H   0  0  0  0  0  0  0  0  0  0  0  0
   31.3220   24.6620   43.6380 O   0  0  0  0  0  0  0  0  0  0  0  0
   32.1590   24.1350   43.5820 H   0  0  0  0  0  0  0  0  0  0  0  0
   32.5200   27.1110   48.1430 O   0  0  0  0  0  0  0  0  0  0  0  0
   35.4820   28.8960   49.1370 C   0  0  0  0  0  0  0  0  0  0  0  0
   35.4180   30.0770   48.3980 C   0  0  0  0  0  0  0  0  0  0  0  0
   34.3140   30.2410   47.5400 C   0  0  0  0  0  0  0  0  0  0  0  0
   33.3900   29.2460   47.4880 N   0  0  0  0  0  0  0  0  0  0  0  0
   33.4790   28.1280   48.2080 C   0  0  0  0  0  0  0  0  0  0  0  0
   34.5390   27.9420   49.0480 N   0  0  0  0  0  0  0  0  0  0  0  0
   36.3060   28.6800   49.8330 H   0  0  0  0  0  0  0  0  0  0  0  0
   34.2590   31.1460   46.9700 H   0  0  0  0  0  0  0  0  0  0  0  0
   36.4490   31.0310   48.5470 N   0  0  0  0  0  0  0  0  0  0  0  0
   36.6160   31.7290   49.6650 C   0  0  0  0  0  0  0  0  0  0  0  0
   37.6480   32.6580   49.7510 C   0  0  0  0  0  0  0  0  0  0  0  0
   38.4290   32.7710   48.6280 C   0  0  0  0  0  0  0  0  0  0  0  0
   39.3650   33.6120   48.7000 O   0  0  0  0  0  0  0  0  0  0  0  0
   38.2920   32.0920   47.4990 N   0  0  0  0  0  0  0  0  0  0  0  0
   37.2700   31.1940   47.4570 C   0  0  0  0  0  0  0  0  0  0  0  0
   37.1270   30.5350   46.3770 O   0  0  0  0  0  0  0  0  0  0  0  0
   35.9720   31.6000   50.5200 H   0  0  0  0  0  0  0  0  0  0  0  0
   37.7900   33.2290   50.6590 H   0  0  0  0  0  0  0  0  0  0  0  0
   38.9170   32.2220   46.6820 H   0  0  0  0  0  0  0  0  0  0  0  0
  1  2  1  0  0  0  0
  2  3  2  0  0  0  0
  2  7  1  0  0  0  0
  3  8  1  0  0  0  0
  4  9  1  0  0  0  0
  4  3  1  0  0  0  0
  5  4  2  0  0  0  0
  6  5  1  0  0  0  0
  6  1  2  0  0  0  0
 10  5  1  0  0  0  0
 11 19  1  6  0  0  0
 11 12  1  0  0  0  0
 12  6  1  1  0  0  0
 13 12  1  0  0  0  0
 14 13  1  0  0  0  0
 15 13  1  0  0  0  0
 16 15  1  0  0  0  0
 16 18  1  0  0  0  0
 17 16  1  0  0  0  0
 18 21  1  6  0  0  0
 18 11  1  0  0  0  0
 19 20  1  0  0  0  0
 22 21  1  0  0  0  0
 23 28  1  0  0  0  0
 23  1  1  0  0  0  0
 24 30  1  0  0  0  0
 25 32  1  0  0  0  0
 25 24  2  0  0  0  0
 26 25  1  0  0  0  0
 27 26  2  0  0  0  0
 27 28  1  0  0  0  0
 28 29  2  0  0  0  0
 29 24  1  0  0  0  0
 31 26  1  0  0  0  0
 32 33  1  0  0  0  0
 33 34  2  0  0  0  0
 33 40  1  0  0  0  0
 34 41  1  0  0  0  0
 35 36  2  0  0  0  0
 35 34  1  0  0  0  0
 37 35  1  0  0  0  0
 38 37  1  0  0  0  0
 38 32  1  0  0  0  0
 39 38  2  0  0  0  0
 42 37  1  0  0  0  0
M  END
>  <minimizedAffinity>
-5.8811965

>  <minimizedRMSD>
0.261232316

$$$$
