
 OpenBabel03272500073D

 42 45  0  0  1  0  0  0  0  0999 V2000
   31.0930   27.2040   48.2880 C   0  0  0  0  0  0  0  0  0  0  0  0
   30.8690   27.7740   49.5240 C   0  0  0  0  0  0  0  0  0  0  0  0
   29.6070   28.1880   49.8960 C   0  0  0  0  0  0  0  0  0  0  0  0
   28.5520   28.0300   49.0110 C   0  0  0  0  0  0  0  0  0  0  0  0
   28.7900   27.4620   47.7840 C   0  0  0  0  0  0  0  0  0  0  0  0
   30.0380   27.0530   47.4220 C   0  0  0  0  0  0  0  0  0  0  0  0
   31.6650   27.9230   50.2620 H   0  0  0  0  0  0  0  0  0  0  0  0
   29.4560   28.6350   50.8770 H   0  0  0  0  0  0  0  0  0  0  0  0
   27.5830   28.3650   49.3330 H   0  0  0  0  0  0  0  0  0  0  0  0
   27.9300   27.3650   47.1370 H   0  0  0  0  0  0  0  0  0  0  0  0
   30.6750   27.4200   45.0500 C   0  0  2  0  0  3  0  0  0  0  0  0
   30.2520   26.4330   46.1200 C   0  0  1  0  0  3  0  0  0  0  0  0
   31.2360   25.2930   46.0860 C   0  0  0  0  0  3  0  0  0  0  0  0
   30.7150   24.3610   46.4180 H   0  0  0  0  0  0  0  0  0  0  0  0
   31.5770   25.0520   44.7530 O   0  0  0  0  0  0  0  0  0  0  0  0
   30.5620   25.2800   43.8630 C   0  0  0  0  0  3  0  0  0  0  0  0
   30.8990   24.8240   42.8940 H   0  0  0  0  0  0  0  0  0  0  0  0
   30.3440   26.7860   43.7160 C   0  0  2  0  0  3  0  0  0  0  0  0
   32.0560   27.5810   45.1610 O   0  0  0  0  0  0  0  0  0  0  0  0
   32.2960   28.5180   44.9340 H   0  0  0  0  0  0  0  0  0  0  0  0
   31.0680   27.3300   42.6840 O   0  0  0  0  0  0  0  0  0  0  0  0
   30.4360   27.6700   42.0020 H   0  0  0  0  0  0  0  0  0  0  0  0
   32.4170   26.8380   48.0580 O   0  0  0  0  0  0  0  0  0  0  0  0
   35.3070   28.6850   49.1440 C   0  0  0  0  0  0  0  0  0  0  0  0
   35.2290   29.8750   48.4190 C   0  0  0  0  0  0  0  0  0  0  0  0
   34.1410   30.0210   47.5390 C   0  0  0  0  0  0  0  0  0  0  0  0
   33.2450   29.0040   47.4520 N   0  0  0  0  0  0  0  0  0  0  0  0
   33.3470   27.8780   48.1590 C   0  0  0  0  0  0  0  0  0  0  0  0
   34.3920   27.7090   49.0210 N   0  0  0  0  0  0  0  0  0  0  0  0
   36.1200   28.4810   49.8560 H   0  0  0  0  0  0  0  0  0  0  0  0
   34.0760   30.9320   46.9800 H   0  0  0  0  0  0  0  0  0  0  0  0
   36.2310   30.8520   48.6050 N   0  0  0  0  0  0  0  0  0  0  0  0
   36.3700   31.5200   49.7460 C   0  0  0  0  0  0  0  0  0  0  0  0
   37.3750   32.4760   49.8680 C   0  0  0  0  0  0  0  0  0  0  0  0
   38.1590   32.6460   48.7550 C   0  0  0  0  0  0  0  0  0  0  0  0
   39.0700   33.5110   48.8590 O   0  0  0  0  0  0  0  0  0  0  0  0
   38.0490   31.9990   47.6040 N   0  0  0  0  0  0  0  0  0  0  0  0
   37.0540   31.0730   47.5270 C   0  0  0  0  0  0  0  0  0  0  0  0
   36.9360   30.4440   46.4260 O   0  0  0  0  0  0  0  0  0  0  0  0
   35.7250   31.3460   50.5920 H   0  0  0  0  0  0  0  0  0  0  0  0
   37.4940   33.0220   50.7950 H   0  0  0  0  0  0  0  0  0  0  0  0
   38.6740   32.1720   46.7960 H   0  0  0  0  0  0  0  0  0  0  0  0
  1  2  1  0  0  0  0
  2  3  2  0  0  0  0
  2  7  1  0  0  0  0
  3  8  1  0  0  0  0
  4  9  1  0  0  0  0
  4  3  1  0  0  0  0
  5  4  2  0  0  0  0
  6  5  1  0  0  0  0
  6  1  2  0  0  0  0
 10  5  1  0  0  0  0
 11 19  1  6  0  0  0
 11 12  1  0  0  0  0
 12  6  1  1  0  0  0
 13 12  1  0  0  0  0
 13 14  1  0  0  0  0
 15 13  1  0  0  0  0
 16 15  1  0  0  0  0
 17 16  1  0  0  0  0
 18 21  1  6  0  0  0
 18 16  1  0  0  0  0
 18 11  1  0  0  0  0
 20 19  1  0  0  0  0
 22 21  1  0  0  0  0
 23 28  1  0  0  0  0
 23  1  1  0  0  0  0
 24 30  1  0  0  0  0
 25 32  1  0  0  0  0
 25 24  2  0  0  0  0
 26 25  1  0  0  0  0
 27 26  2  0  0  0  0
 27 28  1  0  0  0  0
 28 29  2  0  0  0  0
 29 24  1  0  0  0  0
 31 26  1  0  0  0  0
 32 33  1  0  0  0  0
 33 34  2  0  0  0  0
 33 40  1  0  0  0  0
 34 41  1  0  0  0  0
 35 36  2  0  0  0  0
 35 34  1  0  0  0  0
 37 35  1  0  0  0  0
 38 37  1  0  0  0  0
 38 32  1  0  0  0  0
 39 38  2  0  0  0  0
 42 37  1  0  0  0  0
M  END
>  <minimizedAffinity>
-5.74624395

>  <minimizedRMSD>
1.0783819

$$$$
