
 OpenBabel03272500073D

 42 45  0  0  1  0  0  0  0  0999 V2000
   31.0400   27.3710   48.3430 C   0  0  0  0  0  0  0  0  0  0  0  0
   30.7530   27.7880   49.6270 C   0  0  0  0  0  0  0  0  0  0  0  0
   29.4900   28.2320   49.9630 C   0  0  0  0  0  0  0  0  0  0  0  0
   28.5000   28.2610   48.9930 C   0  0  0  0  0  0  0  0  0  0  0  0
   28.8010   27.8430   47.7210 C   0  0  0  0  0  0  0  0  0  0  0  0
   30.0480   27.4040   47.3940 C   0  0  0  0  0  0  0  0  0  0  0  0
   31.4960   27.7870   50.4310 H   0  0  0  0  0  0  0  0  0  0  0  0
   29.2890   28.5550   50.9820 H   0  0  0  0  0  0  0  0  0  0  0  0
   27.5290   28.6130   49.2900 H   0  0  0  0  0  0  0  0  0  0  0  0
   27.9890   27.8880   47.0080 H   0  0  0  0  0  0  0  0  0  0  0  0
   30.2140   25.4430   45.8800 C   0  0  2  0  0  3  0  0  0  0  0  0
   30.3270   26.9470   46.0380 C   0  0  1  0  0  3  0  0  0  0  0  0
   29.4970   27.5720   44.9490 C   0  0  0  0  0  3  0  0  0  0  0  0
   29.9440   28.5610   44.6810 H   0  0  0  0  0  0  0  0  0  0  0  0
   29.6370   26.7970   43.7940 O   0  0  0  0  0  0  0  0  0  0  0  0
   30.8720   26.2220   43.6520 C   0  0  0  0  0  3  0  0  0  0  0  0
   30.9130   25.8450   42.5950 H   0  0  0  0  0  0  0  0  0  0  0  0
   31.0170   25.0730   44.6490 C   0  0  2  0  0  3  0  0  0  0  0  0
   28.8680   25.1520   45.6630 O   0  0  0  0  0  0  0  0  0  0  0  0
   28.6490   24.2790   46.0850 H   0  0  0  0  0  0  0  0  0  0  0  0
   30.6410   23.8620   44.1260 O   0  0  0  0  0  0  0  0  0  0  0  0
   31.4380   23.2750   44.0870 H   0  0  0  0  0  0  0  0  0  0  0  0
   32.3550   26.9530   48.1590 O   0  0  0  0  0  0  0  0  0  0  0  0
   35.3140   28.7450   49.1450 C   0  0  0  0  0  0  0  0  0  0  0  0
   35.2560   29.9170   48.3900 C   0  0  0  0  0  0  0  0  0  0  0  0
   34.1570   30.0710   47.5240 C   0  0  0  0  0  0  0  0  0  0  0  0
   33.2320   29.0780   47.4810 N   0  0  0  0  0  0  0  0  0  0  0  0
   33.3150   27.9690   48.2150 C   0  0  0  0  0  0  0  0  0  0  0  0
   34.3700   27.7920   49.0640 N   0  0  0  0  0  0  0  0  0  0  0  0
   36.1340   28.5370   49.8490 H   0  0  0  0  0  0  0  0  0  0  0  0
   34.1080   30.9690   46.9430 H   0  0  0  0  0  0  0  0  0  0  0  0
   36.2890   30.8700   48.5320 N   0  0  0  0  0  0  0  0  0  0  0  0
   36.4950   31.5310   49.6670 C   0  0  0  0  0  0  0  0  0  0  0  0
   37.5270   32.4620   49.7460 C   0  0  0  0  0  0  0  0  0  0  0  0
   38.2630   32.6180   48.5980 C   0  0  0  0  0  0  0  0  0  0  0  0
   39.1980   33.4610   48.6630 O   0  0  0  0  0  0  0  0  0  0  0  0
   38.0850   31.9770   47.4520 N   0  0  0  0  0  0  0  0  0  0  0  0
   37.0660   31.0760   47.4180 C   0  0  0  0  0  0  0  0  0  0  0  0
   36.8840   30.4530   46.3230 O   0  0  0  0  0  0  0  0  0  0  0  0
   35.8850   31.3690   50.5410 H   0  0  0  0  0  0  0  0  0  0  0  0
   37.7000   33.0030   50.6670 H   0  0  0  0  0  0  0  0  0  0  0  0
   38.6770   32.1390   46.6170 H   0  0  0  0  0  0  0  0  0  0  0  0
  1  2  1  0  0  0  0
  2  3  2  0  0  0  0
  2  7  1  0  0  0  0
  3  8  1  0  0  0  0
  4  9  1  0  0  0  0
  4  3  1  0  0  0  0
  5  4  2  0  0  0  0
  6  5  1  0  0  0  0
  6  1  2  0  0  0  0
 10  5  1  0  0  0  0
 11 19  1  6  0  0  0
 11 12  1  0  0  0  0
 12  6  1  1  0  0  0
 13 12  1  0  0  0  0
 14 13  1  0  0  0  0
 15 13  1  0  0  0  0
 16 15  1  0  0  0  0
 16 18  1  0  0  0  0
 17 16  1  0  0  0  0
 18 21  1  6  0  0  0
 18 11  1  0  0  0  0
 19 20  1  0  0  0  0
 22 21  1  0  0  0  0
 23 28  1  0  0  0  0
 23  1  1  0  0  0  0
 24 30  1  0  0  0  0
 25 32  1  0  0  0  0
 25 24  2  0  0  0  0
 26 25  1  0  0  0  0
 27 26  2  0  0  0  0
 27 28  1  0  0  0  0
 28 29  2  0  0  0  0
 29 24  1  0  0  0  0
 31 26  1  0  0  0  0
 32 33  1  0  0  0  0
 33 34  2  0  0  0  0
 33 40  1  0  0  0  0
 34 41  1  0  0  0  0
 35 36  2  0  0  0  0
 35 34  1  0  0  0  0
 37 35  1  0  0  0  0
 38 37  1  0  0  0  0
 38 32  1  0  0  0  0
 39 38  2  0  0  0  0
 42 37  1  0  0  0  0
M  END
>  <minimizedAffinity>
-5.89894962

>  <minimizedRMSD>
1.61054027

$$$$
