
 OpenBabel03272502303D

 27 28  0  0  1  0  0  0  0  0999 V2000
   39.4580   32.6690   46.6950 C   0  0  0  0  0  0  0  0  0  0  0  0
   40.3970   32.0680   46.5990 H   0  0  0  0  0  0  0  0  0  0  0  0
   39.6550   33.7450   46.8270 H   0  0  0  0  0  0  0  0  0  0  0  0
   38.1630   30.9390   47.8740 C   0  0  0  0  0  3  0  0  0  0  0  0
   38.7790   32.1130   47.8960 C   0  0  0  0  0  3  0  0  0  0  0  0
   37.3300   30.2060   51.4150 C   0  0  0  0  0  0  0  0  0  0  0  0
   37.9780   30.7370   50.2880 C   0  0  0  0  0  0  0  0  0  0  0  0
   37.5130   30.4070   49.0330 C   0  0  0  0  0  0  0  0  0  0  0  0
   36.4420   29.5780   48.9130 N   0  0  0  0  0  0  0  0  0  0  0  0
   35.8390   29.0820   50.0090 C   0  0  0  0  0  0  0  0  0  0  0  0
   36.2690   29.3850   51.2560 N   0  0  0  0  0  0  0  0  0  0  0  0
   37.6470   30.4260   52.4200 H   0  0  0  0  0  0  0  0  0  0  0  0
   38.8230   31.3880   50.4560 H   0  0  0  0  0  0  0  0  0  0  0  0
   34.9900   28.4290   49.8250 H   0  0  0  0  0  0  0  0  0  0  0  0
   38.4530   32.3350   45.2160 S   0  0  0  0  0  0  0  0  0  0  0  0
   38.5160   30.0890   43.6100 C   0  0  2  0  0  3  0  0  0  0  0  0
   39.3720   31.2240   44.1390 C   0  0  1  0  0  3  0  0  0  0  0  0
   39.8750   31.9610   42.9070 C   0  0  0  0  0  3  0  0  0  0  0  0
   38.9550   32.4450   42.4660 H   0  0  0  0  0  0  0  0  0  0  0  0
   40.3620   31.1020   41.9470 O   0  0  0  0  0  0  0  0  0  0  0  0
   40.6910   29.8510   42.4270 C   0  0  0  0  0  3  0  0  0  0  0  0
   41.0160   29.2530   41.5280 H   0  0  0  0  0  0  0  0  0  0  0  0
   39.5110   29.0940   43.0100 C   0  0  2  0  0  3  0  0  0  0  0  0
   37.7490   30.5690   42.5390 O   0  0  0  0  0  0  0  0  0  0  0  0
   36.8030   30.2780   42.6400 H   0  0  0  0  0  0  0  0  0  0  0  0
   38.8690   28.3000   42.0610 O   0  0  0  0  0  0  0  0  0  0  0  0
   39.0680   28.6050   41.1410 H   0  0  0  0  0  0  0  0  0  0  0  0
  1  3  1  0  0  0  0
  1  5  1  0  0  0  0
  2  1  1  0  0  0  0
  4  5  2  0  0  0  0
  4  8  1  0  0  0  0
  6 12  1  0  0  0  0
  7 13  1  0  0  0  0
  7  6  2  0  0  0  0
  8  7  1  0  0  0  0
  9  8  2  0  0  0  0
  9 10  1  0  0  0  0
 10 11  2  0  0  0  0
 11  6  1  0  0  0  0
 14 10  1  0  0  0  0
 15  1  1  0  0  0  0
 16 24  1  6  0  0  0
 16 17  1  0  0  0  0
 17 15  1  1  0  0  0
 18 17  1  0  0  0  0
 19 18  1  0  0  0  0
 20 21  1  0  0  0  0
 20 18  1  0  0  0  0
 21 23  1  0  0  0  0
 22 21  1  0  0  0  0
 23 26  1  6  0  0  0
 23 16  1  0  0  0  0
 24 25  1  0  0  0  0
 27 26  1  0  0  0  0
M  END
>  <minimizedAffinity>
-5.11216164

>  <minimizedRMSD>
2.83710074

$$$$
