
 OpenBabel03272500073D

 42 45  0  0  1  0  0  0  0  0999 V2000
   31.1320   27.4990   48.2810 C   0  0  0  0  0  0  0  0  0  0  0  0
   30.7900   27.7690   49.5900 C   0  0  0  0  0  0  0  0  0  0  0  0
   29.5200   28.1970   49.9180 C   0  0  0  0  0  0  0  0  0  0  0  0
   28.5780   28.3600   48.9140 C   0  0  0  0  0  0  0  0  0  0  0  0
   28.9330   28.0890   47.6160 C   0  0  0  0  0  0  0  0  0  0  0  0
   30.1870   27.6650   47.2980 C   0  0  0  0  0  0  0  0  0  0  0  0
   31.4940   27.6580   50.4220 H   0  0  0  0  0  0  0  0  0  0  0  0
   29.2750   28.4030   50.9580 H   0  0  0  0  0  0  0  0  0  0  0  0
   27.6000   28.6960   49.2050 H   0  0  0  0  0  0  0  0  0  0  0  0
   28.1570   28.2340   46.8780 H   0  0  0  0  0  0  0  0  0  0  0  0
   30.3750   25.8950   45.5650 C   0  0  2  0  0  3  0  0  0  0  0  0
   30.5240   27.3640   45.9110 C   0  0  1  0  0  3  0  0  0  0  0  0
   29.7710   28.1450   44.8670 C   0  0  0  0  0  3  0  0  0  0  0  0
   30.2620   29.1420   44.7440 H   0  0  0  0  0  0  0  0  0  0  0  0
   29.9500   27.5100   43.6350 O   0  0  0  0  0  0  0  0  0  0  0  0
   31.1730   26.9120   43.4830 C   0  0  0  0  0  3  0  0  0  0  0  0
   31.2580   26.6640   42.3920 H   0  0  0  0  0  0  0  0  0  0  0  0
   31.2300   25.6470   44.3400 C   0  0  2  0  0  3  0  0  0  0  0  0
   29.0340   25.6810   45.2490 O   0  0  0  0  0  0  0  0  0  0  0  0
   28.7680   24.7730   45.5510 H   0  0  0  0  0  0  0  0  0  0  0  0
   30.8470   24.5220   43.6540 O   0  0  0  0  0  0  0  0  0  0  0  0
   31.6260   23.9150   43.5840 H   0  0  0  0  0  0  0  0  0  0  0  0
   32.4470   27.0780   48.1080 O   0  0  0  0  0  0  0  0  0  0  0  0
   35.4110   28.8530   49.1130 C   0  0  0  0  0  0  0  0  0  0  0  0
   35.3550   30.0340   48.3710 C   0  0  0  0  0  0  0  0  0  0  0  0
   34.2560   30.2000   47.5090 C   0  0  0  0  0  0  0  0  0  0  0  0
   33.3280   29.2090   47.4540 N   0  0  0  0  0  0  0  0  0  0  0  0
   33.4100   28.0910   48.1760 C   0  0  0  0  0  0  0  0  0  0  0  0
   34.4650   27.9030   49.0210 N   0  0  0  0  0  0  0  0  0  0  0  0
   36.2320   28.6350   49.8130 H   0  0  0  0  0  0  0  0  0  0  0  0
   34.2070   31.1040   46.9380 H   0  0  0  0  0  0  0  0  0  0  0  0
   36.3900   30.9830   48.5230 N   0  0  0  0  0  0  0  0  0  0  0  0
   36.5700   31.6640   49.6510 C   0  0  0  0  0  0  0  0  0  0  0  0
   37.6050   32.5900   49.7400 C   0  0  0  0  0  0  0  0  0  0  0  0
   38.3730   32.7190   48.6100 C   0  0  0  0  0  0  0  0  0  0  0  0
   39.3110   33.5580   48.6840 O   0  0  0  0  0  0  0  0  0  0  0  0
   38.2220   32.0580   47.4710 N   0  0  0  0  0  0  0  0  0  0  0  0
   37.1990   31.1620   47.4270 C   0  0  0  0  0  0  0  0  0  0  0  0
   37.0420   30.5200   46.3390 O   0  0  0  0  0  0  0  0  0  0  0  0
   35.9350   31.5230   50.5110 H   0  0  0  0  0  0  0  0  0  0  0  0
   37.7570   33.1470   50.6550 H   0  0  0  0  0  0  0  0  0  0  0  0
   38.8380   32.2000   46.6500 H   0  0  0  0  0  0  0  0  0  0  0  0
  1  2  1  0  0  0  0
  2  3  2  0  0  0  0
  2  7  1  0  0  0  0
  3  8  1  0  0  0  0
  4  9  1  0  0  0  0
  4  3  1  0  0  0  0
  5  4  2  0  0  0  0
  6  5  1  0  0  0  0
  6  1  2  0  0  0  0
 10  5  1  0  0  0  0
 11 19  1  6  0  0  0
 11 12  1  0  0  0  0
 12  6  1  1  0  0  0
 13 12  1  0  0  0  0
 14 13  1  0  0  0  0
 15 13  1  0  0  0  0
 16 15  1  0  0  0  0
 16 18  1  0  0  0  0
 17 16  1  0  0  0  0
 18 21  1  6  0  0  0
 18 11  1  0  0  0  0
 19 20  1  0  0  0  0
 22 21  1  0  0  0  0
 23 28  1  0  0  0  0
 23  1  1  0  0  0  0
 24 30  1  0  0  0  0
 25 32  1  0  0  0  0
 25 24  2  0  0  0  0
 26 25  1  0  0  0  0
 27 26  2  0  0  0  0
 27 28  1  0  0  0  0
 28 29  2  0  0  0  0
 29 24  1  0  0  0  0
 31 26  1  0  0  0  0
 32 33  1  0  0  0  0
 33 34  2  0  0  0  0
 33 40  1  0  0  0  0
 34 41  1  0  0  0  0
 35 36  2  0  0  0  0
 35 34  1  0  0  0  0
 37 35  1  0  0  0  0
 38 37  1  0  0  0  0
 38 32  1  0  0  0  0
 39 38  2  0  0  0  0
 42 37  1  0  0  0  0
M  END
>  <minimizedAffinity>
-5.88293266

>  <minimizedRMSD>
0.836783707

$$$$
