
 OpenBabel03272500093D

 42 45  0  0  1  0  0  0  0  0999 V2000
   36.8360   22.0080   31.9200 C   0  0  0  0  0  0  0  0  0  0  0  0
   35.8440   21.2970   31.2770 C   0  0  0  0  0  0  0  0  0  0  0  0
   35.0640   20.3870   31.9630 C   0  0  0  0  0  0  0  0  0  0  0  0
   35.2870   20.1870   33.3170 C   0  0  0  0  0  0  0  0  0  0  0  0
   36.2780   20.9020   33.9420 C   0  0  0  0  0  0  0  0  0  0  0  0
   37.0440   21.7990   33.2610 C   0  0  0  0  0  0  0  0  0  0  0  0
   35.6250   21.4150   30.2110 H   0  0  0  0  0  0  0  0  0  0  0  0
   34.2880   19.8390   31.4340 H   0  0  0  0  0  0  0  0  0  0  0  0
   34.6630   19.4710   33.8190 H   0  0  0  0  0  0  0  0  0  0  0  0
   36.4050   20.7030   34.9970 H   0  0  0  0  0  0  0  0  0  0  0  0
   37.7420   22.8080   35.4200 C   0  0  2  0  0  3  0  0  0  0  0  0
   38.0740   22.5580   33.9610 C   0  0  1  0  0  3  0  0  0  0  0  0
   39.4630   21.9800   33.9140 C   0  0  0  0  0  3  0  0  0  0  0  0
   39.9400   22.2740   32.9460 H   0  0  0  0  0  0  0  0  0  0  0  0
   40.2330   22.6160   34.8930 O   0  0  0  0  0  0  0  0  0  0  0  0
   39.9010   23.9260   35.1060 C   0  0  0  0  0  3  0  0  0  0  0  0
   40.7350   24.3560   35.7210 H   0  0  0  0  0  0  0  0  0  0  0  0
   38.5700   23.9990   35.8560 C   0  0  2  0  0  3  0  0  0  0  0  0
   38.1410   21.6770   36.1320 O   0  0  0  0  0  0  0  0  0  0  0  0
   37.5110   21.5270   36.8860 H   0  0  0  0  0  0  0  0  0  0  0  0
   38.7310   24.0530   37.2190 O   0  0  0  0  0  0  0  0  0  0  0  0
   38.3940   24.9280   37.5400 H   0  0  0  0  0  0  0  0  0  0  0  0
   37.5360   22.8850   31.0960 O   0  0  0  0  0  0  0  0  0  0  0  0
   37.6760   26.4510   31.5450 C   0  0  0  0  0  0  0  0  0  0  0  0
   36.3710   26.8680   31.2790 C   0  0  0  0  0  0  0  0  0  0  0  0
   35.4350   25.8740   30.9370 C   0  0  0  0  0  0  0  0  0  0  0  0
   35.8590   24.5840   30.8900 N   0  0  0  0  0  0  0  0  0  0  0  0
   37.1140   24.2170   31.1500 C   0  0  0  0  0  0  0  0  0  0  0  0
   38.0430   25.1600   31.4840 N   0  0  0  0  0  0  0  0  0  0  0  0
   38.4750   27.1560   31.8210 H   0  0  0  0  0  0  0  0  0  0  0  0
   34.4330   26.1880   30.7320 H   0  0  0  0  0  0  0  0  0  0  0  0
   36.0650   28.2440   31.3640 N   0  0  0  0  0  0  0  0  0  0  0  0
   35.4490   28.7720   32.4170 C   0  0  0  0  0  0  0  0  0  0  0  0
   35.1700   30.1360   32.4420 C   0  0  0  0  0  0  0  0  0  0  0  0
   35.5730   30.8350   31.3320 C   0  0  0  0  0  0  0  0  0  0  0  0
   35.3210   32.0710   31.3480 O   0  0  0  0  0  0  0  0  0  0  0  0
   36.1880   30.3420   30.2670 N   0  0  0  0  0  0  0  0  0  0  0  0
   36.4410   29.0050   30.2840 C   0  0  0  0  0  0  0  0  0  0  0  0
   37.0320   28.5180   29.2660 O   0  0  0  0  0  0  0  0  0  0  0  0
   35.1540   28.1750   33.2650 H   0  0  0  0  0  0  0  0  0  0  0  0
   34.6700   30.5710   33.2970 H   0  0  0  0  0  0  0  0  0  0  0  0
   36.4680   30.9250   29.4570 H   0  0  0  0  0  0  0  0  0  0  0  0
  1  6  1  0  0  0  0
  2  1  2  0  0  0  0
  2  3  1  0  0  0  0
  3  4  2  0  0  0  0
  4  9  1  0  0  0  0
  4  5  1  0  0  0  0
  5 10  1  0  0  0  0
  6  5  2  0  0  0  0
  7  2  1  0  0  0  0
  8  3  1  0  0  0  0
 11 18  1  0  0  0  0
 11 19  1  1  0  0  0
 12  6  1  1  0  0  0
 12 11  1  0  0  0  0
 13 12  1  0  0  0  0
 13 15  1  0  0  0  0
 14 13  1  0  0  0  0
 15 16  1  0  0  0  0
 16 17  1  0  0  0  0
 16 18  1  0  0  0  0
 18 21  1  1  0  0  0
 19 20  1  0  0  0  0
 21 22  1  0  0  0  0
 23 28  1  0  0  0  0
 23  1  1  0  0  0  0
 24 30  1  0  0  0  0
 25 32  1  0  0  0  0
 25 24  2  0  0  0  0
 26 25  1  0  0  0  0
 27 26  2  0  0  0  0
 27 28  1  0  0  0  0
 28 29  2  0  0  0  0
 29 24  1  0  0  0  0
 31 26  1  0  0  0  0
 32 33  1  0  0  0  0
 33 34  2  0  0  0  0
 33 40  1  0  0  0  0
 34 41  1  0  0  0  0
 35 36  2  0  0  0  0
 35 34  1  0  0  0  0
 37 38  1  0  0  0  0
 37 35  1  0  0  0  0
 38 32  1  0  0  0  0
 39 38  2  0  0  0  0
 42 37  1  0  0  0  0
M  END
>  <minimizedAffinity>
-6.42731762

$$$$

 OpenBabel03272500093D

 42 45  0  0  1  0  0  0  0  0999 V2000
   37.4970   24.1490   32.4530 C   0  0  0  0  0  0  0  0  0  0  0  0
   36.5520   24.1180   31.4490 C   0  0  0  0  0  0  0  0  0  0  0  0
   35.7310   23.0220   31.2800 C   0  0  0  0  0  0  0  0  0  0  0  0
   35.8640   21.9370   32.1320 C   0  0  0  0  0  0  0  0  0  0  0  0
   36.8090   21.9810   33.1270 C   0  0  0  0  0  0  0  0  0  0  0  0
   37.6160   23.0660   33.2900 C   0  0  0  0  0  0  0  0  0  0  0  0
   36.4050   24.9460   30.7470 H   0  0  0  0  0  0  0  0  0  0  0  0
   34.9930   23.0220   30.4800 H   0  0  0  0  0  0  0  0  0  0  0  0
   35.2090   21.1000   31.9710 H   0  0  0  0  0  0  0  0  0  0  0  0
   36.8660   21.1070   33.7590 H   0  0  0  0  0  0  0  0  0  0  0  0
   37.9720   22.9300   35.7430 C   0  0  2  0  0  3  0  0  0  0  0  0
   38.5950   23.0900   34.3710 C   0  0  1  0  0  3  0  0  0  0  0  0
   39.7110   22.0850   34.2700 C   0  0  0  0  0  3  0  0  0  0  0  0
   40.4960   22.4900   33.5830 H   0  0  0  0  0  0  0  0  0  0  0  0
   40.3400   22.0050   35.5150 O   0  0  0  0  0  0  0  0  0  0  0  0
   40.3640   23.1840   36.2080 C   0  0  0  0  0  3  0  0  0  0  0  0
   41.0900   23.0280   37.0510 H   0  0  0  0  0  0  0  0  0  0  0  0
   38.9640   23.4920   36.7400 C   0  0  2  0  0  3  0  0  0  0  0  0
   37.8120   21.5620   35.9660 O   0  0  0  0  0  0  0  0  0  0  0  0
   36.9870   21.4120   36.4990 H   0  0  0  0  0  0  0  0  0  0  0  0
   38.7600   23.0100   38.0100 O   0  0  0  0  0  0  0  0  0  0  0  0
   38.6230   23.7790   38.6190 H   0  0  0  0  0  0  0  0  0  0  0  0
   38.2490   25.3200   32.4960 O   0  0  0  0  0  0  0  0  0  0  0  0
   36.5560   27.5580   34.7470 C   0  0  0  0  0  0  0  0  0  0  0  0
   36.2110   28.6400   33.9370 C   0  0  0  0  0  0  0  0  0  0  0  0
   36.5830   28.5740   32.5820 C   0  0  0  0  0  0  0  0  0  0  0  0
   37.2470   27.4700   32.1530 N   0  0  0  0  0  0  0  0  0  0  0  0
   37.5630   26.4500   32.9520 C   0  0  0  0  0  0  0  0  0  0  0  0
   37.2150   26.4870   34.2710 N   0  0  0  0  0  0  0  0  0  0  0  0
   36.3070   27.5200   35.8180 H   0  0  0  0  0  0  0  0  0  0  0  0
   36.3210   29.4020   31.9560 H   0  0  0  0  0  0  0  0  0  0  0  0
   35.5190   29.7280   34.5140 N   0  0  0  0  0  0  0  0  0  0  0  0
   36.0850   30.5400   35.4020 C   0  0  0  0  0  0  0  0  0  0  0  0
   35.3500   31.5940   35.9390 C   0  0  0  0  0  0  0  0  0  0  0  0
   34.0600   31.7000   35.4830 C   0  0  0  0  0  0  0  0  0  0  0  0
   33.3900   32.6520   35.9680 O   0  0  0  0  0  0  0  0  0  0  0  0
   33.4660   30.9100   34.6000 N   0  0  0  0  0  0  0  0  0  0  0  0
   34.2190   29.8930   34.1010 C   0  0  0  0  0  0  0  0  0  0  0  0
   33.6610   29.1260   33.2520 O   0  0  0  0  0  0  0  0  0  0  0  0
   37.1040   30.4110   35.7260 H   0  0  0  0  0  0  0  0  0  0  0  0
   35.8050   32.2590   36.6620 H   0  0  0  0  0  0  0  0  0  0  0  0
   32.4840   31.0430   34.2950 H   0  0  0  0  0  0  0  0  0  0  0  0
  1 23  1  0  0  0  0
  1  6  1  0  0  0  0
  2  1  2  0  0  0  0
  3  2  1  0  0  0  0
  3  4  2  0  0  0  0
  4  5  1  0  0  0  0
  5  6  2  0  0  0  0
  5 10  1  0  0  0  0
  7  2  1  0  0  0  0
  8  3  1  0  0  0  0
  9  4  1  0  0  0  0
 11 19  1  1  0  0  0
 11 18  1  0  0  0  0
 12  6  1  6  0  0  0
 12 11  1  0  0  0  0
 13 12  1  0  0  0  0
 13 15  1  0  0  0  0
 14 13  1  0  0  0  0
 15 16  1  0  0  0  0
 16 18  1  0  0  0  0
 16 17  1  0  0  0  0
 18 21  1  1  0  0  0
 19 20  1  0  0  0  0
 21 22  1  0  0  0  0
 23 28  1  0  0  0  0
 24 30  1  0  0  0  0
 25 32  1  0  0  0  0
 25 24  2  0  0  0  0
 26 25  1  0  0  0  0
 27 26  2  0  0  0  0
 27 28  1  0  0  0  0
 28 29  2  0  0  0  0
 29 24  1  0  0  0  0
 31 26  1  0  0  0  0
 32 33  1  0  0  0  0
 33 40  1  0  0  0  0
 33 34  2  0  0  0  0
 34 41  1  0  0  0  0
 35 34  1  0  0  0  0
 35 36  2  0  0  0  0
 37 35  1  0  0  0  0
 38 32  1  0  0  0  0
 38 37  1  0  0  0  0
 39 38  2  0  0  0  0
 42 37  1  0  0  0  0
M  END
>  <minimizedAffinity>
-6.33817196

$$$$

 OpenBabel03272500093D

 42 45  0  0  1  0  0  0  0  0999 V2000
   39.5920   26.9130   34.0080 C   0  0  0  0  0  0  0  0  0  0  0  0
   39.2220   27.0550   35.3300 C   0  0  0  0  0  0  0  0  0  0  0  0
   37.9350   27.4160   35.6720 C   0  0  0  0  0  0  0  0  0  0  0  0
   37.0050   27.6410   34.6700 C   0  0  0  0  0  0  0  0  0  0  0  0
   37.3870   27.4970   33.3590 C   0  0  0  0  0  0  0  0  0  0  0  0
   38.6590   27.1390   33.0270 C   0  0  0  0  0  0  0  0  0  0  0  0
   39.9160   26.8890   36.1610 H   0  0  0  0  0  0  0  0  0  0  0  0
   37.6690   27.5210   36.7210 H   0  0  0  0  0  0  0  0  0  0  0  0
   36.0130   27.9220   34.9720 H   0  0  0  0  0  0  0  0  0  0  0  0
   36.6190   27.6860   32.6230 H   0  0  0  0  0  0  0  0  0  0  0  0
   38.6070   25.6330   31.0540 C   0  0  2  0  0  3  0  0  0  0  0  0
   39.0260   26.9730   31.6250 C   0  0  1  0  0  3  0  0  0  0  0  0
   38.5230   28.0340   30.6830 C   0  0  0  0  0  3  0  0  0  0  0  0
   39.2130   28.9130   30.7340 H   0  0  0  0  0  0  0  0  0  0  0  0
   38.6580   27.5570   29.3770 O   0  0  0  0  0  0  0  0  0  0  0  0
   39.7400   26.7420   29.1850 C   0  0  0  0  0  3  0  0  0  0  0  0
   39.8510   26.6380   28.0730 H   0  0  0  0  0  0  0  0  0  0  0  0
   39.4790   25.3850   29.8410 C   0  0  2  0  0  3  0  0  0  0  0  0
   37.2760   25.7540   30.6540 O   0  0  0  0  0  0  0  0  0  0  0  0
   36.8100   24.8880   30.8020 H   0  0  0  0  0  0  0  0  0  0  0  0
   38.9250   24.4740   28.9750 O   0  0  0  0  0  0  0  0  0  0  0  0
   39.5680   23.7330   28.8450 H   0  0  0  0  0  0  0  0  0  0  0  0
   40.9220   26.5460   33.8230 O   0  0  0  0  0  0  0  0  0  0  0  0
   42.7170   23.9550   35.5570 C   0  0  0  0  0  0  0  0  0  0  0  0
   41.9930   22.7990   35.2620 C   0  0  0  0  0  0  0  0  0  0  0  0
   40.8590   22.9420   34.4410 C   0  0  0  0  0  0  0  0  0  0  0  0
   40.5460   24.1850   33.9920 N   0  0  0  0  0  0  0  0  0  0  0  0
   41.2580   25.2710   34.2910 C   0  0  0  0  0  0  0  0  0  0  0  0
   42.3630   25.1620   35.0860 N   0  0  0  0  0  0  0  0  0  0  0  0
   43.6170   23.9410   36.1900 H   0  0  0  0  0  0  0  0  0  0  0  0
   40.3000   22.0580   34.2110 H   0  0  0  0  0  0  0  0  0  0  0  0
   42.4300   21.5670   35.7970 N   0  0  0  0  0  0  0  0  0  0  0  0
   43.2850   20.7770   35.1550 C   0  0  0  0  0  0  0  0  0  0  0  0
   43.6760   19.5710   35.7310 C   0  0  0  0  0  0  0  0  0  0  0  0
   43.1200   19.3000   36.9560 C   0  0  0  0  0  0  0  0  0  0  0  0
   43.4690   18.2090   37.4820 O   0  0  0  0  0  0  0  0  0  0  0  0
   42.2670   20.0640   37.6230 N   0  0  0  0  0  0  0  0  0  0  0  0
   41.9110   21.2330   37.0240 C   0  0  0  0  0  0  0  0  0  0  0  0
   41.0920   21.9770   37.6540 O   0  0  0  0  0  0  0  0  0  0  0  0
   43.6920   21.0380   34.1920 H   0  0  0  0  0  0  0  0  0  0  0  0
   44.3720   18.9240   35.2140 H   0  0  0  0  0  0  0  0  0  0  0  0
   41.8810   19.8040   38.5490 H   0  0  0  0  0  0  0  0  0  0  0  0
  1  2  1  0  0  0  0
  2  3  2  0  0  0  0
  2  7  1  0  0  0  0
  3  8  1  0  0  0  0
  4  9  1  0  0  0  0
  4  3  1  0  0  0  0
  5  4  2  0  0  0  0
  6  5  1  0  0  0  0
  6  1  2  0  0  0  0
 10  5  1  0  0  0  0
 11 19  1  6  0  0  0
 11 12  1  0  0  0  0
 12  6  1  1  0  0  0
 13 14  1  0  0  0  0
 13 12  1  0  0  0  0
 15 13  1  0  0  0  0
 16 15  1  0  0  0  0
 16 18  1  0  0  0  0
 17 16  1  0  0  0  0
 18 21  1  6  0  0  0
 18 11  1  0  0  0  0
 19 20  1  0  0  0  0
 22 21  1  0  0  0  0
 23  1  1  0  0  0  0
 23 28  1  0  0  0  0
 24 30  1  0  0  0  0
 25 24  1  0  0  0  0
 25 32  1  0  0  0  0
 26 25  2  0  0  0  0
 27 28  2  0  0  0  0
 27 26  1  0  0  0  0
 28 29  1  0  0  0  0
 29 24  2  0  0  0  0
 31 26  1  0  0  0  0
 32 38  1  0  0  0  0
 33 34  2  0  0  0  0
 33 32  1  0  0  0  0
 34 35  1  0  0  0  0
 35 36  2  0  0  0  0
 35 37  1  0  0  0  0
 37 42  1  0  0  0  0
 38 37  1  0  0  0  0
 38 39  2  0  0  0  0
 40 33  1  0  0  0  0
 41 34  1  0  0  0  0
M  END
>  <minimizedAffinity>
-6.21486378

$$$$

 OpenBabel03272500093D

 42 45  0  0  1  0  0  0  0  0999 V2000
   37.0930   22.3660   32.0580 C   0  0  0  0  0  0  0  0  0  0  0  0
   36.1110   21.7530   31.3070 C   0  0  0  0  0  0  0  0  0  0  0  0
   35.2620   20.8230   31.8710 C   0  0  0  0  0  0  0  0  0  0  0  0
   35.4040   20.5010   33.2130 C   0  0  0  0  0  0  0  0  0  0  0  0
   36.3850   21.1190   33.9470 C   0  0  0  0  0  0  0  0  0  0  0  0
   37.2200   22.0370   33.3850 C   0  0  0  0  0  0  0  0  0  0  0  0
   35.9550   21.9690   30.2440 H   0  0  0  0  0  0  0  0  0  0  0  0
   34.4960   20.3540   31.2580 H   0  0  0  0  0  0  0  0  0  0  0  0
   34.7270   19.7720   33.6190 H   0  0  0  0  0  0  0  0  0  0  0  0
   36.4470   20.8270   34.9860 H   0  0  0  0  0  0  0  0  0  0  0  0
   37.8270   22.8510   35.6510 C   0  0  2  0  0  3  0  0  0  0  0  0
   38.2370   22.6910   34.2000 C   0  0  1  0  0  3  0  0  0  0  0  0
   39.5990   22.0490   34.1920 C   0  0  0  0  0  3  0  0  0  0  0  0
   40.1480   22.3880   33.2780 H   0  0  0  0  0  0  0  0  0  0  0  0
   40.3340   22.5730   35.2580 O   0  0  0  0  0  0  0  0  0  0  0  0
   40.0500   23.8790   35.5490 C   0  0  0  0  0  3  0  0  0  0  0  0
   40.8630   24.2210   36.2430 H   0  0  0  0  0  0  0  0  0  0  0  0
   38.6800   23.9650   36.2230 C   0  0  2  0  0  3  0  0  0  0  0  0
   38.1290   21.6540   36.2980 O   0  0  0  0  0  0  0  0  0  0  0  0
   37.4470   21.4810   37.0010 H   0  0  0  0  0  0  0  0  0  0  0  0
   38.7570   23.9130   37.5930 O   0  0  0  0  0  0  0  0  0  0  0  0
   38.4420   24.7770   37.9590 H   0  0  0  0  0  0  0  0  0  0  0  0
   37.8690   23.2790   31.3490 O   0  0  0  0  0  0  0  0  0  0  0  0
   35.9220   26.3030   31.4060 C   0  0  0  0  0  0  0  0  0  0  0  0
   36.8050   27.2530   31.9210 C   0  0  0  0  0  0  0  0  0  0  0  0
   38.1010   26.8150   32.2510 C   0  0  0  0  0  0  0  0  0  0  0  0
   38.4060   25.5080   32.0470 N   0  0  0  0  0  0  0  0  0  0  0  0
   37.5410   24.6230   31.5520 C   0  0  0  0  0  0  0  0  0  0  0  0
   36.2760   25.0200   31.2230 N   0  0  0  0  0  0  0  0  0  0  0  0
   34.8890   26.5520   31.1190 H   0  0  0  0  0  0  0  0  0  0  0  0
   38.7820   27.5400   32.6470 H   0  0  0  0  0  0  0  0  0  0  0  0
   36.3560   28.5830   32.0840 N   0  0  0  0  0  0  0  0  0  0  0  0
   36.2790   29.4360   31.0670 C   0  0  0  0  0  0  0  0  0  0  0  0
   35.8330   30.7360   31.2900 C   0  0  0  0  0  0  0  0  0  0  0  0
   35.5000   31.0260   32.5900 C   0  0  0  0  0  0  0  0  0  0  0  0
   35.0970   32.2020   32.7970 O   0  0  0  0  0  0  0  0  0  0  0  0
   35.5640   30.2010   33.6250 N   0  0  0  0  0  0  0  0  0  0  0  0
   36.0060   28.9400   33.3630 C   0  0  0  0  0  0  0  0  0  0  0  0
   36.0720   28.1380   34.3490 O   0  0  0  0  0  0  0  0  0  0  0  0
   36.5530   29.1550   30.0640 H   0  0  0  0  0  0  0  0  0  0  0  0
   35.7670   31.4350   30.4670 H   0  0  0  0  0  0  0  0  0  0  0  0
   35.2980   30.4800   34.5870 H   0  0  0  0  0  0  0  0  0  0  0  0
  1  6  1  0  0  0  0
  2  3  1  0  0  0  0
  2  1  2  0  0  0  0
  3  4  2  0  0  0  0
  4  9  1  0  0  0  0
  4  5  1  0  0  0  0
  5 10  1  0  0  0  0
  6  5  2  0  0  0  0
  7  2  1  0  0  0  0
  8  3  1  0  0  0  0
 11 18  1  0  0  0  0
 11 19  1  1  0  0  0
 12  6  1  6  0  0  0
 12 11  1  0  0  0  0
 13 12  1  0  0  0  0
 13 15  1  0  0  0  0
 14 13  1  0  0  0  0
 15 16  1  0  0  0  0
 16 18  1  0  0  0  0
 16 17  1  0  0  0  0
 18 21  1  1  0  0  0
 19 20  1  0  0  0  0
 21 22  1  0  0  0  0
 23 28  1  0  0  0  0
 23  1  1  0  0  0  0
 24 25  1  0  0  0  0
 25 32  1  0  0  0  0
 25 26  2  0  0  0  0
 26 31  1  0  0  0  0
 27 26  1  0  0  0  0
 28 27  2  0  0  0  0
 29 24  2  0  0  0  0
 29 28  1  0  0  0  0
 30 24  1  0  0  0  0
 32 38  1  0  0  0  0
 33 34  2  0  0  0  0
 33 32  1  0  0  0  0
 34 35  1  0  0  0  0
 35 36  2  0  0  0  0
 35 37  1  0  0  0  0
 37 42  1  0  0  0  0
 38 37  1  0  0  0  0
 38 39  2  0  0  0  0
 40 33  1  0  0  0  0
 41 34  1  0  0  0  0
M  END
>  <minimizedAffinity>
-6.16529131

$$$$

 OpenBabel03272500093D

 42 45  0  0  1  0  0  0  0  0999 V2000
   36.6040   27.8740   31.2280 C   0  0  0  0  0  0  0  0  0  0  0  0
   37.7320   27.5070   30.5240 C   0  0  0  0  0  0  0  0  0  0  0  0
   38.4550   28.4380   29.8060 C   0  0  0  0  0  0  0  0  0  0  0  0
   38.0350   29.7590   29.7920 C   0  0  0  0  0  0  0  0  0  0  0  0
   36.9100   30.1090   30.4970 C   0  0  0  0  0  0  0  0  0  0  0  0
   36.2010   29.1860   31.2050 C   0  0  0  0  0  0  0  0  0  0  0  0
   38.1090   26.4790   30.5000 H   0  0  0  0  0  0  0  0  0  0  0  0
   39.3420   28.1240   29.2600 H   0  0  0  0  0  0  0  0  0  0  0  0
   38.6200   30.4570   29.2220 H   0  0  0  0  0  0  0  0  0  0  0  0
   36.6320   31.1520   30.4480 H   0  0  0  0  0  0  0  0  0  0  0  0
   35.3140   29.8580   33.4250 C   0  0  2  0  0  3  0  0  0  0  0  0
   35.0230   29.5960   31.9600 C   0  0  1  0  0  3  0  0  0  0  0  0
   34.2880   30.7990   31.4320 C   0  0  0  0  0  3  0  0  0  0  0  0
   33.6120   30.4700   30.6030 H   0  0  0  0  0  0  0  0  0  0  0  0
   33.4240   31.2550   32.4310 O   0  0  0  0  0  0  0  0  0  0  0  0
   32.9060   30.2660   33.2210 C   0  0  0  0  0  3  0  0  0  0  0  0
   32.0710   30.7430   33.8000 H   0  0  0  0  0  0  0  0  0  0  0  0
   33.9940   29.7410   34.1590 C   0  0  2  0  0  3  0  0  0  0  0  0
   35.7880   31.1650   33.5230 O   0  0  0  0  0  0  0  0  0  0  0  0
   36.4680   31.2140   34.2460 H   0  0  0  0  0  0  0  0  0  0  0  0
   34.0100   30.3880   35.3700 O   0  0  0  0  0  0  0  0  0  0  0  0
   33.7770   29.7360   36.0770 H   0  0  0  0  0  0  0  0  0  0  0  0
   35.9830   26.8250   31.9000 O   0  0  0  0  0  0  0  0  0  0  0  0
   37.8600   24.1260   33.3620 C   0  0  0  0  0  0  0  0  0  0  0  0
   38.3980   24.6880   34.5200 C   0  0  0  0  0  0  0  0  0  0  0  0
   38.0920   26.0360   34.7830 C   0  0  0  0  0  0  0  0  0  0  0  0
   37.2980   26.6970   33.9000 N   0  0  0  0  0  0  0  0  0  0  0  0
   36.7980   26.1310   32.8010 C   0  0  0  0  0  0  0  0  0  0  0  0
   37.0790   24.8250   32.5210 N   0  0  0  0  0  0  0  0  0  0  0  0
   38.0440   23.0800   33.0740 H   0  0  0  0  0  0  0  0  0  0  0  0
   38.5020   26.4730   35.6700 H   0  0  0  0  0  0  0  0  0  0  0  0
   39.2110   23.8870   35.3520 N   0  0  0  0  0  0  0  0  0  0  0  0
   40.5070   23.7090   35.1200 C   0  0  0  0  0  0  0  0  0  0  0  0
   41.2560   22.9030   35.9740 C   0  0  0  0  0  0  0  0  0  0  0  0
   40.5580   22.3470   37.0160 C   0  0  0  0  0  0  0  0  0  0  0  0
   41.2310   21.6150   37.7920 O   0  0  0  0  0  0  0  0  0  0  0  0
   39.2680   22.5030   37.2760 N   0  0  0  0  0  0  0  0  0  0  0  0
   38.5730   23.2980   36.4170 C   0  0  0  0  0  0  0  0  0  0  0  0
   37.3330   23.4570   36.6550 O   0  0  0  0  0  0  0  0  0  0  0  0
   41.0070   24.1700   34.2850 H   0  0  0  0  0  0  0  0  0  0  0  0
   42.3120   22.7540   35.7920 H   0  0  0  0  0  0  0  0  0  0  0  0
   38.7960   22.0550   38.0830 H   0  0  0  0  0  0  0  0  0  0  0  0
  1 23  1  0  0  0  0
  2  1  2  0  0  0  0
  3  2  1  0  0  0  0
  4  3  2  0  0  0  0
  4  5  1  0  0  0  0
  5  6  2  0  0  0  0
  6  1  1  0  0  0  0
  7  2  1  0  0  0  0
  8  3  1  0  0  0  0
  9  4  1  0  0  0  0
 10  5  1  0  0  0  0
 11 19  1  6  0  0  0
 11 18  1  0  0  0  0
 12  6  1  6  0  0  0
 12 11  1  0  0  0  0
 13 12  1  0  0  0  0
 13 15  1  0  0  0  0
 14 13  1  0  0  0  0
 15 16  1  0  0  0  0
 16 17  1  0  0  0  0
 16 18  1  0  0  0  0
 18 21  1  1  0  0  0
 19 20  1  0  0  0  0
 21 22  1  0  0  0  0
 23 28  1  0  0  0  0
 24 25  1  0  0  0  0
 25 26  2  0  0  0  0
 25 32  1  0  0  0  0
 26 31  1  0  0  0  0
 27 26  1  0  0  0  0
 28 27  2  0  0  0  0
 29 28  1  0  0  0  0
 29 24  2  0  0  0  0
 30 24  1  0  0  0  0
 32 38  1  0  0  0  0
 33 32  1  0  0  0  0
 33 34  2  0  0  0  0
 34 35  1  0  0  0  0
 35 37  1  0  0  0  0
 35 36  2  0  0  0  0
 37 42  1  0  0  0  0
 38 39  2  0  0  0  0
 38 37  1  0  0  0  0
 40 33  1  0  0  0  0
 41 34  1  0  0  0  0
M  END
>  <minimizedAffinity>
-6.07121038

$$$$

 OpenBabel03272500093D

 42 45  0  0  1  0  0  0  0  0999 V2000
   36.7730   27.9100   31.3190 C   0  0  0  0  0  0  0  0  0  0  0  0
   37.7110   27.3650   30.4670 C   0  0  0  0  0  0  0  0  0  0  0  0
   38.4470   28.1640   29.6160 C   0  0  0  0  0  0  0  0  0  0  0  0
   38.2360   29.5350   29.6200 C   0  0  0  0  0  0  0  0  0  0  0  0
   37.2980   30.0620   30.4730 C   0  0  0  0  0  0  0  0  0  0  0  0
   36.5760   29.2690   31.3120 C   0  0  0  0  0  0  0  0  0  0  0  0
   37.9190   26.2900   30.4220 H   0  0  0  0  0  0  0  0  0  0  0  0
   39.1810   27.7100   28.9540 H   0  0  0  0  0  0  0  0  0  0  0  0
   38.8250   30.1270   28.9450 H   0  0  0  0  0  0  0  0  0  0  0  0
   37.1780   31.1360   30.4310 H   0  0  0  0  0  0  0  0  0  0  0  0
   35.1420   31.2410   31.7820 C   0  0  2  0  0  3  0  0  0  0  0  0
   35.6040   29.8650   32.2210 C   0  0  1  0  0  3  0  0  0  0  0  0
   34.3690   29.0480   32.4930 C   0  0  0  0  0  3  0  0  0  0  0  0
   34.6080   28.2920   33.2830 H   0  0  0  0  0  0  0  0  0  0  0  0
   33.4150   29.8820   33.0820 O   0  0  0  0  0  0  0  0  0  0  0  0
   33.9400   30.8580   33.8830 C   0  0  0  0  0  3  0  0  0  0  0  0
   33.0730   31.2800   34.4580 H   0  0  0  0  0  0  0  0  0  0  0  0
   34.5990   31.9320   33.0160 C   0  0  2  0  0  3  0  0  0  0  0  0
   34.1120   31.0540   30.8610 O   0  0  0  0  0  0  0  0  0  0  0  0
   34.1530   31.7720   30.1740 H   0  0  0  0  0  0  0  0  0  0  0  0
   33.7450   32.9620   32.7050 O   0  0  0  0  0  0  0  0  0  0  0  0
   34.0880   33.7910   33.1230 H   0  0  0  0  0  0  0  0  0  0  0  0
   36.1120   26.9770   32.1140 O   0  0  0  0  0  0  0  0  0  0  0  0
   37.9020   24.1920   33.5210 C   0  0  0  0  0  0  0  0  0  0  0  0
   38.5330   24.7370   34.6400 C   0  0  0  0  0  0  0  0  0  0  0  0
   38.3200   26.1040   34.8960 C   0  0  0  0  0  0  0  0  0  0  0  0
   37.5200   26.7990   34.0450 N   0  0  0  0  0  0  0  0  0  0  0  0
   36.9310   26.2490   32.9830 C   0  0  0  0  0  0  0  0  0  0  0  0
   37.1200   24.9250   32.7100 N   0  0  0  0  0  0  0  0  0  0  0  0
   38.0100   23.1330   33.2410 H   0  0  0  0  0  0  0  0  0  0  0  0
   38.8010   26.5280   35.7530 H   0  0  0  0  0  0  0  0  0  0  0  0
   39.3390   23.9000   35.4420 N   0  0  0  0  0  0  0  0  0  0  0  0
   40.6330   23.7140   35.1980 C   0  0  0  0  0  0  0  0  0  0  0  0
   41.3760   22.8730   36.0220 C   0  0  0  0  0  0  0  0  0  0  0  0
   40.6760   22.2920   37.0500 C   0  0  0  0  0  0  0  0  0  0  0  0
   41.3440   21.5290   37.7980 O   0  0  0  0  0  0  0  0  0  0  0  0
   39.3890   22.4560   37.3210 N   0  0  0  0  0  0  0  0  0  0  0  0
   38.7000   23.2860   36.4910 C   0  0  0  0  0  0  0  0  0  0  0  0
   37.4630   23.4520   36.7410 O   0  0  0  0  0  0  0  0  0  0  0  0
   41.1340   24.1960   34.3750 H   0  0  0  0  0  0  0  0  0  0  0  0
   42.4290   22.7180   35.8290 H   0  0  0  0  0  0  0  0  0  0  0  0
   38.9160   21.9880   38.1160 H   0  0  0  0  0  0  0  0  0  0  0  0
  1 23  1  0  0  0  0
  2  1  2  0  0  0  0
  3  4  2  0  0  0  0
  3  2  1  0  0  0  0
  4  5  1  0  0  0  0
  5  6  2  0  0  0  0
  6  1  1  0  0  0  0
  7  2  1  0  0  0  0
  8  3  1  0  0  0  0
  9  4  1  0  0  0  0
 10  5  1  0  0  0  0
 11 19  1  6  0  0  0
 11 12  1  0  0  0  0
 11 18  1  0  0  0  0
 12  6  1  6  0  0  0
 12 13  1  0  0  0  0
 13 15  1  0  0  0  0
 13 14  1  0  0  0  0
 15 16  1  0  0  0  0
 16 17  1  0  0  0  0
 18 21  1  6  0  0  0
 18 16  1  0  0  0  0
 20 19  1  0  0  0  0
 21 22  1  0  0  0  0
 23 28  1  0  0  0  0
 24 25  1  0  0  0  0
 25 26  2  0  0  0  0
 25 32  1  0  0  0  0
 26 31  1  0  0  0  0
 27 26  1  0  0  0  0
 28 27  2  0  0  0  0
 29 28  1  0  0  0  0
 29 24  2  0  0  0  0
 30 24  1  0  0  0  0
 32 38  1  0  0  0  0
 33 32  1  0  0  0  0
 33 34  2  0  0  0  0
 34 35  1  0  0  0  0
 35 37  1  0  0  0  0
 35 36  2  0  0  0  0
 37 42  1  0  0  0  0
 38 39  2  0  0  0  0
 38 37  1  0  0  0  0
 40 33  1  0  0  0  0
 41 34  1  0  0  0  0
M  END
>  <minimizedAffinity>
-5.9921093

$$$$

 OpenBabel03272500093D

 42 45  0  0  1  0  0  0  0  0999 V2000
   37.5290   22.4080   33.4140 C   0  0  0  0  0  0  0  0  0  0  0  0
   36.7850   21.9590   32.3420 C   0  0  0  0  0  0  0  0  0  0  0  0
   35.7990   21.0090   32.5110 C   0  0  0  0  0  0  0  0  0  0  0  0
   35.5580   20.4980   33.7770 C   0  0  0  0  0  0  0  0  0  0  0  0
   36.3070   20.9530   34.8340 C   0  0  0  0  0  0  0  0  0  0  0  0
   37.2790   21.8920   34.6620 C   0  0  0  0  0  0  0  0  0  0  0  0
   36.9330   22.3280   31.3210 H   0  0  0  0  0  0  0  0  0  0  0  0
   35.2260   20.6720   31.6500 H   0  0  0  0  0  0  0  0  0  0  0  0
   34.7840   19.7590   33.8720 H   0  0  0  0  0  0  0  0  0  0  0  0
   36.0740   20.5180   35.7950 H   0  0  0  0  0  0  0  0  0  0  0  0
   39.5300   22.1120   35.6860 C   0  0  2  0  0  3  0  0  0  0  0  0
   38.0410   22.3700   35.8100 C   0  0  1  0  0  3  0  0  0  0  0  0
   37.8690   23.8250   36.1540 C   0  0  0  0  0  3  0  0  0  0  0  0
   36.9350   23.9420   36.7580 H   0  0  0  0  0  0  0  0  0  0  0  0
   38.8990   24.1910   37.0260 O   0  0  0  0  0  0  0  0  0  0  0  0
   39.2990   23.1930   37.8730 C   0  0  0  0  0  3  0  0  0  0  0  0
   39.9390   23.6910   38.6490 H   0  0  0  0  0  0  0  0  0  0  0  0
   40.0960   22.1490   37.0910 C   0  0  2  0  0  3  0  0  0  0  0  0
   40.0680   23.1590   34.9380 O   0  0  0  0  0  0  0  0  0  0  0  0
   40.8150   22.8130   34.3810 H   0  0  0  0  0  0  0  0  0  0  0  0
   41.4480   22.3930   37.1030 O   0  0  0  0  0  0  0  0  0  0  0  0
   41.8960   21.6530   37.5850 H   0  0  0  0  0  0  0  0  0  0  0  0
   38.4860   23.3650   33.0860 O   0  0  0  0  0  0  0  0  0  0  0  0
   38.3060   26.9570   33.0250 C   0  0  0  0  0  0  0  0  0  0  0  0
   37.0770   27.2150   32.4180 C   0  0  0  0  0  0  0  0  0  0  0  0
   36.3060   26.1040   32.0280 C   0  0  0  0  0  0  0  0  0  0  0  0
   36.8050   24.8630   32.2660 N   0  0  0  0  0  0  0  0  0  0  0  0
   37.9850   24.6490   32.8480 C   0  0  0  0  0  0  0  0  0  0  0  0
   38.7530   25.7080   33.2380 N   0  0  0  0  0  0  0  0  0  0  0  0
   38.9770   27.7610   33.3640 H   0  0  0  0  0  0  0  0  0  0  0  0
   35.3620   26.2960   31.5610 H   0  0  0  0  0  0  0  0  0  0  0  0
   36.6790   28.5570   32.2300 N   0  0  0  0  0  0  0  0  0  0  0  0
   36.9280   29.2210   31.1050 C   0  0  0  0  0  0  0  0  0  0  0  0
   36.5140   30.5450   30.9800 C   0  0  0  0  0  0  0  0  0  0  0  0
   35.8630   31.0600   32.0720 C   0  0  0  0  0  0  0  0  0  0  0  0
   35.4870   32.2590   31.9640 O   0  0  0  0  0  0  0  0  0  0  0  0
   35.5980   30.4280   33.2060 N   0  0  0  0  0  0  0  0  0  0  0  0
   36.0200   29.1370   33.2870 C   0  0  0  0  0  0  0  0  0  0  0  0
   35.7730   28.5170   34.3710 O   0  0  0  0  0  0  0  0  0  0  0  0
   37.4440   28.7670   30.2760 H   0  0  0  0  0  0  0  0  0  0  0  0
   36.7130   31.0900   30.0660 H   0  0  0  0  0  0  0  0  0  0  0  0
   35.1000   30.8740   33.9980 H   0  0  0  0  0  0  0  0  0  0  0  0
  1  6  1  0  0  0  0
  2  3  1  0  0  0  0
  2  1  2  0  0  0  0
  3  4  2  0  0  0  0
  4  9  1  0  0  0  0
  4  5  1  0  0  0  0
  5 10  1  0  0  0  0
  6  5  2  0  0  0  0
  7  2  1  0  0  0  0
  8  3  1  0  0  0  0
 11 19  1  6  0  0  0
 11 12  1  0  0  0  0
 11 18  1  0  0  0  0
 12  6  1  6  0  0  0
 12 13  1  0  0  0  0
 13 14  1  0  0  0  0
 13 15  1  0  0  0  0
 15 16  1  0  0  0  0
 16 17  1  0  0  0  0
 18 21  1  6  0  0  0
 18 16  1  0  0  0  0
 20 19  1  0  0  0  0
 21 22  1  0  0  0  0
 23  1  1  0  0  0  0
 24 29  1  0  0  0  0
 24 30  1  0  0  0  0
 25 24  2  0  0  0  0
 26 27  2  0  0  0  0
 26 25  1  0  0  0  0
 27 28  1  0  0  0  0
 28 23  1  0  0  0  0
 28 29  2  0  0  0  0
 31 26  1  0  0  0  0
 32 25  1  0  0  0  0
 32 38  1  0  0  0  0
 33 32  1  0  0  0  0
 34 33  2  0  0  0  0
 34 35  1  0  0  0  0
 35 37  1  0  0  0  0
 36 35  2  0  0  0  0
 37 38  1  0  0  0  0
 37 42  1  0  0  0  0
 38 39  2  0  0  0  0
 40 33  1  0  0  0  0
 41 34  1  0  0  0  0
M  END
>  <minimizedAffinity>
-5.98745394

$$$$

 OpenBabel03272500093D

 42 45  0  0  1  0  0  0  0  0999 V2000
   35.8630   29.8020   32.2950 C   0  0  0  0  0  0  0  0  0  0  0  0
   36.6650   29.5770   31.1960 C   0  0  0  0  0  0  0  0  0  0  0  0
   37.2450   30.6260   30.5130 C   0  0  0  0  0  0  0  0  0  0  0  0
   37.0130   31.9250   30.9410 C   0  0  0  0  0  0  0  0  0  0  0  0
   36.2120   32.1340   32.0360 C   0  0  0  0  0  0  0  0  0  0  0  0
   35.6430   31.0940   32.7070 C   0  0  0  0  0  0  0  0  0  0  0  0
   36.8810   28.5730   30.8150 H   0  0  0  0  0  0  0  0  0  0  0  0
   37.8740   30.4220   29.6500 H   0  0  0  0  0  0  0  0  0  0  0  0
   37.4800   32.7170   30.3850 H   0  0  0  0  0  0  0  0  0  0  0  0
   36.0680   33.1660   32.3210 H   0  0  0  0  0  0  0  0  0  0  0  0
   35.6220   31.7180   35.1100 C   0  0  2  0  0  3  0  0  0  0  0  0
   34.8150   31.3500   33.8800 C   0  0  1  0  0  3  0  0  0  0  0  0
   33.7500   32.4010   33.7160 C   0  0  0  0  0  3  0  0  0  0  0  0
   32.8610   31.9360   33.2210 H   0  0  0  0  0  0  0  0  0  0  0  0
   33.2960   32.7630   34.9880 O   0  0  0  0  0  0  0  0  0  0  0  0
   33.3010   31.7410   35.8970 C   0  0  0  0  0  3  0  0  0  0  0  0
   32.7020   32.1090   36.7730 H   0  0  0  0  0  0  0  0  0  0  0  0
   34.7410   31.4320   36.3090 C   0  0  2  0  0  3  0  0  0  0  0  0
   35.8810   33.0870   35.0380 O   0  0  0  0  0  0  0  0  0  0  0  0
   36.7760   33.2710   35.4290 H   0  0  0  0  0  0  0  0  0  0  0  0
   35.1360   32.1280   37.4250 O   0  0  0  0  0  0  0  0  0  0  0  0
   35.3120   31.4800   38.1530 H   0  0  0  0  0  0  0  0  0  0  0  0
   35.3490   28.6460   32.8760 O   0  0  0  0  0  0  0  0  0  0  0  0
   37.4770   25.8010   33.4480 C   0  0  0  0  0  0  0  0  0  0  0  0
   38.1500   26.1250   34.6270 C   0  0  0  0  0  0  0  0  0  0  0  0
   37.8450   27.3630   35.2220 C   0  0  0  0  0  0  0  0  0  0  0  0
   36.9230   28.1560   34.6170 N   0  0  0  0  0  0  0  0  0  0  0  0
   36.2960   27.8180   33.4890 C   0  0  0  0  0  0  0  0  0  0  0  0
   36.5720   26.6230   32.8900 N   0  0  0  0  0  0  0  0  0  0  0  0
   37.6490   24.8560   32.9110 H   0  0  0  0  0  0  0  0  0  0  0  0
   38.3580   27.6170   36.1270 H   0  0  0  0  0  0  0  0  0  0  0  0
   39.0870   25.2070   35.1500 N   0  0  0  0  0  0  0  0  0  0  0  0
   40.3370   25.1360   34.7030 C   0  0  0  0  0  0  0  0  0  0  0  0
   41.2150   24.2070   35.2550 C   0  0  0  0  0  0  0  0  0  0  0  0
   40.6870   23.4210   36.2480 C   0  0  0  0  0  0  0  0  0  0  0  0
   41.4780   22.5770   36.7500 O   0  0  0  0  0  0  0  0  0  0  0  0
   39.4480   23.4660   36.7170 N   0  0  0  0  0  0  0  0  0  0  0  0
   38.6230   24.3870   36.1500 C   0  0  0  0  0  0  0  0  0  0  0  0
   37.4300   24.4410   36.5910 O   0  0  0  0  0  0  0  0  0  0  0  0
   40.7010   25.7790   33.9180 H   0  0  0  0  0  0  0  0  0  0  0  0
   42.2340   24.1440   34.8960 H   0  0  0  0  0  0  0  0  0  0  0  0
   39.1080   22.8430   37.4720 H   0  0  0  0  0  0  0  0  0  0  0  0
  1  6  1  0  0  0  0
  1 23  1  0  0  0  0
  2  1  2  0  0  0  0
  3  4  2  0  0  0  0
  3  2  1  0  0  0  0
  4  5  1  0  0  0  0
  5 10  1  0  0  0  0
  5  6  2  0  0  0  0
  7  2  1  0  0  0  0
  8  3  1  0  0  0  0
  9  4  1  0  0  0  0
 11 19  1  6  0  0  0
 11 18  1  0  0  0  0
 12  6  1  6  0  0  0
 12 11  1  0  0  0  0
 13 12  1  0  0  0  0
 13 15  1  0  0  0  0
 14 13  1  0  0  0  0
 15 16  1  0  0  0  0
 16 18  1  0  0  0  0
 16 17  1  0  0  0  0
 18 21  1  1  0  0  0
 19 20  1  0  0  0  0
 21 22  1  0  0  0  0
 23 28  1  0  0  0  0
 24 25  1  0  0  0  0
 25 32  1  0  0  0  0
 25 26  2  0  0  0  0
 26 31  1  0  0  0  0
 27 26  1  0  0  0  0
 28 27  2  0  0  0  0
 29 24  2  0  0  0  0
 29 28  1  0  0  0  0
 30 24  1  0  0  0  0
 32 38  1  0  0  0  0
 33 32  1  0  0  0  0
 33 34  2  0  0  0  0
 34 35  1  0  0  0  0
 35 37  1  0  0  0  0
 35 36  2  0  0  0  0
 37 42  1  0  0  0  0
 38 39  2  0  0  0  0
 38 37  1  0  0  0  0
 40 33  1  0  0  0  0
 41 34  1  0  0  0  0
M  END
>  <minimizedAffinity>
-5.97667074

$$$$

 OpenBabel03272500093D

 42 45  0  0  1  0  0  0  0  0999 V2000
   36.1370   27.7480   31.5700 C   0  0  0  0  0  0  0  0  0  0  0  0
   35.1540   28.3130   32.3570 C   0  0  0  0  0  0  0  0  0  0  0  0
   35.0530   29.6820   32.4930 C   0  0  0  0  0  0  0  0  0  0  0  0
   35.9570   30.4980   31.8300 C   0  0  0  0  0  0  0  0  0  0  0  0
   36.9290   29.9220   31.0510 C   0  0  0  0  0  0  0  0  0  0  0  0
   37.0240   28.5700   30.9190 C   0  0  0  0  0  0  0  0  0  0  0  0
   34.4150   27.7160   32.9030 H   0  0  0  0  0  0  0  0  0  0  0  0
   34.2690   30.1030   33.1190 H   0  0  0  0  0  0  0  0  0  0  0  0
   35.8500   31.5600   31.9590 H   0  0  0  0  0  0  0  0  0  0  0  0
   37.6040   30.6090   30.5600 H   0  0  0  0  0  0  0  0  0  0  0  0
   38.3190   28.8050   28.8140 C   0  0  2  0  0  3  0  0  0  0  0  0
   38.0560   27.9920   30.0660 C   0  0  1  0  0  3  0  0  0  0  0  0
   39.3880   27.7420   30.7220 C   0  0  0  0  0  3  0  0  0  0  0  0
   39.3370   26.7720   31.2760 H   0  0  0  0  0  0  0  0  0  0  0  0
   40.3340   27.5240   29.7160 O   0  0  0  0  0  0  0  0  0  0  0  0
   39.8400   26.8950   28.6070 C   0  0  0  0  0  3  0  0  0  0  0  0
   40.7370   26.5810   28.0090 H   0  0  0  0  0  0  0  0  0  0  0  0
   38.9660   27.8680   27.8150 C   0  0  2  0  0  3  0  0  0  0  0  0
   39.2190   29.8130   29.1590 O   0  0  0  0  0  0  0  0  0  0  0  0
   39.0130   30.6300   28.6320 H   0  0  0  0  0  0  0  0  0  0  0  0
   39.6660   28.5420   26.8440 O   0  0  0  0  0  0  0  0  0  0  0  0
   39.3100   28.2760   25.9590 H   0  0  0  0  0  0  0  0  0  0  0  0
   36.1110   26.3570   31.5330 O   0  0  0  0  0  0  0  0  0  0  0  0
   38.2860   23.9120   33.0280 C   0  0  0  0  0  0  0  0  0  0  0  0
   38.4950   24.4020   34.3180 C   0  0  0  0  0  0  0  0  0  0  0  0
   37.8590   25.6100   34.6580 C   0  0  0  0  0  0  0  0  0  0  0  0
   37.0880   26.2150   33.7170 N   0  0  0  0  0  0  0  0  0  0  0  0
   36.9070   25.7210   32.4920 C   0  0  0  0  0  0  0  0  0  0  0  0
   37.5120   24.5510   32.1350 N   0  0  0  0  0  0  0  0  0  0  0  0
   38.7410   22.9750   32.6730 H   0  0  0  0  0  0  0  0  0  0  0  0
   38.0160   25.9920   35.6460 H   0  0  0  0  0  0  0  0  0  0  0  0
   39.3230   23.6710   35.1980 N   0  0  0  0  0  0  0  0  0  0  0  0
   40.6270   23.9070   35.3070 C   0  0  0  0  0  0  0  0  0  0  0  0
   41.3930   23.1500   36.1890 C   0  0  0  0  0  0  0  0  0  0  0  0
   40.7030   22.1940   36.8920 C   0  0  0  0  0  0  0  0  0  0  0  0
   41.3930   21.5050   37.6920 O   0  0  0  0  0  0  0  0  0  0  0  0
   39.4060   21.9340   36.8090 N   0  0  0  0  0  0  0  0  0  0  0  0
   38.6950   22.6960   35.9340 C   0  0  0  0  0  0  0  0  0  0  0  0
   37.4480   22.4560   35.8440 O   0  0  0  0  0  0  0  0  0  0  0  0
   41.1200   24.6720   34.7300 H   0  0  0  0  0  0  0  0  0  0  0  0
   42.4550   23.3370   36.2830 H   0  0  0  0  0  0  0  0  0  0  0  0
   38.9410   21.1960   37.3690 H   0  0  0  0  0  0  0  0  0  0  0  0
  1  2  1  0  0  0  0
  2  3  2  0  0  0  0
  2  7  1  0  0  0  0
  3  8  1  0  0  0  0
  4  9  1  0  0  0  0
  4  3  1  0  0  0  0
  5  4  2  0  0  0  0
  6  5  1  0  0  0  0
  6  1  2  0  0  0  0
 10  5  1  0  0  0  0
 11 19  1  1  0  0  0
 11 12  1  0  0  0  0
 12 13  1  0  0  0  0
 12  6  1  1  0  0  0
 13 14  1  0  0  0  0
 15 13  1  0  0  0  0
 16 15  1  0  0  0  0
 17 16  1  0  0  0  0
 18 21  1  6  0  0  0
 18 16  1  0  0  0  0
 18 11  1  0  0  0  0
 20 19  1  0  0  0  0
 22 21  1  0  0  0  0
 23  1  1  0  0  0  0
 23 28  1  0  0  0  0
 24 25  1  0  0  0  0
 25 26  2  0  0  0  0
 25 32  1  0  0  0  0
 26 31  1  0  0  0  0
 27 26  1  0  0  0  0
 28 27  2  0  0  0  0
 29 28  1  0  0  0  0
 29 24  2  0  0  0  0
 30 24  1  0  0  0  0
 32 33  1  0  0  0  0
 32 38  1  0  0  0  0
 33 34  2  0  0  0  0
 34 41  1  0  0  0  0
 34 35  1  0  0  0  0
 35 36  2  0  0  0  0
 37 35  1  0  0  0  0
 37 42  1  0  0  0  0
 38 37  1  0  0  0  0
 39 38  2  0  0  0  0
 40 33  1  0  0  0  0
M  END
>  <minimizedAffinity>
-5.94734383

$$$$
