
 OpenBabel03272506093D

 47 50  0  0  1  0  0  0  0  0999 V2000
   34.8150   28.4420   49.2040 C   0  0  0  0  0  0  0  0  0  0  0  0
   35.7060   28.2930   48.5600 H   0  0  0  0  0  0  0  0  0  0  0  0
   34.8560   27.5970   49.9350 H   0  0  0  0  0  0  0  0  0  0  0  0
   33.5570   28.3410   48.3750 C   0  0  0  0  0  0  0  0  0  0  0  0
   33.5990   28.6770   46.9750 C   0  0  0  0  0  0  0  0  0  0  0  0
   31.9190   28.3950   46.5060 S   0  0  0  0  0  0  0  0  0  0  0  0
   31.3710   27.8650   48.2350 C   0  0  0  0  0  0  0  0  0  0  0  0
   32.4010   27.9690   48.8220 N   0  0  0  0  0  0  0  0  0  0  0  0
   30.0780   27.4480   48.7350 N   0  0  0  0  0  0  0  0  0  0  0  0
   29.2190   26.7830   47.8060 C   0  0  0  0  0  0  0  0  0  0  0  0
   27.7860   26.7350   48.2150 C   0  0  0  0  0  0  0  0  0  0  0  0
   27.4950   27.5350   49.4100 N   0  0  0  0  0  0  0  0  0  0  0  0
   28.4270   27.0720   50.4230 C   0  0  0  0  0  0  0  0  0  0  0  0
   29.7460   27.7240   50.1090 C   0  0  0  0  0  0  0  0  0  0  0  0
   34.4350   28.9990   46.4250 H   0  0  0  0  0  0  0  0  0  0  0  0
   29.5930   25.7420   47.5820 H   0  0  0  0  0  0  0  0  0  0  0  0
   29.2740   27.3220   46.8360 H   0  0  0  0  0  0  0  0  0  0  0  0
   27.4900   25.6810   48.4870 H   0  0  0  0  0  0  0  0  0  0  0  0
   27.0680   27.0400   47.4250 H   0  0  0  0  0  0  0  0  0  0  0  0
   26.5430   27.1980   49.7270 H   0  0  0  0  0  0  0  0  0  0  0  0
   28.1190   27.4360   51.4330 H   0  0  0  0  0  0  0  0  0  0  0  0
   28.5580   25.9690   50.4180 H   0  0  0  0  0  0  0  0  0  0  0  0
   30.5130   27.2650   50.7680 H   0  0  0  0  0  0  0  0  0  0  0  0
   29.6420   28.8080   50.3160 H   0  0  0  0  0  0  0  0  0  0  0  0
   34.8630   29.7120   49.9580 C   0  0  0  0  0  0  0  0  0  0  0  0
   33.9280   30.3000   49.7410 H   0  0  0  0  0  0  0  0  0  0  0  0
   34.9470   29.5570   51.0480 H   0  0  0  0  0  0  0  0  0  0  0  0
   37.4350   32.3680   49.6760 C   0  0  0  0  0  0  0  0  0  0  0  0
   38.0470   32.0900   48.4650 C   0  0  0  0  0  0  0  0  0  0  0  0
   37.5680   30.9880   47.7560 C   0  0  0  0  0  0  0  0  0  0  0  0
   36.5540   30.2470   48.2510 N   0  0  0  0  0  0  0  0  0  0  0  0
   35.9940   30.5780   49.4540 C   0  0  0  0  0  0  0  0  0  0  0  0
   36.4360   31.6280   50.1510 N   0  0  0  0  0  0  0  0  0  0  0  0
   37.8160   33.2340   50.2280 H   0  0  0  0  0  0  0  0  0  0  0  0
   38.8530   32.6300   48.0100 H   0  0  0  0  0  0  0  0  0  0  0  0
   37.2390   30.9360   45.2800 C   0  0  2  0  0  3  0  0  0  0  0  0
   38.1290   30.5730   46.4440 C   0  0  1  0  0  3  0  0  0  0  0  0
   39.5010   31.1540   46.1770 C   0  0  0  0  0  3  0  0  0  0  0  0
   39.6060   32.1670   46.5640 H   0  0  0  0  0  0  0  0  0  0  0  0
   39.7740   31.0650   44.8180 O   0  0  0  0  0  0  0  0  0  0  0  0
   39.2060   29.9380   44.2390 C   0  0  0  0  0  3  0  0  0  0  0  0
   39.6230   29.8120   43.2320 H   0  0  0  0  0  0  0  0  0  0  0  0
   37.6990   30.0950   44.0870 C   0  0  2  0  0  3  0  0  0  0  0  0
   37.3340   32.2570   44.9240 O   0  0  0  0  0  0  0  0  0  0  0  0
   37.9570   32.7280   45.5020 H   0  0  0  0  0  0  0  0  0  0  0  0
   37.4440   30.8350   42.9360 O   0  0  0  0  0  0  0  0  0  0  0  0
   36.6810   31.4440   43.1160 H   0  0  0  0  0  0  0  0  0  0  0  0
  1  3  1  0  0  0  0
  1 25  1  0  0  0  0
  2  1  1  0  0  0  0
  4  8  1  0  0  0  0
  4  1  1  0  0  0  0
  5  4  2  0  0  0  0
  6  5  1  0  0  0  0
  6  7  1  0  0  0  0
  7  9  1  0  0  0  0
  7  8  2  0  0  0  0
  9 14  1  0  0  0  0
 10 11  1  0  0  0  0
 10  9  1  0  0  0  0
 11 18  1  0  0  0  0
 11 12  1  0  0  0  0
 12 20  1  0  0  0  0
 12 13  1  0  0  0  0
 13 21  1  0  0  0  0
 14 24  1  0  0  0  0
 14 13  1  0  0  0  0
 14 23  1  0  0  0  0
 15  5  1  0  0  0  0
 16 10  1  0  0  0  0
 17 10  1  0  0  0  0
 19 11  1  0  0  0  0
 22 13  1  0  0  0  0
 25 27  1  0  0  0  0
 26 25  1  0  0  0  0
 28 33  1  0  0  0  0
 28 34  1  0  0  0  0
 29 28  2  0  0  0  0
 30 31  2  0  0  0  0
 30 29  1  0  0  0  0
 31 32  1  0  0  0  0
 32 25  1  0  0  0  0
 32 33  2  0  0  0  0
 35 29  1  0  0  0  0
 36 44  1  6  0  0  0
 36 37  1  0  0  0  0
 37 30  1  1  0  0  0
 38 37  1  0  0  0  0
 38 39  1  0  0  0  0
 40 38  1  0  0  0  0
 41 40  1  0  0  0  0
 42 41  1  0  0  0  0
 43 46  1  6  0  0  0
 43 41  1  0  0  0  0
 43 36  1  0  0  0  0
 44 45  1  0  0  0  0
 46 47  1  0  0  0  0
M  END
>  <minimizedAffinity>
-7.06217766

>  <minimizedRMSD>
0.957601964

$$$$
