
 OpenBabel03262521233D

 50 53  0  0  1  0  0  0  0  0999 V2000
   39.8950   25.2210   53.4540 C   0  0  0  0  0  0  0  0  0  0  0  0
   39.5940   26.1880   52.4940 C   0  0  0  0  0  0  0  0  0  0  0  0
   40.1720   25.9860   51.2310 C   0  0  0  0  0  0  0  0  0  0  0  0
   40.9720   24.9340   50.9280 C   0  0  0  0  0  0  0  0  0  0  0  0
   41.6300   24.4970   49.8770 N   0  0  0  0  0  0  0  0  0  0  0  0
   42.3090   23.3390   50.1190 C   0  0  0  0  0  0  0  0  0  0  0  0
   42.0510   23.0270   51.4390 C   0  0  0  0  0  0  0  0  0  0  0  0
   41.2310   24.0180   51.9140 C   0  0  0  0  0  0  0  0  0  0  0  0
   40.7080   24.1350   53.1810 C   0  0  0  0  0  0  0  0  0  0  0  0
   39.4380   25.4070   54.4050 H   0  0  0  0  0  0  0  0  0  0  0  0
   39.9870   26.6940   50.4240 H   0  0  0  0  0  0  0  0  0  0  0  0
   41.6570   24.9610   48.9270 H   0  0  0  0  0  0  0  0  0  0  0  0
   42.9160   22.8060   49.3930 H   0  0  0  0  0  0  0  0  0  0  0  0
   42.4460   22.1570   51.9490 H   0  0  0  0  0  0  0  0  0  0  0  0
   42.2180   23.6520   54.9960 C   0  0  2  0  0  3  0  0  0  0  0  0
   40.9870   23.1460   54.2400 C   0  0  2  0  0  3  0  0  0  0  0  0
   41.2460   21.7610   53.7840 C   0  0  0  0  0  3  0  0  0  0  0  0
   42.0610   21.6780   53.0350 H   0  0  0  0  0  0  0  0  0  0  0  0
   41.6210   20.9940   54.8530 O   0  0  0  0  0  0  0  0  0  0  0  0
   41.5160   21.5650   56.0920 C   0  0  0  0  0  3  0  0  0  0  0  0
   40.4560   21.6110   56.4750 H   0  0  0  0  0  0  0  0  0  0  0  0
   42.2270   22.8630   56.2840 C   0  0  1  0  0  3  0  0  0  0  0  0
   42.1500   25.0150   55.1770 O   0  0  0  0  0  0  0  0  0  0  0  0
   42.4170   25.2460   56.1020 H   0  0  0  0  0  0  0  0  0  0  0  0
   43.5270   22.7550   56.7160 O   0  0  0  0  0  0  0  0  0  0  0  0
   43.9700   23.6150   56.4970 H   0  0  0  0  0  0  0  0  0  0  0  0
   38.5800   27.6250   52.6790 S   0  0  0  0  0  0  0  0  0  0  0  0
   37.9650   28.2890   51.1410 C   0  0  0  0  0  0  0  0  0  0  0  0
   38.8230   28.7210   50.5840 H   0  0  0  0  0  0  0  0  0  0  0  0
   37.6100   27.4270   50.5040 H   0  0  0  0  0  0  0  0  0  0  0  0
   36.9140   29.3580   51.2990 C   0  0  0  0  0  0  0  0  0  0  0  0
   36.7410   29.4200   52.4160 H   0  0  0  0  0  0  0  0  0  0  0  0
   35.9610   28.9140   50.9370 H   0  0  0  0  0  0  0  0  0  0  0  0
   37.2550   30.5580   50.7610 C   0  0  0  0  0  0  0  0  0  0  0  0
   38.2100   31.0030   51.1460 H   0  0  0  0  0  0  0  0  0  0  0  0
   36.4940   31.3650   50.8320 H   0  0  0  0  0  0  0  0  0  0  0  0
   37.4290   30.1510   49.4660 O   0  0  0  0  0  0  0  0  0  0  0  0
   38.0660   31.0000   48.5950 C   0  0  0  0  0  0  0  0  0  0  0  0
   38.3560   32.2210   49.1520 C   0  0  0  0  0  0  0  0  0  0  0  0
   39.0080   33.1850   48.3670 C   0  0  0  0  0  0  0  0  0  0  0  0
   39.3190   32.8490   47.0860 N   0  0  0  0  0  0  0  0  0  0  0  0
   39.0160   31.6200   46.5560 C   0  0  0  0  0  0  0  0  0  0  0  0
   38.3950   30.7300   47.3350 N   0  0  0  0  0  0  0  0  0  0  0  0
   39.9930   32.4740   44.5440 C   0  0  0  0  0  0  0  0  0  0  0  0
   40.2200   33.6130   45.0520 O   0  0  0  0  0  0  0  0  0  0  0  0
   39.3870   31.3740   45.2060 N   0  0  0  0  0  0  0  0  0  0  0  0
   38.1660   32.6170   50.1520 H   0  0  0  0  0  0  0  0  0  0  0  0
   39.2790   34.1630   48.7030 H   0  0  0  0  0  0  0  0  0  0  0  0
   40.2930   32.3270   43.5060 H   0  0  0  0  0  0  0  0  0  0  0  0
   39.1940   30.4320   44.8000 H   0  0  0  0  0  0  0  0  0  0  0  0
  1 10  1  0  0  0  0
  2 27  1  0  0  0  0
  2  1  2  0  0  0  0
  3  2  1  0  0  0  0
  4  3  2  0  0  0  0
  4  8  1  0  0  0  0
  5  6  1  0  0  0  0
  5  4  1  0  0  0  0
  6  7  2  0  0  0  0
  7  8  1  0  0  0  0
  7 14  1  0  0  0  0
  8  9  2  0  0  0  0
  9  1  1  0  0  0  0
 11  3  1  0  0  0  0
 12  5  1  0  0  0  0
 13  6  1  0  0  0  0
 15 23  1  1  0  0  0
 15 22  1  0  0  0  0
 16  9  1  6  0  0  0
 16 15  1  0  0  0  0
 17 16  1  0  0  0  0
 17 19  1  0  0  0  0
 18 17  1  0  0  0  0
 19 20  1  0  0  0  0
 20 22  1  0  0  0  0
 20 21  1  0  0  0  0
 22 25  1  6  0  0  0
 23 24  1  0  0  0  0
 26 25  1  0  0  0  0
 28 31  1  0  0  0  0
 28 27  1  0  0  0  0
 29 28  1  0  0  0  0
 30 28  1  0  0  0  0
 31 32  1  0  0  0  0
 33 31  1  0  0  0  0
 34 36  1  0  0  0  0
 34 35  1  0  0  0  0
 34 31  1  0  0  0  0
 37 34  1  0  0  0  0
 38 39  1  0  0  0  0
 38 37  1  0  0  0  0
 39 47  1  0  0  0  0
 40 48  1  0  0  0  0
 40 39  2  0  0  0  0
 41 40  1  0  0  0  0
 42 41  2  0  0  0  0
 42 43  1  0  0  0  0
 43 38  2  0  0  0  0
 44 45  2  0  0  0  0
 44 46  1  0  0  0  0
 46 42  1  0  0  0  0
 49 44  1  0  0  0  0
 50 46  1  0  0  0  0
M  END
>  <minimizedAffinity>
-4.59018898

>  <minimizedRMSD>
0.627851129

$$$$
