
 OpenBabel03272509423D

 41 43  0  0  1  0  0  0  0  0999 V2000
   37.0310   30.9170   49.0810 C   0  0  0  0  0  0  0  0  0  0  0  0
   36.7300   31.8190   50.1040 C   0  0  0  0  0  0  0  0  0  0  0  0
   37.3080   33.0770   50.1620 C   0  0  0  0  0  0  0  0  0  0  0  0
   38.2170   33.4630   49.1720 C   0  0  0  0  0  0  0  0  0  0  0  0
   38.5030   32.5720   48.1760 C   0  0  0  0  0  0  0  0  0  0  0  0
   37.9060   31.3200   48.1520 C   0  0  0  0  0  0  0  0  0  0  0  0
   36.0240   31.5220   50.8750 H   0  0  0  0  0  0  0  0  0  0  0  0
   37.0230   33.7030   50.9760 H   0  0  0  0  0  0  0  0  0  0  0  0
   38.6130   34.4530   49.2960 H   0  0  0  0  0  0  0  0  0  0  0  0
   39.2230   33.0120   47.4870 H   0  0  0  0  0  0  0  0  0  0  0  0
   36.4560   29.5900   49.0370 C   0  0  2  0  0  0  0  0  0  0  0  0
   36.9560   29.0720   48.1320 H   0  0  0  0  0  0  0  0  0  0  0  0
   33.5940   29.9380   46.8260 C   0  0  0  0  0  0  0  0  0  0  0  0
   32.8490   28.7990   47.0610 C   0  0  0  0  0  0  0  0  0  0  0  0
   33.2900   27.9200   48.0330 C   0  0  0  0  0  0  0  0  0  0  0  0
   34.4460   28.2070   48.7250 N   0  0  0  0  0  0  0  0  0  0  0  0
   35.1130   29.3090   48.4540 C   0  0  0  0  0  0  0  0  0  0  0  0
   34.6960   30.1820   47.5090 N   0  0  0  0  0  0  0  0  0  0  0  0
   33.2130   30.6020   46.0570 H   0  0  0  0  0  0  0  0  0  0  0  0
   31.9380   28.5330   46.5420 H   0  0  0  0  0  0  0  0  0  0  0  0
   32.8090   26.9870   48.3250 H   0  0  0  0  0  0  0  0  0  0  0  0
   36.9390   28.8130   49.9430 O   0  0  0  0  0  0  0  0  0  0  0  0
   36.4470   28.5500   50.7360 H   0  0  0  0  0  0  0  0  0  0  0  0
   38.3190   30.4670   47.0610 C   0  0  0  0  0  3  0  0  0  0  0  0
   38.8920   30.9170   45.9390 C   0  0  0  0  0  3  0  0  0  0  0  0
   39.3930   30.1380   44.7830 C   0  0  0  0  0  0  0  0  0  0  0  0
   38.5270   29.6210   44.3120 H   0  0  0  0  0  0  0  0  0  0  0  0
   40.1260   29.4020   45.1540 H   0  0  0  0  0  0  0  0  0  0  0  0
   40.2440   31.2290   43.6390 S   0  0  0  0  0  0  0  0  0  0  0  0
   40.7040   28.8910   42.2280 C   0  0  1  0  0  3  0  0  0  0  0  0
   40.3880   30.3670   42.0440 C   0  0  1  0  0  3  0  0  0  0  0  0
   39.0840   30.5770   41.3080 C   0  0  0  0  0  3  0  0  0  0  0  0
   38.2510   30.2090   41.9180 H   0  0  0  0  0  0  0  0  0  0  0  0
   39.1270   30.0670   40.0150 O   0  0  0  0  0  0  0  0  0  0  0  0
   40.1210   29.1030   39.8670 C   0  0  0  0  0  3  0  0  0  0  0  0
   39.9110   28.5170   38.9510 H   0  0  0  0  0  0  0  0  0  0  0  0
   40.0410   28.1830   41.0600 C   0  0  1  0  0  3  0  0  0  0  0  0
   42.0650   28.6940   42.2960 O   0  0  0  0  0  0  0  0  0  0  0  0
   42.3740   27.9500   41.7180 H   0  0  0  0  0  0  0  0  0  0  0  0
   40.6500   26.9640   40.8060 O   0  0  0  0  0  0  0  0  0  0  0  0
   39.9460   26.2660   40.7850 H   0  0  0  0  0  0  0  0  0  0  0  0
  1  2  1  0  0  0  0
  2  3  2  0  0  0  0
  2  7  1  0  0  0  0
  3  8  1  0  0  0  0
  4  9  1  0  0  0  0
  4  3  1  0  0  0  0
  5  4  2  0  0  0  0
  6  5  1  0  0  0  0
  6  1  2  0  0  0  0
 10  5  1  0  0  0  0
 11 12  1  6  0  0  0
 11  1  1  0  0  0  0
 11 22  1  0  0  0  0
 13 14  2  0  0  0  0
 13 18  1  0  0  0  0
 14 15  1  0  0  0  0
 15 21  1  0  0  0  0
 15 16  2  0  0  0  0
 17 16  1  0  0  0  0
 17 11  1  0  0  0  0
 18 17  2  0  0  0  0
 19 13  1  0  0  0  0
 20 14  1  0  0  0  0
 22 23  1  0  0  0  0
 24  6  1  0  0  0  0
 25 24  2  0  0  0  0
 26 28  1  0  0  0  0
 26 25  1  0  0  0  0
 27 26  1  0  0  0  0
 29 26  1  0  0  0  0
 30 38  1  6  0  0  0
 31 30  1  0  0  0  0
 31 29  1  1  0  0  0
 32 33  1  0  0  0  0
 32 31  1  0  0  0  0
 34 32  1  0  0  0  0
 35 34  1  0  0  0  0
 35 37  1  0  0  0  0
 36 35  1  0  0  0  0
 37 40  1  6  0  0  0
 37 30  1  0  0  0  0
 39 38  1  0  0  0  0
 41 40  1  0  0  0  0
M  END
>  <minimizedAffinity>
-6.48620558

>  <minimizedRMSD>
0.665605962

$$$$
