
 OpenBabel03262521533D

 26 27  0  0  1  0  0  0  0  0999 V2000
   41.4220   24.7730   33.8420 C   0  0  0  0  0  0  0  0  0  0  0  0
   40.7590   24.4570   33.0070 H   0  0  0  0  0  0  0  0  0  0  0  0
   42.4590   24.6360   33.4160 H   0  0  0  0  0  0  0  0  0  0  0  0
   41.2600   26.4980   34.2730 S   0  0  0  0  0  0  0  0  0  0  0  0
   39.5450   26.9670   34.1660 C   0  0  0  0  0  0  0  0  0  0  0  0
   38.9520   27.2570   35.3810 C   0  0  0  0  0  0  0  0  0  0  0  0
   37.5950   27.6370   35.3840 C   0  0  0  0  0  0  0  0  0  0  0  0
   36.9440   27.6950   34.1840 N   0  0  0  0  0  0  0  0  0  0  0  0
   37.5850   27.3980   33.0310 C   0  0  0  0  0  0  0  0  0  0  0  0
   38.8540   27.0430   33.0220 N   0  0  0  0  0  0  0  0  0  0  0  0
   39.3820   27.2370   36.3520 H   0  0  0  0  0  0  0  0  0  0  0  0
   37.0700   27.8760   36.2840 H   0  0  0  0  0  0  0  0  0  0  0  0
   37.0490   27.4510   32.0730 H   0  0  0  0  0  0  0  0  0  0  0  0
   41.3070   23.6490   35.2570 S   0  0  0  0  0  0  0  0  0  0  0  0
   39.6150   23.0410   37.3450 C   0  0  1  0  0  3  0  0  0  0  0  0
   39.6880   23.8020   36.0410 C   0  0  2  0  0  3  0  0  0  0  0  0
   38.6000   23.2910   35.1520 C   0  0  0  0  0  3  0  0  0  0  0  0
   37.9630   24.1480   34.8480 H   0  0  0  0  0  0  0  0  0  0  0  0
   37.8470   22.2830   35.7230 O   0  0  0  0  0  0  0  0  0  0  0  0
   37.2410   22.6930   36.9120 C   0  0  0  0  0  3  0  0  0  0  0  0
   36.8030   21.7660   37.3700 H   0  0  0  0  0  0  0  0  0  0  0  0
   38.2210   23.2550   37.8980 C   0  0  2  0  0  3  0  0  0  0  0  0
   39.7490   21.6660   37.1300 O   0  0  0  0  0  0  0  0  0  0  0  0
   40.0330   21.4540   36.2230 H   0  0  0  0  0  0  0  0  0  0  0  0
   38.0610   24.6460   37.9870 O   0  0  0  0  0  0  0  0  0  0  0  0
   38.4470   24.9540   38.8690 H   0  0  0  0  0  0  0  0  0  0  0  0
  1  4  1  0  0  0  0
  1 14  1  0  0  0  0
  2  1  1  0  0  0  0
  3  1  1  0  0  0  0
  5  4  1  0  0  0  0
  5  6  1  0  0  0  0
  6  7  2  0  0  0  0
  6 11  1  0  0  0  0
  7 12  1  0  0  0  0
  8  7  1  0  0  0  0
  9  8  2  0  0  0  0
 10  9  1  0  0  0  0
 10  5  2  0  0  0  0
 13  9  1  0  0  0  0
 15 23  1  6  0  0  0
 15 22  1  0  0  0  0
 16 14  1  6  0  0  0
 16 15  1  0  0  0  0
 17 19  1  0  0  0  0
 17 16  1  0  0  0  0
 18 17  1  0  0  0  0
 19 20  1  0  0  0  0
 20 21  1  0  0  0  0
 20 22  1  0  0  0  0
 22 25  1  6  0  0  0
 24 23  1  0  0  0  0
 25 26  1  0  0  0  0
M  END
>  <minimizedAffinity>
-4.29194593

$$$$

 OpenBabel03262521533D

 26 27  0  0  1  0  0  0  0  0999 V2000
   37.8610   23.9970   33.3870 C   0  0  0  0  0  0  0  0  0  0  0  0
   37.8610   22.8950   33.2370 H   0  0  0  0  0  0  0  0  0  0  0  0
   36.9570   24.1700   34.0420 H   0  0  0  0  0  0  0  0  0  0  0  0
   39.2790   24.5970   34.2900 S   0  0  0  0  0  0  0  0  0  0  0  0
   39.1740   24.0420   35.9790 C   0  0  0  0  0  0  0  0  0  0  0  0
   38.1250   24.5830   36.6980 C   0  0  0  0  0  0  0  0  0  0  0  0
   37.9710   24.1960   38.0430 C   0  0  0  0  0  0  0  0  0  0  0  0
   38.8710   23.3070   38.5600 N   0  0  0  0  0  0  0  0  0  0  0  0
   39.8760   22.8150   37.8010 C   0  0  0  0  0  0  0  0  0  0  0  0
   40.0240   23.1730   36.5420 N   0  0  0  0  0  0  0  0  0  0  0  0
   37.3850   25.2750   36.3750 H   0  0  0  0  0  0  0  0  0  0  0  0
   37.1830   24.5720   38.6600 H   0  0  0  0  0  0  0  0  0  0  0  0
   40.5910   22.1000   38.2290 H   0  0  0  0  0  0  0  0  0  0  0  0
   37.5420   24.8880   31.8440 S   0  0  0  0  0  0  0  0  0  0  0  0
   35.8920   27.0620   31.4620 C   0  0  1  0  0  3  0  0  0  0  0  0
   37.1350   26.6120   32.1950 C   0  0  2  0  0  3  0  0  0  0  0  0
   38.2510   27.5270   31.8070 C   0  0  0  0  0  3  0  0  0  0  0  0
   38.6750   27.9760   32.7290 H   0  0  0  0  0  0  0  0  0  0  0  0
   37.8780   28.5010   30.9000 O   0  0  0  0  0  0  0  0  0  0  0  0
   36.8470   29.3040   31.3920 C   0  0  0  0  0  3  0  0  0  0  0  0
   36.5130   29.9390   30.5270 H   0  0  0  0  0  0  0  0  0  0  0  0
   35.6590   28.5090   31.8450 C   0  0  2  0  0  3  0  0  0  0  0  0
   36.0940   27.0460   30.0780 O   0  0  0  0  0  0  0  0  0  0  0  0
   36.9190   26.5940   29.8250 H   0  0  0  0  0  0  0  0  0  0  0  0
   35.5860   28.5210   33.2450 O   0  0  0  0  0  0  0  0  0  0  0  0
   34.6350   28.3070   33.5150 H   0  0  0  0  0  0  0  0  0  0  0  0
  1  3  1  0  0  0  0
  1  4  1  0  0  0  0
  2  1  1  0  0  0  0
  4  5  1  0  0  0  0
  5 10  2  0  0  0  0
  5  6  1  0  0  0  0
  6  7  2  0  0  0  0
  7  8  1  0  0  0  0
  7 12  1  0  0  0  0
  9 13  1  0  0  0  0
  9  8  2  0  0  0  0
 10  9  1  0  0  0  0
 11  6  1  0  0  0  0
 14  1  1  0  0  0  0
 15 23  1  6  0  0  0
 15 22  1  0  0  0  0
 15 16  1  0  0  0  0
 16 14  1  6  0  0  0
 17 16  1  0  0  0  0
 17 18  1  0  0  0  0
 19 20  1  0  0  0  0
 19 17  1  0  0  0  0
 20 22  1  0  0  0  0
 21 20  1  0  0  0  0
 22 25  1  1  0  0  0
 24 23  1  0  0  0  0
 25 26  1  0  0  0  0
M  END
>  <minimizedAffinity>
-4.2872858

$$$$

 OpenBabel03262521533D

 26 27  0  0  1  0  0  0  0  0999 V2000
   37.7850   24.6840   33.3110 C   0  0  0  0  0  0  0  0  0  0  0  0
   36.7800   24.7540   33.7840 H   0  0  0  0  0  0  0  0  0  0  0  0
   37.7220   25.4160   32.4540 H   0  0  0  0  0  0  0  0  0  0  0  0
   39.1140   25.2340   34.3690 S   0  0  0  0  0  0  0  0  0  0  0  0
   38.9450   24.4660   35.9660 C   0  0  0  0  0  0  0  0  0  0  0  0
   39.8640   23.4650   36.2230 C   0  0  0  0  0  0  0  0  0  0  0  0
   39.7990   22.8050   37.4650 C   0  0  0  0  0  0  0  0  0  0  0  0
   38.8280   23.1930   38.3460 N   0  0  0  0  0  0  0  0  0  0  0  0
   37.9600   24.1810   38.0320 C   0  0  0  0  0  0  0  0  0  0  0  0
   38.0170   24.8020   36.8710 N   0  0  0  0  0  0  0  0  0  0  0  0
   40.6440   23.1040   35.5990 H   0  0  0  0  0  0  0  0  0  0  0  0
   40.4760   22.0220   37.7340 H   0  0  0  0  0  0  0  0  0  0  0  0
   37.1860   24.4840   38.7500 H   0  0  0  0  0  0  0  0  0  0  0  0
   38.0670   23.0590   32.5650 S   0  0  0  0  0  0  0  0  0  0  0  0
   37.0260   20.5130   32.7560 C   0  0  1  0  0  3  0  0  0  0  0  0
   36.6600   21.9740   32.8890 C   0  0  2  0  0  3  0  0  0  0  0  0
   35.5310   22.2500   31.9480 C   0  0  0  0  0  3  0  0  0  0  0  0
   34.6830   22.6700   32.5290 H   0  0  0  0  0  0  0  0  0  0  0  0
   35.1380   21.1450   31.2170 O   0  0  0  0  0  0  0  0  0  0  0  0
   34.7350   20.0900   32.0380 C   0  0  0  0  0  3  0  0  0  0  0  0
   34.6030   19.2050   31.3600 H   0  0  0  0  0  0  0  0  0  0  0  0
   35.7720   19.7200   33.0560 C   0  0  2  0  0  3  0  0  0  0  0  0
   37.3840   20.2060   31.4390 O   0  0  0  0  0  0  0  0  0  0  0  0
   37.5020   20.9990   30.8870 H   0  0  0  0  0  0  0  0  0  0  0  0
   35.3580   20.1370   34.3300 O   0  0  0  0  0  0  0  0  0  0  0  0
   35.8560   19.5920   35.0200 H   0  0  0  0  0  0  0  0  0  0  0  0
  1  2  1  0  0  0  0
  1  4  1  0  0  0  0
  3  1  1  0  0  0  0
  4  5  1  0  0  0  0
  5  6  2  0  0  0  0
  5 10  1  0  0  0  0
  6  7  1  0  0  0  0
  7 12  1  0  0  0  0
  7  8  2  0  0  0  0
  9  8  1  0  0  0  0
  9 13  1  0  0  0  0
 10  9  2  0  0  0  0
 11  6  1  0  0  0  0
 14  1  1  0  0  0  0
 15 23  1  6  0  0  0
 15 16  1  0  0  0  0
 15 22  1  0  0  0  0
 16 14  1  6  0  0  0
 17 18  1  0  0  0  0
 17 16  1  0  0  0  0
 19 17  1  0  0  0  0
 19 20  1  0  0  0  0
 20 22  1  0  0  0  0
 21 20  1  0  0  0  0
 22 25  1  1  0  0  0
 24 23  1  0  0  0  0
 25 26  1  0  0  0  0
M  END
>  <minimizedAffinity>
-4.25628042

$$$$

 OpenBabel03262521533D

 26 27  0  0  1  0  0  0  0  0999 V2000
   37.1870   27.3350   34.7550 C   0  0  0  0  0  0  0  0  0  0  0  0
   36.9060   28.3630   35.0750 H   0  0  0  0  0  0  0  0  0  0  0  0
   36.2220   26.7570   34.8580 H   0  0  0  0  0  0  0  0  0  0  0  0
   37.6770   27.2280   33.0410 S   0  0  0  0  0  0  0  0  0  0  0  0
   36.7700   25.9100   32.2570 C   0  0  0  0  0  0  0  0  0  0  0  0
   35.7300   26.3300   31.4480 C   0  0  0  0  0  0  0  0  0  0  0  0
   34.9620   25.3500   30.7910 C   0  0  0  0  0  0  0  0  0  0  0  0
   35.2890   24.0380   30.9920 N   0  0  0  0  0  0  0  0  0  0  0  0
   36.3200   23.6960   31.7980 C   0  0  0  0  0  0  0  0  0  0  0  0
   37.0420   24.6090   32.4140 N   0  0  0  0  0  0  0  0  0  0  0  0
   35.4100   27.3220   31.2380 H   0  0  0  0  0  0  0  0  0  0  0  0
   34.1430   25.5990   30.1490 H   0  0  0  0  0  0  0  0  0  0  0  0
   36.5730   22.6370   31.9490 H   0  0  0  0  0  0  0  0  0  0  0  0
   38.3590   26.5680   35.9020 S   0  0  0  0  0  0  0  0  0  0  0  0
   37.8550   23.9230   36.4920 C   0  0  1  0  0  3  0  0  0  0  0  0
   38.5640   24.8190   35.5020 C   0  0  2  0  0  3  0  0  0  0  0  0
   40.0070   24.4290   35.4850 C   0  0  0  0  0  3  0  0  0  0  0  0
   40.2900   24.1720   34.4430 H   0  0  0  0  0  0  0  0  0  0  0  0
   40.3130   23.4010   36.3560 O   0  0  0  0  0  0  0  0  0  0  0  0
   39.5760   22.2470   36.0810 C   0  0  0  0  0  3  0  0  0  0  0  0
   39.7740   21.5450   36.9350 H   0  0  0  0  0  0  0  0  0  0  0  0
   38.0990   22.4980   36.0430 C   0  0  2  0  0  3  0  0  0  0  0  0
   38.4200   24.0400   37.7660 O   0  0  0  0  0  0  0  0  0  0  0  0
   39.0420   24.7860   37.8340 H   0  0  0  0  0  0  0  0  0  0  0  0
   37.6400   22.4360   34.7190 O   0  0  0  0  0  0  0  0  0  0  0  0
   36.6470   22.2510   34.7350 H   0  0  0  0  0  0  0  0  0  0  0  0
  1  3  1  0  0  0  0
  1  2  1  0  0  0  0
  1 14  1  0  0  0  0
  4  1  1  0  0  0  0
  5 10  1  0  0  0  0
  5  4  1  0  0  0  0
  6  5  2  0  0  0  0
  7  8  2  0  0  0  0
  7  6  1  0  0  0  0
  8  9  1  0  0  0  0
  9 13  1  0  0  0  0
  9 10  2  0  0  0  0
 11  6  1  0  0  0  0
 12  7  1  0  0  0  0
 15 23  1  1  0  0  0
 16 14  1  1  0  0  0
 16 15  1  0  0  0  0
 17 16  1  0  0  0  0
 17 19  1  0  0  0  0
 18 17  1  0  0  0  0
 20 19  1  0  0  0  0
 20 21  1  0  0  0  0
 22 25  1  6  0  0  0
 22 20  1  0  0  0  0
 22 15  1  0  0  0  0
 23 24  1  0  0  0  0
 25 26  1  0  0  0  0
M  END
>  <minimizedAffinity>
-4.18379211

$$$$

 OpenBabel03262521533D

 26 27  0  0  1  0  0  0  0  0999 V2000
   39.8600   26.8910   34.3240 C   0  0  0  0  0  0  0  0  0  0  0  0
   40.6650   27.6160   34.5780 H   0  0  0  0  0  0  0  0  0  0  0  0
   40.4030   25.9010   34.2900 H   0  0  0  0  0  0  0  0  0  0  0  0
   38.6010   26.7490   35.5820 S   0  0  0  0  0  0  0  0  0  0  0  0
   38.2640   25.0260   35.8790 C   0  0  0  0  0  0  0  0  0  0  0  0
   37.9890   24.7120   37.1970 C   0  0  0  0  0  0  0  0  0  0  0  0
   37.7120   23.3690   37.5180 C   0  0  0  0  0  0  0  0  0  0  0  0
   37.7330   22.4520   36.5040 N   0  0  0  0  0  0  0  0  0  0  0  0
   38.0110   22.8260   35.2350 C   0  0  0  0  0  0  0  0  0  0  0  0
   38.2690   24.0810   34.9300 N   0  0  0  0  0  0  0  0  0  0  0  0
   37.9520   25.3590   38.0400 H   0  0  0  0  0  0  0  0  0  0  0  0
   37.4900   23.0520   38.5150 H   0  0  0  0  0  0  0  0  0  0  0  0
   38.0220   22.0780   34.4300 H   0  0  0  0  0  0  0  0  0  0  0  0
   39.2060   27.1640   32.6590 S   0  0  0  0  0  0  0  0  0  0  0  0
   37.8280   25.3400   31.1200 C   0  0  1  0  0  3  0  0  0  0  0  0
   37.7370   26.1480   32.3940 C   0  0  2  0  0  3  0  0  0  0  0  0
   36.5010   26.9840   32.3180 C   0  0  0  0  0  3  0  0  0  0  0  0
   35.8680   26.7590   33.2020 H   0  0  0  0  0  0  0  0  0  0  0  0
   35.7950   26.8220   31.1410 O   0  0  0  0  0  0  0  0  0  0  0  0
   35.4010   25.4970   30.9460 C   0  0  0  0  0  3  0  0  0  0  0  0
   34.9920   25.4470   29.9020 H   0  0  0  0  0  0  0  0  0  0  0  0
   36.5480   24.5350   31.0210 C   0  0  2  0  0  3  0  0  0  0  0  0
   37.8570   26.1760   29.9990 O   0  0  0  0  0  0  0  0  0  0  0  0
   37.9870   27.1120   30.2330 H   0  0  0  0  0  0  0  0  0  0  0  0
   36.4750   23.7980   32.2130 O   0  0  0  0  0  0  0  0  0  0  0  0
   37.0070   22.9480   32.0940 H   0  0  0  0  0  0  0  0  0  0  0  0
  1  2  1  0  0  0  0
  1  4  1  0  0  0  0
  3  1  1  0  0  0  0
  4  5  1  0  0  0  0
  5  6  1  0  0  0  0
  6  7  2  0  0  0  0
  6 11  1  0  0  0  0
  7 12  1  0  0  0  0
  8  7  1  0  0  0  0
  9  8  2  0  0  0  0
 10  9  1  0  0  0  0
 10  5  2  0  0  0  0
 13  9  1  0  0  0  0
 14  1  1  0  0  0  0
 15 23  1  6  0  0  0
 15 16  1  0  0  0  0
 16 14  1  6  0  0  0
 17 16  1  0  0  0  0
 17 18  1  0  0  0  0
 19 17  1  0  0  0  0
 20 22  1  0  0  0  0
 20 19  1  0  0  0  0
 21 20  1  0  0  0  0
 22 15  1  0  0  0  0
 22 25  1  1  0  0  0
 23 24  1  0  0  0  0
 26 25  1  0  0  0  0
M  END
>  <minimizedAffinity>
-4.14020777

$$$$

 OpenBabel03262521533D

 26 27  0  0  1  0  0  0  0  0999 V2000
   39.2780   23.2000   32.5460 C   0  0  0  0  0  0  0  0  0  0  0  0
   39.3370   22.3410   31.8420 H   0  0  0  0  0  0  0  0  0  0  0  0
   38.2080   23.1690   32.9070 H   0  0  0  0  0  0  0  0  0  0  0  0
   40.3170   23.0180   33.9870 S   0  0  0  0  0  0  0  0  0  0  0  0
   39.3930   23.4860   35.4360 C   0  0  0  0  0  0  0  0  0  0  0  0
   39.8070   22.8740   36.6040 C   0  0  0  0  0  0  0  0  0  0  0  0
   39.1270   23.1890   37.7970 C   0  0  0  0  0  0  0  0  0  0  0  0
   38.0950   24.0840   37.7280 N   0  0  0  0  0  0  0  0  0  0  0  0
   37.7420   24.6470   36.5510 C   0  0  0  0  0  0  0  0  0  0  0  0
   38.3750   24.3560   35.4330 N   0  0  0  0  0  0  0  0  0  0  0  0
   40.5930   22.1730   36.7450 H   0  0  0  0  0  0  0  0  0  0  0  0
   39.3910   22.7560   38.7380 H   0  0  0  0  0  0  0  0  0  0  0  0
   36.9120   25.3650   36.5120 H   0  0  0  0  0  0  0  0  0  0  0  0
   39.4760   24.7860   31.6950 S   0  0  0  0  0  0  0  0  0  0  0  0
   37.1950   26.3180   31.9120 C   0  0  1  0  0  3  0  0  0  0  0  0
   37.8940   25.3250   31.0120 C   0  0  2  0  0  3  0  0  0  0  0  0
   36.9690   24.1700   30.8000 C   0  0  0  0  0  3  0  0  0  0  0  0
   36.8120   24.0410   29.7090 H   0  0  0  0  0  0  0  0  0  0  0  0
   35.7660   24.2950   31.4690 O   0  0  0  0  0  0  0  0  0  0  0  0
   35.0730   25.4460   31.0870 C   0  0  0  0  0  3  0  0  0  0  0  0
   34.2100   25.5360   31.8000 H   0  0  0  0  0  0  0  0  0  0  0  0
   35.8970   26.6910   31.2260 C   0  0  2  0  0  3  0  0  0  0  0  0
   36.8450   25.7280   33.1300 O   0  0  0  0  0  0  0  0  0  0  0  0
   37.2540   24.8530   33.2550 H   0  0  0  0  0  0  0  0  0  0  0  0
   36.2640   27.1630   29.9570 O   0  0  0  0  0  0  0  0  0  0  0  0
   36.4920   28.1440   30.0370 H   0  0  0  0  0  0  0  0  0  0  0  0
  1  3  1  0  0  0  0
  1  4  1  0  0  0  0
  2  1  1  0  0  0  0
  4  5  1  0  0  0  0
  5  6  1  0  0  0  0
  6 11  1  0  0  0  0
  6  7  2  0  0  0  0
  7 12  1  0  0  0  0
  8  7  1  0  0  0  0
  9  8  2  0  0  0  0
 10  5  2  0  0  0  0
 10  9  1  0  0  0  0
 13  9  1  0  0  0  0
 14  1  1  0  0  0  0
 15 23  1  1  0  0  0
 16 14  1  1  0  0  0
 16 15  1  0  0  0  0
 17 16  1  0  0  0  0
 17 19  1  0  0  0  0
 18 17  1  0  0  0  0
 20 22  1  0  0  0  0
 20 19  1  0  0  0  0
 20 21  1  0  0  0  0
 22 25  1  6  0  0  0
 22 15  1  0  0  0  0
 23 24  1  0  0  0  0
 25 26  1  0  0  0  0
M  END
>  <minimizedAffinity>
-4.1383934

$$$$

 OpenBabel03262521533D

 26 27  0  0  1  0  0  0  0  0999 V2000
   37.3770   23.0430   32.8400 C   0  0  0  0  0  0  0  0  0  0  0  0
   36.5130   23.1340   33.5350 H   0  0  0  0  0  0  0  0  0  0  0  0
   37.1330   22.1170   32.2410 H   0  0  0  0  0  0  0  0  0  0  0  0
   37.5080   24.3930   31.6790 S   0  0  0  0  0  0  0  0  0  0  0  0
   37.0320   25.9070   32.4870 C   0  0  0  0  0  0  0  0  0  0  0  0
   36.3050   26.7780   31.6960 C   0  0  0  0  0  0  0  0  0  0  0  0
   35.8900   28.0000   32.2610 C   0  0  0  0  0  0  0  0  0  0  0  0
   36.2310   28.2540   33.5600 N   0  0  0  0  0  0  0  0  0  0  0  0
   36.9450   27.3580   34.2780 C   0  0  0  0  0  0  0  0  0  0  0  0
   37.3350   26.2130   33.7550 N   0  0  0  0  0  0  0  0  0  0  0  0
   35.9990   26.6590   30.6860 H   0  0  0  0  0  0  0  0  0  0  0  0
   35.3240   28.7210   31.7100 H   0  0  0  0  0  0  0  0  0  0  0  0
   37.2110   27.5740   35.3220 H   0  0  0  0  0  0  0  0  0  0  0  0
   38.9170   22.6820   33.7210 S   0  0  0  0  0  0  0  0  0  0  0  0
   37.9950   23.7360   36.0950 C   0  0  1  0  0  3  0  0  0  0  0  0
   38.5910   22.4870   35.4860 C   0  0  2  0  0  3  0  0  0  0  0  0
   39.8420   22.1630   36.2390 C   0  0  0  0  0  3  0  0  0  0  0  0
   39.7570   21.1290   36.6330 H   0  0  0  0  0  0  0  0  0  0  0  0
   40.1280   23.0620   37.2480 O   0  0  0  0  0  0  0  0  0  0  0  0
   39.0970   23.1400   38.1870 C   0  0  0  0  0  3  0  0  0  0  0  0
   39.3540   24.0060   38.8550 H   0  0  0  0  0  0  0  0  0  0  0  0
   37.7670   23.4390   37.5630 C   0  0  2  0  0  3  0  0  0  0  0  0
   38.9020   24.8000   36.0420 O   0  0  0  0  0  0  0  0  0  0  0  0
   39.6740   24.6070   35.4810 H   0  0  0  0  0  0  0  0  0  0  0  0
   36.9590   22.2940   37.5940 O   0  0  0  0  0  0  0  0  0  0  0  0
   35.9940   22.5830   37.5130 H   0  0  0  0  0  0  0  0  0  0  0  0
  1  2  1  0  0  0  0
  1 14  1  0  0  0  0
  3  1  1  0  0  0  0
  4  5  1  0  0  0  0
  4  1  1  0  0  0  0
  5 10  1  0  0  0  0
  6  7  1  0  0  0  0
  6  5  2  0  0  0  0
  7  8  2  0  0  0  0
  8  9  1  0  0  0  0
  9 13  1  0  0  0  0
 10  9  2  0  0  0  0
 11  6  1  0  0  0  0
 12  7  1  0  0  0  0
 15 23  1  1  0  0  0
 15 22  1  0  0  0  0
 16 14  1  6  0  0  0
 16 15  1  0  0  0  0
 16 17  1  0  0  0  0
 17 18  1  0  0  0  0
 17 19  1  0  0  0  0
 19 20  1  0  0  0  0
 20 21  1  0  0  0  0
 22 25  1  6  0  0  0
 22 20  1  0  0  0  0
 24 23  1  0  0  0  0
 26 25  1  0  0  0  0
M  END
>  <minimizedAffinity>
-4.12098694

$$$$

 OpenBabel03262521533D

 26 27  0  0  1  0  0  0  0  0999 V2000
   38.5330   23.1870   32.1850 C   0  0  0  0  0  0  0  0  0  0  0  0
   39.1190   22.3100   32.5370 H   0  0  0  0  0  0  0  0  0  0  0  0
   39.2630   23.7400   31.5240 H   0  0  0  0  0  0  0  0  0  0  0  0
   37.1340   22.7520   31.1640 S   0  0  0  0  0  0  0  0  0  0  0  0
   36.4510   21.2100   31.7370 C   0  0  0  0  0  0  0  0  0  0  0  0
   36.0530   21.2140   33.0610 C   0  0  0  0  0  0  0  0  0  0  0  0
   35.5030   20.0320   33.5940 C   0  0  0  0  0  0  0  0  0  0  0  0
   35.3940   18.9480   32.7690 N   0  0  0  0  0  0  0  0  0  0  0  0
   35.8040   19.0120   31.4820 C   0  0  0  0  0  0  0  0  0  0  0  0
   36.3190   20.1150   30.9780 N   0  0  0  0  0  0  0  0  0  0  0  0
   36.1010   22.0070   33.7670 H   0  0  0  0  0  0  0  0  0  0  0  0
   35.1720   19.9610   34.6080 H   0  0  0  0  0  0  0  0  0  0  0  0
   35.7090   18.1330   30.8290 H   0  0  0  0  0  0  0  0  0  0  0  0
   38.1270   24.3160   33.5410 S   0  0  0  0  0  0  0  0  0  0  0  0
   37.7650   24.3170   36.2730 C   0  0  1  0  0  3  0  0  0  0  0  0
   38.1930   23.4410   35.1190 C   0  0  2  0  0  3  0  0  0  0  0  0
   39.5720   22.9420   35.4090 C   0  0  0  0  0  3  0  0  0  0  0  0
   39.5590   21.8330   35.3800 H   0  0  0  0  0  0  0  0  0  0  0  0
   40.0870   23.4060   36.6050 O   0  0  0  0  0  0  0  0  0  0  0  0
   39.2880   23.0480   37.6920 C   0  0  0  0  0  3  0  0  0  0  0  0
   39.6990   23.6090   38.5740 H   0  0  0  0  0  0  0  0  0  0  0  0
   37.8590   23.4680   37.5240 C   0  0  2  0  0  3  0  0  0  0  0  0
   38.6560   25.3820   36.4490 O   0  0  0  0  0  0  0  0  0  0  0  0
   39.2830   25.4720   35.7100 H   0  0  0  0  0  0  0  0  0  0  0  0
   37.0580   22.3440   37.2770 O   0  0  0  0  0  0  0  0  0  0  0  0
   36.1040   22.5740   37.5160 H   0  0  0  0  0  0  0  0  0  0  0  0
  1  2  1  0  0  0  0
  1 14  1  0  0  0  0
  3  1  1  0  0  0  0
  4  5  1  0  0  0  0
  4  1  1  0  0  0  0
  5  6  1  0  0  0  0
  6  7  2  0  0  0  0
  6 11  1  0  0  0  0
  7 12  1  0  0  0  0
  8  7  1  0  0  0  0
  9  8  2  0  0  0  0
 10  9  1  0  0  0  0
 10  5  2  0  0  0  0
 13  9  1  0  0  0  0
 15 23  1  1  0  0  0
 15 22  1  0  0  0  0
 16 14  1  6  0  0  0
 16 17  1  0  0  0  0
 16 15  1  0  0  0  0
 17 19  1  0  0  0  0
 18 17  1  0  0  0  0
 19 20  1  0  0  0  0
 20 21  1  0  0  0  0
 22 25  1  6  0  0  0
 22 20  1  0  0  0  0
 24 23  1  0  0  0  0
 25 26  1  0  0  0  0
M  END
>  <minimizedAffinity>
-4.04200125

$$$$

 OpenBabel03262521533D

 26 27  0  0  1  0  0  0  0  0999 V2000
   38.6610   23.4680   32.3870 C   0  0  0  0  0  0  0  0  0  0  0  0
   39.2670   22.6210   32.7790 H   0  0  0  0  0  0  0  0  0  0  0  0
   39.4080   24.0660   31.7880 H   0  0  0  0  0  0  0  0  0  0  0  0
   37.3710   22.9660   31.2600 S   0  0  0  0  0  0  0  0  0  0  0  0
   36.5580   21.5200   31.9090 C   0  0  0  0  0  0  0  0  0  0  0  0
   36.3320   20.5220   30.9800 C   0  0  0  0  0  0  0  0  0  0  0  0
   35.6920   19.3440   31.4130 C   0  0  0  0  0  0  0  0  0  0  0  0
   35.3300   19.2580   32.7280 N   0  0  0  0  0  0  0  0  0  0  0  0
   35.5810   20.2730   33.5850 C   0  0  0  0  0  0  0  0  0  0  0  0
   36.1800   21.3770   33.1860 N   0  0  0  0  0  0  0  0  0  0  0  0
   36.5790   20.5070   29.9470 H   0  0  0  0  0  0  0  0  0  0  0  0
   35.4850   18.5290   30.7520 H   0  0  0  0  0  0  0  0  0  0  0  0
   35.2860   20.1900   34.6400 H   0  0  0  0  0  0  0  0  0  0  0  0
   38.0910   24.5590   33.7150 S   0  0  0  0  0  0  0  0  0  0  0  0
   38.9780   22.6770   35.5230 C   0  0  1  0  0  3  0  0  0  0  0  0
   38.9480   24.1640   35.2540 C   0  0  2  0  0  3  0  0  0  0  0  0
   38.3000   24.8280   36.4260 C   0  0  0  0  0  3  0  0  0  0  0  0
   38.9990   25.5880   36.8320 H   0  0  0  0  0  0  0  0  0  0  0  0
   37.8950   23.9440   37.4080 O   0  0  0  0  0  0  0  0  0  0  0  0
   38.9610   23.1920   37.9060 C   0  0  0  0  0  3  0  0  0  0  0  0
   38.5020   22.4040   38.5620 H   0  0  0  0  0  0  0  0  0  0  0  0
   39.7230   22.4830   36.8270 C   0  0  2  0  0  3  0  0  0  0  0  0
   37.6860   22.1800   35.7280 O   0  0  0  0  0  0  0  0  0  0  0  0
   36.9950   22.8260   35.4960 H   0  0  0  0  0  0  0  0  0  0  0  0
   40.9700   23.1000   36.6430 O   0  0  0  0  0  0  0  0  0  0  0  0
   41.5910   22.4360   36.2010 H   0  0  0  0  0  0  0  0  0  0  0  0
  1  2  1  0  0  0  0
  1 14  1  0  0  0  0
  3  1  1  0  0  0  0
  4  5  1  0  0  0  0
  4  1  1  0  0  0  0
  5 10  1  0  0  0  0
  6  7  1  0  0  0  0
  6  5  2  0  0  0  0
  7  8  2  0  0  0  0
  8  9  1  0  0  0  0
  9 13  1  0  0  0  0
 10  9  2  0  0  0  0
 11  6  1  0  0  0  0
 12  7  1  0  0  0  0
 15 23  1  1  0  0  0
 15 22  1  0  0  0  0
 16 14  1  6  0  0  0
 16 15  1  0  0  0  0
 16 17  1  0  0  0  0
 17 18  1  0  0  0  0
 17 19  1  0  0  0  0
 19 20  1  0  0  0  0
 20 21  1  0  0  0  0
 22 25  1  6  0  0  0
 22 20  1  0  0  0  0
 24 23  1  0  0  0  0
 26 25  1  0  0  0  0
M  END
>  <minimizedAffinity>
-3.98085761

$$$$
