
 OpenBabel03272509423D

 41 43  0  0  1  0  0  0  0  0999 V2000
   37.0810   30.9390   49.0530 C   0  0  0  0  0  0  0  0  0  0  0  0
   36.8010   31.8670   50.0600 C   0  0  0  0  0  0  0  0  0  0  0  0
   37.3920   33.1190   50.0840 C   0  0  0  0  0  0  0  0  0  0  0  0
   38.2950   33.4740   49.0760 C   0  0  0  0  0  0  0  0  0  0  0  0
   38.5610   32.5590   48.0980 C   0  0  0  0  0  0  0  0  0  0  0  0
   37.9500   31.3130   48.1070 C   0  0  0  0  0  0  0  0  0  0  0  0
   36.0990   31.5940   50.8440 H   0  0  0  0  0  0  0  0  0  0  0  0
   37.1220   33.7660   50.8870 H   0  0  0  0  0  0  0  0  0  0  0  0
   38.7030   34.4620   49.1740 H   0  0  0  0  0  0  0  0  0  0  0  0
   39.2780   32.9750   47.3910 H   0  0  0  0  0  0  0  0  0  0  0  0
   36.4910   29.6190   49.0450 C   0  0  2  0  0  0  0  0  0  0  0  0
   36.9900   29.0690   48.1570 H   0  0  0  0  0  0  0  0  0  0  0  0
   33.6230   29.9690   46.8430 C   0  0  0  0  0  0  0  0  0  0  0  0
   32.8830   28.8250   47.0710 C   0  0  0  0  0  0  0  0  0  0  0  0
   33.3300   27.9420   48.0360 C   0  0  0  0  0  0  0  0  0  0  0  0
   34.4860   28.2290   48.7280 N   0  0  0  0  0  0  0  0  0  0  0  0
   35.1480   29.3350   48.4630 C   0  0  0  0  0  0  0  0  0  0  0  0
   34.7250   30.2130   47.5240 N   0  0  0  0  0  0  0  0  0  0  0  0
   33.2370   30.6370   46.0790 H   0  0  0  0  0  0  0  0  0  0  0  0
   31.9720   28.5590   46.5520 H   0  0  0  0  0  0  0  0  0  0  0  0
   32.8530   27.0050   48.3230 H   0  0  0  0  0  0  0  0  0  0  0  0
   36.9610   28.8630   49.9750 O   0  0  0  0  0  0  0  0  0  0  0  0
   36.4620   28.6280   50.7720 H   0  0  0  0  0  0  0  0  0  0  0  0
   38.3420   30.4320   47.0310 C   0  0  0  0  0  3  0  0  0  0  0  0
   38.8900   30.8530   45.8850 C   0  0  0  0  0  3  0  0  0  0  0  0
   39.3680   30.0440   44.7400 C   0  0  0  0  0  0  0  0  0  0  0  0
   39.0780   28.9840   44.9190 H   0  0  0  0  0  0  0  0  0  0  0  0
   40.4650   30.1390   44.6840 H   0  0  0  0  0  0  0  0  0  0  0  0
   38.6840   30.6930   43.2120 S   0  0  0  0  0  0  0  0  0  0  0  0
   40.5410   30.7100   41.1580 C   0  0  1  0  0  3  0  0  0  0  0  0
   39.4930   29.8360   41.8270 C   0  0  1  0  0  3  0  0  0  0  0  0
   40.0940   28.5640   42.3840 C   0  0  0  0  0  3  0  0  0  0  0  0
   40.7860   28.8070   43.1990 H   0  0  0  0  0  0  0  0  0  0  0  0
   40.6320   27.7600   41.3850 O   0  0  0  0  0  0  0  0  0  0  0  0
   40.9220   28.4850   40.2320 C   0  0  0  0  0  3  0  0  0  0  0  0
   41.6200   27.8940   39.6090 H   0  0  0  0  0  0  0  0  0  0  0  0
   41.6110   29.7580   40.6580 C   0  0  1  0  0  3  0  0  0  0  0  0
   39.9680   31.4730   40.1650 O   0  0  0  0  0  0  0  0  0  0  0  0
   40.4850   31.4530   39.3200 H   0  0  0  0  0  0  0  0  0  0  0  0
   42.3310   30.3220   39.6160 O   0  0  0  0  0  0  0  0  0  0  0  0
   43.2960   30.2530   39.8360 H   0  0  0  0  0  0  0  0  0  0  0  0
  1  2  1  0  0  0  0
  2  3  2  0  0  0  0
  2  7  1  0  0  0  0
  3  8  1  0  0  0  0
  4  9  1  0  0  0  0
  4  3  1  0  0  0  0
  5  6  1  0  0  0  0
  5  4  2  0  0  0  0
  6  1  2  0  0  0  0
 10  5  1  0  0  0  0
 11 12  1  6  0  0  0
 11  1  1  0  0  0  0
 11 22  1  0  0  0  0
 13 14  2  0  0  0  0
 13 18  1  0  0  0  0
 14 15  1  0  0  0  0
 15 21  1  0  0  0  0
 15 16  2  0  0  0  0
 17 16  1  0  0  0  0
 17 11  1  0  0  0  0
 18 17  2  0  0  0  0
 19 13  1  0  0  0  0
 20 14  1  0  0  0  0
 22 23  1  0  0  0  0
 24  6  1  0  0  0  0
 25 24  2  0  0  0  0
 26 27  1  0  0  0  0
 26 25  1  0  0  0  0
 28 26  1  0  0  0  0
 29 26  1  0  0  0  0
 30 38  1  6  0  0  0
 30 31  1  0  0  0  0
 31 32  1  0  0  0  0
 31 29  1  1  0  0  0
 32 33  1  0  0  0  0
 34 32  1  0  0  0  0
 35 37  1  0  0  0  0
 35 34  1  0  0  0  0
 36 35  1  0  0  0  0
 37 40  1  6  0  0  0
 37 30  1  0  0  0  0
 39 38  1  0  0  0  0
 40 41  1  0  0  0  0
M  END
>  <minimizedAffinity>
-6.03711891

>  <minimizedRMSD>
0.38232249

$$$$
