
 OpenBabel03272509423D

 41 43  0  0  1  0  0  0  0  0999 V2000
   37.0870   30.9410   49.0480 C   0  0  0  0  0  0  0  0  0  0  0  0
   36.8130   31.8860   50.0400 C   0  0  0  0  0  0  0  0  0  0  0  0
   37.4110   33.1360   50.0420 C   0  0  0  0  0  0  0  0  0  0  0  0
   38.3140   33.4690   49.0270 C   0  0  0  0  0  0  0  0  0  0  0  0
   38.5730   32.5360   48.0640 C   0  0  0  0  0  0  0  0  0  0  0  0
   37.9560   31.2940   48.0940 C   0  0  0  0  0  0  0  0  0  0  0  0
   36.1120   31.6300   50.8300 H   0  0  0  0  0  0  0  0  0  0  0  0
   37.1460   33.7970   50.8360 H   0  0  0  0  0  0  0  0  0  0  0  0
   38.7270   34.4560   49.1090 H   0  0  0  0  0  0  0  0  0  0  0  0
   39.2920   32.9370   47.3490 H   0  0  0  0  0  0  0  0  0  0  0  0
   36.4900   29.6230   49.0630 C   0  0  2  0  0  0  0  0  0  0  0  0
   36.9880   29.0540   48.1870 H   0  0  0  0  0  0  0  0  0  0  0  0
   33.6220   29.9600   46.8580 C   0  0  0  0  0  0  0  0  0  0  0  0
   32.8830   28.8170   47.0930 C   0  0  0  0  0  0  0  0  0  0  0  0
   33.3300   27.9400   48.0640 C   0  0  0  0  0  0  0  0  0  0  0  0
   34.4860   28.2310   48.7540 N   0  0  0  0  0  0  0  0  0  0  0  0
   35.1480   29.3360   48.4820 C   0  0  0  0  0  0  0  0  0  0  0  0
   34.7240   30.2080   47.5380 N   0  0  0  0  0  0  0  0  0  0  0  0
   33.2360   30.6230   46.0900 H   0  0  0  0  0  0  0  0  0  0  0  0
   31.9710   28.5470   46.5760 H   0  0  0  0  0  0  0  0  0  0  0  0
   32.8530   27.0040   48.3560 H   0  0  0  0  0  0  0  0  0  0  0  0
   36.9530   28.8820   50.0080 O   0  0  0  0  0  0  0  0  0  0  0  0
   36.4510   28.6650   50.8080 H   0  0  0  0  0  0  0  0  0  0  0  0
   38.3410   30.3940   47.0320 C   0  0  0  0  0  3  0  0  0  0  0  0
   38.8190   30.7980   45.8490 C   0  0  0  0  0  3  0  0  0  0  0  0
   39.2850   29.9700   44.7120 C   0  0  0  0  0  0  0  0  0  0  0  0
   38.6990   29.0230   44.7090 H   0  0  0  0  0  0  0  0  0  0  0  0
   40.3570   29.7590   44.8540 H   0  0  0  0  0  0  0  0  0  0  0  0
   39.1060   30.8900   43.1810 S   0  0  0  0  0  0  0  0  0  0  0  0
   40.1320   28.8150   41.6590 C   0  0  1  0  0  3  0  0  0  0  0  0
   40.3560   30.2770   42.0090 C   0  0  1  0  0  3  0  0  0  0  0  0
   40.2900   31.1660   40.7880 C   0  0  0  0  0  3  0  0  0  0  0  0
   39.2740   31.1530   40.3740 H   0  0  0  0  0  0  0  0  0  0  0  0
   41.2940   30.8710   39.8730 O   0  0  0  0  0  0  0  0  0  0  0  0
   41.7940   29.5820   40.0460 C   0  0  0  0  0  3  0  0  0  0  0  0
   42.3390   29.2880   39.1280 H   0  0  0  0  0  0  0  0  0  0  0  0
   40.6160   28.6590   40.2290 C   0  0  1  0  0  3  0  0  0  0  0  0
   40.7810   28.0000   42.5580 O   0  0  0  0  0  0  0  0  0  0  0  0
   41.3020   27.2800   42.1160 H   0  0  0  0  0  0  0  0  0  0  0  0
   40.9540   27.3420   39.9600 O   0  0  0  0  0  0  0  0  0  0  0  0
   40.4750   27.0620   39.1380 H   0  0  0  0  0  0  0  0  0  0  0  0
  1 11  1  0  0  0  0
  1  2  1  0  0  0  0
  2  3  2  0  0  0  0
  2  7  1  0  0  0  0
  3  8  1  0  0  0  0
  4  9  1  0  0  0  0
  4  3  1  0  0  0  0
  5  6  1  0  0  0  0
  5  4  2  0  0  0  0
  6  1  2  0  0  0  0
 10  5  1  0  0  0  0
 11 12  1  6  0  0  0
 11 22  1  0  0  0  0
 13 14  2  0  0  0  0
 13 18  1  0  0  0  0
 14 15  1  0  0  0  0
 15 21  1  0  0  0  0
 15 16  2  0  0  0  0
 17 16  1  0  0  0  0
 17 11  1  0  0  0  0
 18 17  2  0  0  0  0
 19 13  1  0  0  0  0
 20 14  1  0  0  0  0
 22 23  1  0  0  0  0
 24  6  1  0  0  0  0
 25 24  2  0  0  0  0
 26 28  1  0  0  0  0
 26 25  1  0  0  0  0
 27 26  1  0  0  0  0
 29 26  1  0  0  0  0
 30 31  1  0  0  0  0
 30 38  1  1  0  0  0
 31 29  1  1  0  0  0
 32 31  1  0  0  0  0
 33 32  1  0  0  0  0
 34 35  1  0  0  0  0
 34 32  1  0  0  0  0
 35 37  1  0  0  0  0
 36 35  1  0  0  0  0
 37 40  1  1  0  0  0
 37 30  1  0  0  0  0
 39 38  1  0  0  0  0
 41 40  1  0  0  0  0
M  END
>  <minimizedAffinity>
-6.2546072

>  <minimizedRMSD>
1.03639627

$$$$
