
 OpenBabel03272509423D

 41 43  0  0  1  0  0  0  0  0999 V2000
   37.0880   30.9330   49.0550 C   0  0  0  0  0  0  0  0  0  0  0  0
   36.8150   31.8790   50.0460 C   0  0  0  0  0  0  0  0  0  0  0  0
   37.4150   33.1270   50.0480 C   0  0  0  0  0  0  0  0  0  0  0  0
   38.3180   33.4590   49.0340 C   0  0  0  0  0  0  0  0  0  0  0  0
   38.5770   32.5260   48.0710 C   0  0  0  0  0  0  0  0  0  0  0  0
   37.9580   31.2840   48.1010 C   0  0  0  0  0  0  0  0  0  0  0  0
   36.1130   31.6240   50.8360 H   0  0  0  0  0  0  0  0  0  0  0  0
   37.1510   33.7890   50.8410 H   0  0  0  0  0  0  0  0  0  0  0  0
   38.7330   34.4460   49.1150 H   0  0  0  0  0  0  0  0  0  0  0  0
   39.2960   32.9260   47.3560 H   0  0  0  0  0  0  0  0  0  0  0  0
   36.4890   29.6160   49.0690 C   0  0  2  0  0  0  0  0  0  0  0  0
   36.9870   29.0460   48.1940 H   0  0  0  0  0  0  0  0  0  0  0  0
   33.6250   29.9540   46.8590 C   0  0  0  0  0  0  0  0  0  0  0  0
   32.8830   28.8130   47.0960 C   0  0  0  0  0  0  0  0  0  0  0  0
   33.3270   27.9370   48.0690 C   0  0  0  0  0  0  0  0  0  0  0  0
   34.4820   28.2280   48.7610 N   0  0  0  0  0  0  0  0  0  0  0  0
   35.1470   29.3310   48.4870 C   0  0  0  0  0  0  0  0  0  0  0  0
   34.7270   30.2010   47.5410 N   0  0  0  0  0  0  0  0  0  0  0  0
   33.2420   30.6160   46.0890 H   0  0  0  0  0  0  0  0  0  0  0  0
   31.9720   28.5450   46.5780 H   0  0  0  0  0  0  0  0  0  0  0  0
   32.8470   27.0040   48.3630 H   0  0  0  0  0  0  0  0  0  0  0  0
   36.9500   28.8750   50.0150 O   0  0  0  0  0  0  0  0  0  0  0  0
   36.4470   28.6590   50.8150 H   0  0  0  0  0  0  0  0  0  0  0  0
   38.3420   30.3840   47.0390 C   0  0  0  0  0  3  0  0  0  0  0  0
   38.6860   30.7840   45.8090 C   0  0  0  0  0  3  0  0  0  0  0  0
   39.1370   29.9600   44.6640 C   0  0  0  0  0  0  0  0  0  0  0  0
   38.2370   29.6330   44.0960 H   0  0  0  0  0  0  0  0  0  0  0  0
   39.6810   29.0870   45.0600 H   0  0  0  0  0  0  0  0  0  0  0  0
   40.2790   30.9040   43.6510 S   0  0  0  0  0  0  0  0  0  0  0  0
   40.4350   31.1440   40.8970 C   0  0  1  0  0  3  0  0  0  0  0  0
   40.3600   30.1170   42.0130 C   0  0  1  0  0  3  0  0  0  0  0  0
   41.5650   29.2040   42.0210 C   0  0  0  0  0  3  0  0  0  0  0  0
   42.4650   29.7800   42.2620 H   0  0  0  0  0  0  0  0  0  0  0  0
   41.6540   28.4470   40.8570 O   0  0  0  0  0  0  0  0  0  0  0  0
   40.9430   29.0210   39.8070 C   0  0  0  0  0  3  0  0  0  0  0  0
   41.2950   28.5750   38.8570 H   0  0  0  0  0  0  0  0  0  0  0  0
   41.2580   30.4960   39.7980 C   0  0  1  0  0  3  0  0  0  0  0  0
   39.1710   31.5160   40.4970 O   0  0  0  0  0  0  0  0  0  0  0  0
   39.0630   31.5130   39.5120 H   0  0  0  0  0  0  0  0  0  0  0  0
   40.9830   31.0690   38.5660 O   0  0  0  0  0  0  0  0  0  0  0  0
   41.8430   31.3390   38.1520 H   0  0  0  0  0  0  0  0  0  0  0  0
  1 11  1  0  0  0  0
  1  2  1  0  0  0  0
  2  3  2  0  0  0  0
  2  7  1  0  0  0  0
  3  8  1  0  0  0  0
  4  9  1  0  0  0  0
  4  3  1  0  0  0  0
  5  6  1  0  0  0  0
  5  4  2  0  0  0  0
  6  1  2  0  0  0  0
 10  5  1  0  0  0  0
 11 12  1  6  0  0  0
 11 22  1  0  0  0  0
 13 14  2  0  0  0  0
 13 18  1  0  0  0  0
 14 15  1  0  0  0  0
 15 21  1  0  0  0  0
 15 16  2  0  0  0  0
 17 16  1  0  0  0  0
 17 11  1  0  0  0  0
 18 17  2  0  0  0  0
 19 13  1  0  0  0  0
 20 14  1  0  0  0  0
 22 23  1  0  0  0  0
 24  6  1  0  0  0  0
 25 24  2  0  0  0  0
 26 28  1  0  0  0  0
 26 25  1  0  0  0  0
 27 26  1  0  0  0  0
 29 26  1  0  0  0  0
 30 38  1  6  0  0  0
 30 31  1  0  0  0  0
 31 32  1  0  0  0  0
 31 29  1  1  0  0  0
 32 33  1  0  0  0  0
 34 32  1  0  0  0  0
 35 34  1  0  0  0  0
 36 35  1  0  0  0  0
 37 40  1  6  0  0  0
 37 35  1  0  0  0  0
 37 30  1  0  0  0  0
 39 38  1  0  0  0  0
 41 40  1  0  0  0  0
M  END
>  <minimizedAffinity>
-6.13277912

>  <minimizedRMSD>
1.0120331

$$$$
