
 OpenBabel03262520573D

 22 23  0  0  1  0  0  0  0  0999 V2000
   39.8400   30.8860   45.7310 C   0  0  2  0  0  3  0  0  0  0  0  0
   38.5380   31.5310   46.0590 C   0  0  2  0  0  3  0  0  0  0  0  0
   38.0780   32.5470   45.0550 C   0  0  0  0  0  3  0  0  0  0  0  0
   38.2530   33.5620   45.4800 H   0  0  0  0  0  0  0  0  0  0  0  0
   38.6900   32.4250   43.8120 O   0  0  0  0  0  0  0  0  0  0  0  0
   40.0380   32.7000   43.9990 C   0  0  0  0  0  3  0  0  0  0  0  0
   40.2440   33.6390   44.5150 H   0  0  0  0  0  0  0  0  0  0  0  0
   40.6480   31.4910   44.6480 C   0  0  2  0  0  3  0  0  0  0  0  0
   39.6090   29.5160   45.4670 O   0  0  0  0  0  0  0  0  0  0  0  0
   39.1440   29.0940   46.2340 H   0  0  0  0  0  0  0  0  0  0  0  0
   40.9110   30.5340   43.6640 O   0  0  0  0  0  0  0  0  0  0  0  0
   41.1930   29.7110   44.1470 H   0  0  0  0  0  0  0  0  0  0  0  0
   38.6250   32.3170   47.7080 S   0  0  0  0  0  0  0  0  0  0  0  0
   37.4320   30.3050   51.0510 C   0  0  0  0  0  0  0  0  0  0  0  0
   38.2320   31.0470   50.1710 C   0  0  0  0  0  0  0  0  0  0  0  0
   37.7190   31.3810   48.9220 C   0  0  0  0  0  0  0  0  0  0  0  0
   36.4650   30.9740   48.6120 N   0  0  0  0  0  0  0  0  0  0  0  0
   35.7130   30.2610   49.4730 C   0  0  0  0  0  0  0  0  0  0  0  0
   36.1990   29.9340   50.6790 N   0  0  0  0  0  0  0  0  0  0  0  0
   37.9660   30.1250   51.9750 H   0  0  0  0  0  0  0  0  0  0  0  0
   39.2330   31.4120   50.3280 H   0  0  0  0  0  0  0  0  0  0  0  0
   34.7080   29.9210   49.2580 H   0  0  0  0  0  0  0  0  0  0  0  0
  1  9  1  6  0  0  0
  1  2  1  0  0  0  0
  2 13  1  1  0  0  0
  3  4  1  0  0  0  0
  3  2  1  0  0  0  0
  5  6  1  0  0  0  0
  5  3  1  0  0  0  0
  6  7  1  0  0  0  0
  6  8  1  0  0  0  0
  8 11  1  6  0  0  0
  8  1  1  0  0  0  0
  9 10  1  0  0  0  0
 11 12  1  0  0  0  0
 13 16  1  0  0  0  0
 14 20  1  0  0  0  0
 15 21  1  0  0  0  0
 15 14  2  0  0  0  0
 16 15  1  0  0  0  0
 17 16  2  0  0  0  0
 17 18  1  0  0  0  0
 18 19  2  0  0  0  0
 19 14  1  0  0  0  0
 22 18  1  0  0  0  0
M  END
>  <minimizedAffinity>
-4.94349194

>  <minimizedRMSD>
2.10989928

$$$$
