
 OpenBabel03272501053D

 33 35  0  0  1  0  0  0  0  0999 V2000
   38.8740   32.3060   47.8380 C   0  0  2  0  0  0  0  0  0  0  0  0
   37.9560   32.7270   49.0080 C   0  0  2  0  0  0  0  0  0  0  0  0
   38.9000   33.5090   49.8210 C   0  0  0  0  0  0  0  0  0  0  0  0
   39.6900   34.2220   48.9270 O   0  0  0  0  0  0  0  0  0  0  0  0
   39.6230   33.6350   47.7000 C   0  0  0  0  0  0  0  0  0  0  0  0
   39.5680   31.4980   48.1420 H   0  0  0  0  0  0  0  0  0  0  0  0
   37.2260   33.4130   48.4860 H   0  0  0  0  0  0  0  0  0  0  0  0
   38.3760   34.2130   50.5010 H   0  0  0  0  0  0  0  0  0  0  0  0
   39.5480   32.8010   50.4080 H   0  0  0  0  0  0  0  0  0  0  0  0
   40.6060   33.4470   47.2050 H   0  0  0  0  0  0  0  0  0  0  0  0
   39.0030   34.2550   47.0040 H   0  0  0  0  0  0  0  0  0  0  0  0
   37.3070   29.7150   51.2050 C   0  0  0  0  0  0  0  0  0  0  0  0
   37.9820   30.8300   50.6410 C   0  0  0  0  0  0  0  0  0  0  0  0
   37.3240   31.5920   49.6420 C   0  0  0  0  0  0  0  0  0  0  0  0
   36.0610   31.1940   49.2820 N   0  0  0  0  0  0  0  0  0  0  0  0
   35.4520   30.1450   49.8280 C   0  0  0  0  0  0  0  0  0  0  0  0
   36.0600   29.3940   50.7890 N   0  0  0  0  0  0  0  0  0  0  0  0
   37.7900   29.1220   51.9680 H   0  0  0  0  0  0  0  0  0  0  0  0
   38.9730   31.0760   50.9780 H   0  0  0  0  0  0  0  0  0  0  0  0
   34.4420   29.8940   49.4830 H   0  0  0  0  0  0  0  0  0  0  0  0
   38.1370   32.0400   46.7070 O   0  0  0  0  0  0  0  0  0  0  0  0
   38.4990   32.7250   44.5040 C   0  0  1  0  0  0  0  0  0  0  0  0
   38.9130   31.7500   45.6170 C   0  0  2  0  0  0  0  0  0  0  0  0
   38.7520   30.3610   45.0950 C   0  0  0  0  0  0  0  0  0  0  0  0
   37.9950   29.8300   45.7110 H   0  0  0  0  0  0  0  0  0  0  0  0
   38.2780   30.2930   43.7870 O   0  0  0  0  0  0  0  0  0  0  0  0
   39.1240   30.9530   42.8960 C   0  0  0  0  0  0  0  0  0  0  0  0
   38.5990   30.9670   41.9100 H   0  0  0  0  0  0  0  0  0  0  0  0
   39.3510   32.3820   43.3070 C   0  0  1  0  0  0  0  0  0  0  0  0
   37.1410   32.6570   44.2570 O   0  0  0  0  0  0  0  0  0  0  0  0
   36.6840   32.1260   44.9410 H   0  0  0  0  0  0  0  0  0  0  0  0
   39.1420   33.2490   42.2430 O   0  0  0  0  0  0  0  0  0  0  0  0
   38.2520   33.6540   42.3080 H   0  0  0  0  0  0  0  0  0  0  0  0
  1  6  1  1  0  0  0
  1  2  1  0  0  0  0
  2  7  1  6  0  0  0
  2 14  1  0  0  0  0
  2  3  1  0  0  0  0
  3  9  1  0  0  0  0
  3  8  1  0  0  0  0
  4  3  1  0  0  0  0
  5  1  1  0  0  0  0
  5  4  1  0  0  0  0
 10  5  1  0  0  0  0
 11  5  1  0  0  0  0
 12 18  1  0  0  0  0
 13 19  1  0  0  0  0
 13 12  2  0  0  0  0
 14 13  1  0  0  0  0
 15 14  2  0  0  0  0
 15 16  1  0  0  0  0
 16 17  2  0  0  0  0
 17 12  1  0  0  0  0
 20 16  1  0  0  0  0
 21  1  1  0  0  0  0
 22 30  1  6  0  0  0
 22 23  1  0  0  0  0
 23 21  1  1  0  0  0
 24 23  1  0  0  0  0
 24 25  1  0  0  0  0
 26 24  1  0  0  0  0
 27 29  1  0  0  0  0
 27 26  1  0  0  0  0
 28 27  1  0  0  0  0
 29 32  1  6  0  0  0
 29 22  1  0  0  0  0
 30 31  1  0  0  0  0
 32 33  1  0  0  0  0
M  END
>  <minimizedAffinity>
-6.0628705

>  <minimizedRMSD>
3.15705919

$$$$
