
 OpenBabel03272508273D

 41 44  0  0  1  0  0  0  0  0999 V2000
   33.6300   28.9240   47.2050 C   0  0  2  0  0  0  0  0  0  0  0  0
   34.3990   28.0740   48.2080 C   0  0  2  0  0  0  0  0  0  0  0  0
   33.5270   27.8040   49.2160 O   0  0  0  0  0  0  0  0  0  0  0  0
   32.2410   27.8900   48.7730 C   0  0  0  0  0  0  0  0  0  0  0  0
   32.2710   28.2170   47.2910 C   0  0  1  0  0  0  0  0  0  0  0  0
   33.4730   29.9430   47.5920 H   0  0  0  0  0  0  0  0  0  0  0  0
   34.6870   27.1270   47.7190 H   0  0  0  0  0  0  0  0  0  0  0  0
   31.6960   26.9220   48.8880 H   0  0  0  0  0  0  0  0  0  0  0  0
   31.6390   28.6610   49.3140 H   0  0  0  0  0  0  0  0  0  0  0  0
   32.4110   27.2780   46.7370 H   0  0  0  0  0  0  0  0  0  0  0  0
   35.4840   30.2970   48.9650 C   0  0  1  0  0  0  0  0  0  0  0  0
   35.5650   28.8860   48.6730 C   0  0  1  0  0  0  0  0  0  0  0  0
   35.7150   29.2940   50.1010 C   0  0  0  0  0  0  0  0  0  0  0  0
   34.5840   30.8990   49.1780 H   0  0  0  0  0  0  0  0  0  0  0  0
   36.5280   28.5430   48.1970 H   0  0  0  0  0  0  0  0  0  0  0  0
   36.7230   29.2640   50.5830 H   0  0  0  0  0  0  0  0  0  0  0  0
   34.9180   29.1120   50.8320 H   0  0  0  0  0  0  0  0  0  0  0  0
   36.6830   31.2110   48.7630 C   0  0  0  0  0  0  0  0  0  0  0  0
   36.9390   32.1540   49.7590 C   0  0  0  0  0  0  0  0  0  0  0  0
   38.0290   32.9830   49.5060 C   0  0  0  0  0  0  0  0  0  0  0  0
   38.7640   32.8580   48.3660 N   0  0  0  0  0  0  0  0  0  0  0  0
   38.4760   31.9250   47.4280 C   0  0  0  0  0  0  0  0  0  0  0  0
   37.4230   31.0940   47.6310 N   0  0  0  0  0  0  0  0  0  0  0  0
   36.3250   32.2090   50.6410 H   0  0  0  0  0  0  0  0  0  0  0  0
   38.2870   33.7350   50.2290 H   0  0  0  0  0  0  0  0  0  0  0  0
   39.0390   31.7990   46.5130 H   0  0  0  0  0  0  0  0  0  0  0  0
   34.1380   28.8650   45.9220 O   0  0  0  0  0  0  0  0  0  0  0  0
   33.9170   29.7310   45.4950 H   0  0  0  0  0  0  0  0  0  0  0  0
   31.2520   29.0220   46.8810 O   0  0  0  0  0  0  0  0  0  0  0  0
   29.0030   28.4950   47.5890 C   0  0  2  0  0  3  0  0  0  0  0  0
   30.0840   28.4110   46.5350 C   0  0  1  0  0  3  0  0  0  0  0  0
   29.4720   28.8950   45.2510 C   0  0  0  0  0  3  0  0  0  0  0  0
   29.2460   29.9770   45.2540 H   0  0  0  0  0  0  0  0  0  0  0  0
   28.2830   28.2370   45.0360 O   0  0  0  0  0  0  0  0  0  0  0  0
   28.1040   27.1080   45.8030 C   0  0  0  0  0  3  0  0  0  0  0  0
   28.7960   26.2710   45.5640 H   0  0  0  0  0  0  0  0  0  0  0  0
   28.0240   27.3750   47.2930 C   0  0  2  0  0  3  0  0  0  0  0  0
   28.2920   29.6890   47.3640 O   0  0  0  0  0  0  0  0  0  0  0  0
   27.4750   29.5420   46.8260 H   0  0  0  0  0  0  0  0  0  0  0  0
   26.7330   27.7200   47.6850 O   0  0  0  0  0  0  0  0  0  0  0  0
   26.7720   28.1700   48.5680 H   0  0  0  0  0  0  0  0  0  0  0  0
  1  5  1  0  0  0  0
  1  6  1  1  0  0  0
  1  2  1  0  0  0  0
  2  7  1  6  0  0  0
  2 12  1  0  0  0  0
  2  3  1  0  0  0  0
  4  8  1  0  0  0  0
  4  3  1  0  0  0  0
  4  9  1  0  0  0  0
  5 10  1  6  0  0  0
  5  4  1  0  0  0  0
 11 14  1  6  0  0  0
 11 13  1  0  0  0  0
 12 15  1  6  0  0  0
 12 11  1  0  0  0  0
 12 13  1  0  0  0  0
 13 16  1  0  0  0  0
 13 17  1  0  0  0  0
 18 11  1  0  0  0  0
 18 19  1  0  0  0  0
 19 24  1  0  0  0  0
 20 19  2  0  0  0  0
 20 25  1  0  0  0  0
 21 20  1  0  0  0  0
 22 23  1  0  0  0  0
 22 21  2  0  0  0  0
 23 18  2  0  0  0  0
 26 22  1  0  0  0  0
 27  1  1  0  0  0  0
 28 27  1  0  0  0  0
 29  5  1  0  0  0  0
 30 38  1  6  0  0  0
 31 29  1  1  0  0  0
 31 30  1  0  0  0  0
 32 33  1  0  0  0  0
 32 31  1  0  0  0  0
 34 32  1  0  0  0  0
 34 35  1  0  0  0  0
 35 37  1  0  0  0  0
 36 35  1  0  0  0  0
 37 30  1  0  0  0  0
 37 40  1  6  0  0  0
 39 38  1  0  0  0  0
 40 41  1  0  0  0  0
M  END
>  <minimizedAffinity>
-5.65993214

>  <minimizedRMSD>
1.16644001

$$$$
