
 OpenBabel03272508263D

 41 44  0  0  1  0  0  0  0  0999 V2000
   33.8620   29.0060   47.2930 C   0  0  2  0  0  0  0  0  0  0  0  0
   34.6200   28.1960   48.3360 C   0  0  2  0  0  0  0  0  0  0  0  0
   33.7410   27.9780   49.3510 O   0  0  0  0  0  0  0  0  0  0  0  0
   32.4580   28.0550   48.8980 C   0  0  0  0  0  0  0  0  0  0  0  0
   32.4970   28.3140   47.4030 C   0  0  1  0  0  0  0  0  0  0  0  0
   33.7110   30.0430   47.6330 H   0  0  0  0  0  0  0  0  0  0  0  0
   34.9030   27.2260   47.8920 H   0  0  0  0  0  0  0  0  0  0  0  0
   31.9050   27.0970   49.0540 H   0  0  0  0  0  0  0  0  0  0  0  0
   31.8600   28.8530   49.4010 H   0  0  0  0  0  0  0  0  0  0  0  0
   32.6330   27.3500   46.8930 H   0  0  0  0  0  0  0  0  0  0  0  0
   35.7120   30.4370   49.0300 C   0  0  1  0  0  0  0  0  0  0  0  0
   35.7900   29.0190   48.7710 C   0  0  1  0  0  0  0  0  0  0  0  0
   35.9550   29.4600   50.1870 C   0  0  0  0  0  0  0  0  0  0  0  0
   34.8130   31.0430   49.2390 H   0  0  0  0  0  0  0  0  0  0  0  0
   36.7480   28.6660   48.2930 H   0  0  0  0  0  0  0  0  0  0  0  0
   36.9680   29.4420   50.6590 H   0  0  0  0  0  0  0  0  0  0  0  0
   35.1660   29.2950   50.9300 H   0  0  0  0  0  0  0  0  0  0  0  0
   36.9080   31.3460   48.7950 C   0  0  0  0  0  0  0  0  0  0  0  0
   37.1040   32.3860   49.7030 C   0  0  0  0  0  0  0  0  0  0  0  0
   38.1950   33.2050   49.4200 C   0  0  0  0  0  0  0  0  0  0  0  0
   38.9860   32.9800   48.3330 N   0  0  0  0  0  0  0  0  0  0  0  0
   38.7540   31.9540   47.4800 C   0  0  0  0  0  0  0  0  0  0  0  0
   37.7030   31.1290   47.7150 N   0  0  0  0  0  0  0  0  0  0  0  0
   36.4480   32.5180   50.5450 H   0  0  0  0  0  0  0  0  0  0  0  0
   38.4100   34.0290   50.0760 H   0  0  0  0  0  0  0  0  0  0  0  0
   39.3620   31.7480   46.6100 H   0  0  0  0  0  0  0  0  0  0  0  0
   34.3760   28.8860   46.0160 O   0  0  0  0  0  0  0  0  0  0  0  0
   34.1640   29.7330   45.5490 H   0  0  0  0  0  0  0  0  0  0  0  0
   31.4870   29.1080   46.9530 O   0  0  0  0  0  0  0  0  0  0  0  0
   30.5310   29.5330   44.7740 C   0  0  2  0  0  3  0  0  0  0  0  0
   30.7060   28.6060   45.9560 C   0  0  1  0  0  3  0  0  0  0  0  0
   31.1580   27.2840   45.4030 C   0  0  0  0  0  3  0  0  0  0  0  0
   32.1810   27.3110   44.9870 H   0  0  0  0  0  0  0  0  0  0  0  0
   30.3180   26.9060   44.3810 O   0  0  0  0  0  0  0  0  0  0  0  0
   29.1280   27.5960   44.3280 C   0  0  0  0  0  3  0  0  0  0  0  0
   28.4420   27.3980   45.1810 H   0  0  0  0  0  0  0  0  0  0  0  0
   29.2810   29.0770   44.0490 C   0  0  2  0  0  3  0  0  0  0  0  0
   31.5960   29.2830   43.8880 O   0  0  0  0  0  0  0  0  0  0  0  0
   31.3450   28.6500   43.1700 H   0  0  0  0  0  0  0  0  0  0  0  0
   29.3700   29.3360   42.6820 O   0  0  0  0  0  0  0  0  0  0  0  0
   29.7610   30.2370   42.5490 H   0  0  0  0  0  0  0  0  0  0  0  0
  1  5  1  0  0  0  0
  1  6  1  1  0  0  0
  1  2  1  0  0  0  0
  2  7  1  6  0  0  0
  2 12  1  0  0  0  0
  2  3  1  0  0  0  0
  4  8  1  0  0  0  0
  4  3  1  0  0  0  0
  4  9  1  0  0  0  0
  5 10  1  6  0  0  0
  5  4  1  0  0  0  0
 11 14  1  6  0  0  0
 11 13  1  0  0  0  0
 12 15  1  6  0  0  0
 12 11  1  0  0  0  0
 12 13  1  0  0  0  0
 13 16  1  0  0  0  0
 13 17  1  0  0  0  0
 18 11  1  0  0  0  0
 18 19  1  0  0  0  0
 19 24  1  0  0  0  0
 20 19  2  0  0  0  0
 20 25  1  0  0  0  0
 21 20  1  0  0  0  0
 22 23  1  0  0  0  0
 22 21  2  0  0  0  0
 23 18  2  0  0  0  0
 26 22  1  0  0  0  0
 27  1  1  0  0  0  0
 28 27  1  0  0  0  0
 29  5  1  0  0  0  0
 30 38  1  6  0  0  0
 30 31  1  0  0  0  0
 31 29  1  1  0  0  0
 32 31  1  0  0  0  0
 33 32  1  0  0  0  0
 34 32  1  0  0  0  0
 35 34  1  0  0  0  0
 35 36  1  0  0  0  0
 37 40  1  6  0  0  0
 37 35  1  0  0  0  0
 37 30  1  0  0  0  0
 39 38  1  0  0  0  0
 41 40  1  0  0  0  0
M  END
>  <minimizedAffinity>
-4.86179495

>  <minimizedRMSD>
0.22013855

$$$$
