
 OpenBabel03272508273D

 41 44  0  0  1  0  0  0  0  0999 V2000
   33.8110   28.9570   47.2700 C   0  0  2  0  0  0  0  0  0  0  0  0
   34.5620   28.1600   48.3270 C   0  0  2  0  0  0  0  0  0  0  0  0
   33.6800   27.9640   49.3440 O   0  0  0  0  0  0  0  0  0  0  0  0
   32.3990   28.0410   48.8890 C   0  0  0  0  0  0  0  0  0  0  0  0
   32.4420   28.2760   47.3890 C   0  0  1  0  0  0  0  0  0  0  0  0
   33.6660   30.0010   47.5930 H   0  0  0  0  0  0  0  0  0  0  0  0
   34.8400   27.1810   47.9000 H   0  0  0  0  0  0  0  0  0  0  0  0
   31.8390   27.0900   49.0590 H   0  0  0  0  0  0  0  0  0  0  0  0
   31.8050   28.8520   49.3770 H   0  0  0  0  0  0  0  0  0  0  0  0
   32.5720   27.3030   46.8950 H   0  0  0  0  0  0  0  0  0  0  0  0
   35.6560   30.3950   49.0360 C   0  0  1  0  0  0  0  0  0  0  0  0
   35.7370   28.9830   48.7500 C   0  0  1  0  0  0  0  0  0  0  0  0
   35.9310   29.4000   50.1700 C   0  0  0  0  0  0  0  0  0  0  0  0
   34.7590   30.9920   49.2750 H   0  0  0  0  0  0  0  0  0  0  0  0
   36.6860   28.6430   48.2450 H   0  0  0  0  0  0  0  0  0  0  0  0
   36.9540   29.3800   50.6190 H   0  0  0  0  0  0  0  0  0  0  0  0
   35.1590   29.2170   50.9270 H   0  0  0  0  0  0  0  0  0  0  0  0
   36.8420   31.3150   48.7900 C   0  0  0  0  0  0  0  0  0  0  0  0
   37.0800   32.3110   49.7370 C   0  0  0  0  0  0  0  0  0  0  0  0
   38.1580   33.1440   49.4440 C   0  0  0  0  0  0  0  0  0  0  0  0
   38.8980   32.9720   48.3130 N   0  0  0  0  0  0  0  0  0  0  0  0
   38.6270   31.9870   47.4230 C   0  0  0  0  0  0  0  0  0  0  0  0
   37.5870   31.1520   47.6660 N   0  0  0  0  0  0  0  0  0  0  0  0
   36.4630   32.4020   50.6130 H   0  0  0  0  0  0  0  0  0  0  0  0
   38.4030   33.9350   50.1280 H   0  0  0  0  0  0  0  0  0  0  0  0
   39.1940   31.8240   46.5170 H   0  0  0  0  0  0  0  0  0  0  0  0
   34.3250   28.8130   45.9960 O   0  0  0  0  0  0  0  0  0  0  0  0
   34.1200   29.6540   45.5150 H   0  0  0  0  0  0  0  0  0  0  0  0
   31.4370   29.0690   46.9240 O   0  0  0  0  0  0  0  0  0  0  0  0
   30.9790   29.5070   44.5930 C   0  0  2  0  0  3  0  0  0  0  0  0
   30.7750   28.6380   45.8140 C   0  0  1  0  0  3  0  0  0  0  0  0
   31.0880   27.2290   45.3980 C   0  0  0  0  0  3  0  0  0  0  0  0
   32.1590   27.0650   45.1820 H   0  0  0  0  0  0  0  0  0  0  0  0
   30.3960   26.9290   44.2460 O   0  0  0  0  0  0  0  0  0  0  0  0
   29.3700   27.7980   43.9490 C   0  0  0  0  0  3  0  0  0  0  0  0
   28.5170   27.7680   44.6620 H   0  0  0  0  0  0  0  0  0  0  0  0
   29.8210   29.2140   43.6580 C   0  0  2  0  0  3  0  0  0  0  0  0
   32.1280   29.0330   43.9320 O   0  0  0  0  0  0  0  0  0  0  0  0
   31.9080   28.4060   43.2000 H   0  0  0  0  0  0  0  0  0  0  0  0
   30.2000   29.3710   42.3250 O   0  0  0  0  0  0  0  0  0  0  0  0
   30.7570   30.1860   42.2410 H   0  0  0  0  0  0  0  0  0  0  0  0
  1  5  1  0  0  0  0
  1  6  1  1  0  0  0
  1  2  1  0  0  0  0
  2  7  1  6  0  0  0
  2 12  1  0  0  0  0
  2  3  1  0  0  0  0
  4  8  1  0  0  0  0
  4  3  1  0  0  0  0
  4  9  1  0  0  0  0
  5 10  1  6  0  0  0
  5  4  1  0  0  0  0
 11 14  1  6  0  0  0
 11 13  1  0  0  0  0
 12 15  1  6  0  0  0
 12 11  1  0  0  0  0
 12 13  1  0  0  0  0
 13 16  1  0  0  0  0
 13 17  1  0  0  0  0
 18 11  1  0  0  0  0
 18 19  1  0  0  0  0
 19 24  1  0  0  0  0
 20 19  2  0  0  0  0
 20 25  1  0  0  0  0
 21 20  1  0  0  0  0
 22 23  1  0  0  0  0
 22 21  2  0  0  0  0
 23 18  2  0  0  0  0
 26 22  1  0  0  0  0
 27  1  1  0  0  0  0
 28 27  1  0  0  0  0
 29  5  1  0  0  0  0
 30 38  1  6  0  0  0
 30 31  1  0  0  0  0
 31 29  1  1  0  0  0
 32 31  1  0  0  0  0
 33 32  1  0  0  0  0
 34 32  1  0  0  0  0
 35 34  1  0  0  0  0
 35 36  1  0  0  0  0
 37 40  1  6  0  0  0
 37 35  1  0  0  0  0
 37 30  1  0  0  0  0
 39 38  1  0  0  0  0
 41 40  1  0  0  0  0
M  END
>  <minimizedAffinity>
-4.82856131

>  <minimizedRMSD>
0.610086858

$$$$
