
 OpenBabel03272508273D

 41 44  0  0  1  0  0  0  0  0999 V2000
   33.9600   28.9550   47.3490 C   0  0  2  0  0  0  0  0  0  0  0  0
   34.7230   28.1980   48.4260 C   0  0  2  0  0  0  0  0  0  0  0  0
   33.8550   28.0450   49.4620 O   0  0  0  0  0  0  0  0  0  0  0  0
   32.5680   28.1080   49.0210 C   0  0  0  0  0  0  0  0  0  0  0  0
   32.5900   28.2840   47.5140 C   0  0  1  0  0  0  0  0  0  0  0  0
   33.8220   30.0110   47.6330 H   0  0  0  0  0  0  0  0  0  0  0  0
   34.9920   27.2020   48.0340 H   0  0  0  0  0  0  0  0  0  0  0  0
   32.0080   27.1650   49.2370 H   0  0  0  0  0  0  0  0  0  0  0  0
   31.9820   28.9390   49.4860 H   0  0  0  0  0  0  0  0  0  0  0  0
   32.7100   27.2920   47.0560 H   0  0  0  0  0  0  0  0  0  0  0  0
   35.8210   30.4430   49.0950 C   0  0  1  0  0  0  0  0  0  0  0  0
   35.9060   29.0330   48.8000 C   0  0  1  0  0  0  0  0  0  0  0  0
   36.1570   29.4480   50.2120 C   0  0  0  0  0  0  0  0  0  0  0  0
   34.9290   31.0290   49.3750 H   0  0  0  0  0  0  0  0  0  0  0  0
   36.8360   28.7060   48.2530 H   0  0  0  0  0  0  0  0  0  0  0  0
   37.1990   29.4380   50.6150 H   0  0  0  0  0  0  0  0  0  0  0  0
   35.4210   29.2530   51.0020 H   0  0  0  0  0  0  0  0  0  0  0  0
   36.9840   31.3780   48.8000 C   0  0  0  0  0  0  0  0  0  0  0  0
   37.1720   32.4530   49.6700 C   0  0  0  0  0  0  0  0  0  0  0  0
   38.2310   33.2930   49.3330 C   0  0  0  0  0  0  0  0  0  0  0  0
   39.0010   33.0550   48.2350 N   0  0  0  0  0  0  0  0  0  0  0  0
   38.7790   31.9960   47.4210 C   0  0  0  0  0  0  0  0  0  0  0  0
   37.7590   31.1500   47.7090 N   0  0  0  0  0  0  0  0  0  0  0  0
   36.5320   32.5930   50.5240 H   0  0  0  0  0  0  0  0  0  0  0  0
   38.4360   34.1430   49.9570 H   0  0  0  0  0  0  0  0  0  0  0  0
   39.3710   31.7790   46.5430 H   0  0  0  0  0  0  0  0  0  0  0  0
   34.4550   28.7600   46.0740 O   0  0  0  0  0  0  0  0  0  0  0  0
   34.2450   29.5820   45.5640 H   0  0  0  0  0  0  0  0  0  0  0  0
   31.5810   29.0610   47.0320 O   0  0  0  0  0  0  0  0  0  0  0  0
   30.2430   27.0560   46.8650 C   0  0  2  0  0  3  0  0  0  0  0  0
   30.5940   28.4290   46.3370 C   0  0  1  0  0  3  0  0  0  0  0  0
   29.3050   29.1940   46.2320 C   0  0  0  0  0  3  0  0  0  0  0  0
   28.8610   29.4380   47.2130 H   0  0  0  0  0  0  0  0  0  0  0  0
   28.3800   28.4350   45.5490 O   0  0  0  0  0  0  0  0  0  0  0  0
   28.9080   27.3710   44.8550 C   0  0  0  0  0  3  0  0  0  0  0  0
   29.5510   27.6540   43.9930 H   0  0  0  0  0  0  0  0  0  0  0  0
   29.5590   26.3200   45.7300 C   0  0  2  0  0  3  0  0  0  0  0  0
   29.2550   27.2310   47.8540 O   0  0  0  0  0  0  0  0  0  0  0  0
   28.3410   27.1060   47.4970 H   0  0  0  0  0  0  0  0  0  0  0  0
   28.6250   25.4050   46.2160 O   0  0  0  0  0  0  0  0  0  0  0  0
   29.0110   24.9330   46.9980 H   0  0  0  0  0  0  0  0  0  0  0  0
  1  5  1  0  0  0  0
  1  6  1  1  0  0  0
  1  2  1  0  0  0  0
  2  7  1  6  0  0  0
  2 12  1  0  0  0  0
  2  3  1  0  0  0  0
  4  8  1  0  0  0  0
  4  3  1  0  0  0  0
  4  9  1  0  0  0  0
  5 10  1  6  0  0  0
  5  4  1  0  0  0  0
 11 14  1  1  0  0  0
 11 13  1  0  0  0  0
 12 15  1  6  0  0  0
 12 11  1  0  0  0  0
 12 13  1  0  0  0  0
 13 16  1  0  0  0  0
 13 17  1  0  0  0  0
 18 11  1  0  0  0  0
 18 19  1  0  0  0  0
 19 24  1  0  0  0  0
 20 19  2  0  0  0  0
 20 25  1  0  0  0  0
 21 20  1  0  0  0  0
 22 23  1  0  0  0  0
 22 21  2  0  0  0  0
 23 18  2  0  0  0  0
 26 22  1  0  0  0  0
 27  1  1  0  0  0  0
 28 27  1  0  0  0  0
 29  5  1  0  0  0  0
 30 38  1  1  0  0  0
 31 30  1  0  0  0  0
 31 29  1  1  0  0  0
 32 31  1  0  0  0  0
 32 33  1  0  0  0  0
 34 32  1  0  0  0  0
 35 34  1  0  0  0  0
 35 37  1  0  0  0  0
 36 35  1  0  0  0  0
 37 40  1  1  0  0  0
 37 30  1  0  0  0  0
 39 38  1  0  0  0  0
 40 41  1  0  0  0  0
M  END
>  <minimizedAffinity>
-5.2522788

>  <minimizedRMSD>
1.2132436

$$$$
