
 OpenBabel03272508263D

 41 44  0  0  1  0  0  0  0  0999 V2000
   33.9920   29.0190   47.3790 C   0  0  2  0  0  0  0  0  0  0  0  0
   34.7530   28.2530   48.4530 C   0  0  2  0  0  0  0  0  0  0  0  0
   33.8740   28.0700   49.4750 O   0  0  0  0  0  0  0  0  0  0  0  0
   32.5920   28.1230   49.0190 C   0  0  0  0  0  0  0  0  0  0  0  0
   32.6300   28.3250   47.5150 C   0  0  1  0  0  0  0  0  0  0  0  0
   33.8360   30.0680   47.6790 H   0  0  0  0  0  0  0  0  0  0  0  0
   35.0410   27.2680   48.0460 H   0  0  0  0  0  0  0  0  0  0  0  0
   32.0420   27.1690   49.2110 H   0  0  0  0  0  0  0  0  0  0  0  0
   31.9890   28.9380   49.4910 H   0  0  0  0  0  0  0  0  0  0  0  0
   32.7700   27.3430   47.0420 H   0  0  0  0  0  0  0  0  0  0  0  0
   35.8310   30.5210   49.0740 C   0  0  1  0  0  0  0  0  0  0  0  0
   35.9190   29.0970   48.8550 C   0  0  1  0  0  0  0  0  0  0  0  0
   36.0890   29.5810   50.2580 C   0  0  0  0  0  0  0  0  0  0  0  0
   34.9290   31.1270   49.2690 H   0  0  0  0  0  0  0  0  0  0  0  0
   36.8770   28.7370   48.3830 H   0  0  0  0  0  0  0  0  0  0  0  0
   37.1050   29.5850   50.7230 H   0  0  0  0  0  0  0  0  0  0  0  0
   35.3050   29.4320   51.0100 H   0  0  0  0  0  0  0  0  0  0  0  0
   37.0190   31.4320   48.8040 C   0  0  0  0  0  0  0  0  0  0  0  0
   37.2100   32.5020   49.6780 C   0  0  0  0  0  0  0  0  0  0  0  0
   38.2930   33.3200   49.3650 C   0  0  0  0  0  0  0  0  0  0  0  0
   39.0820   33.0670   48.2820 N   0  0  0  0  0  0  0  0  0  0  0  0
   38.8550   32.0130   47.4630 C   0  0  0  0  0  0  0  0  0  0  0  0
   37.8120   31.1880   47.7290 N   0  0  0  0  0  0  0  0  0  0  0  0
   36.5570   32.6560   50.5190 H   0  0  0  0  0  0  0  0  0  0  0  0
   38.5040   34.1660   49.9930 H   0  0  0  0  0  0  0  0  0  0  0  0
   39.4610   31.7850   46.5970 H   0  0  0  0  0  0  0  0  0  0  0  0
   34.5060   28.8520   46.1070 O   0  0  0  0  0  0  0  0  0  0  0  0
   34.2910   29.6800   45.6090 H   0  0  0  0  0  0  0  0  0  0  0  0
   31.6170   29.0970   47.0340 O   0  0  0  0  0  0  0  0  0  0  0  0
   30.0450   27.2620   47.0160 C   0  0  2  0  0  3  0  0  0  0  0  0
   30.6440   28.4630   46.3200 C   0  0  1  0  0  3  0  0  0  0  0  0
   29.4960   29.3360   45.9000 C   0  0  0  0  0  3  0  0  0  0  0  0
   28.9720   29.8090   46.7510 H   0  0  0  0  0  0  0  0  0  0  0  0
   28.5660   28.5740   45.2280 O   0  0  0  0  0  0  0  0  0  0  0  0
   29.0240   27.3460   44.8090 C   0  0  0  0  0  3  0  0  0  0  0  0
   29.8010   27.3880   44.0140 H   0  0  0  0  0  0  0  0  0  0  0  0
   29.4100   26.4080   45.9350 C   0  0  2  0  0  3  0  0  0  0  0  0
   28.9770   27.7290   47.8060 O   0  0  0  0  0  0  0  0  0  0  0  0
   28.1050   27.6430   47.3460 H   0  0  0  0  0  0  0  0  0  0  0  0
   28.3070   25.7130   46.4270 O   0  0  0  0  0  0  0  0  0  0  0  0
   28.5250   25.3550   47.3250 H   0  0  0  0  0  0  0  0  0  0  0  0
  1  5  1  0  0  0  0
  1  6  1  1  0  0  0
  1  2  1  0  0  0  0
  2  7  1  6  0  0  0
  2 12  1  0  0  0  0
  2  3  1  0  0  0  0
  4  8  1  0  0  0  0
  4  3  1  0  0  0  0
  4  9  1  0  0  0  0
  5 10  1  6  0  0  0
  5  4  1  0  0  0  0
 11 14  1  6  0  0  0
 11 13  1  0  0  0  0
 12 15  1  6  0  0  0
 12 11  1  0  0  0  0
 12 13  1  0  0  0  0
 13 16  1  0  0  0  0
 13 17  1  0  0  0  0
 18 11  1  0  0  0  0
 18 19  1  0  0  0  0
 19 24  1  0  0  0  0
 20 19  2  0  0  0  0
 20 25  1  0  0  0  0
 21 20  1  0  0  0  0
 22 23  1  0  0  0  0
 22 21  2  0  0  0  0
 23 18  2  0  0  0  0
 26 22  1  0  0  0  0
 27  1  1  0  0  0  0
 28 27  1  0  0  0  0
 29  5  1  0  0  0  0
 30 38  1  1  0  0  0
 31 30  1  0  0  0  0
 31 29  1  1  0  0  0
 32 31  1  0  0  0  0
 32 33  1  0  0  0  0
 34 32  1  0  0  0  0
 35 34  1  0  0  0  0
 35 37  1  0  0  0  0
 36 35  1  0  0  0  0
 37 40  1  1  0  0  0
 37 30  1  0  0  0  0
 39 38  1  0  0  0  0
 40 41  1  0  0  0  0
M  END
>  <minimizedAffinity>
-5.27959013

>  <minimizedRMSD>
0.63610971

$$$$
