
 OpenBabel03272508263D

 41 44  0  0  1  0  0  0  0  0999 V2000
   33.8900   28.9950   47.3030 C   0  0  2  0  0  0  0  0  0  0  0  0
   34.6450   28.1990   48.3590 C   0  0  2  0  0  0  0  0  0  0  0  0
   33.7600   27.9850   49.3690 O   0  0  0  0  0  0  0  0  0  0  0  0
   32.4800   28.0490   48.9060 C   0  0  0  0  0  0  0  0  0  0  0  0
   32.5290   28.2960   47.4090 C   0  0  1  0  0  0  0  0  0  0  0  0
   33.7300   30.0340   47.6330 H   0  0  0  0  0  0  0  0  0  0  0  0
   34.9380   27.2270   47.9260 H   0  0  0  0  0  0  0  0  0  0  0  0
   31.9310   27.0890   49.0660 H   0  0  0  0  0  0  0  0  0  0  0  0
   31.8730   28.8480   49.3970 H   0  0  0  0  0  0  0  0  0  0  0  0
   32.6740   27.3280   46.9080 H   0  0  0  0  0  0  0  0  0  0  0  0
   35.7220   30.4560   49.0240 C   0  0  1  0  0  0  0  0  0  0  0  0
   35.8060   29.0330   48.7950 C   0  0  1  0  0  0  0  0  0  0  0  0
   35.9480   29.5040   50.2050 C   0  0  0  0  0  0  0  0  0  0  0  0
   34.8190   31.0650   49.2050 H   0  0  0  0  0  0  0  0  0  0  0  0
   36.7730   28.6720   48.3410 H   0  0  0  0  0  0  0  0  0  0  0  0
   36.9530   29.4970   50.6930 H   0  0  0  0  0  0  0  0  0  0  0  0
   35.1470   29.3530   50.9380 H   0  0  0  0  0  0  0  0  0  0  0  0
   36.9200   31.3620   48.7890 C   0  0  0  0  0  0  0  0  0  0  0  0
   37.1170   32.4030   49.6960 C   0  0  0  0  0  0  0  0  0  0  0  0
   38.2100   33.2190   49.4130 C   0  0  0  0  0  0  0  0  0  0  0  0
   39.0020   32.9910   48.3280 N   0  0  0  0  0  0  0  0  0  0  0  0
   38.7690   31.9640   47.4770 C   0  0  0  0  0  0  0  0  0  0  0  0
   37.7170   31.1430   47.7110 N   0  0  0  0  0  0  0  0  0  0  0  0
   36.4600   32.5380   50.5370 H   0  0  0  0  0  0  0  0  0  0  0  0
   38.4250   34.0440   50.0690 H   0  0  0  0  0  0  0  0  0  0  0  0
   39.3780   31.7560   46.6080 H   0  0  0  0  0  0  0  0  0  0  0  0
   34.4140   28.8670   46.0310 O   0  0  0  0  0  0  0  0  0  0  0  0
   34.2010   29.7090   45.5550 H   0  0  0  0  0  0  0  0  0  0  0  0
   31.5170   29.0790   46.9440 O   0  0  0  0  0  0  0  0  0  0  0  0
   31.1260   29.5570   44.6080 C   0  0  2  0  0  3  0  0  0  0  0  0
   30.8900   28.6660   45.8070 C   0  0  1  0  0  3  0  0  0  0  0  0
   31.2220   27.2660   45.3750 C   0  0  0  0  0  3  0  0  0  0  0  0
   32.2990   27.1090   45.1880 H   0  0  0  0  0  0  0  0  0  0  0  0
   30.5650   26.9840   44.1990 O   0  0  0  0  0  0  0  0  0  0  0  0
   29.5450   27.8540   43.8860 C   0  0  0  0  0  3  0  0  0  0  0  0
   28.6700   27.8070   44.5730 H   0  0  0  0  0  0  0  0  0  0  0  0
   29.9970   29.2770   43.6340 C   0  0  2  0  0  3  0  0  0  0  0  0
   32.2960   29.0990   43.9720 O   0  0  0  0  0  0  0  0  0  0  0  0
   32.1000   28.4840   43.2230 H   0  0  0  0  0  0  0  0  0  0  0  0
   30.4140   29.4590   42.3170 O   0  0  0  0  0  0  0  0  0  0  0  0
   30.9690   30.2770   42.2630 H   0  0  0  0  0  0  0  0  0  0  0  0
  1  5  1  0  0  0  0
  1  6  1  1  0  0  0
  1  2  1  0  0  0  0
  2  7  1  6  0  0  0
  2 12  1  0  0  0  0
  2  3  1  0  0  0  0
  4  8  1  0  0  0  0
  4  3  1  0  0  0  0
  4  9  1  0  0  0  0
  5 10  1  6  0  0  0
  5  4  1  0  0  0  0
 11 14  1  6  0  0  0
 11 13  1  0  0  0  0
 12 15  1  6  0  0  0
 12 11  1  0  0  0  0
 12 13  1  0  0  0  0
 13 16  1  0  0  0  0
 13 17  1  0  0  0  0
 18 11  1  0  0  0  0
 18 19  1  0  0  0  0
 19 24  1  0  0  0  0
 20 19  2  0  0  0  0
 20 25  1  0  0  0  0
 21 20  1  0  0  0  0
 22 23  1  0  0  0  0
 22 21  2  0  0  0  0
 23 18  2  0  0  0  0
 26 22  1  0  0  0  0
 27  1  1  0  0  0  0
 28 27  1  0  0  0  0
 29  5  1  0  0  0  0
 30 38  1  6  0  0  0
 30 31  1  0  0  0  0
 31 29  1  1  0  0  0
 32 31  1  0  0  0  0
 33 32  1  0  0  0  0
 34 32  1  0  0  0  0
 35 34  1  0  0  0  0
 35 36  1  0  0  0  0
 37 40  1  6  0  0  0
 37 35  1  0  0  0  0
 37 30  1  0  0  0  0
 39 38  1  0  0  0  0
 41 40  1  0  0  0  0
M  END
>  <minimizedAffinity>
-4.82476377

>  <minimizedRMSD>
0.286262661

$$$$
