
 OpenBabel03272508263D

 41 44  0  0  1  0  0  0  0  0999 V2000
   33.7940   28.8960   47.2810 C   0  0  2  0  0  0  0  0  0  0  0  0
   34.5420   28.1170   48.3530 C   0  0  2  0  0  0  0  0  0  0  0  0
   33.6540   27.9230   49.3650 O   0  0  0  0  0  0  0  0  0  0  0  0
   32.3760   27.9830   48.8970 C   0  0  0  0  0  0  0  0  0  0  0  0
   32.4300   28.2030   47.3960 C   0  0  1  0  0  0  0  0  0  0  0  0
   33.6360   29.9410   47.5920 H   0  0  0  0  0  0  0  0  0  0  0  0
   34.8330   27.1360   47.9380 H   0  0  0  0  0  0  0  0  0  0  0  0
   31.8230   27.0280   49.0720 H   0  0  0  0  0  0  0  0  0  0  0  0
   31.7700   28.7930   49.3720 H   0  0  0  0  0  0  0  0  0  0  0  0
   32.5730   27.2260   46.9130 H   0  0  0  0  0  0  0  0  0  0  0  0
   35.6140   30.3730   49.0270 C   0  0  1  0  0  0  0  0  0  0  0  0
   35.7060   28.9540   48.7770 C   0  0  1  0  0  0  0  0  0  0  0  0
   35.8720   29.4070   50.1900 C   0  0  0  0  0  0  0  0  0  0  0  0
   34.7100   30.9720   49.2350 H   0  0  0  0  0  0  0  0  0  0  0  0
   36.6660   28.6070   48.2990 H   0  0  0  0  0  0  0  0  0  0  0  0
   36.8860   29.4020   50.6580 H   0  0  0  0  0  0  0  0  0  0  0  0
   35.0860   29.2390   50.9370 H   0  0  0  0  0  0  0  0  0  0  0  0
   36.8010   31.2920   48.7810 C   0  0  0  0  0  0  0  0  0  0  0  0
   37.0420   32.2860   49.7300 C   0  0  0  0  0  0  0  0  0  0  0  0
   38.1200   33.1170   49.4360 C   0  0  0  0  0  0  0  0  0  0  0  0
   38.8580   32.9470   48.3040 N   0  0  0  0  0  0  0  0  0  0  0  0
   38.5840   31.9650   47.4130 C   0  0  0  0  0  0  0  0  0  0  0  0
   37.5430   31.1300   47.6560 N   0  0  0  0  0  0  0  0  0  0  0  0
   36.4270   32.3760   50.6070 H   0  0  0  0  0  0  0  0  0  0  0  0
   38.3680   33.9070   50.1220 H   0  0  0  0  0  0  0  0  0  0  0  0
   39.1500   31.8020   46.5050 H   0  0  0  0  0  0  0  0  0  0  0  0
   34.3200   28.7440   46.0130 O   0  0  0  0  0  0  0  0  0  0  0  0
   34.1110   29.5770   45.5220 H   0  0  0  0  0  0  0  0  0  0  0  0
   31.4220   28.9820   46.9140 O   0  0  0  0  0  0  0  0  0  0  0  0
   29.1150   28.5380   47.4810 C   0  0  2  0  0  3  0  0  0  0  0  0
   30.2780   28.3450   46.5350 C   0  0  1  0  0  3  0  0  0  0  0  0
   29.7810   28.7010   45.1620 C   0  0  0  0  0  3  0  0  0  0  0  0
   29.5700   29.7790   45.0390 H   0  0  0  0  0  0  0  0  0  0  0  0
   28.6050   28.0300   44.9140 O   0  0  0  0  0  0  0  0  0  0  0  0
   28.3470   26.9850   45.7720 C   0  0  0  0  0  3  0  0  0  0  0  0
   29.0470   26.1240   45.6770 H   0  0  0  0  0  0  0  0  0  0  0  0
   28.1490   27.4000   47.2160 C   0  0  2  0  0  3  0  0  0  0  0  0
   28.4410   29.7080   47.0790 O   0  0  0  0  0  0  0  0  0  0  0  0
   27.6690   29.5130   46.4910 H   0  0  0  0  0  0  0  0  0  0  0  0
   26.8340   27.7890   47.4630 O   0  0  0  0  0  0  0  0  0  0  0  0
   26.8060   28.3250   48.2970 H   0  0  0  0  0  0  0  0  0  0  0  0
  1  5  1  0  0  0  0
  1  6  1  1  0  0  0
  1  2  1  0  0  0  0
  2  7  1  6  0  0  0
  2 12  1  0  0  0  0
  2  3  1  0  0  0  0
  4  8  1  0  0  0  0
  4  3  1  0  0  0  0
  4  9  1  0  0  0  0
  5 10  1  6  0  0  0
  5  4  1  0  0  0  0
 11 14  1  6  0  0  0
 11 13  1  0  0  0  0
 12 15  1  6  0  0  0
 12 11  1  0  0  0  0
 12 13  1  0  0  0  0
 13 16  1  0  0  0  0
 13 17  1  0  0  0  0
 18 11  1  0  0  0  0
 18 19  1  0  0  0  0
 19 24  1  0  0  0  0
 20 19  2  0  0  0  0
 20 25  1  0  0  0  0
 21 20  1  0  0  0  0
 22 23  1  0  0  0  0
 22 21  2  0  0  0  0
 23 18  2  0  0  0  0
 26 22  1  0  0  0  0
 27  1  1  0  0  0  0
 28 27  1  0  0  0  0
 29  5  1  0  0  0  0
 30 38  1  6  0  0  0
 31 29  1  1  0  0  0
 31 30  1  0  0  0  0
 32 31  1  0  0  0  0
 33 32  1  0  0  0  0
 34 32  1  0  0  0  0
 34 35  1  0  0  0  0
 35 37  1  0  0  0  0
 36 35  1  0  0  0  0
 37 40  1  6  0  0  0
 37 30  1  0  0  0  0
 39 38  1  0  0  0  0
 40 41  1  0  0  0  0
M  END
>  <minimizedAffinity>
-5.59717321

>  <minimizedRMSD>
1.02745211

$$$$
