
 OpenBabel03272508273D

 41 44  0  0  1  0  0  0  0  0999 V2000
   33.7540   28.9130   47.2740 C   0  0  2  0  0  0  0  0  0  0  0  0
   34.5170   28.1150   48.3210 C   0  0  2  0  0  0  0  0  0  0  0  0
   33.6340   27.8760   49.3270 O   0  0  0  0  0  0  0  0  0  0  0  0
   32.3550   27.9290   48.8640 C   0  0  0  0  0  0  0  0  0  0  0  0
   32.4020   28.1950   47.3700 C   0  0  1  0  0  0  0  0  0  0  0  0
   33.5800   29.9460   47.6160 H   0  0  0  0  0  0  0  0  0  0  0  0
   34.8240   27.1520   47.8760 H   0  0  0  0  0  0  0  0  0  0  0  0
   31.8180   26.9600   49.0110 H   0  0  0  0  0  0  0  0  0  0  0  0
   31.7360   28.7140   49.3640 H   0  0  0  0  0  0  0  0  0  0  0  0
   32.5600   27.2360   46.8570 H   0  0  0  0  0  0  0  0  0  0  0  0
   35.5760   30.3850   48.9690 C   0  0  1  0  0  0  0  0  0  0  0  0
   35.6680   28.9590   48.7680 C   0  0  1  0  0  0  0  0  0  0  0  0
   35.7760   29.4550   50.1720 C   0  0  0  0  0  0  0  0  0  0  0  0
   34.6680   30.9960   49.1180 H   0  0  0  0  0  0  0  0  0  0  0  0
   36.6450   28.5910   48.3430 H   0  0  0  0  0  0  0  0  0  0  0  0
   36.7700   29.4600   50.6830 H   0  0  0  0  0  0  0  0  0  0  0  0
   34.9580   29.3160   50.8890 H   0  0  0  0  0  0  0  0  0  0  0  0
   36.7790   31.2890   48.7450 C   0  0  0  0  0  0  0  0  0  0  0  0
   37.0330   32.2600   49.7130 C   0  0  0  0  0  0  0  0  0  0  0  0
   38.1260   33.0790   49.4410 C   0  0  0  0  0  0  0  0  0  0  0  0
   38.8660   32.9180   48.3080 N   0  0  0  0  0  0  0  0  0  0  0  0
   38.5790   31.9570   47.3970 C   0  0  0  0  0  0  0  0  0  0  0  0
   37.5230   31.1360   47.6200 N   0  0  0  0  0  0  0  0  0  0  0  0
   36.4150   32.3430   50.5900 H   0  0  0  0  0  0  0  0  0  0  0  0
   38.3840   33.8510   50.1420 H   0  0  0  0  0  0  0  0  0  0  0  0
   39.1450   31.8030   46.4890 H   0  0  0  0  0  0  0  0  0  0  0  0
   34.2800   28.8080   46.0010 O   0  0  0  0  0  0  0  0  0  0  0  0
   34.0560   29.6520   45.5350 H   0  0  0  0  0  0  0  0  0  0  0  0
   31.3800   28.9710   46.9130 O   0  0  0  0  0  0  0  0  0  0  0  0
   29.1170   28.4730   47.5990 C   0  0  2  0  0  3  0  0  0  0  0  0
   30.2230   28.3330   46.5780 C   0  0  1  0  0  3  0  0  0  0  0  0
   29.6400   28.7340   45.2520 C   0  0  0  0  0  3  0  0  0  0  0  0
   29.4090   29.8120   45.1850 H   0  0  0  0  0  0  0  0  0  0  0  0
   28.4600   28.0550   45.0500 O   0  0  0  0  0  0  0  0  0  0  0  0
   28.2670   26.9750   45.8800 C   0  0  0  0  0  3  0  0  0  0  0  0
   28.9690   26.1290   45.7090 H   0  0  0  0  0  0  0  0  0  0  0  0
   28.1510   27.3320   47.3480 C   0  0  2  0  0  3  0  0  0  0  0  0
   28.4060   29.6480   47.2840 O   0  0  0  0  0  0  0  0  0  0  0  0
   27.6020   29.4630   46.7370 H   0  0  0  0  0  0  0  0  0  0  0  0
   26.8480   27.6930   47.6880 O   0  0  0  0  0  0  0  0  0  0  0  0
   26.8640   28.1950   48.5430 H   0  0  0  0  0  0  0  0  0  0  0  0
  1  5  1  0  0  0  0
  1  6  1  1  0  0  0
  1  2  1  0  0  0  0
  2  7  1  6  0  0  0
  2 12  1  0  0  0  0
  2  3  1  0  0  0  0
  4  8  1  0  0  0  0
  4  3  1  0  0  0  0
  4  9  1  0  0  0  0
  5 10  1  6  0  0  0
  5  4  1  0  0  0  0
 11 14  1  6  0  0  0
 11 13  1  0  0  0  0
 12 15  1  6  0  0  0
 12 11  1  0  0  0  0
 12 13  1  0  0  0  0
 13 16  1  0  0  0  0
 13 17  1  0  0  0  0
 18 11  1  0  0  0  0
 18 19  1  0  0  0  0
 19 24  1  0  0  0  0
 20 19  2  0  0  0  0
 20 25  1  0  0  0  0
 21 20  1  0  0  0  0
 22 23  1  0  0  0  0
 22 21  2  0  0  0  0
 23 18  2  0  0  0  0
 26 22  1  0  0  0  0
 27  1  1  0  0  0  0
 28 27  1  0  0  0  0
 29  5  1  0  0  0  0
 30 38  1  6  0  0  0
 31 29  1  1  0  0  0
 31 30  1  0  0  0  0
 32 31  1  0  0  0  0
 33 32  1  0  0  0  0
 34 32  1  0  0  0  0
 34 35  1  0  0  0  0
 35 37  1  0  0  0  0
 36 35  1  0  0  0  0
 37 30  1  0  0  0  0
 37 40  1  6  0  0  0
 39 38  1  0  0  0  0
 40 41  1  0  0  0  0
M  END
>  <minimizedAffinity>
-5.64976978

>  <minimizedRMSD>
1.08885121

$$$$
