
 OpenBabel03272508273D

 41 44  0  0  1  0  0  0  0  0999 V2000
   33.9620   29.0000   47.3700 C   0  0  2  0  0  0  0  0  0  0  0  0
   34.7270   28.2340   48.4400 C   0  0  2  0  0  0  0  0  0  0  0  0
   33.8560   28.0560   49.4690 O   0  0  0  0  0  0  0  0  0  0  0  0
   32.5700   28.1130   49.0220 C   0  0  0  0  0  0  0  0  0  0  0  0
   32.5990   28.3130   47.5170 C   0  0  1  0  0  0  0  0  0  0  0  0
   33.8130   30.0510   47.6700 H   0  0  0  0  0  0  0  0  0  0  0  0
   35.0090   27.2470   48.0330 H   0  0  0  0  0  0  0  0  0  0  0  0
   32.0180   27.1620   49.2190 H   0  0  0  0  0  0  0  0  0  0  0  0
   31.9740   28.9310   49.4960 H   0  0  0  0  0  0  0  0  0  0  0  0
   32.7320   27.3290   47.0450 H   0  0  0  0  0  0  0  0  0  0  0  0
   35.8150   30.4960   49.0680 C   0  0  1  0  0  0  0  0  0  0  0  0
   35.9000   29.0750   48.8330 C   0  0  1  0  0  0  0  0  0  0  0  0
   36.0920   29.5440   50.2370 C   0  0  0  0  0  0  0  0  0  0  0  0
   34.9160   31.0990   49.2840 H   0  0  0  0  0  0  0  0  0  0  0  0
   36.8510   28.7200   48.3410 H   0  0  0  0  0  0  0  0  0  0  0  0
   37.1150   29.5430   50.6870 H   0  0  0  0  0  0  0  0  0  0  0  0
   35.3200   29.3860   51.0000 H   0  0  0  0  0  0  0  0  0  0  0  0
   36.9980   31.4100   48.7890 C   0  0  0  0  0  0  0  0  0  0  0  0
   37.2060   32.4680   49.6740 C   0  0  0  0  0  0  0  0  0  0  0  0
   38.2830   33.2910   49.3520 C   0  0  0  0  0  0  0  0  0  0  0  0
   39.0510   33.0520   48.2520 N   0  0  0  0  0  0  0  0  0  0  0  0
   38.8090   32.0090   47.4230 C   0  0  0  0  0  0  0  0  0  0  0  0
   37.7710   31.1810   47.6960 N   0  0  0  0  0  0  0  0  0  0  0  0
   36.5670   32.6110   50.5280 H   0  0  0  0  0  0  0  0  0  0  0  0
   38.5050   34.1280   49.9880 H   0  0  0  0  0  0  0  0  0  0  0  0
   39.3990   31.7930   46.5430 H   0  0  0  0  0  0  0  0  0  0  0  0
   34.4670   28.8300   46.0960 O   0  0  0  0  0  0  0  0  0  0  0  0
   34.2510   29.6570   45.5970 H   0  0  0  0  0  0  0  0  0  0  0  0
   31.5850   29.0870   47.0420 O   0  0  0  0  0  0  0  0  0  0  0  0
   30.2640   27.0720   46.8590 C   0  0  2  0  0  3  0  0  0  0  0  0
   30.6000   28.4540   46.3450 C   0  0  1  0  0  3  0  0  0  0  0  0
   29.3030   29.2080   46.2540 C   0  0  0  0  0  3  0  0  0  0  0  0
   28.8620   29.4370   47.2400 H   0  0  0  0  0  0  0  0  0  0  0  0
   28.3820   28.4490   45.5680 O   0  0  0  0  0  0  0  0  0  0  0  0
   28.9170   27.3970   44.8590 C   0  0  0  0  0  3  0  0  0  0  0  0
   29.5530   27.6950   43.9960 H   0  0  0  0  0  0  0  0  0  0  0  0
   29.5810   26.3420   45.7190 C   0  0  2  0  0  3  0  0  0  0  0  0
   29.2790   27.2270   47.8540 O   0  0  0  0  0  0  0  0  0  0  0  0
   28.3640   27.0970   47.4990 H   0  0  0  0  0  0  0  0  0  0  0  0
   28.6580   25.4140   46.2000 O   0  0  0  0  0  0  0  0  0  0  0  0
   29.0520   24.9370   46.9740 H   0  0  0  0  0  0  0  0  0  0  0  0
  1  5  1  0  0  0  0
  1  6  1  1  0  0  0
  1  2  1  0  0  0  0
  2  7  1  6  0  0  0
  2 12  1  0  0  0  0
  2  3  1  0  0  0  0
  4  8  1  0  0  0  0
  4  3  1  0  0  0  0
  4  9  1  0  0  0  0
  5 10  1  6  0  0  0
  5  4  1  0  0  0  0
 11 14  1  6  0  0  0
 11 13  1  0  0  0  0
 12 15  1  6  0  0  0
 12 11  1  0  0  0  0
 12 13  1  0  0  0  0
 13 16  1  0  0  0  0
 13 17  1  0  0  0  0
 18 11  1  0  0  0  0
 18 19  1  0  0  0  0
 19 24  1  0  0  0  0
 20 19  2  0  0  0  0
 20 25  1  0  0  0  0
 21 20  1  0  0  0  0
 22 23  1  0  0  0  0
 22 21  2  0  0  0  0
 23 18  2  0  0  0  0
 26 22  1  0  0  0  0
 27  1  1  0  0  0  0
 28 27  1  0  0  0  0
 29  5  1  0  0  0  0
 30 38  1  1  0  0  0
 31 30  1  0  0  0  0
 31 29  1  1  0  0  0
 32 31  1  0  0  0  0
 32 33  1  0  0  0  0
 34 32  1  0  0  0  0
 35 34  1  0  0  0  0
 35 37  1  0  0  0  0
 36 35  1  0  0  0  0
 37 40  1  1  0  0  0
 37 30  1  0  0  0  0
 39 38  1  0  0  0  0
 40 41  1  0  0  0  0
M  END
>  <minimizedAffinity>
-5.27537012

>  <minimizedRMSD>
0.842436731

$$$$
