
 OpenBabel03272500043D

 32 34  0  0  1  0  0  0  0  0999 V2000
   36.1160   29.3230   49.3230 C   0  0  0  0  0  0  0  0  0  0  0  0
   36.0040   30.4530   48.4590 C   0  0  0  0  0  0  0  0  0  0  0  0
   34.9190   30.4820   47.6090 C   0  0  0  0  0  0  0  0  0  0  0  0
   34.0240   29.4580   47.6300 N   0  0  0  0  0  0  0  0  0  0  0  0
   34.1460   28.4120   48.4440 C   0  0  0  0  0  0  0  0  0  0  0  0
   35.2010   28.3320   49.3060 N   0  0  0  0  0  0  0  0  0  0  0  0
   36.9580   29.2650   50.0080 H   0  0  0  0  0  0  0  0  0  0  0  0
   34.8370   31.3340   46.9590 H   0  0  0  0  0  0  0  0  0  0  0  0
   37.0080   31.4480   48.5420 N   0  0  0  0  0  0  0  0  0  0  0  0
   37.2060   32.1840   49.6360 C   0  0  0  0  0  0  0  0  0  0  0  0
   38.2160   33.1510   49.6480 C   0  0  0  0  0  0  0  0  0  0  0  0
   38.9290   33.2480   48.4850 C   0  0  0  0  0  0  0  0  0  0  0  0
   39.8500   34.1200   48.4770 O   0  0  0  0  0  0  0  0  0  0  0  0
   38.7610   32.5340   47.3790 N   0  0  0  0  0  0  0  0  0  0  0  0
   37.7680   31.6090   47.4170 C   0  0  0  0  0  0  0  0  0  0  0  0
   37.5920   30.9130   46.3610 O   0  0  0  0  0  0  0  0  0  0  0  0
   36.5790   32.0250   50.5080 H   0  0  0  0  0  0  0  0  0  0  0  0
   38.4020   33.7640   50.5200 H   0  0  0  0  0  0  0  0  0  0  0  0
   39.3530   32.6720   46.5290 H   0  0  0  0  0  0  0  0  0  0  0  0
   33.2450   27.3670   48.4740 O   0  0  0  0  0  0  0  0  0  0  0  0
   32.0230   26.7550   46.4640 C   0  0  1  0  0  3  0  0  0  0  0  0
   32.0060   27.3290   47.8520 C   0  0  1  0  0  3  0  0  0  0  0  0
   30.9820   26.5260   48.6560 C   0  0  0  0  0  3  0  0  0  0  0  0
   31.2760   25.4540   48.6720 H   0  0  0  0  0  0  0  0  0  0  0  0
   29.7130   26.7430   48.1600 O   0  0  0  0  0  0  0  0  0  0  0  0
   29.5580   26.3830   46.8460 C   0  0  0  0  0  3  0  0  0  0  0  0
   29.0960   27.1780   46.2190 H   0  0  0  0  0  0  0  0  0  0  0  0
   30.8000   25.9130   46.1650 C   0  0  2  0  0  3  0  0  0  0  0  0
   32.0470   27.7900   45.5200 O   0  0  0  0  0  0  0  0  0  0  0  0
   31.6490   28.6210   45.9060 H   0  0  0  0  0  0  0  0  0  0  0  0
   31.0670   24.5540   46.4190 O   0  0  0  0  0  0  0  0  0  0  0  0
   32.0240   24.3330   46.3320 H   0  0  0  0  0  0  0  0  0  0  0  0
  1  7  1  0  0  0  0
  2  9  1  0  0  0  0
  2  1  2  0  0  0  0
  3  4  2  0  0  0  0
  3  2  1  0  0  0  0
  4  5  1  0  0  0  0
  5 20  1  0  0  0  0
  5  6  2  0  0  0  0
  6  1  1  0  0  0  0
  8  3  1  0  0  0  0
  9 10  1  0  0  0  0
 10 11  2  0  0  0  0
 10 17  1  0  0  0  0
 11 18  1  0  0  0  0
 12 11  1  0  0  0  0
 13 12  2  0  0  0  0
 14 15  1  0  0  0  0
 14 12  1  0  0  0  0
 15  9  1  0  0  0  0
 16 15  2  0  0  0  0
 19 14  1  0  0  0  0
 21 29  1  6  0  0  0
 21 22  1  0  0  0  0
 22 20  1  1  0  0  0
 22 23  1  0  0  0  0
 23 24  1  0  0  0  0
 25 23  1  0  0  0  0
 26 25  1  0  0  0  0
 27 26  1  0  0  0  0
 28 31  1  1  0  0  0
 28 21  1  0  0  0  0
 28 26  1  0  0  0  0
 29 30  1  0  0  0  0
 32 31  1  0  0  0  0
M  END
>  <minimizedAffinity>
-5.53123474

>  <minimizedRMSD>
0.259981632

$$$$
