
 OpenBabel03272500043D

 32 34  0  0  1  0  0  0  0  0999 V2000
   35.9020   29.2860   49.2310 C   0  0  0  0  0  0  0  0  0  0  0  0
   35.8160   30.4430   48.4010 C   0  0  0  0  0  0  0  0  0  0  0  0
   34.6970   30.5560   47.6030 C   0  0  0  0  0  0  0  0  0  0  0  0
   33.7480   29.5830   47.6410 N   0  0  0  0  0  0  0  0  0  0  0  0
   33.8460   28.5100   48.4220 C   0  0  0  0  0  0  0  0  0  0  0  0
   34.9320   28.3480   49.2330 N   0  0  0  0  0  0  0  0  0  0  0  0
   36.7690   29.1620   49.8740 H   0  0  0  0  0  0  0  0  0  0  0  0
   34.6350   31.4280   46.9790 H   0  0  0  0  0  0  0  0  0  0  0  0
   36.8780   31.3780   48.4610 N   0  0  0  0  0  0  0  0  0  0  0  0
   37.1980   32.0350   49.5770 C   0  0  0  0  0  0  0  0  0  0  0  0
   38.2590   32.9460   49.5650 C   0  0  0  0  0  0  0  0  0  0  0  0
   38.8870   33.0760   48.3570 C   0  0  0  0  0  0  0  0  0  0  0  0
   39.8530   33.8980   48.3270 O   0  0  0  0  0  0  0  0  0  0  0  0
   38.5970   32.4410   47.2290 N   0  0  0  0  0  0  0  0  0  0  0  0
   37.5590   31.5670   47.2920 C   0  0  0  0  0  0  0  0  0  0  0  0
   37.2660   30.9460   46.2150 O   0  0  0  0  0  0  0  0  0  0  0  0
   36.6300   31.8550   50.4850 H   0  0  0  0  0  0  0  0  0  0  0  0
   38.5440   33.4940   50.4540 H   0  0  0  0  0  0  0  0  0  0  0  0
   39.1310   32.5990   46.3450 H   0  0  0  0  0  0  0  0  0  0  0  0
   32.8890   27.5160   48.4690 O   0  0  0  0  0  0  0  0  0  0  0  0
   30.9360   27.9290   47.0820 C   0  0  1  0  0  3  0  0  0  0  0  0
   31.5130   27.6950   48.4480 C   0  0  1  0  0  3  0  0  0  0  0  0
   30.7680   26.5050   49.0530 C   0  0  0  0  0  3  0  0  0  0  0  0
   30.9020   25.6120   48.4070 H   0  0  0  0  0  0  0  0  0  0  0  0
   29.4450   26.8340   49.2720 O   0  0  0  0  0  0  0  0  0  0  0  0
   28.7660   27.1960   48.1370 C   0  0  0  0  0  3  0  0  0  0  0  0
   28.2120   28.1560   48.2380 H   0  0  0  0  0  0  0  0  0  0  0  0
   29.5900   27.2590   46.8960 C   0  0  2  0  0  3  0  0  0  0  0  0
   30.7420   29.3010   46.8740 O   0  0  0  0  0  0  0  0  0  0  0  0
   30.6290   29.7730   47.7470 H   0  0  0  0  0  0  0  0  0  0  0  0
   29.7500   25.9950   46.2960 O   0  0  0  0  0  0  0  0  0  0  0  0
   30.5680   25.9380   45.7460 H   0  0  0  0  0  0  0  0  0  0  0  0
  1  6  1  0  0  0  0
  1  7  1  0  0  0  0
  2  9  1  0  0  0  0
  2  1  2  0  0  0  0
  3  4  2  0  0  0  0
  3  2  1  0  0  0  0
  4  5  1  0  0  0  0
  5 20  1  0  0  0  0
  5  6  2  0  0  0  0
  8  3  1  0  0  0  0
  9 10  1  0  0  0  0
 10 17  1  0  0  0  0
 11 10  2  0  0  0  0
 11 18  1  0  0  0  0
 12 11  1  0  0  0  0
 13 12  2  0  0  0  0
 14 15  1  0  0  0  0
 14 12  1  0  0  0  0
 15  9  1  0  0  0  0
 16 15  2  0  0  0  0
 19 14  1  0  0  0  0
 21 29  1  1  0  0  0
 21 22  1  0  0  0  0
 22 20  1  6  0  0  0
 22 23  1  0  0  0  0
 23 25  1  0  0  0  0
 24 23  1  0  0  0  0
 26 27  1  0  0  0  0
 26 25  1  0  0  0  0
 28 31  1  1  0  0  0
 28 21  1  0  0  0  0
 28 26  1  0  0  0  0
 29 30  1  0  0  0  0
 32 31  1  0  0  0  0
M  END
>  <minimizedAffinity>
-5.67641449

>  <minimizedRMSD>
1.46682894

$$$$
