
 OpenBabel03272500043D

 32 34  0  0  1  0  0  0  0  0999 V2000
   35.9790   29.3140   49.4310 C   0  0  0  0  0  0  0  0  0  0  0  0
   35.9100   30.4210   48.5350 C   0  0  0  0  0  0  0  0  0  0  0  0
   34.8440   30.4490   47.6610 C   0  0  0  0  0  0  0  0  0  0  0  0
   33.9270   29.4450   47.6900 N   0  0  0  0  0  0  0  0  0  0  0  0
   34.0090   28.4200   48.5350 C   0  0  0  0  0  0  0  0  0  0  0  0
   35.0430   28.3410   49.4220 N   0  0  0  0  0  0  0  0  0  0  0  0
   36.8040   29.2560   50.1360 H   0  0  0  0  0  0  0  0  0  0  0  0
   34.7940   31.2840   46.9870 H   0  0  0  0  0  0  0  0  0  0  0  0
   36.9330   31.3970   48.6120 N   0  0  0  0  0  0  0  0  0  0  0  0
   37.0550   32.2330   49.6440 C   0  0  0  0  0  0  0  0  0  0  0  0
   38.0900   33.1740   49.6540 C   0  0  0  0  0  0  0  0  0  0  0  0
   38.9070   33.1380   48.5570 C   0  0  0  0  0  0  0  0  0  0  0  0
   39.8520   33.9840   48.5500 O   0  0  0  0  0  0  0  0  0  0  0  0
   38.8150   32.3220   47.5150 N   0  0  0  0  0  0  0  0  0  0  0  0
   37.7940   31.4280   47.5520 C   0  0  0  0  0  0  0  0  0  0  0  0
   37.6910   30.6340   46.5560 O   0  0  0  0  0  0  0  0  0  0  0  0
   36.3490   32.1750   50.4660 H   0  0  0  0  0  0  0  0  0  0  0  0
   38.2170   33.8660   50.4760 H   0  0  0  0  0  0  0  0  0  0  0  0
   39.4850   32.3620   46.7140 H   0  0  0  0  0  0  0  0  0  0  0  0
   33.0850   27.3950   48.5740 O   0  0  0  0  0  0  0  0  0  0  0  0
   31.8840   26.8180   46.5410 C   0  0  1  0  0  3  0  0  0  0  0  0
   31.8530   27.3720   47.9370 C   0  0  1  0  0  3  0  0  0  0  0  0
   30.8160   26.5610   48.7160 C   0  0  0  0  0  3  0  0  0  0  0  0
   31.1050   25.4880   48.7200 H   0  0  0  0  0  0  0  0  0  0  0  0
   29.5530   26.7910   48.2080 O   0  0  0  0  0  0  0  0  0  0  0  0
   29.4140   26.4490   46.8870 C   0  0  0  0  0  3  0  0  0  0  0  0
   28.9630   27.2560   46.2660 H   0  0  0  0  0  0  0  0  0  0  0  0
   30.6630   25.9850   46.2150 C   0  0  2  0  0  3  0  0  0  0  0  0
   31.9250   27.8660   45.6130 O   0  0  0  0  0  0  0  0  0  0  0  0
   31.5240   28.6940   46.0050 H   0  0  0  0  0  0  0  0  0  0  0  0
   30.9210   24.6200   46.4520 O   0  0  0  0  0  0  0  0  0  0  0  0
   31.8780   24.3980   46.3740 H   0  0  0  0  0  0  0  0  0  0  0  0
  1  7  1  0  0  0  0
  2  9  1  0  0  0  0
  2  1  2  0  0  0  0
  3  4  2  0  0  0  0
  3  2  1  0  0  0  0
  4  5  1  0  0  0  0
  5 20  1  0  0  0  0
  5  6  2  0  0  0  0
  6  1  1  0  0  0  0
  8  3  1  0  0  0  0
  9 10  1  0  0  0  0
 10 11  2  0  0  0  0
 10 17  1  0  0  0  0
 11 18  1  0  0  0  0
 12 11  1  0  0  0  0
 13 12  2  0  0  0  0
 14 15  1  0  0  0  0
 14 12  1  0  0  0  0
 15  9  1  0  0  0  0
 16 15  2  0  0  0  0
 19 14  1  0  0  0  0
 21 29  1  6  0  0  0
 21 22  1  0  0  0  0
 22 20  1  1  0  0  0
 22 23  1  0  0  0  0
 23 24  1  0  0  0  0
 25 23  1  0  0  0  0
 26 25  1  0  0  0  0
 27 26  1  0  0  0  0
 28 31  1  1  0  0  0
 28 21  1  0  0  0  0
 28 26  1  0  0  0  0
 29 30  1  0  0  0  0
 32 31  1  0  0  0  0
M  END
>  <minimizedAffinity>
-5.44817829

>  <minimizedRMSD>
0.93175602

$$$$
