
 OpenBabel03262522183D

 27 28  0  0  1  0  0  0  0  0999 V2000
   36.2950   31.6290   50.2720 O   0  0  0  0  0  0  0  0  0  0  0  0
   37.2550   30.9230   49.3330 P   0  0  1  0  0  0  0  0  0  0  0  0
   38.7120   30.6390   50.1740 O   0  0  0  0  0  0  0  0  0  0  0  0
   38.8290   31.3400   50.8790 H   0  0  0  0  0  0  0  0  0  0  0  0
   36.6150   29.3870   48.9880 O   0  0  0  0  0  0  0  0  0  0  0  0
   34.5560   28.1920   49.2630 C   0  0  0  0  0  0  0  0  0  0  0  0
   35.3540   29.1080   48.5420 C   0  0  0  0  0  0  0  0  0  0  0  0
   34.7630   29.6590   47.4090 C   0  0  0  0  0  0  0  0  0  0  0  0
   33.5000   29.3180   47.0450 N   0  0  0  0  0  0  0  0  0  0  0  0
   32.7840   28.4290   47.7830 C   0  0  0  0  0  0  0  0  0  0  0  0
   33.3220   27.8760   48.8860 N   0  0  0  0  0  0  0  0  0  0  0  0
   34.9320   27.7080   50.1660 H   0  0  0  0  0  0  0  0  0  0  0  0
   35.3580   30.3740   46.8270 H   0  0  0  0  0  0  0  0  0  0  0  0
   31.7830   28.1280   47.5380 H   0  0  0  0  0  0  0  0  0  0  0  0
   37.4800   31.8860   47.9990 O   0  0  0  0  0  0  0  0  0  0  0  0
   39.5170   32.0890   46.8910 C   0  0  1  0  0  0  0  0  0  0  0  0
   38.2230   31.3070   46.9870 C   0  0  2  0  0  0  0  0  0  0  0  0
   37.5370   31.3140   45.6570 C   0  0  0  0  0  0  0  0  0  0  0  0
   37.7940   30.3700   45.1020 H   0  0  0  0  0  0  0  0  0  0  0  0
   37.7480   32.4530   44.9010 O   0  0  0  0  0  0  0  0  0  0  0  0
   39.0680   32.6620   44.5710 C   0  0  0  0  0  0  0  0  0  0  0  0
   39.2980   33.7350   44.7400 H   0  0  0  0  0  0  0  0  0  0  0  0
   40.0200   31.8830   45.4620 C   0  0  1  0  0  0  0  0  0  0  0  0
   39.3520   33.4520   47.0420 O   0  0  0  0  0  0  0  0  0  0  0  0
   38.4440   33.7530   47.2420 H   0  0  0  0  0  0  0  0  0  0  0  0
   41.3110   32.3370   45.3310 O   0  0  0  0  0  0  0  0  0  0  0  0
   41.3030   33.1110   44.7160 H   0  0  0  0  0  0  0  0  0  0  0  0
  2  3  1  0  0  0  0
  2  1  2  1  0  0  0
  3  4  1  0  0  0  0
  5  2  1  0  0  0  0
  6 12  1  0  0  0  0
  7  5  1  0  0  0  0
  7  6  2  0  0  0  0
  8  7  1  0  0  0  0
  9  8  2  0  0  0  0
  9 10  1  0  0  0  0
 10 11  2  0  0  0  0
 11  6  1  0  0  0  0
 13  8  1  0  0  0  0
 14 10  1  0  0  0  0
 15  2  1  0  0  0  0
 16 17  1  0  0  0  0
 16 24  1  6  0  0  0
 17 15  1  1  0  0  0
 18 17  1  0  0  0  0
 19 18  1  0  0  0  0
 20 18  1  0  0  0  0
 21 22  1  0  0  0  0
 21 20  1  0  0  0  0
 21 23  1  0  0  0  0
 23 26  1  1  0  0  0
 23 16  1  0  0  0  0
 24 25  1  0  0  0  0
 27 26  1  0  0  0  0
M  END
>  <minimizedAffinity>
-5.45971441

>  <minimizedRMSD>
3.69539261

$$$$
