
 OpenBabel03272500043D

 32 34  0  0  1  0  0  0  0  0999 V2000
   36.2720   29.1980   49.3290 C   0  0  0  0  0  0  0  0  0  0  0  0
   36.0640   30.3400   48.5010 C   0  0  0  0  0  0  0  0  0  0  0  0
   34.9560   30.3220   47.6810 C   0  0  0  0  0  0  0  0  0  0  0  0
   34.1300   29.2410   47.6960 N   0  0  0  0  0  0  0  0  0  0  0  0
   34.3410   28.1840   48.4760 C   0  0  0  0  0  0  0  0  0  0  0  0
   35.4220   28.1490   49.3080 N   0  0  0  0  0  0  0  0  0  0  0  0
   37.1340   29.1750   49.9910 H   0  0  0  0  0  0  0  0  0  0  0  0
   34.8020   31.1830   47.0580 H   0  0  0  0  0  0  0  0  0  0  0  0
   37.0040   31.3960   48.5870 N   0  0  0  0  0  0  0  0  0  0  0  0
   37.1160   32.1770   49.6630 C   0  0  0  0  0  0  0  0  0  0  0  0
   38.0670   33.2020   49.6780 C   0  0  0  0  0  0  0  0  0  0  0  0
   38.8170   33.3040   48.5390 C   0  0  0  0  0  0  0  0  0  0  0  0
   39.6850   34.2300   48.5350 O   0  0  0  0  0  0  0  0  0  0  0  0
   38.7330   32.5480   47.4520 N   0  0  0  0  0  0  0  0  0  0  0  0
   37.7950   31.5660   47.4860 C   0  0  0  0  0  0  0  0  0  0  0  0
   37.7000   30.8280   46.4480 O   0  0  0  0  0  0  0  0  0  0  0  0
   36.4670   32.0070   50.5160 H   0  0  0  0  0  0  0  0  0  0  0  0
   38.1830   33.8530   50.5350 H   0  0  0  0  0  0  0  0  0  0  0  0
   39.3480   32.6940   46.6200 H   0  0  0  0  0  0  0  0  0  0  0  0
   33.5100   27.0830   48.5000 O   0  0  0  0  0  0  0  0  0  0  0  0
   31.2670   28.0040   48.3310 C   0  0  1  0  0  3  0  0  0  0  0  0
   32.2670   26.9740   47.8910 C   0  0  1  0  0  3  0  0  0  0  0  0
   32.3610   27.0600   46.3680 C   0  0  0  0  0  3  0  0  0  0  0  0
   32.6840   28.0810   46.0700 H   0  0  0  0  0  0  0  0  0  0  0  0
   31.1670   26.6700   45.7960 O   0  0  0  0  0  0  0  0  0  0  0  0
   30.0920   27.4350   46.1730 C   0  0  0  0  0  3  0  0  0  0  0  0
   29.2230   26.8340   46.5250 H   0  0  0  0  0  0  0  0  0  0  0  0
   30.3840   28.4800   47.1970 C   0  0  2  0  0  3  0  0  0  0  0  0
   30.4210   27.4630   49.3070 O   0  0  0  0  0  0  0  0  0  0  0  0
   30.3740   26.4680   49.2150 H   0  0  0  0  0  0  0  0  0  0  0  0
   30.9110   29.6550   46.6250 O   0  0  0  0  0  0  0  0  0  0  0  0
   31.4590   30.1720   47.2610 H   0  0  0  0  0  0  0  0  0  0  0  0
  1  7  1  0  0  0  0
  2  9  1  0  0  0  0
  2  1  2  0  0  0  0
  3  4  2  0  0  0  0
  3  2  1  0  0  0  0
  4  5  1  0  0  0  0
  5 20  1  0  0  0  0
  5  6  2  0  0  0  0
  6  1  1  0  0  0  0
  8  3  1  0  0  0  0
  9 10  1  0  0  0  0
 10 11  2  0  0  0  0
 10 17  1  0  0  0  0
 11 18  1  0  0  0  0
 12 11  1  0  0  0  0
 13 12  2  0  0  0  0
 14 15  1  0  0  0  0
 14 12  1  0  0  0  0
 15  9  1  0  0  0  0
 16 15  2  0  0  0  0
 19 14  1  0  0  0  0
 21 29  1  1  0  0  0
 22 21  1  0  0  0  0
 22 20  1  1  0  0  0
 23 22  1  0  0  0  0
 24 23  1  0  0  0  0
 25 26  1  0  0  0  0
 25 23  1  0  0  0  0
 26 27  1  0  0  0  0
 26 28  1  0  0  0  0
 28 31  1  6  0  0  0
 28 21  1  0  0  0  0
 30 29  1  0  0  0  0
 31 32  1  0  0  0  0
M  END
>  <minimizedAffinity>
-5.68305159

>  <minimizedRMSD>
0.260888755

$$$$
