
 OpenBabel03272500043D

 32 34  0  0  1  0  0  0  0  0999 V2000
   36.8050   29.5780   49.4100 C   0  0  0  0  0  0  0  0  0  0  0  0
   36.5230   30.7050   48.5830 C   0  0  0  0  0  0  0  0  0  0  0  0
   35.3300   30.6870   47.8910 C   0  0  0  0  0  0  0  0  0  0  0  0
   34.4960   29.6210   48.0230 N   0  0  0  0  0  0  0  0  0  0  0  0
   34.7770   28.5780   48.8010 C   0  0  0  0  0  0  0  0  0  0  0  0
   35.9440   28.5440   49.5090 N   0  0  0  0  0  0  0  0  0  0  0  0
   37.7350   29.5560   49.9720 H   0  0  0  0  0  0  0  0  0  0  0  0
   35.1200   31.5360   47.2680 H   0  0  0  0  0  0  0  0  0  0  0  0
   37.4810   31.7460   48.5370 N   0  0  0  0  0  0  0  0  0  0  0  0
   37.6740   32.5940   49.5500 C   0  0  0  0  0  0  0  0  0  0  0  0
   38.6380   33.6000   49.4360 C   0  0  0  0  0  0  0  0  0  0  0  0
   39.3140   33.6140   48.2470 C   0  0  0  0  0  0  0  0  0  0  0  0
   40.1930   34.5200   48.1260 O   0  0  0  0  0  0  0  0  0  0  0  0
   39.1490   32.7890   47.2210 N   0  0  0  0  0  0  0  0  0  0  0  0
   38.2010   31.8300   47.3790 C   0  0  0  0  0  0  0  0  0  0  0  0
   38.0290   31.0260   46.4010 O   0  0  0  0  0  0  0  0  0  0  0  0
   37.0800   32.4920   50.4520 H   0  0  0  0  0  0  0  0  0  0  0  0
   38.8200   34.3030   50.2390 H   0  0  0  0  0  0  0  0  0  0  0  0
   39.7110   32.8700   46.3430 H   0  0  0  0  0  0  0  0  0  0  0  0
   33.9380   27.4910   48.9440 O   0  0  0  0  0  0  0  0  0  0  0  0
   31.6040   27.7900   48.3400 C   0  0  1  0  0  3  0  0  0  0  0  0
   32.9210   27.1160   48.0790 C   0  0  1  0  0  3  0  0  0  0  0  0
   33.2780   27.3830   46.6170 C   0  0  0  0  0  3  0  0  0  0  0  0
   33.3490   28.4780   46.4430 H   0  0  0  0  0  0  0  0  0  0  0  0
   32.3780   26.7480   45.7840 O   0  0  0  0  0  0  0  0  0  0  0  0
   31.0790   27.1530   45.9570 C   0  0  0  0  0  3  0  0  0  0  0  0
   30.3650   26.3080   46.0860 H   0  0  0  0  0  0  0  0  0  0  0  0
   30.8580   28.1260   47.0660 C   0  0  2  0  0  3  0  0  0  0  0  0
   30.7740   26.9410   49.0860 O   0  0  0  0  0  0  0  0  0  0  0  0
   31.0300   25.9870   48.9400 H   0  0  0  0  0  0  0  0  0  0  0  0
   31.1290   29.4520   46.6740 O   0  0  0  0  0  0  0  0  0  0  0  0
   31.3730   30.0280   47.4370 H   0  0  0  0  0  0  0  0  0  0  0  0
  1  6  1  0  0  0  0
  1  7  1  0  0  0  0
  2  1  2  0  0  0  0
  3  4  2  0  0  0  0
  3  2  1  0  0  0  0
  4  5  1  0  0  0  0
  5 20  1  0  0  0  0
  5  6  2  0  0  0  0
  8  3  1  0  0  0  0
  9  2  1  0  0  0  0
  9 10  1  0  0  0  0
 10 17  1  0  0  0  0
 11 10  2  0  0  0  0
 11 18  1  0  0  0  0
 12 11  1  0  0  0  0
 13 12  2  0  0  0  0
 14 15  1  0  0  0  0
 14 12  1  0  0  0  0
 15  9  1  0  0  0  0
 16 15  2  0  0  0  0
 19 14  1  0  0  0  0
 21 29  1  1  0  0  0
 22 21  1  0  0  0  0
 22 20  1  1  0  0  0
 23 22  1  0  0  0  0
 24 23  1  0  0  0  0
 25 26  1  0  0  0  0
 25 23  1  0  0  0  0
 26 27  1  0  0  0  0
 26 28  1  0  0  0  0
 28 31  1  6  0  0  0
 28 21  1  0  0  0  0
 30 29  1  0  0  0  0
 31 32  1  0  0  0  0
M  END
>  <minimizedAffinity>
-5.723176

>  <minimizedRMSD>
1.10855961

$$$$
