
 OpenBabel03272500063D

 32 34  0  0  1  0  0  0  0  0999 V2000
   38.4540   26.7440   35.9540 C   0  0  0  0  0  0  0  0  0  0  0  0
   38.4720   25.4800   35.2950 C   0  0  0  0  0  0  0  0  0  0  0  0
   37.7220   25.3670   34.1430 C   0  0  0  0  0  0  0  0  0  0  0  0
   37.0160   26.4410   33.6960 N   0  0  0  0  0  0  0  0  0  0  0  0
   37.0120   27.6130   34.3260 C   0  0  0  0  0  0  0  0  0  0  0  0
   37.7370   27.7800   35.4710 N   0  0  0  0  0  0  0  0  0  0  0  0
   39.0330   26.8720   36.8650 H   0  0  0  0  0  0  0  0  0  0  0  0
   37.7370   24.4140   33.6480 H   0  0  0  0  0  0  0  0  0  0  0  0
   39.2510   24.4470   35.8700 N   0  0  0  0  0  0  0  0  0  0  0  0
   40.5100   24.2020   35.5000 C   0  0  0  0  0  0  0  0  0  0  0  0
   41.2210   23.1650   36.1110 C   0  0  0  0  0  0  0  0  0  0  0  0
   40.5240   22.4770   37.0660 C   0  0  0  0  0  0  0  0  0  0  0  0
   41.1550   21.5320   37.6300 O   0  0  0  0  0  0  0  0  0  0  0  0
   39.2750   22.6920   37.4580 N   0  0  0  0  0  0  0  0  0  0  0  0
   38.6260   23.7100   36.8350 C   0  0  0  0  0  0  0  0  0  0  0  0
   37.4220   23.9310   37.2010 O   0  0  0  0  0  0  0  0  0  0  0  0
   40.9680   24.8120   34.7280 H   0  0  0  0  0  0  0  0  0  0  0  0
   42.2440   22.9410   35.8340 H   0  0  0  0  0  0  0  0  0  0  0  0
   38.8150   22.1160   38.1990 H   0  0  0  0  0  0  0  0  0  0  0  0
   36.3000   28.7090   33.8830 O   0  0  0  0  0  0  0  0  0  0  0  0
   35.8340   30.8900   34.8470 C   0  0  1  0  0  3  0  0  0  0  0  0
   35.4070   29.4670   34.6250 C   0  0  1  0  0  3  0  0  0  0  0  0
   34.0170   29.5100   33.9890 C   0  0  0  0  0  3  0  0  0  0  0  0
   34.0630   30.0670   33.0280 H   0  0  0  0  0  0  0  0  0  0  0  0
   33.1010   30.0260   34.8830 O   0  0  0  0  0  0  0  0  0  0  0  0
   33.3870   31.3010   35.3010 C   0  0  0  0  0  3  0  0  0  0  0  0
   33.3660   31.4190   36.4080 H   0  0  0  0  0  0  0  0  0  0  0  0
   34.6740   31.8620   34.7950 C   0  0  2  0  0  3  0  0  0  0  0  0
   36.4200   31.0210   36.1140 O   0  0  0  0  0  0  0  0  0  0  0  0
   36.0790   30.3110   36.7290 H   0  0  0  0  0  0  0  0  0  0  0  0
   34.5470   32.4060   33.5020 O   0  0  0  0  0  0  0  0  0  0  0  0
   35.4010   32.4110   33.0090 H   0  0  0  0  0  0  0  0  0  0  0  0
  1  7  1  0  0  0  0
  2  9  1  0  0  0  0
  2  1  2  0  0  0  0
  3  2  1  0  0  0  0
  4  3  2  0  0  0  0
  4  5  1  0  0  0  0
  5  6  2  0  0  0  0
  6  1  1  0  0  0  0
  8  3  1  0  0  0  0
  9 15  1  0  0  0  0
 10  9  1  0  0  0  0
 10 11  2  0  0  0  0
 11 12  1  0  0  0  0
 12 14  1  0  0  0  0
 12 13  2  0  0  0  0
 14 19  1  0  0  0  0
 15 16  2  0  0  0  0
 15 14  1  0  0  0  0
 17 10  1  0  0  0  0
 18 11  1  0  0  0  0
 20  5  1  0  0  0  0
 21 29  1  1  0  0  0
 22 20  1  6  0  0  0
 22 21  1  0  0  0  0
 23 22  1  0  0  0  0
 23 25  1  0  0  0  0
 24 23  1  0  0  0  0
 25 26  1  0  0  0  0
 26 27  1  0  0  0  0
 28 31  1  6  0  0  0
 28 21  1  0  0  0  0
 28 26  1  0  0  0  0
 29 30  1  0  0  0  0
 32 31  1  0  0  0  0
M  END
>  <minimizedAffinity>
-5.76913118

$$$$

 OpenBabel03272500063D

 32 34  0  0  1  0  0  0  0  0999 V2000
   38.5250   23.8170   34.2210 C   0  0  0  0  0  0  0  0  0  0  0  0
   39.3490   24.2780   35.2900 C   0  0  0  0  0  0  0  0  0  0  0  0
   39.2680   25.6170   35.6080 C   0  0  0  0  0  0  0  0  0  0  0  0
   38.4250   26.4220   34.9050 N   0  0  0  0  0  0  0  0  0  0  0  0
   37.6630   25.9730   33.9110 C   0  0  0  0  0  0  0  0  0  0  0  0
   37.7040   24.6560   33.5540 N   0  0  0  0  0  0  0  0  0  0  0  0
   38.5610   22.7680   33.9410 H   0  0  0  0  0  0  0  0  0  0  0  0
   39.8900   25.9610   36.4130 H   0  0  0  0  0  0  0  0  0  0  0  0
   40.1800   23.3310   35.9360 N   0  0  0  0  0  0  0  0  0  0  0  0
   41.3830   22.9900   35.4710 C   0  0  0  0  0  0  0  0  0  0  0  0
   42.1510   22.0460   36.1600 C   0  0  0  0  0  0  0  0  0  0  0  0
   41.5640   21.5480   37.2910 C   0  0  0  0  0  0  0  0  0  0  0  0
   42.2470   20.6900   37.9300 O   0  0  0  0  0  0  0  0  0  0  0  0
   40.3730   21.8630   37.7830 N   0  0  0  0  0  0  0  0  0  0  0  0
   39.6660   22.7830   37.0780 C   0  0  0  0  0  0  0  0  0  0  0  0
   38.5170   23.0990   37.5370 O   0  0  0  0  0  0  0  0  0  0  0  0
   41.7530   23.4490   34.5600 H   0  0  0  0  0  0  0  0  0  0  0  0
   43.1300   21.7480   35.8100 H   0  0  0  0  0  0  0  0  0  0  0  0
   39.9980   21.4320   38.6590 H   0  0  0  0  0  0  0  0  0  0  0  0
   36.8050   26.7790   33.1910 O   0  0  0  0  0  0  0  0  0  0  0  0
   37.9110   27.5910   31.1860 C   0  0  1  0  0  3  0  0  0  0  0  0
   37.1530   27.8970   32.4460 C   0  0  1  0  0  3  0  0  0  0  0  0
   35.9340   28.7270   32.0460 C   0  0  0  0  0  3  0  0  0  0  0  0
   35.3050   28.1510   31.3340 H   0  0  0  0  0  0  0  0  0  0  0  0
   36.3340   29.9550   31.5600 O   0  0  0  0  0  0  0  0  0  0  0  0
   37.1440   29.8810   30.4560 C   0  0  0  0  0  3  0  0  0  0  0  0
   38.0750   30.4850   30.5480 H   0  0  0  0  0  0  0  0  0  0  0  0
   37.5230   28.4990   30.0370 C   0  0  2  0  0  3  0  0  0  0  0  0
   39.2850   27.7680   31.4000 O   0  0  0  0  0  0  0  0  0  0  0  0
   39.4400   28.4160   32.1450 H   0  0  0  0  0  0  0  0  0  0  0  0
   36.5300   27.8900   29.2450 O   0  0  0  0  0  0  0  0  0  0  0  0
   36.5600   26.9060   29.2920 H   0  0  0  0  0  0  0  0  0  0  0  0
  1  2  1  0  0  0  0
  2  3  2  0  0  0  0
  2  9  1  0  0  0  0
  3  8  1  0  0  0  0
  4  3  1  0  0  0  0
  5  4  2  0  0  0  0
  6  5  1  0  0  0  0
  6  1  2  0  0  0  0
  7  1  1  0  0  0  0
  9 15  1  0  0  0  0
 10  9  1  0  0  0  0
 10 11  2  0  0  0  0
 11 12  1  0  0  0  0
 12 14  1  0  0  0  0
 12 13  2  0  0  0  0
 14 19  1  0  0  0  0
 15 16  2  0  0  0  0
 15 14  1  0  0  0  0
 17 10  1  0  0  0  0
 18 11  1  0  0  0  0
 20  5  1  0  0  0  0
 21 29  1  1  0  0  0
 21 22  1  0  0  0  0
 22 20  1  6  0  0  0
 23 22  1  0  0  0  0
 24 23  1  0  0  0  0
 25 23  1  0  0  0  0
 26 27  1  0  0  0  0
 26 25  1  0  0  0  0
 28 31  1  1  0  0  0
 28 26  1  0  0  0  0
 28 21  1  0  0  0  0
 29 30  1  0  0  0  0
 31 32  1  0  0  0  0
M  END
>  <minimizedAffinity>
-5.71779251

$$$$

 OpenBabel03272500063D

 32 34  0  0  1  0  0  0  0  0999 V2000
   38.3300   26.6900   32.6550 C   0  0  0  0  0  0  0  0  0  0  0  0
   37.6140   26.5410   31.4300 C   0  0  0  0  0  0  0  0  0  0  0  0
   36.9990   25.3270   31.2110 C   0  0  0  0  0  0  0  0  0  0  0  0
   37.0990   24.3470   32.1490 N   0  0  0  0  0  0  0  0  0  0  0  0
   37.7720   24.5050   33.2860 C   0  0  0  0  0  0  0  0  0  0  0  0
   38.4000   25.6860   33.5550 N   0  0  0  0  0  0  0  0  0  0  0  0
   38.8280   27.6320   32.8640 H   0  0  0  0  0  0  0  0  0  0  0  0
   36.4610   25.2180   30.2880 H   0  0  0  0  0  0  0  0  0  0  0  0
   37.5910   27.6440   30.5420 N   0  0  0  0  0  0  0  0  0  0  0  0
   38.5350   27.8490   29.6220 C   0  0  0  0  0  0  0  0  0  0  0  0
   38.4490   28.9610   28.7780 C   0  0  0  0  0  0  0  0  0  0  0  0
   37.3590   29.7590   28.9920 C   0  0  0  0  0  0  0  0  0  0  0  0
   37.2640   30.7730   28.2350 O   0  0  0  0  0  0  0  0  0  0  0  0
   36.4030   29.5860   29.8960 N   0  0  0  0  0  0  0  0  0  0  0  0
   36.5310   28.4930   30.6910 C   0  0  0  0  0  0  0  0  0  0  0  0
   35.6190   28.3110   31.5670 O   0  0  0  0  0  0  0  0  0  0  0  0
   39.3600   27.1500   29.5380 H   0  0  0  0  0  0  0  0  0  0  0  0
   39.1970   29.1550   28.0210 H   0  0  0  0  0  0  0  0  0  0  0  0
   35.5990   30.2480   29.9930 H   0  0  0  0  0  0  0  0  0  0  0  0
   37.8800   23.5180   34.2460 O   0  0  0  0  0  0  0  0  0  0  0  0
   37.8750   24.1770   36.5850 C   0  0  1  0  0  3  0  0  0  0  0  0
   38.6170   23.5870   35.4190 C   0  0  1  0  0  3  0  0  0  0  0  0
   39.1270   22.2150   35.8620 C   0  0  0  0  0  3  0  0  0  0  0  0
   38.2690   21.5720   36.1540 H   0  0  0  0  0  0  0  0  0  0  0  0
   40.0740   22.3590   36.8560 O   0  0  0  0  0  0  0  0  0  0  0  0
   39.6100   22.9920   37.9800 C   0  0  0  0  0  3  0  0  0  0  0  0
   40.2600   23.8310   38.3170 H   0  0  0  0  0  0  0  0  0  0  0  0
   38.2060   23.4930   37.8940 C   0  0  2  0  0  3  0  0  0  0  0  0
   38.2160   25.5290   36.7320 O   0  0  0  0  0  0  0  0  0  0  0  0
   39.1200   25.7040   36.3440 H   0  0  0  0  0  0  0  0  0  0  0  0
   37.2620   22.4860   38.1750 O   0  0  0  0  0  0  0  0  0  0  0  0
   36.3880   22.6610   37.7550 H   0  0  0  0  0  0  0  0  0  0  0  0
  1  7  1  0  0  0  0
  1  6  1  0  0  0  0
  2  1  2  0  0  0  0
  3  2  1  0  0  0  0
  3  4  2  0  0  0  0
  4  5  1  0  0  0  0
  5  6  2  0  0  0  0
  5 20  1  0  0  0  0
  8  3  1  0  0  0  0
  9 15  1  0  0  0  0
  9  2  1  0  0  0  0
 10  9  1  0  0  0  0
 11 12  1  0  0  0  0
 11 10  2  0  0  0  0
 12 14  1  0  0  0  0
 13 12  2  0  0  0  0
 14 19  1  0  0  0  0
 14 15  1  0  0  0  0
 15 16  2  0  0  0  0
 17 10  1  0  0  0  0
 18 11  1  0  0  0  0
 21 29  1  1  0  0  0
 21 28  1  0  0  0  0
 22 20  1  6  0  0  0
 22 23  1  0  0  0  0
 22 21  1  0  0  0  0
 23 24  1  0  0  0  0
 23 25  1  0  0  0  0
 25 26  1  0  0  0  0
 26 27  1  0  0  0  0
 28 26  1  0  0  0  0
 28 31  1  6  0  0  0
 30 29  1  0  0  0  0
 32 31  1  0  0  0  0
M  END
>  <minimizedAffinity>
-5.46518087

$$$$

 OpenBabel03272500063D

 32 34  0  0  1  0  0  0  0  0999 V2000
   37.7610   25.1290   33.8880 C   0  0  0  0  0  0  0  0  0  0  0  0
   38.3440   25.4420   35.1520 C   0  0  0  0  0  0  0  0  0  0  0  0
   38.0850   26.6950   35.6650 C   0  0  0  0  0  0  0  0  0  0  0  0
   37.3050   27.5590   34.9600 N   0  0  0  0  0  0  0  0  0  0  0  0
   36.7700   27.2480   33.7820 C   0  0  0  0  0  0  0  0  0  0  0  0
   36.9920   26.0210   33.2280 N   0  0  0  0  0  0  0  0  0  0  0  0
   37.9410   24.1500   33.4520 H   0  0  0  0  0  0  0  0  0  0  0  0
   38.5260   26.9290   36.6160 H   0  0  0  0  0  0  0  0  0  0  0  0
   39.1350   24.4480   35.7770 N   0  0  0  0  0  0  0  0  0  0  0  0
   40.4080   24.2250   35.4460 C   0  0  0  0  0  0  0  0  0  0  0  0
   41.1300   23.2260   36.1040 C   0  0  0  0  0  0  0  0  0  0  0  0
   40.4280   22.5490   37.0640 C   0  0  0  0  0  0  0  0  0  0  0  0
   41.0680   21.6380   37.6720 O   0  0  0  0  0  0  0  0  0  0  0  0
   39.1650   22.7430   37.4190 N   0  0  0  0  0  0  0  0  0  0  0  0
   38.5060   23.7240   36.7500 C   0  0  0  0  0  0  0  0  0  0  0  0
   37.2880   23.9250   37.0810 O   0  0  0  0  0  0  0  0  0  0  0  0
   40.8690   24.8230   34.6660 H   0  0  0  0  0  0  0  0  0  0  0  0
   42.1650   23.0200   35.8590 H   0  0  0  0  0  0  0  0  0  0  0  0
   38.7020   22.1790   38.1670 H   0  0  0  0  0  0  0  0  0  0  0  0
   35.9770   28.1160   33.0580 O   0  0  0  0  0  0  0  0  0  0  0  0
   36.1820   29.6420   31.1780 C   0  0  1  0  0  3  0  0  0  0  0  0
   36.3140   29.4000   32.6550 C   0  0  1  0  0  3  0  0  0  0  0  0
   35.4760   30.4650   33.3610 C   0  0  0  0  0  3  0  0  0  0  0  0
   34.4160   30.3830   33.0370 H   0  0  0  0  0  0  0  0  0  0  0  0
   36.0220   31.7150   33.1510 O   0  0  0  0  0  0  0  0  0  0  0  0
   36.0950   32.0770   31.8300 C   0  0  0  0  0  3  0  0  0  0  0  0
   37.1020   32.4420   31.5260 H   0  0  0  0  0  0  0  0  0  0  0  0
   35.6640   31.0290   30.8590 C   0  0  2  0  0  3  0  0  0  0  0  0
   37.4350   29.5220   30.5610 O   0  0  0  0  0  0  0  0  0  0  0  0
   38.1650   29.7090   31.2170 H   0  0  0  0  0  0  0  0  0  0  0  0
   34.2670   31.0030   30.6860 O   0  0  0  0  0  0  0  0  0  0  0  0
   33.9390   30.1210   30.3930 H   0  0  0  0  0  0  0  0  0  0  0  0
  1  2  1  0  0  0  0
  2  3  2  0  0  0  0
  2  9  1  0  0  0  0
  3  8  1  0  0  0  0
  4  3  1  0  0  0  0
  5  4  2  0  0  0  0
  6  5  1  0  0  0  0
  6  1  2  0  0  0  0
  7  1  1  0  0  0  0
  9 15  1  0  0  0  0
 10  9  1  0  0  0  0
 10 11  2  0  0  0  0
 11 12  1  0  0  0  0
 12 14  1  0  0  0  0
 12 13  2  0  0  0  0
 14 19  1  0  0  0  0
 15 16  2  0  0  0  0
 15 14  1  0  0  0  0
 17 10  1  0  0  0  0
 18 11  1  0  0  0  0
 20  5  1  0  0  0  0
 21 29  1  6  0  0  0
 21 22  1  0  0  0  0
 22 20  1  6  0  0  0
 22 23  1  0  0  0  0
 24 23  1  0  0  0  0
 25 23  1  0  0  0  0
 26 25  1  0  0  0  0
 27 26  1  0  0  0  0
 28 31  1  1  0  0  0
 28 21  1  0  0  0  0
 28 26  1  0  0  0  0
 29 30  1  0  0  0  0
 32 31  1  0  0  0  0
M  END
>  <minimizedAffinity>
-5.42768049

$$$$

 OpenBabel03272500063D

 32 34  0  0  1  0  0  0  0  0999 V2000
   38.1680   26.8370   35.8740 C   0  0  0  0  0  0  0  0  0  0  0  0
   38.2610   25.5490   35.2670 C   0  0  0  0  0  0  0  0  0  0  0  0
   37.6370   25.3880   34.0490 C   0  0  0  0  0  0  0  0  0  0  0  0
   36.9750   26.4370   33.4910 N   0  0  0  0  0  0  0  0  0  0  0  0
   36.8990   27.6320   34.0730 C   0  0  0  0  0  0  0  0  0  0  0  0
   37.5000   27.8480   35.2800 N   0  0  0  0  0  0  0  0  0  0  0  0
   38.6480   27.0030   36.8340 H   0  0  0  0  0  0  0  0  0  0  0  0
   37.7080   24.4170   33.5940 H   0  0  0  0  0  0  0  0  0  0  0  0
   38.9820   24.5450   35.9590 N   0  0  0  0  0  0  0  0  0  0  0  0
   38.5040   23.9290   37.0410 C   0  0  0  0  0  0  0  0  0  0  0  0
   39.2710   22.9470   37.6740 C   0  0  0  0  0  0  0  0  0  0  0  0
   40.4870   22.7080   37.0940 C   0  0  0  0  0  0  0  0  0  0  0  0
   41.1970   21.8190   37.6560 O   0  0  0  0  0  0  0  0  0  0  0  0
   40.9940   23.3000   36.0210 N   0  0  0  0  0  0  0  0  0  0  0  0
   40.2110   24.2460   35.4420 C   0  0  0  0  0  0  0  0  0  0  0  0
   40.6840   24.8270   34.4060 O   0  0  0  0  0  0  0  0  0  0  0  0
   37.5230   24.1980   37.4190 H   0  0  0  0  0  0  0  0  0  0  0  0
   38.9120   22.4280   38.5540 H   0  0  0  0  0  0  0  0  0  0  0  0
   41.9370   23.0560   35.6410 H   0  0  0  0  0  0  0  0  0  0  0  0
   36.2310   28.7040   33.5170 O   0  0  0  0  0  0  0  0  0  0  0  0
   35.7440   30.8770   34.4890 C   0  0  1  0  0  3  0  0  0  0  0  0
   35.2760   29.4930   34.1410 C   0  0  1  0  0  3  0  0  0  0  0  0
   34.0120   29.6470   33.2940 C   0  0  0  0  0  3  0  0  0  0  0  0
   34.2440   30.2310   32.3780 H   0  0  0  0  0  0  0  0  0  0  0  0
   32.9950   30.1910   34.0530 O   0  0  0  0  0  0  0  0  0  0  0  0
   33.2840   31.4290   34.5660 C   0  0  0  0  0  3  0  0  0  0  0  0
   33.0920   31.5120   35.6600 H   0  0  0  0  0  0  0  0  0  0  0  0
   34.6660   31.9240   34.2950 C   0  0  2  0  0  3  0  0  0  0  0  0
   36.1250   30.9270   35.8370 O   0  0  0  0  0  0  0  0  0  0  0  0
   35.6490   30.2210   36.3590 H   0  0  0  0  0  0  0  0  0  0  0  0
   34.7820   32.5170   33.0240 O   0  0  0  0  0  0  0  0  0  0  0  0
   35.7020   32.4840   32.6730 H   0  0  0  0  0  0  0  0  0  0  0  0
  1  7  1  0  0  0  0
  2  1  2  0  0  0  0
  2  9  1  0  0  0  0
  3  2  1  0  0  0  0
  4  3  2  0  0  0  0
  4  5  1  0  0  0  0
  5  6  2  0  0  0  0
  6  1  1  0  0  0  0
  8  3  1  0  0  0  0
  9 10  1  0  0  0  0
 10 17  1  0  0  0  0
 10 11  2  0  0  0  0
 11 18  1  0  0  0  0
 12 13  2  0  0  0  0
 12 11  1  0  0  0  0
 14 12  1  0  0  0  0
 15  9  1  0  0  0  0
 15 14  1  0  0  0  0
 16 15  2  0  0  0  0
 19 14  1  0  0  0  0
 20  5  1  0  0  0  0
 21 29  1  1  0  0  0
 22 20  1  6  0  0  0
 22 21  1  0  0  0  0
 23 25  1  0  0  0  0
 23 22  1  0  0  0  0
 24 23  1  0  0  0  0
 25 26  1  0  0  0  0
 26 27  1  0  0  0  0
 28 31  1  6  0  0  0
 28 21  1  0  0  0  0
 28 26  1  0  0  0  0
 29 30  1  0  0  0  0
 32 31  1  0  0  0  0
M  END
>  <minimizedAffinity>
-5.22815228

$$$$

 OpenBabel03272500063D

 32 34  0  0  1  0  0  0  0  0999 V2000
   38.8180   26.6150   35.2300 C   0  0  0  0  0  0  0  0  0  0  0  0
   38.6630   25.2460   34.8600 C   0  0  0  0  0  0  0  0  0  0  0  0
   37.8400   24.9800   33.7870 C   0  0  0  0  0  0  0  0  0  0  0  0
   37.2250   26.0080   33.1430 N   0  0  0  0  0  0  0  0  0  0  0  0
   37.3820   27.2800   33.5030 C   0  0  0  0  0  0  0  0  0  0  0  0
   38.1870   27.6010   34.5580 N   0  0  0  0  0  0  0  0  0  0  0  0
   39.4600   26.8650   36.0700 H   0  0  0  0  0  0  0  0  0  0  0  0
   37.7240   23.9480   33.5110 H   0  0  0  0  0  0  0  0  0  0  0  0
   39.3620   24.2760   35.6180 N   0  0  0  0  0  0  0  0  0  0  0  0
   40.6180   23.9150   35.3460 C   0  0  0  0  0  0  0  0  0  0  0  0
   41.2470   22.9490   36.1370 C   0  0  0  0  0  0  0  0  0  0  0  0
   40.4780   22.4500   37.1520 C   0  0  0  0  0  0  0  0  0  0  0  0
   41.0340   21.5720   37.8800 O   0  0  0  0  0  0  0  0  0  0  0  0
   39.2290   22.7840   37.4510 N   0  0  0  0  0  0  0  0  0  0  0  0
   38.6620   23.7260   36.6540 C   0  0  0  0  0  0  0  0  0  0  0  0
   37.4600   24.0600   36.9290 O   0  0  0  0  0  0  0  0  0  0  0  0
   41.1380   24.3770   34.5130 H   0  0  0  0  0  0  0  0  0  0  0  0
   42.2650   22.6350   35.9430 H   0  0  0  0  0  0  0  0  0  0  0  0
   38.7110   22.3510   38.2490 H   0  0  0  0  0  0  0  0  0  0  0  0
   36.7640   28.3320   32.8580 O   0  0  0  0  0  0  0  0  0  0  0  0
   36.2630   29.9150   31.0830 C   0  0  1  0  0  3  0  0  0  0  0  0
   36.7050   28.5370   31.4870 C   0  0  1  0  0  3  0  0  0  0  0  0
   38.0490   28.2800   30.8060 C   0  0  0  0  0  3  0  0  0  0  0  0
   38.7860   29.0460   31.1310 H   0  0  0  0  0  0  0  0  0  0  0  0
   37.8840   28.2190   29.4370 O   0  0  0  0  0  0  0  0  0  0  0  0
   37.3710   29.3650   28.8860 C   0  0  0  0  0  3  0  0  0  0  0  0
   36.5000   29.1840   28.2170 H   0  0  0  0  0  0  0  0  0  0  0  0
   36.9980   30.4300   29.8630 C   0  0  2  0  0  3  0  0  0  0  0  0
   34.8980   29.9040   30.7640 O   0  0  0  0  0  0  0  0  0  0  0  0
   34.6150   28.9900   30.4770 H   0  0  0  0  0  0  0  0  0  0  0  0
   38.1030   31.2110   30.2500 O   0  0  0  0  0  0  0  0  0  0  0  0
   37.9830   31.6240   31.1370 H   0  0  0  0  0  0  0  0  0  0  0  0
  1  7  1  0  0  0  0
  2  1  1  0  0  0  0
  2  9  1  0  0  0  0
  3  2  2  0  0  0  0
  4  5  2  0  0  0  0
  4  3  1  0  0  0  0
  5  6  1  0  0  0  0
  6  1  2  0  0  0  0
  8  3  1  0  0  0  0
  9 15  1  0  0  0  0
 10  9  1  0  0  0  0
 10 11  2  0  0  0  0
 11 12  1  0  0  0  0
 12 14  1  0  0  0  0
 12 13  2  0  0  0  0
 14 19  1  0  0  0  0
 15 16  2  0  0  0  0
 15 14  1  0  0  0  0
 17 10  1  0  0  0  0
 18 11  1  0  0  0  0
 20  5  1  0  0  0  0
 21 29  1  6  0  0  0
 21 22  1  0  0  0  0
 22 20  1  1  0  0  0
 23 24  1  0  0  0  0
 23 22  1  0  0  0  0
 25 23  1  0  0  0  0
 26 25  1  0  0  0  0
 26 28  1  0  0  0  0
 27 26  1  0  0  0  0
 28 31  1  1  0  0  0
 28 21  1  0  0  0  0
 30 29  1  0  0  0  0
 31 32  1  0  0  0  0
M  END
>  <minimizedAffinity>
-5.0461154

$$$$

 OpenBabel03272500063D

 32 34  0  0  1  0  0  0  0  0999 V2000
   38.4830   26.8980   36.1150 C   0  0  0  0  0  0  0  0  0  0  0  0
   38.3570   25.7080   35.3380 C   0  0  0  0  0  0  0  0  0  0  0  0
   37.5120   25.7610   34.2510 C   0  0  0  0  0  0  0  0  0  0  0  0
   36.8500   26.9160   33.9720 N   0  0  0  0  0  0  0  0  0  0  0  0
   36.9810   28.0170   34.7090 C   0  0  0  0  0  0  0  0  0  0  0  0
   37.8060   28.0210   35.7970 N   0  0  0  0  0  0  0  0  0  0  0  0
   39.1410   26.8960   36.9800 H   0  0  0  0  0  0  0  0  0  0  0  0
   37.4180   24.8630   33.6680 H   0  0  0  0  0  0  0  0  0  0  0  0
   39.1050   24.5750   35.7420 N   0  0  0  0  0  0  0  0  0  0  0  0
   40.3280   24.3150   35.2770 C   0  0  0  0  0  0  0  0  0  0  0  0
   41.0080   23.1770   35.7190 C   0  0  0  0  0  0  0  0  0  0  0  0
   40.3210   22.4130   36.6220 C   0  0  0  0  0  0  0  0  0  0  0  0
   40.9240   21.3750   37.0340 O   0  0  0  0  0  0  0  0  0  0  0  0
   39.1070   22.6400   37.1050 N   0  0  0  0  0  0  0  0  0  0  0  0
   38.4870   23.7580   36.6460 C   0  0  0  0  0  0  0  0  0  0  0  0
   37.3160   23.9920   37.1010 O   0  0  0  0  0  0  0  0  0  0  0  0
   40.7810   24.9910   34.5590 H   0  0  0  0  0  0  0  0  0  0  0  0
   42.0020   22.9370   35.3610 H   0  0  0  0  0  0  0  0  0  0  0  0
   38.6520   22.0020   37.7970 H   0  0  0  0  0  0  0  0  0  0  0  0
   36.3160   29.1950   34.4360 O   0  0  0  0  0  0  0  0  0  0  0  0
   34.0310   30.0130   34.5540 C   0  0  1  0  0  3  0  0  0  0  0  0
   35.1070   29.3230   33.7660 C   0  0  1  0  0  3  0  0  0  0  0  0
   35.2550   30.0830   32.4480 C   0  0  0  0  0  3  0  0  0  0  0  0
   35.5280   31.1400   32.6550 H   0  0  0  0  0  0  0  0  0  0  0  0
   34.1100   29.9460   31.6900 O   0  0  0  0  0  0  0  0  0  0  0  0
   32.9780   30.4230   32.2990 C   0  0  0  0  0  3  0  0  0  0  0  0
   32.1330   29.6980   32.2950 H   0  0  0  0  0  0  0  0  0  0  0  0
   33.1660   30.9130   33.6970 C   0  0  2  0  0  3  0  0  0  0  0  0
   33.1800   29.0620   35.1350 O   0  0  0  0  0  0  0  0  0  0  0  0
   33.1980   28.2130   34.6090 H   0  0  0  0  0  0  0  0  0  0  0  0
   33.6430   32.2370   33.7390 O   0  0  0  0  0  0  0  0  0  0  0  0
   34.1340   32.4360   34.5700 H   0  0  0  0  0  0  0  0  0  0  0  0
  1  7  1  0  0  0  0
  2  9  1  0  0  0  0
  2  1  2  0  0  0  0
  3  2  1  0  0  0  0
  4  3  2  0  0  0  0
  4  5  1  0  0  0  0
  5  6  2  0  0  0  0
  6  1  1  0  0  0  0
  8  3  1  0  0  0  0
  9 15  1  0  0  0  0
 10 11  2  0  0  0  0
 10  9  1  0  0  0  0
 11 12  1  0  0  0  0
 12 13  2  0  0  0  0
 12 14  1  0  0  0  0
 14 19  1  0  0  0  0
 15 16  2  0  0  0  0
 15 14  1  0  0  0  0
 17 10  1  0  0  0  0
 18 11  1  0  0  0  0
 20  5  1  0  0  0  0
 21 29  1  6  0  0  0
 22 20  1  1  0  0  0
 22 21  1  0  0  0  0
 23 24  1  0  0  0  0
 23 22  1  0  0  0  0
 25 26  1  0  0  0  0
 25 23  1  0  0  0  0
 26 28  1  0  0  0  0
 27 26  1  0  0  0  0
 28 31  1  6  0  0  0
 28 21  1  0  0  0  0
 30 29  1  0  0  0  0
 31 32  1  0  0  0  0
M  END
>  <minimizedAffinity>
-5.02860165

$$$$

 OpenBabel03272500063D

 32 34  0  0  1  0  0  0  0  0999 V2000
   39.2360   26.7400   33.4180 C   0  0  0  0  0  0  0  0  0  0  0  0
   39.0860   26.1930   32.1090 C   0  0  0  0  0  0  0  0  0  0  0  0
   39.3050   24.8390   31.9710 C   0  0  0  0  0  0  0  0  0  0  0  0
   39.6480   24.1010   33.0610 N   0  0  0  0  0  0  0  0  0  0  0  0
   39.7830   24.6300   34.2750 C   0  0  0  0  0  0  0  0  0  0  0  0
   39.5760   25.9650   34.4700 N   0  0  0  0  0  0  0  0  0  0  0  0
   39.0700   27.8030   33.5680 H   0  0  0  0  0  0  0  0  0  0  0  0
   39.1920   24.4300   30.9840 H   0  0  0  0  0  0  0  0  0  0  0  0
   38.7250   27.0770   31.0630 N   0  0  0  0  0  0  0  0  0  0  0  0
   39.6170   27.8240   30.4100 C   0  0  0  0  0  0  0  0  0  0  0  0
   39.1900   28.6760   29.3870 C   0  0  0  0  0  0  0  0  0  0  0  0
   37.8430   28.6560   29.1510 C   0  0  0  0  0  0  0  0  0  0  0  0
   37.4370   29.4230   28.2250 O   0  0  0  0  0  0  0  0  0  0  0  0
   36.9280   27.9280   29.7790 N   0  0  0  0  0  0  0  0  0  0  0  0
   37.3930   27.1170   30.7640 C   0  0  0  0  0  0  0  0  0  0  0  0
   36.5250   26.4090   31.3790 O   0  0  0  0  0  0  0  0  0  0  0  0
   40.6660   27.7620   30.6810 H   0  0  0  0  0  0  0  0  0  0  0  0
   39.8880   29.2940   28.8380 H   0  0  0  0  0  0  0  0  0  0  0  0
   35.9140   27.9730   29.5340 H   0  0  0  0  0  0  0  0  0  0  0  0
   40.1290   23.8910   35.3880 O   0  0  0  0  0  0  0  0  0  0  0  0
   39.6550   23.2450   37.6820 C   0  0  1  0  0  3  0  0  0  0  0  0
   39.2600   23.2170   36.2330 C   0  0  1  0  0  3  0  0  0  0  0  0
   37.8330   23.7610   36.1470 C   0  0  0  0  0  3  0  0  0  0  0  0
   37.8020   24.7960   36.5480 H   0  0  0  0  0  0  0  0  0  0  0  0
   36.9580   22.8980   36.7760 O   0  0  0  0  0  0  0  0  0  0  0  0
   37.2290   22.7010   38.1060 C   0  0  0  0  0  3  0  0  0  0  0  0
   37.2720   21.6260   38.3940 H   0  0  0  0  0  0  0  0  0  0  0  0
   38.4640   23.3700   38.6090 C   0  0  2  0  0  3  0  0  0  0  0  0
   40.3130   22.0540   38.0200 O   0  0  0  0  0  0  0  0  0  0  0  0
   40.0330   21.3160   37.4070 H   0  0  0  0  0  0  0  0  0  0  0  0
   38.2420   24.7200   38.9430 O   0  0  0  0  0  0  0  0  0  0  0  0
   39.0630   25.2620   38.8900 H   0  0  0  0  0  0  0  0  0  0  0  0
  1  7  1  0  0  0  0
  1  6  1  0  0  0  0
  2  1  2  0  0  0  0
  3  2  1  0  0  0  0
  3  4  2  0  0  0  0
  4  5  1  0  0  0  0
  5  6  2  0  0  0  0
  5 20  1  0  0  0  0
  8  3  1  0  0  0  0
  9  2  1  0  0  0  0
 10 17  1  0  0  0  0
 10  9  1  0  0  0  0
 11 10  2  0  0  0  0
 12 11  1  0  0  0  0
 12 14  1  0  0  0  0
 13 12  2  0  0  0  0
 14 15  1  0  0  0  0
 15  9  1  0  0  0  0
 15 16  2  0  0  0  0
 18 11  1  0  0  0  0
 19 14  1  0  0  0  0
 21 29  1  1  0  0  0
 21 28  1  0  0  0  0
 22 20  1  6  0  0  0
 22 21  1  0  0  0  0
 23 22  1  0  0  0  0
 23 24  1  0  0  0  0
 23 25  1  0  0  0  0
 25 26  1  0  0  0  0
 26 27  1  0  0  0  0
 26 28  1  0  0  0  0
 28 31  1  6  0  0  0
 30 29  1  0  0  0  0
 32 31  1  0  0  0  0
M  END
>  <minimizedAffinity>
-5.01132202

$$$$

 OpenBabel03272500063D

 32 34  0  0  1  0  0  0  0  0999 V2000
   37.3940   25.4750   33.5300 C   0  0  0  0  0  0  0  0  0  0  0  0
   37.8250   25.8310   34.8430 C   0  0  0  0  0  0  0  0  0  0  0  0
   37.5830   27.1270   35.2480 C   0  0  0  0  0  0  0  0  0  0  0  0
   36.9600   27.9880   34.3990 N   0  0  0  0  0  0  0  0  0  0  0  0
   36.5650   27.6370   33.1780 C   0  0  0  0  0  0  0  0  0  0  0  0
   36.7780   26.3670   32.7260 N   0  0  0  0  0  0  0  0  0  0  0  0
   37.5660   24.4630   33.1750 H   0  0  0  0  0  0  0  0  0  0  0  0
   37.9090   27.3930   36.2360 H   0  0  0  0  0  0  0  0  0  0  0  0
   38.4620   24.8340   35.6210 N   0  0  0  0  0  0  0  0  0  0  0  0
   37.8410   24.1790   36.6030 C   0  0  0  0  0  0  0  0  0  0  0  0
   38.5320   23.2060   37.3310 C   0  0  0  0  0  0  0  0  0  0  0  0
   39.8320   23.0180   36.9460 C   0  0  0  0  0  0  0  0  0  0  0  0
   40.4740   22.1380   37.5970 O   0  0  0  0  0  0  0  0  0  0  0  0
   40.4800   23.6500   35.9770 N   0  0  0  0  0  0  0  0  0  0  0  0
   39.7670   24.5850   35.2990 C   0  0  0  0  0  0  0  0  0  0  0  0
   40.3760   25.2030   34.3610 O   0  0  0  0  0  0  0  0  0  0  0  0
   36.8040   24.4090   36.8260 H   0  0  0  0  0  0  0  0  0  0  0  0
   38.0570   22.6570   38.1340 H   0  0  0  0  0  0  0  0  0  0  0  0
   41.4790   23.4430   35.7460 H   0  0  0  0  0  0  0  0  0  0  0  0
   35.9310   28.5010   32.3090 O   0  0  0  0  0  0  0  0  0  0  0  0
   35.5680   30.7290   31.4080 C   0  0  1  0  0  3  0  0  0  0  0  0
   35.5260   29.7990   32.5860 C   0  0  1  0  0  3  0  0  0  0  0  0
   34.1050   29.8520   33.1490 C   0  0  0  0  0  3  0  0  0  0  0  0
   33.3810   29.5370   32.3670 H   0  0  0  0  0  0  0  0  0  0  0  0
   33.8470   31.1050   33.6680 O   0  0  0  0  0  0  0  0  0  0  0  0
   33.9510   32.1200   32.7520 C   0  0  0  0  0  3  0  0  0  0  0  0
   34.5900   32.9640   33.0970 H   0  0  0  0  0  0  0  0  0  0  0  0
   34.4120   31.7070   31.3940 C   0  0  2  0  0  3  0  0  0  0  0  0
   36.7460   31.4880   31.4400 O   0  0  0  0  0  0  0  0  0  0  0  0
   37.0840   31.5650   32.3770 H   0  0  0  0  0  0  0  0  0  0  0  0
   33.3600   31.2130   30.6000 O   0  0  0  0  0  0  0  0  0  0  0  0
   33.6740   30.5940   29.9000 H   0  0  0  0  0  0  0  0  0  0  0  0
  1  2  1  0  0  0  0
  2  3  2  0  0  0  0
  2  9  1  0  0  0  0
  3  8  1  0  0  0  0
  4  3  1  0  0  0  0
  5  4  2  0  0  0  0
  6  5  1  0  0  0  0
  6  1  2  0  0  0  0
  7  1  1  0  0  0  0
  9 10  1  0  0  0  0
 10 17  1  0  0  0  0
 10 11  2  0  0  0  0
 11 18  1  0  0  0  0
 12 11  1  0  0  0  0
 12 13  2  0  0  0  0
 14 12  1  0  0  0  0
 15  9  1  0  0  0  0
 15 14  1  0  0  0  0
 16 15  2  0  0  0  0
 19 14  1  0  0  0  0
 20  5  1  0  0  0  0
 21 29  1  1  0  0  0
 21 22  1  0  0  0  0
 22 20  1  6  0  0  0
 22 23  1  0  0  0  0
 23 25  1  0  0  0  0
 24 23  1  0  0  0  0
 26 27  1  0  0  0  0
 26 25  1  0  0  0  0
 28 31  1  1  0  0  0
 28 21  1  0  0  0  0
 28 26  1  0  0  0  0
 29 30  1  0  0  0  0
 32 31  1  0  0  0  0
M  END
>  <minimizedAffinity>
-4.99223995

$$$$
