
 OpenBabel03272500043D

 32 34  0  0  1  0  0  0  0  0999 V2000
   36.3090   29.5480   49.4210 C   0  0  0  0  0  0  0  0  0  0  0  0
   36.3200   30.5320   48.3890 C   0  0  0  0  0  0  0  0  0  0  0  0
   35.3950   30.3850   47.3770 C   0  0  0  0  0  0  0  0  0  0  0  0
   34.5340   29.3320   47.4060 N   0  0  0  0  0  0  0  0  0  0  0  0
   34.5400   28.4230   48.3780 C   0  0  0  0  0  0  0  0  0  0  0  0
   35.4340   28.5210   49.4050 N   0  0  0  0  0  0  0  0  0  0  0  0
   37.0230   29.6310   50.2360 H   0  0  0  0  0  0  0  0  0  0  0  0
   35.4050   31.1270   46.6010 H   0  0  0  0  0  0  0  0  0  0  0  0
   37.2710   31.5770   48.4830 N   0  0  0  0  0  0  0  0  0  0  0  0
   37.3750   32.3630   49.5560 C   0  0  0  0  0  0  0  0  0  0  0  0
   38.3380   33.3770   49.5810 C   0  0  0  0  0  0  0  0  0  0  0  0
   39.1090   33.4620   48.4540 C   0  0  0  0  0  0  0  0  0  0  0  0
   39.9880   34.3760   48.4600 O   0  0  0  0  0  0  0  0  0  0  0  0
   39.0340   32.6990   47.3710 N   0  0  0  0  0  0  0  0  0  0  0  0
   38.0830   31.7300   47.3950 C   0  0  0  0  0  0  0  0  0  0  0  0
   37.9970   30.9850   46.3600 O   0  0  0  0  0  0  0  0  0  0  0  0
   36.7090   32.2080   50.3990 H   0  0  0  0  0  0  0  0  0  0  0  0
   38.4480   34.0310   50.4360 H   0  0  0  0  0  0  0  0  0  0  0  0
   39.6650   32.8320   46.5500 H   0  0  0  0  0  0  0  0  0  0  0  0
   33.6710   27.3510   48.4180 O   0  0  0  0  0  0  0  0  0  0  0  0
   31.6970   26.0080   47.9630 C   0  0  1  0  0  3  0  0  0  0  0  0
   32.6440   27.0890   47.5230 C   0  0  1  0  0  3  0  0  0  0  0  0
   31.8020   28.3310   47.2320 C   0  0  0  0  0  3  0  0  0  0  0  0
   31.2500   28.6320   48.1480 H   0  0  0  0  0  0  0  0  0  0  0  0
   30.9820   28.1050   46.1440 O   0  0  0  0  0  0  0  0  0  0  0  0
   30.1080   27.0620   46.3130 C   0  0  0  0  0  3  0  0  0  0  0  0
   30.1200   26.3330   45.4700 H   0  0  0  0  0  0  0  0  0  0  0  0
   30.2600   26.3030   47.5880 C   0  0  2  0  0  3  0  0  0  0  0  0
   32.0380   24.7970   47.3480 O   0  0  0  0  0  0  0  0  0  0  0  0
   32.5240   24.9650   46.4910 H   0  0  0  0  0  0  0  0  0  0  0  0
   29.5920   26.9250   48.6610 O   0  0  0  0  0  0  0  0  0  0  0  0
   29.9830   26.6940   49.5360 H   0  0  0  0  0  0  0  0  0  0  0  0
  1  7  1  0  0  0  0
  2  9  1  0  0  0  0
  2  1  2  0  0  0  0
  3  4  2  0  0  0  0
  3  2  1  0  0  0  0
  4  5  1  0  0  0  0
  5 20  1  0  0  0  0
  5  6  2  0  0  0  0
  6  1  1  0  0  0  0
  8  3  1  0  0  0  0
  9 10  1  0  0  0  0
 10 11  2  0  0  0  0
 10 17  1  0  0  0  0
 11 18  1  0  0  0  0
 12 13  2  0  0  0  0
 12 11  1  0  0  0  0
 14 15  1  0  0  0  0
 14 12  1  0  0  0  0
 15  9  1  0  0  0  0
 16 15  2  0  0  0  0
 19 14  1  0  0  0  0
 21 29  1  6  0  0  0
 22 21  1  0  0  0  0
 22 20  1  1  0  0  0
 23 22  1  0  0  0  0
 23 24  1  0  0  0  0
 25 26  1  0  0  0  0
 25 23  1  0  0  0  0
 26 28  1  0  0  0  0
 27 26  1  0  0  0  0
 28 21  1  0  0  0  0
 28 31  1  1  0  0  0
 30 29  1  0  0  0  0
 31 32  1  0  0  0  0
M  END
>  <minimizedAffinity>
-5.65135384

>  <minimizedRMSD>
0.71090436

$$$$
