
 OpenBabel03262522193D

 27 28  0  0  1  0  0  0  0  0999 V2000
   36.8580   24.3760   32.2730 O   0  0  0  0  0  0  0  0  0  0  0  0
   38.1150   24.4900   33.1160 P   0  0  1  0  0  0  0  0  0  0  0  0
   39.4060   23.7910   32.2470 O   0  0  0  0  0  0  0  0  0  0  0  0
   39.0480   23.0830   31.6360 H   0  0  0  0  0  0  0  0  0  0  0  0
   38.4980   26.1380   33.2650 O   0  0  0  0  0  0  0  0  0  0  0  0
   36.9050   27.5410   34.3770 C   0  0  0  0  0  0  0  0  0  0  0  0
   37.6250   27.1880   33.2130 C   0  0  0  0  0  0  0  0  0  0  0  0
   37.3710   27.9670   32.0890 C   0  0  0  0  0  0  0  0  0  0  0  0
   36.4830   28.9930   32.1370 N   0  0  0  0  0  0  0  0  0  0  0  0
   35.8210   29.2820   33.2890 C   0  0  0  0  0  0  0  0  0  0  0  0
   36.0410   28.5510   34.3970 N   0  0  0  0  0  0  0  0  0  0  0  0
   37.0360   26.9890   35.3090 H   0  0  0  0  0  0  0  0  0  0  0  0
   37.9150   27.7180   31.1700 H   0  0  0  0  0  0  0  0  0  0  0  0
   35.1100   30.0820   33.3780 H   0  0  0  0  0  0  0  0  0  0  0  0
   37.8420   23.7170   34.5610 O   0  0  0  0  0  0  0  0  0  0  0  0
   39.2020   22.6340   36.1090 C   0  0  1  0  0  3  0  0  0  0  0  0
   38.7840   23.9740   35.5400 C   0  0  2  0  0  3  0  0  0  0  0  0
   38.2790   24.8500   36.6450 C   0  0  0  0  0  3  0  0  0  0  0  0
   39.1110   25.5200   36.9950 H   0  0  0  0  0  0  0  0  0  0  0  0
   37.6620   24.1750   37.6830 O   0  0  0  0  0  0  0  0  0  0  0  0
   38.4900   23.2920   38.3390 C   0  0  0  0  0  3  0  0  0  0  0  0
   37.9290   22.3460   38.4920 H   0  0  0  0  0  0  0  0  0  0  0  0
   39.7150   22.9260   37.5200 C   0  0  1  0  0  3  0  0  0  0  0  0
   38.1550   21.7480   36.2620 O   0  0  0  0  0  0  0  0  0  0  0  0
   37.2830   22.0560   35.9450 H   0  0  0  0  0  0  0  0  0  0  0  0
   40.3540   21.8260   38.0410 O   0  0  0  0  0  0  0  0  0  0  0  0
   39.8240   21.4990   38.8090 H   0  0  0  0  0  0  0  0  0  0  0  0
  2  1  2  6  0  0  0
  2  5  1  0  0  0  0
  2 15  1  0  0  0  0
  3  2  1  0  0  0  0
  4  3  1  0  0  0  0
  6 11  1  0  0  0  0
  6 12  1  0  0  0  0
  7  5  1  0  0  0  0
  7  6  2  0  0  0  0
  8  9  2  0  0  0  0
  8  7  1  0  0  0  0
  9 10  1  0  0  0  0
 10 14  1  0  0  0  0
 10 11  2  0  0  0  0
 13  8  1  0  0  0  0
 16 24  1  1  0  0  0
 16 23  1  0  0  0  0
 17 15  1  6  0  0  0
 17 16  1  0  0  0  0
 17 18  1  0  0  0  0
 18 19  1  0  0  0  0
 18 20  1  0  0  0  0
 20 21  1  0  0  0  0
 21 22  1  0  0  0  0
 23 26  1  1  0  0  0
 23 21  1  0  0  0  0
 25 24  1  0  0  0  0
 26 27  1  0  0  0  0
M  END
>  <minimizedAffinity>
-5.00131607

$$$$

 OpenBabel03262522193D

 27 28  0  0  1  0  0  0  0  0999 V2000
   39.3150   24.9490   32.8000 O   0  0  0  0  0  0  0  0  0  0  0  0
   37.8710   24.6230   33.1340 P   0  0  1  0  0  0  0  0  0  0  0  0
   37.0540   26.0860   33.4520 O   0  0  0  0  0  0  0  0  0  0  0  0
   37.7070   26.7610   33.8010 H   0  0  0  0  0  0  0  0  0  0  0  0
   37.1430   23.9820   31.7400 O   0  0  0  0  0  0  0  0  0  0  0  0
   35.5440   22.2070   31.9360 C   0  0  0  0  0  0  0  0  0  0  0  0
   36.8110   22.6750   31.5190 C   0  0  0  0  0  0  0  0  0  0  0  0
   37.6270   21.7310   30.9020 C   0  0  0  0  0  0  0  0  0  0  0  0
   37.2070   20.4520   30.7270 N   0  0  0  0  0  0  0  0  0  0  0  0
   35.9750   20.0650   31.1520 C   0  0  0  0  0  0  0  0  0  0  0  0
   35.1570   20.9490   31.7520 N   0  0  0  0  0  0  0  0  0  0  0  0
   34.8330   22.8720   32.4290 H   0  0  0  0  0  0  0  0  0  0  0  0
   38.6170   22.0650   30.5670 H   0  0  0  0  0  0  0  0  0  0  0  0
   35.5960   19.0670   31.0360 H   0  0  0  0  0  0  0  0  0  0  0  0
   37.8580   23.6030   34.4450 O   0  0  0  0  0  0  0  0  0  0  0  0
   39.1930   22.5410   36.0280 C   0  0  1  0  0  3  0  0  0  0  0  0
   38.8300   23.8670   35.3920 C   0  0  2  0  0  3  0  0  0  0  0  0
   38.3920   24.8270   36.4530 C   0  0  0  0  0  3  0  0  0  0  0  0
   39.2630   25.4730   36.7510 H   0  0  0  0  0  0  0  0  0  0  0  0
   37.7630   24.2430   37.5380 O   0  0  0  0  0  0  0  0  0  0  0  0
   38.5590   23.3580   38.2290 C   0  0  0  0  0  3  0  0  0  0  0  0
   37.9550   22.4510   38.4450 H   0  0  0  0  0  0  0  0  0  0  0  0
   39.7480   22.8850   37.4110 C   0  0  1  0  0  3  0  0  0  0  0  0
   38.1070   21.7180   36.2500 O   0  0  0  0  0  0  0  0  0  0  0  0
   37.2450   22.0520   35.9300 H   0  0  0  0  0  0  0  0  0  0  0  0
   40.3420   21.7850   37.9830 O   0  0  0  0  0  0  0  0  0  0  0  0
   39.8120   21.5280   38.7770 H   0  0  0  0  0  0  0  0  0  0  0  0
  2  1  2  6  0  0  0
  2  3  1  0  0  0  0
  2 15  1  0  0  0  0
  3  4  1  0  0  0  0
  5  2  1  0  0  0  0
  6 12  1  0  0  0  0
  7  5  1  0  0  0  0
  7  6  2  0  0  0  0
  8  7  1  0  0  0  0
  9  8  2  0  0  0  0
  9 10  1  0  0  0  0
 10 11  2  0  0  0  0
 11  6  1  0  0  0  0
 13  8  1  0  0  0  0
 14 10  1  0  0  0  0
 16 24  1  1  0  0  0
 16 23  1  0  0  0  0
 17 15  1  6  0  0  0
 17 16  1  0  0  0  0
 17 18  1  0  0  0  0
 18 19  1  0  0  0  0
 18 20  1  0  0  0  0
 20 21  1  0  0  0  0
 21 22  1  0  0  0  0
 23 26  1  1  0  0  0
 23 21  1  0  0  0  0
 25 24  1  0  0  0  0
 26 27  1  0  0  0  0
M  END
>  <minimizedAffinity>
-4.99310541

$$$$

 OpenBabel03262522193D

 27 28  0  0  1  0  0  0  0  0999 V2000
   37.2890   20.5470   32.5580 O   0  0  0  0  0  0  0  0  0  0  0  0
   37.9500   21.9100   32.6290 P   0  0  1  0  0  0  0  0  0  0  0  0
   39.6400   21.6890   32.5550 O   0  0  0  0  0  0  0  0  0  0  0  0
   39.8730   20.7900   32.9300 H   0  0  0  0  0  0  0  0  0  0  0  0
   37.5360   22.7670   31.2230 O   0  0  0  0  0  0  0  0  0  0  0  0
   35.6050   24.1820   31.1110 C   0  0  0  0  0  0  0  0  0  0  0  0
   37.0090   24.0260   31.1580 C   0  0  0  0  0  0  0  0  0  0  0  0
   37.7460   25.2060   31.1350 C   0  0  0  0  0  0  0  0  0  0  0  0
   37.1290   26.4140   31.0700 N   0  0  0  0  0  0  0  0  0  0  0  0
   35.7720   26.4960   31.0270 C   0  0  0  0  0  0  0  0  0  0  0  0
   35.0250   25.3770   31.0480 N   0  0  0  0  0  0  0  0  0  0  0  0
   34.9410   23.3150   31.1250 H   0  0  0  0  0  0  0  0  0  0  0  0
   38.8390   25.1170   31.1700 H   0  0  0  0  0  0  0  0  0  0  0  0
   35.2380   27.4260   30.9750 H   0  0  0  0  0  0  0  0  0  0  0  0
   37.4770   22.6430   34.0430 O   0  0  0  0  0  0  0  0  0  0  0  0
   38.7390   22.2310   35.9550 C   0  0  1  0  0  3  0  0  0  0  0  0
   38.5110   23.1750   34.7920 C   0  0  2  0  0  3  0  0  0  0  0  0
   38.2320   24.5500   35.3120 C   0  0  0  0  0  3  0  0  0  0  0  0
   39.1840   25.1480   35.3080 H   0  0  0  0  0  0  0  0  0  0  0  0
   37.5820   24.5870   36.5330 O   0  0  0  0  0  0  0  0  0  0  0  0
   38.2930   24.0050   37.5570 C   0  0  0  0  0  3  0  0  0  0  0  0
   37.5950   23.3690   38.1420 H   0  0  0  0  0  0  0  0  0  0  0  0
   39.3850   23.0780   37.0520 C   0  0  1  0  0  3  0  0  0  0  0  0
   37.5720   21.7320   36.4980 O   0  0  0  0  0  0  0  0  0  0  0  0
   36.7440   21.9950   36.0500 H   0  0  0  0  0  0  0  0  0  0  0  0
   39.8670   22.2780   38.0620 O   0  0  0  0  0  0  0  0  0  0  0  0
   39.3410   22.4650   38.8780 H   0  0  0  0  0  0  0  0  0  0  0  0
  2  1  2  6  0  0  0
  2 15  1  0  0  0  0
  3  2  1  0  0  0  0
  3  4  1  0  0  0  0
  5  2  1  0  0  0  0
  6 12  1  0  0  0  0
  6  7  1  0  0  0  0
  7  5  1  0  0  0  0
  8  7  2  0  0  0  0
  8 13  1  0  0  0  0
  9  8  1  0  0  0  0
 10 11  1  0  0  0  0
 10  9  2  0  0  0  0
 11  6  2  0  0  0  0
 14 10  1  0  0  0  0
 16 24  1  1  0  0  0
 16 23  1  0  0  0  0
 17 15  1  1  0  0  0
 17 18  1  0  0  0  0
 17 16  1  0  0  0  0
 18 20  1  0  0  0  0
 19 18  1  0  0  0  0
 20 21  1  0  0  0  0
 21 22  1  0  0  0  0
 23 21  1  0  0  0  0
 23 26  1  1  0  0  0
 25 24  1  0  0  0  0
 26 27  1  0  0  0  0
M  END
>  <minimizedAffinity>
-4.7859273

$$$$

 OpenBabel03262522193D

 27 28  0  0  1  0  0  0  0  0999 V2000
   36.6260   27.5680   34.8340 O   0  0  0  0  0  0  0  0  0  0  0  0
   37.8820   26.7540   35.0790 P   0  0  1  0  0  0  0  0  0  0  0  0
   38.8690   27.6120   36.1740 O   0  0  0  0  0  0  0  0  0  0  0  0
   38.6920   28.5930   36.0800 H   0  0  0  0  0  0  0  0  0  0  0  0
   37.4320   25.3280   35.8850 O   0  0  0  0  0  0  0  0  0  0  0  0
   39.4170   23.9840   35.9400 C   0  0  0  0  0  0  0  0  0  0  0  0
   38.2570   24.4840   36.5740 C   0  0  0  0  0  0  0  0  0  0  0  0
   38.0570   24.0580   37.8840 C   0  0  0  0  0  0  0  0  0  0  0  0
   38.9360   23.2160   38.4860 N   0  0  0  0  0  0  0  0  0  0  0  0
   40.0340   22.7700   37.8200 C   0  0  0  0  0  0  0  0  0  0  0  0
   40.2610   23.1610   36.5520 N   0  0  0  0  0  0  0  0  0  0  0  0
   39.6600   24.2620   34.9120 H   0  0  0  0  0  0  0  0  0  0  0  0
   37.1650   24.4290   38.4030 H   0  0  0  0  0  0  0  0  0  0  0  0
   40.7580   22.1050   38.2510 H   0  0  0  0  0  0  0  0  0  0  0  0
   38.6350   26.5080   33.6190 O   0  0  0  0  0  0  0  0  0  0  0  0
   37.1520   25.0550   32.5650 C   0  0  1  0  0  3  0  0  0  0  0  0
   37.7810   26.4340   32.5340 C   0  0  2  0  0  3  0  0  0  0  0  0
   38.4610   26.6430   31.2170 C   0  0  0  0  0  3  0  0  0  0  0  0
   37.7680   27.1980   30.5260 H   0  0  0  0  0  0  0  0  0  0  0  0
   38.9810   25.4950   30.6450 O   0  0  0  0  0  0  0  0  0  0  0  0
   38.0320   24.5410   30.3570 C   0  0  0  0  0  3  0  0  0  0  0  0
   38.4240   23.5570   30.6890 H   0  0  0  0  0  0  0  0  0  0  0  0
   36.7390   24.7580   31.1230 C   0  0  1  0  0  3  0  0  0  0  0  0
   38.0340   24.0540   32.9210 O   0  0  0  0  0  0  0  0  0  0  0  0
   38.9370   24.3440   33.1600 H   0  0  0  0  0  0  0  0  0  0  0  0
   35.9340   23.6450   31.0690 O   0  0  0  0  0  0  0  0  0  0  0  0
   36.4210   22.9380   30.5790 H   0  0  0  0  0  0  0  0  0  0  0  0
  2  1  2  6  0  0  0
  2  5  1  0  0  0  0
  2  3  1  0  0  0  0
  4  3  1  0  0  0  0
  5  7  1  0  0  0  0
  6 11  2  0  0  0  0
  6  7  1  0  0  0  0
  7  8  2  0  0  0  0
  8 13  1  0  0  0  0
  8  9  1  0  0  0  0
 10 14  1  0  0  0  0
 10  9  2  0  0  0  0
 11 10  1  0  0  0  0
 12  6  1  0  0  0  0
 15  2  1  0  0  0  0
 16 24  1  6  0  0  0
 17 16  1  0  0  0  0
 17 15  1  1  0  0  0
 18 17  1  0  0  0  0
 19 18  1  0  0  0  0
 20 18  1  0  0  0  0
 21 20  1  0  0  0  0
 21 22  1  0  0  0  0
 21 23  1  0  0  0  0
 23 26  1  1  0  0  0
 23 16  1  0  0  0  0
 24 25  1  0  0  0  0
 27 26  1  0  0  0  0
M  END
>  <minimizedAffinity>
-4.78108311

$$$$

 OpenBabel03262522193D

 27 28  0  0  1  0  0  0  0  0999 V2000
   34.9190   24.7230   30.8930 O   0  0  0  0  0  0  0  0  0  0  0  0
   36.2980   24.5450   31.5000 P   0  0  1  0  0  0  0  0  0  0  0  0
   37.4520   24.6870   30.2510 O   0  0  0  0  0  0  0  0  0  0  0  0
   37.0390   24.4020   29.3850 H   0  0  0  0  0  0  0  0  0  0  0  0
   36.5840   25.8550   32.5420 O   0  0  0  0  0  0  0  0  0  0  0  0
   38.7110   26.9040   32.8880 C   0  0  0  0  0  0  0  0  0  0  0  0
   37.6810   26.0450   33.3340 C   0  0  0  0  0  0  0  0  0  0  0  0
   37.8870   25.4550   34.5770 C   0  0  0  0  0  0  0  0  0  0  0  0
   39.0150   25.7070   35.2910 N   0  0  0  0  0  0  0  0  0  0  0  0
   39.9690   26.5440   34.8050 C   0  0  0  0  0  0  0  0  0  0  0  0
   39.8050   27.1340   33.6070 N   0  0  0  0  0  0  0  0  0  0  0  0
   38.6410   27.4140   31.9250 H   0  0  0  0  0  0  0  0  0  0  0  0
   37.1050   24.7820   34.9510 H   0  0  0  0  0  0  0  0  0  0  0  0
   40.8760   26.7750   35.3310 H   0  0  0  0  0  0  0  0  0  0  0  0
   36.3530   23.0580   32.2370 O   0  0  0  0  0  0  0  0  0  0  0  0
   35.1460   21.0730   32.1070 C   0  0  1  0  0  3  0  0  0  0  0  0
   36.1220   21.9870   31.3940 C   0  0  2  0  0  3  0  0  0  0  0  0
   37.3580   21.2200   31.0410 C   0  0  0  0  0  3  0  0  0  0  0  0
   37.2800   20.8600   29.9790 H   0  0  0  0  0  0  0  0  0  0  0  0
   37.6840   20.2080   31.9270 O   0  0  0  0  0  0  0  0  0  0  0  0
   36.7260   19.2260   32.0230 C   0  0  0  0  0  3  0  0  0  0  0  0
   36.5830   18.9900   33.0990 H   0  0  0  0  0  0  0  0  0  0  0  0
   35.3720   19.6830   31.5090 C   0  0  1  0  0  3  0  0  0  0  0  0
   35.3920   20.9480   33.4590 O   0  0  0  0  0  0  0  0  0  0  0  0
   36.1220   21.4940   33.8130 H   0  0  0  0  0  0  0  0  0  0  0  0
   34.3730   18.8200   31.8960 O   0  0  0  0  0  0  0  0  0  0  0  0
   34.7760   18.1240   32.4720 H   0  0  0  0  0  0  0  0  0  0  0  0
  2  1  2  6  0  0  0
  2 15  1  0  0  0  0
  2  5  1  0  0  0  0
  3  2  1  0  0  0  0
  4  3  1  0  0  0  0
  5  7  1  0  0  0  0
  6  7  2  0  0  0  0
  6 11  1  0  0  0  0
  7  8  1  0  0  0  0
  8 13  1  0  0  0  0
  8  9  2  0  0  0  0
 10  9  1  0  0  0  0
 10 14  1  0  0  0  0
 11 10  2  0  0  0  0
 12  6  1  0  0  0  0
 16 24  1  1  0  0  0
 17 16  1  0  0  0  0
 17 15  1  1  0  0  0
 18 17  1  0  0  0  0
 18 20  1  0  0  0  0
 19 18  1  0  0  0  0
 20 21  1  0  0  0  0
 21 22  1  0  0  0  0
 23 26  1  1  0  0  0
 23 21  1  0  0  0  0
 23 16  1  0  0  0  0
 24 25  1  0  0  0  0
 26 27  1  0  0  0  0
M  END
>  <minimizedAffinity>
-4.72310972

$$$$

 OpenBabel03262522193D

 27 28  0  0  1  0  0  0  0  0999 V2000
   39.2450   27.1140   35.9500 O   0  0  0  0  0  0  0  0  0  0  0  0
   39.8370   26.5920   34.6540 P   0  0  1  0  0  0  0  0  0  0  0  0
   41.5230   26.8480   34.6950 O   0  0  0  0  0  0  0  0  0  0  0  0
   41.7220   27.6420   35.2730 H   0  0  0  0  0  0  0  0  0  0  0  0
   39.6280   24.9060   34.6260 O   0  0  0  0  0  0  0  0  0  0  0  0
   41.2320   23.4400   35.6360 C   0  0  0  0  0  0  0  0  0  0  0  0
   39.9460   24.0260   35.6210 C   0  0  0  0  0  0  0  0  0  0  0  0
   39.0980   23.6420   36.6560 C   0  0  0  0  0  0  0  0  0  0  0  0
   39.5080   22.7590   37.6020 N   0  0  0  0  0  0  0  0  0  0  0  0
   40.7590   22.2290   37.5590 C   0  0  0  0  0  0  0  0  0  0  0  0
   41.6080   22.5770   36.5750 N   0  0  0  0  0  0  0  0  0  0  0  0
   41.9680   23.6790   34.8660 H   0  0  0  0  0  0  0  0  0  0  0  0
   38.0930   24.0810   36.6720 H   0  0  0  0  0  0  0  0  0  0  0  0
   41.1290   21.5280   38.2830 H   0  0  0  0  0  0  0  0  0  0  0  0
   39.1130   27.3930   33.3920 O   0  0  0  0  0  0  0  0  0  0  0  0
   37.7070   27.0210   31.5750 C   0  0  1  0  0  3  0  0  0  0  0  0
   37.8390   26.9530   33.0820 C   0  0  2  0  0  3  0  0  0  0  0  0
   36.7520   27.7620   33.7170 C   0  0  0  0  0  3  0  0  0  0  0  0
   35.8980   27.0840   33.9940 H   0  0  0  0  0  0  0  0  0  0  0  0
   36.3440   28.8610   32.9820 O   0  0  0  0  0  0  0  0  0  0  0  0
   35.8160   28.5410   31.7520 C   0  0  0  0  0  3  0  0  0  0  0  0
   36.2450   29.2400   31.0030 H   0  0  0  0  0  0  0  0  0  0  0  0
   36.2080   27.1460   31.2980 C   0  0  1  0  0  3  0  0  0  0  0  0
   38.2890   28.1430   31.0190 O   0  0  0  0  0  0  0  0  0  0  0  0
   38.7600   28.7330   31.6410 H   0  0  0  0  0  0  0  0  0  0  0  0
   35.9440   26.9640   29.9610 O   0  0  0  0  0  0  0  0  0  0  0  0
   35.6060   27.8180   29.5960 H   0  0  0  0  0  0  0  0  0  0  0  0
  2  3  1  0  0  0  0
  2  1  2  1  0  0  0
  3  4  1  0  0  0  0
  5  2  1  0  0  0  0
  5  7  1  0  0  0  0
  6 11  1  0  0  0  0
  7  6  2  0  0  0  0
  7  8  1  0  0  0  0
  8 13  1  0  0  0  0
  8  9  2  0  0  0  0
 10  9  1  0  0  0  0
 10 14  1  0  0  0  0
 11 10  2  0  0  0  0
 12  6  1  0  0  0  0
 15  2  1  0  0  0  0
 16 24  1  1  0  0  0
 16 17  1  0  0  0  0
 17 15  1  6  0  0  0
 17 18  1  0  0  0  0
 18 19  1  0  0  0  0
 20 18  1  0  0  0  0
 21 20  1  0  0  0  0
 22 21  1  0  0  0  0
 23 26  1  6  0  0  0
 23 16  1  0  0  0  0
 23 21  1  0  0  0  0
 24 25  1  0  0  0  0
 27 26  1  0  0  0  0
M  END
>  <minimizedAffinity>
-4.6439538

$$$$

 OpenBabel03262522193D

 27 28  0  0  1  0  0  0  0  0999 V2000
   37.9500   23.7860   30.5220 O   0  0  0  0  0  0  0  0  0  0  0  0
   36.7500   24.2300   31.3380 P   0  0  1  0  0  0  0  0  0  0  0  0
   36.0680   25.5990   30.5810 O   0  0  0  0  0  0  0  0  0  0  0  0
   36.7830   26.0920   30.0820 H   0  0  0  0  0  0  0  0  0  0  0  0
   35.5700   23.0130   31.2390 O   0  0  0  0  0  0  0  0  0  0  0  0
   36.1240   20.7290   30.7680 C   0  0  0  0  0  0  0  0  0  0  0  0
   35.6880   21.7230   31.6740 C   0  0  0  0  0  0  0  0  0  0  0  0
   35.4120   21.2810   32.9640 C   0  0  0  0  0  0  0  0  0  0  0  0
   35.5600   19.9750   33.3020 N   0  0  0  0  0  0  0  0  0  0  0  0
   35.9840   19.0670   32.3830 C   0  0  0  0  0  0  0  0  0  0  0  0
   36.2610   19.4560   31.1250 N   0  0  0  0  0  0  0  0  0  0  0  0
   36.3650   20.9780   29.7330 H   0  0  0  0  0  0  0  0  0  0  0  0
   35.0710   22.0300   33.6900 H   0  0  0  0  0  0  0  0  0  0  0  0
   36.1170   18.0240   32.6000 H   0  0  0  0  0  0  0  0  0  0  0  0
   37.2650   24.5610   32.8810 O   0  0  0  0  0  0  0  0  0  0  0  0
   39.1790   25.5220   33.7930 C   0  0  1  0  0  3  0  0  0  0  0  0
   37.8960   25.7820   33.0300 C   0  0  2  0  0  3  0  0  0  0  0  0
   37.0770   26.7980   33.7640 C   0  0  0  0  0  3  0  0  0  0  0  0
   37.2700   27.8160   33.3260 H   0  0  0  0  0  0  0  0  0  0  0  0
   37.2180   26.7720   35.1400 O   0  0  0  0  0  0  0  0  0  0  0  0
   38.4980   27.0360   35.5710 C   0  0  0  0  0  3  0  0  0  0  0  0
   38.7510   26.2990   36.3620 H   0  0  0  0  0  0  0  0  0  0  0  0
   39.5310   26.8460   34.4730 C   0  0  1  0  0  3  0  0  0  0  0  0
   39.0400   24.5990   34.8100 O   0  0  0  0  0  0  0  0  0  0  0  0
   38.1590   24.1830   34.8920 H   0  0  0  0  0  0  0  0  0  0  0  0
   40.8040   26.8040   34.9890 O   0  0  0  0  0  0  0  0  0  0  0  0
   40.7390   26.8550   35.9740 H   0  0  0  0  0  0  0  0  0  0  0  0
  2  1  2  6  0  0  0
  2 15  1  0  0  0  0
  3  2  1  0  0  0  0
  4  3  1  0  0  0  0
  5  2  1  0  0  0  0
  5  7  1  0  0  0  0
  6 11  2  0  0  0  0
  6  7  1  0  0  0  0
  7  8  2  0  0  0  0
  8  9  1  0  0  0  0
  8 13  1  0  0  0  0
 10 14  1  0  0  0  0
 10  9  2  0  0  0  0
 11 10  1  0  0  0  0
 12  6  1  0  0  0  0
 16 23  1  0  0  0  0
 16 24  1  1  0  0  0
 17 15  1  1  0  0  0
 17 18  1  0  0  0  0
 17 16  1  0  0  0  0
 18 20  1  0  0  0  0
 19 18  1  0  0  0  0
 20 21  1  0  0  0  0
 21 22  1  0  0  0  0
 23 26  1  1  0  0  0
 23 21  1  0  0  0  0
 24 25  1  0  0  0  0
 26 27  1  0  0  0  0
M  END
>  <minimizedAffinity>
-4.50440121

$$$$

 OpenBabel03262522193D

 27 28  0  0  1  0  0  0  0  0999 V2000
   38.2970   27.2430   36.5780 O   0  0  0  0  0  0  0  0  0  0  0  0
   38.3250   26.2310   35.4480 P   0  0  1  0  0  0  0  0  0  0  0  0
   39.9030   26.1940   34.8030 O   0  0  0  0  0  0  0  0  0  0  0  0
   40.3370   27.0870   34.9390 H   0  0  0  0  0  0  0  0  0  0  0  0
   38.0650   24.6910   36.1180 O   0  0  0  0  0  0  0  0  0  0  0  0
   39.4430   23.3520   37.5500 C   0  0  0  0  0  0  0  0  0  0  0  0
   38.9880   23.6940   36.2560 C   0  0  0  0  0  0  0  0  0  0  0  0
   39.5410   22.9600   35.2110 C   0  0  0  0  0  0  0  0  0  0  0  0
   40.4550   21.9840   35.4500 N   0  0  0  0  0  0  0  0  0  0  0  0
   40.8510   21.7040   36.7190 C   0  0  0  0  0  0  0  0  0  0  0  0
   40.3390   22.3930   37.7560 N   0  0  0  0  0  0  0  0  0  0  0  0
   39.0680   23.8720   38.4330 H   0  0  0  0  0  0  0  0  0  0  0  0
   39.2070   23.2020   34.1940 H   0  0  0  0  0  0  0  0  0  0  0  0
   41.5700   20.9430   36.9600 H   0  0  0  0  0  0  0  0  0  0  0  0
   37.1970   26.6850   34.3160 O   0  0  0  0  0  0  0  0  0  0  0  0
   36.8970   27.5090   32.1600 C   0  0  1  0  0  3  0  0  0  0  0  0
   37.5650   26.4440   33.0050 C   0  0  2  0  0  3  0  0  0  0  0  0
   37.1670   25.0890   32.5070 C   0  0  0  0  0  3  0  0  0  0  0  0
   37.9600   24.7030   31.8100 H   0  0  0  0  0  0  0  0  0  0  0  0
   35.8970   25.0220   31.9630 O   0  0  0  0  0  0  0  0  0  0  0  0
   35.7250   25.8230   30.8570 C   0  0  0  0  0  3  0  0  0  0  0  0
   34.7520   26.3480   30.9620 H   0  0  0  0  0  0  0  0  0  0  0  0
   36.7810   26.9100   30.7580 C   0  0  1  0  0  3  0  0  0  0  0  0
   35.6070   27.8000   32.5560 O   0  0  0  0  0  0  0  0  0  0  0  0
   35.2890   27.3340   33.3550 H   0  0  0  0  0  0  0  0  0  0  0  0
   36.4200   27.8740   29.8470 O   0  0  0  0  0  0  0  0  0  0  0  0
   35.5180   27.6530   29.5060 H   0  0  0  0  0  0  0  0  0  0  0  0
  2  5  1  0  0  0  0
  2  1  2  1  0  0  0
  3  4  1  0  0  0  0
  3  2  1  0  0  0  0
  5  7  1  0  0  0  0
  6 11  1  0  0  0  0
  6 12  1  0  0  0  0
  7  6  2  0  0  0  0
  8  9  2  0  0  0  0
  8  7  1  0  0  0  0
  9 10  1  0  0  0  0
 10 14  1  0  0  0  0
 10 11  2  0  0  0  0
 13  8  1  0  0  0  0
 15  2  1  0  0  0  0
 16 24  1  1  0  0  0
 16 17  1  0  0  0  0
 17 15  1  1  0  0  0
 18 17  1  0  0  0  0
 19 18  1  0  0  0  0
 20 18  1  0  0  0  0
 21 22  1  0  0  0  0
 21 20  1  0  0  0  0
 23 26  1  6  0  0  0
 23 21  1  0  0  0  0
 23 16  1  0  0  0  0
 24 25  1  0  0  0  0
 27 26  1  0  0  0  0
M  END
>  <minimizedAffinity>
-4.39742851

$$$$

 OpenBabel03262522193D

 27 28  0  0  1  0  0  0  0  0999 V2000
   37.4880   23.5610   30.4700 O   0  0  0  0  0  0  0  0  0  0  0  0
   36.8020   24.0340   31.7370 P   0  0  1  0  0  0  0  0  0  0  0  0
   35.1870   24.4290   31.3540 O   0  0  0  0  0  0  0  0  0  0  0  0
   35.1350   24.7140   30.3950 H   0  0  0  0  0  0  0  0  0  0  0  0
   36.7120   22.7170   32.8070 O   0  0  0  0  0  0  0  0  0  0  0  0
   35.0380   21.0580   32.3730 C   0  0  0  0  0  0  0  0  0  0  0  0
   36.3980   21.4260   32.4890 C   0  0  0  0  0  0  0  0  0  0  0  0
   37.3180   20.4080   32.2600 C   0  0  0  0  0  0  0  0  0  0  0  0
   36.9070   19.1520   31.9480 N   0  0  0  0  0  0  0  0  0  0  0  0
   35.5820   18.8620   31.8530 C   0  0  0  0  0  0  0  0  0  0  0  0
   34.6620   19.8210   32.0660 N   0  0  0  0  0  0  0  0  0  0  0  0
   34.2420   21.7870   32.5340 H   0  0  0  0  0  0  0  0  0  0  0  0
   38.3820   20.6630   32.3420 H   0  0  0  0  0  0  0  0  0  0  0  0
   35.2070   17.8860   31.6090 H   0  0  0  0  0  0  0  0  0  0  0  0
   37.6420   25.3400   32.3270 O   0  0  0  0  0  0  0  0  0  0  0  0
   37.9120   26.5770   34.2800 C   0  0  1  0  0  3  0  0  0  0  0  0
   38.0610   25.2130   33.6380 C   0  0  2  0  0  3  0  0  0  0  0  0
   39.4780   24.7500   33.7740 C   0  0  0  0  0  3  0  0  0  0  0  0
   39.5640   24.0780   34.6730 H   0  0  0  0  0  0  0  0  0  0  0  0
   40.4220   25.7620   33.7710 O   0  0  0  0  0  0  0  0  0  0  0  0
   40.2840   26.6510   34.8120 C   0  0  0  0  0  3  0  0  0  0  0  0
   40.3930   27.6780   34.4020 H   0  0  0  0  0  0  0  0  0  0  0  0
   38.9040   26.5960   35.4440 C   0  0  1  0  0  3  0  0  0  0  0  0
   38.2770   27.6200   33.4530 O   0  0  0  0  0  0  0  0  0  0  0  0
   38.5380   27.3740   32.5440 H   0  0  0  0  0  0  0  0  0  0  0  0
   38.6810   27.6850   36.2530 O   0  0  0  0  0  0  0  0  0  0  0  0
   39.4670   28.2810   36.1870 H   0  0  0  0  0  0  0  0  0  0  0  0
  2  1  2  6  0  0  0
  2 15  1  0  0  0  0
  2  5  1  0  0  0  0
  3  2  1  0  0  0  0
  4  3  1  0  0  0  0
  6  7  1  0  0  0  0
  6 12  1  0  0  0  0
  7  5  1  0  0  0  0
  8 13  1  0  0  0  0
  8  7  2  0  0  0  0
  9  8  1  0  0  0  0
 10  9  2  0  0  0  0
 10 11  1  0  0  0  0
 11  6  2  0  0  0  0
 14 10  1  0  0  0  0
 16 24  1  6  0  0  0
 16 23  1  0  0  0  0
 17 15  1  6  0  0  0
 17 18  1  0  0  0  0
 17 16  1  0  0  0  0
 18 19  1  0  0  0  0
 20 18  1  0  0  0  0
 20 21  1  0  0  0  0
 21 23  1  0  0  0  0
 22 21  1  0  0  0  0
 23 26  1  1  0  0  0
 25 24  1  0  0  0  0
 27 26  1  0  0  0  0
M  END
>  <minimizedAffinity>
-4.3017931

$$$$
