
 OpenBabel03262521433D

 33 35  0  0  1  0  0  0  0  0999 V2000
   38.7180   26.1110   34.7940 C   0  0  1  0  0  0  0  0  0  0  0  0
   38.1490   26.7930   33.5450 C   0  0  2  0  0  0  0  0  0  0  0  0
   36.9850   27.4870   34.2210 C   0  0  0  0  0  0  0  0  0  0  0  0
   37.5100   28.0310   35.3770 O   0  0  0  0  0  0  0  0  0  0  0  0
   38.6330   27.3440   35.7290 C   0  0  0  0  0  0  0  0  0  0  0  0
   39.7640   25.8050   34.6780 H   0  0  0  0  0  0  0  0  0  0  0  0
   38.9090   27.5190   33.2270 H   0  0  0  0  0  0  0  0  0  0  0  0
   36.6050   28.3100   33.5660 H   0  0  0  0  0  0  0  0  0  0  0  0
   36.1900   26.7650   34.4510 H   0  0  0  0  0  0  0  0  0  0  0  0
   38.5240   27.0020   36.7790 H   0  0  0  0  0  0  0  0  0  0  0  0
   39.5690   27.9410   35.6610 H   0  0  0  0  0  0  0  0  0  0  0  0
   37.7420   25.8140   32.5280 C   0  0  0  0  0  0  0  0  0  0  0  0
   36.4070   25.7770   32.0980 C   0  0  0  0  0  0  0  0  0  0  0  0
   36.0690   24.7970   31.1330 C   0  0  0  0  0  0  0  0  0  0  0  0
   37.0540   23.9590   30.6860 N   0  0  0  0  0  0  0  0  0  0  0  0
   38.3360   24.0300   31.1310 C   0  0  0  0  0  0  0  0  0  0  0  0
   38.6690   24.9620   32.0520 N   0  0  0  0  0  0  0  0  0  0  0  0
   35.6910   26.4790   32.5040 H   0  0  0  0  0  0  0  0  0  0  0  0
   35.0590   24.7450   30.7860 H   0  0  0  0  0  0  0  0  0  0  0  0
   39.0490   23.3280   30.7250 H   0  0  0  0  0  0  0  0  0  0  0  0
   37.8620   25.2010   35.3360 O   0  0  0  0  0  0  0  0  0  0  0  0
   38.6280   22.8970   35.5880 C   0  0  2  0  0  3  0  0  0  0  0  0
   38.6020   24.2960   36.0750 C   0  0  2  0  0  3  0  0  0  0  0  0
   38.1180   24.2590   37.5270 C   0  0  0  0  0  3  0  0  0  0  0  0
   38.5460   25.1400   38.0240 H   0  0  0  0  0  0  0  0  0  0  0  0
   38.5570   23.1130   38.1500 O   0  0  0  0  0  0  0  0  0  0  0  0
   39.8420   22.8170   37.7420 C   0  0  0  0  0  3  0  0  0  0  0  0
   40.2690   22.1060   38.4760 H   0  0  0  0  0  0  0  0  0  0  0  0
   39.7570   22.2010   36.3630 C   0  0  2  0  0  3  0  0  0  0  0  0
   38.8980   22.7000   34.2620 O   0  0  0  0  0  0  0  0  0  0  0  0
   38.0610   22.4650   33.7920 H   0  0  0  0  0  0  0  0  0  0  0  0
   40.9820   22.4860   35.7310 O   0  0  0  0  0  0  0  0  0  0  0  0
   41.4990   21.6430   35.7510 H   0  0  0  0  0  0  0  0  0  0  0  0
  1  6  1  6  0  0  0
  1 21  1  0  0  0  0
  1  5  1  0  0  0  0
  2  7  1  6  0  0  0
  2  3  1  0  0  0  0
  2  1  1  0  0  0  0
  3  9  1  0  0  0  0
  3  4  1  0  0  0  0
  4  5  1  0  0  0  0
  5 10  1  0  0  0  0
  8  3  1  0  0  0  0
 11  5  1  0  0  0  0
 12  2  1  0  0  0  0
 13 18  1  0  0  0  0
 13 12  1  0  0  0  0
 14 13  2  0  0  0  0
 15 16  2  0  0  0  0
 15 14  1  0  0  0  0
 16 17  1  0  0  0  0
 17 12  2  0  0  0  0
 19 14  1  0  0  0  0
 20 16  1  0  0  0  0
 22 30  1  6  0  0  0
 22 23  1  0  0  0  0
 22 29  1  0  0  0  0
 23 21  1  6  0  0  0
 23 24  1  0  0  0  0
 24 25  1  0  0  0  0
 24 26  1  0  0  0  0
 27 26  1  0  0  0  0
 27 28  1  0  0  0  0
 29 32  1  6  0  0  0
 29 27  1  0  0  0  0
 31 30  1  0  0  0  0
 32 33  1  0  0  0  0
M  END
>  <minimizedAffinity>
-4.89858198

$$$$

 OpenBabel03262521433D

 33 35  0  0  1  0  0  0  0  0999 V2000
   38.5600   23.0070   33.5900 C   0  0  1  0  0  0  0  0  0  0  0  0
   38.3250   21.8930   34.6150 C   0  0  2  0  0  0  0  0  0  0  0  0
   36.8620   21.6560   34.3070 C   0  0  0  0  0  0  0  0  0  0  0  0
   36.7810   21.6350   32.9270 O   0  0  0  0  0  0  0  0  0  0  0  0
   37.8370   22.3200   32.4040 C   0  0  0  0  0  0  0  0  0  0  0  0
   39.6180   23.1520   33.3460 H   0  0  0  0  0  0  0  0  0  0  0  0
   38.9400   21.0450   34.2810 H   0  0  0  0  0  0  0  0  0  0  0  0
   36.5490   20.6590   34.7080 H   0  0  0  0  0  0  0  0  0  0  0  0
   36.2470   22.4620   34.7260 H   0  0  0  0  0  0  0  0  0  0  0  0
   37.4470   23.0950   31.7120 H   0  0  0  0  0  0  0  0  0  0  0  0
   38.5520   21.6840   31.8360 H   0  0  0  0  0  0  0  0  0  0  0  0
   38.5710   22.3540   35.9870 C   0  0  0  0  0  0  0  0  0  0  0  0
   37.5050   22.8450   36.7550 C   0  0  0  0  0  0  0  0  0  0  0  0
   37.8080   23.2970   38.0620 C   0  0  0  0  0  0  0  0  0  0  0  0
   39.1060   23.2260   38.4900 N   0  0  0  0  0  0  0  0  0  0  0  0
   40.1090   22.7410   37.7120 C   0  0  0  0  0  0  0  0  0  0  0  0
   39.8310   22.3080   36.4620 N   0  0  0  0  0  0  0  0  0  0  0  0
   36.5070   22.8660   36.3380 H   0  0  0  0  0  0  0  0  0  0  0  0
   37.0150   23.6770   38.6710 H   0  0  0  0  0  0  0  0  0  0  0  0
   41.1040   22.7220   38.1300 H   0  0  0  0  0  0  0  0  0  0  0  0
   37.8250   24.1250   33.8480 O   0  0  0  0  0  0  0  0  0  0  0  0
   38.1870   26.5310   34.0400 C   0  0  2  0  0  3  0  0  0  0  0  0
   38.6930   25.1470   34.1890 C   0  0  2  0  0  3  0  0  0  0  0  0
   39.9880   25.0490   33.3800 C   0  0  0  0  0  3  0  0  0  0  0  0
   40.5950   24.2640   33.8500 H   0  0  0  0  0  0  0  0  0  0  0  0
   40.6650   26.2460   33.4120 O   0  0  0  0  0  0  0  0  0  0  0  0
   40.5640   26.8110   34.6680 C   0  0  0  0  0  3  0  0  0  0  0  0
   41.3590   27.5780   34.7540 H   0  0  0  0  0  0  0  0  0  0  0  0
   39.1880   27.4280   34.7860 C   0  0  2  0  0  3  0  0  0  0  0  0
   36.9580   26.8100   34.5690 O   0  0  0  0  0  0  0  0  0  0  0  0
   36.2970   26.8780   33.8370 H   0  0  0  0  0  0  0  0  0  0  0  0
   38.8700   27.4170   36.1570 O   0  0  0  0  0  0  0  0  0  0  0  0
   38.9880   28.3480   36.4690 H   0  0  0  0  0  0  0  0  0  0  0  0
  1  6  1  6  0  0  0
  1 21  1  0  0  0  0
  1  2  1  0  0  0  0
  2  7  1  6  0  0  0
  2 12  1  0  0  0  0
  3  2  1  0  0  0  0
  3  8  1  0  0  0  0
  3  9  1  0  0  0  0
  4  3  1  0  0  0  0
  5  4  1  0  0  0  0
  5  1  1  0  0  0  0
 10  5  1  0  0  0  0
 11  5  1  0  0  0  0
 12 17  2  0  0  0  0
 12 13  1  0  0  0  0
 13 14  2  0  0  0  0
 14 15  1  0  0  0  0
 14 19  1  0  0  0  0
 16 20  1  0  0  0  0
 16 15  2  0  0  0  0
 17 16  1  0  0  0  0
 18 13  1  0  0  0  0
 22 23  1  0  0  0  0
 22 30  1  1  0  0  0
 22 29  1  0  0  0  0
 23 21  1  6  0  0  0
 24 26  1  0  0  0  0
 24 25  1  0  0  0  0
 24 23  1  0  0  0  0
 26 27  1  0  0  0  0
 27 28  1  0  0  0  0
 27 29  1  0  0  0  0
 29 32  1  1  0  0  0
 31 30  1  0  0  0  0
 32 33  1  0  0  0  0
M  END
>  <minimizedAffinity>
-4.68922377

$$$$

 OpenBabel03262521433D

 33 35  0  0  1  0  0  0  0  0999 V2000
   38.5660   26.1440   34.8850 C   0  0  1  0  0  0  0  0  0  0  0  0
   38.0940   26.7730   33.5700 C   0  0  2  0  0  0  0  0  0  0  0  0
   36.9370   27.5650   34.1420 C   0  0  0  0  0  0  0  0  0  0  0  0
   37.4340   28.1540   35.2890 O   0  0  0  0  0  0  0  0  0  0  0  0
   38.5020   27.4350   35.7380 C   0  0  0  0  0  0  0  0  0  0  0  0
   39.5990   25.7790   34.8410 H   0  0  0  0  0  0  0  0  0  0  0  0
   38.9060   27.4400   33.2480 H   0  0  0  0  0  0  0  0  0  0  0  0
   36.6340   28.3640   33.4210 H   0  0  0  0  0  0  0  0  0  0  0  0
   36.0950   26.9000   34.3740 H   0  0  0  0  0  0  0  0  0  0  0  0
   38.3240   27.1660   36.8000 H   0  0  0  0  0  0  0  0  0  0  0  0
   39.4700   27.9800   35.6830 H   0  0  0  0  0  0  0  0  0  0  0  0
   37.6850   25.7540   32.5940 C   0  0  0  0  0  0  0  0  0  0  0  0
   38.6590   24.9480   31.9860 C   0  0  0  0  0  0  0  0  0  0  0  0
   38.2070   24.0000   31.0360 C   0  0  0  0  0  0  0  0  0  0  0  0
   36.8650   23.9300   30.7750 N   0  0  0  0  0  0  0  0  0  0  0  0
   35.9560   24.7320   31.3890 C   0  0  0  0  0  0  0  0  0  0  0  0
   36.3770   25.6410   32.2970 N   0  0  0  0  0  0  0  0  0  0  0  0
   39.7000   25.0700   32.2500 H   0  0  0  0  0  0  0  0  0  0  0  0
   38.9260   23.3710   30.5560 H   0  0  0  0  0  0  0  0  0  0  0  0
   34.9170   24.6090   31.1230 H   0  0  0  0  0  0  0  0  0  0  0  0
   37.6380   25.3130   35.4360 O   0  0  0  0  0  0  0  0  0  0  0  0
   38.6790   24.5990   37.5250 C   0  0  2  0  0  3  0  0  0  0  0  0
   38.3040   24.3120   36.1210 C   0  0  2  0  0  3  0  0  0  0  0  0
   39.5840   23.9110   35.3840 C   0  0  0  0  0  3  0  0  0  0  0  0
   39.2790   23.2560   34.5570 H   0  0  0  0  0  0  0  0  0  0  0  0
   40.4310   23.2330   36.2290 O   0  0  0  0  0  0  0  0  0  0  0  0
   39.7060   22.3970   37.0540 C   0  0  0  0  0  3  0  0  0  0  0  0
   40.4090   21.6540   37.4790 H   0  0  0  0  0  0  0  0  0  0  0  0
   39.0820   23.2490   38.1380 C   0  0  2  0  0  3  0  0  0  0  0  0
   37.7110   25.1140   38.3410 O   0  0  0  0  0  0  0  0  0  0  0  0
   37.8830   26.0770   38.4800 H   0  0  0  0  0  0  0  0  0  0  0  0
   37.9170   22.5720   38.5460 O   0  0  0  0  0  0  0  0  0  0  0  0
   38.1380   22.1540   39.4150 H   0  0  0  0  0  0  0  0  0  0  0  0
  1  6  1  6  0  0  0
  1 21  1  0  0  0  0
  1  5  1  0  0  0  0
  2  7  1  6  0  0  0
  2  3  1  0  0  0  0
  2  1  1  0  0  0  0
  3  9  1  0  0  0  0
  3  4  1  0  0  0  0
  4  5  1  0  0  0  0
  5 10  1  0  0  0  0
  8  3  1  0  0  0  0
 11  5  1  0  0  0  0
 12  2  1  0  0  0  0
 13 18  1  0  0  0  0
 13 12  2  0  0  0  0
 14 13  1  0  0  0  0
 15 14  2  0  0  0  0
 15 16  1  0  0  0  0
 16 17  2  0  0  0  0
 17 12  1  0  0  0  0
 19 14  1  0  0  0  0
 20 16  1  0  0  0  0
 22 29  1  0  0  0  0
 22 30  1  1  0  0  0
 23 21  1  6  0  0  0
 23 22  1  0  0  0  0
 24 23  1  0  0  0  0
 24 26  1  0  0  0  0
 25 24  1  0  0  0  0
 26 27  1  0  0  0  0
 27 28  1  0  0  0  0
 27 29  1  0  0  0  0
 29 32  1  6  0  0  0
 30 31  1  0  0  0  0
 32 33  1  0  0  0  0
M  END
>  <minimizedAffinity>
-4.67235947

$$$$

 OpenBabel03262521433D

 33 35  0  0  1  0  0  0  0  0999 V2000
   39.4740   26.6230   33.7950 C   0  0  1  0  0  0  0  0  0  0  0  0
   40.1850   25.7660   34.8480 C   0  0  2  0  0  0  0  0  0  0  0  0
   41.2300   25.1670   33.9300 C   0  0  0  0  0  0  0  0  0  0  0  0
   41.6970   26.2240   33.1720 O   0  0  0  0  0  0  0  0  0  0  0  0
   40.7520   27.2060   33.1410 C   0  0  0  0  0  0  0  0  0  0  0  0
   38.8780   27.4340   34.2300 H   0  0  0  0  0  0  0  0  0  0  0  0
   40.6410   26.4750   35.5530 H   0  0  0  0  0  0  0  0  0  0  0  0
   42.0720   24.7510   34.5390 H   0  0  0  0  0  0  0  0  0  0  0  0
   40.7820   24.3930   33.2940 H   0  0  0  0  0  0  0  0  0  0  0  0
   40.5400   27.4580   32.0810 H   0  0  0  0  0  0  0  0  0  0  0  0
   41.0550   28.1430   33.6590 H   0  0  0  0  0  0  0  0  0  0  0  0
   39.2820   24.7720   35.4420 C   0  0  0  0  0  0  0  0  0  0  0  0
   38.3430   25.1760   36.4010 C   0  0  0  0  0  0  0  0  0  0  0  0
   37.5160   24.1700   36.9560 C   0  0  0  0  0  0  0  0  0  0  0  0
   37.6820   22.8810   36.5250 N   0  0  0  0  0  0  0  0  0  0  0  0
   38.6070   22.5340   35.5910 C   0  0  0  0  0  0  0  0  0  0  0  0
   39.4020   23.4880   35.0560 N   0  0  0  0  0  0  0  0  0  0  0  0
   38.2780   26.2180   36.6850 H   0  0  0  0  0  0  0  0  0  0  0  0
   36.7900   24.4480   37.6900 H   0  0  0  0  0  0  0  0  0  0  0  0
   38.6700   21.4940   35.3100 H   0  0  0  0  0  0  0  0  0  0  0  0
   38.8880   25.8790   32.8160 O   0  0  0  0  0  0  0  0  0  0  0  0
   37.7950   27.2330   31.1040 C   0  0  2  0  0  3  0  0  0  0  0  0
   37.7370   26.5300   32.4070 C   0  0  2  0  0  3  0  0  0  0  0  0
   37.2930   27.5530   33.4540 C   0  0  0  0  0  3  0  0  0  0  0  0
   36.7900   26.9900   34.2510 H   0  0  0  0  0  0  0  0  0  0  0  0
   36.4180   28.4580   32.8990 O   0  0  0  0  0  0  0  0  0  0  0  0
   35.5700   27.8160   32.0180 C   0  0  0  0  0  3  0  0  0  0  0  0
   34.7040   28.4830   31.8430 H   0  0  0  0  0  0  0  0  0  0  0  0
   36.3400   27.5650   30.7400 C   0  0  2  0  0  3  0  0  0  0  0  0
   38.3060   26.5430   30.0410 O   0  0  0  0  0  0  0  0  0  0  0  0
   39.2170   26.8740   29.8470 H   0  0  0  0  0  0  0  0  0  0  0  0
   35.7520   26.4320   30.1470 O   0  0  0  0  0  0  0  0  0  0  0  0
   35.2030   26.7730   29.3980 H   0  0  0  0  0  0  0  0  0  0  0  0
  1  6  1  1  0  0  0
  1  2  1  0  0  0  0
  2 12  1  0  0  0  0
  2  7  1  1  0  0  0
  3  8  1  0  0  0  0
  3  2  1  0  0  0  0
  4  3  1  0  0  0  0
  5  4  1  0  0  0  0
  5 11  1  0  0  0  0
  5  1  1  0  0  0  0
  9  3  1  0  0  0  0
 10  5  1  0  0  0  0
 12 13  1  0  0  0  0
 13 18  1  0  0  0  0
 13 14  2  0  0  0  0
 14 19  1  0  0  0  0
 15 14  1  0  0  0  0
 16 15  2  0  0  0  0
 17 12  2  0  0  0  0
 17 16  1  0  0  0  0
 20 16  1  0  0  0  0
 21  1  1  0  0  0  0
 22 30  1  6  0  0  0
 22 23  1  0  0  0  0
 23 21  1  1  0  0  0
 23 24  1  0  0  0  0
 24 25  1  0  0  0  0
 26 24  1  0  0  0  0
 27 26  1  0  0  0  0
 28 27  1  0  0  0  0
 29 32  1  1  0  0  0
 29 22  1  0  0  0  0
 29 27  1  0  0  0  0
 31 30  1  0  0  0  0
 33 32  1  0  0  0  0
M  END
>  <minimizedAffinity>
-4.65122652

$$$$

 OpenBabel03262521433D

 33 35  0  0  1  0  0  0  0  0999 V2000
   38.4920   23.4010   33.1890 C   0  0  1  0  0  0  0  0  0  0  0  0
   37.5630   23.2090   31.9860 C   0  0  2  0  0  0  0  0  0  0  0  0
   36.6580   24.3930   32.2540 C   0  0  0  0  0  0  0  0  0  0  0  0
   37.5080   25.4350   32.5700 O   0  0  0  0  0  0  0  0  0  0  0  0
   38.6900   24.9290   33.0240 C   0  0  0  0  0  0  0  0  0  0  0  0
   39.4540   22.8890   33.0760 H   0  0  0  0  0  0  0  0  0  0  0  0
   38.1840   23.3820   31.0970 H   0  0  0  0  0  0  0  0  0  0  0  0
   36.0900   24.6510   31.3250 H   0  0  0  0  0  0  0  0  0  0  0  0
   35.9760   24.1740   33.0860 H   0  0  0  0  0  0  0  0  0  0  0  0
   38.9100   25.3810   34.0140 H   0  0  0  0  0  0  0  0  0  0  0  0
   39.5560   25.1330   32.3560 H   0  0  0  0  0  0  0  0  0  0  0  0
   36.8700   21.9150   32.0340 C   0  0  0  0  0  0  0  0  0  0  0  0
   35.4710   21.8810   32.1240 C   0  0  0  0  0  0  0  0  0  0  0  0
   34.8610   20.6050   32.1910 C   0  0  0  0  0  0  0  0  0  0  0  0
   35.6650   19.4980   32.1630 N   0  0  0  0  0  0  0  0  0  0  0  0
   37.0190   19.5770   32.0750 C   0  0  0  0  0  0  0  0  0  0  0  0
   37.6110   20.7910   32.0110 N   0  0  0  0  0  0  0  0  0  0  0  0
   34.9100   22.8060   32.1400 H   0  0  0  0  0  0  0  0  0  0  0  0
   33.7950   20.5480   32.2600 H   0  0  0  0  0  0  0  0  0  0  0  0
   37.5760   18.6520   32.0600 H   0  0  0  0  0  0  0  0  0  0  0  0
   37.8500   23.2580   34.3820 O   0  0  0  0  0  0  0  0  0  0  0  0
   39.2770   23.7860   36.2910 C   0  0  2  0  0  3  0  0  0  0  0  0
   38.7620   22.7980   35.3140 C   0  0  2  0  0  3  0  0  0  0  0  0
   39.9760   22.1740   34.6210 C   0  0  0  0  0  3  0  0  0  0  0  0
   39.6720   21.1690   34.2990 H   0  0  0  0  0  0  0  0  0  0  0  0
   41.0340   22.0850   35.4950 O   0  0  0  0  0  0  0  0  0  0  0  0
   40.5800   21.7340   36.7510 C   0  0  0  0  0  3  0  0  0  0  0  0
   41.4500   21.3650   37.3290 H   0  0  0  0  0  0  0  0  0  0  0  0
   39.9810   22.9700   37.3850 C   0  0  2  0  0  3  0  0  0  0  0  0
   38.3590   24.5710   36.9310 O   0  0  0  0  0  0  0  0  0  0  0  0
   38.3850   25.4810   36.5460 H   0  0  0  0  0  0  0  0  0  0  0  0
   39.0140   22.5110   38.2990 O   0  0  0  0  0  0  0  0  0  0  0  0
   39.4200   22.6110   39.1950 H   0  0  0  0  0  0  0  0  0  0  0  0
  1  6  1  6  0  0  0
  1 21  1  0  0  0  0
  2  7  1  6  0  0  0
  2 12  1  0  0  0  0
  2  3  1  0  0  0  0
  2  1  1  0  0  0  0
  3  4  1  0  0  0  0
  3  9  1  0  0  0  0
  4  5  1  0  0  0  0
  5  1  1  0  0  0  0
  5 10  1  0  0  0  0
  8  3  1  0  0  0  0
 11  5  1  0  0  0  0
 12 13  1  0  0  0  0
 13 18  1  0  0  0  0
 13 14  2  0  0  0  0
 14 19  1  0  0  0  0
 15 14  1  0  0  0  0
 16 15  2  0  0  0  0
 17 12  2  0  0  0  0
 17 16  1  0  0  0  0
 20 16  1  0  0  0  0
 22 30  1  1  0  0  0
 22 29  1  0  0  0  0
 23 21  1  6  0  0  0
 23 22  1  0  0  0  0
 24 23  1  0  0  0  0
 24 26  1  0  0  0  0
 25 24  1  0  0  0  0
 26 27  1  0  0  0  0
 27 28  1  0  0  0  0
 27 29  1  0  0  0  0
 29 32  1  1  0  0  0
 31 30  1  0  0  0  0
 32 33  1  0  0  0  0
M  END
>  <minimizedAffinity>
-4.61454821

$$$$

 OpenBabel03262521433D

 33 35  0  0  1  0  0  0  0  0999 V2000
   38.4980   23.7680   36.0600 C   0  0  1  0  0  0  0  0  0  0  0  0
   39.5180   22.7180   36.5120 C   0  0  2  0  0  0  0  0  0  0  0  0
   39.4700   23.0320   37.9930 C   0  0  0  0  0  0  0  0  0  0  0  0
   38.1280   23.1620   38.2930 O   0  0  0  0  0  0  0  0  0  0  0  0
   37.4430   23.4810   37.1580 C   0  0  0  0  0  0  0  0  0  0  0  0
   38.0720   23.5570   35.0720 H   0  0  0  0  0  0  0  0  0  0  0  0
   39.0580   21.7430   36.3020 H   0  0  0  0  0  0  0  0  0  0  0  0
   39.8950   22.1750   38.5740 H   0  0  0  0  0  0  0  0  0  0  0  0
   40.0140   23.9610   38.2050 H   0  0  0  0  0  0  0  0  0  0  0  0
   36.8520   24.4010   37.3490 H   0  0  0  0  0  0  0  0  0  0  0  0
   36.7390   22.6890   36.8160 H   0  0  0  0  0  0  0  0  0  0  0  0
   40.8360   22.9420   35.9050 C   0  0  0  0  0  0  0  0  0  0  0  0
   41.9650   23.0690   36.7270 C   0  0  0  0  0  0  0  0  0  0  0  0
   43.2050   23.3080   36.0860 C   0  0  0  0  0  0  0  0  0  0  0  0
   43.2240   23.3970   34.7200 N   0  0  0  0  0  0  0  0  0  0  0  0
   42.1040   23.2670   33.9620 C   0  0  0  0  0  0  0  0  0  0  0  0
   40.9150   23.0400   34.5640 N   0  0  0  0  0  0  0  0  0  0  0  0
   41.8610   22.9850   37.8000 H   0  0  0  0  0  0  0  0  0  0  0  0
   44.0830   23.4090   36.6870 H   0  0  0  0  0  0  0  0  0  0  0  0
   42.2100   23.3530   32.8900 H   0  0  0  0  0  0  0  0  0  0  0  0
   38.9120   25.0440   36.2970 O   0  0  0  0  0  0  0  0  0  0  0  0
   39.8990   26.7540   34.8620 C   0  0  2  0  0  3  0  0  0  0  0  0
   38.8370   25.7520   35.1110 C   0  0  2  0  0  3  0  0  0  0  0  0
   37.4950   26.4800   34.9990 C   0  0  0  0  0  3  0  0  0  0  0  0
   36.7540   25.7290   34.6940 H   0  0  0  0  0  0  0  0  0  0  0  0
   37.5670   27.4760   34.0540 O   0  0  0  0  0  0  0  0  0  0  0  0
   38.3230   27.0520   32.9790 C   0  0  0  0  0  3  0  0  0  0  0  0
   38.0990   27.7250   32.1280 H   0  0  0  0  0  0  0  0  0  0  0  0
   39.7790   27.1360   33.3790 C   0  0  2  0  0  3  0  0  0  0  0  0
   41.1930   26.3550   35.0500 O   0  0  0  0  0  0  0  0  0  0  0  0
   41.5330   26.7410   35.8940 H   0  0  0  0  0  0  0  0  0  0  0  0
   40.4540   26.1710   32.6080 O   0  0  0  0  0  0  0  0  0  0  0  0
   40.9270   26.6740   31.9000 H   0  0  0  0  0  0  0  0  0  0  0  0
  1  6  1  6  0  0  0
  1 21  1  0  0  0  0
  1  2  1  0  0  0  0
  1  5  1  0  0  0  0
  2  7  1  6  0  0  0
  2  3  1  0  0  0  0
  3  9  1  0  0  0  0
  3  4  1  0  0  0  0
  3  8  1  0  0  0  0
  5 10  1  0  0  0  0
  5  4  1  0  0  0  0
 11  5  1  0  0  0  0
 12  2  1  0  0  0  0
 12 13  1  0  0  0  0
 13 18  1  0  0  0  0
 14 19  1  0  0  0  0
 14 13  2  0  0  0  0
 15 14  1  0  0  0  0
 16 17  1  0  0  0  0
 16 15  2  0  0  0  0
 17 12  2  0  0  0  0
 20 16  1  0  0  0  0
 22 30  1  6  0  0  0
 22 23  1  0  0  0  0
 23 21  1  1  0  0  0
 24 23  1  0  0  0  0
 25 24  1  0  0  0  0
 26 24  1  0  0  0  0
 27 29  1  0  0  0  0
 27 26  1  0  0  0  0
 28 27  1  0  0  0  0
 29 32  1  6  0  0  0
 29 22  1  0  0  0  0
 30 31  1  0  0  0  0
 33 32  1  0  0  0  0
M  END
>  <minimizedAffinity>
-4.50559235

$$$$

 OpenBabel03262521433D

 33 35  0  0  1  0  0  0  0  0999 V2000
   37.2810   25.3650   31.6560 C   0  0  1  0  0  0  0  0  0  0  0  0
   36.5070   24.2900   30.8860 C   0  0  2  0  0  0  0  0  0  0  0  0
   35.1250   24.8800   31.0740 C   0  0  0  0  0  0  0  0  0  0  0  0
   35.2700   26.2310   30.8230 O   0  0  0  0  0  0  0  0  0  0  0  0
   36.5700   26.5890   31.0250 C   0  0  0  0  0  0  0  0  0  0  0  0
   38.3480   25.3880   31.4080 H   0  0  0  0  0  0  0  0  0  0  0  0
   36.8330   24.3770   29.8400 H   0  0  0  0  0  0  0  0  0  0  0  0
   34.4220   24.4410   30.3230 H   0  0  0  0  0  0  0  0  0  0  0  0
   34.7700   24.7060   32.0980 H   0  0  0  0  0  0  0  0  0  0  0  0
   36.5950   27.4380   31.7400 H   0  0  0  0  0  0  0  0  0  0  0  0
   37.1020   26.9070   30.1010 H   0  0  0  0  0  0  0  0  0  0  0  0
   36.6680   22.9630   31.4930 C   0  0  0  0  0  0  0  0  0  0  0  0
   35.5500   22.3050   32.0270 C   0  0  0  0  0  0  0  0  0  0  0  0
   35.7720   21.0390   32.6200 C   0  0  0  0  0  0  0  0  0  0  0  0
   37.0470   20.5410   32.6330 N   0  0  0  0  0  0  0  0  0  0  0  0
   38.1020   21.2130   32.1020 C   0  0  0  0  0  0  0  0  0  0  0  0
   37.9010   22.4230   31.5340 N   0  0  0  0  0  0  0  0  0  0  0  0
   34.5760   22.7710   31.9750 H   0  0  0  0  0  0  0  0  0  0  0  0
   34.9390   20.5130   33.0360 H   0  0  0  0  0  0  0  0  0  0  0  0
   39.0740   20.7460   32.1560 H   0  0  0  0  0  0  0  0  0  0  0  0
   36.9510   25.4110   32.9770 O   0  0  0  0  0  0  0  0  0  0  0  0
   38.4650   24.8070   34.7930 C   0  0  2  0  0  3  0  0  0  0  0  0
   38.0870   25.7300   33.6980 C   0  0  2  0  0  3  0  0  0  0  0  0
   37.9660   27.1290   34.3070 C   0  0  0  0  0  3  0  0  0  0  0  0
   38.1770   27.8430   33.5000 H   0  0  0  0  0  0  0  0  0  0  0  0
   38.8790   27.2900   35.3240 O   0  0  0  0  0  0  0  0  0  0  0  0
   40.0710   26.6800   34.9880 C   0  0  0  0  0  3  0  0  0  0  0  0
   40.8550   27.0900   35.6540 H   0  0  0  0  0  0  0  0  0  0  0  0
   39.8990   25.1900   35.1920 C   0  0  2  0  0  3  0  0  0  0  0  0
   38.4930   23.4710   34.5060 O   0  0  0  0  0  0  0  0  0  0  0  0
   37.7000   23.0370   34.9040 H   0  0  0  0  0  0  0  0  0  0  0  0
   40.7960   24.5670   34.3040 O   0  0  0  0  0  0  0  0  0  0  0  0
   41.5520   24.2550   34.8600 H   0  0  0  0  0  0  0  0  0  0  0  0
  1  6  1  6  0  0  0
  1 21  1  0  0  0  0
  2  7  1  6  0  0  0
  2  3  1  0  0  0  0
  2 12  1  0  0  0  0
  2  1  1  0  0  0  0
  3  9  1  0  0  0  0
  4  5  1  0  0  0  0
  4  3  1  0  0  0  0
  5  1  1  0  0  0  0
  5 10  1  0  0  0  0
  8  3  1  0  0  0  0
 11  5  1  0  0  0  0
 12 17  2  0  0  0  0
 12 13  1  0  0  0  0
 13 14  2  0  0  0  0
 14 15  1  0  0  0  0
 14 19  1  0  0  0  0
 16 20  1  0  0  0  0
 16 15  2  0  0  0  0
 17 16  1  0  0  0  0
 18 13  1  0  0  0  0
 22 30  1  6  0  0  0
 22 29  1  0  0  0  0
 23 21  1  1  0  0  0
 23 24  1  0  0  0  0
 23 22  1  0  0  0  0
 24 26  1  0  0  0  0
 25 24  1  0  0  0  0
 27 29  1  0  0  0  0
 27 26  1  0  0  0  0
 27 28  1  0  0  0  0
 29 32  1  6  0  0  0
 30 31  1  0  0  0  0
 32 33  1  0  0  0  0
M  END
>  <minimizedAffinity>
-4.42653465

$$$$

 OpenBabel03262521433D

 33 35  0  0  1  0  0  0  0  0999 V2000
   37.4160   25.4470   33.4420 C   0  0  1  0  0  0  0  0  0  0  0  0
   38.3250   25.9480   34.5690 C   0  0  2  0  0  0  0  0  0  0  0  0
   39.4180   26.5210   33.6900 C   0  0  0  0  0  0  0  0  0  0  0  0
   38.7560   27.2180   32.6980 O   0  0  0  0  0  0  0  0  0  0  0  0
   37.4930   26.7220   32.5650 C   0  0  0  0  0  0  0  0  0  0  0  0
   36.3810   25.2810   33.7650 H   0  0  0  0  0  0  0  0  0  0  0  0
   37.7650   26.7470   35.0730 H   0  0  0  0  0  0  0  0  0  0  0  0
   40.0440   27.2330   34.2840 H   0  0  0  0  0  0  0  0  0  0  0  0
   40.0300   25.7150   33.2650 H   0  0  0  0  0  0  0  0  0  0  0  0
   37.3320   26.4470   31.5010 H   0  0  0  0  0  0  0  0  0  0  0  0
   36.6930   27.4370   32.8570 H   0  0  0  0  0  0  0  0  0  0  0  0
   38.7790   24.8490   35.4310 C   0  0  0  0  0  0  0  0  0  0  0  0
   37.9190   24.3440   36.4180 C   0  0  0  0  0  0  0  0  0  0  0  0
   38.4200   23.3010   37.2350 C   0  0  0  0  0  0  0  0  0  0  0  0
   39.6950   22.8570   37.0130 N   0  0  0  0  0  0  0  0  0  0  0  0
   40.4940   23.3760   36.0440 C   0  0  0  0  0  0  0  0  0  0  0  0
   40.0260   24.3720   35.2590 N   0  0  0  0  0  0  0  0  0  0  0  0
   36.9240   24.7530   36.5260 H   0  0  0  0  0  0  0  0  0  0  0  0
   37.7870   22.8950   37.9950 H   0  0  0  0  0  0  0  0  0  0  0  0
   41.4880   22.9660   35.9390 H   0  0  0  0  0  0  0  0  0  0  0  0
   37.9940   24.4690   32.6900 O   0  0  0  0  0  0  0  0  0  0  0  0
   37.7040   22.0460   32.7160 C   0  0  2  0  0  3  0  0  0  0  0  0
   37.1170   23.4020   32.6150 C   0  0  2  0  0  3  0  0  0  0  0  0
   36.3150   23.4520   31.3130 C   0  0  0  0  0  3  0  0  0  0  0  0
   35.5240   24.1990   31.4580 H   0  0  0  0  0  0  0  0  0  0  0  0
   35.7540   22.2230   31.0480 O   0  0  0  0  0  0  0  0  0  0  0  0
   35.3130   21.6440   32.2210 C   0  0  0  0  0  3  0  0  0  0  0  0
   34.6030   20.8390   31.9490 H   0  0  0  0  0  0  0  0  0  0  0  0
   36.5220   21.0910   32.9430 C   0  0  2  0  0  3  0  0  0  0  0  0
   38.5820   21.8170   33.7390 O   0  0  0  0  0  0  0  0  0  0  0  0
   39.5010   21.7920   33.3780 H   0  0  0  0  0  0  0  0  0  0  0  0
   36.1950   21.0940   34.3120 O   0  0  0  0  0  0  0  0  0  0  0  0
   35.9970   20.1540   34.5450 H   0  0  0  0  0  0  0  0  0  0  0  0
  1  6  1  1  0  0  0
  1  2  1  0  0  0  0
  2  7  1  1  0  0  0
  2 12  1  0  0  0  0
  3  8  1  0  0  0  0
  3  2  1  0  0  0  0
  4  3  1  0  0  0  0
  5  4  1  0  0  0  0
  5 11  1  0  0  0  0
  5  1  1  0  0  0  0
  9  3  1  0  0  0  0
 10  5  1  0  0  0  0
 12 13  1  0  0  0  0
 13 18  1  0  0  0  0
 13 14  2  0  0  0  0
 14 19  1  0  0  0  0
 15 14  1  0  0  0  0
 16 15  2  0  0  0  0
 17 12  2  0  0  0  0
 17 16  1  0  0  0  0
 20 16  1  0  0  0  0
 21  1  1  0  0  0  0
 22 29  1  0  0  0  0
 22 30  1  1  0  0  0
 23 21  1  6  0  0  0
 23 22  1  0  0  0  0
 24 25  1  0  0  0  0
 24 23  1  0  0  0  0
 26 24  1  0  0  0  0
 26 27  1  0  0  0  0
 27 29  1  0  0  0  0
 28 27  1  0  0  0  0
 29 32  1  1  0  0  0
 31 30  1  0  0  0  0
 32 33  1  0  0  0  0
M  END
>  <minimizedAffinity>
-4.37216663

$$$$

 OpenBabel03262521433D

 33 35  0  0  1  0  0  0  0  0999 V2000
   38.8820   26.2440   33.3490 C   0  0  1  0  0  0  0  0  0  0  0  0
   39.6670   26.1830   34.6630 C   0  0  2  0  0  0  0  0  0  0  0  0
   41.0330   25.9360   34.0590 C   0  0  0  0  0  0  0  0  0  0  0  0
   41.1260   26.8190   33.0000 O   0  0  0  0  0  0  0  0  0  0  0  0
   39.8730   27.1610   32.5870 C   0  0  0  0  0  0  0  0  0  0  0  0
   37.9130   26.7470   33.4480 H   0  0  0  0  0  0  0  0  0  0  0  0
   39.6050   27.1910   35.0960 H   0  0  0  0  0  0  0  0  0  0  0  0
   41.8270   26.1760   34.8090 H   0  0  0  0  0  0  0  0  0  0  0  0
   41.1160   24.8970   33.7130 H   0  0  0  0  0  0  0  0  0  0  0  0
   39.7940   26.9630   31.4980 H   0  0  0  0  0  0  0  0  0  0  0  0
   39.6150   28.2300   32.7590 H   0  0  0  0  0  0  0  0  0  0  0  0
   39.1980   25.0920   35.5270 C   0  0  0  0  0  0  0  0  0  0  0  0
   37.9580   25.2040   36.1730 C   0  0  0  0  0  0  0  0  0  0  0  0
   37.5700   24.1320   37.0120 C   0  0  0  0  0  0  0  0  0  0  0  0
   38.4190   23.0650   37.1380 N   0  0  0  0  0  0  0  0  0  0  0  0
   39.6130   22.9980   36.4920 C   0  0  0  0  0  0  0  0  0  0  0  0
   39.9930   24.0180   35.6890 N   0  0  0  0  0  0  0  0  0  0  0  0
   37.3480   26.0840   36.0180 H   0  0  0  0  0  0  0  0  0  0  0  0
   36.6300   24.1890   37.5170 H   0  0  0  0  0  0  0  0  0  0  0  0
   40.2210   22.1200   36.6490 H   0  0  0  0  0  0  0  0  0  0  0  0
   38.9020   25.0650   32.6660 O   0  0  0  0  0  0  0  0  0  0  0  0
   37.4920   23.8120   31.1170 C   0  0  2  0  0  3  0  0  0  0  0  0
   37.6230   24.8090   32.2050 C   0  0  2  0  0  3  0  0  0  0  0  0
   36.9550   26.0970   31.7190 C   0  0  0  0  0  3  0  0  0  0  0  0
   36.6140   26.6320   32.6160 H   0  0  0  0  0  0  0  0  0  0  0  0
   35.8800   25.8050   30.9120 O   0  0  0  0  0  0  0  0  0  0  0  0
   35.2040   24.7080   31.4060 C   0  0  0  0  0  3  0  0  0  0  0  0
   34.1990   24.6980   30.9400 H   0  0  0  0  0  0  0  0  0  0  0  0
   35.9960   23.4740   31.0330 C   0  0  2  0  0  3  0  0  0  0  0  0
   38.1440   22.6210   31.2770 O   0  0  0  0  0  0  0  0  0  0  0  0
   38.9450   22.6090   30.6970 H   0  0  0  0  0  0  0  0  0  0  0  0
   35.6960   22.5060   32.0100 O   0  0  0  0  0  0  0  0  0  0  0  0
   35.0710   21.8720   31.5790 H   0  0  0  0  0  0  0  0  0  0  0  0
  1  6  1  1  0  0  0
  1  2  1  0  0  0  0
  2  7  1  1  0  0  0
  2 12  1  0  0  0  0
  3  2  1  0  0  0  0
  3  8  1  0  0  0  0
  4  3  1  0  0  0  0
  5 11  1  0  0  0  0
  5  4  1  0  0  0  0
  5  1  1  0  0  0  0
  9  3  1  0  0  0  0
 10  5  1  0  0  0  0
 12 17  2  0  0  0  0
 12 13  1  0  0  0  0
 13 14  2  0  0  0  0
 14 15  1  0  0  0  0
 14 19  1  0  0  0  0
 16 20  1  0  0  0  0
 16 15  2  0  0  0  0
 17 16  1  0  0  0  0
 18 13  1  0  0  0  0
 21  1  1  0  0  0  0
 22 30  1  1  0  0  0
 22 23  1  0  0  0  0
 23 21  1  6  0  0  0
 24 23  1  0  0  0  0
 24 25  1  0  0  0  0
 26 27  1  0  0  0  0
 26 24  1  0  0  0  0
 28 27  1  0  0  0  0
 29 22  1  0  0  0  0
 29 27  1  0  0  0  0
 29 32  1  1  0  0  0
 31 30  1  0  0  0  0
 33 32  1  0  0  0  0
M  END
>  <minimizedAffinity>
-4.35254049

$$$$
