
 OpenBabel03272509363D

 46 50  0  0  1  0  0  0  0  0999 V2000
   39.1150   26.7760   34.7170 C   0  0  1  0  0  0  0  0  0  0  0  0
   38.1130   27.1020   35.7610 C   0  0  0  0  0  0  0  0  0  0  0  0
   38.0690   25.7280   35.3040 C   0  0  2  0  0  0  0  0  0  0  0  0
   40.1510   26.4860   34.9140 H   0  0  0  0  0  0  0  0  0  0  0  0
   38.6180   27.5520   36.6220 H   0  0  0  0  0  0  0  0  0  0  0  0
   37.2750   27.7810   35.3900 H   0  0  0  0  0  0  0  0  0  0  0  0
   37.5710   25.2590   34.4650 H   0  0  0  0  0  0  0  0  0  0  0  0
   38.5820   24.7940   36.3640 C   0  0  0  0  0  0  0  0  0  0  0  0
   37.8710   24.9670   37.5470 C   0  0  0  0  0  0  0  0  0  0  0  0
   38.0990   24.1410   38.6180 C   0  0  0  0  0  0  0  0  0  0  0  0
   39.0480   23.1110   38.5400 C   0  0  0  0  0  0  0  0  0  0  0  0
   39.7360   22.9650   37.3520 C   0  0  0  0  0  0  0  0  0  0  0  0
   40.6880   22.0050   37.1650 C   0  0  0  0  0  0  0  0  0  0  0  0
   41.3960   21.8530   35.9830 C   0  0  0  0  0  0  0  0  0  0  0  0
   41.1240   22.7180   34.9360 C   0  0  0  0  0  0  0  0  0  0  0  0
   40.1620   23.6870   35.1240 C   0  0  0  0  0  0  0  0  0  0  0  0
   39.4810   23.7990   36.3220 C   0  0  0  0  0  0  0  0  0  0  0  0
   37.1010   25.6190   37.9060 H   0  0  0  0  0  0  0  0  0  0  0  0
   37.6510   24.1260   39.6020 H   0  0  0  0  0  0  0  0  0  0  0  0
   39.3290   22.3870   39.3020 H   0  0  0  0  0  0  0  0  0  0  0  0
   40.9380   21.3050   37.9500 H   0  0  0  0  0  0  0  0  0  0  0  0
   42.1510   21.0870   35.8450 H   0  0  0  0  0  0  0  0  0  0  0  0
   41.6250   22.6770   33.9790 H   0  0  0  0  0  0  0  0  0  0  0  0
   39.9530   24.3710   34.2840 H   0  0  0  0  0  0  0  0  0  0  0  0
   39.3080   27.2140   30.9730 C   0  0  0  0  0  0  0  0  0  0  0  0
   39.6460   26.8260   32.3090 C   0  0  0  0  0  0  0  0  0  0  0  0
   38.7850   27.1520   33.3190 C   0  0  0  0  0  0  0  0  0  0  0  0
   37.6360   27.8410   32.9640 N   0  0  0  0  0  0  0  0  0  0  0  0
   37.3420   28.1920   31.7050 C   0  0  0  0  0  0  0  0  0  0  0  0
   38.1650   27.8880   30.6950 N   0  0  0  0  0  0  0  0  0  0  0  0
   40.0290   26.9240   30.2430 H   0  0  0  0  0  0  0  0  0  0  0  0
   40.5490   26.2960   32.5080 H   0  0  0  0  0  0  0  0  0  0  0  0
   36.0730   28.9530   31.5070 C   0  0  0  0  0  0  0  0  0  0  0  0
   36.2940   29.9740   31.1580 H   0  0  0  0  0  0  0  0  0  0  0  0
   35.4180   28.3970   30.8100 H   0  0  0  0  0  0  0  0  0  0  0  0
   35.3600   29.0540   32.8640 C   0  0  0  0  0  0  0  0  0  0  0  0
   34.2520   28.9500   32.7000 H   0  0  0  0  0  0  0  0  0  0  0  0
   35.6270   28.1980   33.5020 H   0  0  0  0  0  0  0  0  0  0  0  0
   35.5740   30.3770   33.4730 C   0  0  0  0  0  0  0  0  0  0  0  0
   35.7230   30.2250   34.8520 C   0  0  0  0  0  0  0  0  0  0  0  0
   35.6910   29.2920   35.4250 H   0  0  0  0  0  0  0  0  0  0  0  0
   35.9460   31.2730   35.7520 C   0  0  0  0  0  0  0  0  0  0  0  0
   36.0630   31.1830   36.8120 H   0  0  0  0  0  0  0  0  0  0  0  0
   36.0250   32.5670   35.2500 C   0  0  0  0  0  3  0  0  0  0  0  0
   35.8740   32.6760   33.8950 C   0  0  0  0  0  3  0  0  0  0  0  0
   35.6640   31.6470   33.0840 N   0  0  0  0  0  0  0  0  0  0  0  0
  1  4  1  1  0  0  0
  1  3  1  0  0  0  0
  1  2  1  0  0  0  0
  2  5  1  0  0  0  0
  3  7  1  6  0  0  0
  3  2  1  0  0  0  0
  3  8  1  0  0  0  0
  6  2  1  0  0  0  0
  8  9  1  0  0  0  0
  9 18  1  0  0  0  0
  9 10  2  0  0  0  0
 10 19  1  0  0  0  0
 11 10  1  0  0  0  0
 11 20  1  0  0  0  0
 12 11  2  0  0  0  0
 13 12  1  0  0  0  0
 13 21  1  0  0  0  0
 14 13  2  0  0  0  0
 15 16  2  0  0  0  0
 15 14  1  0  0  0  0
 16 17  1  0  0  0  0
 17  8  2  0  0  0  0
 17 12  1  0  0  0  0
 22 14  1  0  0  0  0
 23 15  1  0  0  0  0
 24 16  1  0  0  0  0
 25 26  1  0  0  0  0
 26 32  1  0  0  0  0
 26 27  2  0  0  0  0
 27  1  1  0  0  0  0
 28 27  1  0  0  0  0
 29 28  2  0  0  0  0
 30 25  2  0  0  0  0
 30 29  1  0  0  0  0
 31 25  1  0  0  0  0
 33 29  1  0  0  0  0
 33 36  1  0  0  0  0
 34 33  1  0  0  0  0
 35 33  1  0  0  0  0
 36 39  1  0  0  0  0
 36 38  1  0  0  0  0
 37 36  1  0  0  0  0
 39 40  1  0  0  0  0
 40 41  1  0  0  0  0
 40 42  2  0  0  0  0
 42 43  1  0  0  0  0
 44 42  1  0  0  0  0
 45 44  2  0  0  0  0
 46 39  2  0  0  0  0
 46 45  1  0  0  0  0
M  END
>  <minimizedAffinity>
-6.73581314

$$$$

 OpenBabel03272509363D

 46 50  0  0  1  0  0  0  0  0999 V2000
   38.6150   26.6780   34.6410 C   0  0  1  0  0  0  0  0  0  0  0  0
   38.1150   27.0360   35.9910 C   0  0  0  0  0  0  0  0  0  0  0  0
   37.7820   25.6900   35.5720 C   0  0  2  0  0  0  0  0  0  0  0  0
   39.6180   26.3020   34.4260 H   0  0  0  0  0  0  0  0  0  0  0  0
   38.9460   27.4100   36.5990 H   0  0  0  0  0  0  0  0  0  0  0  0
   37.2620   27.7930   35.9740 H   0  0  0  0  0  0  0  0  0  0  0  0
   36.9650   25.2970   34.9820 H   0  0  0  0  0  0  0  0  0  0  0  0
   38.5740   24.6760   36.3480 C   0  0  0  0  0  0  0  0  0  0  0  0
   38.1090   24.5940   37.6560 C   0  0  0  0  0  0  0  0  0  0  0  0
   38.6170   23.6520   38.5140 C   0  0  0  0  0  0  0  0  0  0  0  0
   39.6100   22.7580   38.0890 C   0  0  0  0  0  0  0  0  0  0  0  0
   40.0510   22.8640   36.7860 C   0  0  0  0  0  0  0  0  0  0  0  0
   41.0200   22.0540   36.2660 C   0  0  0  0  0  0  0  0  0  0  0  0
   41.4810   22.1560   34.9640 C   0  0  0  0  0  0  0  0  0  0  0  0
   40.9320   23.1280   34.1430 C   0  0  0  0  0  0  0  0  0  0  0  0
   39.9530   23.9450   34.6660 C   0  0  0  0  0  0  0  0  0  0  0  0
   39.5240   23.8050   35.9740 C   0  0  0  0  0  0  0  0  0  0  0  0
   37.3780   25.0970   38.2560 H   0  0  0  0  0  0  0  0  0  0  0  0
   38.3820   23.4440   39.5480 H   0  0  0  0  0  0  0  0  0  0  0  0
   40.0990   21.9670   38.6550 H   0  0  0  0  0  0  0  0  0  0  0  0
   41.4810   21.2800   36.8640 H   0  0  0  0  0  0  0  0  0  0  0  0
   42.2520   21.5080   34.5610 H   0  0  0  0  0  0  0  0  0  0  0  0
   41.2290   23.2830   33.1150 H   0  0  0  0  0  0  0  0  0  0  0  0
   39.5220   24.7160   34.0050 H   0  0  0  0  0  0  0  0  0  0  0  0
   37.3370   27.1520   31.1210 C   0  0  0  0  0  0  0  0  0  0  0  0
   38.1170   26.6820   32.2250 C   0  0  0  0  0  0  0  0  0  0  0  0
   37.8140   27.1370   33.4780 C   0  0  0  0  0  0  0  0  0  0  0  0
   36.7580   28.0300   33.5810 N   0  0  0  0  0  0  0  0  0  0  0  0
   36.0420   28.4550   32.5310 C   0  0  0  0  0  0  0  0  0  0  0  0
   36.3150   28.0280   31.2930 N   0  0  0  0  0  0  0  0  0  0  0  0
   37.6350   26.7520   30.1800 H   0  0  0  0  0  0  0  0  0  0  0  0
   38.9160   25.9940   32.0700 H   0  0  0  0  0  0  0  0  0  0  0  0
   34.9560   29.4360   32.8220 C   0  0  0  0  0  0  0  0  0  0  0  0
   34.6070   29.9020   31.8880 H   0  0  0  0  0  0  0  0  0  0  0  0
   34.1430   28.9280   33.3740 H   0  0  0  0  0  0  0  0  0  0  0  0
   35.5360   30.5390   33.7210 C   0  0  0  0  0  0  0  0  0  0  0  0
   36.4980   30.1710   34.1720 H   0  0  0  0  0  0  0  0  0  0  0  0
   35.8280   31.4110   33.1170 H   0  0  0  0  0  0  0  0  0  0  0  0
   34.6290   30.8320   34.8440 C   0  0  0  0  0  0  0  0  0  0  0  0
   35.3000   31.6260   35.7750 C   0  0  0  0  0  0  0  0  0  0  0  0
   36.3320   31.9900   35.7180 H   0  0  0  0  0  0  0  0  0  0  0  0
   34.7450   32.0990   36.9690 C   0  0  0  0  0  0  0  0  0  0  0  0
   35.2360   32.7080   37.6980 H   0  0  0  0  0  0  0  0  0  0  0  0
   33.4290   31.7600   37.2630 C   0  0  0  0  0  3  0  0  0  0  0  0
   32.8040   30.9820   36.3270 C   0  0  0  0  0  3  0  0  0  0  0  0
   33.3790   30.5580   35.2080 N   0  0  0  0  0  0  0  0  0  0  0  0
  1  4  1  6  0  0  0
  1  3  1  0  0  0  0
  1  2  1  0  0  0  0
  2  5  1  0  0  0  0
  3  7  1  6  0  0  0
  3  2  1  0  0  0  0
  3  8  1  0  0  0  0
  6  2  1  0  0  0  0
  8  9  1  0  0  0  0
  9 18  1  0  0  0  0
  9 10  2  0  0  0  0
 10 19  1  0  0  0  0
 11 10  1  0  0  0  0
 11 20  1  0  0  0  0
 12 11  2  0  0  0  0
 13 12  1  0  0  0  0
 13 21  1  0  0  0  0
 14 13  2  0  0  0  0
 15 16  2  0  0  0  0
 15 14  1  0  0  0  0
 16 17  1  0  0  0  0
 17  8  2  0  0  0  0
 17 12  1  0  0  0  0
 22 14  1  0  0  0  0
 23 15  1  0  0  0  0
 24 16  1  0  0  0  0
 25 30  2  0  0  0  0
 25 26  1  0  0  0  0
 26 27  2  0  0  0  0
 27 28  1  0  0  0  0
 27  1  1  0  0  0  0
 29 33  1  0  0  0  0
 29 28  2  0  0  0  0
 30 29  1  0  0  0  0
 31 25  1  0  0  0  0
 32 26  1  0  0  0  0
 33 35  1  0  0  0  0
 33 36  1  0  0  0  0
 34 33  1  0  0  0  0
 36 37  1  0  0  0  0
 36 39  1  0  0  0  0
 38 36  1  0  0  0  0
 39 46  2  0  0  0  0
 39 40  1  0  0  0  0
 40 42  2  0  0  0  0
 41 40  1  0  0  0  0
 42 44  1  0  0  0  0
 42 43  1  0  0  0  0
 45 44  2  0  0  0  0
 46 45  1  0  0  0  0
M  END
>  <minimizedAffinity>
-6.72806072

$$$$

 OpenBabel03272509363D

 46 50  0  0  1  0  0  0  0  0999 V2000
   37.5830   26.2820   35.6510 C   0  0  1  0  0  0  0  0  0  0  0  0
   38.5580   27.3890   35.4900 C   0  0  0  0  0  0  0  0  0  0  0  0
   38.0890   26.8250   34.2410 C   0  0  2  0  0  0  0  0  0  0  0  0
   36.5070   26.4140   35.7870 H   0  0  0  0  0  0  0  0  0  0  0  0
   38.2130   28.2630   36.0530 H   0  0  0  0  0  0  0  0  0  0  0  0
   39.6190   27.1090   35.8000 H   0  0  0  0  0  0  0  0  0  0  0  0
   38.4190   25.9710   33.6630 H   0  0  0  0  0  0  0  0  0  0  0  0
   37.1780   27.7840   33.5290 C   0  0  0  0  0  0  0  0  0  0  0  0
   36.3120   28.3910   34.4320 C   0  0  0  0  0  0  0  0  0  0  0  0
   35.4630   29.3860   34.0160 C   0  0  0  0  0  0  0  0  0  0  0  0
   35.4540   29.8070   32.6780 C   0  0  0  0  0  0  0  0  0  0  0  0
   36.3260   29.1850   31.8070 C   0  0  0  0  0  0  0  0  0  0  0  0
   36.3980   29.5060   30.4810 C   0  0  0  0  0  0  0  0  0  0  0  0
   37.2580   28.8830   29.5910 C   0  0  0  0  0  0  0  0  0  0  0  0
   38.0910   27.8840   30.0690 C   0  0  0  0  0  0  0  0  0  0  0  0
   38.0200   27.5610   31.4060 C   0  0  0  0  0  0  0  0  0  0  0  0
   37.1440   28.2110   32.2570 C   0  0  0  0  0  0  0  0  0  0  0  0
   36.0960   28.3140   35.4780 H   0  0  0  0  0  0  0  0  0  0  0  0
   34.7320   29.9620   34.5660 H   0  0  0  0  0  0  0  0  0  0  0  0
   34.8430   30.5760   32.2120 H   0  0  0  0  0  0  0  0  0  0  0  0
   35.7700   30.2770   30.0580 H   0  0  0  0  0  0  0  0  0  0  0  0
   37.3070   29.1450   28.5400 H   0  0  0  0  0  0  0  0  0  0  0  0
   38.7930   27.3420   29.4510 H   0  0  0  0  0  0  0  0  0  0  0  0
   38.6870   26.7640   31.7770 H   0  0  0  0  0  0  0  0  0  0  0  0
   38.8290   23.2350   37.4970 C   0  0  0  0  0  0  0  0  0  0  0  0
   38.2850   24.5350   37.2430 C   0  0  0  0  0  0  0  0  0  0  0  0
   38.1310   24.9340   35.9450 C   0  0  0  0  0  0  0  0  0  0  0  0
   38.5180   24.0350   34.9640 N   0  0  0  0  0  0  0  0  0  0  0  0
   39.0240   22.8230   35.2270 C   0  0  0  0  0  0  0  0  0  0  0  0
   39.1880   22.4040   36.4870 N   0  0  0  0  0  0  0  0  0  0  0  0
   38.9180   22.9980   38.5320 H   0  0  0  0  0  0  0  0  0  0  0  0
   38.0090   25.1740   38.0500 H   0  0  0  0  0  0  0  0  0  0  0  0
   39.4100   21.9940   34.0480 C   0  0  0  0  0  0  0  0  0  0  0  0
   40.4730   22.1520   33.8050 H   0  0  0  0  0  0  0  0  0  0  0  0
   39.1740   20.9330   34.2530 H   0  0  0  0  0  0  0  0  0  0  0  0
   38.5710   22.4530   32.8450 C   0  0  0  0  0  0  0  0  0  0  0  0
   38.3170   23.5410   32.9740 H   0  0  0  0  0  0  0  0  0  0  0  0
   39.1700   22.4150   31.9230 H   0  0  0  0  0  0  0  0  0  0  0  0
   37.2920   21.7250   32.7890 C   0  0  0  0  0  0  0  0  0  0  0  0
   36.7230   21.9030   31.5270 C   0  0  0  0  0  0  0  0  0  0  0  0
   37.1280   22.4820   30.6910 H   0  0  0  0  0  0  0  0  0  0  0  0
   35.5050   21.3510   31.1160 C   0  0  0  0  0  0  0  0  0  0  0  0
   35.0470   21.4720   30.1570 H   0  0  0  0  0  0  0  0  0  0  0  0
   34.7970   20.5670   32.0200 C   0  0  0  0  0  3  0  0  0  0  0  0
   35.3870   20.4160   33.2460 C   0  0  0  0  0  3  0  0  0  0  0  0
   36.5470   20.9630   33.5860 N   0  0  0  0  0  0  0  0  0  0  0  0
  1  4  1  1  0  0  0
  1 27  1  0  0  0  0
  2  1  1  0  0  0  0
  2  6  1  0  0  0  0
  2  5  1  0  0  0  0
  3  7  1  6  0  0  0
  3  2  1  0  0  0  0
  3  1  1  0  0  0  0
  8  3  1  0  0  0  0
  8  9  1  0  0  0  0
  9 18  1  0  0  0  0
 10  9  2  0  0  0  0
 10 19  1  0  0  0  0
 11 10  1  0  0  0  0
 12 17  1  0  0  0  0
 12 11  2  0  0  0  0
 13 12  1  0  0  0  0
 14 15  1  0  0  0  0
 14 13  2  0  0  0  0
 15 16  2  0  0  0  0
 16 24  1  0  0  0  0
 16 17  1  0  0  0  0
 17  8  2  0  0  0  0
 20 11  1  0  0  0  0
 21 13  1  0  0  0  0
 22 14  1  0  0  0  0
 23 15  1  0  0  0  0
 25 31  1  0  0  0  0
 26 25  1  0  0  0  0
 26 32  1  0  0  0  0
 27 26  2  0  0  0  0
 28 29  2  0  0  0  0
 28 27  1  0  0  0  0
 29 30  1  0  0  0  0
 30 25  2  0  0  0  0
 33 35  1  0  0  0  0
 33 29  1  0  0  0  0
 34 33  1  0  0  0  0
 36 37  1  0  0  0  0
 36 33  1  0  0  0  0
 38 36  1  0  0  0  0
 39 36  1  0  0  0  0
 39 46  1  0  0  0  0
 40 39  2  0  0  0  0
 41 40  1  0  0  0  0
 42 40  1  0  0  0  0
 42 44  2  0  0  0  0
 43 42  1  0  0  0  0
 44 45  1  0  0  0  0
 45 46  2  0  0  0  0
M  END
>  <minimizedAffinity>
-6.72339439

$$$$

 OpenBabel03272509363D

 46 50  0  0  1  0  0  0  0  0999 V2000
   36.1000   29.0630   33.1160 C   0  0  1  0  0  0  0  0  0  0  0  0
   34.8010   29.6020   32.6430 C   0  0  0  0  0  0  0  0  0  0  0  0
   34.7720   29.0840   33.9950 C   0  0  2  0  0  0  0  0  0  0  0  0
   36.9010   29.6620   33.5560 H   0  0  0  0  0  0  0  0  0  0  0  0
   34.9440   30.6230   32.2720 H   0  0  0  0  0  0  0  0  0  0  0  0
   34.3040   28.9550   31.8460 H   0  0  0  0  0  0  0  0  0  0  0  0
   34.6240   28.0850   34.3850 H   0  0  0  0  0  0  0  0  0  0  0  0
   34.6500   30.1990   34.9940 C   0  0  0  0  0  0  0  0  0  0  0  0
   35.8850   30.8040   35.1990 C   0  0  0  0  0  0  0  0  0  0  0  0
   35.9880   31.9190   35.9920 C   0  0  0  0  0  0  0  0  0  0  0  0
   34.8530   32.4670   36.6060 C   0  0  0  0  0  0  0  0  0  0  0  0
   33.6410   31.8450   36.3830 C   0  0  0  0  0  0  0  0  0  0  0  0
   32.4730   32.2850   36.9360 C   0  0  0  0  0  0  0  0  0  0  0  0
   31.2510   31.6640   36.7310 C   0  0  0  0  0  0  0  0  0  0  0  0
   31.2090   30.5410   35.9220 C   0  0  0  0  0  0  0  0  0  0  0  0
   32.3870   30.0970   35.3620 C   0  0  0  0  0  0  0  0  0  0  0  0
   33.5840   30.7500   35.5960 C   0  0  0  0  0  0  0  0  0  0  0  0
   36.8940   30.6470   34.8740 H   0  0  0  0  0  0  0  0  0  0  0  0
   36.8500   32.5120   36.2620 H   0  0  0  0  0  0  0  0  0  0  0  0
   34.7860   33.3400   37.2530 H   0  0  0  0  0  0  0  0  0  0  0  0
   32.4510   33.1570   37.5750 H   0  0  0  0  0  0  0  0  0  0  0  0
   30.3290   32.0220   37.1760 H   0  0  0  0  0  0  0  0  0  0  0  0
   30.3040   29.9910   35.7060 H   0  0  0  0  0  0  0  0  0  0  0  0
   32.3440   29.2010   34.7190 H   0  0  0  0  0  0  0  0  0  0  0  0
   36.1800   25.7850   31.2460 C   0  0  0  0  0  0  0  0  0  0  0  0
   35.8270   27.1220   31.6200 C   0  0  0  0  0  0  0  0  0  0  0  0
   36.4550   27.6830   32.6960 C   0  0  0  0  0  0  0  0  0  0  0  0
   37.3970   26.9030   33.3490 N   0  0  0  0  0  0  0  0  0  0  0  0
   37.7090   25.6550   32.9790 C   0  0  0  0  0  0  0  0  0  0  0  0
   37.1120   25.0770   31.9300 N   0  0  0  0  0  0  0  0  0  0  0  0
   35.6470   25.4190   30.3980 H   0  0  0  0  0  0  0  0  0  0  0  0
   35.0920   27.6620   31.0700 H   0  0  0  0  0  0  0  0  0  0  0  0
   38.7290   24.9510   33.8110 C   0  0  0  0  0  0  0  0  0  0  0  0
   39.5750   24.6310   33.1820 H   0  0  0  0  0  0  0  0  0  0  0  0
   39.0430   25.6120   34.6410 H   0  0  0  0  0  0  0  0  0  0  0  0
   38.0750   23.6970   34.4110 C   0  0  0  0  0  0  0  0  0  0  0  0
   36.9800   23.7020   34.1560 H   0  0  0  0  0  0  0  0  0  0  0  0
   38.4690   22.7910   33.9280 H   0  0  0  0  0  0  0  0  0  0  0  0
   38.1660   23.7100   35.8810 C   0  0  0  0  0  0  0  0  0  0  0  0
   39.3330   23.0510   36.2700 C   0  0  0  0  0  0  0  0  0  0  0  0
   40.0820   22.5860   35.6210 H   0  0  0  0  0  0  0  0  0  0  0  0
   39.7450   22.8740   37.5950 C   0  0  0  0  0  0  0  0  0  0  0  0
   40.6330   22.3740   37.9200 H   0  0  0  0  0  0  0  0  0  0  0  0
   38.9430   23.3850   38.6100 C   0  0  0  0  0  3  0  0  0  0  0  0
   37.8090   24.0240   38.1890 C   0  0  0  0  0  3  0  0  0  0  0  0
   37.4620   24.1650   36.9160 N   0  0  0  0  0  0  0  0  0  0  0  0
  1  4  1  1  0  0  0
  1  3  1  0  0  0  0
  2  1  1  0  0  0  0
  2  3  1  0  0  0  0
  3  7  1  1  0  0  0
  3  8  1  0  0  0  0
  5  2  1  0  0  0  0
  6  2  1  0  0  0  0
  8  9  2  0  0  0  0
  8 17  1  0  0  0  0
  9 10  1  0  0  0  0
 10 19  1  0  0  0  0
 10 11  2  0  0  0  0
 11 20  1  0  0  0  0
 12 11  1  0  0  0  0
 12 13  1  0  0  0  0
 13 21  1  0  0  0  0
 14 13  2  0  0  0  0
 14 22  1  0  0  0  0
 15 14  1  0  0  0  0
 16 17  1  0  0  0  0
 16 15  2  0  0  0  0
 17 12  2  0  0  0  0
 18  9  1  0  0  0  0
 23 15  1  0  0  0  0
 24 16  1  0  0  0  0
 25 26  2  0  0  0  0
 25 30  1  0  0  0  0
 26 27  1  0  0  0  0
 27  1  1  0  0  0  0
 27 28  2  0  0  0  0
 29 28  1  0  0  0  0
 29 33  1  0  0  0  0
 30 29  2  0  0  0  0
 31 25  1  0  0  0  0
 32 26  1  0  0  0  0
 33 36  1  0  0  0  0
 33 35  1  0  0  0  0
 34 33  1  0  0  0  0
 36 39  1  0  0  0  0
 37 36  1  0  0  0  0
 38 36  1  0  0  0  0
 39 40  2  0  0  0  0
 39 46  1  0  0  0  0
 40 42  1  0  0  0  0
 41 40  1  0  0  0  0
 42 43  1  0  0  0  0
 42 44  2  0  0  0  0
 45 44  1  0  0  0  0
 46 45  2  0  0  0  0
M  END
>  <minimizedAffinity>
-6.66137791

$$$$

 OpenBabel03272509363D

 46 50  0  0  1  0  0  0  0  0999 V2000
   38.4410   26.3390   34.5290 C   0  0  1  0  0  0  0  0  0  0  0  0
   37.9120   26.9360   35.7800 C   0  0  0  0  0  0  0  0  0  0  0  0
   37.5790   25.5370   35.6020 C   0  0  2  0  0  0  0  0  0  0  0  0
   39.4460   25.9280   34.4100 H   0  0  0  0  0  0  0  0  0  0  0  0
   38.7310   27.4110   36.3310 H   0  0  0  0  0  0  0  0  0  0  0  0
   37.0650   27.6800   35.6060 H   0  0  0  0  0  0  0  0  0  0  0  0
   36.7730   25.0470   35.0720 H   0  0  0  0  0  0  0  0  0  0  0  0
   38.3460   24.6770   36.5670 C   0  0  0  0  0  0  0  0  0  0  0  0
   37.9000   24.8900   37.8670 C   0  0  0  0  0  0  0  0  0  0  0  0
   38.3860   24.1300   38.8990 C   0  0  0  0  0  0  0  0  0  0  0  0
   39.3380   23.1270   38.6640 C   0  0  0  0  0  0  0  0  0  0  0  0
   39.7600   22.9400   37.3630 C   0  0  0  0  0  0  0  0  0  0  0  0
   40.6880   22.0000   37.0160 C   0  0  0  0  0  0  0  0  0  0  0  0
   41.1310   21.8080   35.7180 C   0  0  0  0  0  0  0  0  0  0  0  0
   40.6050   22.6070   34.7160 C   0  0  0  0  0  0  0  0  0  0  0  0
   39.6670   23.5550   35.0640 C   0  0  0  0  0  0  0  0  0  0  0  0
   39.2560   23.7100   36.3760 C   0  0  0  0  0  0  0  0  0  0  0  0
   37.1990   25.5370   38.3550 H   0  0  0  0  0  0  0  0  0  0  0  0
   38.1610   24.1530   39.9560 H   0  0  0  0  0  0  0  0  0  0  0  0
   39.8060   22.4530   39.3780 H   0  0  0  0  0  0  0  0  0  0  0  0
   41.1300   21.3510   37.7600 H   0  0  0  0  0  0  0  0  0  0  0  0
   41.8700   21.0590   35.4540 H   0  0  0  0  0  0  0  0  0  0  0  0
   40.8900   22.5310   33.6760 H   0  0  0  0  0  0  0  0  0  0  0  0
   39.2540   24.1870   34.2600 H   0  0  0  0  0  0  0  0  0  0  0  0
   36.8420   28.0550   31.5720 C   0  0  0  0  0  0  0  0  0  0  0  0
   37.6030   27.8470   32.7660 C   0  0  0  0  0  0  0  0  0  0  0  0
   37.6700   26.5830   33.2830 C   0  0  0  0  0  0  0  0  0  0  0  0
   36.9860   25.5900   32.5990 N   0  0  0  0  0  0  0  0  0  0  0  0
   36.2800   25.8110   31.4830 C   0  0  0  0  0  0  0  0  0  0  0  0
   36.1950   27.0360   30.9520 N   0  0  0  0  0  0  0  0  0  0  0  0
   36.8380   29.0650   31.2320 H   0  0  0  0  0  0  0  0  0  0  0  0
   38.1040   28.6600   33.2380 H   0  0  0  0  0  0  0  0  0  0  0  0
   35.5870   24.6290   30.8920 C   0  0  0  0  0  0  0  0  0  0  0  0
   34.7400   24.3290   31.5290 H   0  0  0  0  0  0  0  0  0  0  0  0
   35.2770   24.8660   29.8570 H   0  0  0  0  0  0  0  0  0  0  0  0
   36.5870   23.4630   30.8420 C   0  0  0  0  0  0  0  0  0  0  0  0
   36.6940   23.1220   29.7760 H   0  0  0  0  0  0  0  0  0  0  0  0
   37.5930   23.8090   31.1250 H   0  0  0  0  0  0  0  0  0  0  0  0
   36.0860   22.3080   31.6060 C   0  0  0  0  0  0  0  0  0  0  0  0
   36.7940   22.2130   32.8040 C   0  0  0  0  0  0  0  0  0  0  0  0
   37.5980   22.8690   33.1540 H   0  0  0  0  0  0  0  0  0  0  0  0
   36.5830   21.2340   33.7810 C   0  0  0  0  0  0  0  0  0  0  0  0
   37.1110   21.1390   34.7060 H   0  0  0  0  0  0  0  0  0  0  0  0
   35.5990   20.2780   33.5550 C   0  0  0  0  0  3  0  0  0  0  0  0
   34.9260   20.4040   32.3700 C   0  0  0  0  0  3  0  0  0  0  0  0
   35.1670   21.3540   31.4750 N   0  0  0  0  0  0  0  0  0  0  0  0
  1  4  1  6  0  0  0
  1  3  1  0  0  0  0
  1  2  1  0  0  0  0
  2  5  1  0  0  0  0
  3  7  1  6  0  0  0
  3  2  1  0  0  0  0
  3  8  1  0  0  0  0
  6  2  1  0  0  0  0
  8  9  1  0  0  0  0
  9 18  1  0  0  0  0
  9 10  2  0  0  0  0
 10 19  1  0  0  0  0
 11 10  1  0  0  0  0
 11 20  1  0  0  0  0
 12 11  2  0  0  0  0
 13 12  1  0  0  0  0
 13 21  1  0  0  0  0
 14 13  2  0  0  0  0
 15 16  2  0  0  0  0
 15 14  1  0  0  0  0
 16 17  1  0  0  0  0
 17  8  2  0  0  0  0
 17 12  1  0  0  0  0
 22 14  1  0  0  0  0
 23 15  1  0  0  0  0
 24 16  1  0  0  0  0
 25 26  1  0  0  0  0
 26 32  1  0  0  0  0
 26 27  2  0  0  0  0
 27  1  1  0  0  0  0
 28 27  1  0  0  0  0
 29 28  2  0  0  0  0
 30 29  1  0  0  0  0
 30 25  2  0  0  0  0
 31 25  1  0  0  0  0
 33 29  1  0  0  0  0
 33 34  1  0  0  0  0
 35 33  1  0  0  0  0
 36 33  1  0  0  0  0
 36 38  1  0  0  0  0
 36 39  1  0  0  0  0
 37 36  1  0  0  0  0
 39 40  1  0  0  0  0
 40 41  1  0  0  0  0
 40 42  2  0  0  0  0
 42 43  1  0  0  0  0
 44 42  1  0  0  0  0
 45 44  2  0  0  0  0
 46 39  2  0  0  0  0
 46 45  1  0  0  0  0
M  END
>  <minimizedAffinity>
-6.64243221

$$$$

 OpenBabel03272509363D

 46 50  0  0  1  0  0  0  0  0999 V2000
   39.0680   26.7810   34.7520 C   0  0  1  0  0  0  0  0  0  0  0  0
   37.8130   26.8440   35.5410 C   0  0  0  0  0  0  0  0  0  0  0  0
   38.1750   25.5100   35.1070 C   0  0  2  0  0  0  0  0  0  0  0  0
   40.0710   26.7180   35.1800 H   0  0  0  0  0  0  0  0  0  0  0  0
   38.0040   27.3630   36.4870 H   0  0  0  0  0  0  0  0  0  0  0  0
   36.9490   27.3370   34.9830 H   0  0  0  0  0  0  0  0  0  0  0  0
   37.9900   24.9740   34.1850 H   0  0  0  0  0  0  0  0  0  0  0  0
   38.6330   24.6740   36.2680 C   0  0  0  0  0  0  0  0  0  0  0  0
   37.8460   24.9250   37.3870 C   0  0  0  0  0  0  0  0  0  0  0  0
   38.0180   24.1920   38.5330 C   0  0  0  0  0  0  0  0  0  0  0  0
   38.9860   23.1790   38.5970 C   0  0  0  0  0  0  0  0  0  0  0  0
   39.7510   22.9540   37.4700 C   0  0  0  0  0  0  0  0  0  0  0  0
   40.7280   22.0020   37.4200 C   0  0  0  0  0  0  0  0  0  0  0  0
   41.5120   21.7720   36.3010 C   0  0  0  0  0  0  0  0  0  0  0  0
   41.2950   22.5450   35.1730 C   0  0  0  0  0  0  0  0  0  0  0  0
   40.3070   23.5050   35.2220 C   0  0  0  0  0  0  0  0  0  0  0  0
   39.5490   23.6980   36.3630 C   0  0  0  0  0  0  0  0  0  0  0  0
   37.0450   25.5880   37.6440 H   0  0  0  0  0  0  0  0  0  0  0  0
   37.5080   24.2450   39.4850 H   0  0  0  0  0  0  0  0  0  0  0  0
   39.2290   22.5240   39.4310 H   0  0  0  0  0  0  0  0  0  0  0  0
   40.9380   21.3720   38.2730 H   0  0  0  0  0  0  0  0  0  0  0  0
   42.2860   21.0130   36.2730 H   0  0  0  0  0  0  0  0  0  0  0  0
   41.8560   22.4390   34.2550 H   0  0  0  0  0  0  0  0  0  0  0  0
   40.1410   24.1160   34.3180 H   0  0  0  0  0  0  0  0  0  0  0  0
   39.9760   27.3590   31.1350 C   0  0  0  0  0  0  0  0  0  0  0  0
   40.0870   27.0070   32.5180 C   0  0  0  0  0  0  0  0  0  0  0  0
   38.9800   27.1250   33.3100 C   0  0  0  0  0  0  0  0  0  0  0  0
   37.8200   27.5810   32.7020 N   0  0  0  0  0  0  0  0  0  0  0  0
   37.7420   27.9040   31.4050 C   0  0  0  0  0  0  0  0  0  0  0  0
   38.8080   27.8000   30.6040 N   0  0  0  0  0  0  0  0  0  0  0  0
   40.8810   27.2400   30.5850 H   0  0  0  0  0  0  0  0  0  0  0  0
   41.0130   26.6630   32.9170 H   0  0  0  0  0  0  0  0  0  0  0  0
   36.4200   28.4010   30.9230 C   0  0  0  0  0  0  0  0  0  0  0  0
   36.4280   28.4940   29.8260 H   0  0  0  0  0  0  0  0  0  0  0  0
   35.6210   27.7290   31.2870 H   0  0  0  0  0  0  0  0  0  0  0  0
   36.1880   29.7970   31.5210 C   0  0  0  0  0  0  0  0  0  0  0  0
   37.1170   30.1180   32.0670 H   0  0  0  0  0  0  0  0  0  0  0  0
   36.0650   30.5420   30.7200 H   0  0  0  0  0  0  0  0  0  0  0  0
   35.1030   29.7680   32.5170 C   0  0  0  0  0  0  0  0  0  0  0  0
   35.5630   30.3340   33.7070 C   0  0  0  0  0  0  0  0  0  0  0  0
   36.5600   30.7410   33.9080 H   0  0  0  0  0  0  0  0  0  0  0  0
   34.8000   30.4750   34.8710 C   0  0  0  0  0  0  0  0  0  0  0  0
   35.1280   30.9040   35.7950 H   0  0  0  0  0  0  0  0  0  0  0  0
   33.4850   30.0220   34.8570 C   0  0  0  0  0  3  0  0  0  0  0  0
   33.0710   29.4750   33.6730 C   0  0  0  0  0  3  0  0  0  0  0  0
   33.8380   29.3630   32.5960 N   0  0  0  0  0  0  0  0  0  0  0  0
  1  3  1  0  0  0  0
  1  4  1  1  0  0  0
  1  2  1  0  0  0  0
  2  5  1  0  0  0  0
  3  7  1  6  0  0  0
  3  2  1  0  0  0  0
  3  8  1  0  0  0  0
  6  2  1  0  0  0  0
  8 17  2  0  0  0  0
  8  9  1  0  0  0  0
  9 18  1  0  0  0  0
  9 10  2  0  0  0  0
 10 11  1  0  0  0  0
 10 19  1  0  0  0  0
 11 20  1  0  0  0  0
 12 11  2  0  0  0  0
 13 12  1  0  0  0  0
 13 21  1  0  0  0  0
 14 13  2  0  0  0  0
 15 16  2  0  0  0  0
 15 14  1  0  0  0  0
 16 17  1  0  0  0  0
 17 12  1  0  0  0  0
 22 14  1  0  0  0  0
 23 15  1  0  0  0  0
 24 16  1  0  0  0  0
 25 26  1  0  0  0  0
 26 32  1  0  0  0  0
 26 27  2  0  0  0  0
 27  1  1  0  0  0  0
 28 27  1  0  0  0  0
 29 28  2  0  0  0  0
 30 25  2  0  0  0  0
 30 29  1  0  0  0  0
 31 25  1  0  0  0  0
 33 35  1  0  0  0  0
 33 29  1  0  0  0  0
 33 36  1  0  0  0  0
 34 33  1  0  0  0  0
 36 37  1  0  0  0  0
 36 39  1  0  0  0  0
 38 36  1  0  0  0  0
 39 46  2  0  0  0  0
 39 40  1  0  0  0  0
 40 41  1  0  0  0  0
 40 42  2  0  0  0  0
 42 43  1  0  0  0  0
 44 42  1  0  0  0  0
 45 44  2  0  0  0  0
 46 45  1  0  0  0  0
M  END
>  <minimizedAffinity>
-6.581357

$$$$

 OpenBabel03272509363D

 46 50  0  0  1  0  0  0  0  0999 V2000
   37.7970   24.3680   33.0920 C   0  0  1  0  0  0  0  0  0  0  0  0
   39.0800   23.9920   32.4480 C   0  0  0  0  0  0  0  0  0  0  0  0
   39.2310   24.7220   33.6900 C   0  0  2  0  0  0  0  0  0  0  0  0
   37.2180   23.7200   33.7540 H   0  0  0  0  0  0  0  0  0  0  0  0
   39.0840   22.9150   32.2470 H   0  0  0  0  0  0  0  0  0  0  0  0
   39.2970   24.5760   31.4920 H   0  0  0  0  0  0  0  0  0  0  0  0
   39.2400   25.7810   33.9110 H   0  0  0  0  0  0  0  0  0  0  0  0
   39.7410   23.8230   34.7800 C   0  0  0  0  0  0  0  0  0  0  0  0
   40.8140   23.0660   34.3230 C   0  0  0  0  0  0  0  0  0  0  0  0
   41.5060   22.2540   35.1850 C   0  0  0  0  0  0  0  0  0  0  0  0
   41.1450   22.1720   36.5380 C   0  0  0  0  0  0  0  0  0  0  0  0
   40.0760   22.9360   36.9610 C   0  0  0  0  0  0  0  0  0  0  0  0
   39.6300   22.9290   38.2520 C   0  0  0  0  0  0  0  0  0  0  0  0
   38.5510   23.6800   38.6890 C   0  0  0  0  0  0  0  0  0  0  0  0
   37.8890   24.4820   37.7730 C   0  0  0  0  0  0  0  0  0  0  0  0
   38.3400   24.4900   36.4700 C   0  0  0  0  0  0  0  0  0  0  0  0
   39.4220   23.7220   36.0800 C   0  0  0  0  0  0  0  0  0  0  0  0
   41.3290   22.9240   33.3950 H   0  0  0  0  0  0  0  0  0  0  0  0
   42.3520   21.6030   35.0120 H   0  0  0  0  0  0  0  0  0  0  0  0
   41.5990   21.5770   37.3270 H   0  0  0  0  0  0  0  0  0  0  0  0
   40.1100   22.3220   39.0060 H   0  0  0  0  0  0  0  0  0  0  0  0
   38.2040   23.6680   39.7170 H   0  0  0  0  0  0  0  0  0  0  0  0
   37.0390   25.1010   38.0210 H   0  0  0  0  0  0  0  0  0  0  0  0
   37.8070   25.1310   35.7480 H   0  0  0  0  0  0  0  0  0  0  0  0
   36.0280   26.7930   30.8040 C   0  0  0  0  0  0  0  0  0  0  0  0
   36.6770   25.6090   31.2790 C   0  0  0  0  0  0  0  0  0  0  0  0
   37.1080   25.5780   32.5750 C   0  0  0  0  0  0  0  0  0  0  0  0
   36.8790   26.7120   33.3390 N   0  0  0  0  0  0  0  0  0  0  0  0
   36.2690   27.8090   32.8710 C   0  0  0  0  0  0  0  0  0  0  0  0
   35.8360   27.8700   31.6070 N   0  0  0  0  0  0  0  0  0  0  0  0
   35.7220   26.7390   29.7850 H   0  0  0  0  0  0  0  0  0  0  0  0
   36.8200   24.7730   30.6340 H   0  0  0  0  0  0  0  0  0  0  0  0
   36.1260   28.9470   33.8250 C   0  0  0  0  0  0  0  0  0  0  0  0
   36.5210   28.6640   34.8140 H   0  0  0  0  0  0  0  0  0  0  0  0
   36.6280   29.8400   33.4070 H   0  0  0  0  0  0  0  0  0  0  0  0
   34.6300   29.2600   33.9770 C   0  0  0  0  0  0  0  0  0  0  0  0
   34.2510   29.6980   33.0130 H   0  0  0  0  0  0  0  0  0  0  0  0
   34.0550   28.3300   34.1040 H   0  0  0  0  0  0  0  0  0  0  0  0
   34.4080   30.2770   35.0180 C   0  0  0  0  0  0  0  0  0  0  0  0
   35.6150   30.9240   35.2860 C   0  0  0  0  0  0  0  0  0  0  0  0
   36.5890   30.7350   34.8210 H   0  0  0  0  0  0  0  0  0  0  0  0
   35.7800   31.9520   36.2210 C   0  0  0  0  0  0  0  0  0  0  0  0
   36.6930   32.4640   36.4450 H   0  0  0  0  0  0  0  0  0  0  0  0
   34.6690   32.3690   36.9450 C   0  0  0  0  0  3  0  0  0  0  0  0
   33.5050   31.7120   36.6550 C   0  0  0  0  0  3  0  0  0  0  0  0
   33.4020   30.7410   35.7560 N   0  0  0  0  0  0  0  0  0  0  0  0
  1  3  1  0  0  0  0
  1  4  1  1  0  0  0
  2  1  1  0  0  0  0
  2  3  1  0  0  0  0
  3  7  1  6  0  0  0
  3  8  1  0  0  0  0
  5  2  1  0  0  0  0
  6  2  1  0  0  0  0
  8 17  1  0  0  0  0
  9  8  2  0  0  0  0
  9 10  1  0  0  0  0
 10 11  2  0  0  0  0
 11 12  1  0  0  0  0
 11 20  1  0  0  0  0
 12 13  1  0  0  0  0
 13 14  2  0  0  0  0
 13 21  1  0  0  0  0
 14 22  1  0  0  0  0
 15 23  1  0  0  0  0
 15 14  1  0  0  0  0
 16 15  2  0  0  0  0
 17 16  1  0  0  0  0
 17 12  2  0  0  0  0
 18  9  1  0  0  0  0
 19 10  1  0  0  0  0
 24 16  1  0  0  0  0
 25 26  2  0  0  0  0
 25 30  1  0  0  0  0
 26 27  1  0  0  0  0
 27  1  1  0  0  0  0
 27 28  2  0  0  0  0
 29 28  1  0  0  0  0
 29 33  1  0  0  0  0
 30 29  2  0  0  0  0
 31 25  1  0  0  0  0
 32 26  1  0  0  0  0
 33 36  1  0  0  0  0
 33 34  1  0  0  0  0
 35 33  1  0  0  0  0
 36 38  1  0  0  0  0
 36 39  1  0  0  0  0
 37 36  1  0  0  0  0
 39 40  2  0  0  0  0
 39 46  1  0  0  0  0
 40 42  1  0  0  0  0
 41 40  1  0  0  0  0
 42 43  1  0  0  0  0
 42 44  2  0  0  0  0
 45 44  1  0  0  0  0
 46 45  2  0  0  0  0
M  END
>  <minimizedAffinity>
-6.48359346

$$$$

 OpenBabel03272509363D

 46 50  0  0  1  0  0  0  0  0999 V2000
   37.8050   27.4570   34.1550 C   0  0  1  0  0  0  0  0  0  0  0  0
   38.1110   27.4790   35.6060 C   0  0  0  0  0  0  0  0  0  0  0  0
   37.4050   26.2930   35.1660 C   0  0  2  0  0  0  0  0  0  0  0  0
   38.4930   27.1160   33.3770 H   0  0  0  0  0  0  0  0  0  0  0  0
   39.1820   27.6620   35.7500 H   0  0  0  0  0  0  0  0  0  0  0  0
   37.4950   28.2430   36.1890 H   0  0  0  0  0  0  0  0  0  0  0  0
   36.3520   26.0870   35.0260 H   0  0  0  0  0  0  0  0  0  0  0  0
   38.3080   25.0920   35.1930 C   0  0  0  0  0  0  0  0  0  0  0  0
   38.8620   24.8750   33.9360 C   0  0  0  0  0  0  0  0  0  0  0  0
   39.8040   23.8940   33.7550 C   0  0  0  0  0  0  0  0  0  0  0  0
   40.2230   23.0960   34.8290 C   0  0  0  0  0  0  0  0  0  0  0  0
   39.6550   23.3380   36.0640 C   0  0  0  0  0  0  0  0  0  0  0  0
   39.9790   22.6180   37.1790 C   0  0  0  0  0  0  0  0  0  0  0  0
   39.4090   22.8400   38.4220 C   0  0  0  0  0  0  0  0  0  0  0  0
   38.4620   23.8430   38.5440 C   0  0  0  0  0  0  0  0  0  0  0  0
   38.1360   24.5710   37.4200 C   0  0  0  0  0  0  0  0  0  0  0  0
   38.7320   24.3130   36.1990 C   0  0  0  0  0  0  0  0  0  0  0  0
   38.7720   25.3040   32.9590 H   0  0  0  0  0  0  0  0  0  0  0  0
   40.3350   23.5850   32.8650 H   0  0  0  0  0  0  0  0  0  0  0  0
   40.9550   22.2910   34.8330 H   0  0  0  0  0  0  0  0  0  0  0  0
   40.7120   21.8240   37.1380 H   0  0  0  0  0  0  0  0  0  0  0  0
   39.6740   22.2620   39.3010 H   0  0  0  0  0  0  0  0  0  0  0  0
   37.9640   24.0880   39.4720 H   0  0  0  0  0  0  0  0  0  0  0  0
   37.3800   25.3680   37.5280 H   0  0  0  0  0  0  0  0  0  0  0  0
   34.9530   28.7430   32.0440 C   0  0  0  0  0  0  0  0  0  0  0  0
   36.0930   27.9840   32.4600 C   0  0  0  0  0  0  0  0  0  0  0  0
   36.6140   28.2190   33.7010 C   0  0  0  0  0  0  0  0  0  0  0  0
   35.9880   29.1880   34.4700 N   0  0  0  0  0  0  0  0  0  0  0  0
   34.9210   29.8850   34.0570 C   0  0  0  0  0  0  0  0  0  0  0  0
   34.3880   29.6780   32.8480 N   0  0  0  0  0  0  0  0  0  0  0  0
   34.6060   28.5020   31.0660 H   0  0  0  0  0  0  0  0  0  0  0  0
   36.5230   27.2540   31.8140 H   0  0  0  0  0  0  0  0  0  0  0  0
   34.3890   30.9070   35.0060 C   0  0  0  0  0  0  0  0  0  0  0  0
   34.0560   31.8000   34.4540 H   0  0  0  0  0  0  0  0  0  0  0  0
   33.5810   30.4570   35.6130 H   0  0  0  0  0  0  0  0  0  0  0  0
   35.5280   31.3230   35.9490 C   0  0  0  0  0  0  0  0  0  0  0  0
   35.2780   30.9840   36.9920 H   0  0  0  0  0  0  0  0  0  0  0  0
   36.4530   30.7830   35.6950 H   0  0  0  0  0  0  0  0  0  0  0  0
   35.6570   32.7890   36.0020 C   0  0  0  0  0  0  0  0  0  0  0  0
   36.7820   33.1740   35.2710 C   0  0  0  0  0  0  0  0  0  0  0  0
   37.4800   32.5230   34.7340 H   0  0  0  0  0  0  0  0  0  0  0  0
   37.2110   34.4940   35.1020 C   0  0  0  0  0  0  0  0  0  0  0  0
   38.0680   34.8160   34.5480 H   0  0  0  0  0  0  0  0  0  0  0  0
   36.4740   35.5090   35.7020 C   0  0  0  0  0  3  0  0  0  0  0  0
   35.3790   35.0940   36.4090 C   0  0  0  0  0  3  0  0  0  0  0  0
   35.0150   33.8240   36.5390 N   0  0  0  0  0  0  0  0  0  0  0  0
  1  4  1  6  0  0  0
  1  3  1  0  0  0  0
  1  2  1  0  0  0  0
  2  5  1  0  0  0  0
  2  6  1  0  0  0  0
  3  7  1  1  0  0  0
  3  8  1  0  0  0  0
  3  2  1  0  0  0  0
  8 17  1  0  0  0  0
  9  8  2  0  0  0  0
 10  9  1  0  0  0  0
 10 11  2  0  0  0  0
 11 20  1  0  0  0  0
 11 12  1  0  0  0  0
 12 17  2  0  0  0  0
 12 13  1  0  0  0  0
 13 14  2  0  0  0  0
 14 15  1  0  0  0  0
 14 22  1  0  0  0  0
 15 23  1  0  0  0  0
 16 24  1  0  0  0  0
 16 15  2  0  0  0  0
 17 16  1  0  0  0  0
 18  9  1  0  0  0  0
 19 10  1  0  0  0  0
 21 13  1  0  0  0  0
 25 26  2  0  0  0  0
 25 30  1  0  0  0  0
 26 27  1  0  0  0  0
 27  1  1  0  0  0  0
 27 28  2  0  0  0  0
 29 28  1  0  0  0  0
 29 33  1  0  0  0  0
 30 29  2  0  0  0  0
 31 25  1  0  0  0  0
 32 26  1  0  0  0  0
 33 35  1  0  0  0  0
 33 36  1  0  0  0  0
 34 33  1  0  0  0  0
 36 39  1  0  0  0  0
 36 37  1  0  0  0  0
 38 36  1  0  0  0  0
 39 46  1  0  0  0  0
 40 39  2  0  0  0  0
 41 40  1  0  0  0  0
 42 40  1  0  0  0  0
 42 44  2  0  0  0  0
 43 42  1  0  0  0  0
 44 45  1  0  0  0  0
 45 46  2  0  0  0  0
M  END
>  <minimizedAffinity>
-6.46830082

$$$$

 OpenBabel03272509363D

 46 50  0  0  1  0  0  0  0  0999 V2000
   38.9960   26.8650   33.2970 C   0  0  1  0  0  0  0  0  0  0  0  0
   38.8770   27.2180   34.7330 C   0  0  0  0  0  0  0  0  0  0  0  0
   38.2230   25.9780   34.3710 C   0  0  2  0  0  0  0  0  0  0  0  0
   39.8430   26.3380   32.8520 H   0  0  0  0  0  0  0  0  0  0  0  0
   39.8750   27.4060   35.1450 H   0  0  0  0  0  0  0  0  0  0  0  0
   38.1920   28.1090   34.9270 H   0  0  0  0  0  0  0  0  0  0  0  0
   37.2390   25.7680   33.9720 H   0  0  0  0  0  0  0  0  0  0  0  0
   38.9700   24.7970   34.9230 C   0  0  0  0  0  0  0  0  0  0  0  0
   39.8560   24.2970   33.9750 C   0  0  0  0  0  0  0  0  0  0  0  0
   40.7210   23.2840   34.3010 C   0  0  0  0  0  0  0  0  0  0  0  0
   40.7280   22.7370   35.5930 C   0  0  0  0  0  0  0  0  0  0  0  0
   39.8380   23.2550   36.5110 C   0  0  0  0  0  0  0  0  0  0  0  0
   39.7500   22.7950   37.7940 C   0  0  0  0  0  0  0  0  0  0  0  0
   38.8530   23.2960   38.7240 C   0  0  0  0  0  0  0  0  0  0  0  0
   38.0030   24.3180   38.3360 C   0  0  0  0  0  0  0  0  0  0  0  0
   38.0920   24.7840   37.0430 C   0  0  0  0  0  0  0  0  0  0  0  0
   39.0040   24.2520   36.1490 C   0  0  0  0  0  0  0  0  0  0  0  0
   40.1000   24.5000   32.9520 H   0  0  0  0  0  0  0  0  0  0  0  0
   41.4660   22.7760   33.7050 H   0  0  0  0  0  0  0  0  0  0  0  0
   41.3530   21.9390   35.9890 H   0  0  0  0  0  0  0  0  0  0  0  0
   40.3900   21.9990   38.1470 H   0  0  0  0  0  0  0  0  0  0  0  0
   38.7910   22.9220   39.7400 H   0  0  0  0  0  0  0  0  0  0  0  0
   37.2710   24.7710   38.9910 H   0  0  0  0  0  0  0  0  0  0  0  0
   37.4110   25.5990   36.7430 H   0  0  0  0  0  0  0  0  0  0  0  0
   37.3790   28.1320   30.1300 C   0  0  0  0  0  0  0  0  0  0  0  0
   38.2950   27.4740   31.0120 C   0  0  0  0  0  0  0  0  0  0  0  0
   38.0560   27.5260   32.3560 C   0  0  0  0  0  0  0  0  0  0  0  0
   36.9280   28.2210   32.7650 N   0  0  0  0  0  0  0  0  0  0  0  0
   36.0850   28.8280   31.9190 C   0  0  0  0  0  0  0  0  0  0  0  0
   36.2930   28.7960   30.5980 N   0  0  0  0  0  0  0  0  0  0  0  0
   37.6350   28.0470   29.0990 H   0  0  0  0  0  0  0  0  0  0  0  0
   39.1440   26.9580   30.6260 H   0  0  0  0  0  0  0  0  0  0  0  0
   34.9340   29.5520   32.5340 C   0  0  0  0  0  0  0  0  0  0  0  0
   34.0100   29.3390   31.9730 H   0  0  0  0  0  0  0  0  0  0  0  0
   34.8560   29.2750   33.6020 H   0  0  0  0  0  0  0  0  0  0  0  0
   35.2140   31.0600   32.4450 C   0  0  0  0  0  0  0  0  0  0  0  0
   36.3000   31.2140   32.2000 H   0  0  0  0  0  0  0  0  0  0  0  0
   34.6720   31.5000   31.5940 H   0  0  0  0  0  0  0  0  0  0  0  0
   34.9770   31.7160   33.7420 C   0  0  0  0  0  0  0  0  0  0  0  0
   35.7450   31.0820   34.7190 C   0  0  0  0  0  0  0  0  0  0  0  0
   36.4220   30.2320   34.5840 H   0  0  0  0  0  0  0  0  0  0  0  0
   35.7720   31.4420   36.0710 C   0  0  0  0  0  0  0  0  0  0  0  0
   36.3510   30.9730   36.8390 H   0  0  0  0  0  0  0  0  0  0  0  0
   34.9820   32.5070   36.4860 C   0  0  0  0  0  3  0  0  0  0  0  0
   34.2440   33.1040   35.4990 C   0  0  0  0  0  3  0  0  0  0  0  0
   34.2540   32.7220   34.2290 N   0  0  0  0  0  0  0  0  0  0  0  0
  1  4  1  6  0  0  0
  1  3  1  0  0  0  0
  1  2  1  0  0  0  0
  2  6  1  0  0  0  0
  2  5  1  0  0  0  0
  3  7  1  6  0  0  0
  3  2  1  0  0  0  0
  3  8  1  0  0  0  0
  8 17  1  0  0  0  0
  9 10  1  0  0  0  0
  9  8  2  0  0  0  0
 10 11  2  0  0  0  0
 11 20  1  0  0  0  0
 11 12  1  0  0  0  0
 12 13  1  0  0  0  0
 13 21  1  0  0  0  0
 13 14  2  0  0  0  0
 14 22  1  0  0  0  0
 15 14  1  0  0  0  0
 15 23  1  0  0  0  0
 16 15  2  0  0  0  0
 17 12  2  0  0  0  0
 17 16  1  0  0  0  0
 18  9  1  0  0  0  0
 19 10  1  0  0  0  0
 24 16  1  0  0  0  0
 25 30  2  0  0  0  0
 25 26  1  0  0  0  0
 26 27  2  0  0  0  0
 27 28  1  0  0  0  0
 27  1  1  0  0  0  0
 29 33  1  0  0  0  0
 29 28  2  0  0  0  0
 30 29  1  0  0  0  0
 31 25  1  0  0  0  0
 32 26  1  0  0  0  0
 33 35  1  0  0  0  0
 34 33  1  0  0  0  0
 36 33  1  0  0  0  0
 36 39  1  0  0  0  0
 37 36  1  0  0  0  0
 38 36  1  0  0  0  0
 39 46  2  0  0  0  0
 39 40  1  0  0  0  0
 40 42  2  0  0  0  0
 41 40  1  0  0  0  0
 42 44  1  0  0  0  0
 42 43  1  0  0  0  0
 45 44  2  0  0  0  0
 46 45  1  0  0  0  0
M  END
>  <minimizedAffinity>
-6.44604588

$$$$
