
 OpenBabel03272509573D

 45 48  0  0  0  0  0  0  0  0999 V2000
   34.4440   28.6720   48.1500 C   0  0  0  0  0  0  0  0  0  0  0  0
   33.9460   29.6600   48.1430 H   0  0  0  0  0  0  0  0  0  0  0  0
   35.3340   28.7780   47.4800 H   0  0  0  0  0  0  0  0  0  0  0  0
   33.5620   27.5790   47.6460 C   0  0  0  0  0  0  0  0  0  0  0  0
   33.7490   27.4460   46.5480 H   0  0  0  0  0  0  0  0  0  0  0  0
   33.7470   26.6270   48.1540 H   0  0  0  0  0  0  0  0  0  0  0  0
   32.1140   27.9070   47.7500 C   0  0  0  0  0  0  0  0  0  0  0  0
   31.4300   27.4500   48.8640 C   0  0  0  0  0  0  0  0  0  0  0  0
   30.0970   27.6970   49.0530 C   0  0  0  0  0  0  0  0  0  0  0  0
   29.4400   28.3950   48.1390 N   0  0  0  0  0  0  0  0  0  0  0  0
   30.1070   28.8480   47.0380 C   0  0  0  0  0  0  0  0  0  0  0  0
   31.4190   28.6180   46.8310 N   0  0  0  0  0  0  0  0  0  0  0  0
   31.9530   26.8740   49.6260 H   0  0  0  0  0  0  0  0  0  0  0  0
   29.5420   27.3590   49.9020 H   0  0  0  0  0  0  0  0  0  0  0  0
   29.3530   29.6310   46.0230 C   0  0  0  0  0  0  0  0  0  0  0  0
   30.0320   30.1100   45.2850 H   0  0  0  0  0  0  0  0  0  0  0  0
   28.8670   30.4740   46.5550 H   0  0  0  0  0  0  0  0  0  0  0  0
   28.3020   28.8220   45.3830 C   0  0  0  0  0  0  0  0  0  0  0  0
   28.7990   27.8310   44.5290 C   0  0  0  0  0  0  0  0  0  0  0  0
   29.8380   27.6640   44.3470 H   0  0  0  0  0  0  0  0  0  0  0  0
   27.8660   27.0190   43.8800 C   0  0  0  0  0  0  0  0  0  0  0  0
   28.2000   26.2250   43.1990 H   0  0  0  0  0  0  0  0  0  0  0  0
   26.5010   27.1550   44.0480 C   0  0  0  0  0  3  0  0  0  0  0  0
   26.0840   28.1670   44.9170 C   0  0  0  0  0  3  0  0  0  0  0  0
   26.9780   28.9540   45.5460 N   0  0  0  0  0  0  0  0  0  0  0  0
   34.9780   28.3590   49.4190 O   0  0  0  0  0  0  0  0  0  0  0  0
   37.2760   30.1270   51.5660 C   0  0  0  0  0  0  0  0  0  0  0  0
   38.0230   30.8440   50.6070 C   0  0  0  0  0  0  0  0  0  0  0  0
   37.6760   30.6650   49.2700 C   0  0  0  0  0  0  0  0  0  0  0  0
   36.6450   29.8090   49.0200 N   0  0  0  0  0  0  0  0  0  0  0  0
   35.9530   29.1440   49.9380 C   0  0  0  0  0  0  0  0  0  0  0  0
   36.2860   29.3140   51.2370 N   0  0  0  0  0  0  0  0  0  0  0  0
   37.5850   30.3010   52.5970 H   0  0  0  0  0  0  0  0  0  0  0  0
   38.8340   31.5150   50.8210 H   0  0  0  0  0  0  0  0  0  0  0  0
   38.8690   33.3080   49.1660 F   0  0  0  0  0  0  0  0  0  0  0  0
   38.8800   32.5280   48.0830 C   0  0  0  0  0  0  0  0  0  0  0  0
   38.3240   31.3120   48.1500 C   0  0  0  0  0  0  0  0  0  0  0  0
   38.3890   30.5790   46.9630 C   0  0  0  0  0  0  0  0  0  0  0  0
   38.9790   31.0770   45.8250 C   0  0  0  0  0  0  0  0  0  0  0  0
   39.5370   32.3380   45.8080 C   0  0  0  0  0  0  0  0  0  0  0  0
   39.4770   33.0550   46.9610 C   0  0  0  0  0  0  0  0  0  0  0  0
   37.9790   29.5770   46.8750 H   0  0  0  0  0  0  0  0  0  0  0  0
   39.0190   30.4940   44.9150 H   0  0  0  0  0  0  0  0  0  0  0  0
   39.9950   32.7000   44.8910 H   0  0  0  0  0  0  0  0  0  0  0  0
   39.9110   34.0460   46.9610 H   0  0  0  0  0  0  0  0  0  0  0  0
  1 26  1  0  0  0  0
  2  1  1  0  0  0  0
  3  1  1  0  0  0  0
  4  7  1  0  0  0  0
  4  1  1  0  0  0  0
  4  6  1  0  0  0  0
  5  4  1  0  0  0  0
  7  8  1  0  0  0  0
  8  9  2  0  0  0  0
  8 13  1  0  0  0  0
  9 14  1  0  0  0  0
 10  9  1  0  0  0  0
 11 10  2  0  0  0  0
 12 11  1  0  0  0  0
 12  7  2  0  0  0  0
 15 17  1  0  0  0  0
 15 11  1  0  0  0  0
 16 15  1  0  0  0  0
 18 25  1  0  0  0  0
 18 15  1  0  0  0  0
 19 18  2  0  0  0  0
 20 19  1  0  0  0  0
 21 23  2  0  0  0  0
 21 19  1  0  0  0  0
 22 21  1  0  0  0  0
 23 24  1  0  0  0  0
 24 25  2  0  0  0  0
 26 31  1  0  0  0  0
 27 33  1  0  0  0  0
 28 34  1  0  0  0  0
 28 27  2  0  0  0  0
 29 28  1  0  0  0  0
 30 29  2  0  0  0  0
 30 31  1  0  0  0  0
 31 32  2  0  0  0  0
 32 27  1  0  0  0  0
 36 37  1  0  0  0  0
 36 35  1  0  0  0  0
 37 29  1  0  0  0  0
 38 37  2  0  0  0  0
 39 38  1  0  0  0  0
 40 39  2  0  0  0  0
 40 41  1  0  0  0  0
 41 45  1  0  0  0  0
 41 36  2  0  0  0  0
 42 38  1  0  0  0  0
 43 39  1  0  0  0  0
 44 40  1  0  0  0  0
M  END
>  <minimizedAffinity>
-6.58111954

>  <minimizedRMSD>
0.700765133

$$$$
