
 OpenBabel03262521053D

 35 37  0  0  0  0  0  0  0  0999 V2000
   38.4970   31.7370   48.2820 Br  0  0  0  0  0  0  0  0  0  0  0  0
   37.3610   31.1220   46.9190 C   0  0  0  0  0  0  0  0  0  0  0  0
   36.2950   30.3820   47.3220 C   0  0  0  0  0  0  0  0  0  0  0  0
   35.3980   29.8860   46.3630 C   0  0  0  0  0  0  0  0  0  0  0  0
   35.6130   30.1570   45.0230 C   0  0  0  0  0  0  0  0  0  0  0  0
   36.7020   30.9050   44.6890 C   0  0  0  0  0  0  0  0  0  0  0  0
   37.5900   31.4010   45.6030 C   0  0  0  0  0  0  0  0  0  0  0  0
   34.5300   29.2910   46.6090 H   0  0  0  0  0  0  0  0  0  0  0  0
   34.9260   29.7780   44.2770 H   0  0  0  0  0  0  0  0  0  0  0  0
   36.8740   31.1200   43.6430 H   0  0  0  0  0  0  0  0  0  0  0  0
   36.7970   29.4510   49.6210 C   0  0  0  0  0  0  0  0  0  0  0  0
   35.9260   30.0070   48.6940 C   0  0  0  0  0  0  0  0  0  0  0  0
   34.5950   30.2210   49.1110 C   0  0  0  0  0  0  0  0  0  0  0  0
   34.2550   29.8710   50.3870 N   0  0  0  0  0  0  0  0  0  0  0  0
   35.1480   29.3370   51.2350 C   0  0  0  0  0  0  0  0  0  0  0  0
   36.4240   29.1240   50.8580 N   0  0  0  0  0  0  0  0  0  0  0  0
   37.8220   29.2970   49.2690 H   0  0  0  0  0  0  0  0  0  0  0  0
   33.8460   30.6560   48.4360 H   0  0  0  0  0  0  0  0  0  0  0  0
   34.7980   29.0870   52.2320 H   0  0  0  0  0  0  0  0  0  0  0  0
   38.7340   32.1830   45.2770 N   0  0  0  0  0  0  0  0  0  0  0  0
   38.4350   33.1920   45.2440 H   0  0  0  0  0  0  0  0  0  0  0  0
   40.3570   31.7850   44.9630 S   0  0  0  0  0  0  0  0  0  0  0  0
   40.8150   30.6490   45.8040 O   0  0  0  0  0  0  0  0  0  0  0  0
   40.4000   29.7550   45.9250 H   0  0  0  0  0  0  0  0  0  0  0  0
   41.2340   32.9740   45.2750 O   0  0  0  0  0  0  0  0  0  0  0  0
   42.0820   32.8440   45.7710 H   0  0  0  0  0  0  0  0  0  0  0  0
   40.4930   31.3930   43.3200 O   0  0  0  0  0  0  0  0  0  0  0  0
   39.6850   30.3750   42.8410 C   0  0  0  0  0  0  0  0  0  0  0  0
   38.9650   30.7450   41.7420 C   0  0  0  0  0  0  0  0  0  0  0  0
   38.9840   31.7160   41.2540 H   0  0  0  0  0  0  0  0  0  0  0  0
   38.0900   29.8790   41.0990 C   0  0  0  0  0  0  0  0  0  0  0  0
   37.5010   30.1310   40.2260 H   0  0  0  0  0  0  0  0  0  0  0  0
   37.9420   28.5800   41.5970 C   0  0  0  0  0  0  0  0  0  0  0  0
   38.6980   28.2620   42.7140 C   0  0  0  0  0  0  0  0  0  0  0  0
   39.5560   29.1130   43.3420 N   0  0  0  0  0  0  0  0  0  0  0  0
  2  3  1  0  0  0  0
  2  1  1  0  0  0  0
  3 12  1  0  0  0  0
  4  8  1  0  0  0  0
  4  3  2  0  0  0  0
  5  4  1  0  0  0  0
  6  5  2  0  0  0  0
  6  7  1  0  0  0  0
  7  2  2  0  0  0  0
  9  5  1  0  0  0  0
 10  6  1  0  0  0  0
 11 16  1  0  0  0  0
 12 13  1  0  0  0  0
 12 11  2  0  0  0  0
 13 14  2  0  0  0  0
 14 15  1  0  0  0  0
 15 19  1  0  0  0  0
 16 15  2  0  0  0  0
 17 11  1  0  0  0  0
 18 13  1  0  0  0  0
 20  7  1  0  0  0  0
 21 20  1  0  0  0  0
 22 25  1  0  0  0  0
 22 20  1  0  0  0  0
 22 23  1  0  0  0  0
 23 24  1  0  0  0  0
 25 26  1  0  0  0  0
 27 22  1  0  0  0  0
 28 27  1  0  0  0  0
 28 35  1  0  0  0  0
 29 28  2  0  0  0  0
 30 29  1  0  0  0  0
 31 33  2  0  0  0  0
 31 29  1  0  0  0  0
 32 31  1  0  0  0  0
 33 34  1  0  0  0  0
 34 35  2  0  0  0  0
M  END
>  <minimizedAffinity>
-5.54353285

>  <minimizedRMSD>
3.29514742

$$$$
