
 OpenBabel03272506453D

 31 33  0  0  1  0  0  0  0  0999 V2000
   37.8210   24.9540   32.4370 C   0  0  2  0  0  0  0  0  0  0  0  0
   37.5850   23.8940   31.3830 C   0  0  1  0  0  0  0  0  0  0  0  0
   38.3570   22.7980   31.7150 O   0  0  0  0  0  0  0  0  0  0  0  0
   38.9000   22.9890   32.9620 C   0  0  0  0  0  0  0  0  0  0  0  0
   38.0420   24.0620   33.6520 C   0  0  1  0  0  0  0  0  0  0  0  0
   38.7420   25.5020   32.2170 H   0  0  0  0  0  0  0  0  0  0  0  0
   37.8070   24.2300   30.3590 H   0  0  0  0  0  0  0  0  0  0  0  0
   38.8400   22.0780   33.6000 H   0  0  0  0  0  0  0  0  0  0  0  0
   39.9570   23.3180   32.9430 H   0  0  0  0  0  0  0  0  0  0  0  0
   37.1120   23.6240   34.0170 H   0  0  0  0  0  0  0  0  0  0  0  0
   36.7030   25.7590   32.6010 O   0  0  0  0  0  0  0  0  0  0  0  0
   36.2830   25.5220   33.4470 H   0  0  0  0  0  0  0  0  0  0  0  0
   35.8300   23.3830   31.5430 S   0  0  0  0  0  0  0  0  0  0  0  0
   35.5400   19.9180   33.4270 C   0  0  0  0  0  0  0  0  0  0  0  0
   35.6850   18.9500   32.4320 C   0  0  0  0  0  0  0  0  0  0  0  0
   35.8820   19.3860   31.1190 C   0  0  0  0  0  0  0  0  0  0  0  0
   35.9210   20.7260   30.8830 N   0  0  0  0  0  0  0  0  0  0  0  0
   35.7750   21.6330   31.8830 C   0  0  0  0  0  0  0  0  0  0  0  0
   35.5840   21.2430   33.1570 N   0  0  0  0  0  0  0  0  0  0  0  0
   35.3860   19.6300   34.4580 H   0  0  0  0  0  0  0  0  0  0  0  0
   35.6470   17.8850   32.6680 H   0  0  0  0  0  0  0  0  0  0  0  0
   35.9960   18.6620   30.3360 H   0  0  0  0  0  0  0  0  0  0  0  0
   38.7710   24.6650   34.6480 O   0  0  0  0  0  0  0  0  0  0  0  0
   38.9070   24.1410   35.9170 C   0  0  0  0  0  0  0  0  0  0  0  0
   37.9700   24.6620   36.7880 C   0  0  0  0  0  0  0  0  0  0  0  0
   37.2000   25.4020   36.5400 H   0  0  0  0  0  0  0  0  0  0  0  0
   37.9040   24.2860   38.1350 C   0  0  0  0  0  0  0  0  0  0  0  0
   37.1800   24.6820   38.8300 H   0  0  0  0  0  0  0  0  0  0  0  0
   38.8460   23.3430   38.5590 C   0  0  0  0  0  3  0  0  0  0  0  0
   39.7660   22.8440   37.6610 C   0  0  0  0  0  3  0  0  0  0  0  0
   39.8060   23.2310   36.3540 N   0  0  0  0  0  0  0  0  0  0  0  0
  1  6  1  6  0  0  0
  1 11  1  0  0  0  0
  1  5  1  0  0  0  0
  2  7  1  6  0  0  0
  2 13  1  0  0  0  0
  2  3  1  0  0  0  0
  2  1  1  0  0  0  0
  3  4  1  0  0  0  0
  4  8  1  0  0  0  0
  4  5  1  0  0  0  0
  5 10  1  1  0  0  0
  5 23  1  0  0  0  0
  9  4  1  0  0  0  0
 11 12  1  0  0  0  0
 13 18  1  0  0  0  0
 14 20  1  0  0  0  0
 15 21  1  0  0  0  0
 15 14  2  0  0  0  0
 16 15  1  0  0  0  0
 17 16  2  0  0  0  0
 17 18  1  0  0  0  0
 18 19  2  0  0  0  0
 19 14  1  0  0  0  0
 22 16  1  0  0  0  0
 23 24  1  0  0  0  0
 24 31  2  0  0  0  0
 24 25  1  0  0  0  0
 25 27  2  0  0  0  0
 26 25  1  0  0  0  0
 27 29  1  0  0  0  0
 27 28  1  0  0  0  0
 30 29  2  0  0  0  0
 31 30  1  0  0  0  0
M  END
>  <minimizedAffinity>
-5.03684902

$$$$

 OpenBabel03272506453D

 31 33  0  0  1  0  0  0  0  0999 V2000
   38.6550   26.7150   34.0140 C   0  0  2  0  0  0  0  0  0  0  0  0
   37.6430   27.4220   33.1390 C   0  0  1  0  0  0  0  0  0  0  0  0
   36.9470   26.4540   32.4420 O   0  0  0  0  0  0  0  0  0  0  0  0
   37.2840   25.2160   32.9300 C   0  0  0  0  0  0  0  0  0  0  0  0
   37.8770   25.4450   34.3300 C   0  0  1  0  0  0  0  0  0  0  0  0
   39.5420   26.4600   33.4280 H   0  0  0  0  0  0  0  0  0  0  0  0
   38.0880   28.1540   32.4480 H   0  0  0  0  0  0  0  0  0  0  0  0
   36.4000   24.5520   33.0640 H   0  0  0  0  0  0  0  0  0  0  0  0
   38.0200   24.6750   32.3020 H   0  0  0  0  0  0  0  0  0  0  0  0
   37.0780   25.6190   35.0530 H   0  0  0  0  0  0  0  0  0  0  0  0
   38.9200   27.4420   35.1660 O   0  0  0  0  0  0  0  0  0  0  0  0
   38.4910   26.9880   35.9130 H   0  0  0  0  0  0  0  0  0  0  0  0
   36.4490   28.2300   34.2740 S   0  0  0  0  0  0  0  0  0  0  0  0
   33.2300   30.1740   33.0440 C   0  0  0  0  0  0  0  0  0  0  0  0
   33.6060   30.7750   31.8420 C   0  0  0  0  0  0  0  0  0  0  0  0
   34.9130   30.5720   31.3900 C   0  0  0  0  0  0  0  0  0  0  0  0
   35.7440   29.8010   32.1430 N   0  0  0  0  0  0  0  0  0  0  0  0
   35.3350   29.2360   33.3070 C   0  0  0  0  0  0  0  0  0  0  0  0
   34.0840   29.4130   33.7690 N   0  0  0  0  0  0  0  0  0  0  0  0
   32.2310   30.3020   33.4360 H   0  0  0  0  0  0  0  0  0  0  0  0
   32.9040   31.3860   31.2710 H   0  0  0  0  0  0  0  0  0  0  0  0
   35.2260   31.0230   30.4680 H   0  0  0  0  0  0  0  0  0  0  0  0
   38.6780   24.3830   34.6720 O   0  0  0  0  0  0  0  0  0  0  0  0
   38.8650   23.9560   35.9710 C   0  0  0  0  0  0  0  0  0  0  0  0
   37.9150   24.4830   36.8240 C   0  0  0  0  0  0  0  0  0  0  0  0
   37.0990   25.1590   36.5420 H   0  0  0  0  0  0  0  0  0  0  0  0
   37.8930   24.1970   38.1940 C   0  0  0  0  0  0  0  0  0  0  0  0
   37.1590   24.5980   38.8750 H   0  0  0  0  0  0  0  0  0  0  0  0
   38.8940   23.3400   38.6610 C   0  0  0  0  0  3  0  0  0  0  0  0
   39.8260   22.8320   37.7810 C   0  0  0  0  0  3  0  0  0  0  0  0
   39.8220   23.1290   36.4490 N   0  0  0  0  0  0  0  0  0  0  0  0
  1  6  1  6  0  0  0
  1  5  1  0  0  0  0
  1 11  1  0  0  0  0
  2  7  1  6  0  0  0
  2  1  1  0  0  0  0
  2 13  1  0  0  0  0
  3  4  1  0  0  0  0
  3  2  1  0  0  0  0
  4  8  1  0  0  0  0
  4  5  1  0  0  0  0
  5 23  1  0  0  0  0
  5 10  1  1  0  0  0
  9  4  1  0  0  0  0
 11 12  1  0  0  0  0
 14 20  1  0  0  0  0
 14 19  1  0  0  0  0
 15 14  2  0  0  0  0
 16 15  1  0  0  0  0
 16 17  2  0  0  0  0
 17 18  1  0  0  0  0
 18 19  2  0  0  0  0
 18 13  1  0  0  0  0
 21 15  1  0  0  0  0
 22 16  1  0  0  0  0
 23 24  1  0  0  0  0
 24 31  2  0  0  0  0
 24 25  1  0  0  0  0
 25 27  2  0  0  0  0
 26 25  1  0  0  0  0
 27 29  1  0  0  0  0
 27 28  1  0  0  0  0
 30 29  2  0  0  0  0
 31 30  1  0  0  0  0
M  END
>  <minimizedAffinity>
-4.83250713

$$$$

 OpenBabel03272506453D

 31 33  0  0  1  0  0  0  0  0999 V2000
   37.3850   24.9670   30.9310 C   0  0  2  0  0  0  0  0  0  0  0  0
   36.6700   26.2830   31.1480 C   0  0  1  0  0  0  0  0  0  0  0  0
   35.3160   26.0470   31.0210 O   0  0  0  0  0  0  0  0  0  0  0  0
   35.0990   24.6940   30.9380 C   0  0  0  0  0  0  0  0  0  0  0  0
   36.3510   24.0150   31.5170 C   0  0  1  0  0  0  0  0  0  0  0  0
   37.4910   24.7710   29.8600 H   0  0  0  0  0  0  0  0  0  0  0  0
   36.9920   27.0810   30.4610 H   0  0  0  0  0  0  0  0  0  0  0  0
   34.2390   24.3580   31.5620 H   0  0  0  0  0  0  0  0  0  0  0  0
   34.9260   24.3320   29.9060 H   0  0  0  0  0  0  0  0  0  0  0  0
   36.3290   24.0500   32.6070 H   0  0  0  0  0  0  0  0  0  0  0  0
   38.5750   24.9160   31.6410 O   0  0  0  0  0  0  0  0  0  0  0  0
   38.4500   24.3140   32.3950 H   0  0  0  0  0  0  0  0  0  0  0  0
   36.9720   26.7570   32.8940 S   0  0  0  0  0  0  0  0  0  0  0  0
   35.5470   30.0380   34.5830 C   0  0  0  0  0  0  0  0  0  0  0  0
   35.4710   30.9740   33.5510 C   0  0  0  0  0  0  0  0  0  0  0  0
   35.8780   30.5760   32.2750 C   0  0  0  0  0  0  0  0  0  0  0  0
   36.3250   29.3000   32.1090 N   0  0  0  0  0  0  0  0  0  0  0  0
   36.3810   28.4230   33.1430 C   0  0  0  0  0  0  0  0  0  0  0  0
   35.9970   28.7770   34.3820 N   0  0  0  0  0  0  0  0  0  0  0  0
   35.2430   30.2980   35.5880 H   0  0  0  0  0  0  0  0  0  0  0  0
   35.1050   31.9870   33.7310 H   0  0  0  0  0  0  0  0  0  0  0  0
   35.8290   31.2770   31.4650 H   0  0  0  0  0  0  0  0  0  0  0  0
   36.4480   22.7350   31.0300 O   0  0  0  0  0  0  0  0  0  0  0  0
   36.1180   21.6130   31.7640 C   0  0  0  0  0  0  0  0  0  0  0  0
   36.0250   20.4900   30.9650 C   0  0  0  0  0  0  0  0  0  0  0  0
   36.1840   20.4540   29.8810 H   0  0  0  0  0  0  0  0  0  0  0  0
   35.7020   19.2270   31.4770 C   0  0  0  0  0  0  0  0  0  0  0  0
   35.6240   18.3390   30.8690 H   0  0  0  0  0  0  0  0  0  0  0  0
   35.4780   19.1600   32.8560 C   0  0  0  0  0  3  0  0  0  0  0  0
   35.5810   20.3020   33.6220 C   0  0  0  0  0  3  0  0  0  0  0  0
   35.8970   21.5190   33.0940 N   0  0  0  0  0  0  0  0  0  0  0  0
  1  6  1  6  0  0  0
  1  2  1  0  0  0  0
  1  5  1  0  0  0  0
  1 11  1  0  0  0  0
  2  7  1  6  0  0  0
  2 13  1  0  0  0  0
  3  2  1  0  0  0  0
  4  3  1  0  0  0  0
  4  5  1  0  0  0  0
  4  8  1  0  0  0  0
  5 10  1  1  0  0  0
  9  4  1  0  0  0  0
 11 12  1  0  0  0  0
 13 18  1  0  0  0  0
 14 20  1  0  0  0  0
 15 21  1  0  0  0  0
 15 14  2  0  0  0  0
 16 15  1  0  0  0  0
 17 16  2  0  0  0  0
 17 18  1  0  0  0  0
 18 19  2  0  0  0  0
 19 14  1  0  0  0  0
 22 16  1  0  0  0  0
 23  5  1  0  0  0  0
 23 24  1  0  0  0  0
 24 31  1  0  0  0  0
 25 27  1  0  0  0  0
 25 24  2  0  0  0  0
 26 25  1  0  0  0  0
 27 29  2  0  0  0  0
 28 27  1  0  0  0  0
 29 30  1  0  0  0  0
 31 30  2  0  0  0  0
M  END
>  <minimizedAffinity>
-4.72180605

$$$$

 OpenBabel03272506453D

 31 33  0  0  1  0  0  0  0  0999 V2000
   38.4950   23.2120   36.1430 C   0  0  2  0  0  0  0  0  0  0  0  0
   37.6500   24.3470   36.6790 C   0  0  1  0  0  0  0  0  0  0  0  0
   37.7270   24.3080   38.0580 O   0  0  0  0  0  0  0  0  0  0  0  0
   38.6790   23.3920   38.4310 C   0  0  0  0  0  0  0  0  0  0  0  0
   39.5850   23.1800   37.2070 C   0  0  1  0  0  0  0  0  0  0  0  0
   37.9300   22.2760   36.1760 H   0  0  0  0  0  0  0  0  0  0  0  0
   36.6010   24.3140   36.3470 H   0  0  0  0  0  0  0  0  0  0  0  0
   39.3360   23.7650   39.2500 H   0  0  0  0  0  0  0  0  0  0  0  0
   38.2600   22.4180   38.7530 H   0  0  0  0  0  0  0  0  0  0  0  0
   40.2840   24.0120   37.1070 H   0  0  0  0  0  0  0  0  0  0  0  0
   39.0190   23.5200   34.8960 O   0  0  0  0  0  0  0  0  0  0  0  0
   39.9690   23.7000   35.0050 H   0  0  0  0  0  0  0  0  0  0  0  0
   38.4620   25.9010   36.1400 S   0  0  0  0  0  0  0  0  0  0  0  0
   36.8900   26.2860   32.5310 C   0  0  0  0  0  0  0  0  0  0  0  0
   36.2280   27.5150   32.5520 C   0  0  0  0  0  0  0  0  0  0  0  0
   36.2690   28.2590   33.7340 C   0  0  0  0  0  0  0  0  0  0  0  0
   36.9490   27.7470   34.7960 N   0  0  0  0  0  0  0  0  0  0  0  0
   37.5780   26.5460   34.7300 C   0  0  0  0  0  0  0  0  0  0  0  0
   37.5570   25.8070   33.6060 N   0  0  0  0  0  0  0  0  0  0  0  0
   36.8880   25.6740   31.6390 H   0  0  0  0  0  0  0  0  0  0  0  0
   35.6960   27.8860   31.6740 H   0  0  0  0  0  0  0  0  0  0  0  0
   35.7690   29.2070   33.7750 H   0  0  0  0  0  0  0  0  0  0  0  0
   40.2170   21.9650   37.3050 O   0  0  0  0  0  0  0  0  0  0  0  0
   41.5230   21.7510   36.9120 C   0  0  0  0  0  0  0  0  0  0  0  0
   42.1380   22.9250   36.5230 C   0  0  0  0  0  0  0  0  0  0  0  0
   41.6800   23.9210   36.5130 H   0  0  0  0  0  0  0  0  0  0  0  0
   43.4660   22.9690   36.0820 C   0  0  0  0  0  0  0  0  0  0  0  0
   43.9630   23.8750   35.7740 H   0  0  0  0  0  0  0  0  0  0  0  0
   44.1470   21.7470   36.0560 C   0  0  0  0  0  3  0  0  0  0  0  0
   43.5010   20.5950   36.4520 C   0  0  0  0  0  3  0  0  0  0  0  0
   42.2050   20.5850   36.8770 N   0  0  0  0  0  0  0  0  0  0  0  0
  1  6  1  6  0  0  0
  1  2  1  0  0  0  0
  1  5  1  0  0  0  0
  2  7  1  6  0  0  0
  2  3  1  0  0  0  0
  3  4  1  0  0  0  0
  4  9  1  0  0  0  0
  4  8  1  0  0  0  0
  5 10  1  6  0  0  0
  5 23  1  0  0  0  0
  5  4  1  0  0  0  0
 11 12  1  0  0  0  0
 11  1  1  0  0  0  0
 13  2  1  0  0  0  0
 14 15  2  0  0  0  0
 14 19  1  0  0  0  0
 15 16  1  0  0  0  0
 16 22  1  0  0  0  0
 16 17  2  0  0  0  0
 18 17  1  0  0  0  0
 18 13  1  0  0  0  0
 19 18  2  0  0  0  0
 20 14  1  0  0  0  0
 21 15  1  0  0  0  0
 24 23  1  0  0  0  0
 25 24  2  0  0  0  0
 26 25  1  0  0  0  0
 27 25  1  0  0  0  0
 28 27  1  0  0  0  0
 29 27  2  0  0  0  0
 29 30  1  0  0  0  0
 30 31  2  0  0  0  0
 31 24  1  0  0  0  0
M  END
>  <minimizedAffinity>
-4.71953773

$$$$

 OpenBabel03272506453D

 31 33  0  0  1  0  0  0  0  0999 V2000
   37.1970   25.4690   31.2420 C   0  0  2  0  0  0  0  0  0  0  0  0
   37.3290   23.9630   31.2910 C   0  0  1  0  0  0  0  0  0  0  0  0
   37.8730   23.6320   32.5160 O   0  0  0  0  0  0  0  0  0  0  0  0
   37.9170   24.7530   33.3090 C   0  0  0  0  0  0  0  0  0  0  0  0
   36.9100   25.7490   32.7110 C   0  0  1  0  0  0  0  0  0  0  0  0
   38.1560   25.9200   30.9690 H   0  0  0  0  0  0  0  0  0  0  0  0
   37.9320   23.5430   30.4720 H   0  0  0  0  0  0  0  0  0  0  0  0
   37.5840   24.5540   34.3530 H   0  0  0  0  0  0  0  0  0  0  0  0
   38.9170   25.2260   33.3580 H   0  0  0  0  0  0  0  0  0  0  0  0
   35.8930   25.4710   32.9930 H   0  0  0  0  0  0  0  0  0  0  0  0
   36.1340   25.8570   30.4390 O   0  0  0  0  0  0  0  0  0  0  0  0
   35.4190   26.1720   31.0190 H   0  0  0  0  0  0  0  0  0  0  0  0
   35.6220   23.2910   31.2630 S   0  0  0  0  0  0  0  0  0  0  0  0
   36.0100   19.3550   31.1870 C   0  0  0  0  0  0  0  0  0  0  0  0
   35.7640   18.9400   32.4970 C   0  0  0  0  0  0  0  0  0  0  0  0
   35.4650   19.9200   33.4480 C   0  0  0  0  0  0  0  0  0  0  0  0
   35.4300   21.2200   33.0450 N   0  0  0  0  0  0  0  0  0  0  0  0
   35.6760   21.5770   31.7590 C   0  0  0  0  0  0  0  0  0  0  0  0
   35.9670   20.6580   30.8220 N   0  0  0  0  0  0  0  0  0  0  0  0
   36.2460   18.6340   30.4160 H   0  0  0  0  0  0  0  0  0  0  0  0
   35.8030   17.8850   32.7730 H   0  0  0  0  0  0  0  0  0  0  0  0
   35.2720   19.6270   34.4610 H   0  0  0  0  0  0  0  0  0  0  0  0
   37.2370   27.0250   33.1000 O   0  0  0  0  0  0  0  0  0  0  0  0
   36.3480   28.0810   33.0760 C   0  0  0  0  0  0  0  0  0  0  0  0
   36.2410   28.6860   34.3140 C   0  0  0  0  0  0  0  0  0  0  0  0
   36.7770   28.3930   35.2240 H   0  0  0  0  0  0  0  0  0  0  0  0
   35.4010   29.7820   34.5450 C   0  0  0  0  0  0  0  0  0  0  0  0
   35.3040   30.2670   35.5040 H   0  0  0  0  0  0  0  0  0  0  0  0
   34.6670   30.2390   33.4460 C   0  0  0  0  0  3  0  0  0  0  0  0
   34.7990   29.6110   32.2260 C   0  0  0  0  0  3  0  0  0  0  0  0
   35.6270   28.5440   32.0310 N   0  0  0  0  0  0  0  0  0  0  0  0
  1  6  1  6  0  0  0
  1  2  1  0  0  0  0
  1  5  1  0  0  0  0
  2  7  1  6  0  0  0
  2  3  1  0  0  0  0
  3  4  1  0  0  0  0
  4  9  1  0  0  0  0
  4  8  1  0  0  0  0
  5 10  1  1  0  0  0
  5 23  1  0  0  0  0
  5  4  1  0  0  0  0
 11 12  1  0  0  0  0
 11  1  1  0  0  0  0
 13  2  1  0  0  0  0
 13 18  1  0  0  0  0
 14 15  1  0  0  0  0
 15 21  1  0  0  0  0
 15 16  2  0  0  0  0
 16 22  1  0  0  0  0
 17 16  1  0  0  0  0
 18 17  2  0  0  0  0
 19 14  2  0  0  0  0
 19 18  1  0  0  0  0
 20 14  1  0  0  0  0
 24 23  1  0  0  0  0
 24 25  1  0  0  0  0
 25 27  2  0  0  0  0
 25 26  1  0  0  0  0
 27 28  1  0  0  0  0
 29 27  1  0  0  0  0
 30 29  2  0  0  0  0
 31 30  1  0  0  0  0
 31 24  2  0  0  0  0
M  END
>  <minimizedAffinity>
-4.69005108

$$$$

 OpenBabel03272506453D

 31 33  0  0  1  0  0  0  0  0999 V2000
   37.3570   25.6130   33.4160 C   0  0  2  0  0  0  0  0  0  0  0  0
   37.2650   26.8460   32.5440 C   0  0  1  0  0  0  0  0  0  0  0  0
   36.8640   27.8950   33.3480 O   0  0  0  0  0  0  0  0  0  0  0  0
   36.8810   27.4910   34.6600 C   0  0  0  0  0  0  0  0  0  0  0  0
   37.7950   26.2560   34.7250 C   0  0  1  0  0  0  0  0  0  0  0  0
   36.3650   25.1710   33.5450 H   0  0  0  0  0  0  0  0  0  0  0  0
   36.5860   26.7330   31.6850 H   0  0  0  0  0  0  0  0  0  0  0  0
   37.3280   28.2520   35.3390 H   0  0  0  0  0  0  0  0  0  0  0  0
   35.8810   27.2300   35.0600 H   0  0  0  0  0  0  0  0  0  0  0  0
   38.8420   26.5620   34.7040 H   0  0  0  0  0  0  0  0  0  0  0  0
   38.3180   24.7310   32.9430 O   0  0  0  0  0  0  0  0  0  0  0  0
   39.0850   24.7730   33.5410 H   0  0  0  0  0  0  0  0  0  0  0  0
   38.9730   27.2190   31.9890 S   0  0  0  0  0  0  0  0  0  0  0  0
   37.6340   29.0320   28.7380 C   0  0  0  0  0  0  0  0  0  0  0  0
   38.7480   29.1560   27.9060 C   0  0  0  0  0  0  0  0  0  0  0  0
   39.9690   28.6570   28.3690 C   0  0  0  0  0  0  0  0  0  0  0  0
   40.0040   28.0790   29.6010 N   0  0  0  0  0  0  0  0  0  0  0  0
   38.8950   27.9810   30.3770 C   0  0  0  0  0  0  0  0  0  0  0  0
   37.7060   28.4520   29.9590 N   0  0  0  0  0  0  0  0  0  0  0  0
   36.6680   29.4030   28.4240 H   0  0  0  0  0  0  0  0  0  0  0  0
   38.6720   29.6270   26.9240 H   0  0  0  0  0  0  0  0  0  0  0  0
   40.8390   28.7400   27.7480 H   0  0  0  0  0  0  0  0  0  0  0  0
   37.4840   25.5080   35.8340 O   0  0  0  0  0  0  0  0  0  0  0  0
   38.3410   24.5840   36.3960 C   0  0  0  0  0  0  0  0  0  0  0  0
   38.0200   24.3270   37.7150 C   0  0  0  0  0  0  0  0  0  0  0  0
   37.1970   24.7800   38.2790 H   0  0  0  0  0  0  0  0  0  0  0  0
   38.7440   23.4230   38.5020 C   0  0  0  0  0  0  0  0  0  0  0  0
   38.5090   23.2090   39.5330 H   0  0  0  0  0  0  0  0  0  0  0  0
   39.8210   22.7860   37.8770 C   0  0  0  0  0  3  0  0  0  0  0  0
   40.1120   23.0680   36.5590 C   0  0  0  0  0  3  0  0  0  0  0  0
   39.3870   23.9540   35.8170 N   0  0  0  0  0  0  0  0  0  0  0  0
  1  6  1  1  0  0  0
  1  5  1  0  0  0  0
  2  7  1  6  0  0  0
  2  3  1  0  0  0  0
  2  1  1  0  0  0  0
  3  4  1  0  0  0  0
  4  5  1  0  0  0  0
  4  9  1  0  0  0  0
  4  8  1  0  0  0  0
  5 10  1  6  0  0  0
  5 23  1  0  0  0  0
 11  1  1  0  0  0  0
 11 12  1  0  0  0  0
 13  2  1  0  0  0  0
 14 19  1  0  0  0  0
 15 16  1  0  0  0  0
 15 14  2  0  0  0  0
 16 17  2  0  0  0  0
 17 18  1  0  0  0  0
 18 13  1  0  0  0  0
 19 18  2  0  0  0  0
 20 14  1  0  0  0  0
 21 15  1  0  0  0  0
 22 16  1  0  0  0  0
 23 24  1  0  0  0  0
 24 25  1  0  0  0  0
 25 26  1  0  0  0  0
 25 27  2  0  0  0  0
 27 28  1  0  0  0  0
 29 27  1  0  0  0  0
 30 29  2  0  0  0  0
 31 24  2  0  0  0  0
 31 30  1  0  0  0  0
M  END
>  <minimizedAffinity>
-4.67882872

$$$$

 OpenBabel03272506453D

 31 33  0  0  1  0  0  0  0  0999 V2000
   37.8900   23.9310   30.3720 C   0  0  2  0  0  0  0  0  0  0  0  0
   38.3260   25.2530   30.9670 C   0  0  1  0  0  0  0  0  0  0  0  0
   37.2470   25.7780   31.6500 O   0  0  0  0  0  0  0  0  0  0  0  0
   36.2470   24.8380   31.7050 C   0  0  0  0  0  0  0  0  0  0  0  0
   36.9120   23.4770   31.4470 C   0  0  1  0  0  0  0  0  0  0  0  0
   37.3470   24.1020   29.4380 H   0  0  0  0  0  0  0  0  0  0  0  0
   38.7030   25.9710   30.2230 H   0  0  0  0  0  0  0  0  0  0  0  0
   35.7730   24.7740   32.7110 H   0  0  0  0  0  0  0  0  0  0  0  0
   35.4400   25.0010   30.9640 H   0  0  0  0  0  0  0  0  0  0  0  0
   37.4210   23.1300   32.3480 H   0  0  0  0  0  0  0  0  0  0  0  0
   38.9580   23.0520   30.2590 O   0  0  0  0  0  0  0  0  0  0  0  0
   38.8580   22.3680   30.9440 H   0  0  0  0  0  0  0  0  0  0  0  0
   39.6130   24.8620   32.2150 S   0  0  0  0  0  0  0  0  0  0  0  0
   39.0000   27.2580   35.3020 C   0  0  0  0  0  0  0  0  0  0  0  0
   38.2820   26.4900   36.2210 C   0  0  0  0  0  0  0  0  0  0  0  0
   37.9730   25.1730   35.8710 C   0  0  0  0  0  0  0  0  0  0  0  0
   38.3870   24.7120   34.6600 N   0  0  0  0  0  0  0  0  0  0  0  0
   39.0840   25.4950   33.7970 C   0  0  0  0  0  0  0  0  0  0  0  0
   39.3960   26.7670   34.1040 N   0  0  0  0  0  0  0  0  0  0  0  0
   39.2630   28.2820   35.5260 H   0  0  0  0  0  0  0  0  0  0  0  0
   37.9710   26.9030   37.1820 H   0  0  0  0  0  0  0  0  0  0  0  0
   37.4220   24.5630   36.5600 H   0  0  0  0  0  0  0  0  0  0  0  0
   35.9740   22.5830   30.9910 O   0  0  0  0  0  0  0  0  0  0  0  0
   35.8620   21.2900   31.4600 C   0  0  0  0  0  0  0  0  0  0  0  0
   35.5650   21.2600   32.8090 C   0  0  0  0  0  0  0  0  0  0  0  0
   35.4290   22.1310   33.4600 H   0  0  0  0  0  0  0  0  0  0  0  0
   35.4000   20.0630   33.5160 C   0  0  0  0  0  0  0  0  0  0  0  0
   35.1690   20.0190   34.5690 H   0  0  0  0  0  0  0  0  0  0  0  0
   35.5530   18.8850   32.7780 C   0  0  0  0  0  3  0  0  0  0  0  0
   35.8490   18.9530   31.4330 C   0  0  0  0  0  3  0  0  0  0  0  0
   36.0030   20.1360   30.7710 N   0  0  0  0  0  0  0  0  0  0  0  0
  1  6  1  6  0  0  0
  1  2  1  0  0  0  0
  1  5  1  0  0  0  0
  2  7  1  6  0  0  0
  2  3  1  0  0  0  0
  2 13  1  0  0  0  0
  3  4  1  0  0  0  0
  4  8  1  0  0  0  0
  5  4  1  0  0  0  0
  5 10  1  1  0  0  0
  9  4  1  0  0  0  0
 11  1  1  0  0  0  0
 11 12  1  0  0  0  0
 13 18  1  0  0  0  0
 14 20  1  0  0  0  0
 14 15  1  0  0  0  0
 15 21  1  0  0  0  0
 16 15  2  0  0  0  0
 16 22  1  0  0  0  0
 17 16  1  0  0  0  0
 18 19  1  0  0  0  0
 18 17  2  0  0  0  0
 19 14  2  0  0  0  0
 23  5  1  0  0  0  0
 23 24  1  0  0  0  0
 24 25  1  0  0  0  0
 25 26  1  0  0  0  0
 25 27  2  0  0  0  0
 27 28  1  0  0  0  0
 29 27  1  0  0  0  0
 30 29  2  0  0  0  0
 31 30  1  0  0  0  0
 31 24  2  0  0  0  0
M  END
>  <minimizedAffinity>
-4.62922478

$$$$

 OpenBabel03272506453D

 31 33  0  0  1  0  0  0  0  0999 V2000
   38.5090   24.1800   33.3660 C   0  0  2  0  0  0  0  0  0  0  0  0
   38.1580   24.4450   31.9180 C   0  0  1  0  0  0  0  0  0  0  0  0
   38.1020   23.2260   31.2730 O   0  0  0  0  0  0  0  0  0  0  0  0
   38.1910   22.2190   32.2020 C   0  0  0  0  0  0  0  0  0  0  0  0
   37.8110   22.8400   33.5560 C   0  0  1  0  0  0  0  0  0  0  0  0
   39.5890   24.0430   33.4700 H   0  0  0  0  0  0  0  0  0  0  0  0
   38.8610   25.1220   31.4080 H   0  0  0  0  0  0  0  0  0  0  0  0
   37.4630   21.3960   32.0150 H   0  0  0  0  0  0  0  0  0  0  0  0
   39.1990   21.7650   32.2740 H   0  0  0  0  0  0  0  0  0  0  0  0
   36.7280   22.9450   33.6310 H   0  0  0  0  0  0  0  0  0  0  0  0
   37.9720   25.1490   34.2000 O   0  0  0  0  0  0  0  0  0  0  0  0
   37.2250   24.7520   34.6810 H   0  0  0  0  0  0  0  0  0  0  0  0
   36.4590   25.1350   31.9120 S   0  0  0  0  0  0  0  0  0  0  0  0
   35.7040   29.0050   31.5940 C   0  0  0  0  0  0  0  0  0  0  0  0
   36.6460   29.4850   30.6820 C   0  0  0  0  0  0  0  0  0  0  0  0
   37.5560   28.5730   30.1410 C   0  0  0  0  0  0  0  0  0  0  0  0
   37.4740   27.2710   30.5300 N   0  0  0  0  0  0  0  0  0  0  0  0
   36.5410   26.8490   31.4210 C   0  0  0  0  0  0  0  0  0  0  0  0
   35.6520   27.7020   31.9590 N   0  0  0  0  0  0  0  0  0  0  0  0
   34.9790   29.6720   32.0400 H   0  0  0  0  0  0  0  0  0  0  0  0
   36.6730   30.5390   30.3990 H   0  0  0  0  0  0  0  0  0  0  0  0
   38.2890   28.9170   29.4380 H   0  0  0  0  0  0  0  0  0  0  0  0
   38.3410   22.0860   34.5750 O   0  0  0  0  0  0  0  0  0  0  0  0
   38.4470   22.5310   35.8770 C   0  0  0  0  0  0  0  0  0  0  0  0
   39.7140   22.3210   36.3870 C   0  0  0  0  0  0  0  0  0  0  0  0
   40.5550   21.8610   35.8560 H   0  0  0  0  0  0  0  0  0  0  0  0
   40.0710   22.6870   37.6900 C   0  0  0  0  0  0  0  0  0  0  0  0
   41.0540   22.5310   38.1060 H   0  0  0  0  0  0  0  0  0  0  0  0
   39.0670   23.2850   38.4590 C   0  0  0  0  0  3  0  0  0  0  0  0
   37.8140   23.4800   37.9170 C   0  0  0  0  0  3  0  0  0  0  0  0
   37.4960   23.1120   36.6420 N   0  0  0  0  0  0  0  0  0  0  0  0
  1  6  1  1  0  0  0
  1  5  1  0  0  0  0
  1 11  1  0  0  0  0
  2  7  1  6  0  0  0
  2  1  1  0  0  0  0
  3  2  1  0  0  0  0
  3  4  1  0  0  0  0
  4  9  1  0  0  0  0
  4  5  1  0  0  0  0
  5 10  1  1  0  0  0
  5 23  1  0  0  0  0
  8  4  1  0  0  0  0
 11 12  1  0  0  0  0
 13  2  1  0  0  0  0
 14 19  1  0  0  0  0
 14 20  1  0  0  0  0
 15 14  2  0  0  0  0
 16 17  2  0  0  0  0
 16 15  1  0  0  0  0
 17 18  1  0  0  0  0
 18 13  1  0  0  0  0
 18 19  2  0  0  0  0
 21 15  1  0  0  0  0
 22 16  1  0  0  0  0
 23 24  1  0  0  0  0
 24 25  2  0  0  0  0
 24 31  1  0  0  0  0
 25 27  1  0  0  0  0
 26 25  1  0  0  0  0
 27 28  1  0  0  0  0
 27 29  2  0  0  0  0
 30 29  1  0  0  0  0
 31 30  2  0  0  0  0
M  END
>  <minimizedAffinity>
-4.56767321

$$$$

 OpenBabel03272506453D

 31 33  0  0  1  0  0  0  0  0999 V2000
   37.0490   28.0360   32.7330 C   0  0  2  0  0  0  0  0  0  0  0  0
   36.2260   29.2200   32.2750 C   0  0  1  0  0  0  0  0  0  0  0  0
   35.9860   29.0620   30.9240 O   0  0  0  0  0  0  0  0  0  0  0  0
   36.4070   27.8140   30.5340 C   0  0  0  0  0  0  0  0  0  0  0  0
   36.4890   26.9620   31.8100 C   0  0  1  0  0  0  0  0  0  0  0  0
   38.1050   28.2000   32.4980 H   0  0  0  0  0  0  0  0  0  0  0  0
   36.6990   30.1930   32.4750 H   0  0  0  0  0  0  0  0  0  0  0  0
   35.6790   27.3070   29.8600 H   0  0  0  0  0  0  0  0  0  0  0  0
   37.3910   27.8140   30.0260 H   0  0  0  0  0  0  0  0  0  0  0  0
   35.4920   26.6380   32.1120 H   0  0  0  0  0  0  0  0  0  0  0  0
   36.8010   27.7340   34.0650 O   0  0  0  0  0  0  0  0  0  0  0  0
   36.2690   26.9190   34.0940 H   0  0  0  0  0  0  0  0  0  0  0  0
   34.6070   29.0890   33.1270 S   0  0  0  0  0  0  0  0  0  0  0  0
   35.8130   31.5200   36.0050 C   0  0  0  0  0  0  0  0  0  0  0  0
   34.6520   31.8640   36.7000 C   0  0  0  0  0  0  0  0  0  0  0  0
   33.4420   31.3210   36.2610 C   0  0  0  0  0  0  0  0  0  0  0  0
   33.4610   30.4890   35.1840 N   0  0  0  0  0  0  0  0  0  0  0  0
   34.6140   30.1820   34.5370 C   0  0  0  0  0  0  0  0  0  0  0  0
   35.7950   30.6890   34.9360 N   0  0  0  0  0  0  0  0  0  0  0  0
   36.7740   31.9150   36.3060 H   0  0  0  0  0  0  0  0  0  0  0  0
   34.6860   32.5350   37.5600 H   0  0  0  0  0  0  0  0  0  0  0  0
   32.5360   31.5700   36.7780 H   0  0  0  0  0  0  0  0  0  0  0  0
   37.3500   25.9110   31.6090 O   0  0  0  0  0  0  0  0  0  0  0  0
   37.0340   24.5990   31.9020 C   0  0  0  0  0  0  0  0  0  0  0  0
   35.9810   24.1430   31.1330 C   0  0  0  0  0  0  0  0  0  0  0  0
   35.4380   24.7200   30.3750 H   0  0  0  0  0  0  0  0  0  0  0  0
   35.4750   22.8430   31.2460 C   0  0  0  0  0  0  0  0  0  0  0  0
   34.6540   22.4680   30.6540 H   0  0  0  0  0  0  0  0  0  0  0  0
   36.0980   22.0190   32.1890 C   0  0  0  0  0  3  0  0  0  0  0  0
   37.1470   22.5080   32.9390 C   0  0  0  0  0  3  0  0  0  0  0  0
   37.6180   23.7810   32.8060 N   0  0  0  0  0  0  0  0  0  0  0  0
  1  6  1  6  0  0  0
  1 11  1  0  0  0  0
  2  7  1  1  0  0  0
  2  1  1  0  0  0  0
  2 13  1  0  0  0  0
  3  2  1  0  0  0  0
  4  3  1  0  0  0  0
  4  5  1  0  0  0  0
  5 10  1  1  0  0  0
  5  1  1  0  0  0  0
  8  4  1  0  0  0  0
  9  4  1  0  0  0  0
 11 12  1  0  0  0  0
 13 18  1  0  0  0  0
 14 20  1  0  0  0  0
 14 15  1  0  0  0  0
 15 21  1  0  0  0  0
 16 15  2  0  0  0  0
 16 22  1  0  0  0  0
 17 16  1  0  0  0  0
 18 19  1  0  0  0  0
 18 17  2  0  0  0  0
 19 14  2  0  0  0  0
 23  5  1  0  0  0  0
 23 24  1  0  0  0  0
 24 31  1  0  0  0  0
 25 27  1  0  0  0  0
 25 24  2  0  0  0  0
 26 25  1  0  0  0  0
 27 29  2  0  0  0  0
 28 27  1  0  0  0  0
 29 30  1  0  0  0  0
 31 30  2  0  0  0  0
M  END
>  <minimizedAffinity>
-4.56749964

$$$$
