
 OpenBabel03262520473D

 33 35  0  0  1  0  0  0  0  0999 V2000
   36.4300   28.0370   34.3000 C   0  0  1  0  0  0  0  0  0  0  0  0
   37.3330   27.2330   33.3750 C   0  0  0  0  0  0  0  0  0  0  0  0
   37.8630   27.8650   34.5970 C   0  0  2  0  0  0  0  0  0  0  0  0
   35.6760   27.5060   34.8990 H   0  0  0  0  0  0  0  0  0  0  0  0
   37.2570   26.1120   33.4090 H   0  0  0  0  0  0  0  0  0  0  0  0
   37.5710   27.6250   32.3850 H   0  0  0  0  0  0  0  0  0  0  0  0
   38.5070   28.7640   34.3990 H   0  0  0  0  0  0  0  0  0  0  0  0
   35.9080   29.3260   33.7100 C   0  0  0  0  0  0  0  0  0  0  0  0
   35.1990   29.0690   32.8980 H   0  0  0  0  0  0  0  0  0  0  0  0
   36.7580   29.8790   33.2460 H   0  0  0  0  0  0  0  0  0  0  0  0
   35.2950   31.7700   36.4650 C   0  0  0  0  0  0  0  0  0  0  0  0
   35.9470   30.9720   35.4900 C   0  0  0  0  0  0  0  0  0  0  0  0
   35.1880   30.1390   34.7110 C   0  0  0  0  0  0  0  0  0  0  0  0
   33.8590   30.1100   34.9000 N   0  0  0  0  0  0  0  0  0  0  0  0
   33.2570   30.8730   35.8280 C   0  0  0  0  0  0  0  0  0  0  0  0
   33.9770   31.6910   36.5970 N   0  0  0  0  0  0  0  0  0  0  0  0
   35.8580   32.4420   37.1010 H   0  0  0  0  0  0  0  0  0  0  0  0
   37.0220   31.1080   35.4610 H   0  0  0  0  0  0  0  0  0  0  0  0
   32.1750   30.6860   35.8040 H   0  0  0  0  0  0  0  0  0  0  0  0
   38.1770   27.0910   35.8480 C   0  0  0  0  0  0  0  0  0  0  0  0
   37.9670   27.6510   36.7820 H   0  0  0  0  0  0  0  0  0  0  0  0
   39.2770   26.8890   35.8550 H   0  0  0  0  0  0  0  0  0  0  0  0
   37.5140   25.7200   35.8740 C   0  0  0  0  0  0  0  0  0  0  0  0
   36.6330   25.8040   36.5320 H   0  0  0  0  0  0  0  0  0  0  0  0
   37.1460   25.4790   34.8680 H   0  0  0  0  0  0  0  0  0  0  0  0
   38.4240   24.6840   36.4110 C   0  0  0  0  0  0  0  0  0  0  0  0
   38.1300   24.2420   37.6790 C   0  0  0  0  0  0  0  0  0  0  0  0
   37.2780   24.6280   38.2540 H   0  0  0  0  0  0  0  0  0  0  0  0
   38.8410   23.2860   38.3690 C   0  0  0  0  0  0  0  0  0  0  0  0
   38.6250   22.9330   39.3500 H   0  0  0  0  0  0  0  0  0  0  0  0
   39.9470   22.7330   37.7130 C   0  0  0  0  0  3  0  0  0  0  0  0
   40.2230   23.2040   36.4240 C   0  0  0  0  0  3  0  0  0  0  0  0
   39.4820   24.1540   35.7870 N   0  0  0  0  0  0  0  0  0  0  0  0
  1  3  1  0  0  0  0
  1  4  1  1  0  0  0
  2  5  1  0  0  0  0
  2  1  1  0  0  0  0
  2  3  1  0  0  0  0
  3  7  1  6  0  0  0
  3 20  1  0  0  0  0
  6  2  1  0  0  0  0
  8  1  1  0  0  0  0
  8 13  1  0  0  0  0
  9  8  1  0  0  0  0
 10  8  1  0  0  0  0
 11 16  1  0  0  0  0
 11 17  1  0  0  0  0
 12 11  2  0  0  0  0
 13 14  2  0  0  0  0
 13 12  1  0  0  0  0
 14 15  1  0  0  0  0
 15 16  2  0  0  0  0
 18 12  1  0  0  0  0
 19 15  1  0  0  0  0
 20 22  1  0  0  0  0
 20 23  1  0  0  0  0
 20 21  1  0  0  0  0
 23 26  1  0  0  0  0
 23 24  1  0  0  0  0
 25 23  1  0  0  0  0
 26 27  1  0  0  0  0
 27 28  1  0  0  0  0
 27 29  2  0  0  0  0
 29 30  1  0  0  0  0
 31 29  1  0  0  0  0
 32 31  2  0  0  0  0
 33 26  2  0  0  0  0
 33 32  1  0  0  0  0
M  END
>  <minimizedAffinity>
-5.00496674

$$$$

 OpenBabel03262520473D

 33 35  0  0  1  0  0  0  0  0999 V2000
   37.3960   26.3980   35.2000 C   0  0  1  0  0  0  0  0  0  0  0  0
   38.1510   27.6890   35.4810 C   0  0  0  0  0  0  0  0  0  0  0  0
   37.2550   27.5700   34.3160 C   0  0  2  0  0  0  0  0  0  0  0  0
   36.5700   26.1100   35.8670 H   0  0  0  0  0  0  0  0  0  0  0  0
   37.7740   28.3500   36.3090 H   0  0  0  0  0  0  0  0  0  0  0  0
   39.2360   27.7130   35.3620 H   0  0  0  0  0  0  0  0  0  0  0  0
   37.7960   27.4990   33.3340 H   0  0  0  0  0  0  0  0  0  0  0  0
   38.2680   25.2280   34.8070 C   0  0  0  0  0  0  0  0  0  0  0  0
   39.1910   25.6300   34.3450 H   0  0  0  0  0  0  0  0  0  0  0  0
   37.7380   24.6310   34.0290 H   0  0  0  0  0  0  0  0  0  0  0  0
   38.1800   23.7240   38.2230 C   0  0  0  0  0  0  0  0  0  0  0  0
   37.8440   24.4920   37.0780 C   0  0  0  0  0  0  0  0  0  0  0  0
   38.6550   24.4130   35.9760 C   0  0  0  0  0  0  0  0  0  0  0  0
   39.7330   23.6140   36.0230 N   0  0  0  0  0  0  0  0  0  0  0  0
   40.0370   22.8940   37.1150 C   0  0  0  0  0  0  0  0  0  0  0  0
   39.2610   22.9560   38.2000 N   0  0  0  0  0  0  0  0  0  0  0  0
   37.5660   23.7570   39.1150 H   0  0  0  0  0  0  0  0  0  0  0  0
   36.9450   25.0850   37.1970 H   0  0  0  0  0  0  0  0  0  0  0  0
   40.9540   22.3190   36.9280 H   0  0  0  0  0  0  0  0  0  0  0  0
   35.8850   28.1870   34.2710 C   0  0  0  0  0  0  0  0  0  0  0  0
   35.2850   28.0050   35.1850 H   0  0  0  0  0  0  0  0  0  0  0  0
   35.3210   27.7020   33.4350 H   0  0  0  0  0  0  0  0  0  0  0  0
   35.9190   29.6710   33.9270 C   0  0  0  0  0  0  0  0  0  0  0  0
   36.9810   29.9560   33.8470 H   0  0  0  0  0  0  0  0  0  0  0  0
   35.4660   29.8230   32.9390 H   0  0  0  0  0  0  0  0  0  0  0  0
   35.2750   30.4890   34.9800 C   0  0  0  0  0  0  0  0  0  0  0  0
   33.9110   30.3470   35.0830 C   0  0  0  0  0  0  0  0  0  0  0  0
   33.3380   29.6740   34.4330 H   0  0  0  0  0  0  0  0  0  0  0  0
   33.1130   31.0090   35.9900 C   0  0  0  0  0  0  0  0  0  0  0  0
   32.0580   30.9090   36.0830 H   0  0  0  0  0  0  0  0  0  0  0  0
   33.7580   31.8910   36.8640 C   0  0  0  0  0  3  0  0  0  0  0  0
   35.1470   32.0150   36.7340 C   0  0  0  0  0  3  0  0  0  0  0  0
   35.8880   31.3330   35.8170 N   0  0  0  0  0  0  0  0  0  0  0  0
  1  2  1  0  0  0  0
  1  4  1  1  0  0  0
  2  5  1  0  0  0  0
  3  7  1  6  0  0  0
  3  1  1  0  0  0  0
  3  2  1  0  0  0  0
  6  2  1  0  0  0  0
  8  1  1  0  0  0  0
  8 13  1  0  0  0  0
  9  8  1  0  0  0  0
 10  8  1  0  0  0  0
 11 17  1  0  0  0  0
 12 18  1  0  0  0  0
 12 11  2  0  0  0  0
 13 14  2  0  0  0  0
 13 12  1  0  0  0  0
 14 15  1  0  0  0  0
 15 16  2  0  0  0  0
 16 11  1  0  0  0  0
 19 15  1  0  0  0  0
 20  3  1  0  0  0  0
 20 21  1  0  0  0  0
 22 20  1  0  0  0  0
 23 20  1  0  0  0  0
 23 26  1  0  0  0  0
 24 23  1  0  0  0  0
 25 23  1  0  0  0  0
 26 27  2  0  0  0  0
 26 33  1  0  0  0  0
 27 29  1  0  0  0  0
 28 27  1  0  0  0  0
 29 30  1  0  0  0  0
 29 31  2  0  0  0  0
 32 31  1  0  0  0  0
 33 32  2  0  0  0  0
M  END
>  <minimizedAffinity>
-4.86240816

$$$$

 OpenBabel03262520473D

 33 35  0  0  1  0  0  0  0  0999 V2000
   36.9410   27.8620   33.1620 C   0  0  1  0  0  0  0  0  0  0  0  0
   36.2150   28.6430   34.2490 C   0  0  0  0  0  0  0  0  0  0  0  0
   36.7300   27.2840   34.5020 C   0  0  2  0  0  0  0  0  0  0  0  0
   37.9450   28.1880   32.8560 H   0  0  0  0  0  0  0  0  0  0  0  0
   36.7730   29.4710   34.7640 H   0  0  0  0  0  0  0  0  0  0  0  0
   35.1450   28.8330   34.1480 H   0  0  0  0  0  0  0  0  0  0  0  0
   35.9280   26.5010   34.5670 H   0  0  0  0  0  0  0  0  0  0  0  0
   36.0760   27.4510   31.9940 C   0  0  0  0  0  0  0  0  0  0  0  0
   36.2960   28.1330   31.1490 H   0  0  0  0  0  0  0  0  0  0  0  0
   35.0050   27.5980   32.2700 H   0  0  0  0  0  0  0  0  0  0  0  0
   37.9530   24.4880   30.7150 C   0  0  0  0  0  0  0  0  0  0  0  0
   37.6380   25.8040   31.1430 C   0  0  0  0  0  0  0  0  0  0  0  0
   36.3590   26.0700   31.5570 C   0  0  0  0  0  0  0  0  0  0  0  0
   35.4560   25.0760   31.5430 N   0  0  0  0  0  0  0  0  0  0  0  0
   35.7700   23.8360   31.1350 C   0  0  0  0  0  0  0  0  0  0  0  0
   37.0100   23.5550   30.7270 N   0  0  0  0  0  0  0  0  0  0  0  0
   38.9510   24.2360   30.3800 H   0  0  0  0  0  0  0  0  0  0  0  0
   38.4750   26.4910   31.0950 H   0  0  0  0  0  0  0  0  0  0  0  0
   34.8820   23.1930   31.2070 H   0  0  0  0  0  0  0  0  0  0  0  0
   37.9790   27.0180   35.2970 C   0  0  0  0  0  0  0  0  0  0  0  0
   37.8170   27.0250   36.3940 H   0  0  0  0  0  0  0  0  0  0  0  0
   38.6980   27.8490   35.0890 H   0  0  0  0  0  0  0  0  0  0  0  0
   38.6940   25.7460   34.8600 C   0  0  0  0  0  0  0  0  0  0  0  0
   38.0730   25.2840   34.0740 H   0  0  0  0  0  0  0  0  0  0  0  0
   39.6550   26.0120   34.4000 H   0  0  0  0  0  0  0  0  0  0  0  0
   38.8460   24.7930   35.9820 C   0  0  0  0  0  0  0  0  0  0  0  0
   38.0210   25.0170   37.0590 C   0  0  0  0  0  0  0  0  0  0  0  0
   37.2990   25.8430   37.0860 H   0  0  0  0  0  0  0  0  0  0  0  0
   37.9930   24.2550   38.2060 C   0  0  0  0  0  0  0  0  0  0  0  0
   37.3610   24.4150   39.0470 H   0  0  0  0  0  0  0  0  0  0  0  0
   38.8810   23.1750   38.2620 C   0  0  0  0  0  3  0  0  0  0  0  0
   39.7090   22.9720   37.1510 C   0  0  0  0  0  3  0  0  0  0  0  0
   39.6930   23.7600   36.0390 N   0  0  0  0  0  0  0  0  0  0  0  0
  1  4  1  6  0  0  0
  1  2  1  0  0  0  0
  1  3  1  0  0  0  0
  2  3  1  0  0  0  0
  2  5  1  0  0  0  0
  3  7  1  1  0  0  0
  3 20  1  0  0  0  0
  6  2  1  0  0  0  0
  8 10  1  0  0  0  0
  8  1  1  0  0  0  0
  9  8  1  0  0  0  0
 11 16  2  0  0  0  0
 11 12  1  0  0  0  0
 12 13  2  0  0  0  0
 13  8  1  0  0  0  0
 14 13  1  0  0  0  0
 15 19  1  0  0  0  0
 15 14  2  0  0  0  0
 16 15  1  0  0  0  0
 17 11  1  0  0  0  0
 18 12  1  0  0  0  0
 20 21  1  0  0  0  0
 22 20  1  0  0  0  0
 23 20  1  0  0  0  0
 23 26  1  0  0  0  0
 24 23  1  0  0  0  0
 25 23  1  0  0  0  0
 26 33  2  0  0  0  0
 26 27  1  0  0  0  0
 27 28  1  0  0  0  0
 27 29  2  0  0  0  0
 29 31  1  0  0  0  0
 29 30  1  0  0  0  0
 32 31  2  0  0  0  0
 33 32  1  0  0  0  0
M  END
>  <minimizedAffinity>
-4.80006313

$$$$

 OpenBabel03262520473D

 33 35  0  0  1  0  0  0  0  0999 V2000
   38.3840   26.2600   34.3630 C   0  0  1  0  0  0  0  0  0  0  0  0
   39.2350   27.1420   35.2650 C   0  0  0  0  0  0  0  0  0  0  0  0
   38.0660   26.4150   35.7940 C   0  0  2  0  0  0  0  0  0  0  0  0
   38.8070   25.3150   33.9920 H   0  0  0  0  0  0  0  0  0  0  0  0
   40.2350   26.7470   35.5960 H   0  0  0  0  0  0  0  0  0  0  0  0
   39.2160   28.2250   35.1300 H   0  0  0  0  0  0  0  0  0  0  0  0
   37.1880   27.0760   36.0230 H   0  0  0  0  0  0  0  0  0  0  0  0
   37.6010   27.0060   33.3080 C   0  0  0  0  0  0  0  0  0  0  0  0
   38.3230   27.5370   32.6570 H   0  0  0  0  0  0  0  0  0  0  0  0
   36.9720   27.7800   33.8070 H   0  0  0  0  0  0  0  0  0  0  0  0
   36.3690   23.8470   31.7460 C   0  0  0  0  0  0  0  0  0  0  0  0
   37.1110   24.7590   32.5400 C   0  0  0  0  0  0  0  0  0  0  0  0
   36.8040   26.0930   32.4650 C   0  0  0  0  0  0  0  0  0  0  0  0
   35.8150   26.4830   31.6440 N   0  0  0  0  0  0  0  0  0  0  0  0
   35.1220   25.6060   30.8990 C   0  0  0  0  0  0  0  0  0  0  0  0
   35.4040   24.3030   30.9570 N   0  0  0  0  0  0  0  0  0  0  0  0
   36.5790   22.7850   31.7750 H   0  0  0  0  0  0  0  0  0  0  0  0
   37.8750   24.2890   33.1480 H   0  0  0  0  0  0  0  0  0  0  0  0
   34.3680   26.1460   30.3100 H   0  0  0  0  0  0  0  0  0  0  0  0
   38.1860   25.1660   36.6230 C   0  0  0  0  0  0  0  0  0  0  0  0
   37.3200   24.9930   37.2940 H   0  0  0  0  0  0  0  0  0  0  0  0
   39.0730   25.2860   37.2940 H   0  0  0  0  0  0  0  0  0  0  0  0
   38.4800   23.9280   35.7840 C   0  0  0  0  0  0  0  0  0  0  0  0
   37.6540   23.2190   35.9620 H   0  0  0  0  0  0  0  0  0  0  0  0
   38.4510   24.1990   34.7200 H   0  0  0  0  0  0  0  0  0  0  0  0
   39.7580   23.2940   36.1760 C   0  0  0  0  0  0  0  0  0  0  0  0
   40.8760   23.7820   35.5410 C   0  0  0  0  0  0  0  0  0  0  0  0
   40.8260   24.5870   34.7960 H   0  0  0  0  0  0  0  0  0  0  0  0
   42.1630   23.3400   35.7530 C   0  0  0  0  0  0  0  0  0  0  0  0
   43.0370   23.7080   35.2700 H   0  0  0  0  0  0  0  0  0  0  0  0
   42.3260   22.3130   36.6900 C   0  0  0  0  0  3  0  0  0  0  0  0
   41.1700   21.8360   37.3190 C   0  0  0  0  0  3  0  0  0  0  0  0
   39.9170   22.3130   37.0700 N   0  0  0  0  0  0  0  0  0  0  0  0
  1  4  1  6  0  0  0
  1  2  1  0  0  0  0
  1  3  1  0  0  0  0
  2  5  1  0  0  0  0
  2  3  1  0  0  0  0
  3  7  1  1  0  0  0
  3 20  1  0  0  0  0
  6  2  1  0  0  0  0
  8 10  1  0  0  0  0
  8  1  1  0  0  0  0
  9  8  1  0  0  0  0
 11 17  1  0  0  0  0
 11 12  1  0  0  0  0
 12 18  1  0  0  0  0
 13 12  2  0  0  0  0
 13  8  1  0  0  0  0
 14 13  1  0  0  0  0
 15 16  1  0  0  0  0
 15 14  2  0  0  0  0
 16 11  2  0  0  0  0
 19 15  1  0  0  0  0
 20 21  1  0  0  0  0
 20 22  1  0  0  0  0
 23 24  1  0  0  0  0
 23 26  1  0  0  0  0
 23 20  1  0  0  0  0
 25 23  1  0  0  0  0
 26 33  1  0  0  0  0
 27 29  1  0  0  0  0
 27 26  2  0  0  0  0
 28 27  1  0  0  0  0
 29 31  2  0  0  0  0
 30 29  1  0  0  0  0
 31 32  1  0  0  0  0
 33 32  2  0  0  0  0
M  END
>  <minimizedAffinity>
-4.68784571

$$$$

 OpenBabel03262520473D

 33 35  0  0  1  0  0  0  0  0999 V2000
   37.5290   26.2600   34.9350 C   0  0  1  0  0  0  0  0  0  0  0  0
   38.3850   27.4750   35.2650 C   0  0  0  0  0  0  0  0  0  0  0  0
   37.7110   27.3500   33.9590 C   0  0  2  0  0  0  0  0  0  0  0  0
   36.5640   26.1370   35.4480 H   0  0  0  0  0  0  0  0  0  0  0  0
   37.9550   28.2510   35.9540 H   0  0  0  0  0  0  0  0  0  0  0  0
   39.4660   27.3590   35.3580 H   0  0  0  0  0  0  0  0  0  0  0  0
   38.4090   27.1230   33.1090 H   0  0  0  0  0  0  0  0  0  0  0  0
   38.2940   24.9640   34.8050 C   0  0  0  0  0  0  0  0  0  0  0  0
   39.2840   25.1950   34.3650 H   0  0  0  0  0  0  0  0  0  0  0  0
   37.7570   24.3010   34.0870 H   0  0  0  0  0  0  0  0  0  0  0  0
   39.8630   22.8810   37.4770 C   0  0  0  0  0  0  0  0  0  0  0  0
   39.6190   23.5220   36.2350 C   0  0  0  0  0  0  0  0  0  0  0  0
   38.5100   24.3180   36.1150 C   0  0  0  0  0  0  0  0  0  0  0  0
   37.6980   24.4590   37.1760 N   0  0  0  0  0  0  0  0  0  0  0  0
   37.9440   23.8460   38.3450 C   0  0  0  0  0  0  0  0  0  0  0  0
   39.0190   23.0660   38.4840 N   0  0  0  0  0  0  0  0  0  0  0  0
   40.7280   22.2450   37.6140 H   0  0  0  0  0  0  0  0  0  0  0  0
   40.3650   23.3080   35.4780 H   0  0  0  0  0  0  0  0  0  0  0  0
   37.1540   24.1040   39.0630 H   0  0  0  0  0  0  0  0  0  0  0  0
   36.4670   28.1170   33.6040 C   0  0  0  0  0  0  0  0  0  0  0  0
   36.5850   29.2160   33.6850 H   0  0  0  0  0  0  0  0  0  0  0  0
   35.6740   27.8400   34.3430 H   0  0  0  0  0  0  0  0  0  0  0  0
   35.9050   27.7280   32.2430 C   0  0  0  0  0  0  0  0  0  0  0  0
   36.2230   26.6900   32.0510 H   0  0  0  0  0  0  0  0  0  0  0  0
   34.8080   27.7280   32.2930 H   0  0  0  0  0  0  0  0  0  0  0  0
   36.4250   28.6020   31.1680 C   0  0  0  0  0  0  0  0  0  0  0  0
   36.3830   29.9500   31.4340 C   0  0  0  0  0  0  0  0  0  0  0  0
   35.9920   30.3520   32.3770 H   0  0  0  0  0  0  0  0  0  0  0  0
   36.8140   30.9400   30.5780 C   0  0  0  0  0  0  0  0  0  0  0  0
   36.7880   31.9860   30.7700 H   0  0  0  0  0  0  0  0  0  0  0  0
   37.3310   30.5210   29.3470 C   0  0  0  0  0  3  0  0  0  0  0  0
   37.3610   29.1430   29.1050 C   0  0  0  0  0  3  0  0  0  0  0  0
   36.9200   28.2050   29.9900 N   0  0  0  0  0  0  0  0  0  0  0  0
  1  2  1  0  0  0  0
  1  4  1  1  0  0  0
  2  6  1  0  0  0  0
  2  5  1  0  0  0  0
  3  7  1  6  0  0  0
  3  1  1  0  0  0  0
  3  2  1  0  0  0  0
  8  1  1  0  0  0  0
  8 13  1  0  0  0  0
  9  8  1  0  0  0  0
 10  8  1  0  0  0  0
 11 17  1  0  0  0  0
 11 16  1  0  0  0  0
 12 11  2  0  0  0  0
 13 12  1  0  0  0  0
 13 14  2  0  0  0  0
 14 15  1  0  0  0  0
 15 16  2  0  0  0  0
 15 19  1  0  0  0  0
 18 12  1  0  0  0  0
 20 21  1  0  0  0  0
 20  3  1  0  0  0  0
 20 22  1  0  0  0  0
 23 25  1  0  0  0  0
 23 20  1  0  0  0  0
 24 23  1  0  0  0  0
 26 27  1  0  0  0  0
 26 23  1  0  0  0  0
 27 28  1  0  0  0  0
 29 30  1  0  0  0  0
 29 27  2  0  0  0  0
 31 29  1  0  0  0  0
 32 31  2  0  0  0  0
 32 33  1  0  0  0  0
 33 26  2  0  0  0  0
M  END
>  <minimizedAffinity>
-4.63320255

$$$$

 OpenBabel03262520473D

 33 35  0  0  1  0  0  0  0  0999 V2000
   37.0030   23.8070   32.0480 C   0  0  1  0  0  0  0  0  0  0  0  0
   37.4210   25.0660   31.3010 C   0  0  0  0  0  0  0  0  0  0  0  0
   37.0280   25.1190   32.7210 C   0  0  2  0  0  0  0  0  0  0  0  0
   37.7670   23.0530   32.2850 H   0  0  0  0  0  0  0  0  0  0  0  0
   38.5160   25.2200   31.1010 H   0  0  0  0  0  0  0  0  0  0  0  0
   36.7730   25.4640   30.5180 H   0  0  0  0  0  0  0  0  0  0  0  0
   36.0230   25.5890   32.8950 H   0  0  0  0  0  0  0  0  0  0  0  0
   35.7020   23.1980   31.5810 C   0  0  0  0  0  0  0  0  0  0  0  0
   35.4720   23.6090   30.5790 H   0  0  0  0  0  0  0  0  0  0  0  0
   34.8860   23.5220   32.2690 H   0  0  0  0  0  0  0  0  0  0  0  0
   34.9060   19.5830   32.0740 C   0  0  0  0  0  0  0  0  0  0  0  0
   34.8560   20.9990   32.1550 C   0  0  0  0  0  0  0  0  0  0  0  0
   35.7910   21.7280   31.4680 C   0  0  0  0  0  0  0  0  0  0  0  0
   36.7170   21.0750   30.7470 N   0  0  0  0  0  0  0  0  0  0  0  0
   36.7510   19.7350   30.6800 C   0  0  0  0  0  0  0  0  0  0  0  0
   35.8500   19.0050   31.3410 N   0  0  0  0  0  0  0  0  0  0  0  0
   34.1870   18.9700   32.6010 H   0  0  0  0  0  0  0  0  0  0  0  0
   34.0510   21.3730   32.7770 H   0  0  0  0  0  0  0  0  0  0  0  0
   37.5860   19.4240   30.0380 H   0  0  0  0  0  0  0  0  0  0  0  0
   38.0220   25.2540   33.8410 C   0  0  0  0  0  0  0  0  0  0  0  0
   37.5880   25.6660   34.7740 H   0  0  0  0  0  0  0  0  0  0  0  0
   38.8010   25.9890   33.5170 H   0  0  0  0  0  0  0  0  0  0  0  0
   38.7770   23.9600   34.1170 C   0  0  0  0  0  0  0  0  0  0  0  0
   38.2020   23.1470   33.6430 H   0  0  0  0  0  0  0  0  0  0  0  0
   39.7550   23.9990   33.6180 H   0  0  0  0  0  0  0  0  0  0  0  0
   38.8900   23.6930   35.5680 C   0  0  0  0  0  0  0  0  0  0  0  0
   37.9420   24.3060   36.3540 C   0  0  0  0  0  0  0  0  0  0  0  0
   37.1560   24.9470   35.9360 H   0  0  0  0  0  0  0  0  0  0  0  0
   37.8580   24.1950   37.7240 C   0  0  0  0  0  0  0  0  0  0  0  0
   37.1310   24.6620   38.3450 H   0  0  0  0  0  0  0  0  0  0  0  0
   38.8210   23.3940   38.3470 C   0  0  0  0  0  3  0  0  0  0  0  0
   39.7740   22.7840   37.5220 C   0  0  0  0  0  3  0  0  0  0  0  0
   39.8090   22.9280   36.1670 N   0  0  0  0  0  0  0  0  0  0  0  0
  1  4  1  1  0  0  0
  1  3  1  0  0  0  0
  2  1  1  0  0  0  0
  2  3  1  0  0  0  0
  3  7  1  1  0  0  0
  3 20  1  0  0  0  0
  5  2  1  0  0  0  0
  6  2  1  0  0  0  0
  8  1  1  0  0  0  0
  8 10  1  0  0  0  0
  9  8  1  0  0  0  0
 11 12  1  0  0  0  0
 11 17  1  0  0  0  0
 12 18  1  0  0  0  0
 13  8  1  0  0  0  0
 13 12  2  0  0  0  0
 14 13  1  0  0  0  0
 15 14  2  0  0  0  0
 15 16  1  0  0  0  0
 16 11  2  0  0  0  0
 19 15  1  0  0  0  0
 20 23  1  0  0  0  0
 20 21  1  0  0  0  0
 22 20  1  0  0  0  0
 23 26  1  0  0  0  0
 24 23  1  0  0  0  0
 25 23  1  0  0  0  0
 26 33  2  0  0  0  0
 26 27  1  0  0  0  0
 27 29  2  0  0  0  0
 28 27  1  0  0  0  0
 29 30  1  0  0  0  0
 29 31  1  0  0  0  0
 32 31  2  0  0  0  0
 33 32  1  0  0  0  0
M  END
>  <minimizedAffinity>
-4.58861923

$$$$

 OpenBabel03262520473D

 33 35  0  0  1  0  0  0  0  0999 V2000
   38.1840   26.0060   34.6780 C   0  0  1  0  0  0  0  0  0  0  0  0
   39.2650   27.0460   34.4160 C   0  0  0  0  0  0  0  0  0  0  0  0
   38.2210   26.7640   33.4140 C   0  0  2  0  0  0  0  0  0  0  0  0
   37.4100   26.2230   35.4280 H   0  0  0  0  0  0  0  0  0  0  0  0
   39.1760   28.0390   34.9340 H   0  0  0  0  0  0  0  0  0  0  0  0
   40.2960   26.7210   34.2670 H   0  0  0  0  0  0  0  0  0  0  0  0
   38.5920   26.1930   32.5210 H   0  0  0  0  0  0  0  0  0  0  0  0
   38.6810   24.5810   34.7440 C   0  0  0  0  0  0  0  0  0  0  0  0
   39.6870   24.5480   34.2820 H   0  0  0  0  0  0  0  0  0  0  0  0
   38.0100   23.9370   34.1280 H   0  0  0  0  0  0  0  0  0  0  0  0
   37.9790   24.1780   38.3890 C   0  0  0  0  0  0  0  0  0  0  0  0
   37.9020   24.6120   37.0400 C   0  0  0  0  0  0  0  0  0  0  0  0
   38.7970   24.1020   36.1360 C   0  0  0  0  0  0  0  0  0  0  0  0
   39.7100   23.2130   36.5610 N   0  0  0  0  0  0  0  0  0  0  0  0
   39.7680   22.8130   37.8420 C   0  0  0  0  0  0  0  0  0  0  0  0
   38.9070   23.2970   38.7390 N   0  0  0  0  0  0  0  0  0  0  0  0
   37.2910   24.5570   39.1350 H   0  0  0  0  0  0  0  0  0  0  0  0
   37.1130   25.3310   36.8560 H   0  0  0  0  0  0  0  0  0  0  0  0
   40.5860   22.0890   37.9590 H   0  0  0  0  0  0  0  0  0  0  0  0
   37.0510   27.6780   33.1720 C   0  0  0  0  0  0  0  0  0  0  0  0
   36.2660   27.2340   32.5270 H   0  0  0  0  0  0  0  0  0  0  0  0
   37.4290   28.5750   32.6210 H   0  0  0  0  0  0  0  0  0  0  0  0
   36.4510   28.2200   34.4630 C   0  0  0  0  0  0  0  0  0  0  0  0
   35.8890   27.3920   34.9270 H   0  0  0  0  0  0  0  0  0  0  0  0
   37.2630   28.4880   35.1530 H   0  0  0  0  0  0  0  0  0  0  0  0
   35.5290   29.3480   34.2050 C   0  0  0  0  0  0  0  0  0  0  0  0
   35.6980   30.4450   35.0170 C   0  0  0  0  0  0  0  0  0  0  0  0
   36.4640   30.4840   35.8010 H   0  0  0  0  0  0  0  0  0  0  0  0
   34.9520   31.6010   34.9510 C   0  0  0  0  0  0  0  0  0  0  0  0
   35.0720   32.4570   35.5710 H   0  0  0  0  0  0  0  0  0  0  0  0
   33.9490   31.6440   33.9760 C   0  0  0  0  0  3  0  0  0  0  0  0
   33.7990   30.5120   33.1650 C   0  0  0  0  0  3  0  0  0  0  0  0
   34.5680   29.3920   33.2750 N   0  0  0  0  0  0  0  0  0  0  0  0
  1  8  1  0  0  0  0
  1  4  1  1  0  0  0
  2  1  1  0  0  0  0
  2  5  1  0  0  0  0
  3  7  1  6  0  0  0
  3  2  1  0  0  0  0
  3  1  1  0  0  0  0
  6  2  1  0  0  0  0
  8 13  1  0  0  0  0
  9  8  1  0  0  0  0
 10  8  1  0  0  0  0
 11 16  1  0  0  0  0
 11 17  1  0  0  0  0
 12 11  2  0  0  0  0
 13 14  2  0  0  0  0
 13 12  1  0  0  0  0
 14 15  1  0  0  0  0
 15 19  1  0  0  0  0
 15 16  2  0  0  0  0
 18 12  1  0  0  0  0
 20  3  1  0  0  0  0
 20 23  1  0  0  0  0
 21 20  1  0  0  0  0
 22 20  1  0  0  0  0
 23 24  1  0  0  0  0
 23 25  1  0  0  0  0
 26 23  1  0  0  0  0
 26 27  1  0  0  0  0
 27 28  1  0  0  0  0
 29 27  2  0  0  0  0
 29 30  1  0  0  0  0
 31 29  1  0  0  0  0
 32 33  1  0  0  0  0
 32 31  2  0  0  0  0
 33 26  2  0  0  0  0
M  END
>  <minimizedAffinity>
-4.57971478

$$$$

 OpenBabel03262520473D

 33 35  0  0  1  0  0  0  0  0999 V2000
   39.2090   26.4530   32.7210 C   0  0  1  0  0  0  0  0  0  0  0  0
   40.4880   27.1860   32.3400 C   0  0  0  0  0  0  0  0  0  0  0  0
   40.0330   27.1260   33.7420 C   0  0  2  0  0  0  0  0  0  0  0  0
   39.1900   25.3550   32.6650 H   0  0  0  0  0  0  0  0  0  0  0  0
   41.3980   26.5690   32.1050 H   0  0  0  0  0  0  0  0  0  0  0  0
   40.4240   28.1100   31.7620 H   0  0  0  0  0  0  0  0  0  0  0  0
   39.6230   28.0980   34.1260 H   0  0  0  0  0  0  0  0  0  0  0  0
   37.9390   27.0880   32.2050 C   0  0  0  0  0  0  0  0  0  0  0  0
   38.1960   27.6890   31.3110 H   0  0  0  0  0  0  0  0  0  0  0  0
   37.5490   27.7910   32.9780 H   0  0  0  0  0  0  0  0  0  0  0  0
   36.3080   23.7640   31.7200 C   0  0  0  0  0  0  0  0  0  0  0  0
   37.2420   24.7690   32.0840 C   0  0  0  0  0  0  0  0  0  0  0  0
   36.9390   26.0770   31.8080 C   0  0  0  0  0  0  0  0  0  0  0  0
   35.7730   26.3560   31.2040 N   0  0  0  0  0  0  0  0  0  0  0  0
   34.9000   25.3930   30.8660 C   0  0  0  0  0  0  0  0  0  0  0  0
   35.1740   24.1130   31.1250 N   0  0  0  0  0  0  0  0  0  0  0  0
   36.5090   22.7200   31.9200 H   0  0  0  0  0  0  0  0  0  0  0  0
   38.1350   24.3830   32.5630 H   0  0  0  0  0  0  0  0  0  0  0  0
   34.0230   25.8500   30.3880 H   0  0  0  0  0  0  0  0  0  0  0  0
   40.6600   26.2230   34.7670 C   0  0  0  0  0  0  0  0  0  0  0  0
   40.4970   26.5560   35.8120 H   0  0  0  0  0  0  0  0  0  0  0  0
   41.7670   26.2460   34.6090 H   0  0  0  0  0  0  0  0  0  0  0  0
   40.2570   24.7640   34.5920 C   0  0  0  0  0  0  0  0  0  0  0  0
   39.4370   24.7460   33.8540 H   0  0  0  0  0  0  0  0  0  0  0  0
   41.0980   24.2080   34.1560 H   0  0  0  0  0  0  0  0  0  0  0  0
   39.7810   24.1730   35.8620 C   0  0  0  0  0  0  0  0  0  0  0  0
   38.5840   24.6660   36.3270 C   0  0  0  0  0  0  0  0  0  0  0  0
   38.0200   25.4420   35.7940 H   0  0  0  0  0  0  0  0  0  0  0  0
   37.9580   24.2610   37.4850 C   0  0  0  0  0  0  0  0  0  0  0  0
   37.0320   24.6310   37.8570 H   0  0  0  0  0  0  0  0  0  0  0  0
   38.6040   23.2700   38.2330 C   0  0  0  0  0  3  0  0  0  0  0  0
   39.8210   22.7890   37.7350 C   0  0  0  0  0  3  0  0  0  0  0  0
   40.3960   23.2270   36.5790 N   0  0  0  0  0  0  0  0  0  0  0  0
  1  4  1  6  0  0  0
  1  3  1  0  0  0  0
  2  1  1  0  0  0  0
  2  3  1  0  0  0  0
  3  7  1  1  0  0  0
  3 20  1  0  0  0  0
  5  2  1  0  0  0  0
  6  2  1  0  0  0  0
  8  1  1  0  0  0  0
  8 10  1  0  0  0  0
  9  8  1  0  0  0  0
 11 17  1  0  0  0  0
 11 12  1  0  0  0  0
 12 18  1  0  0  0  0
 13 12  2  0  0  0  0
 13  8  1  0  0  0  0
 14 13  1  0  0  0  0
 15 16  1  0  0  0  0
 15 14  2  0  0  0  0
 16 11  2  0  0  0  0
 19 15  1  0  0  0  0
 20 21  1  0  0  0  0
 22 20  1  0  0  0  0
 23 20  1  0  0  0  0
 23 26  1  0  0  0  0
 24 23  1  0  0  0  0
 25 23  1  0  0  0  0
 26 27  2  0  0  0  0
 26 33  1  0  0  0  0
 27 29  1  0  0  0  0
 28 27  1  0  0  0  0
 29 30  1  0  0  0  0
 29 31  2  0  0  0  0
 32 31  1  0  0  0  0
 33 32  2  0  0  0  0
M  END
>  <minimizedAffinity>
-4.57250023

$$$$

 OpenBabel03262520473D

 33 35  0  0  1  0  0  0  0  0999 V2000
   37.0900   27.2960   32.7460 C   0  0  1  0  0  0  0  0  0  0  0  0
   36.5250   28.6790   33.0380 C   0  0  0  0  0  0  0  0  0  0  0  0
   36.5620   27.6360   34.0800 C   0  0  2  0  0  0  0  0  0  0  0  0
   38.1730   27.1870   32.5950 H   0  0  0  0  0  0  0  0  0  0  0  0
   37.2510   29.5250   33.1800 H   0  0  0  0  0  0  0  0  0  0  0  0
   35.5850   28.9820   32.5740 H   0  0  0  0  0  0  0  0  0  0  0  0
   35.5550   27.2030   34.3240 H   0  0  0  0  0  0  0  0  0  0  0  0
   36.2760   26.4720   31.7750 C   0  0  0  0  0  0  0  0  0  0  0  0
   36.6160   26.7180   30.7500 H   0  0  0  0  0  0  0  0  0  0  0  0
   35.2060   26.7780   31.8540 H   0  0  0  0  0  0  0  0  0  0  0  0
   35.6830   22.7910   31.5980 C   0  0  0  0  0  0  0  0  0  0  0  0
   35.5390   24.1900   31.4160 C   0  0  0  0  0  0  0  0  0  0  0  0
   36.4640   25.0240   31.9900 C   0  0  0  0  0  0  0  0  0  0  0  0
   37.4670   24.4840   32.7000 N   0  0  0  0  0  0  0  0  0  0  0  0
   37.5890   23.1560   32.8620 C   0  0  0  0  0  0  0  0  0  0  0  0
   36.7000   22.3260   32.3130 N   0  0  0  0  0  0  0  0  0  0  0  0
   34.9750   22.0980   31.1610 H   0  0  0  0  0  0  0  0  0  0  0  0
   34.6790   24.4680   30.8180 H   0  0  0  0  0  0  0  0  0  0  0  0
   38.4760   22.9450   33.4750 H   0  0  0  0  0  0  0  0  0  0  0  0
   37.5700   27.6310   35.1960 C   0  0  0  0  0  0  0  0  0  0  0  0
   37.1890   27.1860   36.1380 H   0  0  0  0  0  0  0  0  0  0  0  0
   37.8140   28.6950   35.4390 H   0  0  0  0  0  0  0  0  0  0  0  0
   38.8940   26.9950   34.7910 C   0  0  0  0  0  0  0  0  0  0  0  0
   38.8600   26.8560   33.6970 H   0  0  0  0  0  0  0  0  0  0  0  0
   39.7110   27.6960   35.0040 H   0  0  0  0  0  0  0  0  0  0  0  0
   39.0880   25.6800   35.4410 C   0  0  0  0  0  0  0  0  0  0  0  0
   38.1570   25.3540   36.3990 C   0  0  0  0  0  0  0  0  0  0  0  0
   37.3270   26.0200   36.6640 H   0  0  0  0  0  0  0  0  0  0  0  0
   38.1460   24.1840   37.1260 C   0  0  0  0  0  0  0  0  0  0  0  0
   37.4330   23.9170   37.8690 H   0  0  0  0  0  0  0  0  0  0  0  0
   39.1700   23.2690   36.8550 C   0  0  0  0  0  3  0  0  0  0  0  0
   40.1030   23.6290   35.8760 C   0  0  0  0  0  3  0  0  0  0  0  0
   40.0650   24.8030   35.1850 N   0  0  0  0  0  0  0  0  0  0  0  0
  1  4  1  6  0  0  0
  1  2  1  0  0  0  0
  1  3  1  0  0  0  0
  2  5  1  0  0  0  0
  2  3  1  0  0  0  0
  3  7  1  1  0  0  0
  3 20  1  0  0  0  0
  6  2  1  0  0  0  0
  8 10  1  0  0  0  0
  8 13  1  0  0  0  0
  8  1  1  0  0  0  0
  9  8  1  0  0  0  0
 11 16  1  0  0  0  0
 12 11  2  0  0  0  0
 12 13  1  0  0  0  0
 13 14  2  0  0  0  0
 14 15  1  0  0  0  0
 15 19  1  0  0  0  0
 16 15  2  0  0  0  0
 17 11  1  0  0  0  0
 18 12  1  0  0  0  0
 20 22  1  0  0  0  0
 20 21  1  0  0  0  0
 23 25  1  0  0  0  0
 23 20  1  0  0  0  0
 23 26  1  0  0  0  0
 24 23  1  0  0  0  0
 26 27  1  0  0  0  0
 27 28  1  0  0  0  0
 27 29  2  0  0  0  0
 29 30  1  0  0  0  0
 31 29  1  0  0  0  0
 32 31  2  0  0  0  0
 33 26  2  0  0  0  0
 33 32  1  0  0  0  0
M  END
>  <minimizedAffinity>
-4.56498146

$$$$
