
 OpenBabel03272507383D

 22 23  0  0  0  0  0  0  0  0999 V2000
   39.6750   23.6420   35.5890 C   0  0  0  0  0  0  0  0  0  0  0  0
   39.5580   22.9330   36.7930 C   0  0  0  0  0  0  0  0  0  0  0  0
   40.6980   22.5250   37.4420 C   0  0  0  0  0  0  0  0  0  0  0  0
   41.8990   22.8370   36.8710 N   0  0  0  0  0  0  0  0  0  0  0  0
   42.0050   23.5170   35.7160 C   0  0  0  0  0  0  0  0  0  0  0  0
   40.9000   23.9070   35.0950 N   0  0  0  0  0  0  0  0  0  0  0  0
   40.6730   21.9760   38.3730 H   0  0  0  0  0  0  0  0  0  0  0  0
   42.9700   23.7510   35.2850 H   0  0  0  0  0  0  0  0  0  0  0  0
   37.7980   23.4510   38.3760 C   0  0  0  0  0  0  0  0  0  0  0  0
   38.1060   24.5910   38.8890 O   0  0  0  0  0  0  0  0  0  0  0  0
   38.3470   22.6000   37.4000 N   0  0  0  0  0  0  0  0  0  0  0  0
   36.9300   23.4470   39.0340 H   0  0  0  0  0  0  0  0  0  0  0  0
   37.6860   21.8160   37.3090 H   0  0  0  0  0  0  0  0  0  0  0  0
   38.4510   23.9840   35.0530 O   0  0  0  0  0  0  0  0  0  0  0  0
   38.0450   25.2930   34.8450 C   0  0  0  0  0  0  0  0  0  0  0  0
   38.2870   26.2260   35.8190 C   0  0  0  0  0  0  0  0  0  0  0  0
   38.7800   26.0090   36.7550 H   0  0  0  0  0  0  0  0  0  0  0  0
   37.8390   27.5000   35.5060 C   0  0  0  0  0  0  0  0  0  0  0  0
   37.9920   28.3120   36.2330 H   0  0  0  0  0  0  0  0  0  0  0  0
   37.2020   27.8570   34.3350 C   0  0  0  0  0  3  0  0  0  0  0  0
   37.0240   26.8170   33.4410 C   0  0  0  0  0  3  0  0  0  0  0  0
   37.4280   25.5570   33.6700 N   0  0  0  0  0  0  0  0  0  0  0  0
  1  2  1  0  0  0  0
  2 11  1  0  0  0  0
  2  3  2  0  0  0  0
  3  7  1  0  0  0  0
  4  3  1  0  0  0  0
  5  4  2  0  0  0  0
  6  1  2  0  0  0  0
  6  5  1  0  0  0  0
  8  5  1  0  0  0  0
  9 10  2  0  0  0  0
  9 12  1  0  0  0  0
 11  9  1  0  0  0  0
 13 11  1  0  0  0  0
 14  1  1  0  0  0  0
 15 14  1  0  0  0  0
 15 16  1  0  0  0  0
 16 17  1  0  0  0  0
 18 16  2  0  0  0  0
 18 19  1  0  0  0  0
 20 18  1  0  0  0  0
 21 22  1  0  0  0  0
 21 20  2  0  0  0  0
 22 15  2  0  0  0  0
M  END
>  <minimizedAffinity>
-4.66973495

$$$$

 OpenBabel03272507383D

 22 23  0  0  0  0  0  0  0  0999 V2000
   38.1930   24.0060   34.3790 C   0  0  0  0  0  0  0  0  0  0  0  0
   38.0560   24.9440   35.4120 C   0  0  0  0  0  0  0  0  0  0  0  0
   37.9940   24.5030   36.7120 C   0  0  0  0  0  0  0  0  0  0  0  0
   38.0710   23.1570   36.9280 N   0  0  0  0  0  0  0  0  0  0  0  0
   38.2030   22.2620   35.9340 C   0  0  0  0  0  0  0  0  0  0  0  0
   38.2610   22.6960   34.6820 N   0  0  0  0  0  0  0  0  0  0  0  0
   37.8890   25.1760   37.5510 H   0  0  0  0  0  0  0  0  0  0  0  0
   38.2610   21.1990   36.1340 H   0  0  0  0  0  0  0  0  0  0  0  0
   39.1530   27.0840   35.1070 C   0  0  0  0  0  0  0  0  0  0  0  0
   40.4150   26.8350   35.0810 O   0  0  0  0  0  0  0  0  0  0  0  0
   37.9750   26.3230   35.2220 N   0  0  0  0  0  0  0  0  0  0  0  0
   39.4100   28.1360   35.0020 H   0  0  0  0  0  0  0  0  0  0  0  0
   37.1990   26.9960   35.1350 H   0  0  0  0  0  0  0  0  0  0  0  0
   38.2410   24.5940   33.1320 O   0  0  0  0  0  0  0  0  0  0  0  0
   37.1210   24.8250   32.3500 C   0  0  0  0  0  0  0  0  0  0  0  0
   36.4670   23.7560   31.7950 C   0  0  0  0  0  0  0  0  0  0  0  0
   36.7690   22.7280   31.9260 H   0  0  0  0  0  0  0  0  0  0  0  0
   35.3610   24.1030   31.0330 C   0  0  0  0  0  0  0  0  0  0  0  0
   34.7770   23.3050   30.5490 H   0  0  0  0  0  0  0  0  0  0  0  0
   34.9120   25.3890   30.8180 C   0  0  0  0  0  3  0  0  0  0  0  0
   35.6660   26.3690   31.4370 C   0  0  0  0  0  3  0  0  0  0  0  0
   36.7490   26.1150   32.1900 N   0  0  0  0  0  0  0  0  0  0  0  0
  1  6  2  0  0  0  0
  1  2  1  0  0  0  0
  2  3  2  0  0  0  0
  3  4  1  0  0  0  0
  3  7  1  0  0  0  0
  5  8  1  0  0  0  0
  5  4  2  0  0  0  0
  6  5  1  0  0  0  0
  9 11  1  0  0  0  0
 10  9  2  0  0  0  0
 11  2  1  0  0  0  0
 12  9  1  0  0  0  0
 13 11  1  0  0  0  0
 14  1  1  0  0  0  0
 15 14  1  0  0  0  0
 16 17  1  0  0  0  0
 16 15  2  0  0  0  0
 18 16  1  0  0  0  0
 19 18  1  0  0  0  0
 20 18  2  0  0  0  0
 20 21  1  0  0  0  0
 21 22  2  0  0  0  0
 22 15  1  0  0  0  0
M  END
>  <minimizedAffinity>
-4.3080039

$$$$

 OpenBabel03272507383D

 22 23  0  0  0  0  0  0  0  0999 V2000
   39.4690   24.3920   35.4300 C   0  0  0  0  0  0  0  0  0  0  0  0
   38.4300   24.9300   36.2020 C   0  0  0  0  0  0  0  0  0  0  0  0
   38.2910   26.2950   36.2770 C   0  0  0  0  0  0  0  0  0  0  0  0
   39.1850   27.0620   35.5850 N   0  0  0  0  0  0  0  0  0  0  0  0
   40.1780   26.5410   34.8450 C   0  0  0  0  0  0  0  0  0  0  0  0
   40.3060   25.2220   34.7790 N   0  0  0  0  0  0  0  0  0  0  0  0
   37.5120   26.7700   36.8560 H   0  0  0  0  0  0  0  0  0  0  0  0
   40.8730   27.1720   34.3060 H   0  0  0  0  0  0  0  0  0  0  0  0
   37.7600   23.8480   38.2650 C   0  0  0  0  0  0  0  0  0  0  0  0
   38.6810   24.1180   39.1220 O   0  0  0  0  0  0  0  0  0  0  0  0
   37.5050   24.1740   36.9200 N   0  0  0  0  0  0  0  0  0  0  0  0
   37.2760   23.2630   39.0440 H   0  0  0  0  0  0  0  0  0  0  0  0
   36.5920   23.7490   36.6980 H   0  0  0  0  0  0  0  0  0  0  0  0
   39.4850   23.0130   35.4490 O   0  0  0  0  0  0  0  0  0  0  0  0
   40.5840   22.2640   35.8360 C   0  0  0  0  0  0  0  0  0  0  0  0
   40.7710   21.9990   37.1680 C   0  0  0  0  0  0  0  0  0  0  0  0
   40.1090   22.3400   37.9500 H   0  0  0  0  0  0  0  0  0  0  0  0
   41.9010   21.2430   37.4420 C   0  0  0  0  0  0  0  0  0  0  0  0
   42.1270   20.9840   38.4870 H   0  0  0  0  0  0  0  0  0  0  0  0
   42.7920   20.7720   36.5000 C   0  0  0  0  0  3  0  0  0  0  0  0
   42.4820   21.1130   35.1970 C   0  0  0  0  0  3  0  0  0  0  0  0
   41.4080   21.8410   34.8500 N   0  0  0  0  0  0  0  0  0  0  0  0
  1 14  1  0  0  0  0
  1  2  1  0  0  0  0
  2  3  2  0  0  0  0
  2 11  1  0  0  0  0
  3  7  1  0  0  0  0
  4  3  1  0  0  0  0
  5  4  2  0  0  0  0
  6  5  1  0  0  0  0
  6  1  2  0  0  0  0
  8  5  1  0  0  0  0
  9 12  1  0  0  0  0
  9 10  2  0  0  0  0
 11  9  1  0  0  0  0
 13 11  1  0  0  0  0
 14 15  1  0  0  0  0
 15 16  1  0  0  0  0
 16 18  2  0  0  0  0
 16 17  1  0  0  0  0
 18 19  1  0  0  0  0
 20 18  1  0  0  0  0
 21 20  2  0  0  0  0
 22 21  1  0  0  0  0
 22 15  2  0  0  0  0
M  END
>  <minimizedAffinity>
-4.22990656

$$$$

 OpenBabel03272507383D

 22 23  0  0  0  0  0  0  0  0999 V2000
   38.1400   23.8880   34.4710 C   0  0  0  0  0  0  0  0  0  0  0  0
   38.4150   23.5630   35.8070 C   0  0  0  0  0  0  0  0  0  0  0  0
   38.3570   24.5500   36.7600 C   0  0  0  0  0  0  0  0  0  0  0  0
   38.0290   25.8100   36.3480 N   0  0  0  0  0  0  0  0  0  0  0  0
   37.7650   26.1160   35.0670 C   0  0  0  0  0  0  0  0  0  0  0  0
   37.8240   25.1570   34.1520 N   0  0  0  0  0  0  0  0  0  0  0  0
   38.5590   24.3630   37.8060 H   0  0  0  0  0  0  0  0  0  0  0  0
   37.5080   27.1240   34.7670 H   0  0  0  0  0  0  0  0  0  0  0  0
   40.0920   21.9880   36.5700 C   0  0  0  0  0  0  0  0  0  0  0  0
   41.2010   22.6400   36.6050 O   0  0  0  0  0  0  0  0  0  0  0  0
   38.7530   22.2870   36.2570 N   0  0  0  0  0  0  0  0  0  0  0  0
   40.6550   21.1130   36.8890 H   0  0  0  0  0  0  0  0  0  0  0  0
   38.2240   21.4210   36.4370 H   0  0  0  0  0  0  0  0  0  0  0  0
   38.2360   22.7990   33.6290 O   0  0  0  0  0  0  0  0  0  0  0  0
   37.1380   22.1310   33.1120 C   0  0  0  0  0  0  0  0  0  0  0  0
   36.7080   22.4400   31.8490 C   0  0  0  0  0  0  0  0  0  0  0  0
   37.1720   23.1810   31.2160 H   0  0  0  0  0  0  0  0  0  0  0  0
   35.6030   21.7120   31.4330 C   0  0  0  0  0  0  0  0  0  0  0  0
   35.1900   21.8960   30.4290 H   0  0  0  0  0  0  0  0  0  0  0  0
   34.9550   20.7500   32.1800 C   0  0  0  0  0  3  0  0  0  0  0  0
   35.4950   20.5390   33.4350 C   0  0  0  0  0  3  0  0  0  0  0  0
   36.5620   21.2030   33.9100 N   0  0  0  0  0  0  0  0  0  0  0  0
  1  2  1  0  0  0  0
  2 11  1  0  0  0  0
  2  3  2  0  0  0  0
  3  7  1  0  0  0  0
  4  3  1  0  0  0  0
  5  4  2  0  0  0  0
  6  1  2  0  0  0  0
  6  5  1  0  0  0  0
  8  5  1  0  0  0  0
  9 10  2  0  0  0  0
  9 12  1  0  0  0  0
 11 13  1  0  0  0  0
 11  9  1  0  0  0  0
 14  1  1  0  0  0  0
 15 14  1  0  0  0  0
 15 22  1  0  0  0  0
 16 15  2  0  0  0  0
 17 16  1  0  0  0  0
 18 16  1  0  0  0  0
 18 20  2  0  0  0  0
 19 18  1  0  0  0  0
 20 21  1  0  0  0  0
 21 22  2  0  0  0  0
M  END
>  <minimizedAffinity>
-4.19100809

$$$$

 OpenBabel03272507383D

 22 23  0  0  0  0  0  0  0  0999 V2000
   38.0390   23.9170   33.5430 C   0  0  0  0  0  0  0  0  0  0  0  0
   37.6430   25.0460   32.8120 C   0  0  0  0  0  0  0  0  0  0  0  0
   36.6480   24.9190   31.8730 C   0  0  0  0  0  0  0  0  0  0  0  0
   36.0920   23.6830   31.7020 N   0  0  0  0  0  0  0  0  0  0  0  0
   36.4750   22.6040   32.4060 C   0  0  0  0  0  0  0  0  0  0  0  0
   37.4370   22.7350   33.3100 N   0  0  0  0  0  0  0  0  0  0  0  0
   36.2990   25.7510   31.2790 H   0  0  0  0  0  0  0  0  0  0  0  0
   36.0180   21.6350   32.2500 H   0  0  0  0  0  0  0  0  0  0  0  0
   37.6120   27.2250   33.8710 C   0  0  0  0  0  0  0  0  0  0  0  0
   36.6460   27.1930   34.7210 O   0  0  0  0  0  0  0  0  0  0  0  0
   38.1920   26.3190   32.9640 N   0  0  0  0  0  0  0  0  0  0  0  0
   37.7750   28.2590   34.1710 H   0  0  0  0  0  0  0  0  0  0  0  0
   38.9900   26.8160   32.5430 H   0  0  0  0  0  0  0  0  0  0  0  0
   39.0450   24.1950   34.4460 O   0  0  0  0  0  0  0  0  0  0  0  0
   38.9500   23.9320   35.8030 C   0  0  0  0  0  0  0  0  0  0  0  0
   37.9310   24.5020   36.5200 C   0  0  0  0  0  0  0  0  0  0  0  0
   37.1830   25.1530   36.0940 H   0  0  0  0  0  0  0  0  0  0  0  0
   37.9310   24.1710   37.8660 C   0  0  0  0  0  0  0  0  0  0  0  0
   37.1470   24.5860   38.5170 H   0  0  0  0  0  0  0  0  0  0  0  0
   38.8500   23.3470   38.4850 C   0  0  0  0  0  3  0  0  0  0  0  0
   39.8230   22.8420   37.6430 C   0  0  0  0  0  3  0  0  0  0  0  0
   39.8900   23.1140   36.3290 N   0  0  0  0  0  0  0  0  0  0  0  0
  1 14  1  0  0  0  0
  2 11  1  0  0  0  0
  2  1  2  0  0  0  0
  3  2  1  0  0  0  0
  4  3  2  0  0  0  0
  4  5  1  0  0  0  0
  5  6  2  0  0  0  0
  6  1  1  0  0  0  0
  7  3  1  0  0  0  0
  8  5  1  0  0  0  0
  9 12  1  0  0  0  0
  9 10  2  0  0  0  0
 11  9  1  0  0  0  0
 13 11  1  0  0  0  0
 14 15  1  0  0  0  0
 15 22  2  0  0  0  0
 15 16  1  0  0  0  0
 16 18  2  0  0  0  0
 17 16  1  0  0  0  0
 18 20  1  0  0  0  0
 18 19  1  0  0  0  0
 21 20  2  0  0  0  0
 22 21  1  0  0  0  0
M  END
>  <minimizedAffinity>
-4.17091846

$$$$

 OpenBabel03272507383D

 22 23  0  0  0  0  0  0  0  0999 V2000
   38.5800   22.3400   35.8240 C   0  0  0  0  0  0  0  0  0  0  0  0
   39.8500   22.3130   36.4170 C   0  0  0  0  0  0  0  0  0  0  0  0
   40.0010   22.7920   37.6960 C   0  0  0  0  0  0  0  0  0  0  0  0
   38.8900   23.2740   38.3270 N   0  0  0  0  0  0  0  0  0  0  0  0
   37.6750   23.2970   37.7540 C   0  0  0  0  0  0  0  0  0  0  0  0
   37.5370   22.8330   36.5190 N   0  0  0  0  0  0  0  0  0  0  0  0
   40.9530   22.7990   38.2070 H   0  0  0  0  0  0  0  0  0  0  0  0
   36.8100   23.6850   38.2770 H   0  0  0  0  0  0  0  0  0  0  0  0
   41.9130   22.7280   35.2140 C   0  0  0  0  0  0  0  0  0  0  0  0
   42.0170   24.0070   35.1190 O   0  0  0  0  0  0  0  0  0  0  0  0
   41.0020   21.8280   35.7980 N   0  0  0  0  0  0  0  0  0  0  0  0
   42.8380   22.6610   34.6450 H   0  0  0  0  0  0  0  0  0  0  0  0
   41.3970   20.8900   35.6420 H   0  0  0  0  0  0  0  0  0  0  0  0
   38.5820   21.8280   34.5430 O   0  0  0  0  0  0  0  0  0  0  0  0
   37.5800   22.0750   33.6180 C   0  0  0  0  0  0  0  0  0  0  0  0
   36.5740   21.1570   33.4680 C   0  0  0  0  0  0  0  0  0  0  0  0
   36.5060   20.2380   34.0300 H   0  0  0  0  0  0  0  0  0  0  0  0
   35.6260   21.5050   32.5170 C   0  0  0  0  0  0  0  0  0  0  0  0
   34.7820   20.8240   32.3320 H   0  0  0  0  0  0  0  0  0  0  0  0
   35.6430   22.6590   31.7600 C   0  0  0  0  0  3  0  0  0  0  0  0
   36.7150   23.4950   32.0140 C   0  0  0  0  0  3  0  0  0  0  0  0
   37.6720   23.2290   32.9180 N   0  0  0  0  0  0  0  0  0  0  0  0
  1  2  2  0  0  0  0
  1  6  1  0  0  0  0
  2  3  1  0  0  0  0
  3  7  1  0  0  0  0
  3  4  2  0  0  0  0
  5  8  1  0  0  0  0
  5  4  1  0  0  0  0
  6  5  2  0  0  0  0
  9 11  1  0  0  0  0
 10  9  2  0  0  0  0
 11  2  1  0  0  0  0
 12  9  1  0  0  0  0
 13 11  1  0  0  0  0
 14  1  1  0  0  0  0
 15 14  1  0  0  0  0
 16 15  1  0  0  0  0
 16 17  1  0  0  0  0
 18 16  2  0  0  0  0
 19 18  1  0  0  0  0
 20 21  2  0  0  0  0
 20 18  1  0  0  0  0
 21 22  1  0  0  0  0
 22 15  2  0  0  0  0
M  END
>  <minimizedAffinity>
-4.15471745

$$$$

 OpenBabel03272507383D

 22 23  0  0  0  0  0  0  0  0999 V2000
   36.2440   28.6400   33.7620 C   0  0  0  0  0  0  0  0  0  0  0  0
   36.2020   28.0140   32.5080 C   0  0  0  0  0  0  0  0  0  0  0  0
   36.6550   26.7220   32.3900 C   0  0  0  0  0  0  0  0  0  0  0  0
   37.1260   26.1110   33.5170 N   0  0  0  0  0  0  0  0  0  0  0  0
   37.1640   26.7150   34.7160 C   0  0  0  0  0  0  0  0  0  0  0  0
   36.7260   27.9630   34.8220 N   0  0  0  0  0  0  0  0  0  0  0  0
   36.6480   26.1860   31.4520 H   0  0  0  0  0  0  0  0  0  0  0  0
   37.5430   26.2070   35.5940 H   0  0  0  0  0  0  0  0  0  0  0  0
   36.6370   29.1350   30.4040 C   0  0  0  0  0  0  0  0  0  0  0  0
   37.9170   29.1820   30.2850 O   0  0  0  0  0  0  0  0  0  0  0  0
   35.7270   28.6120   31.3410 N   0  0  0  0  0  0  0  0  0  0  0  0
   36.5800   29.6760   29.4610 H   0  0  0  0  0  0  0  0  0  0  0  0
   34.7900   28.7870   30.9500 H   0  0  0  0  0  0  0  0  0  0  0  0
   35.7590   29.9310   33.7270 O   0  0  0  0  0  0  0  0  0  0  0  0
   35.1430   30.5470   34.8040 C   0  0  0  0  0  0  0  0  0  0  0  0
   35.8860   31.3630   35.6160 C   0  0  0  0  0  0  0  0  0  0  0  0
   36.9370   31.5630   35.4730 H   0  0  0  0  0  0  0  0  0  0  0  0
   35.1700   31.9260   36.6620 C   0  0  0  0  0  0  0  0  0  0  0  0
   35.6900   32.5960   37.3640 H   0  0  0  0  0  0  0  0  0  0  0  0
   33.8290   31.7200   36.9110 C   0  0  0  0  0  3  0  0  0  0  0  0
   33.2030   30.8750   36.0140 C   0  0  0  0  0  3  0  0  0  0  0  0
   33.8260   30.2910   34.9770 N   0  0  0  0  0  0  0  0  0  0  0  0
  1  6  1  0  0  0  0
  2  1  2  0  0  0  0
  3  2  1  0  0  0  0
  3  4  2  0  0  0  0
  4  5  1  0  0  0  0
  5  6  2  0  0  0  0
  5  8  1  0  0  0  0
  7  3  1  0  0  0  0
  9 11  1  0  0  0  0
 10  9  2  0  0  0  0
 11  2  1  0  0  0  0
 12  9  1  0  0  0  0
 13 11  1  0  0  0  0
 14  1  1  0  0  0  0
 14 15  1  0  0  0  0
 15 22  2  0  0  0  0
 15 16  1  0  0  0  0
 16 18  2  0  0  0  0
 17 16  1  0  0  0  0
 18 20  1  0  0  0  0
 18 19  1  0  0  0  0
 21 20  2  0  0  0  0
 22 21  1  0  0  0  0
M  END
>  <minimizedAffinity>
-4.1300478

$$$$

 OpenBabel03272507383D

 22 23  0  0  0  0  0  0  0  0999 V2000
   37.8220   24.3380   33.4560 C   0  0  0  0  0  0  0  0  0  0  0  0
   37.1400   25.3960   32.8390 C   0  0  0  0  0  0  0  0  0  0  0  0
   36.2180   25.1150   31.8580 C   0  0  0  0  0  0  0  0  0  0  0  0
   36.0160   23.8030   31.5370 N   0  0  0  0  0  0  0  0  0  0  0  0
   36.6720   22.7930   32.1330 C   0  0  0  0  0  0  0  0  0  0  0  0
   37.5600   23.0720   33.0780 N   0  0  0  0  0  0  0  0  0  0  0  0
   35.6610   25.8850   31.3450 H   0  0  0  0  0  0  0  0  0  0  0  0
   36.4920   21.7610   31.8590 H   0  0  0  0  0  0  0  0  0  0  0  0
   38.1990   27.5230   32.3640 C   0  0  0  0  0  0  0  0  0  0  0  0
   38.9130   27.3360   31.3100 O   0  0  0  0  0  0  0  0  0  0  0  0
   37.3260   26.7430   33.1450 N   0  0  0  0  0  0  0  0  0  0  0  0
   38.5720   28.5460   32.3740 H   0  0  0  0  0  0  0  0  0  0  0  0
   36.9540   27.3780   33.8660 H   0  0  0  0  0  0  0  0  0  0  0  0
   38.7120   24.7710   34.4170 O   0  0  0  0  0  0  0  0  0  0  0  0
   38.7640   24.2530   35.7020 C   0  0  0  0  0  0  0  0  0  0  0  0
   39.7700   23.3810   36.0260 C   0  0  0  0  0  0  0  0  0  0  0  0
   40.5380   23.0620   35.3380 H   0  0  0  0  0  0  0  0  0  0  0  0
   39.7250   22.9270   37.3350 C   0  0  0  0  0  0  0  0  0  0  0  0
   40.4960   22.2210   37.6810 H   0  0  0  0  0  0  0  0  0  0  0  0
   38.7790   23.2860   38.2720 C   0  0  0  0  0  3  0  0  0  0  0  0
   37.8240   24.1730   37.8100 C   0  0  0  0  0  3  0  0  0  0  0  0
   37.7980   24.6580   36.5580 N   0  0  0  0  0  0  0  0  0  0  0  0
  1 14  1  0  0  0  0
  2 11  1  0  0  0  0
  2  1  2  0  0  0  0
  3  2  1  0  0  0  0
  4  3  2  0  0  0  0
  4  5  1  0  0  0  0
  5  6  2  0  0  0  0
  6  1  1  0  0  0  0
  7  3  1  0  0  0  0
  8  5  1  0  0  0  0
  9 12  1  0  0  0  0
  9 11  1  0  0  0  0
 10  9  2  0  0  0  0
 11 13  1  0  0  0  0
 14 15  1  0  0  0  0
 15 16  2  0  0  0  0
 15 22  1  0  0  0  0
 16 18  1  0  0  0  0
 17 16  1  0  0  0  0
 18 19  1  0  0  0  0
 18 20  2  0  0  0  0
 21 20  1  0  0  0  0
 22 21  2  0  0  0  0
M  END
>  <minimizedAffinity>
-4.10126352

$$$$

 OpenBabel03272507383D

 22 23  0  0  0  0  0  0  0  0999 V2000
   38.4820   24.3590   33.5960 C   0  0  0  0  0  0  0  0  0  0  0  0
   38.6120   25.7450   33.4340 C   0  0  0  0  0  0  0  0  0  0  0  0
   37.7390   26.4050   32.6020 C   0  0  0  0  0  0  0  0  0  0  0  0
   36.7800   25.6640   31.9730 N   0  0  0  0  0  0  0  0  0  0  0  0
   36.6600   24.3350   32.1330 C   0  0  0  0  0  0  0  0  0  0  0  0
   37.5070   23.7050   32.9360 N   0  0  0  0  0  0  0  0  0  0  0  0
   37.7890   27.4720   32.4360 H   0  0  0  0  0  0  0  0  0  0  0  0
   35.8900   23.7720   31.6210 H   0  0  0  0  0  0  0  0  0  0  0  0
   39.2590   27.2210   35.2430 C   0  0  0  0  0  0  0  0  0  0  0  0
   38.2320   27.3110   36.0120 O   0  0  0  0  0  0  0  0  0  0  0  0
   39.5800   26.5270   34.0620 N   0  0  0  0  0  0  0  0  0  0  0  0
   39.7600   27.9160   35.9150 H   0  0  0  0  0  0  0  0  0  0  0  0
   40.5670   26.7510   33.8660 H   0  0  0  0  0  0  0  0  0  0  0  0
   39.4240   23.8350   34.4570 O   0  0  0  0  0  0  0  0  0  0  0  0
   39.1910   23.6130   35.8040 C   0  0  0  0  0  0  0  0  0  0  0  0
   40.1910   23.0750   36.5710 C   0  0  0  0  0  0  0  0  0  0  0  0
   41.1660   22.8070   36.1930 H   0  0  0  0  0  0  0  0  0  0  0  0
   39.8490   22.8970   37.9040 C   0  0  0  0  0  0  0  0  0  0  0  0
   40.5940   22.4690   38.5920 H   0  0  0  0  0  0  0  0  0  0  0  0
   38.6280   23.2130   38.4630 C   0  0  0  0  0  3  0  0  0  0  0  0
   37.7130   23.7470   37.5750 C   0  0  0  0  0  3  0  0  0  0  0  0
   37.9670   23.9510   36.2720 N   0  0  0  0  0  0  0  0  0  0  0  0
  1 14  1  0  0  0  0
  2  1  1  0  0  0  0
  2 11  1  0  0  0  0
  3  2  2  0  0  0  0
  4  5  2  0  0  0  0
  4  3  1  0  0  0  0
  5  6  1  0  0  0  0
  6  1  2  0  0  0  0
  7  3  1  0  0  0  0
  8  5  1  0  0  0  0
  9 12  1  0  0  0  0
  9 10  2  0  0  0  0
 11  9  1  0  0  0  0
 13 11  1  0  0  0  0
 14 15  1  0  0  0  0
 15 22  2  0  0  0  0
 15 16  1  0  0  0  0
 16 18  2  0  0  0  0
 17 16  1  0  0  0  0
 18 20  1  0  0  0  0
 18 19  1  0  0  0  0
 21 20  2  0  0  0  0
 22 21  1  0  0  0  0
M  END
>  <minimizedAffinity>
-4.08315039

$$$$
