
 OpenBabel03272509573D

 45 48  0  0  0  0  0  0  0  0999 V2000
   34.2570   29.0640   47.8090 C   0  0  0  0  0  0  0  0  0  0  0  0
   33.6880   29.9060   48.2480 H   0  0  0  0  0  0  0  0  0  0  0  0
   34.9540   29.5280   47.0660 H   0  0  0  0  0  0  0  0  0  0  0  0
   33.3800   28.0710   47.1240 C   0  0  0  0  0  0  0  0  0  0  0  0
   33.3350   28.3260   46.0320 H   0  0  0  0  0  0  0  0  0  0  0  0
   33.7470   27.0460   47.2340 H   0  0  0  0  0  0  0  0  0  0  0  0
   31.9660   28.1280   47.5860 C   0  0  0  0  0  0  0  0  0  0  0  0
   31.6900   27.6780   48.8660 C   0  0  0  0  0  0  0  0  0  0  0  0
   30.4230   27.6880   49.3850 C   0  0  0  0  0  0  0  0  0  0  0  0
   29.4290   28.1430   48.6370 N   0  0  0  0  0  0  0  0  0  0  0  0
   29.6930   28.5880   47.3750 C   0  0  0  0  0  0  0  0  0  0  0  0
   30.9320   28.5880   46.8430 N   0  0  0  0  0  0  0  0  0  0  0  0
   32.4940   27.3000   49.4960 H   0  0  0  0  0  0  0  0  0  0  0  0
   30.1780   27.3470   50.3690 H   0  0  0  0  0  0  0  0  0  0  0  0
   28.5640   29.0960   46.5500 C   0  0  0  0  0  0  0  0  0  0  0  0
   28.6800   30.1750   46.3140 H   0  0  0  0  0  0  0  0  0  0  0  0
   27.6500   29.0360   47.1760 H   0  0  0  0  0  0  0  0  0  0  0  0
   28.3550   28.2720   45.3480 C   0  0  0  0  0  0  0  0  0  0  0  0
   27.9970   26.9500   45.6310 C   0  0  0  0  0  0  0  0  0  0  0  0
   27.8820   26.5580   46.6170 H   0  0  0  0  0  0  0  0  0  0  0  0
   27.7790   26.0990   44.5420 C   0  0  0  0  0  0  0  0  0  0  0  0
   27.4960   25.0520   44.7060 H   0  0  0  0  0  0  0  0  0  0  0  0
   27.9020   26.5080   43.2280 C   0  0  0  0  0  3  0  0  0  0  0  0
   28.2630   27.8450   43.0290 C   0  0  0  0  0  3  0  0  0  0  0  0
   28.4740   28.6700   44.0750 N   0  0  0  0  0  0  0  0  0  0  0  0
   35.0960   28.4420   48.7580 O   0  0  0  0  0  0  0  0  0  0  0  0
   37.1750   30.0460   51.2330 C   0  0  0  0  0  0  0  0  0  0  0  0
   37.9930   30.8430   50.4030 C   0  0  0  0  0  0  0  0  0  0  0  0
   37.7660   30.7700   49.0310 C   0  0  0  0  0  0  0  0  0  0  0  0
   36.7710   29.9310   48.6240 N   0  0  0  0  0  0  0  0  0  0  0  0
   36.0120   29.1880   49.4220 C   0  0  0  0  0  0  0  0  0  0  0  0
   36.2280   29.2550   50.7540 N   0  0  0  0  0  0  0  0  0  0  0  0
   37.3910   30.1370   52.2980 H   0  0  0  0  0  0  0  0  0  0  0  0
   38.7730   31.5000   50.7410 H   0  0  0  0  0  0  0  0  0  0  0  0
   38.7930   33.4790   49.1900 F   0  0  0  0  0  0  0  0  0  0  0  0
   38.9810   32.7580   48.0830 C   0  0  0  0  0  0  0  0  0  0  0  0
   38.4990   31.5100   48.0280 C   0  0  0  0  0  0  0  0  0  0  0  0
   38.7500   30.8440   46.8260 C   0  0  0  0  0  0  0  0  0  0  0  0
   39.4380   31.4340   45.7910 C   0  0  0  0  0  0  0  0  0  0  0  0
   39.9140   32.7230   45.8980 C   0  0  0  0  0  0  0  0  0  0  0  0
   39.6720   33.3760   47.0650 C   0  0  0  0  0  0  0  0  0  0  0  0
   38.4180   29.8260   46.6440 H   0  0  0  0  0  0  0  0  0  0  0  0
   39.6220   30.9020   44.8680 H   0  0  0  0  0  0  0  0  0  0  0  0
   40.4530   33.1580   45.0600 H   0  0  0  0  0  0  0  0  0  0  0  0
   40.0400   34.3880   47.1620 H   0  0  0  0  0  0  0  0  0  0  0  0
  1  2  1  0  0  0  0
  1 26  1  0  0  0  0
  3  1  1  0  0  0  0
  4  6  1  0  0  0  0
  4  7  1  0  0  0  0
  4  1  1  0  0  0  0
  5  4  1  0  0  0  0
  7  8  1  0  0  0  0
  8  9  2  0  0  0  0
  8 13  1  0  0  0  0
  9 14  1  0  0  0  0
 10  9  1  0  0  0  0
 11 10  2  0  0  0  0
 12 11  1  0  0  0  0
 12  7  2  0  0  0  0
 15 17  1  0  0  0  0
 15 11  1  0  0  0  0
 16 15  1  0  0  0  0
 18 19  1  0  0  0  0
 18 15  1  0  0  0  0
 19 20  1  0  0  0  0
 21 22  1  0  0  0  0
 21 19  2  0  0  0  0
 23 21  1  0  0  0  0
 24 23  2  0  0  0  0
 24 25  1  0  0  0  0
 25 18  2  0  0  0  0
 26 31  1  0  0  0  0
 27 33  1  0  0  0  0
 28 34  1  0  0  0  0
 28 27  2  0  0  0  0
 29 28  1  0  0  0  0
 30 29  2  0  0  0  0
 30 31  1  0  0  0  0
 31 32  2  0  0  0  0
 32 27  1  0  0  0  0
 36 35  1  0  0  0  0
 37 36  1  0  0  0  0
 37 29  1  0  0  0  0
 38 37  2  0  0  0  0
 39 40  2  0  0  0  0
 39 38  1  0  0  0  0
 40 41  1  0  0  0  0
 41 45  1  0  0  0  0
 41 36  2  0  0  0  0
 42 38  1  0  0  0  0
 43 39  1  0  0  0  0
 44 40  1  0  0  0  0
M  END
>  <minimizedAffinity>
-6.39613724

>  <minimizedRMSD>
0.607534945

$$$$
