
 OpenBabel03262522253D

 34 36  0  0  0  0  0  0  0  0999 V2000
   35.9510   28.0350   32.2710 C   0  0  0  0  0  0  0  0  0  0  0  0
   35.9640   28.7980   33.4380 C   0  0  0  0  0  0  0  0  0  0  0  0
   36.5660   28.2550   34.5750 C   0  0  0  0  0  0  0  0  0  0  0  0
   37.1010   27.0160   34.4750 N   0  0  0  0  0  0  0  0  0  0  0  0
   37.0670   26.3290   33.3550 C   0  0  0  0  0  0  0  0  0  0  0  0
   36.4840   26.8120   32.1890 N   0  0  0  0  0  0  0  0  0  0  0  0
   35.5080   28.3670   31.3360 H   0  0  0  0  0  0  0  0  0  0  0  0
   36.5680   28.8480   35.4550 H   0  0  0  0  0  0  0  0  0  0  0  0
   35.3770   30.0270   33.3520 O   0  0  0  0  0  0  0  0  0  0  0  0
   35.0630   30.6860   34.5590 C   0  0  0  0  0  0  0  0  0  0  0  0
   35.8550   31.5440   35.2900 C   0  0  0  0  0  0  0  0  0  0  0  0
   35.3740   32.0770   36.4270 C   0  0  0  0  0  0  0  0  0  0  0  0
   34.1050   31.7550   36.8360 C   0  0  0  0  0  0  0  0  0  0  0  0
   33.3060   30.8850   36.0920 C   0  0  0  0  0  0  0  0  0  0  0  0
   33.8310   30.3770   34.9600 N   0  0  0  0  0  0  0  0  0  0  0  0
   36.8360   31.7000   34.8360 H   0  0  0  0  0  0  0  0  0  0  0  0
   36.0290   32.7410   36.9650 H   0  0  0  0  0  0  0  0  0  0  0  0
   33.7270   32.1900   37.7530 H   0  0  0  0  0  0  0  0  0  0  0  0
   31.9180   30.5470   36.5590 C   0  0  0  0  0  0  0  0  0  0  0  0
   31.5890   29.6650   35.9970 H   0  0  0  0  0  0  0  0  0  0  0  0
   32.0340   30.3300   37.6450 H   0  0  0  0  0  0  0  0  0  0  0  0
   31.2480   31.4230   36.4800 H   0  0  0  0  0  0  0  0  0  0  0  0
   37.8610   24.7070   33.5240 S   0  0  0  0  0  0  0  0  0  0  0  0
   39.2790   25.0110   34.6370 C   0  0  0  0  0  0  0  0  0  0  0  0
   39.3350   26.1310   34.7200 H   0  0  0  0  0  0  0  0  0  0  0  0
   40.2180   24.6910   34.1520 H   0  0  0  0  0  0  0  0  0  0  0  0
   39.0490   24.4440   35.9770 C   0  0  0  0  0  0  0  0  0  0  0  0
   38.0660   24.8340   36.8480 C   0  0  0  0  0  0  0  0  0  0  0  0
   37.3980   25.6260   36.5340 H   0  0  0  0  0  0  0  0  0  0  0  0
   38.0350   24.1710   38.0410 C   0  0  0  0  0  0  0  0  0  0  0  0
   37.2620   24.4580   38.7620 H   0  0  0  0  0  0  0  0  0  0  0  0
   38.9020   23.1740   38.3960 C   0  0  0  0  0  3  0  0  0  0  0  0
   39.8800   22.8180   37.4700 C   0  0  0  0  0  3  0  0  0  0  0  0
   39.9210   23.4700   36.2840 N   0  0  0  0  0  0  0  0  0  0  0  0
  1  2  1  0  0  0  0
  2  3  2  0  0  0  0
  3  8  1  0  0  0  0
  4  3  1  0  0  0  0
  5 23  1  0  0  0  0
  5  4  2  0  0  0  0
  6  1  2  0  0  0  0
  6  5  1  0  0  0  0
  7  1  1  0  0  0  0
  9  2  1  0  0  0  0
  9 10  1  0  0  0  0
 10 15  2  0  0  0  0
 10 11  1  0  0  0  0
 11 12  2  0  0  0  0
 12 13  1  0  0  0  0
 12 17  1  0  0  0  0
 13 18  1  0  0  0  0
 14 19  1  0  0  0  0
 14 13  2  0  0  0  0
 15 14  1  0  0  0  0
 16 11  1  0  0  0  0
 19 21  1  0  0  0  0
 20 19  1  0  0  0  0
 22 19  1  0  0  0  0
 23 24  1  0  0  0  0
 24 25  1  0  0  0  0
 24 27  1  0  0  0  0
 26 24  1  0  0  0  0
 27 34  2  0  0  0  0
 27 28  1  0  0  0  0
 28 30  2  0  0  0  0
 29 28  1  0  0  0  0
 30 32  1  0  0  0  0
 30 31  1  0  0  0  0
 33 32  2  0  0  0  0
 34 33  1  0  0  0  0
M  END
>  <minimizedAffinity>
-5.59749365

$$$$

 OpenBabel03262522253D

 34 36  0  0  0  0  0  0  0  0999 V2000
   36.9580   25.3680   32.8490 C   0  0  0  0  0  0  0  0  0  0  0  0
   37.8170   25.4000   33.9470 C   0  0  0  0  0  0  0  0  0  0  0  0
   38.0600   26.6310   34.5600 C   0  0  0  0  0  0  0  0  0  0  0  0
   37.4430   27.7220   34.0500 N   0  0  0  0  0  0  0  0  0  0  0  0
   36.6390   27.6490   33.0120 C   0  0  0  0  0  0  0  0  0  0  0  0
   36.3570   26.4570   32.3580 N   0  0  0  0  0  0  0  0  0  0  0  0
   36.7060   24.4620   32.3050 H   0  0  0  0  0  0  0  0  0  0  0  0
   38.7160   26.6390   35.3950 H   0  0  0  0  0  0  0  0  0  0  0  0
   38.3480   24.2000   34.3230 O   0  0  0  0  0  0  0  0  0  0  0  0
   38.4650   23.9420   35.7050 C   0  0  0  0  0  0  0  0  0  0  0  0
   37.6510   24.3850   36.7250 C   0  0  0  0  0  0  0  0  0  0  0  0
   37.9300   24.0300   37.9910 C   0  0  0  0  0  0  0  0  0  0  0  0
   39.0190   23.2340   38.2420 C   0  0  0  0  0  0  0  0  0  0  0  0
   39.8400   22.7880   37.2050 C   0  0  0  0  0  0  0  0  0  0  0  0
   39.5210   23.1690   35.9530 N   0  0  0  0  0  0  0  0  0  0  0  0
   36.8300   25.0080   36.3650 H   0  0  0  0  0  0  0  0  0  0  0  0
   37.2670   24.4000   38.7550 H   0  0  0  0  0  0  0  0  0  0  0  0
   39.2340   22.9530   39.2650 H   0  0  0  0  0  0  0  0  0  0  0  0
   41.0280   21.9150   37.5030 C   0  0  0  0  0  0  0  0  0  0  0  0
   41.6670   21.9160   36.6120 H   0  0  0  0  0  0  0  0  0  0  0  0
   41.5230   22.4060   38.3710 H   0  0  0  0  0  0  0  0  0  0  0  0
   40.7090   20.9130   37.8440 H   0  0  0  0  0  0  0  0  0  0  0  0
   35.9630   29.2690   32.5560 S   0  0  0  0  0  0  0  0  0  0  0  0
   34.3710   29.3630   33.4510 C   0  0  0  0  0  0  0  0  0  0  0  0
   34.1910   28.3130   33.8120 H   0  0  0  0  0  0  0  0  0  0  0  0
   33.5520   29.5900   32.7470 H   0  0  0  0  0  0  0  0  0  0  0  0
   34.4540   30.2610   34.6150 C   0  0  0  0  0  0  0  0  0  0  0  0
   33.3970   30.6590   35.3910 C   0  0  0  0  0  0  0  0  0  0  0  0
   32.4130   30.2880   35.1330 H   0  0  0  0  0  0  0  0  0  0  0  0
   33.7020   31.4980   36.4240 C   0  0  0  0  0  0  0  0  0  0  0  0
   32.8800   31.8360   37.0640 H   0  0  0  0  0  0  0  0  0  0  0  0
   34.9630   31.9430   36.7130 C   0  0  0  0  0  3  0  0  0  0  0  0
   35.9990   31.5050   35.8920 C   0  0  0  0  0  3  0  0  0  0  0  0
   35.7070   30.6730   34.8630 N   0  0  0  0  0  0  0  0  0  0  0  0
  1  2  1  0  0  0  0
  2  9  1  0  0  0  0
  2  3  2  0  0  0  0
  3  8  1  0  0  0  0
  4  3  1  0  0  0  0
  5  4  2  0  0  0  0
  6  1  2  0  0  0  0
  6  5  1  0  0  0  0
  7  1  1  0  0  0  0
  9 10  1  0  0  0  0
 10 15  2  0  0  0  0
 10 11  1  0  0  0  0
 11 12  2  0  0  0  0
 12 13  1  0  0  0  0
 12 17  1  0  0  0  0
 13 18  1  0  0  0  0
 14 19  1  0  0  0  0
 14 13  2  0  0  0  0
 15 14  1  0  0  0  0
 16 11  1  0  0  0  0
 19 22  1  0  0  0  0
 19 21  1  0  0  0  0
 20 19  1  0  0  0  0
 23  5  1  0  0  0  0
 23 24  1  0  0  0  0
 24 25  1  0  0  0  0
 24 27  1  0  0  0  0
 26 24  1  0  0  0  0
 27 34  2  0  0  0  0
 27 28  1  0  0  0  0
 28 30  2  0  0  0  0
 29 28  1  0  0  0  0
 30 32  1  0  0  0  0
 30 31  1  0  0  0  0
 33 32  2  0  0  0  0
 34 33  1  0  0  0  0
M  END
>  <minimizedAffinity>
-5.5668273

$$$$

 OpenBabel03262522253D

 34 36  0  0  0  0  0  0  0  0999 V2000
   35.8510   27.9870   32.3600 C   0  0  0  0  0  0  0  0  0  0  0  0
   35.8820   28.7280   33.5420 C   0  0  0  0  0  0  0  0  0  0  0  0
   36.5540   28.1880   34.6410 C   0  0  0  0  0  0  0  0  0  0  0  0
   37.1360   26.9760   34.4920 N   0  0  0  0  0  0  0  0  0  0  0  0
   37.0820   26.3100   33.3600 C   0  0  0  0  0  0  0  0  0  0  0  0
   36.4310   26.7900   32.2310 N   0  0  0  0  0  0  0  0  0  0  0  0
   35.3550   28.3190   31.4520 H   0  0  0  0  0  0  0  0  0  0  0  0
   36.5690   28.7640   35.5330 H   0  0  0  0  0  0  0  0  0  0  0  0
   35.2410   29.9320   33.5070 O   0  0  0  0  0  0  0  0  0  0  0  0
   34.3480   30.2260   34.5580 C   0  0  0  0  0  0  0  0  0  0  0  0
   33.1650   29.5920   34.8730 C   0  0  0  0  0  0  0  0  0  0  0  0
   32.4460   30.0240   35.9230 C   0  0  0  0  0  0  0  0  0  0  0  0
   32.9030   31.0860   36.6610 C   0  0  0  0  0  0  0  0  0  0  0  0
   34.1010   31.7250   36.3380 C   0  0  0  0  0  0  0  0  0  0  0  0
   34.7880   31.2580   35.2780 N   0  0  0  0  0  0  0  0  0  0  0  0
   32.9380   28.7680   34.1930 H   0  0  0  0  0  0  0  0  0  0  0  0
   31.5280   29.4980   36.1300 H   0  0  0  0  0  0  0  0  0  0  0  0
   32.3160   31.4260   37.5040 H   0  0  0  0  0  0  0  0  0  0  0  0
   34.5840   32.8880   37.1610 C   0  0  0  0  0  0  0  0  0  0  0  0
   35.3670   33.3940   36.5850 H   0  0  0  0  0  0  0  0  0  0  0  0
   33.6830   33.5290   37.2920 H   0  0  0  0  0  0  0  0  0  0  0  0
   34.8900   32.5590   38.1710 H   0  0  0  0  0  0  0  0  0  0  0  0
   37.9490   24.7200   33.4610 S   0  0  0  0  0  0  0  0  0  0  0  0
   39.3450   25.0370   34.5990 C   0  0  0  0  0  0  0  0  0  0  0  0
   39.3680   26.1550   34.7090 H   0  0  0  0  0  0  0  0  0  0  0  0
   40.2990   24.7550   34.1190 H   0  0  0  0  0  0  0  0  0  0  0  0
   39.1150   24.4320   35.9220 C   0  0  0  0  0  0  0  0  0  0  0  0
   38.1130   24.7770   36.7910 C   0  0  0  0  0  0  0  0  0  0  0  0
   37.4290   25.5590   36.4900 H   0  0  0  0  0  0  0  0  0  0  0  0
   38.0860   24.0850   37.9680 C   0  0  0  0  0  0  0  0  0  0  0  0
   37.2980   24.3350   38.6870 H   0  0  0  0  0  0  0  0  0  0  0  0
   38.9730   23.1010   38.3080 C   0  0  0  0  0  3  0  0  0  0  0  0
   39.9690   22.7910   37.3860 C   0  0  0  0  0  3  0  0  0  0  0  0
   40.0070   23.4730   36.2150 N   0  0  0  0  0  0  0  0  0  0  0  0
  1  2  1  0  0  0  0
  2  3  2  0  0  0  0
  3  8  1  0  0  0  0
  4  3  1  0  0  0  0
  5 23  1  0  0  0  0
  5  4  2  0  0  0  0
  6  1  2  0  0  0  0
  6  5  1  0  0  0  0
  7  1  1  0  0  0  0
  9  2  1  0  0  0  0
  9 10  1  0  0  0  0
 10 11  2  0  0  0  0
 10 15  1  0  0  0  0
 11 12  1  0  0  0  0
 12 17  1  0  0  0  0
 12 13  2  0  0  0  0
 13 18  1  0  0  0  0
 14 13  1  0  0  0  0
 14 19  1  0  0  0  0
 15 14  2  0  0  0  0
 16 11  1  0  0  0  0
 19 21  1  0  0  0  0
 19 22  1  0  0  0  0
 20 19  1  0  0  0  0
 23 24  1  0  0  0  0
 24 25  1  0  0  0  0
 24 27  1  0  0  0  0
 26 24  1  0  0  0  0
 27 34  2  0  0  0  0
 27 28  1  0  0  0  0
 28 30  2  0  0  0  0
 29 28  1  0  0  0  0
 30 32  1  0  0  0  0
 30 31  1  0  0  0  0
 33 32  2  0  0  0  0
 34 33  1  0  0  0  0
M  END
>  <minimizedAffinity>
-5.28868866

$$$$

 OpenBabel03262522253D

 34 36  0  0  0  0  0  0  0  0999 V2000
   35.7010   24.6090   31.5410 C   0  0  0  0  0  0  0  0  0  0  0  0
   36.2300   23.3190   31.5080 C   0  0  0  0  0  0  0  0  0  0  0  0
   37.4280   23.0800   32.1860 C   0  0  0  0  0  0  0  0  0  0  0  0
   38.0030   24.1180   32.8360 N   0  0  0  0  0  0  0  0  0  0  0  0
   37.4700   25.3190   32.8430 C   0  0  0  0  0  0  0  0  0  0  0  0
   36.2830   25.6230   32.1890 N   0  0  0  0  0  0  0  0  0  0  0  0
   34.7770   24.8960   31.0470 H   0  0  0  0  0  0  0  0  0  0  0  0
   37.8180   22.0930   32.1520 H   0  0  0  0  0  0  0  0  0  0  0  0
   35.5110   22.3980   30.8020 O   0  0  0  0  0  0  0  0  0  0  0  0
   35.5550   21.0590   31.2430 C   0  0  0  0  0  0  0  0  0  0  0  0
   34.9660   20.5120   32.3620 C   0  0  0  0  0  0  0  0  0  0  0  0
   35.1250   19.2020   32.6160 C   0  0  0  0  0  0  0  0  0  0  0  0
   35.8690   18.4350   31.7560 C   0  0  0  0  0  0  0  0  0  0  0  0
   36.4640   18.9940   30.6230 C   0  0  0  0  0  0  0  0  0  0  0  0
   36.2770   20.3110   30.4100 N   0  0  0  0  0  0  0  0  0  0  0  0
   34.4090   21.2490   32.9450 H   0  0  0  0  0  0  0  0  0  0  0  0
   34.6470   18.8190   33.5030 H   0  0  0  0  0  0  0  0  0  0  0  0
   35.9910   17.3810   31.9700 H   0  0  0  0  0  0  0  0  0  0  0  0
   37.2760   18.1350   29.6940 C   0  0  0  0  0  0  0  0  0  0  0  0
   37.8590   18.8060   29.0520 H   0  0  0  0  0  0  0  0  0  0  0  0
   37.9270   17.5330   30.3670 H   0  0  0  0  0  0  0  0  0  0  0  0
   36.6320   17.4190   29.1510 H   0  0  0  0  0  0  0  0  0  0  0  0
   38.4640   26.5020   33.7930 S   0  0  0  0  0  0  0  0  0  0  0  0
   39.8410   25.5020   34.4630 C   0  0  0  0  0  0  0  0  0  0  0  0
   40.6000   26.2610   34.7980 H   0  0  0  0  0  0  0  0  0  0  0  0
   40.3200   24.9250   33.6530 H   0  0  0  0  0  0  0  0  0  0  0  0
   39.4170   24.7040   35.6260 C   0  0  0  0  0  0  0  0  0  0  0  0
   39.9350   23.4880   35.9870 C   0  0  0  0  0  0  0  0  0  0  0  0
   40.7200   23.0690   35.3710 H   0  0  0  0  0  0  0  0  0  0  0  0
   39.3930   22.9220   37.1050 C   0  0  0  0  0  0  0  0  0  0  0  0
   39.7830   21.9480   37.4220 H   0  0  0  0  0  0  0  0  0  0  0  0
   38.3980   23.4880   37.8550 C   0  0  0  0  0  3  0  0  0  0  0  0
   37.9120   24.7250   37.4410 C   0  0  0  0  0  3  0  0  0  0  0  0
   38.4420   25.2950   36.3330 N   0  0  0  0  0  0  0  0  0  0  0  0
  1  6  1  0  0  0  0
  2  1  2  0  0  0  0
  2  3  1  0  0  0  0
  3  4  2  0  0  0  0
  4  5  1  0  0  0  0
  5 23  1  0  0  0  0
  6  5  2  0  0  0  0
  7  1  1  0  0  0  0
  8  3  1  0  0  0  0
  9 10  1  0  0  0  0
  9  2  1  0  0  0  0
 10 11  1  0  0  0  0
 11 12  2  0  0  0  0
 11 16  1  0  0  0  0
 12 17  1  0  0  0  0
 13 18  1  0  0  0  0
 13 12  1  0  0  0  0
 14 13  2  0  0  0  0
 15 14  1  0  0  0  0
 15 10  2  0  0  0  0
 19 21  1  0  0  0  0
 19 14  1  0  0  0  0
 20 19  1  0  0  0  0
 22 19  1  0  0  0  0
 23 24  1  0  0  0  0
 24 25  1  0  0  0  0
 24 27  1  0  0  0  0
 26 24  1  0  0  0  0
 27 28  2  0  0  0  0
 27 34  1  0  0  0  0
 28 30  1  0  0  0  0
 29 28  1  0  0  0  0
 30 31  1  0  0  0  0
 30 32  2  0  0  0  0
 33 32  1  0  0  0  0
 34 33  2  0  0  0  0
M  END
>  <minimizedAffinity>
-5.04893303

$$$$

 OpenBabel03262522253D

 34 36  0  0  0  0  0  0  0  0999 V2000
   35.8580   26.2590   31.1660 C   0  0  0  0  0  0  0  0  0  0  0  0
   36.7870   27.2900   31.0340 C   0  0  0  0  0  0  0  0  0  0  0  0
   38.0350   27.1360   31.6420 C   0  0  0  0  0  0  0  0  0  0  0  0
   38.2670   25.9910   32.3240 N   0  0  0  0  0  0  0  0  0  0  0  0
   37.3630   25.0430   32.4250 C   0  0  0  0  0  0  0  0  0  0  0  0
   36.1040   25.1340   31.8450 N   0  0  0  0  0  0  0  0  0  0  0  0
   34.8620   26.2830   30.7320 H   0  0  0  0  0  0  0  0  0  0  0  0
   38.7310   27.9300   31.5320 H   0  0  0  0  0  0  0  0  0  0  0  0
   36.3770   28.3710   30.3080 O   0  0  0  0  0  0  0  0  0  0  0  0
   36.3130   29.6150   30.9690 C   0  0  0  0  0  0  0  0  0  0  0  0
   35.6650   29.9200   32.1470 C   0  0  0  0  0  0  0  0  0  0  0  0
   35.7190   31.1760   32.6220 C   0  0  0  0  0  0  0  0  0  0  0  0
   36.4180   32.1290   31.9250 C   0  0  0  0  0  0  0  0  0  0  0  0
   37.0720   31.8160   30.7330 C   0  0  0  0  0  0  0  0  0  0  0  0
   36.9900   30.5440   30.2960 N   0  0  0  0  0  0  0  0  0  0  0  0
   35.1550   29.0570   32.5800 H   0  0  0  0  0  0  0  0  0  0  0  0
   35.1970   31.3670   33.5450 H   0  0  0  0  0  0  0  0  0  0  0  0
   36.4550   33.1380   32.3170 H   0  0  0  0  0  0  0  0  0  0  0  0
   37.8320   32.8760   29.9860 C   0  0  0  0  0  0  0  0  0  0  0  0
   38.0220   32.4940   28.9760 H   0  0  0  0  0  0  0  0  0  0  0  0
   37.1490   33.7550   29.9770 H   0  0  0  0  0  0  0  0  0  0  0  0
   38.7370   33.1830   30.5430 H   0  0  0  0  0  0  0  0  0  0  0  0
   37.9580   23.6320   33.3980 S   0  0  0  0  0  0  0  0  0  0  0  0
   39.2680   24.3360   34.4620 C   0  0  0  0  0  0  0  0  0  0  0  0
   39.2180   25.4430   34.2710 H   0  0  0  0  0  0  0  0  0  0  0  0
   40.2610   24.0080   34.1090 H   0  0  0  0  0  0  0  0  0  0  0  0
   39.0030   24.0840   35.8880 C   0  0  0  0  0  0  0  0  0  0  0  0
   37.9910   24.6480   36.6210 C   0  0  0  0  0  0  0  0  0  0  0  0
   37.3270   25.3390   36.1180 H   0  0  0  0  0  0  0  0  0  0  0  0
   37.9300   24.2730   37.9320 C   0  0  0  0  0  0  0  0  0  0  0  0
   37.1330   24.7050   38.5480 H   0  0  0  0  0  0  0  0  0  0  0  0
   38.7930   23.3950   38.5280 C   0  0  0  0  0  3  0  0  0  0  0  0
   39.8010   22.8520   37.7340 C   0  0  0  0  0  3  0  0  0  0  0  0
   39.8720   23.2180   36.4320 N   0  0  0  0  0  0  0  0  0  0  0  0
  1  6  1  0  0  0  0
  2  1  2  0  0  0  0
  2  3  1  0  0  0  0
  3  4  2  0  0  0  0
  4  5  1  0  0  0  0
  5 23  1  0  0  0  0
  6  5  2  0  0  0  0
  7  1  1  0  0  0  0
  8  3  1  0  0  0  0
  9 10  1  0  0  0  0
  9  2  1  0  0  0  0
 10 11  1  0  0  0  0
 11 16  1  0  0  0  0
 11 12  2  0  0  0  0
 12 17  1  0  0  0  0
 13 18  1  0  0  0  0
 13 12  1  0  0  0  0
 14 13  2  0  0  0  0
 15 14  1  0  0  0  0
 15 10  2  0  0  0  0
 19 22  1  0  0  0  0
 19 14  1  0  0  0  0
 20 19  1  0  0  0  0
 21 19  1  0  0  0  0
 23 24  1  0  0  0  0
 24 27  1  0  0  0  0
 25 24  1  0  0  0  0
 26 24  1  0  0  0  0
 27 34  2  0  0  0  0
 27 28  1  0  0  0  0
 28 30  2  0  0  0  0
 29 28  1  0  0  0  0
 30 32  1  0  0  0  0
 30 31  1  0  0  0  0
 33 32  2  0  0  0  0
 34 33  1  0  0  0  0
M  END
>  <minimizedAffinity>
-5.0129776

$$$$

 OpenBabel03262522253D

 34 36  0  0  0  0  0  0  0  0999 V2000
   38.4190   26.5680   33.9280 C   0  0  0  0  0  0  0  0  0  0  0  0
   38.0940   25.2730   33.5270 C   0  0  0  0  0  0  0  0  0  0  0  0
   37.0230   25.1040   32.6460 C   0  0  0  0  0  0  0  0  0  0  0  0
   36.3650   26.2120   32.2330 N   0  0  0  0  0  0  0  0  0  0  0  0
   36.7040   27.4160   32.6350 C   0  0  0  0  0  0  0  0  0  0  0  0
   37.7580   27.6520   33.5100 N   0  0  0  0  0  0  0  0  0  0  0  0
   39.2330   26.8040   34.6090 H   0  0  0  0  0  0  0  0  0  0  0  0
   36.7880   24.1120   32.3500 H   0  0  0  0  0  0  0  0  0  0  0  0
   38.8690   24.2770   34.0450 O   0  0  0  0  0  0  0  0  0  0  0  0
   38.7710   24.0260   35.4300 C   0  0  0  0  0  0  0  0  0  0  0  0
   37.8310   24.5060   36.3160 C   0  0  0  0  0  0  0  0  0  0  0  0
   37.9050   24.1520   37.6110 C   0  0  0  0  0  0  0  0  0  0  0  0
   38.9140   23.3190   38.0230 C   0  0  0  0  0  0  0  0  0  0  0  0
   39.8640   22.8350   37.1220 C   0  0  0  0  0  0  0  0  0  0  0  0
   39.7490   23.2180   35.8350 N   0  0  0  0  0  0  0  0  0  0  0  0
   37.0950   25.1560   35.8370 H   0  0  0  0  0  0  0  0  0  0  0  0
   37.1500   24.5520   38.2660 H   0  0  0  0  0  0  0  0  0  0  0  0
   38.9650   23.0390   39.0680 H   0  0  0  0  0  0  0  0  0  0  0  0
   40.9610   21.9230   37.5950 C   0  0  0  0  0  0  0  0  0  0  0  0
   41.7250   21.8930   36.8090 H   0  0  0  0  0  0  0  0  0  0  0  0
   41.3390   22.4030   38.5260 H   0  0  0  0  0  0  0  0  0  0  0  0
   40.5580   20.9360   37.8870 H   0  0  0  0  0  0  0  0  0  0  0  0
   35.6440   28.7000   31.9170 S   0  0  0  0  0  0  0  0  0  0  0  0
   35.1360   29.7200   33.3470 C   0  0  0  0  0  0  0  0  0  0  0  0
   35.2560   30.7800   32.9910 H   0  0  0  0  0  0  0  0  0  0  0  0
   35.8500   29.5930   34.1790 H   0  0  0  0  0  0  0  0  0  0  0  0
   33.7240   29.4930   33.7020 C   0  0  0  0  0  0  0  0  0  0  0  0
   32.6950   29.3410   32.8110 C   0  0  0  0  0  0  0  0  0  0  0  0
   32.9270   29.3910   31.7560 H   0  0  0  0  0  0  0  0  0  0  0  0
   31.4610   29.1400   33.3610 C   0  0  0  0  0  0  0  0  0  0  0  0
   30.6140   29.0150   32.6770 H   0  0  0  0  0  0  0  0  0  0  0  0
   31.2120   29.0830   34.7050 C   0  0  0  0  0  3  0  0  0  0  0  0
   32.2970   29.2430   35.5630 C   0  0  0  0  0  3  0  0  0  0  0  0
   33.5250   29.4450   35.0290 N   0  0  0  0  0  0  0  0  0  0  0  0
  1  7  1  0  0  0  0
  2  1  1  0  0  0  0
  2  9  1  0  0  0  0
  3  2  2  0  0  0  0
  4  5  2  0  0  0  0
  4  3  1  0  0  0  0
  5  6  1  0  0  0  0
  6  1  2  0  0  0  0
  8  3  1  0  0  0  0
  9 10  1  0  0  0  0
 10 15  2  0  0  0  0
 10 11  1  0  0  0  0
 11 12  2  0  0  0  0
 12 13  1  0  0  0  0
 12 17  1  0  0  0  0
 13 18  1  0  0  0  0
 14 19  1  0  0  0  0
 14 13  2  0  0  0  0
 15 14  1  0  0  0  0
 16 11  1  0  0  0  0
 19 22  1  0  0  0  0
 19 21  1  0  0  0  0
 20 19  1  0  0  0  0
 23  5  1  0  0  0  0
 23 24  1  0  0  0  0
 24 27  1  0  0  0  0
 24 26  1  0  0  0  0
 25 24  1  0  0  0  0
 27 34  1  0  0  0  0
 28 30  1  0  0  0  0
 28 27  2  0  0  0  0
 29 28  1  0  0  0  0
 30 32  2  0  0  0  0
 31 30  1  0  0  0  0
 32 33  1  0  0  0  0
 34 33  2  0  0  0  0
M  END
>  <minimizedAffinity>
-4.99797344

$$$$

 OpenBabel03262522253D

 34 36  0  0  0  0  0  0  0  0999 V2000
   37.9390   27.0730   32.6210 C   0  0  0  0  0  0  0  0  0  0  0  0
   38.1220   26.7600   33.9670 C   0  0  0  0  0  0  0  0  0  0  0  0
   37.2930   27.3770   34.9070 C   0  0  0  0  0  0  0  0  0  0  0  0
   36.3580   28.2430   34.4510 N   0  0  0  0  0  0  0  0  0  0  0  0
   36.2180   28.5100   33.1720 C   0  0  0  0  0  0  0  0  0  0  0  0
   37.0100   27.9320   32.1880 N   0  0  0  0  0  0  0  0  0  0  0  0
   38.5310   26.6480   31.8150 H   0  0  0  0  0  0  0  0  0  0  0  0
   37.4450   27.1290   35.9270 H   0  0  0  0  0  0  0  0  0  0  0  0
   39.1140   25.8640   34.2400 O   0  0  0  0  0  0  0  0  0  0  0  0
   38.7330   24.5980   34.7310 C   0  0  0  0  0  0  0  0  0  0  0  0
   38.2800   23.5100   34.0160 C   0  0  0  0  0  0  0  0  0  0  0  0
   37.9630   22.3790   34.6690 C   0  0  0  0  0  0  0  0  0  0  0  0
   38.0960   22.3300   36.0340 C   0  0  0  0  0  0  0  0  0  0  0  0
   38.5550   23.4350   36.7530 C   0  0  0  0  0  0  0  0  0  0  0  0
   38.8610   24.5460   36.0560 N   0  0  0  0  0  0  0  0  0  0  0  0
   38.2290   23.7050   32.9430 H   0  0  0  0  0  0  0  0  0  0  0  0
   37.6120   21.5550   34.0700 H   0  0  0  0  0  0  0  0  0  0  0  0
   37.8370   21.4150   36.5500 H   0  0  0  0  0  0  0  0  0  0  0  0
   38.6930   23.3600   38.2490 C   0  0  0  0  0  0  0  0  0  0  0  0
   38.7960   24.3860   38.6210 H   0  0  0  0  0  0  0  0  0  0  0  0
   37.7480   22.8840   38.5920 H   0  0  0  0  0  0  0  0  0  0  0  0
   39.5150   22.6780   38.5370 H   0  0  0  0  0  0  0  0  0  0  0  0
   34.8880   29.7040   32.8660 S   0  0  0  0  0  0  0  0  0  0  0  0
   35.4520   31.2340   33.6950 C   0  0  0  0  0  0  0  0  0  0  0  0
   35.1330   32.0600   33.0020 H   0  0  0  0  0  0  0  0  0  0  0  0
   36.5550   31.2660   33.7250 H   0  0  0  0  0  0  0  0  0  0  0  0
   34.7910   31.4210   34.9980 C   0  0  0  0  0  0  0  0  0  0  0  0
   35.2880   32.1540   36.0430 C   0  0  0  0  0  0  0  0  0  0  0  0
   36.2460   32.6390   35.9110 H   0  0  0  0  0  0  0  0  0  0  0  0
   34.5070   32.1930   37.1630 C   0  0  0  0  0  0  0  0  0  0  0  0
   34.8730   32.7700   38.0180 H   0  0  0  0  0  0  0  0  0  0  0  0
   33.2990   31.5630   37.2870 C   0  0  0  0  0  3  0  0  0  0  0  0
   32.8440   30.8330   36.1910 C   0  0  0  0  0  3  0  0  0  0  0  0
   33.6110   30.7860   35.0760 N   0  0  0  0  0  0  0  0  0  0  0  0
  1  2  1  0  0  0  0
  2  9  1  0  0  0  0
  2  3  2  0  0  0  0
  3  8  1  0  0  0  0
  4  3  1  0  0  0  0
  5  4  2  0  0  0  0
  6  1  2  0  0  0  0
  6  5  1  0  0  0  0
  7  1  1  0  0  0  0
  9 10  1  0  0  0  0
 10 15  1  0  0  0  0
 11 12  1  0  0  0  0
 11 10  2  0  0  0  0
 12 13  2  0  0  0  0
 13 18  1  0  0  0  0
 13 14  1  0  0  0  0
 14 19  1  0  0  0  0
 15 14  2  0  0  0  0
 16 11  1  0  0  0  0
 17 12  1  0  0  0  0
 19 22  1  0  0  0  0
 19 21  1  0  0  0  0
 19 20  1  0  0  0  0
 23  5  1  0  0  0  0
 23 24  1  0  0  0  0
 24 26  1  0  0  0  0
 24 27  1  0  0  0  0
 25 24  1  0  0  0  0
 27 34  2  0  0  0  0
 27 28  1  0  0  0  0
 28 30  2  0  0  0  0
 29 28  1  0  0  0  0
 30 32  1  0  0  0  0
 30 31  1  0  0  0  0
 33 32  2  0  0  0  0
 34 33  1  0  0  0  0
M  END
>  <minimizedAffinity>
-4.99610949

$$$$

 OpenBabel03262522253D

 34 36  0  0  0  0  0  0  0  0999 V2000
   36.7030   27.9140   32.3760 C   0  0  0  0  0  0  0  0  0  0  0  0
   36.3700   28.5080   33.5920 C   0  0  0  0  0  0  0  0  0  0  0  0
   36.8450   27.9190   34.7670 C   0  0  0  0  0  0  0  0  0  0  0  0
   37.6030   26.8040   34.6510 N   0  0  0  0  0  0  0  0  0  0  0  0
   37.8940   26.2750   33.4840 C   0  0  0  0  0  0  0  0  0  0  0  0
   37.4530   26.8110   32.2800 N   0  0  0  0  0  0  0  0  0  0  0  0
   36.3840   28.2940   31.4090 H   0  0  0  0  0  0  0  0  0  0  0  0
   36.5830   28.3830   35.6850 H   0  0  0  0  0  0  0  0  0  0  0  0
   35.5970   29.6300   33.5150 O   0  0  0  0  0  0  0  0  0  0  0  0
   34.2070   29.4790   33.7040 C   0  0  0  0  0  0  0  0  0  0  0  0
   33.2670   29.0470   32.7940 C   0  0  0  0  0  0  0  0  0  0  0  0
   31.9770   28.9710   33.1650 C   0  0  0  0  0  0  0  0  0  0  0  0
   31.6230   29.3240   34.4430 C   0  0  0  0  0  0  0  0  0  0  0  0
   32.5790   29.7610   35.3610 C   0  0  0  0  0  0  0  0  0  0  0  0
   33.8590   29.8210   34.9440 N   0  0  0  0  0  0  0  0  0  0  0  0
   33.7030   28.8040   31.8230 H   0  0  0  0  0  0  0  0  0  0  0  0
   31.2780   28.6280   32.4210 H   0  0  0  0  0  0  0  0  0  0  0  0
   30.5820   29.2590   34.7320 H   0  0  0  0  0  0  0  0  0  0  0  0
   32.1690   30.1440   36.7570 C   0  0  0  0  0  0  0  0  0  0  0  0
   33.0010   30.7020   37.2020 H   0  0  0  0  0  0  0  0  0  0  0  0
   31.2670   30.7810   36.6170 H   0  0  0  0  0  0  0  0  0  0  0  0
   31.8460   29.2570   37.3320 H   0  0  0  0  0  0  0  0  0  0  0  0
   38.9220   24.7900   33.6440 S   0  0  0  0  0  0  0  0  0  0  0  0
   37.8910   23.6270   34.6080 C   0  0  0  0  0  0  0  0  0  0  0  0
   38.0130   22.6420   34.0800 H   0  0  0  0  0  0  0  0  0  0  0  0
   36.8250   23.8960   34.5140 H   0  0  0  0  0  0  0  0  0  0  0  0
   38.3760   23.4900   35.9920 C   0  0  0  0  0  0  0  0  0  0  0  0
   39.5200   22.8390   36.3730 C   0  0  0  0  0  0  0  0  0  0  0  0
   40.1240   22.3830   35.6000 H   0  0  0  0  0  0  0  0  0  0  0  0
   39.7790   22.8330   37.7140 C   0  0  0  0  0  0  0  0  0  0  0  0
   40.6860   22.3210   38.0540 H   0  0  0  0  0  0  0  0  0  0  0  0
   38.9860   23.4240   38.6580 C   0  0  0  0  0  3  0  0  0  0  0  0
   37.8360   24.0720   38.2130 C   0  0  0  0  0  3  0  0  0  0  0  0
   37.5690   24.0830   36.8850 N   0  0  0  0  0  0  0  0  0  0  0  0
  1  2  1  0  0  0  0
  2  3  2  0  0  0  0
  3  8  1  0  0  0  0
  4  3  1  0  0  0  0
  5 23  1  0  0  0  0
  5  4  2  0  0  0  0
  6  1  2  0  0  0  0
  6  5  1  0  0  0  0
  7  1  1  0  0  0  0
  9  2  1  0  0  0  0
  9 10  1  0  0  0  0
 10 15  1  0  0  0  0
 11 12  1  0  0  0  0
 11 10  2  0  0  0  0
 12 13  2  0  0  0  0
 13 18  1  0  0  0  0
 13 14  1  0  0  0  0
 14 19  1  0  0  0  0
 15 14  2  0  0  0  0
 16 11  1  0  0  0  0
 17 12  1  0  0  0  0
 19 20  1  0  0  0  0
 19 22  1  0  0  0  0
 21 19  1  0  0  0  0
 23 24  1  0  0  0  0
 24 27  1  0  0  0  0
 25 24  1  0  0  0  0
 26 24  1  0  0  0  0
 27 28  2  0  0  0  0
 27 34  1  0  0  0  0
 28 30  1  0  0  0  0
 29 28  1  0  0  0  0
 30 31  1  0  0  0  0
 30 32  2  0  0  0  0
 33 32  1  0  0  0  0
 34 33  2  0  0  0  0
M  END
>  <minimizedAffinity>
-4.96369505

$$$$

 OpenBabel03262522253D

 34 36  0  0  0  0  0  0  0  0999 V2000
   35.7980   26.2450   31.4860 C   0  0  0  0  0  0  0  0  0  0  0  0
   36.3880   27.4620   31.8260 C   0  0  0  0  0  0  0  0  0  0  0  0
   37.5420   27.4390   32.6130 C   0  0  0  0  0  0  0  0  0  0  0  0
   38.0190   26.2320   32.9980 N   0  0  0  0  0  0  0  0  0  0  0  0
   37.4320   25.1070   32.6550 C   0  0  0  0  0  0  0  0  0  0  0  0
   36.2830   25.0620   31.8750 N   0  0  0  0  0  0  0  0  0  0  0  0
   34.9010   26.1570   30.8790 H   0  0  0  0  0  0  0  0  0  0  0  0
   37.9790   28.3730   32.8640 H   0  0  0  0  0  0  0  0  0  0  0  0
   35.7680   28.5790   31.3480 O   0  0  0  0  0  0  0  0  0  0  0  0
   35.4170   29.5800   32.2780 C   0  0  0  0  0  0  0  0  0  0  0  0
   35.9400   30.8500   32.3980 C   0  0  0  0  0  0  0  0  0  0  0  0
   35.4720   31.6660   33.3580 C   0  0  0  0  0  0  0  0  0  0  0  0
   34.4820   31.2190   34.1980 C   0  0  0  0  0  0  0  0  0  0  0  0
   33.9560   29.9330   34.0710 C   0  0  0  0  0  0  0  0  0  0  0  0
   34.4570   29.1510   33.0950 N   0  0  0  0  0  0  0  0  0  0  0  0
   36.7170   31.0550   31.6600 H   0  0  0  0  0  0  0  0  0  0  0  0
   35.9100   32.6480   33.4150 H   0  0  0  0  0  0  0  0  0  0  0  0
   34.1120   31.8850   34.9670 H   0  0  0  0  0  0  0  0  0  0  0  0
   32.8720   29.4640   35.0020 C   0  0  0  0  0  0  0  0  0  0  0  0
   32.8090   28.3730   34.9090 H   0  0  0  0  0  0  0  0  0  0  0  0
   33.2190   29.7760   36.0130 H   0  0  0  0  0  0  0  0  0  0  0  0
   31.9250   30.0010   34.8110 H   0  0  0  0  0  0  0  0  0  0  0  0
   38.2960   23.6560   33.3150 S   0  0  0  0  0  0  0  0  0  0  0  0
   39.5740   24.3540   34.4210 C   0  0  0  0  0  0  0  0  0  0  0  0
   39.4340   25.4670   34.3420 H   0  0  0  0  0  0  0  0  0  0  0  0
   40.5800   24.1420   34.0220 H   0  0  0  0  0  0  0  0  0  0  0  0
   39.3630   23.9460   35.8210 C   0  0  0  0  0  0  0  0  0  0  0  0
   40.1630   23.0860   36.5270 C   0  0  0  0  0  0  0  0  0  0  0  0
   41.0230   22.6650   36.0220 H   0  0  0  0  0  0  0  0  0  0  0  0
   39.7810   22.8450   37.8150 C   0  0  0  0  0  0  0  0  0  0  0  0
   40.3980   22.1610   38.4090 H   0  0  0  0  0  0  0  0  0  0  0  0
   38.6830   23.3990   38.4140 C   0  0  0  0  0  3  0  0  0  0  0  0
   37.9070   24.2670   37.6480 C   0  0  0  0  0  3  0  0  0  0  0  0
   38.2770   24.5120   36.3680 N   0  0  0  0  0  0  0  0  0  0  0  0
  1  2  2  0  0  0  0
  1  6  1  0  0  0  0
  2  3  1  0  0  0  0
  3  8  1  0  0  0  0
  3  4  2  0  0  0  0
  5  4  1  0  0  0  0
  5 23  1  0  0  0  0
  6  5  2  0  0  0  0
  7  1  1  0  0  0  0
  9  2  1  0  0  0  0
  9 10  1  0  0  0  0
 10 11  2  0  0  0  0
 10 15  1  0  0  0  0
 11 12  1  0  0  0  0
 12 17  1  0  0  0  0
 12 13  2  0  0  0  0
 13 18  1  0  0  0  0
 14 13  1  0  0  0  0
 14 19  1  0  0  0  0
 15 14  2  0  0  0  0
 16 11  1  0  0  0  0
 19 21  1  0  0  0  0
 20 19  1  0  0  0  0
 22 19  1  0  0  0  0
 23 24  1  0  0  0  0
 24 27  1  0  0  0  0
 25 24  1  0  0  0  0
 26 24  1  0  0  0  0
 27 34  2  0  0  0  0
 27 28  1  0  0  0  0
 28 30  2  0  0  0  0
 29 28  1  0  0  0  0
 30 31  1  0  0  0  0
 30 32  1  0  0  0  0
 33 32  2  0  0  0  0
 34 33  1  0  0  0  0
M  END
>  <minimizedAffinity>
-4.94923258

$$$$
