
 OpenBabel03272507373D

 22 23  0  0  0  0  0  0  0  0999 V2000
   37.7400   30.5450   48.1120 C   0  0  0  0  0  0  0  0  0  0  0  0
   36.3530   30.7250   48.2150 C   0  0  0  0  0  0  0  0  0  0  0  0
   35.8050   31.0050   49.4430 C   0  0  0  0  0  0  0  0  0  0  0  0
   36.6520   31.0940   50.5100 N   0  0  0  0  0  0  0  0  0  0  0  0
   37.9810   30.9210   50.4060 C   0  0  0  0  0  0  0  0  0  0  0  0
   38.5030   30.6500   49.2170 N   0  0  0  0  0  0  0  0  0  0  0  0
   34.7440   31.1540   49.5860 H   0  0  0  0  0  0  0  0  0  0  0  0
   38.6300   30.9970   51.2690 H   0  0  0  0  0  0  0  0  0  0  0  0
   34.6510   29.5010   47.0000 C   0  0  0  0  0  0  0  0  0  0  0  0
   34.4430   28.4230   47.6720 O   0  0  0  0  0  0  0  0  0  0  0  0
   35.4640   30.6400   47.1440 N   0  0  0  0  0  0  0  0  0  0  0  0
   33.9210   29.1340   46.2810 H   0  0  0  0  0  0  0  0  0  0  0  0
   35.2250   31.2560   46.3540 H   0  0  0  0  0  0  0  0  0  0  0  0
   38.1460   30.2710   46.8230 O   0  0  0  0  0  0  0  0  0  0  0  0
   38.8210   31.1790   46.0230 C   0  0  0  0  0  0  0  0  0  0  0  0
   40.1910   31.1720   46.0220 C   0  0  0  0  0  0  0  0  0  0  0  0
   40.7930   30.4960   46.6110 H   0  0  0  0  0  0  0  0  0  0  0  0
   40.7620   32.1210   45.1860 C   0  0  0  0  0  0  0  0  0  0  0  0
   41.8590   32.1850   45.1240 H   0  0  0  0  0  0  0  0  0  0  0  0
   40.0640   33.0170   44.4040 C   0  0  0  0  0  0  0  0  0  0  0  0
   38.6890   32.9130   44.5030 C   0  0  0  0  0  0  0  0  0  0  0  0
   38.0610   32.0220   45.2870 N   0  0  0  0  0  0  0  0  0  0  0  0
  1  2  2  0  0  0  0
  1  6  1  0  0  0  0
  2  3  1  0  0  0  0
  3  7  1  0  0  0  0
  3  4  2  0  0  0  0
  5  4  1  0  0  0  0
  5  8  1  0  0  0  0
  6  5  2  0  0  0  0
  9 11  1  0  0  0  0
  9 10  2  0  0  0  0
 11  2  1  0  0  0  0
 12  9  1  0  0  0  0
 13 11  1  0  0  0  0
 14  1  1  0  0  0  0
 15 14  1  0  0  0  0
 16 15  1  0  0  0  0
 16 17  1  0  0  0  0
 18 16  2  0  0  0  0
 19 18  1  0  0  0  0
 20 21  2  0  0  0  0
 20 18  1  0  0  0  0
 21 22  1  0  0  0  0
 22 15  2  0  0  0  0
M  END
>  <minimizedAffinity>
-4.82708311

>  <minimizedRMSD>
7.08902645

$$$$
