
 OpenBabel03272509573D

 45 48  0  0  0  0  0  0  0  0999 V2000
   34.3150   29.0510   47.9590 C   0  0  0  0  0  0  0  0  0  0  0  0
   33.7120   29.9500   48.1890 H   0  0  0  0  0  0  0  0  0  0  0  0
   35.1490   29.4080   47.3050 H   0  0  0  0  0  0  0  0  0  0  0  0
   33.5320   28.0000   47.2460 C   0  0  0  0  0  0  0  0  0  0  0  0
   33.6240   28.1710   46.1410 H   0  0  0  0  0  0  0  0  0  0  0  0
   33.8840   26.9890   47.4780 H   0  0  0  0  0  0  0  0  0  0  0  0
   32.0710   28.0750   47.5230 C   0  0  0  0  0  0  0  0  0  0  0  0
   31.5910   27.3950   48.6290 C   0  0  0  0  0  0  0  0  0  0  0  0
   30.2650   27.4020   48.9690 C   0  0  0  0  0  0  0  0  0  0  0  0
   29.4140   28.0800   48.2140 N   0  0  0  0  0  0  0  0  0  0  0  0
   29.8800   28.7530   47.1220 C   0  0  0  0  0  0  0  0  0  0  0  0
   31.1800   28.7610   46.7680 N   0  0  0  0  0  0  0  0  0  0  0  0
   32.2740   26.8320   49.2620 H   0  0  0  0  0  0  0  0  0  0  0  0
   29.8630   26.8870   49.8160 H   0  0  0  0  0  0  0  0  0  0  0  0
   28.9090   29.5090   46.2860 C   0  0  0  0  0  0  0  0  0  0  0  0
   29.4010   30.3380   45.7340 H   0  0  0  0  0  0  0  0  0  0  0  0
   28.2010   30.0070   46.9790 H   0  0  0  0  0  0  0  0  0  0  0  0
   28.1410   28.6170   45.4020 C   0  0  0  0  0  0  0  0  0  0  0  0
   26.7590   28.8300   45.4560 C   0  0  0  0  0  0  0  0  0  0  0  0
   26.2900   29.5650   46.0730 H   0  0  0  0  0  0  0  0  0  0  0  0
   25.9560   28.0240   44.6450 C   0  0  0  0  0  0  0  0  0  0  0  0
   24.8650   28.1470   44.6470 H   0  0  0  0  0  0  0  0  0  0  0  0
   26.4650   27.0460   43.8120 C   0  0  0  0  0  3  0  0  0  0  0  0
   27.8550   26.8960   43.8150 C   0  0  0  0  0  3  0  0  0  0  0  0
   28.6350   27.6690   44.5950 N   0  0  0  0  0  0  0  0  0  0  0  0
   34.9480   28.5320   49.1080 O   0  0  0  0  0  0  0  0  0  0  0  0
   37.2200   30.0930   51.4350 C   0  0  0  0  0  0  0  0  0  0  0  0
   38.0210   30.8430   50.5480 C   0  0  0  0  0  0  0  0  0  0  0  0
   37.7160   30.7560   49.1920 C   0  0  0  0  0  0  0  0  0  0  0  0
   36.6690   29.9500   48.8550 N   0  0  0  0  0  0  0  0  0  0  0  0
   35.9270   29.2520   49.7070 C   0  0  0  0  0  0  0  0  0  0  0  0
   36.2180   29.3330   51.0240 N   0  0  0  0  0  0  0  0  0  0  0  0
   37.4980   30.1940   52.4850 H   0  0  0  0  0  0  0  0  0  0  0  0
   38.8430   31.4740   50.8300 H   0  0  0  0  0  0  0  0  0  0  0  0
   38.8030   33.4460   49.2220 F   0  0  0  0  0  0  0  0  0  0  0  0
   38.9300   32.6880   48.1320 C   0  0  0  0  0  0  0  0  0  0  0  0
   38.4220   31.4500   48.1360 C   0  0  0  0  0  0  0  0  0  0  0  0
   38.6090   30.7420   46.9470 C   0  0  0  0  0  0  0  0  0  0  0  0
   39.2640   31.2850   45.8660 C   0  0  0  0  0  0  0  0  0  0  0  0
   39.7700   32.5660   45.9120 C   0  0  0  0  0  0  0  0  0  0  0  0
   39.5900   33.2600   47.0670 C   0  0  0  0  0  0  0  0  0  0  0  0
   38.2490   29.7260   46.8110 H   0  0  0  0  0  0  0  0  0  0  0  0
   39.3990   30.7210   44.9530 H   0  0  0  0  0  0  0  0  0  0  0  0
   40.2810   32.9640   45.0390 H   0  0  0  0  0  0  0  0  0  0  0  0
   39.9810   34.2670   47.1170 H   0  0  0  0  0  0  0  0  0  0  0  0
  1  2  1  0  0  0  0
  1 26  1  0  0  0  0
  3  1  1  0  0  0  0
  4  6  1  0  0  0  0
  4  7  1  0  0  0  0
  4  1  1  0  0  0  0
  5  4  1  0  0  0  0
  7  8  1  0  0  0  0
  8  9  2  0  0  0  0
  8 13  1  0  0  0  0
  9 14  1  0  0  0  0
 10  9  1  0  0  0  0
 11 10  2  0  0  0  0
 12 11  1  0  0  0  0
 12  7  2  0  0  0  0
 15 17  1  0  0  0  0
 15 11  1  0  0  0  0
 16 15  1  0  0  0  0
 18 19  1  0  0  0  0
 18 15  1  0  0  0  0
 19 20  1  0  0  0  0
 21 22  1  0  0  0  0
 21 19  2  0  0  0  0
 23 24  2  0  0  0  0
 23 21  1  0  0  0  0
 24 25  1  0  0  0  0
 25 18  2  0  0  0  0
 26 31  1  0  0  0  0
 27 33  1  0  0  0  0
 28 34  1  0  0  0  0
 28 27  2  0  0  0  0
 29 28  1  0  0  0  0
 30 29  2  0  0  0  0
 30 31  1  0  0  0  0
 31 32  2  0  0  0  0
 32 27  1  0  0  0  0
 36 37  1  0  0  0  0
 36 35  1  0  0  0  0
 37 29  1  0  0  0  0
 38 37  2  0  0  0  0
 39 40  2  0  0  0  0
 39 38  1  0  0  0  0
 40 41  1  0  0  0  0
 41 45  1  0  0  0  0
 41 36  2  0  0  0  0
 42 38  1  0  0  0  0
 43 39  1  0  0  0  0
 44 40  1  0  0  0  0
M  END
>  <minimizedAffinity>
-6.57443428

>  <minimizedRMSD>
0.762698054

$$$$
