
 OpenBabel03272507543D

 22 23  0  0  0  0  0  0  0  0999 V2000
   34.9240   28.8940   50.0970 C   0  0  0  0  0  0  0  0  0  0  0  0
   36.0520   29.7000   49.7700 C   0  0  0  0  0  0  0  0  0  0  0  0
   36.0420   30.3730   48.5580 C   0  0  0  0  0  0  0  0  0  0  0  0
   34.9570   30.2310   47.7370 N   0  0  0  0  0  0  0  0  0  0  0  0
   33.9000   29.4460   48.0940 C   0  0  0  0  0  0  0  0  0  0  0  0
   33.8780   28.7850   49.2550 N   0  0  0  0  0  0  0  0  0  0  0  0
   32.8920   29.4560   47.0830 N   0  0  0  0  0  0  0  0  0  0  0  0
   34.9120   28.3590   51.0410 H   0  0  0  0  0  0  0  0  0  0  0  0
   32.1450   30.1740   47.1510 H   0  0  0  0  0  0  0  0  0  0  0  0
   33.1800   28.6600   46.4590 H   0  0  0  0  0  0  0  0  0  0  0  0
   37.1780   31.2120   48.1880 C   0  0  0  0  0  0  0  0  0  0  0  0
   37.9020   30.6850   47.1200 C   0  0  0  0  0  0  0  0  0  0  0  0
   37.6980   29.7610   46.5790 H   0  0  0  0  0  0  0  0  0  0  0  0
   39.0140   31.3630   46.6470 C   0  0  0  0  0  0  0  0  0  0  0  0
   39.6650   31.0760   45.8330 H   0  0  0  0  0  0  0  0  0  0  0  0
   39.3940   32.5510   47.2360 C   0  0  0  0  0  3  0  0  0  0  0  0
   38.6560   33.0500   48.2950 C   0  0  0  0  0  3  0  0  0  0  0  0
   37.5810   32.3730   48.7350 N   0  0  0  0  0  0  0  0  0  0  0  0
   37.1770   29.7820   50.7370 C   0  0  0  0  0  0  0  0  0  0  0  0
   38.4030   29.6520   50.0970 F   0  0  0  0  0  0  0  0  0  0  0  0
   37.1320   31.0060   51.3510 F   0  0  0  0  0  0  0  0  0  0  0  0
   37.1160   28.8060   51.7150 F   0  0  0  0  0  0  0  0  0  0  0  0
  1  8  1  0  0  0  0
  2  1  1  0  0  0  0
  2 19  1  0  0  0  0
  3  2  2  0  0  0  0
  4  5  2  0  0  0  0
  4  3  1  0  0  0  0
  5  6  1  0  0  0  0
  6  1  2  0  0  0  0
  7  9  1  0  0  0  0
  7  5  1  0  0  0  0
 10  7  1  0  0  0  0
 11  3  1  0  0  0  0
 11 18  1  0  0  0  0
 12 11  2  0  0  0  0
 13 12  1  0  0  0  0
 14 12  1  0  0  0  0
 14 16  2  0  0  0  0
 15 14  1  0  0  0  0
 16 17  1  0  0  0  0
 17 18  2  0  0  0  0
 19 21  1  0  0  0  0
 19 22  1  0  0  0  0
 20 19  1  0  0  0  0
M  END
>  <minimizedAffinity>
-5.81937599

>  <minimizedRMSD>
1.22382498

$$$$
