
 OpenBabel03272507553D

 22 23  0  0  0  0  0  0  0  0999 V2000
   34.9240   28.8910   50.0970 C   0  0  0  0  0  0  0  0  0  0  0  0
   36.0520   29.6980   49.7710 C   0  0  0  0  0  0  0  0  0  0  0  0
   36.0420   30.3730   48.5590 C   0  0  0  0  0  0  0  0  0  0  0  0
   34.9560   30.2310   47.7380 N   0  0  0  0  0  0  0  0  0  0  0  0
   33.9000   29.4450   48.0950 C   0  0  0  0  0  0  0  0  0  0  0  0
   33.8790   28.7820   49.2550 N   0  0  0  0  0  0  0  0  0  0  0  0
   32.8920   29.4550   47.0840 N   0  0  0  0  0  0  0  0  0  0  0  0
   34.9130   28.3550   51.0400 H   0  0  0  0  0  0  0  0  0  0  0  0
   32.1440   30.1730   47.1520 H   0  0  0  0  0  0  0  0  0  0  0  0
   33.1800   28.6600   46.4590 H   0  0  0  0  0  0  0  0  0  0  0  0
   37.1780   31.2110   48.1900 C   0  0  0  0  0  0  0  0  0  0  0  0
   37.9020   30.6850   47.1210 C   0  0  0  0  0  0  0  0  0  0  0  0
   37.6990   29.7620   46.5790 H   0  0  0  0  0  0  0  0  0  0  0  0
   39.0130   31.3640   46.6490 C   0  0  0  0  0  0  0  0  0  0  0  0
   39.6650   31.0790   45.8360 H   0  0  0  0  0  0  0  0  0  0  0  0
   39.3930   32.5530   47.2390 C   0  0  0  0  0  3  0  0  0  0  0  0
   38.6540   33.0500   48.2970 C   0  0  0  0  0  3  0  0  0  0  0  0
   37.5780   32.3730   48.7380 N   0  0  0  0  0  0  0  0  0  0  0  0
   37.1770   29.7800   50.7370 C   0  0  0  0  0  0  0  0  0  0  0  0
   38.4040   29.6520   50.0960 F   0  0  0  0  0  0  0  0  0  0  0  0
   37.1310   31.0030   51.3530 F   0  0  0  0  0  0  0  0  0  0  0  0
   37.1180   28.8020   51.7130 F   0  0  0  0  0  0  0  0  0  0  0  0
  1  8  1  0  0  0  0
  2  1  1  0  0  0  0
  2 19  1  0  0  0  0
  3  2  2  0  0  0  0
  4  5  2  0  0  0  0
  4  3  1  0  0  0  0
  5  6  1  0  0  0  0
  6  1  2  0  0  0  0
  7  9  1  0  0  0  0
  7  5  1  0  0  0  0
 10  7  1  0  0  0  0
 11  3  1  0  0  0  0
 11 18  1  0  0  0  0
 12 11  2  0  0  0  0
 13 12  1  0  0  0  0
 14 12  1  0  0  0  0
 14 16  2  0  0  0  0
 15 14  1  0  0  0  0
 16 17  1  0  0  0  0
 17 18  2  0  0  0  0
 19 21  1  0  0  0  0
 19 22  1  0  0  0  0
 20 19  1  0  0  0  0
M  END
>  <minimizedAffinity>
-5.81868029

>  <minimizedRMSD>
1.22773123

$$$$
