
 OpenBabel03272509463D

 24 25  0  0  0  0  0  0  0  0999 V2000
   32.3740   29.8600   46.1750 C   0  0  0  0  0  0  0  0  0  0  0  0
   32.2660   29.3740   45.1840 H   0  0  0  0  0  0  0  0  0  0  0  0
   31.4510   29.5960   46.7470 H   0  0  0  0  0  0  0  0  0  0  0  0
   33.6030   29.3660   46.9050 C   0  0  0  0  0  0  0  0  0  0  0  0
   33.3900   29.4720   48.0050 H   0  0  0  0  0  0  0  0  0  0  0  0
   34.4990   29.9460   46.6770 H   0  0  0  0  0  0  0  0  0  0  0  0
   33.7330   27.9040   46.6620 C   0  0  0  0  0  0  0  0  0  0  0  0
   33.9030   27.5530   45.3320 C   0  0  0  0  0  0  0  0  0  0  0  0
   33.9430   28.2710   44.5160 H   0  0  0  0  0  0  0  0  0  0  0  0
   34.0280   26.1910   45.0600 C   0  0  0  0  0  0  0  0  0  0  0  0
   34.1630   25.9170   44.0060 H   0  0  0  0  0  0  0  0  0  0  0  0
   33.9870   25.2160   46.0470 C   0  0  0  0  0  3  0  0  0  0  0  0
   33.8120   25.6510   47.3640 C   0  0  0  0  0  3  0  0  0  0  0  0
   33.6900   26.9700   47.6350 N   0  0  0  0  0  0  0  0  0  0  0  0
   32.3990   31.2630   46.0780 O   0  0  0  0  0  0  0  0  0  0  0  0
   30.8070   33.5430   43.7480 C   0  0  0  0  0  0  0  0  0  0  0  0
   30.5820   32.6600   42.6820 C   0  0  0  0  0  0  0  0  0  0  0  0
   30.9840   31.3370   42.8140 C   0  0  0  0  0  0  0  0  0  0  0  0
   31.5790   30.9950   43.9980 N   0  0  0  0  0  0  0  0  0  0  0  0
   31.7850   31.8630   45.0080 C   0  0  0  0  0  0  0  0  0  0  0  0
   31.3880   33.1350   44.8590 N   0  0  0  0  0  0  0  0  0  0  0  0
   30.4770   34.5520   43.5940 H   0  0  0  0  0  0  0  0  0  0  0  0
   30.1090   32.9020   41.7250 H   0  0  0  0  0  0  0  0  0  0  0  0
   30.8390   30.6010   42.0280 H   0  0  0  0  0  0  0  0  0  0  0  0
  1  3  1  0  0  0  0
  1  4  1  0  0  0  0
  2  1  1  0  0  0  0
  4  5  1  0  0  0  0
  6  4  1  0  0  0  0
  7  4  1  0  0  0  0
  7 14  1  0  0  0  0
  8  7  2  0  0  0  0
  9  8  1  0  0  0  0
 10  8  1  0  0  0  0
 10 12  2  0  0  0  0
 11 10  1  0  0  0  0
 12 13  1  0  0  0  0
 13 14  2  0  0  0  0
 15  1  1  0  0  0  0
 16 21  1  0  0  0  0
 17 18  1  0  0  0  0
 17 16  2  0  0  0  0
 18 19  2  0  0  0  0
 19 20  1  0  0  0  0
 20 15  1  0  0  0  0
 21 20  2  0  0  0  0
 22 16  1  0  0  0  0
 23 17  1  0  0  0  0
 24 18  1  0  0  0  0
M  END
>  <minimizedAffinity>
-2.35235

>  <minimizedRMSD>
6.6164217

$$$$
