
 OpenBabel03272509463D

 24 25  0  0  0  0  0  0  0  0999 V2000
   32.0520   26.7450   48.1760 C   0  0  0  0  0  0  0  0  0  0  0  0
   32.5660   26.0360   48.8580 H   0  0  0  0  0  0  0  0  0  0  0  0
   31.4230   26.1160   47.5000 H   0  0  0  0  0  0  0  0  0  0  0  0
   31.1870   27.7230   48.9410 C   0  0  0  0  0  0  0  0  0  0  0  0
   31.2800   28.7150   48.4160 H   0  0  0  0  0  0  0  0  0  0  0  0
   31.5050   27.8580   49.9760 H   0  0  0  0  0  0  0  0  0  0  0  0
   29.7660   27.3150   48.7760 C   0  0  0  0  0  0  0  0  0  0  0  0
   29.0610   27.1950   49.9630 C   0  0  0  0  0  0  0  0  0  0  0  0
   29.4900   27.3790   50.9460 H   0  0  0  0  0  0  0  0  0  0  0  0
   27.7220   26.8130   49.8540 C   0  0  0  0  0  0  0  0  0  0  0  0
   27.1670   26.7200   50.7950 H   0  0  0  0  0  0  0  0  0  0  0  0
   27.1060   26.5600   48.6370 C   0  0  0  0  0  3  0  0  0  0  0  0
   27.8850   26.7030   47.4870 C   0  0  0  0  0  3  0  0  0  0  0  0
   29.1820   27.0720   47.5850 N   0  0  0  0  0  0  0  0  0  0  0  0
   32.9560   27.4400   47.3540 O   0  0  0  0  0  0  0  0  0  0  0  0
   34.8230   30.4240   48.2360 C   0  0  0  0  0  0  0  0  0  0  0  0
   35.5330   29.9310   49.3390 C   0  0  0  0  0  0  0  0  0  0  0  0
   35.3400   28.6100   49.7230 C   0  0  0  0  0  0  0  0  0  0  0  0
   34.4520   27.8820   48.9780 N   0  0  0  0  0  0  0  0  0  0  0  0
   33.7800   28.3800   47.9210 C   0  0  0  0  0  0  0  0  0  0  0  0
   33.9830   29.6570   47.5680 N   0  0  0  0  0  0  0  0  0  0  0  0
   35.0090   31.4490   47.9820 H   0  0  0  0  0  0  0  0  0  0  0  0
   36.2490   30.4860   49.9540 H   0  0  0  0  0  0  0  0  0  0  0  0
   35.8580   28.1650   50.5680 H   0  0  0  0  0  0  0  0  0  0  0  0
  1  2  1  0  0  0  0
  1  4  1  0  0  0  0
  3  1  1  0  0  0  0
  4  6  1  0  0  0  0
  5  4  1  0  0  0  0
  7  4  1  0  0  0  0
  7  8  1  0  0  0  0
  8  9  1  0  0  0  0
 10  8  2  0  0  0  0
 10 11  1  0  0  0  0
 12 10  1  0  0  0  0
 13 14  1  0  0  0  0
 13 12  2  0  0  0  0
 14  7  2  0  0  0  0
 15 20  1  0  0  0  0
 15  1  1  0  0  0  0
 16 17  1  0  0  0  0
 17 18  2  0  0  0  0
 17 23  1  0  0  0  0
 18 24  1  0  0  0  0
 19 18  1  0  0  0  0
 20 19  2  0  0  0  0
 21 20  1  0  0  0  0
 21 16  2  0  0  0  0
 22 16  1  0  0  0  0
M  END
>  <minimizedAffinity>
-3.78369546

>  <minimizedRMSD>
3.53311586

$$$$
