
 OpenBabel03272506313D

 39 41  0  0  1  0  0  0  0  0999 V2000
   34.2330   29.4080   48.6890 C   0  0  1  0  0  0  0  0  0  0  0  0
   33.8920   30.0540   49.9410 C   0  0  0  0  0  0  0  0  0  0  0  0
   34.6700   29.6250   51.1690 C   0  0  0  0  0  0  0  0  0  0  0  0
   36.1220   29.3530   50.9310 C   0  0  0  0  0  0  0  0  0  0  0  0
   36.5040   28.7310   49.6430 C   0  0  0  0  0  0  0  0  0  0  0  0
   35.7170   29.2580   48.4980 C   0  0  2  0  0  0  0  0  0  0  0  0
   33.9470   30.1010   47.8360 H   0  0  0  0  0  0  0  0  0  0  0  0
   32.8460   30.0930   50.2360 H   0  0  0  0  0  0  0  0  0  0  0  0
   34.1900   31.1370   49.8440 H   0  0  0  0  0  0  0  0  0  0  0  0
   34.1800   28.7190   51.6200 H   0  0  0  0  0  0  0  0  0  0  0  0
   34.5970   30.4170   51.9420 H   0  0  0  0  0  0  0  0  0  0  0  0
   36.7420   30.2690   51.1130 H   0  0  0  0  0  0  0  0  0  0  0  0
   36.4340   28.6400   51.7430 H   0  0  0  0  0  0  0  0  0  0  0  0
   37.5610   28.9240   49.4400 H   0  0  0  0  0  0  0  0  0  0  0  0
   36.3690   27.6210   49.6490 H   0  0  0  0  0  0  0  0  0  0  0  0
   36.0140   28.7310   47.5980 H   0  0  0  0  0  0  0  0  0  0  0  0
   32.1710   27.8950   48.8080 C   0  0  0  0  0  0  0  0  0  0  0  0
   33.5010   28.1730   48.3640 C   0  0  0  0  0  0  0  0  0  0  0  0
   34.0850   27.1830   47.5870 C   0  0  0  0  0  0  0  0  0  0  0  0
   33.3900   26.0360   47.2940 N   0  0  0  0  0  0  0  0  0  0  0  0
   32.1450   25.8390   47.7440 C   0  0  0  0  0  0  0  0  0  0  0  0
   31.5310   26.7790   48.5080 N   0  0  0  0  0  0  0  0  0  0  0  0
   31.6940   28.6520   49.4160 H   0  0  0  0  0  0  0  0  0  0  0  0
   35.0810   27.3020   47.2070 H   0  0  0  0  0  0  0  0  0  0  0  0
   31.7330   24.8870   47.4290 H   0  0  0  0  0  0  0  0  0  0  0  0
   36.2280   30.7080   48.3080 C   0  0  0  0  0  0  0  0  0  0  0  0
   36.2730   31.2450   49.2730 H   0  0  0  0  0  0  0  0  0  0  0  0
   35.5740   31.2920   47.6530 H   0  0  0  0  0  0  0  0  0  0  0  0
   37.6420   30.6860   47.7150 C   0  0  0  0  0  0  0  0  0  0  0  0
   38.2090   29.8180   48.0810 H   0  0  0  0  0  0  0  0  0  0  0  0
   37.5800   30.5950   46.6070 H   0  0  0  0  0  0  0  0  0  0  0  0
   38.3530   31.9390   48.0940 C   0  0  0  0  0  0  0  0  0  0  0  0
   38.2440   32.5410   49.3330 C   0  0  0  0  0  0  0  0  0  0  0  0
   37.6160   32.0930   50.0730 H   0  0  0  0  0  0  0  0  0  0  0  0
   38.9730   33.6980   49.5110 C   0  0  0  0  0  0  0  0  0  0  0  0
   38.8800   34.1690   50.5010 H   0  0  0  0  0  0  0  0  0  0  0  0
   39.7830   34.2970   48.5910 C   0  0  0  0  0  0  0  0  0  0  0  0
   39.8410   33.6290   47.3660 C   0  0  0  0  0  0  0  0  0  0  0  0
   39.1450   32.4970   47.1460 N   0  0  0  0  0  0  0  0  0  0  0  0
  1  7  1  6  0  0  0
  1  2  1  0  0  0  0
  2  8  1  0  0  0  0
  2  3  1  0  0  0  0
  3 10  1  0  0  0  0
  3 11  1  0  0  0  0
  4 12  1  0  0  0  0
  4  3  1  0  0  0  0
  4 13  1  0  0  0  0
  5 15  1  0  0  0  0
  5  4  1  0  0  0  0
  6 16  1  6  0  0  0
  6  1  1  0  0  0  0
  6  5  1  0  0  0  0
  9  2  1  0  0  0  0
 14  5  1  0  0  0  0
 17 23  1  0  0  0  0
 18  1  1  0  0  0  0
 18 17  2  0  0  0  0
 19 18  1  0  0  0  0
 20 19  2  0  0  0  0
 20 21  1  0  0  0  0
 21 22  2  0  0  0  0
 22 17  1  0  0  0  0
 24 19  1  0  0  0  0
 25 21  1  0  0  0  0
 26  6  1  0  0  0  0
 26 27  1  0  0  0  0
 28 26  1  0  0  0  0
 29 30  1  0  0  0  0
 29 32  1  0  0  0  0
 29 26  1  0  0  0  0
 31 29  1  0  0  0  0
 32 33  1  0  0  0  0
 33 35  2  0  0  0  0
 33 34  1  0  0  0  0
 35 36  1  0  0  0  0
 37 35  1  0  0  0  0
 38 37  2  0  0  0  0
 39 38  1  0  0  0  0
 39 32  2  0  0  0  0
M  END
>  <minimizedAffinity>
-5.50562763

>  <minimizedRMSD>
2.89201331

$$$$
