
 OpenBabel03272507573D

 31 33  0  0  0  0  0  0  0  0999 V2000
   36.9200   31.1260   48.3870 C   0  0  0  0  0  0  0  0  0  0  0  0
   37.2290   32.0930   49.3310 C   0  0  0  0  0  0  0  0  0  0  0  0
   38.1880   33.0520   49.0350 C   0  0  0  0  0  0  0  0  0  0  0  0
   38.8310   33.0460   47.8130 C   0  0  0  0  0  0  0  0  0  0  0  0
   38.4960   32.0710   46.9050 C   0  0  0  0  0  0  0  0  0  0  0  0
   37.5690   31.1610   47.2180 N   0  0  0  0  0  0  0  0  0  0  0  0
   36.8170   32.2270   50.3200 H   0  0  0  0  0  0  0  0  0  0  0  0
   38.4890   33.8380   49.7080 H   0  0  0  0  0  0  0  0  0  0  0  0
   39.5760   33.7630   47.5390 H   0  0  0  0  0  0  0  0  0  0  0  0
   35.0990   28.5530   50.4190 C   0  0  0  0  0  0  0  0  0  0  0  0
   36.1230   29.4550   50.0020 C   0  0  0  0  0  0  0  0  0  0  0  0
   35.9030   30.1990   48.8420 C   0  0  0  0  0  0  0  0  0  0  0  0
   34.7310   30.0250   48.1730 N   0  0  0  0  0  0  0  0  0  0  0  0
   33.7820   29.1480   48.6140 C   0  0  0  0  0  0  0  0  0  0  0  0
   33.9610   28.4210   49.7220 N   0  0  0  0  0  0  0  0  0  0  0  0
   32.6490   29.1420   47.7530 N   0  0  0  0  0  0  0  0  0  0  0  0
   35.2530   27.9660   51.3200 H   0  0  0  0  0  0  0  0  0  0  0  0
   32.7440   28.9620   46.7400 H   0  0  0  0  0  0  0  0  0  0  0  0
   31.6600   29.3180   48.1000 H   0  0  0  0  0  0  0  0  0  0  0  0
   37.3570   29.5550   50.8150 C   0  0  0  0  0  0  0  0  0  0  0  0
   38.4690   29.7860   50.0120 F   0  0  0  0  0  0  0  0  0  0  0  0
   37.2330   30.6040   51.6810 F   0  0  0  0  0  0  0  0  0  0  0  0
   37.6080   28.4200   51.5580 F   0  0  0  0  0  0  0  0  0  0  0  0
   39.1480   32.0240   45.6000 C   0  0  0  0  0  0  0  0  0  0  0  0
   40.1590   31.1150   45.3600 C   0  0  0  0  0  0  0  0  0  0  0  0
   40.5090   30.4120   46.1030 H   0  0  0  0  0  0  0  0  0  0  0  0
   40.6830   31.1790   44.0960 C   0  0  0  0  0  0  0  0  0  0  0  0
   41.4950   30.5000   43.7970 H   0  0  0  0  0  0  0  0  0  0  0  0
   40.3010   32.0370   43.0900 C   0  0  0  0  0  0  0  0  0  0  0  0
   39.2760   32.9230   43.4130 C   0  0  0  0  0  0  0  0  0  0  0  0
   38.7400   32.8850   44.6480 N   0  0  0  0  0  0  0  0  0  0  0  0
  1 12  1  0  0  0  0
  1  2  1  0  0  0  0
  2  7  1  0  0  0  0
  3  2  2  0  0  0  0
  3  8  1  0  0  0  0
  4  3  1  0  0  0  0
  5  6  1  0  0  0  0
  5  4  2  0  0  0  0
  6  1  2  0  0  0  0
  9  4  1  0  0  0  0
 10 17  1  0  0  0  0
 11 10  1  0  0  0  0
 11 20  1  0  0  0  0
 12 11  2  0  0  0  0
 13 14  2  0  0  0  0
 13 12  1  0  0  0  0
 14 15  1  0  0  0  0
 15 10  2  0  0  0  0
 16 19  1  0  0  0  0
 16 14  1  0  0  0  0
 18 16  1  0  0  0  0
 20 23  1  0  0  0  0
 20 22  1  0  0  0  0
 21 20  1  0  0  0  0
 24  5  1  0  0  0  0
 25 24  1  0  0  0  0
 25 26  1  0  0  0  0
 27 25  2  0  0  0  0
 28 27  1  0  0  0  0
 29 30  2  0  0  0  0
 29 27  1  0  0  0  0
 30 31  1  0  0  0  0
 31 24  2  0  0  0  0
M  END
>  <minimizedAffinity>
-7.01982212

>  <minimizedRMSD>
1.07010388

$$$$
