
 OpenBabel03262521523D

 21 22  0  0  0  0  0  0  0  0999 V2000
   38.4200   24.5480   33.3970 C   0  0  0  0  0  0  0  0  0  0  0  0
   39.3390   24.5420   32.7390 H   0  0  0  0  0  0  0  0  0  0  0  0
   38.6170   25.2750   34.1850 H   0  0  0  0  0  0  0  0  0  0  0  0
   37.2710   24.9510   32.5420 C   0  0  0  0  0  0  0  0  0  0  0  0
   36.6010   23.8610   31.9710 C   0  0  0  0  0  0  0  0  0  0  0  0
   36.9050   22.8240   32.1460 H   0  0  0  0  0  0  0  0  0  0  0  0
   35.4910   23.9340   31.1270 C   0  0  0  0  0  0  0  0  0  0  0  0
   35.0090   23.0820   30.7140 H   0  0  0  0  0  0  0  0  0  0  0  0
   35.0450   25.2310   30.8560 C   0  0  0  0  0  3  0  0  0  0  0  0
   35.7180   26.2890   31.4280 C   0  0  0  0  0  3  0  0  0  0  0  0
   36.8010   26.1610   32.2480 N   0  0  0  0  0  0  0  0  0  0  0  0
   38.1710   22.9390   34.1790 S   0  0  0  0  0  0  0  0  0  0  0  0
   38.4410   23.1300   35.9310 C   0  0  0  0  0  0  0  0  0  0  0  0
   39.6720   22.6320   36.3680 C   0  0  0  0  0  0  0  0  0  0  0  0
   39.9720   22.7360   37.7360 C   0  0  0  0  0  0  0  0  0  0  0  0
   39.0720   23.3070   38.5740 N   0  0  0  0  0  0  0  0  0  0  0  0
   37.8920   23.7740   38.0910 C   0  0  0  0  0  0  0  0  0  0  0  0
   37.5850   23.6880   36.8040 N   0  0  0  0  0  0  0  0  0  0  0  0
   40.4520   22.1660   35.7870 H   0  0  0  0  0  0  0  0  0  0  0  0
   40.9080   22.3690   38.1340 H   0  0  0  0  0  0  0  0  0  0  0  0
   37.2450   24.2090   38.8400 H   0  0  0  0  0  0  0  0  0  0  0  0
  1 12  1  0  0  0  0
  1  3  1  0  0  0  0
  2  1  1  0  0  0  0
  4  1  1  0  0  0  0
  5  6  1  0  0  0  0
  5  4  2  0  0  0  0
  7  5  1  0  0  0  0
  8  7  1  0  0  0  0
  9  7  2  0  0  0  0
  9 10  1  0  0  0  0
 10 11  2  0  0  0  0
 11  4  1  0  0  0  0
 12 13  1  0  0  0  0
 13 14  2  0  0  0  0
 13 18  1  0  0  0  0
 14 15  1  0  0  0  0
 15 20  1  0  0  0  0
 15 16  2  0  0  0  0
 17 16  1  0  0  0  0
 17 21  1  0  0  0  0
 18 17  2  0  0  0  0
 19 14  1  0  0  0  0
M  END
>  <minimizedAffinity>
-4.16413879

$$$$

 OpenBabel03262521523D

 21 22  0  0  0  0  0  0  0  0999 V2000
   38.3630   25.0730   34.7460 C   0  0  0  0  0  0  0  0  0  0  0  0
   39.1720   24.8170   34.0000 H   0  0  0  0  0  0  0  0  0  0  0  0
   37.4260   24.7290   34.3060 H   0  0  0  0  0  0  0  0  0  0  0  0
   38.6840   24.3530   36.0070 C   0  0  0  0  0  0  0  0  0  0  0  0
   37.9060   24.7720   37.0940 C   0  0  0  0  0  0  0  0  0  0  0  0
   37.1420   25.5520   37.0070 H   0  0  0  0  0  0  0  0  0  0  0  0
   37.9860   24.2770   38.3970 C   0  0  0  0  0  0  0  0  0  0  0  0
   37.3760   24.6210   39.1960 H   0  0  0  0  0  0  0  0  0  0  0  0
   38.9430   23.2750   38.5860 C   0  0  0  0  0  3  0  0  0  0  0  0
   39.6980   22.8770   37.5030 C   0  0  0  0  0  3  0  0  0  0  0  0
   39.5780   23.3960   36.2470 N   0  0  0  0  0  0  0  0  0  0  0  0
   38.2390   26.8600   34.9810 S   0  0  0  0  0  0  0  0  0  0  0  0
   37.0100   27.4810   33.8480 C   0  0  0  0  0  0  0  0  0  0  0  0
   36.2560   28.5400   34.3600 C   0  0  0  0  0  0  0  0  0  0  0  0
   35.2600   29.0930   33.5380 C   0  0  0  0  0  0  0  0  0  0  0  0
   35.0670   28.5890   32.2950 N   0  0  0  0  0  0  0  0  0  0  0  0
   35.8320   27.5590   31.8510 C   0  0  0  0  0  0  0  0  0  0  0  0
   36.7780   27.0200   32.6070 N   0  0  0  0  0  0  0  0  0  0  0  0
   36.3310   29.0120   35.3270 H   0  0  0  0  0  0  0  0  0  0  0  0
   34.6440   29.9140   33.8790 H   0  0  0  0  0  0  0  0  0  0  0  0
   35.5980   27.2310   30.8480 H   0  0  0  0  0  0  0  0  0  0  0  0
  1 12  1  0  0  0  0
  1  4  1  0  0  0  0
  2  1  1  0  0  0  0
  3  1  1  0  0  0  0
  4 11  2  0  0  0  0
  4  5  1  0  0  0  0
  5  7  2  0  0  0  0
  6  5  1  0  0  0  0
  7  9  1  0  0  0  0
  7  8  1  0  0  0  0
 10  9  2  0  0  0  0
 11 10  1  0  0  0  0
 13 14  1  0  0  0  0
 13 12  1  0  0  0  0
 14 19  1  0  0  0  0
 15 20  1  0  0  0  0
 15 14  2  0  0  0  0
 16 15  1  0  0  0  0
 17 16  2  0  0  0  0
 17 18  1  0  0  0  0
 18 13  2  0  0  0  0
 21 17  1  0  0  0  0
M  END
>  <minimizedAffinity>
-4.16089964

$$$$

 OpenBabel03262521523D

 21 22  0  0  0  0  0  0  0  0999 V2000
   38.6350   23.8570   34.3680 C   0  0  0  0  0  0  0  0  0  0  0  0
   39.5680   23.5150   33.8320 H   0  0  0  0  0  0  0  0  0  0  0  0
   37.8180   23.2540   33.9690 H   0  0  0  0  0  0  0  0  0  0  0  0
   38.8490   23.6150   35.8200 C   0  0  0  0  0  0  0  0  0  0  0  0
   37.9180   24.2760   36.6310 C   0  0  0  0  0  0  0  0  0  0  0  0
   37.1200   24.9050   36.2220 H   0  0  0  0  0  0  0  0  0  0  0  0
   37.8720   24.2350   38.0260 C   0  0  0  0  0  0  0  0  0  0  0  0
   37.1480   24.7510   38.6070 H   0  0  0  0  0  0  0  0  0  0  0  0
   38.8650   23.4500   38.6220 C   0  0  0  0  0  3  0  0  0  0  0  0
   39.7710   22.8080   37.8050 C   0  0  0  0  0  3  0  0  0  0  0  0
   39.7690   22.8830   36.4430 N   0  0  0  0  0  0  0  0  0  0  0  0
   38.2740   25.5880   34.0000 S   0  0  0  0  0  0  0  0  0  0  0  0
   37.0360   25.6330   32.7180 C   0  0  0  0  0  0  0  0  0  0  0  0
   36.7060   24.3730   32.2100 C   0  0  0  0  0  0  0  0  0  0  0  0
   35.7390   24.3090   31.1920 C   0  0  0  0  0  0  0  0  0  0  0  0
   35.1680   25.4540   30.7430 N   0  0  0  0  0  0  0  0  0  0  0  0
   35.5290   26.6490   31.2760 C   0  0  0  0  0  0  0  0  0  0  0  0
   36.4380   26.7360   32.2370 N   0  0  0  0  0  0  0  0  0  0  0  0
   37.0970   23.4100   32.4970 H   0  0  0  0  0  0  0  0  0  0  0  0
   35.4430   23.3640   30.7590 H   0  0  0  0  0  0  0  0  0  0  0  0
   35.0160   27.5000   30.8490 H   0  0  0  0  0  0  0  0  0  0  0  0
  1  4  1  0  0  0  0
  2  1  1  0  0  0  0
  3  1  1  0  0  0  0
  4 11  2  0  0  0  0
  4  5  1  0  0  0  0
  5  7  2  0  0  0  0
  6  5  1  0  0  0  0
  7  8  1  0  0  0  0
  7  9  1  0  0  0  0
 10  9  2  0  0  0  0
 11 10  1  0  0  0  0
 12  1  1  0  0  0  0
 13 12  1  0  0  0  0
 14 19  1  0  0  0  0
 14 13  2  0  0  0  0
 15 14  1  0  0  0  0
 16 15  2  0  0  0  0
 16 17  1  0  0  0  0
 17 18  2  0  0  0  0
 18 13  1  0  0  0  0
 20 15  1  0  0  0  0
 21 17  1  0  0  0  0
M  END
>  <minimizedAffinity>
-4.10933113

$$$$

 OpenBabel03262521523D

 21 22  0  0  0  0  0  0  0  0999 V2000
   38.8870   23.9570   33.3880 C   0  0  0  0  0  0  0  0  0  0  0  0
   38.5060   23.9600   32.3250 H   0  0  0  0  0  0  0  0  0  0  0  0
   39.9740   23.9050   33.3200 H   0  0  0  0  0  0  0  0  0  0  0  0
   38.4290   25.2220   34.0220 C   0  0  0  0  0  0  0  0  0  0  0  0
   39.4390   25.8750   34.7400 C   0  0  0  0  0  0  0  0  0  0  0  0
   40.4570   25.4810   34.8180 H   0  0  0  0  0  0  0  0  0  0  0  0
   39.3020   27.0770   35.4370 C   0  0  0  0  0  0  0  0  0  0  0  0
   40.0940   27.5420   35.9710 H   0  0  0  0  0  0  0  0  0  0  0  0
   38.0230   27.6430   35.3850 C   0  0  0  0  0  3  0  0  0  0  0  0
   37.0440   26.9840   34.6720 C   0  0  0  0  0  3  0  0  0  0  0  0
   37.2340   25.8080   34.0080 N   0  0  0  0  0  0  0  0  0  0  0  0
   38.3180   22.4920   34.2770 S   0  0  0  0  0  0  0  0  0  0  0  0
   38.5030   22.8000   36.0230 C   0  0  0  0  0  0  0  0  0  0  0  0
   39.7890   22.5440   36.5080 C   0  0  0  0  0  0  0  0  0  0  0  0
   40.0290   22.7560   37.8750 C   0  0  0  0  0  0  0  0  0  0  0  0
   39.0210   23.1960   38.6680 N   0  0  0  0  0  0  0  0  0  0  0  0
   37.7920   23.4280   38.1400 C   0  0  0  0  0  0  0  0  0  0  0  0
   37.5400   23.2360   36.8530 N   0  0  0  0  0  0  0  0  0  0  0  0
   40.6540   22.1970   35.9640 H   0  0  0  0  0  0  0  0  0  0  0  0
   41.0030   22.5750   38.3080 H   0  0  0  0  0  0  0  0  0  0  0  0
   37.0590   23.7750   38.8560 H   0  0  0  0  0  0  0  0  0  0  0  0
  1  4  1  0  0  0  0
  1 12  1  0  0  0  0
  2  1  1  0  0  0  0
  3  1  1  0  0  0  0
  4  5  1  0  0  0  0
  5  6  1  0  0  0  0
  5  7  2  0  0  0  0
  7  8  1  0  0  0  0
  9  7  1  0  0  0  0
 10  9  2  0  0  0  0
 11  4  2  0  0  0  0
 11 10  1  0  0  0  0
 12 13  1  0  0  0  0
 13 14  2  0  0  0  0
 13 18  1  0  0  0  0
 14 15  1  0  0  0  0
 15 20  1  0  0  0  0
 15 16  2  0  0  0  0
 17 16  1  0  0  0  0
 17 21  1  0  0  0  0
 18 17  2  0  0  0  0
 19 14  1  0  0  0  0
M  END
>  <minimizedAffinity>
-4.10779905

$$$$

 OpenBabel03262521523D

 21 22  0  0  0  0  0  0  0  0999 V2000
   38.3680   24.6480   34.6060 C   0  0  0  0  0  0  0  0  0  0  0  0
   37.2790   24.9490   34.6180 H   0  0  0  0  0  0  0  0  0  0  0  0
   38.9310   25.5590   34.3980 H   0  0  0  0  0  0  0  0  0  0  0  0
   38.6850   24.0910   35.9490 C   0  0  0  0  0  0  0  0  0  0  0  0
   37.8710   24.6070   36.9650 C   0  0  0  0  0  0  0  0  0  0  0  0
   37.0850   25.3460   36.7740 H   0  0  0  0  0  0  0  0  0  0  0  0
   37.9390   24.2710   38.3180 C   0  0  0  0  0  0  0  0  0  0  0  0
   37.3010   24.6850   39.0600 H   0  0  0  0  0  0  0  0  0  0  0  0
   38.9230   23.3300   38.6400 C   0  0  0  0  0  3  0  0  0  0  0  0
   39.7120   22.8350   37.6250 C   0  0  0  0  0  3  0  0  0  0  0  0
   39.6030   23.2000   36.3150 N   0  0  0  0  0  0  0  0  0  0  0  0
   38.7020   23.4760   33.2740 S   0  0  0  0  0  0  0  0  0  0  0  0
   37.2920   22.3960   33.1230 C   0  0  0  0  0  0  0  0  0  0  0  0
   36.5850   22.5560   31.9280 C   0  0  0  0  0  0  0  0  0  0  0  0
   35.4540   21.7480   31.7210 C   0  0  0  0  0  0  0  0  0  0  0  0
   35.0920   20.8530   32.6730 N   0  0  0  0  0  0  0  0  0  0  0  0
   35.8190   20.7420   33.8140 C   0  0  0  0  0  0  0  0  0  0  0  0
   36.8900   21.4920   34.0330 N   0  0  0  0  0  0  0  0  0  0  0  0
   36.7890   23.2320   31.1120 H   0  0  0  0  0  0  0  0  0  0  0  0
   34.8670   21.8270   30.8170 H   0  0  0  0  0  0  0  0  0  0  0  0
   35.4470   20.0010   34.5080 H   0  0  0  0  0  0  0  0  0  0  0  0
  1  2  1  0  0  0  0
  1  4  1  0  0  0  0
  3  1  1  0  0  0  0
  4 11  2  0  0  0  0
  4  5  1  0  0  0  0
  5  7  2  0  0  0  0
  6  5  1  0  0  0  0
  7  9  1  0  0  0  0
  7  8  1  0  0  0  0
 10  9  2  0  0  0  0
 11 10  1  0  0  0  0
 12  1  1  0  0  0  0
 13 12  1  0  0  0  0
 13 18  1  0  0  0  0
 14 13  2  0  0  0  0
 15 14  1  0  0  0  0
 15 16  2  0  0  0  0
 16 17  1  0  0  0  0
 17 18  2  0  0  0  0
 17 21  1  0  0  0  0
 19 14  1  0  0  0  0
 20 15  1  0  0  0  0
M  END
>  <minimizedAffinity>
-4.08745718

$$$$

 OpenBabel03262521523D

 21 22  0  0  0  0  0  0  0  0999 V2000
   38.4820   23.3090   33.1230 C   0  0  0  0  0  0  0  0  0  0  0  0
   39.3930   22.6960   33.3850 H   0  0  0  0  0  0  0  0  0  0  0  0
   38.6890   23.7590   32.1510 H   0  0  0  0  0  0  0  0  0  0  0  0
   37.3250   22.3750   33.0680 C   0  0  0  0  0  0  0  0  0  0  0  0
   36.5940   22.4740   31.8770 C   0  0  0  0  0  0  0  0  0  0  0  0
   36.8600   23.1730   31.0770 H   0  0  0  0  0  0  0  0  0  0  0  0
   35.4620   21.7260   31.5470 C   0  0  0  0  0  0  0  0  0  0  0  0
   34.9350   21.8290   30.6310 H   0  0  0  0  0  0  0  0  0  0  0  0
   35.0600   20.8090   32.5240 C   0  0  0  0  0  3  0  0  0  0  0  0
   35.7930   20.7280   33.6890 C   0  0  0  0  0  3  0  0  0  0  0  0
   36.8950   21.4860   33.9600 N   0  0  0  0  0  0  0  0  0  0  0  0
   38.2360   24.6480   34.3100 S   0  0  0  0  0  0  0  0  0  0  0  0
   38.6280   24.0230   35.9330 C   0  0  0  0  0  0  0  0  0  0  0  0
   37.7820   24.4970   36.9390 C   0  0  0  0  0  0  0  0  0  0  0  0
   38.0160   24.0610   38.2540 C   0  0  0  0  0  0  0  0  0  0  0  0
   39.0400   23.2070   38.4990 N   0  0  0  0  0  0  0  0  0  0  0  0
   39.8290   22.7790   37.4800 C   0  0  0  0  0  0  0  0  0  0  0  0
   39.6290   23.1760   36.2320 N   0  0  0  0  0  0  0  0  0  0  0  0
   36.9450   25.1720   36.8490 H   0  0  0  0  0  0  0  0  0  0  0  0
   37.3960   24.3940   39.0740 H   0  0  0  0  0  0  0  0  0  0  0  0
   40.6170   22.1020   37.7810 H   0  0  0  0  0  0  0  0  0  0  0  0
  1  2  1  0  0  0  0
  1 12  1  0  0  0  0
  3  1  1  0  0  0  0
  4  1  1  0  0  0  0
  4 11  1  0  0  0  0
  5  4  2  0  0  0  0
  6  5  1  0  0  0  0
  7  5  1  0  0  0  0
  7  9  2  0  0  0  0
  8  7  1  0  0  0  0
  9 10  1  0  0  0  0
 10 11  2  0  0  0  0
 12 13  1  0  0  0  0
 13 18  2  0  0  0  0
 13 14  1  0  0  0  0
 14 15  2  0  0  0  0
 15 16  1  0  0  0  0
 15 20  1  0  0  0  0
 17 21  1  0  0  0  0
 17 16  2  0  0  0  0
 18 17  1  0  0  0  0
 19 14  1  0  0  0  0
M  END
>  <minimizedAffinity>
-4.0855155

$$$$

 OpenBabel03262521523D

 21 22  0  0  0  0  0  0  0  0999 V2000
   38.2440   25.0070   34.6790 C   0  0  0  0  0  0  0  0  0  0  0  0
   39.2000   25.1980   34.1080 H   0  0  0  0  0  0  0  0  0  0  0  0
   37.6250   24.3830   34.0340 H   0  0  0  0  0  0  0  0  0  0  0  0
   38.6180   24.3080   35.9380 C   0  0  0  0  0  0  0  0  0  0  0  0
   37.8660   24.7260   37.0430 C   0  0  0  0  0  0  0  0  0  0  0  0
   37.0860   25.4910   36.9720 H   0  0  0  0  0  0  0  0  0  0  0  0
   37.9960   24.2490   38.3490 C   0  0  0  0  0  0  0  0  0  0  0  0
   37.4040   24.5910   39.1630 H   0  0  0  0  0  0  0  0  0  0  0  0
   38.9770   23.2670   38.5200 C   0  0  0  0  0  3  0  0  0  0  0  0
   39.7050   22.8700   37.4190 C   0  0  0  0  0  3  0  0  0  0  0  0
   39.5360   23.3710   36.1620 N   0  0  0  0  0  0  0  0  0  0  0  0
   37.3500   26.5470   34.9810 S   0  0  0  0  0  0  0  0  0  0  0  0
   37.2730   27.4500   33.4460 C   0  0  0  0  0  0  0  0  0  0  0  0
   38.2950   27.1250   32.5490 C   0  0  0  0  0  0  0  0  0  0  0  0
   38.3170   27.7900   31.3120 C   0  0  0  0  0  0  0  0  0  0  0  0
   37.3610   28.7090   31.0320 N   0  0  0  0  0  0  0  0  0  0  0  0
   36.3920   28.9820   31.9430 C   0  0  0  0  0  0  0  0  0  0  0  0
   36.3480   28.3690   33.1170 N   0  0  0  0  0  0  0  0  0  0  0  0
   39.0960   26.4130   32.6740 H   0  0  0  0  0  0  0  0  0  0  0  0
   39.0830   27.5820   30.5780 H   0  0  0  0  0  0  0  0  0  0  0  0
   35.6790   29.7300   31.6240 H   0  0  0  0  0  0  0  0  0  0  0  0
  1 12  1  0  0  0  0
  1  4  1  0  0  0  0
  2  1  1  0  0  0  0
  3  1  1  0  0  0  0
  4 11  2  0  0  0  0
  4  5  1  0  0  0  0
  5  7  2  0  0  0  0
  6  5  1  0  0  0  0
  7  9  1  0  0  0  0
  7  8  1  0  0  0  0
 10  9  2  0  0  0  0
 11 10  1  0  0  0  0
 13 12  1  0  0  0  0
 14 19  1  0  0  0  0
 14 13  2  0  0  0  0
 15 14  1  0  0  0  0
 16 15  2  0  0  0  0
 16 17  1  0  0  0  0
 17 18  2  0  0  0  0
 18 13  1  0  0  0  0
 20 15  1  0  0  0  0
 21 17  1  0  0  0  0
M  END
>  <minimizedAffinity>
-4.03168726

$$$$

 OpenBabel03262521523D

 21 22  0  0  0  0  0  0  0  0999 V2000
   39.1840   22.0400   34.2710 C   0  0  0  0  0  0  0  0  0  0  0  0
   39.7850   22.8520   33.7660 H   0  0  0  0  0  0  0  0  0  0  0  0
   39.8150   21.1500   34.2670 H   0  0  0  0  0  0  0  0  0  0  0  0
   38.8890   22.5070   35.6520 C   0  0  0  0  0  0  0  0  0  0  0  0
   39.9990   22.4420   36.5040 C   0  0  0  0  0  0  0  0  0  0  0  0
   40.9780   22.0820   36.1720 H   0  0  0  0  0  0  0  0  0  0  0  0
   40.0200   22.8120   37.8500 C   0  0  0  0  0  0  0  0  0  0  0  0
   40.8840   22.7490   38.4650 H   0  0  0  0  0  0  0  0  0  0  0  0
   38.8000   23.2830   38.3480 C   0  0  0  0  0  3  0  0  0  0  0  0
   37.7210   23.3390   37.4920 C   0  0  0  0  0  3  0  0  0  0  0  0
   37.7560   22.9640   36.1810 N   0  0  0  0  0  0  0  0  0  0  0  0
   37.6880   21.6610   33.3330 S   0  0  0  0  0  0  0  0  0  0  0  0
   37.0710   23.1840   32.6400 C   0  0  0  0  0  0  0  0  0  0  0  0
   36.0030   23.0100   31.7570 C   0  0  0  0  0  0  0  0  0  0  0  0
   35.4520   24.1550   31.1590 C   0  0  0  0  0  0  0  0  0  0  0  0
   35.9680   25.3740   31.4540 N   0  0  0  0  0  0  0  0  0  0  0  0
   37.0070   25.4820   32.3210 C   0  0  0  0  0  0  0  0  0  0  0  0
   37.5440   24.4160   32.8990 N   0  0  0  0  0  0  0  0  0  0  0  0
   35.5220   22.0910   31.4590 H   0  0  0  0  0  0  0  0  0  0  0  0
   34.6250   24.0830   30.4670 H   0  0  0  0  0  0  0  0  0  0  0  0
   37.3440   26.4950   32.4880 H   0  0  0  0  0  0  0  0  0  0  0  0
  1  4  1  0  0  0  0
  2  1  1  0  0  0  0
  3  1  1  0  0  0  0
  4 11  2  0  0  0  0
  4  5  1  0  0  0  0
  5  7  2  0  0  0  0
  6  5  1  0  0  0  0
  7  9  1  0  0  0  0
  7  8  1  0  0  0  0
 10  9  2  0  0  0  0
 11 10  1  0  0  0  0
 12  1  1  0  0  0  0
 13 18  1  0  0  0  0
 13 12  1  0  0  0  0
 14 13  2  0  0  0  0
 15 16  2  0  0  0  0
 15 14  1  0  0  0  0
 16 17  1  0  0  0  0
 17 21  1  0  0  0  0
 17 18  2  0  0  0  0
 19 14  1  0  0  0  0
 20 15  1  0  0  0  0
M  END
>  <minimizedAffinity>
-3.9954493

$$$$

 OpenBabel03262521523D

 21 22  0  0  0  0  0  0  0  0999 V2000
   38.6300   22.2810   34.4870 C   0  0  0  0  0  0  0  0  0  0  0  0
   39.2930   21.3700   34.4110 H   0  0  0  0  0  0  0  0  0  0  0  0
   37.6550   21.9800   34.1020 H   0  0  0  0  0  0  0  0  0  0  0  0
   38.5690   22.6600   35.9240 C   0  0  0  0  0  0  0  0  0  0  0  0
   39.8000   22.5310   36.5800 C   0  0  0  0  0  0  0  0  0  0  0  0
   40.7060   22.1840   36.0730 H   0  0  0  0  0  0  0  0  0  0  0  0
   40.0440   22.8120   37.9260 C   0  0  0  0  0  0  0  0  0  0  0  0
   40.9940   22.7030   38.3870 H   0  0  0  0  0  0  0  0  0  0  0  0
   38.9300   23.2610   38.6420 C   0  0  0  0  0  3  0  0  0  0  0  0
   37.7280   23.3820   37.9770 C   0  0  0  0  0  3  0  0  0  0  0  0
   37.5450   23.0920   36.6570 N   0  0  0  0  0  0  0  0  0  0  0  0
   39.2460   23.6200   33.4430 S   0  0  0  0  0  0  0  0  0  0  0  0
   38.6730   25.1630   34.1310 C   0  0  0  0  0  0  0  0  0  0  0  0
   39.6590   25.8710   34.8230 C   0  0  0  0  0  0  0  0  0  0  0  0
   39.2990   27.0990   35.4030 C   0  0  0  0  0  0  0  0  0  0  0  0
   38.0260   27.5490   35.2730 N   0  0  0  0  0  0  0  0  0  0  0  0
   37.1120   26.8170   34.5880 C   0  0  0  0  0  0  0  0  0  0  0  0
   37.4260   25.6550   34.0310 N   0  0  0  0  0  0  0  0  0  0  0  0
   40.6920   25.6030   34.9810 H   0  0  0  0  0  0  0  0  0  0  0  0
   40.0170   27.6920   35.9510 H   0  0  0  0  0  0  0  0  0  0  0  0
   36.1280   27.2620   34.5430 H   0  0  0  0  0  0  0  0  0  0  0  0
  1  4  1  0  0  0  0
  2  1  1  0  0  0  0
  3  1  1  0  0  0  0
  4  5  2  0  0  0  0
  4 11  1  0  0  0  0
  5  7  1  0  0  0  0
  6  5  1  0  0  0  0
  7  8  1  0  0  0  0
  7  9  2  0  0  0  0
 10  9  1  0  0  0  0
 11 10  2  0  0  0  0
 12 13  1  0  0  0  0
 12  1  1  0  0  0  0
 13 14  1  0  0  0  0
 14 19  1  0  0  0  0
 14 15  2  0  0  0  0
 15 20  1  0  0  0  0
 16 15  1  0  0  0  0
 17 16  2  0  0  0  0
 18 13  2  0  0  0  0
 18 17  1  0  0  0  0
 21 17  1  0  0  0  0
M  END
>  <minimizedAffinity>
-3.99214506

$$$$
