
 OpenBabel03272509243D

 23 24  0  0  0  0  0  0  0  0999 V2000
   37.5950   30.4030   47.6820 C   0  0  0  0  0  0  0  0  0  0  0  0
   38.0750   29.4440   47.3360 H   0  0  0  0  0  0  0  0  0  0  0  0
   36.7150   30.6190   47.0520 H   0  0  0  0  0  0  0  0  0  0  0  0
   37.3430   30.1110   51.4380 C   0  0  0  0  0  0  0  0  0  0  0  0
   37.8960   30.4610   50.1850 C   0  0  0  0  0  0  0  0  0  0  0  0
   37.1580   30.1120   49.0670 C   0  0  0  0  0  0  0  0  0  0  0  0
   35.9730   29.4690   49.2400 N   0  0  0  0  0  0  0  0  0  0  0  0
   35.4730   29.1490   50.4430 C   0  0  0  0  0  0  0  0  0  0  0  0
   36.1670   29.4740   51.5570 N   0  0  0  0  0  0  0  0  0  0  0  0
   37.9260   30.3860   52.3250 H   0  0  0  0  0  0  0  0  0  0  0  0
   38.8400   30.9710   50.0900 H   0  0  0  0  0  0  0  0  0  0  0  0
   34.5220   28.6390   50.4180 H   0  0  0  0  0  0  0  0  0  0  0  0
   38.6060   31.5310   47.6720 C   0  0  0  0  0  0  0  0  0  0  0  0
   38.2350   32.4460   48.1260 H   0  0  0  0  0  0  0  0  0  0  0  0
   39.4870   31.1890   48.2880 H   0  0  0  0  0  0  0  0  0  0  0  0
   39.1440   31.7440   46.2790 C   0  0  0  0  0  0  0  0  0  0  0  0
   38.4190   32.5200   45.3840 C   0  0  0  0  0  0  0  0  0  0  0  0
   37.4840   32.9380   45.7470 H   0  0  0  0  0  0  0  0  0  0  0  0
   38.9340   32.7020   44.1090 C   0  0  0  0  0  0  0  0  0  0  0  0
   38.3120   33.3240   43.4530 H   0  0  0  0  0  0  0  0  0  0  0  0
   40.1440   32.1190   43.7480 C   0  0  0  0  0  3  0  0  0  0  0  0
   40.8210   31.3600   44.6730 C   0  0  0  0  0  3  0  0  0  0  0  0
   40.3290   31.1760   45.9160 N   0  0  0  0  0  0  0  0  0  0  0  0
  1  6  1  0  0  0  0
  2  1  1  0  0  0  0
  3  1  1  0  0  0  0
  4  9  1  0  0  0  0
  4 10  1  0  0  0  0
  5  4  2  0  0  0  0
  6  7  2  0  0  0  0
  6  5  1  0  0  0  0
  7  8  1  0  0  0  0
  8  9  2  0  0  0  0
 11  5  1  0  0  0  0
 12  8  1  0  0  0  0
 13  1  1  0  0  0  0
 13 14  1  0  0  0  0
 13 15  1  0  0  0  0
 16 13  1  0  0  0  0
 17 18  1  0  0  0  0
 17 16  2  0  0  0  0
 19 17  1  0  0  0  0
 20 19  1  0  0  0  0
 21 19  2  0  0  0  0
 21 22  1  0  0  0  0
 22 23  2  0  0  0  0
 23 16  1  0  0  0  0
M  END
>  <minimizedAffinity>
-4.8258357

>  <minimizedRMSD>
1.54630363

$$$$
