
 OpenBabel03272506323D

 39 41  0  0  1  0  0  0  0  0999 V2000
   38.1560   26.4190   35.3550 C   0  0  1  0  0  0  0  0  0  0  0  0
   39.4630   26.9200   34.9820 C   0  0  0  0  0  0  0  0  0  0  0  0
   39.7810   26.9730   33.5010 C   0  0  0  0  0  0  0  0  0  0  0  0
   38.6360   27.3750   32.6250 C   0  0  0  0  0  0  0  0  0  0  0  0
   37.2830   26.9110   33.0050 C   0  0  0  0  0  0  0  0  0  0  0  0
   37.0570   26.9460   34.4730 C   0  0  2  0  0  0  0  0  0  0  0  0
   37.8800   26.8490   36.3690 H   0  0  0  0  0  0  0  0  0  0  0  0
   40.3380   26.5000   35.4700 H   0  0  0  0  0  0  0  0  0  0  0  0
   39.4900   28.0120   35.2630 H   0  0  0  0  0  0  0  0  0  0  0  0
   40.1820   25.9750   33.1720 H   0  0  0  0  0  0  0  0  0  0  0  0
   40.6060   27.6940   33.3290 H   0  0  0  0  0  0  0  0  0  0  0  0
   38.6270   28.4820   32.4510 H   0  0  0  0  0  0  0  0  0  0  0  0
   38.8600   26.9360   31.6130 H   0  0  0  0  0  0  0  0  0  0  0  0
   36.5290   27.5490   32.5350 H   0  0  0  0  0  0  0  0  0  0  0  0
   37.0810   25.8640   32.6680 H   0  0  0  0  0  0  0  0  0  0  0  0
   36.0690   26.5530   34.6850 H   0  0  0  0  0  0  0  0  0  0  0  0
   38.2570   23.9880   34.5560 C   0  0  0  0  0  0  0  0  0  0  0  0
   38.0450   24.9680   35.5750 C   0  0  0  0  0  0  0  0  0  0  0  0
   37.7170   24.4600   36.8240 C   0  0  0  0  0  0  0  0  0  0  0  0
   37.6140   23.1050   37.0130 N   0  0  0  0  0  0  0  0  0  0  0  0
   37.8260   22.2410   36.0120 C   0  0  0  0  0  0  0  0  0  0  0  0
   38.1500   22.6900   34.7720 N   0  0  0  0  0  0  0  0  0  0  0  0
   38.5140   24.3590   33.5730 H   0  0  0  0  0  0  0  0  0  0  0  0
   37.5390   25.1190   37.6530 H   0  0  0  0  0  0  0  0  0  0  0  0
   37.7070   21.2080   36.3200 H   0  0  0  0  0  0  0  0  0  0  0  0
   36.9790   28.4540   34.8190 C   0  0  0  0  0  0  0  0  0  0  0  0
   37.8830   28.9900   34.4760 H   0  0  0  0  0  0  0  0  0  0  0  0
   36.9010   28.6250   35.8970 H   0  0  0  0  0  0  0  0  0  0  0  0
   35.7660   29.0830   34.1230 C   0  0  0  0  0  0  0  0  0  0  0  0
   36.0420   29.4890   33.1400 H   0  0  0  0  0  0  0  0  0  0  0  0
   34.9900   28.3040   33.9510 H   0  0  0  0  0  0  0  0  0  0  0  0
   35.2220   30.1760   34.9780 C   0  0  0  0  0  0  0  0  0  0  0  0
   36.0090   31.0680   35.6810 C   0  0  0  0  0  0  0  0  0  0  0  0
   37.0730   30.9790   35.6200 H   0  0  0  0  0  0  0  0  0  0  0  0
   35.3370   32.0170   36.4220 C   0  0  0  0  0  0  0  0  0  0  0  0
   35.9730   32.7210   36.9780 H   0  0  0  0  0  0  0  0  0  0  0  0
   33.9830   32.1580   36.5240 C   0  0  0  0  0  3  0  0  0  0  0  0
   33.2580   31.2210   35.7840 C   0  0  0  0  0  3  0  0  0  0  0  0
   33.8720   30.2750   35.0470 N   0  0  0  0  0  0  0  0  0  0  0  0
  1 18  1  0  0  0  0
  1  7  1  1  0  0  0
  2  9  1  0  0  0  0
  2  1  1  0  0  0  0
  2  8  1  0  0  0  0
  3  2  1  0  0  0  0
  4  5  1  0  0  0  0
  4  3  1  0  0  0  0
  5  6  1  0  0  0  0
  6 16  1  1  0  0  0
  6 26  1  0  0  0  0
  6  1  1  0  0  0  0
 10  3  1  0  0  0  0
 11  3  1  0  0  0  0
 12  4  1  0  0  0  0
 13  4  1  0  0  0  0
 14  5  1  0  0  0  0
 15  5  1  0  0  0  0
 17 22  2  0  0  0  0
 17 18  1  0  0  0  0
 18 19  2  0  0  0  0
 19 20  1  0  0  0  0
 19 24  1  0  0  0  0
 21 25  1  0  0  0  0
 21 20  2  0  0  0  0
 22 21  1  0  0  0  0
 23 17  1  0  0  0  0
 26 28  1  0  0  0  0
 27 26  1  0  0  0  0
 29 26  1  0  0  0  0
 29 32  1  0  0  0  0
 30 29  1  0  0  0  0
 31 29  1  0  0  0  0
 32 39  2  0  0  0  0
 32 33  1  0  0  0  0
 33 35  2  0  0  0  0
 34 33  1  0  0  0  0
 35 37  1  0  0  0  0
 35 36  1  0  0  0  0
 38 37  2  0  0  0  0
 39 38  1  0  0  0  0
M  END
>  <minimizedAffinity>
-5.4982686

$$$$

 OpenBabel03272506323D

 39 41  0  0  1  0  0  0  0  0999 V2000
   37.4040   26.8200   33.5810 C   0  0  1  0  0  0  0  0  0  0  0  0
   38.5840   26.5820   32.7760 C   0  0  0  0  0  0  0  0  0  0  0  0
   39.9040   27.0830   33.3270 C   0  0  0  0  0  0  0  0  0  0  0  0
   40.0650   26.9370   34.8070 C   0  0  0  0  0  0  0  0  0  0  0  0
   38.8660   27.1350   35.6530 C   0  0  0  0  0  0  0  0  0  0  0  0
   37.6360   26.5630   35.0450 C   0  0  2  0  0  0  0  0  0  0  0  0
   36.6230   26.0390   33.3180 H   0  0  0  0  0  0  0  0  0  0  0  0
   38.5610   26.8630   31.7260 H   0  0  0  0  0  0  0  0  0  0  0  0
   38.7500   25.4670   32.7560 H   0  0  0  0  0  0  0  0  0  0  0  0
   40.0450   28.1590   33.0310 H   0  0  0  0  0  0  0  0  0  0  0  0
   40.7360   26.5320   32.8410 H   0  0  0  0  0  0  0  0  0  0  0  0
   40.5610   25.9660   35.0680 H   0  0  0  0  0  0  0  0  0  0  0  0
   40.8110   27.7220   35.1100 H   0  0  0  0  0  0  0  0  0  0  0  0
   39.0150   26.6530   36.6220 H   0  0  0  0  0  0  0  0  0  0  0  0
   38.6590   28.2160   35.8520 H   0  0  0  0  0  0  0  0  0  0  0  0
   36.7930   26.7820   35.6900 H   0  0  0  0  0  0  0  0  0  0  0  0
   35.9570   28.7870   34.3520 C   0  0  0  0  0  0  0  0  0  0  0  0
   36.6900   28.0860   33.3450 C   0  0  0  0  0  0  0  0  0  0  0  0
   36.6900   28.6810   32.0920 C   0  0  0  0  0  0  0  0  0  0  0  0
   36.0170   29.8600   31.8870 N   0  0  0  0  0  0  0  0  0  0  0  0
   35.3490   30.4640   32.8770 C   0  0  0  0  0  0  0  0  0  0  0  0
   35.3200   29.9210   34.1210 N   0  0  0  0  0  0  0  0  0  0  0  0
   35.9420   28.3430   35.3390 H   0  0  0  0  0  0  0  0  0  0  0  0
   37.2130   28.2280   31.2710 H   0  0  0  0  0  0  0  0  0  0  0  0
   34.8710   31.3830   32.5570 H   0  0  0  0  0  0  0  0  0  0  0  0
   37.8330   25.0290   35.1370 C   0  0  0  0  0  0  0  0  0  0  0  0
   38.6980   24.7010   34.5320 H   0  0  0  0  0  0  0  0  0  0  0  0
   36.9630   24.4800   34.7670 H   0  0  0  0  0  0  0  0  0  0  0  0
   38.0970   24.6270   36.5930 C   0  0  0  0  0  0  0  0  0  0  0  0
   38.3690   25.5020   37.2000 H   0  0  0  0  0  0  0  0  0  0  0  0
   37.1710   24.1960   37.0340 H   0  0  0  0  0  0  0  0  0  0  0  0
   39.2040   23.6300   36.6340 C   0  0  0  0  0  0  0  0  0  0  0  0
   39.6320   23.0030   37.7890 C   0  0  0  0  0  0  0  0  0  0  0  0
   39.1520   23.2390   38.7140 H   0  0  0  0  0  0  0  0  0  0  0  0
   40.6700   22.1070   37.6430 C   0  0  0  0  0  0  0  0  0  0  0  0
   41.0040   21.6140   38.5690 H   0  0  0  0  0  0  0  0  0  0  0  0
   41.3060   21.7840   36.4800 C   0  0  0  0  0  3  0  0  0  0  0  0
   40.8160   22.4580   35.3590 C   0  0  0  0  0  3  0  0  0  0  0  0
   39.8050   23.3430   35.4540 N   0  0  0  0  0  0  0  0  0  0  0  0
  1  7  1  6  0  0  0
  1  6  1  0  0  0  0
  2  3  1  0  0  0  0
  2  1  1  0  0  0  0
  3  4  1  0  0  0  0
  4 12  1  0  0  0  0
  4 13  1  0  0  0  0
  4  5  1  0  0  0  0
  5 15  1  0  0  0  0
  5 14  1  0  0  0  0
  6 26  1  0  0  0  0
  6  5  1  0  0  0  0
  6 16  1  1  0  0  0
  8  2  1  0  0  0  0
  9  2  1  0  0  0  0
 10  3  1  0  0  0  0
 11  3  1  0  0  0  0
 17 23  1  0  0  0  0
 18  1  1  0  0  0  0
 18 17  2  0  0  0  0
 19 18  1  0  0  0  0
 20 19  2  0  0  0  0
 20 21  1  0  0  0  0
 21 22  2  0  0  0  0
 22 17  1  0  0  0  0
 24 19  1  0  0  0  0
 25 21  1  0  0  0  0
 26 29  1  0  0  0  0
 27 26  1  0  0  0  0
 28 26  1  0  0  0  0
 29 32  1  0  0  0  0
 29 31  1  0  0  0  0
 29 30  1  0  0  0  0
 32 33  1  0  0  0  0
 33 34  1  0  0  0  0
 35 33  2  0  0  0  0
 35 36  1  0  0  0  0
 37 35  1  0  0  0  0
 38 39  1  0  0  0  0
 38 37  2  0  0  0  0
 39 32  2  0  0  0  0
M  END
>  <minimizedAffinity>
-5.40515137

$$$$

 OpenBabel03272506323D

 39 41  0  0  1  0  0  0  0  0999 V2000
   38.3610   26.5340   32.8180 C   0  0  1  0  0  0  0  0  0  0  0  0
   39.4460   26.7070   31.8740 C   0  0  0  0  0  0  0  0  0  0  0  0
   40.7090   27.3650   32.3940 C   0  0  0  0  0  0  0  0  0  0  0  0
   41.0910   26.9820   33.7890 C   0  0  0  0  0  0  0  0  0  0  0  0
   40.0010   26.7580   34.7640 C   0  0  0  0  0  0  0  0  0  0  0  0
   38.8320   26.0620   34.1660 C   0  0  2  0  0  0  0  0  0  0  0  0
   37.7140   25.6670   32.4700 H   0  0  0  0  0  0  0  0  0  0  0  0
   39.2300   27.1690   30.9140 H   0  0  0  0  0  0  0  0  0  0  0  0
   39.8160   25.6770   31.6050 H   0  0  0  0  0  0  0  0  0  0  0  0
   40.6020   28.4820   32.3200 H   0  0  0  0  0  0  0  0  0  0  0  0
   41.5570   27.1050   31.7280 H   0  0  0  0  0  0  0  0  0  0  0  0
   41.7930   26.1080   33.7920 H   0  0  0  0  0  0  0  0  0  0  0  0
   41.7090   27.8370   34.1800 H   0  0  0  0  0  0  0  0  0  0  0  0
   40.3670   26.1460   35.5920 H   0  0  0  0  0  0  0  0  0  0  0  0
   39.6210   27.7130   35.2060 H   0  0  0  0  0  0  0  0  0  0  0  0
   38.0560   25.9710   34.9190 H   0  0  0  0  0  0  0  0  0  0  0  0
   36.6610   27.9480   34.1080 C   0  0  0  0  0  0  0  0  0  0  0  0
   37.3950   27.6400   32.9210 C   0  0  0  0  0  0  0  0  0  0  0  0
   37.1380   28.4640   31.8360 C   0  0  0  0  0  0  0  0  0  0  0  0
   36.2320   29.4900   31.9470 N   0  0  0  0  0  0  0  0  0  0  0  0
   35.5770   29.7230   33.0910 C   0  0  0  0  0  0  0  0  0  0  0  0
   35.7960   28.9430   34.1820 N   0  0  0  0  0  0  0  0  0  0  0  0
   36.8440   27.3190   34.9690 H   0  0  0  0  0  0  0  0  0  0  0  0
   37.6410   28.3110   30.9000 H   0  0  0  0  0  0  0  0  0  0  0  0
   34.8980   30.5650   33.0200 H   0  0  0  0  0  0  0  0  0  0  0  0
   39.3270   24.6160   33.9150 C   0  0  0  0  0  0  0  0  0  0  0  0
   40.3120   24.4440   34.3840 H   0  0  0  0  0  0  0  0  0  0  0  0
   39.4430   24.4010   32.8480 H   0  0  0  0  0  0  0  0  0  0  0  0
   38.3360   23.6160   34.5220 C   0  0  0  0  0  0  0  0  0  0  0  0
   37.2980   23.9420   34.3620 H   0  0  0  0  0  0  0  0  0  0  0  0
   38.4500   22.6270   34.0230 H   0  0  0  0  0  0  0  0  0  0  0  0
   38.5980   23.4910   35.9840 C   0  0  0  0  0  0  0  0  0  0  0  0
   39.7370   22.9160   36.5150 C   0  0  0  0  0  0  0  0  0  0  0  0
   40.4810   22.5330   35.8510 H   0  0  0  0  0  0  0  0  0  0  0  0
   39.8140   22.8850   37.8920 C   0  0  0  0  0  0  0  0  0  0  0  0
   40.7240   22.4250   38.3040 H   0  0  0  0  0  0  0  0  0  0  0  0
   38.8840   23.3630   38.7680 C   0  0  0  0  0  3  0  0  0  0  0  0
   37.7640   23.9280   38.1550 C   0  0  0  0  0  3  0  0  0  0  0  0
   37.6450   23.9800   36.8140 N   0  0  0  0  0  0  0  0  0  0  0  0
  1  7  1  6  0  0  0
  1 18  1  0  0  0  0
  1  6  1  0  0  0  0
  2  3  1  0  0  0  0
  2  1  1  0  0  0  0
  3  4  1  0  0  0  0
  4 12  1  0  0  0  0
  4 13  1  0  0  0  0
  4  5  1  0  0  0  0
  5 15  1  0  0  0  0
  5 14  1  0  0  0  0
  6  5  1  0  0  0  0
  6 16  1  1  0  0  0
  8  2  1  0  0  0  0
  9  2  1  0  0  0  0
 10  3  1  0  0  0  0
 11  3  1  0  0  0  0
 17 22  1  0  0  0  0
 17 23  1  0  0  0  0
 18 17  2  0  0  0  0
 19 20  2  0  0  0  0
 19 18  1  0  0  0  0
 20 21  1  0  0  0  0
 21 22  2  0  0  0  0
 24 19  1  0  0  0  0
 25 21  1  0  0  0  0
 26  6  1  0  0  0  0
 26 27  1  0  0  0  0
 26 29  1  0  0  0  0
 28 26  1  0  0  0  0
 29 32  1  0  0  0  0
 30 29  1  0  0  0  0
 31 29  1  0  0  0  0
 32 33  2  0  0  0  0
 32 39  1  0  0  0  0
 33 35  1  0  0  0  0
 34 33  1  0  0  0  0
 35 36  1  0  0  0  0
 35 37  2  0  0  0  0
 38 37  1  0  0  0  0
 39 38  2  0  0  0  0
M  END
>  <minimizedAffinity>
-5.16869688

$$$$

 OpenBabel03272506323D

 39 41  0  0  1  0  0  0  0  0999 V2000
   38.7110   26.4150   35.4130 C   0  0  1  0  0  0  0  0  0  0  0  0
   39.8290   27.0420   34.7380 C   0  0  0  0  0  0  0  0  0  0  0  0
   39.8050   27.0390   33.2230 C   0  0  0  0  0  0  0  0  0  0  0  0
   38.4540   27.2470   32.6130 C   0  0  0  0  0  0  0  0  0  0  0  0
   37.2880   26.6520   33.3050 C   0  0  0  0  0  0  0  0  0  0  0  0
   37.3870   26.7530   34.7840 C   0  0  2  0  0  0  0  0  0  0  0  0
   38.6110   26.8730   36.4480 H   0  0  0  0  0  0  0  0  0  0  0  0
   40.8370   26.7600   35.0310 H   0  0  0  0  0  0  0  0  0  0  0  0
   39.7760   28.1450   34.9680 H   0  0  0  0  0  0  0  0  0  0  0  0
   40.2500   26.0770   32.8470 H   0  0  0  0  0  0  0  0  0  0  0  0
   40.4720   27.8410   32.8450 H   0  0  0  0  0  0  0  0  0  0  0  0
   38.2640   28.3330   32.4080 H   0  0  0  0  0  0  0  0  0  0  0  0
   38.5050   26.7750   31.5940 H   0  0  0  0  0  0  0  0  0  0  0  0
   36.3750   27.1650   32.9950 H   0  0  0  0  0  0  0  0  0  0  0  0
   37.1550   25.5690   33.0590 H   0  0  0  0  0  0  0  0  0  0  0  0
   36.5290   26.2600   35.2270 H   0  0  0  0  0  0  0  0  0  0  0  0
   37.8360   24.2070   36.3690 C   0  0  0  0  0  0  0  0  0  0  0  0
   38.8390   24.9780   35.7040 C   0  0  0  0  0  0  0  0  0  0  0  0
   39.9780   24.2760   35.3370 C   0  0  0  0  0  0  0  0  0  0  0  0
   40.0840   22.9360   35.6180 N   0  0  0  0  0  0  0  0  0  0  0  0
   39.1040   22.2740   36.2450 C   0  0  0  0  0  0  0  0  0  0  0  0
   37.9690   22.9180   36.6230 N   0  0  0  0  0  0  0  0  0  0  0  0
   36.9380   24.7320   36.6650 H   0  0  0  0  0  0  0  0  0  0  0  0
   40.7870   24.7700   34.8330 H   0  0  0  0  0  0  0  0  0  0  0  0
   39.3370   21.2260   36.3940 H   0  0  0  0  0  0  0  0  0  0  0  0
   37.1930   28.2600   35.0860 C   0  0  0  0  0  0  0  0  0  0  0  0
   38.0190   28.8610   34.6630 H   0  0  0  0  0  0  0  0  0  0  0  0
   37.1720   28.4650   36.1600 H   0  0  0  0  0  0  0  0  0  0  0  0
   35.8840   28.7490   34.4560 C   0  0  0  0  0  0  0  0  0  0  0  0
   35.8110   28.4360   33.4050 H   0  0  0  0  0  0  0  0  0  0  0  0
   35.0200   28.2980   34.9940 H   0  0  0  0  0  0  0  0  0  0  0  0
   35.8260   30.2360   34.5370 C   0  0  0  0  0  0  0  0  0  0  0  0
   36.0300   30.9520   35.7010 C   0  0  0  0  0  0  0  0  0  0  0  0
   36.2430   30.4220   36.6040 H   0  0  0  0  0  0  0  0  0  0  0  0
   35.9390   32.3240   35.5930 C   0  0  0  0  0  0  0  0  0  0  0  0
   36.1040   32.8840   36.5260 H   0  0  0  0  0  0  0  0  0  0  0  0
   35.6700   33.0330   34.4590 C   0  0  0  0  0  3  0  0  0  0  0  0
   35.4760   32.2390   33.3260 C   0  0  0  0  0  3  0  0  0  0  0  0
   35.5550   30.8950   33.3840 N   0  0  0  0  0  0  0  0  0  0  0  0
  1 18  1  0  0  0  0
  1  7  1  1  0  0  0
  2  9  1  0  0  0  0
  2  8  1  0  0  0  0
  2  1  1  0  0  0  0
  3  2  1  0  0  0  0
  4  3  1  0  0  0  0
  4  5  1  0  0  0  0
  5  6  1  0  0  0  0
  6 26  1  0  0  0  0
  6 16  1  1  0  0  0
  6  1  1  0  0  0  0
 10  3  1  0  0  0  0
 11  3  1  0  0  0  0
 12  4  1  0  0  0  0
 13  4  1  0  0  0  0
 14  5  1  0  0  0  0
 15  5  1  0  0  0  0
 17 22  1  0  0  0  0
 17 23  1  0  0  0  0
 18 17  2  0  0  0  0
 19 20  2  0  0  0  0
 19 18  1  0  0  0  0
 20 21  1  0  0  0  0
 21 25  1  0  0  0  0
 21 22  2  0  0  0  0
 24 19  1  0  0  0  0
 26 28  1  0  0  0  0
 27 26  1  0  0  0  0
 29 32  1  0  0  0  0
 29 31  1  0  0  0  0
 29 26  1  0  0  0  0
 30 29  1  0  0  0  0
 32 33  1  0  0  0  0
 33 34  1  0  0  0  0
 35 33  2  0  0  0  0
 35 36  1  0  0  0  0
 37 35  1  0  0  0  0
 38 39  1  0  0  0  0
 38 37  2  0  0  0  0
 39 32  2  0  0  0  0
M  END
>  <minimizedAffinity>
-5.09462833

$$$$

 OpenBabel03272506323D

 39 41  0  0  1  0  0  0  0  0999 V2000
   37.0060   26.6740   32.7310 C   0  0  1  0  0  0  0  0  0  0  0  0
   38.3810   27.1210   32.6440 C   0  0  0  0  0  0  0  0  0  0  0  0
   38.8190   27.7430   31.3330 C   0  0  0  0  0  0  0  0  0  0  0  0
   37.7920   28.6080   30.6720 C   0  0  0  0  0  0  0  0  0  0  0  0
   36.3740   28.1970   30.7790 C   0  0  0  0  0  0  0  0  0  0  0  0
   36.0370   27.6480   32.1190 C   0  0  2  0  0  0  0  0  0  0  0  0
   36.6940   26.6750   33.8230 H   0  0  0  0  0  0  0  0  0  0  0  0
   39.1700   26.4340   32.9380 H   0  0  0  0  0  0  0  0  0  0  0  0
   38.4910   27.9860   33.3590 H   0  0  0  0  0  0  0  0  0  0  0  0
   39.1460   26.9310   30.6280 H   0  0  0  0  0  0  0  0  0  0  0  0
   39.7210   28.3650   31.5070 H   0  0  0  0  0  0  0  0  0  0  0  0
   37.9040   29.6800   30.9800 H   0  0  0  0  0  0  0  0  0  0  0  0
   38.0510   28.6040   29.5780 H   0  0  0  0  0  0  0  0  0  0  0  0
   35.7260   29.0580   30.5980 H   0  0  0  0  0  0  0  0  0  0  0  0
   36.0990   27.4160   30.0280 H   0  0  0  0  0  0  0  0  0  0  0  0
   35.0020   27.3260   32.1150 H   0  0  0  0  0  0  0  0  0  0  0  0
   35.6640   24.9070   31.4520 C   0  0  0  0  0  0  0  0  0  0  0  0
   36.7370   25.2870   32.3170 C   0  0  0  0  0  0  0  0  0  0  0  0
   37.5360   24.2440   32.7620 C   0  0  0  0  0  0  0  0  0  0  0  0
   37.2710   22.9550   32.3690 N   0  0  0  0  0  0  0  0  0  0  0  0
   36.2470   22.6690   31.5560 C   0  0  0  0  0  0  0  0  0  0  0  0
   35.4370   23.6570   31.0940 N   0  0  0  0  0  0  0  0  0  0  0  0
   35.0260   25.7030   31.0920 H   0  0  0  0  0  0  0  0  0  0  0  0
   38.3670   24.4300   33.4150 H   0  0  0  0  0  0  0  0  0  0  0  0
   36.1690   21.6090   31.3400 H   0  0  0  0  0  0  0  0  0  0  0  0
   36.0780   28.8750   33.0640 C   0  0  0  0  0  0  0  0  0  0  0  0
   36.5820   29.7320   32.5820 H   0  0  0  0  0  0  0  0  0  0  0  0
   36.6270   28.6640   33.9870 H   0  0  0  0  0  0  0  0  0  0  0  0
   34.6500   29.3050   33.4180 C   0  0  0  0  0  0  0  0  0  0  0  0
   34.1710   29.8150   32.5700 H   0  0  0  0  0  0  0  0  0  0  0  0
   34.0360   28.4050   33.6490 H   0  0  0  0  0  0  0  0  0  0  0  0
   34.6890   30.2210   34.5920 C   0  0  0  0  0  0  0  0  0  0  0  0
   35.8370   30.8470   35.0420 C   0  0  0  0  0  0  0  0  0  0  0  0
   36.7570   30.6720   34.5280 H   0  0  0  0  0  0  0  0  0  0  0  0
   35.6900   31.6620   36.1440 C   0  0  0  0  0  0  0  0  0  0  0  0
   36.6090   32.1550   36.4940 H   0  0  0  0  0  0  0  0  0  0  0  0
   34.5330   31.9070   36.8250 C   0  0  0  0  0  3  0  0  0  0  0  0
   33.4190   31.2400   36.3090 C   0  0  0  0  0  3  0  0  0  0  0  0
   33.5150   30.4330   35.2350 N   0  0  0  0  0  0  0  0  0  0  0  0
  1  7  1  1  0  0  0
  2  1  1  0  0  0  0
  2  8  1  0  0  0  0
  2  9  1  0  0  0  0
  3 11  1  0  0  0  0
  3  2  1  0  0  0  0
  4  5  1  0  0  0  0
  4 12  1  0  0  0  0
  4  3  1  0  0  0  0
  5  6  1  0  0  0  0
  6 16  1  6  0  0  0
  6  1  1  0  0  0  0
  6 26  1  0  0  0  0
 10  3  1  0  0  0  0
 13  4  1  0  0  0  0
 14  5  1  0  0  0  0
 15  5  1  0  0  0  0
 17 18  1  0  0  0  0
 18  1  1  0  0  0  0
 18 19  2  0  0  0  0
 19 24  1  0  0  0  0
 20 19  1  0  0  0  0
 21 20  2  0  0  0  0
 22 17  2  0  0  0  0
 22 21  1  0  0  0  0
 23 17  1  0  0  0  0
 25 21  1  0  0  0  0
 26 29  1  0  0  0  0
 26 28  1  0  0  0  0
 27 26  1  0  0  0  0
 29 31  1  0  0  0  0
 29 32  1  0  0  0  0
 30 29  1  0  0  0  0
 32 33  2  0  0  0  0
 32 39  1  0  0  0  0
 33 35  1  0  0  0  0
 34 33  1  0  0  0  0
 35 36  1  0  0  0  0
 35 37  2  0  0  0  0
 38 37  1  0  0  0  0
 39 38  2  0  0  0  0
M  END
>  <minimizedAffinity>
-5.04600525

$$$$

 OpenBabel03272506323D

 39 41  0  0  1  0  0  0  0  0999 V2000
   38.8710   24.4490   35.0900 C   0  0  1  0  0  0  0  0  0  0  0  0
   37.8580   25.0440   35.9370 C   0  0  0  0  0  0  0  0  0  0  0  0
   38.1790   26.3940   36.5470 C   0  0  0  0  0  0  0  0  0  0  0  0
   38.9330   27.3260   35.6520 C   0  0  0  0  0  0  0  0  0  0  0  0
   39.9470   26.7410   34.7460 C   0  0  0  0  0  0  0  0  0  0  0  0
   39.5130   25.4440   34.1630 C   0  0  2  0  0  0  0  0  0  0  0  0
   38.3640   23.7350   34.3670 H   0  0  0  0  0  0  0  0  0  0  0  0
   37.4260   24.4410   36.7320 H   0  0  0  0  0  0  0  0  0  0  0  0
   36.9790   25.2920   35.2750 H   0  0  0  0  0  0  0  0  0  0  0  0
   38.7460   26.2430   37.5060 H   0  0  0  0  0  0  0  0  0  0  0  0
   37.2340   26.8980   36.8380 H   0  0  0  0  0  0  0  0  0  0  0  0
   38.2360   27.9860   35.0720 H   0  0  0  0  0  0  0  0  0  0  0  0
   39.4780   28.0320   36.3390 H   0  0  0  0  0  0  0  0  0  0  0  0
   40.1450   27.4290   33.9210 H   0  0  0  0  0  0  0  0  0  0  0  0
   40.9230   26.5570   35.2610 H   0  0  0  0  0  0  0  0  0  0  0  0
   40.3150   25.0510   33.5490 H   0  0  0  0  0  0  0  0  0  0  0  0
   41.1350   23.2560   35.1930 C   0  0  0  0  0  0  0  0  0  0  0  0
   39.8630   23.5880   35.7550 C   0  0  0  0  0  0  0  0  0  0  0  0
   39.6050   23.0350   37.0010 C   0  0  0  0  0  0  0  0  0  0  0  0
   40.5390   22.2320   37.6070 N   0  0  0  0  0  0  0  0  0  0  0  0
   41.7120   21.9610   37.0230 C   0  0  0  0  0  0  0  0  0  0  0  0
   42.0110   22.4800   35.8040 N   0  0  0  0  0  0  0  0  0  0  0  0
   41.3600   23.6760   34.2210 H   0  0  0  0  0  0  0  0  0  0  0  0
   38.6760   23.2280   37.5030 H   0  0  0  0  0  0  0  0  0  0  0  0
   42.3390   21.3140   37.6260 H   0  0  0  0  0  0  0  0  0  0  0  0
   38.3870   25.8220   33.1680 C   0  0  0  0  0  0  0  0  0  0  0  0
   37.5620   26.3490   33.6810 H   0  0  0  0  0  0  0  0  0  0  0  0
   37.9490   24.9420   32.6890 H   0  0  0  0  0  0  0  0  0  0  0  0
   38.9420   26.7570   32.0880 C   0  0  0  0  0  0  0  0  0  0  0  0
   39.8590   27.2570   32.4320 H   0  0  0  0  0  0  0  0  0  0  0  0
   39.2110   26.1640   31.1840 H   0  0  0  0  0  0  0  0  0  0  0  0
   37.9150   27.7820   31.7490 C   0  0  0  0  0  0  0  0  0  0  0  0
   36.8730   28.1330   32.5860 C   0  0  0  0  0  0  0  0  0  0  0  0
   36.7870   27.6500   33.5350 H   0  0  0  0  0  0  0  0  0  0  0  0
   36.0140   29.1020   32.1110 C   0  0  0  0  0  0  0  0  0  0  0  0
   35.1890   29.3740   32.7860 H   0  0  0  0  0  0  0  0  0  0  0  0
   36.0950   29.7380   30.9070 C   0  0  0  0  0  3  0  0  0  0  0  0
   37.1730   29.3290   30.1190 C   0  0  0  0  0  3  0  0  0  0  0  0
   38.0370   28.3860   30.5420 N   0  0  0  0  0  0  0  0  0  0  0  0
  1  7  1  6  0  0  0
  1 18  1  0  0  0  0
  1  2  1  0  0  0  0
  2  3  1  0  0  0  0
  2  8  1  0  0  0  0
  3 11  1  0  0  0  0
  3 10  1  0  0  0  0
  4 13  1  0  0  0  0
  4  3  1  0  0  0  0
  5 15  1  0  0  0  0
  5  4  1  0  0  0  0
  6 16  1  6  0  0  0
  6  5  1  0  0  0  0
  6  1  1  0  0  0  0
  9  2  1  0  0  0  0
 12  4  1  0  0  0  0
 14  5  1  0  0  0  0
 17 18  2  0  0  0  0
 17 22  1  0  0  0  0
 18 19  1  0  0  0  0
 19 24  1  0  0  0  0
 19 20  2  0  0  0  0
 21 20  1  0  0  0  0
 21 25  1  0  0  0  0
 22 21  2  0  0  0  0
 23 17  1  0  0  0  0
 26 27  1  0  0  0  0
 26  6  1  0  0  0  0
 28 26  1  0  0  0  0
 29 30  1  0  0  0  0
 29 26  1  0  0  0  0
 31 29  1  0  0  0  0
 32 29  1  0  0  0  0
 32 33  1  0  0  0  0
 33 34  1  0  0  0  0
 35 33  2  0  0  0  0
 35 36  1  0  0  0  0
 37 35  1  0  0  0  0
 38 39  1  0  0  0  0
 38 37  2  0  0  0  0
 39 32  2  0  0  0  0
M  END
>  <minimizedAffinity>
-4.94498301

$$$$

 OpenBabel03272506323D

 39 41  0  0  1  0  0  0  0  0999 V2000
   38.9340   24.4090   35.0090 C   0  0  1  0  0  0  0  0  0  0  0  0
   37.8670   25.0330   35.7650 C   0  0  0  0  0  0  0  0  0  0  0  0
   38.1780   26.3620   36.4230 C   0  0  0  0  0  0  0  0  0  0  0  0
   39.0490   27.2750   35.6190 C   0  0  0  0  0  0  0  0  0  0  0  0
   40.1220   26.6610   34.8050 C   0  0  0  0  0  0  0  0  0  0  0  0
   39.6980   25.3900   34.1630 C   0  0  2  0  0  0  0  0  0  0  0  0
   38.4720   23.7240   34.2300 H   0  0  0  0  0  0  0  0  0  0  0  0
   37.3390   24.4370   36.5050 H   0  0  0  0  0  0  0  0  0  0  0  0
   37.0660   25.3220   35.0250 H   0  0  0  0  0  0  0  0  0  0  0  0
   38.6430   26.1770   37.4300 H   0  0  0  0  0  0  0  0  0  0  0  0
   37.2280   26.8980   36.6310 H   0  0  0  0  0  0  0  0  0  0  0  0
   38.4360   27.9670   34.9850 H   0  0  0  0  0  0  0  0  0  0  0  0
   39.5500   27.9510   36.3650 H   0  0  0  0  0  0  0  0  0  0  0  0
   40.4240   27.3510   34.0130 H   0  0  0  0  0  0  0  0  0  0  0  0
   41.0370   26.4340   35.4080 H   0  0  0  0  0  0  0  0  0  0  0  0
   40.5410   24.9730   33.6230 H   0  0  0  0  0  0  0  0  0  0  0  0
   39.5820   23.0690   37.0930 C   0  0  0  0  0  0  0  0  0  0  0  0
   39.8250   23.5020   35.7530 C   0  0  0  0  0  0  0  0  0  0  0  0
   40.9830   23.0080   35.1720 C   0  0  0  0  0  0  0  0  0  0  0  0
   41.8040   22.1650   35.8790 N   0  0  0  0  0  0  0  0  0  0  0  0
   41.5170   21.8000   37.1340 C   0  0  0  0  0  0  0  0  0  0  0  0
   40.3930   22.2570   37.7450 N   0  0  0  0  0  0  0  0  0  0  0  0
   38.6840   23.4420   37.5680 H   0  0  0  0  0  0  0  0  0  0  0  0
   41.2500   23.2770   34.1680 H   0  0  0  0  0  0  0  0  0  0  0  0
   42.2610   21.1330   37.5560 H   0  0  0  0  0  0  0  0  0  0  0  0
   38.6880   25.8230   33.0710 C   0  0  0  0  0  0  0  0  0  0  0  0
   38.8180   26.8880   32.8080 H   0  0  0  0  0  0  0  0  0  0  0  0
   37.6510   25.7030   33.4000 H   0  0  0  0  0  0  0  0  0  0  0  0
   38.9100   24.9930   31.8020 C   0  0  0  0  0  0  0  0  0  0  0  0
   39.0110   25.6410   30.9200 H   0  0  0  0  0  0  0  0  0  0  0  0
   39.8560   24.4140   31.8960 H   0  0  0  0  0  0  0  0  0  0  0  0
   37.7550   24.0700   31.6100 C   0  0  0  0  0  0  0  0  0  0  0  0
   36.4330   24.4700   31.6650 C   0  0  0  0  0  0  0  0  0  0  0  0
   36.2110   25.4970   31.8560 H   0  0  0  0  0  0  0  0  0  0  0  0
   35.4930   23.4810   31.4640 C   0  0  0  0  0  0  0  0  0  0  0  0
   34.4440   23.8100   31.5100 H   0  0  0  0  0  0  0  0  0  0  0  0
   35.7410   22.1620   31.2190 C   0  0  0  0  0  3  0  0  0  0  0  0
   37.0990   21.8380   31.1790 C   0  0  0  0  0  3  0  0  0  0  0  0
   38.0530   22.7700   31.3700 N   0  0  0  0  0  0  0  0  0  0  0  0
  1  7  1  6  0  0  0
  1 18  1  0  0  0  0
  1  2  1  0  0  0  0
  2  3  1  0  0  0  0
  2  8  1  0  0  0  0
  3 11  1  0  0  0  0
  3 10  1  0  0  0  0
  4 13  1  0  0  0  0
  4  3  1  0  0  0  0
  5 15  1  0  0  0  0
  5  4  1  0  0  0  0
  6 16  1  6  0  0  0
  6  5  1  0  0  0  0
  6  1  1  0  0  0  0
  9  2  1  0  0  0  0
 12  4  1  0  0  0  0
 14  5  1  0  0  0  0
 17 23  1  0  0  0  0
 17 22  1  0  0  0  0
 18 17  2  0  0  0  0
 19 18  1  0  0  0  0
 19 20  2  0  0  0  0
 20 21  1  0  0  0  0
 21 25  1  0  0  0  0
 21 22  2  0  0  0  0
 24 19  1  0  0  0  0
 26 28  1  0  0  0  0
 26  6  1  0  0  0  0
 27 26  1  0  0  0  0
 29 31  1  0  0  0  0
 29 26  1  0  0  0  0
 30 29  1  0  0  0  0
 32 33  1  0  0  0  0
 32 29  1  0  0  0  0
 33 34  1  0  0  0  0
 35 36  1  0  0  0  0
 35 33  2  0  0  0  0
 37 35  1  0  0  0  0
 38 37  2  0  0  0  0
 38 39  1  0  0  0  0
 39 32  2  0  0  0  0
M  END
>  <minimizedAffinity>
-4.92751455

$$$$

 OpenBabel03272506323D

 39 41  0  0  1  0  0  0  0  0999 V2000
   38.3530   26.0650   35.3250 C   0  0  1  0  0  0  0  0  0  0  0  0
   39.3150   27.1490   35.3020 C   0  0  0  0  0  0  0  0  0  0  0  0
   40.3320   27.1390   34.1790 C   0  0  0  0  0  0  0  0  0  0  0  0
   39.8050   26.6850   32.8540 C   0  0  0  0  0  0  0  0  0  0  0  0
   38.7910   25.6070   32.8500 C   0  0  0  0  0  0  0  0  0  0  0  0
   37.8120   25.7380   33.9610 C   0  0  2  0  0  0  0  0  0  0  0  0
   37.4250   26.4180   35.8770 H   0  0  0  0  0  0  0  0  0  0  0  0
   39.8620   27.3760   36.2130 H   0  0  0  0  0  0  0  0  0  0  0  0
   38.7400   28.0940   35.0850 H   0  0  0  0  0  0  0  0  0  0  0  0
   41.2100   26.5030   34.4800 H   0  0  0  0  0  0  0  0  0  0  0  0
   40.7400   28.1620   34.0470 H   0  0  0  0  0  0  0  0  0  0  0  0
   39.4450   27.5520   32.2420 H   0  0  0  0  0  0  0  0  0  0  0  0
   40.6970   26.2970   32.2900 H   0  0  0  0  0  0  0  0  0  0  0  0
   38.2340   25.6280   31.9100 H   0  0  0  0  0  0  0  0  0  0  0  0
   39.2490   24.5910   32.9370 H   0  0  0  0  0  0  0  0  0  0  0  0
   37.1290   24.8960   33.9260 H   0  0  0  0  0  0  0  0  0  0  0  0
   39.8270   24.0080   35.7110 C   0  0  0  0  0  0  0  0  0  0  0  0
   38.7380   24.8590   36.0760 C   0  0  0  0  0  0  0  0  0  0  0  0
   38.0400   24.4730   37.2100 C   0  0  0  0  0  0  0  0  0  0  0  0
   38.4100   23.3440   37.8980 N   0  0  0  0  0  0  0  0  0  0  0  0
   39.4420   22.5900   37.5000 C   0  0  0  0  0  0  0  0  0  0  0  0
   40.1570   22.9280   36.3950 N   0  0  0  0  0  0  0  0  0  0  0  0
   40.3880   24.2880   34.8290 H   0  0  0  0  0  0  0  0  0  0  0  0
   37.2060   25.0490   37.5630 H   0  0  0  0  0  0  0  0  0  0  0  0
   39.6080   21.7340   38.1450 H   0  0  0  0  0  0  0  0  0  0  0  0
   36.9560   26.9730   33.5820 C   0  0  0  0  0  0  0  0  0  0  0  0
   37.5630   27.8970   33.5920 H   0  0  0  0  0  0  0  0  0  0  0  0
   36.1300   27.1310   34.2820 H   0  0  0  0  0  0  0  0  0  0  0  0
   36.3890   26.7960   32.1690 C   0  0  0  0  0  0  0  0  0  0  0  0
   36.8910   25.9720   31.6430 H   0  0  0  0  0  0  0  0  0  0  0  0
   35.3080   26.5370   32.2300 H   0  0  0  0  0  0  0  0  0  0  0  0
   36.5760   28.0610   31.4030 C   0  0  0  0  0  0  0  0  0  0  0  0
   36.3300   29.3190   31.9230 C   0  0  0  0  0  0  0  0  0  0  0  0
   35.9850   29.4040   32.9310 H   0  0  0  0  0  0  0  0  0  0  0  0
   36.5570   30.3800   31.0730 C   0  0  0  0  0  0  0  0  0  0  0  0
   36.3580   31.3760   31.4960 H   0  0  0  0  0  0  0  0  0  0  0  0
   36.9960   30.3080   29.7830 C   0  0  0  0  0  3  0  0  0  0  0  0
   37.2210   29.0060   29.3320 C   0  0  0  0  0  3  0  0  0  0  0  0
   37.0130   27.9380   30.1260 N   0  0  0  0  0  0  0  0  0  0  0  0
  1  7  1  1  0  0  0
  1 18  1  0  0  0  0
  2  1  1  0  0  0  0
  2  8  1  0  0  0  0
  3 10  1  0  0  0  0
  3  2  1  0  0  0  0
  4  3  1  0  0  0  0
  5  4  1  0  0  0  0
  5 15  1  0  0  0  0
  5  6  1  0  0  0  0
  6 16  1  1  0  0  0
  6  1  1  0  0  0  0
  9  2  1  0  0  0  0
 11  3  1  0  0  0  0
 12  4  1  0  0  0  0
 13  4  1  0  0  0  0
 14  5  1  0  0  0  0
 17 18  2  0  0  0  0
 17 22  1  0  0  0  0
 18 19  1  0  0  0  0
 19 24  1  0  0  0  0
 19 20  2  0  0  0  0
 21 20  1  0  0  0  0
 21 25  1  0  0  0  0
 22 21  2  0  0  0  0
 23 17  1  0  0  0  0
 26 27  1  0  0  0  0
 26  6  1  0  0  0  0
 26 28  1  0  0  0  0
 29 31  1  0  0  0  0
 29 26  1  0  0  0  0
 30 29  1  0  0  0  0
 32 33  1  0  0  0  0
 32 29  1  0  0  0  0
 33 34  1  0  0  0  0
 35 36  1  0  0  0  0
 35 33  2  0  0  0  0
 37 35  1  0  0  0  0
 38 37  2  0  0  0  0
 38 39  1  0  0  0  0
 39 32  2  0  0  0  0
M  END
>  <minimizedAffinity>
-4.8724308

$$$$

 OpenBabel03272506323D

 39 41  0  0  1  0  0  0  0  0999 V2000
   38.5750   25.7730   33.5970 C   0  0  1  0  0  0  0  0  0  0  0  0
   38.8430   27.1120   34.0800 C   0  0  0  0  0  0  0  0  0  0  0  0
   38.2000   27.5090   35.3940 C   0  0  0  0  0  0  0  0  0  0  0  0
   38.1490   26.4250   36.4240 C   0  0  0  0  0  0  0  0  0  0  0  0
   37.9170   25.0400   35.9540 C   0  0  0  0  0  0  0  0  0  0  0  0
   38.6320   24.7390   34.6860 C   0  0  2  0  0  0  0  0  0  0  0  0
   39.4280   25.4570   32.9170 H   0  0  0  0  0  0  0  0  0  0  0  0
   38.6990   27.9480   33.4010 H   0  0  0  0  0  0  0  0  0  0  0  0
   39.9410   27.1560   34.3380 H   0  0  0  0  0  0  0  0  0  0  0  0
   37.1640   27.8990   35.1970 H   0  0  0  0  0  0  0  0  0  0  0  0
   38.7580   28.3630   35.8310 H   0  0  0  0  0  0  0  0  0  0  0  0
   39.0480   26.4570   37.0920 H   0  0  0  0  0  0  0  0  0  0  0  0
   37.2890   26.6890   37.1000 H   0  0  0  0  0  0  0  0  0  0  0  0
   38.2630   24.3320   36.7100 H   0  0  0  0  0  0  0  0  0  0  0  0
   36.8340   24.8270   35.7760 H   0  0  0  0  0  0  0  0  0  0  0  0
   38.3840   23.7300   34.3760 H   0  0  0  0  0  0  0  0  0  0  0  0
   36.8980   24.3420   32.2940 C   0  0  0  0  0  0  0  0  0  0  0  0
   37.3940   25.6090   32.7340 C   0  0  0  0  0  0  0  0  0  0  0  0
   36.6790   26.7110   32.2880 C   0  0  0  0  0  0  0  0  0  0  0  0
   35.5810   26.5410   31.4820 N   0  0  0  0  0  0  0  0  0  0  0  0
   35.1710   25.3240   31.1060 C   0  0  0  0  0  0  0  0  0  0  0  0
   35.8380   24.2150   31.5180 N   0  0  0  0  0  0  0  0  0  0  0  0
   37.4390   23.4670   32.6290 H   0  0  0  0  0  0  0  0  0  0  0  0
   36.9750   27.7050   32.5660 H   0  0  0  0  0  0  0  0  0  0  0  0
   34.2920   25.3560   30.4710 H   0  0  0  0  0  0  0  0  0  0  0  0
   40.1280   24.6850   35.0870 C   0  0  0  0  0  0  0  0  0  0  0  0
   40.2440   24.5450   36.1770 H   0  0  0  0  0  0  0  0  0  0  0  0
   40.6550   25.6090   34.8300 H   0  0  0  0  0  0  0  0  0  0  0  0
   40.8110   23.5060   34.3840 C   0  0  0  0  0  0  0  0  0  0  0  0
   40.1100   22.9860   33.7160 H   0  0  0  0  0  0  0  0  0  0  0  0
   41.6480   23.8820   33.7540 H   0  0  0  0  0  0  0  0  0  0  0  0
   41.3210   22.5520   35.4090 C   0  0  0  0  0  0  0  0  0  0  0  0
   40.8760   22.5180   36.7180 C   0  0  0  0  0  0  0  0  0  0  0  0
   40.1240   23.2110   37.0270 H   0  0  0  0  0  0  0  0  0  0  0  0
   41.4590   21.5690   37.5300 C   0  0  0  0  0  0  0  0  0  0  0  0
   41.0980   21.5510   38.5700 H   0  0  0  0  0  0  0  0  0  0  0  0
   42.4210   20.6710   37.1700 C   0  0  0  0  0  3  0  0  0  0  0  0
   42.8160   20.7680   35.8340 C   0  0  0  0  0  3  0  0  0  0  0  0
   42.2750   21.6800   35.0030 N   0  0  0  0  0  0  0  0  0  0  0  0
  1  7  1  6  0  0  0
  1  2  1  0  0  0  0
  1  6  1  0  0  0  0
  2  9  1  0  0  0  0
  2  3  1  0  0  0  0
  3 11  1  0  0  0  0
  3  4  1  0  0  0  0
  4 12  1  0  0  0  0
  4 13  1  0  0  0  0
  5  4  1  0  0  0  0
  5 14  1  0  0  0  0
  6 16  1  6  0  0  0
  6 26  1  0  0  0  0
  6  5  1  0  0  0  0
  8  2  1  0  0  0  0
 10  3  1  0  0  0  0
 15  5  1  0  0  0  0
 17 23  1  0  0  0  0
 17 18  1  0  0  0  0
 18  1  1  0  0  0  0
 19 24  1  0  0  0  0
 19 18  2  0  0  0  0
 20 19  1  0  0  0  0
 21 20  2  0  0  0  0
 21 22  1  0  0  0  0
 22 17  2  0  0  0  0
 25 21  1  0  0  0  0
 26 27  1  0  0  0  0
 28 26  1  0  0  0  0
 29 26  1  0  0  0  0
 29 32  1  0  0  0  0
 30 29  1  0  0  0  0
 31 29  1  0  0  0  0
 32 33  1  0  0  0  0
 33 34  1  0  0  0  0
 33 35  2  0  0  0  0
 35 36  1  0  0  0  0
 37 35  1  0  0  0  0
 38 37  2  0  0  0  0
 39 32  2  0  0  0  0
 39 38  1  0  0  0  0
M  END
>  <minimizedAffinity>
-4.84189701

$$$$
