
 OpenBabel03272507583D

 31 33  0  0  0  0  0  0  0  0999 V2000
   36.7980   31.1740   48.6240 C   0  0  0  0  0  0  0  0  0  0  0  0
   37.0450   32.0910   49.6340 C   0  0  0  0  0  0  0  0  0  0  0  0
   37.9470   33.1220   49.4110 C   0  0  0  0  0  0  0  0  0  0  0  0
   38.5930   33.2380   48.1960 C   0  0  0  0  0  0  0  0  0  0  0  0
   38.3200   32.3100   47.2220 C   0  0  0  0  0  0  0  0  0  0  0  0
   37.4480   31.3270   47.4640 N   0  0  0  0  0  0  0  0  0  0  0  0
   36.6230   32.1320   50.6270 H   0  0  0  0  0  0  0  0  0  0  0  0
   38.1980   33.8770   50.1390 H   0  0  0  0  0  0  0  0  0  0  0  0
   39.2950   34.0150   47.9780 H   0  0  0  0  0  0  0  0  0  0  0  0
   35.1440   28.3400   50.4390 C   0  0  0  0  0  0  0  0  0  0  0  0
   36.1140   29.3260   50.0920 C   0  0  0  0  0  0  0  0  0  0  0  0
   35.8360   30.1590   49.0070 C   0  0  0  0  0  0  0  0  0  0  0  0
   34.6630   29.9870   48.3410 N   0  0  0  0  0  0  0  0  0  0  0  0
   33.7670   29.0260   48.7140 C   0  0  0  0  0  0  0  0  0  0  0  0
   34.0010   28.2130   49.7490 N   0  0  0  0  0  0  0  0  0  0  0  0
   32.6200   29.0390   47.8710 N   0  0  0  0  0  0  0  0  0  0  0  0
   35.3430   27.6820   51.2810 H   0  0  0  0  0  0  0  0  0  0  0  0
   32.7060   28.9560   46.8440 H   0  0  0  0  0  0  0  0  0  0  0  0
   31.6300   29.1330   48.2460 H   0  0  0  0  0  0  0  0  0  0  0  0
   37.3560   29.4160   50.8940 C   0  0  0  0  0  0  0  0  0  0  0  0
   38.4460   29.7420   50.0940 F   0  0  0  0  0  0  0  0  0  0  0  0
   37.2080   30.3980   51.8320 F   0  0  0  0  0  0  0  0  0  0  0  0
   37.6600   28.2420   51.5530 F   0  0  0  0  0  0  0  0  0  0  0  0
   38.9780   32.3910   45.9220 C   0  0  0  0  0  0  0  0  0  0  0  0
   38.2330   32.5830   44.7750 C   0  0  0  0  0  0  0  0  0  0  0  0
   37.1560   32.6790   44.7810 H   0  0  0  0  0  0  0  0  0  0  0  0
   38.9750   32.6400   43.6260 C   0  0  0  0  0  0  0  0  0  0  0  0
   38.4820   32.7910   42.6530 H   0  0  0  0  0  0  0  0  0  0  0  0
   40.3430   32.5290   43.5250 C   0  0  0  0  0  3  0  0  0  0  0  0
   41.0220   32.3370   44.7260 C   0  0  0  0  0  3  0  0  0  0  0  0
   40.3190   32.2760   45.8730 N   0  0  0  0  0  0  0  0  0  0  0  0
  1 12  1  0  0  0  0
  1  2  1  0  0  0  0
  2  7  1  0  0  0  0
  3  2  2  0  0  0  0
  3  8  1  0  0  0  0
  4  3  1  0  0  0  0
  5  6  1  0  0  0  0
  5  4  2  0  0  0  0
  6  1  2  0  0  0  0
  9  4  1  0  0  0  0
 10 17  1  0  0  0  0
 11 10  1  0  0  0  0
 11 20  1  0  0  0  0
 12 11  2  0  0  0  0
 13 14  2  0  0  0  0
 13 12  1  0  0  0  0
 14 15  1  0  0  0  0
 15 10  2  0  0  0  0
 16 19  1  0  0  0  0
 16 14  1  0  0  0  0
 18 16  1  0  0  0  0
 20 23  1  0  0  0  0
 20 22  1  0  0  0  0
 21 20  1  0  0  0  0
 24  5  1  0  0  0  0
 25 26  1  0  0  0  0
 25 24  2  0  0  0  0
 27 25  1  0  0  0  0
 28 27  1  0  0  0  0
 29 27  2  0  0  0  0
 29 30  1  0  0  0  0
 30 31  2  0  0  0  0
 31 24  1  0  0  0  0
M  END
>  <minimizedAffinity>
-6.31981611

>  <minimizedRMSD>
1.08117378

$$$$
