
 OpenBabel03272509243D

 23 24  0  0  0  0  0  0  0  0999 V2000
   37.8020   30.4350   47.6760 C   0  0  0  0  0  0  0  0  0  0  0  0
   38.3840   29.5120   47.3940 H   0  0  0  0  0  0  0  0  0  0  0  0
   36.9520   30.5570   46.9840 H   0  0  0  0  0  0  0  0  0  0  0  0
   37.3570   30.1680   51.4160 C   0  0  0  0  0  0  0  0  0  0  0  0
   37.9670   30.5200   50.1910 C   0  0  0  0  0  0  0  0  0  0  0  0
   37.2990   30.1440   49.0390 C   0  0  0  0  0  0  0  0  0  0  0  0
   36.1220   29.4740   49.1550 N   0  0  0  0  0  0  0  0  0  0  0  0
   35.5660   29.1520   50.3320 C   0  0  0  0  0  0  0  0  0  0  0  0
   36.1910   29.5030   51.4780 N   0  0  0  0  0  0  0  0  0  0  0  0
   37.8850   30.4640   52.3300 H   0  0  0  0  0  0  0  0  0  0  0  0
   38.9020   31.0530   50.1410 H   0  0  0  0  0  0  0  0  0  0  0  0
   34.6300   28.6190   50.2610 H   0  0  0  0  0  0  0  0  0  0  0  0
   38.7120   31.6450   47.6950 C   0  0  0  0  0  0  0  0  0  0  0  0
   38.2990   32.4870   48.2450 H   0  0  0  0  0  0  0  0  0  0  0  0
   39.6600   31.3380   48.2260 H   0  0  0  0  0  0  0  0  0  0  0  0
   39.1330   32.0100   46.2930 C   0  0  0  0  0  0  0  0  0  0  0  0
   39.9360   33.1260   46.0960 C   0  0  0  0  0  0  0  0  0  0  0  0
   40.2230   33.6830   46.9830 H   0  0  0  0  0  0  0  0  0  0  0  0
   40.3100   33.4410   44.7980 C   0  0  0  0  0  0  0  0  0  0  0  0
   40.9450   34.3330   44.7130 H   0  0  0  0  0  0  0  0  0  0  0  0
   39.8860   32.6560   43.7320 C   0  0  0  0  0  3  0  0  0  0  0  0
   39.0910   31.5630   43.9820 C   0  0  0  0  0  3  0  0  0  0  0  0
   38.7210   31.2470   45.2420 N   0  0  0  0  0  0  0  0  0  0  0  0
  1 13  1  0  0  0  0
  1  6  1  0  0  0  0
  2  1  1  0  0  0  0
  3  1  1  0  0  0  0
  4  9  1  0  0  0  0
  4 10  1  0  0  0  0
  5  4  2  0  0  0  0
  6  7  2  0  0  0  0
  6  5  1  0  0  0  0
  7  8  1  0  0  0  0
  8  9  2  0  0  0  0
 11  5  1  0  0  0  0
 12  8  1  0  0  0  0
 13 15  1  0  0  0  0
 13 14  1  0  0  0  0
 16 13  1  0  0  0  0
 17 16  1  0  0  0  0
 17 18  1  0  0  0  0
 19 17  2  0  0  0  0
 20 19  1  0  0  0  0
 21 22  2  0  0  0  0
 21 19  1  0  0  0  0
 22 23  1  0  0  0  0
 23 16  2  0  0  0  0
M  END
>  <minimizedAffinity>
-4.87653494

>  <minimizedRMSD>
1.37177396

$$$$
