
 OpenBabel03272510013D

 20 21  0  0  0  0  0  0  0  0999 V2000
   38.1870   33.0190   49.5390 C   0  0  0  0  0  0  0  0  0  0  0  0
   38.8130   33.0060   48.2860 C   0  0  0  0  0  0  0  0  0  0  0  0
   38.4090   32.0410   47.3760 C   0  0  0  0  0  0  0  0  0  0  0  0
   37.4320   31.1680   47.7460 N   0  0  0  0  0  0  0  0  0  0  0  0
   36.8550   31.2140   48.9610 C   0  0  0  0  0  0  0  0  0  0  0  0
   37.2390   32.1390   49.8410 N   0  0  0  0  0  0  0  0  0  0  0  0
   38.5420   33.7930   50.2100 H   0  0  0  0  0  0  0  0  0  0  0  0
   39.5860   33.7180   48.0330 H   0  0  0  0  0  0  0  0  0  0  0  0
   39.0230   31.9740   46.0530 C   0  0  0  0  0  0  0  0  0  0  0  0
   40.2000   31.2750   45.9020 C   0  0  0  0  0  0  0  0  0  0  0  0
   40.6740   30.7830   46.7270 H   0  0  0  0  0  0  0  0  0  0  0  0
   40.7060   31.2680   44.6130 C   0  0  0  0  0  0  0  0  0  0  0  0
   41.6340   30.7340   44.4260 H   0  0  0  0  0  0  0  0  0  0  0  0
   40.0370   31.9210   43.6280 C   0  0  0  0  0  3  0  0  0  0  0  0
   38.8520   32.6190   43.7960 C   0  0  0  0  0  3  0  0  0  0  0  0
   38.3880   32.6100   45.0530 N   0  0  0  0  0  0  0  0  0  0  0  0
   35.7970   30.2170   49.2710 C   0  0  0  0  0  0  0  0  0  0  0  0
   35.8750   29.7450   50.5600 F   0  0  0  0  0  0  0  0  0  0  0  0
   34.5230   30.7990   49.1500 F   0  0  0  0  0  0  0  0  0  0  0  0
   35.7860   29.1470   48.4270 F   0  0  0  0  0  0  0  0  0  0  0  0
  1  6  1  0  0  0  0
  1  7  1  0  0  0  0
  2  1  2  0  0  0  0
  3  4  2  0  0  0  0
  3  2  1  0  0  0  0
  4  5  1  0  0  0  0
  5 17  1  0  0  0  0
  5  6  2  0  0  0  0
  8  2  1  0  0  0  0
  9  3  1  0  0  0  0
 10  9  1  0  0  0  0
 10 11  1  0  0  0  0
 12 10  2  0  0  0  0
 13 12  1  0  0  0  0
 14 15  2  0  0  0  0
 14 12  1  0  0  0  0
 15 16  1  0  0  0  0
 16  9  2  0  0  0  0
 17 18  1  0  0  0  0
 19 17  1  0  0  0  0
 20 17  1  0  0  0  0
M  END
>  <minimizedAffinity>
-5.61809206

>  <minimizedRMSD>
2.11647558

$$$$
