
 OpenBabel03272510013D

 20 21  0  0  0  0  0  0  0  0999 V2000
   38.2410   31.3900   50.2050 C   0  0  0  0  0  0  0  0  0  0  0  0
   38.5060   31.4020   48.8300 C   0  0  0  0  0  0  0  0  0  0  0  0
   37.6350   30.7120   48.0010 C   0  0  0  0  0  0  0  0  0  0  0  0
   36.5770   30.0670   48.5640 N   0  0  0  0  0  0  0  0  0  0  0  0
   36.3570   30.0790   49.8920 C   0  0  0  0  0  0  0  0  0  0  0  0
   37.1910   30.7400   50.6950 N   0  0  0  0  0  0  0  0  0  0  0  0
   38.9540   31.9440   50.8050 H   0  0  0  0  0  0  0  0  0  0  0  0
   39.3590   31.9280   48.4240 H   0  0  0  0  0  0  0  0  0  0  0  0
   37.8560   30.6870   46.5580 C   0  0  0  0  0  0  0  0  0  0  0  0
   36.7660   30.6400   45.7190 C   0  0  0  0  0  0  0  0  0  0  0  0
   35.7630   30.6220   46.0970 H   0  0  0  0  0  0  0  0  0  0  0  0
   37.0760   30.6180   44.3700 C   0  0  0  0  0  0  0  0  0  0  0  0
   36.2590   30.5820   43.6520 H   0  0  0  0  0  0  0  0  0  0  0  0
   38.3770   30.6440   43.9810 C   0  0  0  0  0  3  0  0  0  0  0  0
   39.4640   30.6910   44.8390 C   0  0  0  0  0  3  0  0  0  0  0  0
   39.1340   30.7100   46.1360 N   0  0  0  0  0  0  0  0  0  0  0  0
   35.1750   29.3440   50.4110 C   0  0  0  0  0  0  0  0  0  0  0  0
   35.2470   29.1110   51.7650 F   0  0  0  0  0  0  0  0  0  0  0  0
   34.0020   30.0950   50.2120 F   0  0  0  0  0  0  0  0  0  0  0  0
   34.9490   28.1520   49.7870 F   0  0  0  0  0  0  0  0  0  0  0  0
  1  6  1  0  0  0  0
  1  7  1  0  0  0  0
  2  1  2  0  0  0  0
  3  4  2  0  0  0  0
  3  2  1  0  0  0  0
  4  5  1  0  0  0  0
  5 17  1  0  0  0  0
  5  6  2  0  0  0  0
  8  2  1  0  0  0  0
  9  3  1  0  0  0  0
 10 11  1  0  0  0  0
 10  9  2  0  0  0  0
 12 10  1  0  0  0  0
 13 12  1  0  0  0  0
 14 12  2  0  0  0  0
 14 15  1  0  0  0  0
 15 16  2  0  0  0  0
 16  9  1  0  0  0  0
 17 18  1  0  0  0  0
 19 17  1  0  0  0  0
 20 17  1  0  0  0  0
M  END
>  <minimizedAffinity>
-5.27177191

>  <minimizedRMSD>
1.07736409

$$$$
