
 OpenBabel03262523193D

 29 31  0  0  1  0  0  0  0  0999 V2000
   39.1910   32.7670   45.8950 C   0  0  0  0  0  0  0  0  0  0  0  0
   40.2590   31.8950   45.5580 C   0  0  0  0  0  0  0  0  0  0  0  0
   39.9600   30.5340   45.3760 C   0  0  0  0  0  0  0  0  0  0  0  0
   38.6770   30.1130   45.5270 N   0  0  0  0  0  0  0  0  0  0  0  0
   37.6900   30.9700   45.8470 C   0  0  0  0  0  0  0  0  0  0  0  0
   37.9470   32.2650   46.0260 N   0  0  0  0  0  0  0  0  0  0  0  0
   36.3440   30.4710   45.9960 N   0  0  0  0  0  0  0  0  0  0  0  0
   35.6350   29.8020   44.9120 C   0  0  0  0  0  0  0  0  0  0  0  0
   34.4650   29.1620   45.5720 C   0  0  0  0  0  0  0  0  0  0  0  0
   34.6370   29.3640   47.0500 C   0  0  0  0  0  0  0  0  0  0  0  0
   35.5350   30.5580   47.1900 C   0  0  1  0  0  0  0  0  0  0  0  0
   39.3660   33.8160   46.0450 H   0  0  0  0  0  0  0  0  0  0  0  0
   41.2640   32.2790   45.4500 H   0  0  0  0  0  0  0  0  0  0  0  0
   40.7530   29.8410   45.1190 H   0  0  0  0  0  0  0  0  0  0  0  0
   35.2260   30.6280   44.2590 H   0  0  0  0  0  0  0  0  0  0  0  0
   36.2710   29.1300   44.3240 H   0  0  0  0  0  0  0  0  0  0  0  0
   34.4850   28.0700   45.2820 H   0  0  0  0  0  0  0  0  0  0  0  0
   33.4820   29.5340   45.1990 H   0  0  0  0  0  0  0  0  0  0  0  0
   35.1170   28.4260   47.4330 H   0  0  0  0  0  0  0  0  0  0  0  0
   33.6780   29.6060   47.5630 H   0  0  0  0  0  0  0  0  0  0  0  0
   34.9020   31.4650   47.0940 H   0  0  0  0  0  0  0  0  0  0  0  0
   36.3340   30.5230   48.4410 C   0  0  0  0  0  0  0  0  0  0  0  0
   36.3840   29.2840   49.0840 C   0  0  0  0  0  0  0  0  0  0  0  0
   35.9180   28.3590   48.7840 H   0  0  0  0  0  0  0  0  0  0  0  0
   37.1380   29.2610   50.2610 C   0  0  0  0  0  0  0  0  0  0  0  0
   37.2320   28.3330   50.8300 H   0  0  0  0  0  0  0  0  0  0  0  0
   37.7960   30.3470   50.7840 C   0  0  0  0  0  0  0  0  0  0  0  0
   37.6930   31.5430   50.0800 C   0  0  0  0  0  0  0  0  0  0  0  0
   36.9650   31.5820   48.9340 N   0  0  0  0  0  0  0  0  0  0  0  0
  1  6  1  0  0  0  0
  1 12  1  0  0  0  0
  2  1  2  0  0  0  0
  3  4  2  0  0  0  0
  3  2  1  0  0  0  0
  4  5  1  0  0  0  0
  5  7  1  0  0  0  0
  5  6  2  0  0  0  0
  7 11  1  0  0  0  0
  8  9  1  0  0  0  0
  8  7  1  0  0  0  0
  9 10  1  0  0  0  0
 10 11  1  0  0  0  0
 10 19  1  0  0  0  0
 10 20  1  0  0  0  0
 11 21  1  6  0  0  0
 11 22  1  0  0  0  0
 13  2  1  0  0  0  0
 14  3  1  0  0  0  0
 15  8  1  0  0  0  0
 16  8  1  0  0  0  0
 17  9  1  0  0  0  0
 18  9  1  0  0  0  0
 22 29  2  0  0  0  0
 22 23  1  0  0  0  0
 23 25  2  0  0  0  0
 24 23  1  0  0  0  0
 25 27  1  0  0  0  0
 25 26  1  0  0  0  0
 28 27  2  0  0  0  0
 29 28  1  0  0  0  0
M  END
>  <minimizedAffinity>
-5.21237516

>  <minimizedRMSD>
3.14207792

$$$$
