
 OpenBabel03272510013D

 20 21  0  0  0  0  0  0  0  0999 V2000
   38.1370   32.8220   49.4100 C   0  0  0  0  0  0  0  0  0  0  0  0
   38.5040   32.6870   48.0660 C   0  0  0  0  0  0  0  0  0  0  0  0
   37.9680   31.6230   47.3560 C   0  0  0  0  0  0  0  0  0  0  0  0
   37.1200   30.7760   48.0000 N   0  0  0  0  0  0  0  0  0  0  0  0
   36.7920   30.9400   49.2950 C   0  0  0  0  0  0  0  0  0  0  0  0
   37.3040   31.9600   49.9830 N   0  0  0  0  0  0  0  0  0  0  0  0
   38.5860   33.6700   49.9160 H   0  0  0  0  0  0  0  0  0  0  0  0
   39.1830   33.3840   47.5930 H   0  0  0  0  0  0  0  0  0  0  0  0
   38.3120   31.4280   45.9510 C   0  0  0  0  0  0  0  0  0  0  0  0
   38.0520   32.4410   45.0560 C   0  0  0  0  0  0  0  0  0  0  0  0
   37.6080   33.3660   45.3640 H   0  0  0  0  0  0  0  0  0  0  0  0
   38.4140   32.1640   43.7490 C   0  0  0  0  0  0  0  0  0  0  0  0
   38.2350   32.9240   42.9910 H   0  0  0  0  0  0  0  0  0  0  0  0
   38.9730   30.9630   43.4500 C   0  0  0  0  0  3  0  0  0  0  0  0
   39.2280   29.9530   44.3610 C   0  0  0  0  0  3  0  0  0  0  0  0
   38.8690   30.2490   45.6180 N   0  0  0  0  0  0  0  0  0  0  0  0
   35.8570   29.9610   49.9090 C   0  0  0  0  0  0  0  0  0  0  0  0
   36.1210   29.7380   51.2400 F   0  0  0  0  0  0  0  0  0  0  0  0
   34.5360   30.4400   49.8530 F   0  0  0  0  0  0  0  0  0  0  0  0
   35.8290   28.7540   49.2740 F   0  0  0  0  0  0  0  0  0  0  0  0
  1  7  1  0  0  0  0
  1  6  1  0  0  0  0
  2  1  2  0  0  0  0
  3  4  2  0  0  0  0
  3  2  1  0  0  0  0
  4  5  1  0  0  0  0
  5 17  1  0  0  0  0
  5  6  2  0  0  0  0
  8  2  1  0  0  0  0
  9  3  1  0  0  0  0
 10 11  1  0  0  0  0
 10  9  2  0  0  0  0
 12 10  1  0  0  0  0
 13 12  1  0  0  0  0
 14 12  2  0  0  0  0
 14 15  1  0  0  0  0
 15 16  2  0  0  0  0
 16  9  1  0  0  0  0
 17 18  1  0  0  0  0
 19 17  1  0  0  0  0
 20 17  1  0  0  0  0
M  END
>  <minimizedAffinity>
-5.19129181

>  <minimizedRMSD>
1.52647984

$$$$
