
 OpenBabel03272510013D

 20 21  0  0  0  0  0  0  0  0999 V2000
   38.1250   32.7760   49.5250 C   0  0  0  0  0  0  0  0  0  0  0  0
   38.5670   32.6790   48.2000 C   0  0  0  0  0  0  0  0  0  0  0  0
   37.9830   31.7110   47.3970 C   0  0  0  0  0  0  0  0  0  0  0  0
   37.0190   30.9160   47.9360 N   0  0  0  0  0  0  0  0  0  0  0  0
   36.6210   31.0420   49.2160 C   0  0  0  0  0  0  0  0  0  0  0  0
   37.1780   31.9700   49.9930 N   0  0  0  0  0  0  0  0  0  0  0  0
   38.6150   33.5490   50.1060 H   0  0  0  0  0  0  0  0  0  0  0  0
   39.3370   33.3310   47.8120 H   0  0  0  0  0  0  0  0  0  0  0  0
   38.4010   31.5580   46.0060 C   0  0  0  0  0  0  0  0  0  0  0  0
   39.2620   30.5340   45.6800 C   0  0  0  0  0  0  0  0  0  0  0  0
   39.6320   29.8500   46.4170 H   0  0  0  0  0  0  0  0  0  0  0  0
   39.6010   30.4690   44.3390 C   0  0  0  0  0  0  0  0  0  0  0  0
   40.2780   29.6830   44.0150 H   0  0  0  0  0  0  0  0  0  0  0  0
   39.0840   31.3800   43.4740 C   0  0  0  0  0  3  0  0  0  0  0  0
   38.2180   32.4050   43.8180 C   0  0  0  0  0  3  0  0  0  0  0  0
   37.9090   32.4420   45.1200 N   0  0  0  0  0  0  0  0  0  0  0  0
   35.5610   30.1260   49.7110 C   0  0  0  0  0  0  0  0  0  0  0  0
   35.7850   29.7050   51.0010 F   0  0  0  0  0  0  0  0  0  0  0  0
   34.3160   30.7800   49.7300 F   0  0  0  0  0  0  0  0  0  0  0  0
   35.3770   29.0230   48.9310 F   0  0  0  0  0  0  0  0  0  0  0  0
  1  6  1  0  0  0  0
  1  7  1  0  0  0  0
  2  1  2  0  0  0  0
  3  4  2  0  0  0  0
  3  2  1  0  0  0  0
  4  5  1  0  0  0  0
  5 17  1  0  0  0  0
  5  6  2  0  0  0  0
  8  2  1  0  0  0  0
  9  3  1  0  0  0  0
 10  9  1  0  0  0  0
 10 11  1  0  0  0  0
 12 10  2  0  0  0  0
 13 12  1  0  0  0  0
 14 15  2  0  0  0  0
 14 12  1  0  0  0  0
 15 16  1  0  0  0  0
 16  9  2  0  0  0  0
 17 19  1  0  0  0  0
 17 18  1  0  0  0  0
 20 17  1  0  0  0  0
M  END
>  <minimizedAffinity>
-5.36314344

>  <minimizedRMSD>
1.56796813

$$$$
