
 OpenBabel03272510003D

 20 21  0  0  0  0  0  0  0  0999 V2000
   38.2420   31.3910   50.2040 C   0  0  0  0  0  0  0  0  0  0  0  0
   38.5060   31.4030   48.8290 C   0  0  0  0  0  0  0  0  0  0  0  0
   37.6350   30.7130   48.0000 C   0  0  0  0  0  0  0  0  0  0  0  0
   36.5770   30.0680   48.5640 N   0  0  0  0  0  0  0  0  0  0  0  0
   36.3580   30.0800   49.8920 C   0  0  0  0  0  0  0  0  0  0  0  0
   37.1920   30.7420   50.6940 N   0  0  0  0  0  0  0  0  0  0  0  0
   38.9540   31.9460   50.8040 H   0  0  0  0  0  0  0  0  0  0  0  0
   39.3590   31.9290   48.4230 H   0  0  0  0  0  0  0  0  0  0  0  0
   37.8560   30.6870   46.5580 C   0  0  0  0  0  0  0  0  0  0  0  0
   36.7650   30.6400   45.7180 C   0  0  0  0  0  0  0  0  0  0  0  0
   35.7630   30.6230   46.0970 H   0  0  0  0  0  0  0  0  0  0  0  0
   37.0760   30.6190   44.3690 C   0  0  0  0  0  0  0  0  0  0  0  0
   36.2580   30.5820   43.6530 H   0  0  0  0  0  0  0  0  0  0  0  0
   38.3770   30.6430   43.9810 C   0  0  0  0  0  3  0  0  0  0  0  0
   39.4640   30.6900   44.8370 C   0  0  0  0  0  3  0  0  0  0  0  0
   39.1340   30.7100   46.1360 N   0  0  0  0  0  0  0  0  0  0  0  0
   35.1760   29.3440   50.4120 C   0  0  0  0  0  0  0  0  0  0  0  0
   35.2490   29.1120   51.7650 F   0  0  0  0  0  0  0  0  0  0  0  0
   34.0030   30.0950   50.2130 F   0  0  0  0  0  0  0  0  0  0  0  0
   34.9500   28.1530   49.7880 F   0  0  0  0  0  0  0  0  0  0  0  0
  1  6  1  0  0  0  0
  1  7  1  0  0  0  0
  2  1  2  0  0  0  0
  3  4  2  0  0  0  0
  3  2  1  0  0  0  0
  4  5  1  0  0  0  0
  5 17  1  0  0  0  0
  5  6  2  0  0  0  0
  8  2  1  0  0  0  0
  9  3  1  0  0  0  0
 10 11  1  0  0  0  0
 10  9  2  0  0  0  0
 12 10  1  0  0  0  0
 13 12  1  0  0  0  0
 14 12  2  0  0  0  0
 14 15  1  0  0  0  0
 15 16  2  0  0  0  0
 16  9  1  0  0  0  0
 17 18  1  0  0  0  0
 19 17  1  0  0  0  0
 20 17  1  0  0  0  0
M  END
>  <minimizedAffinity>
-5.2718668

>  <minimizedRMSD>
1.13331914

$$$$
