
 OpenBabel03272510003D

 20 21  0  0  0  0  0  0  0  0999 V2000
   38.3030   31.2860   50.2200 C   0  0  0  0  0  0  0  0  0  0  0  0
   38.4180   31.5480   48.8500 C   0  0  0  0  0  0  0  0  0  0  0  0
   37.4220   31.0640   48.0160 C   0  0  0  0  0  0  0  0  0  0  0  0
   36.3940   30.3660   48.5710 N   0  0  0  0  0  0  0  0  0  0  0  0
   36.3190   30.1340   49.8940 C   0  0  0  0  0  0  0  0  0  0  0  0
   37.2730   30.5980   50.7020 N   0  0  0  0  0  0  0  0  0  0  0  0
   39.1080   31.6880   50.8250 H   0  0  0  0  0  0  0  0  0  0  0  0
   39.2540   32.1070   48.4510 H   0  0  0  0  0  0  0  0  0  0  0  0
   37.4860   31.3040   46.5770 C   0  0  0  0  0  0  0  0  0  0  0  0
   36.6990   30.5420   45.7400 C   0  0  0  0  0  0  0  0  0  0  0  0
   36.0460   29.7820   46.1180 H   0  0  0  0  0  0  0  0  0  0  0  0
   36.8280   30.8420   44.3960 C   0  0  0  0  0  0  0  0  0  0  0  0
   36.2340   30.2760   43.6810 H   0  0  0  0  0  0  0  0  0  0  0  0
   37.6840   31.8230   44.0070 C   0  0  0  0  0  3  0  0  0  0  0  0
   38.4680   32.5820   44.8610 C   0  0  0  0  0  3  0  0  0  0  0  0
   38.3220   32.2690   46.1560 N   0  0  0  0  0  0  0  0  0  0  0  0
   35.1560   29.3620   50.4040 C   0  0  0  0  0  0  0  0  0  0  0  0
   35.2360   29.1130   51.7540 F   0  0  0  0  0  0  0  0  0  0  0  0
   33.9650   30.0850   50.2160 F   0  0  0  0  0  0  0  0  0  0  0  0
   34.9610   28.1740   49.7640 F   0  0  0  0  0  0  0  0  0  0  0  0
  1  6  1  0  0  0  0
  1  7  1  0  0  0  0
  2  1  2  0  0  0  0
  3  4  2  0  0  0  0
  3  2  1  0  0  0  0
  4  5  1  0  0  0  0
  5 17  1  0  0  0  0
  5  6  2  0  0  0  0
  8  2  1  0  0  0  0
  9  3  1  0  0  0  0
 10 11  1  0  0  0  0
 10  9  2  0  0  0  0
 12 10  1  0  0  0  0
 13 12  1  0  0  0  0
 14 12  2  0  0  0  0
 14 15  1  0  0  0  0
 15 16  2  0  0  0  0
 16  9  1  0  0  0  0
 17 18  1  0  0  0  0
 19 17  1  0  0  0  0
 20 17  1  0  0  0  0
M  END
>  <minimizedAffinity>
-5.44106007

>  <minimizedRMSD>
0.431802362

$$$$
