
 OpenBabel03272510013D

 20 21  0  0  0  0  0  0  0  0999 V2000
   38.2350   31.4100   50.2190 C   0  0  0  0  0  0  0  0  0  0  0  0
   38.5140   31.4230   48.8470 C   0  0  0  0  0  0  0  0  0  0  0  0
   37.6550   30.7280   48.0100 C   0  0  0  0  0  0  0  0  0  0  0  0
   36.5960   30.0760   48.5630 N   0  0  0  0  0  0  0  0  0  0  0  0
   36.3620   30.0880   49.8890 C   0  0  0  0  0  0  0  0  0  0  0  0
   37.1840   30.7550   50.6990 N   0  0  0  0  0  0  0  0  0  0  0  0
   38.9380   31.9700   50.8260 H   0  0  0  0  0  0  0  0  0  0  0  0
   39.3680   31.9540   48.4490 H   0  0  0  0  0  0  0  0  0  0  0  0
   37.8910   30.7020   46.5690 C   0  0  0  0  0  0  0  0  0  0  0  0
   39.1880   30.7410   46.1080 C   0  0  0  0  0  0  0  0  0  0  0  0
   40.0230   30.7900   46.7760 H   0  0  0  0  0  0  0  0  0  0  0  0
   39.3120   30.7130   44.7290 C   0  0  0  0  0  0  0  0  0  0  0  0
   40.3100   30.7420   44.2990 H   0  0  0  0  0  0  0  0  0  0  0  0
   38.1950   30.6510   43.9580 C   0  0  0  0  0  3  0  0  0  0  0  0
   36.8960   30.6120   44.4380 C   0  0  0  0  0  3  0  0  0  0  0  0
   36.8080   30.6410   45.7740 N   0  0  0  0  0  0  0  0  0  0  0  0
   35.1790   29.3460   50.3960 C   0  0  0  0  0  0  0  0  0  0  0  0
   35.2430   29.1080   51.7500 F   0  0  0  0  0  0  0  0  0  0  0  0
   34.0050   30.0920   50.1910 F   0  0  0  0  0  0  0  0  0  0  0  0
   34.9640   28.1560   49.7670 F   0  0  0  0  0  0  0  0  0  0  0  0
  1  6  1  0  0  0  0
  1  7  1  0  0  0  0
  2  1  2  0  0  0  0
  3  4  2  0  0  0  0
  3  2  1  0  0  0  0
  4  5  1  0  0  0  0
  5 17  1  0  0  0  0
  5  6  2  0  0  0  0
  8  2  1  0  0  0  0
  9  3  1  0  0  0  0
 10  9  1  0  0  0  0
 10 11  1  0  0  0  0
 12 10  2  0  0  0  0
 13 12  1  0  0  0  0
 14 15  2  0  0  0  0
 14 12  1  0  0  0  0
 15 16  1  0  0  0  0
 16  9  2  0  0  0  0
 17 18  1  0  0  0  0
 19 17  1  0  0  0  0
 20 17  1  0  0  0  0
M  END
>  <minimizedAffinity>
-5.32245207

>  <minimizedRMSD>
1.03617501

$$$$
