
 OpenBabel03262522453D

 36 39  0  0  1  0  0  0  0  0999 V2000
   35.3230   30.4500   46.0720 C   0  0  1  0  0  0  0  0  0  0  0  0
   34.0390   30.1500   46.6570 C   0  0  0  0  0  0  0  0  0  0  0  0
   35.1820   29.2220   47.0200 C   0  0  2  0  0  0  0  0  0  0  0  0
   36.1610   31.0370   46.5380 H   0  0  0  0  0  0  0  0  0  0  0  0
   33.2200   29.7570   46.0630 H   0  0  0  0  0  0  0  0  0  0  0  0
   33.6810   30.7780   47.5080 H   0  0  0  0  0  0  0  0  0  0  0  0
   34.8350   28.2420   46.7090 H   0  0  0  0  0  0  0  0  0  0  0  0
   33.3760   28.4220   49.4040 Cl  0  0  0  0  0  0  0  0  0  0  0  0
   34.9990   29.0360   49.5890 C   0  0  0  0  0  0  0  0  0  0  0  0
   35.6160   29.3850   48.4100 C   0  0  0  0  0  0  0  0  0  0  0  0
   36.8920   29.9040   48.5280 C   0  0  0  0  0  0  0  0  0  0  0  0
   37.5090   30.0620   49.7650 C   0  0  0  0  0  0  0  0  0  0  0  0
   36.8310   29.6900   50.9430 C   0  0  0  0  0  0  0  0  0  0  0  0
   37.4860   29.8720   52.5570 Cl  0  0  0  0  0  0  0  0  0  0  0  0
   35.5420   29.1630   50.8260 C   0  0  0  0  0  0  0  0  0  0  0  0
   37.6450   30.2600   47.8700 H   0  0  0  0  0  0  0  0  0  0  0  0
   38.4810   30.4440   50.0270 H   0  0  0  0  0  0  0  0  0  0  0  0
   34.9500   28.8500   51.6730 H   0  0  0  0  0  0  0  0  0  0  0  0
   34.5860   29.5410   43.7650 C   0  0  0  0  0  0  0  0  0  0  0  0
   35.5750   30.1240   44.6330 C   0  0  0  0  0  0  0  0  0  0  0  0
   36.7850   30.4480   44.1180 C   0  0  0  0  0  0  0  0  0  0  0  0
   36.9970   30.1900   42.7710 N   0  0  0  0  0  0  0  0  0  0  0  0
   36.0530   29.6450   41.9890 C   0  0  0  0  0  0  0  0  0  0  0  0
   34.8560   29.3250   42.4850 N   0  0  0  0  0  0  0  0  0  0  0  0
   36.2840   29.4110   40.5990 N   0  0  0  0  0  0  0  0  0  0  0  0
   33.6550   29.3140   44.2390 H   0  0  0  0  0  0  0  0  0  0  0  0
   35.8630   30.2060   40.0460 H   0  0  0  0  0  0  0  0  0  0  0  0
   36.7740   28.6240   40.0810 H   0  0  0  0  0  0  0  0  0  0  0  0
   37.9890   31.0370   44.6360 C   0  0  0  0  0  0  0  0  0  0  0  0
   38.9770   30.4800   45.4130 C   0  0  0  0  0  0  0  0  0  0  0  0
   38.8230   29.4410   45.7160 H   0  0  0  0  0  0  0  0  0  0  0  0
   40.1290   31.0750   45.8670 C   0  0  0  0  0  0  0  0  0  0  0  0
   40.8250   30.5260   46.4710 H   0  0  0  0  0  0  0  0  0  0  0  0
   40.3080   32.3860   45.4960 C   0  0  0  0  0  0  0  0  0  0  0  0
   39.3480   32.9940   44.7170 C   0  0  0  0  0  0  0  0  0  0  0  0
   38.2530   32.3220   44.3240 N   0  0  0  0  0  0  0  0  0  0  0  0
  1  4  1  1  0  0  0
  1  2  1  0  0  0  0
  1  3  1  0  0  0  0
  2  3  1  0  0  0  0
  2  6  1  0  0  0  0
  3  7  1  6  0  0  0
  3 10  1  0  0  0  0
  5  2  1  0  0  0  0
  8  9  1  0  0  0  0
  9 15  1  0  0  0  0
 10 11  1  0  0  0  0
 10  9  2  0  0  0  0
 11 12  2  0  0  0  0
 12 17  1  0  0  0  0
 12 13  1  0  0  0  0
 13 14  1  0  0  0  0
 15 13  2  0  0  0  0
 15 18  1  0  0  0  0
 16 11  1  0  0  0  0
 19 26  1  0  0  0  0
 19 20  1  0  0  0  0
 20  1  1  0  0  0  0
 21 20  2  0  0  0  0
 21 29  1  0  0  0  0
 22 21  1  0  0  0  0
 23 24  1  0  0  0  0
 23 22  2  0  0  0  0
 24 19  2  0  0  0  0
 25 23  1  0  0  0  0
 27 25  1  0  0  0  0
 28 25  1  0  0  0  0
 29 30  1  0  0  0  0
 30 31  1  0  0  0  0
 30 32  2  0  0  0  0
 32 33  1  0  0  0  0
 34 32  1  0  0  0  0
 35 34  2  0  0  0  0
 36 29  2  0  0  0  0
 36 35  1  0  0  0  0
M  END
>  <minimizedAffinity>
-5.89840746

>  <minimizedRMSD>
3.01764536

$$$$
