
 OpenBabel03272507123D

 39 43  0  0  0  0  0  0  0  0999 V2000
   35.6760   29.0900   49.8700 C   0  0  0  0  0  0  0  0  0  0  0  0
   34.6240   29.6140   50.5730 C   0  0  0  0  0  0  0  0  0  0  0  0
   33.4610   29.0390   50.0580 C   0  0  0  0  0  0  0  0  0  0  0  0
   33.8830   28.1800   49.0490 C   0  0  0  0  0  0  0  0  0  0  0  0
   35.1920   28.2630   48.9970 O   0  0  0  0  0  0  0  0  0  0  0  0
   34.6420   30.3430   51.3860 H   0  0  0  0  0  0  0  0  0  0  0  0
   32.4770   29.2790   50.4350 H   0  0  0  0  0  0  0  0  0  0  0  0
   33.3920   26.4080   47.3670 C   0  0  0  0  0  0  0  0  0  0  0  0
   32.9680   27.3710   48.2440 C   0  0  0  0  0  0  0  0  0  0  0  0
   31.6160   27.6460   48.4230 C   0  0  0  0  0  0  0  0  0  0  0  0
   30.7000   26.9210   47.6890 C   0  0  0  0  0  0  0  0  0  0  0  0
   29.3660   26.9660   47.6500 N   0  0  0  0  0  0  0  0  0  0  0  0
   28.9580   26.0540   46.7710 N   0  0  0  0  0  0  0  0  0  0  0  0
   30.0410   25.4300   46.2500 C   0  0  0  0  0  0  0  0  0  0  0  0
   31.1780   25.9550   46.8120 C   0  0  0  0  0  0  0  0  0  0  0  0
   32.5110   25.6700   46.6240 C   0  0  0  0  0  0  0  0  0  0  0  0
   34.4660   26.2640   47.2950 H   0  0  0  0  0  0  0  0  0  0  0  0
   31.2080   28.4010   49.1050 H   0  0  0  0  0  0  0  0  0  0  0  0
   28.7110   27.5800   48.1870 H   0  0  0  0  0  0  0  0  0  0  0  0
   29.9660   24.6360   45.5020 H   0  0  0  0  0  0  0  0  0  0  0  0
   32.8420   24.9080   45.9290 H   0  0  0  0  0  0  0  0  0  0  0  0
   37.0470   29.4820   50.1570 C   0  0  0  0  0  0  0  0  0  0  0  0
   37.7030   28.8330   50.9880 O   0  0  0  0  0  0  0  0  0  0  0  0
   37.5660   30.6210   49.4390 C   0  0  0  0  0  0  0  0  0  0  0  0
   37.4570   31.8710   50.0550 C   0  0  0  0  0  0  0  0  0  0  0  0
   37.9430   33.0060   49.4030 C   0  0  0  0  0  0  0  0  0  0  0  0
   38.5070   32.8120   48.1700 N   0  0  0  0  0  0  0  0  0  0  0  0
   38.6060   31.6160   47.5930 C   0  0  0  0  0  0  0  0  0  0  0  0
   38.1320   30.5240   48.2330 N   0  0  0  0  0  0  0  0  0  0  0  0
   37.0040   31.9600   51.0230 H   0  0  0  0  0  0  0  0  0  0  0  0
   37.8530   33.9630   49.8890 H   0  0  0  0  0  0  0  0  0  0  0  0
   39.2240   31.5000   46.2730 C   0  0  0  0  0  0  0  0  0  0  0  0
   40.0720   32.4240   45.7570 C   0  0  0  0  0  0  0  0  0  0  0  0
   40.3190   33.2950   46.3230 H   0  0  0  0  0  0  0  0  0  0  0  0
   40.6370   32.2660   44.4890 C   0  0  0  0  0  0  0  0  0  0  0  0
   41.3170   33.0100   44.0790 H   0  0  0  0  0  0  0  0  0  0  0  0
   40.2900   31.1250   43.7920 C   0  0  0  0  0  0  0  0  0  0  0  0
   39.4320   30.1980   44.3270 C   0  0  0  0  0  0  0  0  0  0  0  0
   38.9020   30.3850   45.5610 N   0  0  0  0  0  0  0  0  0  0  0  0
  1 22  1  0  0  0  0
  1  2  2  0  0  0  0
  2  6  1  0  0  0  0
  3  7  1  0  0  0  0
  3  2  1  0  0  0  0
  4  3  2  0  0  0  0
  5  4  1  0  0  0  0
  5  1  1  0  0  0  0
  8  9  1  0  0  0  0
  9 10  2  0  0  0  0
  9  4  1  0  0  0  0
 10 18  1  0  0  0  0
 11 10  1  0  0  0  0
 12 11  1  0  0  0  0
 12 19  1  0  0  0  0
 13 12  1  0  0  0  0
 14 13  2  0  0  0  0
 14 15  1  0  0  0  0
 15 11  2  0  0  0  0
 16 15  1  0  0  0  0
 16  8  2  0  0  0  0
 17  8  1  0  0  0  0
 20 14  1  0  0  0  0
 21 16  1  0  0  0  0
 22 23  2  0  0  0  0
 24 25  1  0  0  0  0
 24 22  1  0  0  0  0
 25 30  1  0  0  0  0
 26 31  1  0  0  0  0
 26 25  2  0  0  0  0
 27 26  1  0  0  0  0
 28 27  2  0  0  0  0
 28 29  1  0  0  0  0
 29 24  2  0  0  0  0
 32 28  1  0  0  0  0
 33 32  1  0  0  0  0
 33 34  1  0  0  0  0
 35 33  2  0  0  0  0
 36 35  1  0  0  0  0
 37 38  2  0  0  0  0
 37 35  1  0  0  0  0
 38 39  1  0  0  0  0
 39 32  2  0  0  0  0
M  END
>  <minimizedAffinity>
-7.23720741

>  <minimizedRMSD>
0.650172234

$$$$
