
 OpenBabel03262522463D

 36 39  0  0  1  0  0  0  0  0999 V2000
   35.2300   28.9320   32.5440 C   0  0  1  0  0  0  0  0  0  0  0  0
   35.9400   28.7670   33.7880 C   0  0  0  0  0  0  0  0  0  0  0  0
   35.3820   30.1480   33.5040 C   0  0  2  0  0  0  0  0  0  0  0  0
   34.1190   28.8710   32.3820 H   0  0  0  0  0  0  0  0  0  0  0  0
   37.0180   28.6390   33.8160 H   0  0  0  0  0  0  0  0  0  0  0  0
   35.4300   28.2390   34.6280 H   0  0  0  0  0  0  0  0  0  0  0  0
   36.2510   30.7970   33.5410 H   0  0  0  0  0  0  0  0  0  0  0  0
   35.7520   31.5350   36.2480 Cl  0  0  0  0  0  0  0  0  0  0  0  0
   34.1930   31.1430   35.5690 C   0  0  0  0  0  0  0  0  0  0  0  0
   34.2440   30.4790   34.3650 C   0  0  0  0  0  0  0  0  0  0  0  0
   33.0230   30.1280   33.8170 C   0  0  0  0  0  0  0  0  0  0  0  0
   31.8210   30.4280   34.4500 C   0  0  0  0  0  0  0  0  0  0  0  0
   31.8250   31.1080   35.6840 C   0  0  0  0  0  0  0  0  0  0  0  0
   30.3830   31.5110   36.5930 Cl  0  0  0  0  0  0  0  0  0  0  0  0
   33.0580   31.4660   36.2380 C   0  0  0  0  0  0  0  0  0  0  0  0
   32.6830   29.6380   32.9390 H   0  0  0  0  0  0  0  0  0  0  0  0
   30.8030   30.2300   34.1640 H   0  0  0  0  0  0  0  0  0  0  0  0
   33.1560   31.9900   37.1770 H   0  0  0  0  0  0  0  0  0  0  0  0
   36.2810   30.2720   30.5960 C   0  0  0  0  0  0  0  0  0  0  0  0
   35.9960   29.0270   31.2600 C   0  0  0  0  0  0  0  0  0  0  0  0
   36.4850   27.8790   30.7330 C   0  0  0  0  0  0  0  0  0  0  0  0
   37.2360   27.9790   29.5700 N   0  0  0  0  0  0  0  0  0  0  0  0
   37.4830   29.1560   28.9770 C   0  0  0  0  0  0  0  0  0  0  0  0
   37.0090   30.2930   29.4890 N   0  0  0  0  0  0  0  0  0  0  0  0
   38.2800   29.2380   27.7940 N   0  0  0  0  0  0  0  0  0  0  0  0
   35.8640   31.1360   31.0700 H   0  0  0  0  0  0  0  0  0  0  0  0
   39.2650   29.5050   28.0650 H   0  0  0  0  0  0  0  0  0  0  0  0
   38.0510   29.0840   26.7680 H   0  0  0  0  0  0  0  0  0  0  0  0
   36.4330   26.4890   31.0920 C   0  0  0  0  0  0  0  0  0  0  0  0
   35.4120   25.5800   30.9430 C   0  0  0  0  0  0  0  0  0  0  0  0
   34.4830   25.9650   30.5160 H   0  0  0  0  0  0  0  0  0  0  0  0
   35.4140   24.2470   31.2790 C   0  0  0  0  0  0  0  0  0  0  0  0
   34.5460   23.6410   31.1090 H   0  0  0  0  0  0  0  0  0  0  0  0
   36.5810   23.7750   31.8300 C   0  0  0  0  0  3  0  0  0  0  0  0
   37.6350   24.6430   32.0030 C   0  0  0  0  0  3  0  0  0  0  0  0
   37.5330   25.9330   31.6400 N   0  0  0  0  0  0  0  0  0  0  0  0
  1  4  1  6  0  0  0
  1  3  1  0  0  0  0
  1  2  1  0  0  0  0
  2  5  1  0  0  0  0
  2  6  1  0  0  0  0
  3  7  1  6  0  0  0
  3  2  1  0  0  0  0
  3 10  1  0  0  0  0
  9 15  1  0  0  0  0
  9  8  1  0  0  0  0
 10  9  2  0  0  0  0
 11 10  1  0  0  0  0
 11 12  2  0  0  0  0
 12 13  1  0  0  0  0
 13 15  2  0  0  0  0
 13 14  1  0  0  0  0
 15 18  1  0  0  0  0
 16 11  1  0  0  0  0
 17 12  1  0  0  0  0
 19 26  1  0  0  0  0
 19 20  1  0  0  0  0
 20  1  1  0  0  0  0
 21 29  1  0  0  0  0
 21 20  2  0  0  0  0
 22 21  1  0  0  0  0
 23 24  1  0  0  0  0
 23 22  2  0  0  0  0
 24 19  2  0  0  0  0
 25 27  1  0  0  0  0
 25 23  1  0  0  0  0
 28 25  1  0  0  0  0
 29 36  1  0  0  0  0
 30 29  2  0  0  0  0
 30 32  1  0  0  0  0
 31 30  1  0  0  0  0
 32 34  2  0  0  0  0
 33 32  1  0  0  0  0
 34 35  1  0  0  0  0
 36 35  2  0  0  0  0
M  END
>  <minimizedAffinity>
-5.90314054

$$$$

 OpenBabel03262522463D

 36 39  0  0  1  0  0  0  0  0999 V2000
   36.7160   26.6000   32.5620 C   0  0  1  0  0  0  0  0  0  0  0  0
   37.0600   25.2600   32.1560 C   0  0  0  0  0  0  0  0  0  0  0  0
   38.0670   25.9840   33.0280 C   0  0  2  0  0  0  0  0  0  0  0  0
   36.2320   26.9150   33.5270 H   0  0  0  0  0  0  0  0  0  0  0  0
   37.3330   25.0270   31.1320 H   0  0  0  0  0  0  0  0  0  0  0  0
   36.5570   24.4020   32.6650 H   0  0  0  0  0  0  0  0  0  0  0  0
   38.9780   25.9810   32.4370 H   0  0  0  0  0  0  0  0  0  0  0  0
   38.0840   27.8030   35.5350 Cl  0  0  0  0  0  0  0  0  0  0  0  0
   38.0830   26.0590   35.6100 C   0  0  0  0  0  0  0  0  0  0  0  0
   38.1300   25.4340   34.3850 C   0  0  0  0  0  0  0  0  0  0  0  0
   38.1620   24.0520   34.4140 C   0  0  0  0  0  0  0  0  0  0  0  0
   38.1480   23.3420   35.6100 C   0  0  0  0  0  0  0  0  0  0  0  0
   38.1010   24.0320   36.8380 C   0  0  0  0  0  0  0  0  0  0  0  0
   38.1140   23.2550   38.4080 Cl  0  0  0  0  0  0  0  0  0  0  0  0
   38.0670   25.4290   36.8110 C   0  0  0  0  0  0  0  0  0  0  0  0
   38.1920   23.2640   33.7020 H   0  0  0  0  0  0  0  0  0  0  0  0
   38.1680   22.2840   35.8050 H   0  0  0  0  0  0  0  0  0  0  0  0
   38.0280   26.0390   37.7020 H   0  0  0  0  0  0  0  0  0  0  0  0
   37.5850   27.6390   30.3580 C   0  0  0  0  0  0  0  0  0  0  0  0
   36.8280   27.7240   31.5790 C   0  0  0  0  0  0  0  0  0  0  0  0
   36.1320   28.8570   31.8370 C   0  0  0  0  0  0  0  0  0  0  0  0
   36.1990   29.8770   30.8990 N   0  0  0  0  0  0  0  0  0  0  0  0
   36.9150   29.7650   29.7700 C   0  0  0  0  0  0  0  0  0  0  0  0
   37.6010   28.6520   29.5040 N   0  0  0  0  0  0  0  0  0  0  0  0
   36.9500   30.8180   28.8050 N   0  0  0  0  0  0  0  0  0  0  0  0
   38.1060   26.7150   30.2190 H   0  0  0  0  0  0  0  0  0  0  0  0
   36.2600   30.5980   28.0370 H   0  0  0  0  0  0  0  0  0  0  0  0
   37.5180   31.7130   28.7480 H   0  0  0  0  0  0  0  0  0  0  0  0
   35.2780   29.3080   32.9000 C   0  0  0  0  0  0  0  0  0  0  0  0
   35.5960   29.9640   34.0660 C   0  0  0  0  0  0  0  0  0  0  0  0
   36.6580   30.1520   34.2390 H   0  0  0  0  0  0  0  0  0  0  0  0
   34.7390   30.4020   35.0480 C   0  0  0  0  0  0  0  0  0  0  0  0
   35.1170   30.9060   35.9160 H   0  0  0  0  0  0  0  0  0  0  0  0
   33.4060   30.1480   34.8310 C   0  0  0  0  0  3  0  0  0  0  0  0
   33.0320   29.4930   33.6790 C   0  0  0  0  0  3  0  0  0  0  0  0
   33.9500   29.1050   32.7780 N   0  0  0  0  0  0  0  0  0  0  0  0
  1  3  1  0  0  0  0
  1  4  1  1  0  0  0
  2  1  1  0  0  0  0
  2  6  1  0  0  0  0
  2  3  1  0  0  0  0
  3  7  1  6  0  0  0
  3 10  1  0  0  0  0
  5  2  1  0  0  0  0
  8  9  1  0  0  0  0
  9 15  1  0  0  0  0
 10 11  1  0  0  0  0
 10  9  2  0  0  0  0
 11 12  2  0  0  0  0
 12 17  1  0  0  0  0
 12 13  1  0  0  0  0
 13 14  1  0  0  0  0
 15 13  2  0  0  0  0
 15 18  1  0  0  0  0
 16 11  1  0  0  0  0
 19 20  1  0  0  0  0
 20 21  2  0  0  0  0
 20  1  1  0  0  0  0
 21 29  1  0  0  0  0
 22 21  1  0  0  0  0
 23 22  2  0  0  0  0
 24 23  1  0  0  0  0
 24 19  2  0  0  0  0
 25 23  1  0  0  0  0
 26 19  1  0  0  0  0
 27 25  1  0  0  0  0
 28 25  1  0  0  0  0
 29 30  1  0  0  0  0
 30 31  1  0  0  0  0
 30 32  2  0  0  0  0
 32 33  1  0  0  0  0
 34 32  1  0  0  0  0
 35 34  2  0  0  0  0
 36 29  2  0  0  0  0
 36 35  1  0  0  0  0
M  END
>  <minimizedAffinity>
-5.86583805

$$$$

 OpenBabel03262522463D

 36 39  0  0  1  0  0  0  0  0999 V2000
   38.5320   24.9570   33.7880 C   0  0  1  0  0  0  0  0  0  0  0  0
   38.5890   25.7950   34.9600 C   0  0  0  0  0  0  0  0  0  0  0  0
   38.1480   24.3610   35.1740 C   0  0  2  0  0  0  0  0  0  0  0  0
   39.3260   24.2510   33.4180 H   0  0  0  0  0  0  0  0  0  0  0  0
   37.8700   26.5900   35.1270 H   0  0  0  0  0  0  0  0  0  0  0  0
   39.5880   26.0300   35.4000 H   0  0  0  0  0  0  0  0  0  0  0  0
   37.1680   24.4520   35.6330 H   0  0  0  0  0  0  0  0  0  0  0  0
   38.2330   24.1660   38.2640 Cl  0  0  0  0  0  0  0  0  0  0  0  0
   39.3240   23.2990   37.2130 C   0  0  0  0  0  0  0  0  0  0  0  0
   39.1590   23.5630   35.8730 C   0  0  0  0  0  0  0  0  0  0  0  0
   40.0310   22.9130   35.0190 C   0  0  0  0  0  0  0  0  0  0  0  0
   41.0130   22.0490   35.4900 C   0  0  0  0  0  0  0  0  0  0  0  0
   41.1410   21.8150   36.8740 C   0  0  0  0  0  0  0  0  0  0  0  0
   42.3570   20.7780   37.5910 Cl  0  0  0  0  0  0  0  0  0  0  0  0
   40.2600   22.4690   37.7400 C   0  0  0  0  0  0  0  0  0  0  0  0
   40.1930   22.8660   33.9700 H   0  0  0  0  0  0  0  0  0  0  0  0
   41.7590   21.4740   34.9690 H   0  0  0  0  0  0  0  0  0  0  0  0
   40.2830   22.3470   38.8120 H   0  0  0  0  0  0  0  0  0  0  0  0
   36.7110   26.3560   32.5970 C   0  0  0  0  0  0  0  0  0  0  0  0
   37.4000   25.1120   32.8200 C   0  0  0  0  0  0  0  0  0  0  0  0
   37.0510   24.0310   32.0820 C   0  0  0  0  0  0  0  0  0  0  0  0
   36.0350   24.1940   31.1510 N   0  0  0  0  0  0  0  0  0  0  0  0
   35.4120   25.3680   30.9690 C   0  0  0  0  0  0  0  0  0  0  0  0
   35.7510   26.4400   31.6870 N   0  0  0  0  0  0  0  0  0  0  0  0
   34.3860   25.5190   29.9860 N   0  0  0  0  0  0  0  0  0  0  0  0
   37.0410   27.1660   33.2130 H   0  0  0  0  0  0  0  0  0  0  0  0
   34.8070   25.9460   29.1170 H   0  0  0  0  0  0  0  0  0  0  0  0
   33.3500   25.2870   29.9980 H   0  0  0  0  0  0  0  0  0  0  0  0
   37.4930   22.6670   32.0020 C   0  0  0  0  0  0  0  0  0  0  0  0
   38.7190   22.1580   31.6430 C   0  0  0  0  0  0  0  0  0  0  0  0
   39.4740   22.8880   31.3430 H   0  0  0  0  0  0  0  0  0  0  0  0
   39.1060   20.8400   31.6040 C   0  0  0  0  0  0  0  0  0  0  0  0
   40.1010   20.5730   31.3050 H   0  0  0  0  0  0  0  0  0  0  0  0
   38.1460   19.9270   31.9680 C   0  0  0  0  0  3  0  0  0  0  0  0
   36.9000   20.3820   32.3350 C   0  0  0  0  0  3  0  0  0  0  0  0
   36.6190   21.6960   32.3410 N   0  0  0  0  0  0  0  0  0  0  0  0
  1  4  1  6  0  0  0
  1  2  1  0  0  0  0
  1  3  1  0  0  0  0
  2  5  1  0  0  0  0
  2  3  1  0  0  0  0
  2  6  1  0  0  0  0
  3  7  1  1  0  0  0
  3 10  1  0  0  0  0
  9 15  1  0  0  0  0
  9  8  1  0  0  0  0
 10  9  2  0  0  0  0
 11 12  2  0  0  0  0
 11 10  1  0  0  0  0
 12 13  1  0  0  0  0
 13 14  1  0  0  0  0
 13 15  2  0  0  0  0
 15 18  1  0  0  0  0
 16 11  1  0  0  0  0
 17 12  1  0  0  0  0
 19 20  1  0  0  0  0
 19 26  1  0  0  0  0
 20  1  1  0  0  0  0
 21 20  2  0  0  0  0
 22 21  1  0  0  0  0
 23 22  2  0  0  0  0
 23 24  1  0  0  0  0
 24 19  2  0  0  0  0
 25 28  1  0  0  0  0
 25 23  1  0  0  0  0
 27 25  1  0  0  0  0
 29 21  1  0  0  0  0
 29 36  1  0  0  0  0
 30 29  2  0  0  0  0
 31 30  1  0  0  0  0
 32 30  1  0  0  0  0
 32 34  2  0  0  0  0
 33 32  1  0  0  0  0
 34 35  1  0  0  0  0
 35 36  2  0  0  0  0
M  END
>  <minimizedAffinity>
-5.84558773

$$$$

 OpenBabel03262522463D

 36 39  0  0  1  0  0  0  0  0999 V2000
   37.7890   25.3190   33.8280 C   0  0  1  0  0  0  0  0  0  0  0  0
   38.9280   26.1950   33.9480 C   0  0  0  0  0  0  0  0  0  0  0  0
   38.0320   26.4110   32.7440 C   0  0  2  0  0  0  0  0  0  0  0  0
   36.7360   25.5240   34.1640 H   0  0  0  0  0  0  0  0  0  0  0  0
   39.9400   25.8390   33.7850 H   0  0  0  0  0  0  0  0  0  0  0  0
   38.8870   27.0240   34.6950 H   0  0  0  0  0  0  0  0  0  0  0  0
   38.6990   26.2960   31.8950 H   0  0  0  0  0  0  0  0  0  0  0  0
   37.5090   28.2130   30.2810 Cl  0  0  0  0  0  0  0  0  0  0  0  0
   36.8600   28.5380   31.8680 C   0  0  0  0  0  0  0  0  0  0  0  0
   37.2530   27.6480   32.8400 C   0  0  0  0  0  0  0  0  0  0  0  0
   36.7790   27.8980   34.1150 C   0  0  0  0  0  0  0  0  0  0  0  0
   35.9570   28.9850   34.3920 C   0  0  0  0  0  0  0  0  0  0  0  0
   35.5850   29.8690   33.3590 C   0  0  0  0  0  0  0  0  0  0  0  0
   34.5860   31.2890   33.5870 Cl  0  0  0  0  0  0  0  0  0  0  0  0
   36.0610   29.6170   32.0690 C   0  0  0  0  0  0  0  0  0  0  0  0
   36.8610   27.4460   35.0720 H   0  0  0  0  0  0  0  0  0  0  0  0
   35.5090   29.3180   35.3130 H   0  0  0  0  0  0  0  0  0  0  0  0
   35.8260   30.2380   31.2180 H   0  0  0  0  0  0  0  0  0  0  0  0
   37.8250   23.4840   32.0050 C   0  0  0  0  0  0  0  0  0  0  0  0
   37.9850   23.9060   33.3720 C   0  0  0  0  0  0  0  0  0  0  0  0
   38.3860   22.9980   34.2930 C   0  0  0  0  0  0  0  0  0  0  0  0
   38.6140   21.7010   33.8550 N   0  0  0  0  0  0  0  0  0  0  0  0
   38.4550   21.3400   32.5730 C   0  0  0  0  0  0  0  0  0  0  0  0
   38.0640   22.2280   31.6570 N   0  0  0  0  0  0  0  0  0  0  0  0
   38.7200   20.0050   32.1390 N   0  0  0  0  0  0  0  0  0  0  0  0
   37.5090   24.2540   31.3340 H   0  0  0  0  0  0  0  0  0  0  0  0
   39.6880   19.9700   31.7190 H   0  0  0  0  0  0  0  0  0  0  0  0
   38.1390   19.1170   32.1720 H   0  0  0  0  0  0  0  0  0  0  0  0
   38.6620   23.0300   35.7020 C   0  0  0  0  0  0  0  0  0  0  0  0
   39.8330   22.7740   36.3760 C   0  0  0  0  0  0  0  0  0  0  0  0
   40.6850   22.4690   35.7620 H   0  0  0  0  0  0  0  0  0  0  0  0
   40.0590   22.8410   37.7300 C   0  0  0  0  0  0  0  0  0  0  0  0
   41.0270   22.6150   38.1320 H   0  0  0  0  0  0  0  0  0  0  0  0
   38.9790   23.2080   38.4960 C   0  0  0  0  0  3  0  0  0  0  0  0
   37.7810   23.4760   37.8720 C   0  0  0  0  0  3  0  0  0  0  0  0
   37.6630   23.3820   36.5370 N   0  0  0  0  0  0  0  0  0  0  0  0
  1  2  1  0  0  0  0
  1  4  1  1  0  0  0
  2  6  1  0  0  0  0
  3  7  1  6  0  0  0
  3 10  1  0  0  0  0
  3  1  1  0  0  0  0
  3  2  1  0  0  0  0
  5  2  1  0  0  0  0
  8  9  1  0  0  0  0
  9 15  2  0  0  0  0
  9 10  1  0  0  0  0
 10 11  2  0  0  0  0
 11 12  1  0  0  0  0
 11 16  1  0  0  0  0
 12 17  1  0  0  0  0
 13 14  1  0  0  0  0
 13 12  2  0  0  0  0
 15 13  1  0  0  0  0
 18 15  1  0  0  0  0
 19 20  1  0  0  0  0
 20  1  1  0  0  0  0
 20 21  2  0  0  0  0
 21 29  1  0  0  0  0
 22 21  1  0  0  0  0
 23 22  2  0  0  0  0
 24 19  2  0  0  0  0
 24 23  1  0  0  0  0
 25 28  1  0  0  0  0
 25 23  1  0  0  0  0
 26 19  1  0  0  0  0
 27 25  1  0  0  0  0
 29 30  2  0  0  0  0
 29 36  1  0  0  0  0
 30 32  1  0  0  0  0
 31 30  1  0  0  0  0
 32 33  1  0  0  0  0
 32 34  2  0  0  0  0
 35 34  1  0  0  0  0
 36 35  2  0  0  0  0
M  END
>  <minimizedAffinity>
-5.77717543

$$$$

 OpenBabel03262522463D

 36 39  0  0  1  0  0  0  0  0999 V2000
   38.2160   26.9980   34.8360 C   0  0  1  0  0  0  0  0  0  0  0  0
   38.3060   26.9930   36.2750 C   0  0  0  0  0  0  0  0  0  0  0  0
   37.8370   25.7080   35.6210 C   0  0  2  0  0  0  0  0  0  0  0  0
   38.9900   26.6340   34.1060 H   0  0  0  0  0  0  0  0  0  0  0  0
   37.6050   27.5470   36.8920 H   0  0  0  0  0  0  0  0  0  0  0  0
   39.3150   26.9170   36.7480 H   0  0  0  0  0  0  0  0  0  0  0  0
   36.8650   25.5240   36.0680 H   0  0  0  0  0  0  0  0  0  0  0  0
   38.2130   23.9980   38.1750 Cl  0  0  0  0  0  0  0  0  0  0  0  0
   39.1140   23.7410   36.7030 C   0  0  0  0  0  0  0  0  0  0  0  0
   38.8390   24.6420   35.7000 C   0  0  0  0  0  0  0  0  0  0  0  0
   39.5610   24.4820   34.5310 C   0  0  0  0  0  0  0  0  0  0  0  0
   40.5060   23.4730   34.3840 C   0  0  0  0  0  0  0  0  0  0  0  0
   40.7510   22.5770   35.4440 C   0  0  0  0  0  0  0  0  0  0  0  0
   41.9380   21.2900   35.3940 Cl  0  0  0  0  0  0  0  0  0  0  0  0
   40.0220   22.7350   36.6260 C   0  0  0  0  0  0  0  0  0  0  0  0
   39.6130   24.9600   33.5840 H   0  0  0  0  0  0  0  0  0  0  0  0
   41.1430   23.2150   33.5560 H   0  0  0  0  0  0  0  0  0  0  0  0
   40.1420   22.0950   37.4870 H   0  0  0  0  0  0  0  0  0  0  0  0
   36.4020   28.8400   34.7340 C   0  0  0  0  0  0  0  0  0  0  0  0
   37.0760   27.7010   34.1670 C   0  0  0  0  0  0  0  0  0  0  0  0
   36.7030   27.2670   32.9390 C   0  0  0  0  0  0  0  0  0  0  0  0
   35.6790   27.9530   32.3020 N   0  0  0  0  0  0  0  0  0  0  0  0
   35.0720   29.0110   32.8590 C   0  0  0  0  0  0  0  0  0  0  0  0
   35.4340   29.4500   34.0660 N   0  0  0  0  0  0  0  0  0  0  0  0
   34.0370   29.7190   32.1740 N   0  0  0  0  0  0  0  0  0  0  0  0
   36.7510   29.1280   35.7030 H   0  0  0  0  0  0  0  0  0  0  0  0
   34.4550   30.5750   31.7180 H   0  0  0  0  0  0  0  0  0  0  0  0
   32.9980   29.5310   32.0640 H   0  0  0  0  0  0  0  0  0  0  0  0
   37.1240   26.2110   32.0610 C   0  0  0  0  0  0  0  0  0  0  0  0
   38.2720   26.0930   31.3130 C   0  0  0  0  0  0  0  0  0  0  0  0
   38.9660   26.9360   31.3610 H   0  0  0  0  0  0  0  0  0  0  0  0
   38.6460   25.0490   30.5020 C   0  0  0  0  0  0  0  0  0  0  0  0
   39.5760   25.0800   29.9680 H   0  0  0  0  0  0  0  0  0  0  0  0
   37.7600   24.0010   30.4350 C   0  0  0  0  0  3  0  0  0  0  0  0
   36.5940   24.0670   31.1630 C   0  0  0  0  0  3  0  0  0  0  0  0
   36.3190   25.1360   31.9290 N   0  0  0  0  0  0  0  0  0  0  0  0
  1  4  1  6  0  0  0
  1  3  1  0  0  0  0
  1  2  1  0  0  0  0
  2  6  1  0  0  0  0
  2  5  1  0  0  0  0
  3 10  1  0  0  0  0
  3  7  1  1  0  0  0
  3  2  1  0  0  0  0
  9  8  1  0  0  0  0
 10  9  2  0  0  0  0
 11 10  1  0  0  0  0
 12 11  2  0  0  0  0
 12 13  1  0  0  0  0
 13 15  2  0  0  0  0
 14 13  1  0  0  0  0
 15  9  1  0  0  0  0
 15 18  1  0  0  0  0
 16 11  1  0  0  0  0
 17 12  1  0  0  0  0
 19 26  1  0  0  0  0
 20 19  1  0  0  0  0
 20  1  1  0  0  0  0
 21 20  2  0  0  0  0
 22 23  2  0  0  0  0
 22 21  1  0  0  0  0
 23 24  1  0  0  0  0
 24 19  2  0  0  0  0
 25 23  1  0  0  0  0
 27 25  1  0  0  0  0
 28 25  1  0  0  0  0
 29 21  1  0  0  0  0
 30 31  1  0  0  0  0
 30 29  2  0  0  0  0
 32 30  1  0  0  0  0
 33 32  1  0  0  0  0
 34 32  2  0  0  0  0
 34 35  1  0  0  0  0
 35 36  2  0  0  0  0
 36 29  1  0  0  0  0
M  END
>  <minimizedAffinity>
-5.73654604

$$$$

 OpenBabel03262522463D

 36 39  0  0  1  0  0  0  0  0999 V2000
   34.7990   29.3850   34.1690 C   0  0  1  0  0  0  0  0  0  0  0  0
   34.9340   29.7190   32.7730 C   0  0  0  0  0  0  0  0  0  0  0  0
   36.1850   29.2290   33.4770 C   0  0  2  0  0  0  0  0  0  0  0  0
   34.6180   28.3660   34.6100 H   0  0  0  0  0  0  0  0  0  0  0  0
   34.9010   30.7470   32.4280 H   0  0  0  0  0  0  0  0  0  0  0  0
   34.5360   29.0050   32.0130 H   0  0  0  0  0  0  0  0  0  0  0  0
   36.8970   30.0370   33.3400 H   0  0  0  0  0  0  0  0  0  0  0  0
   37.8190   27.3360   35.3030 Cl  0  0  0  0  0  0  0  0  0  0  0  0
   37.2400   26.8850   33.7190 C   0  0  0  0  0  0  0  0  0  0  0  0
   36.5810   27.8870   33.0450 C   0  0  0  0  0  0  0  0  0  0  0  0
   36.1380   27.5680   31.7740 C   0  0  0  0  0  0  0  0  0  0  0  0
   36.3500   26.3120   31.2170 C   0  0  0  0  0  0  0  0  0  0  0  0
   37.0340   25.3220   31.9500 C   0  0  0  0  0  0  0  0  0  0  0  0
   37.3920   23.7170   31.3460 Cl  0  0  0  0  0  0  0  0  0  0  0  0
   37.4810   25.6410   33.2360 C   0  0  0  0  0  0  0  0  0  0  0  0
   35.6100   28.0580   30.9940 H   0  0  0  0  0  0  0  0  0  0  0  0
   36.0760   25.9080   30.2570 H   0  0  0  0  0  0  0  0  0  0  0  0
   38.0100   24.9450   33.8690 H   0  0  0  0  0  0  0  0  0  0  0  0
   35.7710   31.4170   35.4420 C   0  0  0  0  0  0  0  0  0  0  0  0
   34.7090   30.4790   35.1880 C   0  0  0  0  0  0  0  0  0  0  0  0
   33.5420   30.6160   35.8620 C   0  0  0  0  0  0  0  0  0  0  0  0
   33.4470   31.6610   36.7690 N   0  0  0  0  0  0  0  0  0  0  0  0
   34.4560   32.5190   36.9830 C   0  0  0  0  0  0  0  0  0  0  0  0
   35.6090   32.3950   36.3210 N   0  0  0  0  0  0  0  0  0  0  0  0
   34.3270   33.6040   37.9030 N   0  0  0  0  0  0  0  0  0  0  0  0
   36.6600   31.2490   34.8720 H   0  0  0  0  0  0  0  0  0  0  0  0
   34.0910   34.4800   37.3640 H   0  0  0  0  0  0  0  0  0  0  0  0
   34.4260   33.6580   38.9580 H   0  0  0  0  0  0  0  0  0  0  0  0
   32.2880   29.9160   35.8810 C   0  0  0  0  0  0  0  0  0  0  0  0
   31.3630   29.7410   34.8780 C   0  0  0  0  0  0  0  0  0  0  0  0
   31.5880   30.2260   33.9250 H   0  0  0  0  0  0  0  0  0  0  0  0
   30.1820   29.0390   34.9340 C   0  0  0  0  0  0  0  0  0  0  0  0
   29.5440   28.9770   34.0730 H   0  0  0  0  0  0  0  0  0  0  0  0
   29.8990   28.4460   36.1400 C   0  0  0  0  0  3  0  0  0  0  0  0
   30.7910   28.5900   37.1790 C   0  0  0  0  0  3  0  0  0  0  0  0
   31.9220   29.2990   37.0230 N   0  0  0  0  0  0  0  0  0  0  0  0
  1  4  1  1  0  0  0
  1 20  1  0  0  0  0
  2  3  1  0  0  0  0
  2  1  1  0  0  0  0
  3  7  1  1  0  0  0
  3  1  1  0  0  0  0
  5  2  1  0  0  0  0
  6  2  1  0  0  0  0
  9  8  1  0  0  0  0
 10  3  1  0  0  0  0
 10  9  2  0  0  0  0
 11 10  1  0  0  0  0
 12 11  2  0  0  0  0
 12 13  1  0  0  0  0
 13 15  2  0  0  0  0
 14 13  1  0  0  0  0
 15  9  1  0  0  0  0
 15 18  1  0  0  0  0
 16 11  1  0  0  0  0
 17 12  1  0  0  0  0
 19 24  1  0  0  0  0
 20 19  2  0  0  0  0
 20 21  1  0  0  0  0
 21 29  1  0  0  0  0
 21 22  2  0  0  0  0
 22 23  1  0  0  0  0
 23 25  1  0  0  0  0
 24 23  2  0  0  0  0
 25 28  1  0  0  0  0
 26 19  1  0  0  0  0
 27 25  1  0  0  0  0
 29 36  1  0  0  0  0
 30 32  1  0  0  0  0
 30 29  2  0  0  0  0
 31 30  1  0  0  0  0
 32 34  2  0  0  0  0
 33 32  1  0  0  0  0
 34 35  1  0  0  0  0
 36 35  2  0  0  0  0
M  END
>  <minimizedAffinity>
-5.70995665

$$$$

 OpenBabel03262522463D

 36 39  0  0  1  0  0  0  0  0999 V2000
   38.7740   26.5950   34.9140 C   0  0  1  0  0  0  0  0  0  0  0  0
   38.2110   26.6440   36.2410 C   0  0  0  0  0  0  0  0  0  0  0  0
   38.1500   25.3070   35.5280 C   0  0  2  0  0  0  0  0  0  0  0  0
   39.8100   26.2640   34.6270 H   0  0  0  0  0  0  0  0  0  0  0  0
   37.2820   27.1670   36.4460 H   0  0  0  0  0  0  0  0  0  0  0  0
   38.9050   26.6570   37.1150 H   0  0  0  0  0  0  0  0  0  0  0  0
   37.0910   25.0680   35.5070 H   0  0  0  0  0  0  0  0  0  0  0  0
   37.7750   24.2230   38.4040 Cl  0  0  0  0  0  0  0  0  0  0  0  0
   39.0320   23.6760   37.3240 C   0  0  0  0  0  0  0  0  0  0  0  0
   39.0630   24.3200   36.1090 C   0  0  0  0  0  0  0  0  0  0  0  0
   40.0690   23.9290   35.2440 C   0  0  0  0  0  0  0  0  0  0  0  0
   40.9900   22.9450   35.5860 C   0  0  0  0  0  0  0  0  0  0  0  0
   40.9150   22.3170   36.8460 C   0  0  0  0  0  0  0  0  0  0  0  0
   42.0340   21.0920   37.4060 Cl  0  0  0  0  0  0  0  0  0  0  0  0
   39.8980   22.7090   37.7210 C   0  0  0  0  0  0  0  0  0  0  0  0
   40.3870   24.1850   34.2640 H   0  0  0  0  0  0  0  0  0  0  0  0
   41.8190   22.5310   35.0390 H   0  0  0  0  0  0  0  0  0  0  0  0
   39.7640   22.2820   38.7030 H   0  0  0  0  0  0  0  0  0  0  0  0
   36.7870   27.9180   33.9170 C   0  0  0  0  0  0  0  0  0  0  0  0
   38.0200   27.1910   33.7660 C   0  0  0  0  0  0  0  0  0  0  0  0
   38.5630   27.0780   32.5300 C   0  0  0  0  0  0  0  0  0  0  0  0
   37.8850   27.6740   31.4770 N   0  0  0  0  0  0  0  0  0  0  0  0
   36.7370   28.3460   31.6530 C   0  0  0  0  0  0  0  0  0  0  0  0
   36.1950   28.4660   32.8660 N   0  0  0  0  0  0  0  0  0  0  0  0
   36.0690   28.9740   30.5570 N   0  0  0  0  0  0  0  0  0  0  0  0
   36.4190   27.9680   34.9210 H   0  0  0  0  0  0  0  0  0  0  0  0
   36.3210   29.9990   30.5480 H   0  0  0  0  0  0  0  0  0  0  0  0
   35.4120   28.5970   29.8130 H   0  0  0  0  0  0  0  0  0  0  0  0
   39.7440   26.4650   31.9880 C   0  0  0  0  0  0  0  0  0  0  0  0
   39.9980   25.1440   31.7040 C   0  0  0  0  0  0  0  0  0  0  0  0
   39.2020   24.4360   31.9490 H   0  0  0  0  0  0  0  0  0  0  0  0
   41.1380   24.6020   31.1590 C   0  0  0  0  0  0  0  0  0  0  0  0
   41.2100   23.5470   30.9850 H   0  0  0  0  0  0  0  0  0  0  0  0
   42.1400   25.4960   30.8680 C   0  0  0  0  0  3  0  0  0  0  0  0
   41.9390   26.8320   31.1340 C   0  0  0  0  0  3  0  0  0  0  0  0
   40.7840   27.2620   31.6690 N   0  0  0  0  0  0  0  0  0  0  0  0
  1  4  1  6  0  0  0
  1  3  1  0  0  0  0
  1  2  1  0  0  0  0
  2  5  1  0  0  0  0
  2  6  1  0  0  0  0
  3  7  1  6  0  0  0
  3 10  1  0  0  0  0
  3  2  1  0  0  0  0
  9 15  1  0  0  0  0
  9  8  1  0  0  0  0
 10  9  2  0  0  0  0
 11 12  2  0  0  0  0
 11 10  1  0  0  0  0
 12 13  1  0  0  0  0
 13 14  1  0  0  0  0
 13 15  2  0  0  0  0
 15 18  1  0  0  0  0
 16 11  1  0  0  0  0
 17 12  1  0  0  0  0
 19 26  1  0  0  0  0
 20 19  1  0  0  0  0
 20  1  1  0  0  0  0
 21 20  2  0  0  0  0
 22 23  2  0  0  0  0
 22 21  1  0  0  0  0
 23 24  1  0  0  0  0
 24 19  2  0  0  0  0
 25 23  1  0  0  0  0
 27 25  1  0  0  0  0
 28 25  1  0  0  0  0
 29 21  1  0  0  0  0
 30 31  1  0  0  0  0
 30 29  1  0  0  0  0
 32 30  2  0  0  0  0
 33 32  1  0  0  0  0
 34 35  2  0  0  0  0
 34 32  1  0  0  0  0
 35 36  1  0  0  0  0
 36 29  2  0  0  0  0
M  END
>  <minimizedAffinity>
-5.69576693

$$$$

 OpenBabel03262522463D

 36 39  0  0  1  0  0  0  0  0999 V2000
   36.6920   28.4360   31.6820 C   0  0  1  0  0  0  0  0  0  0  0  0
   36.2850   29.2700   30.5780 C   0  0  0  0  0  0  0  0  0  0  0  0
   35.4790   29.3970   31.8560 C   0  0  2  0  0  0  0  0  0  0  0  0
   37.3670   28.7200   32.5350 H   0  0  0  0  0  0  0  0  0  0  0  0
   35.8030   28.8560   29.6990 H   0  0  0  0  0  0  0  0  0  0  0  0
   36.8950   30.1740   30.3390 H   0  0  0  0  0  0  0  0  0  0  0  0
   34.4630   29.1650   31.5510 H   0  0  0  0  0  0  0  0  0  0  0  0
   34.7080   29.8240   34.8250 Cl  0  0  0  0  0  0  0  0  0  0  0  0
   35.5070   31.0330   33.8540 C   0  0  0  0  0  0  0  0  0  0  0  0
   35.7140   30.6690   32.5430 C   0  0  0  0  0  0  0  0  0  0  0  0
   36.3180   31.6200   31.7410 C   0  0  0  0  0  0  0  0  0  0  0  0
   36.6900   32.8670   32.2330 C   0  0  0  0  0  0  0  0  0  0  0  0
   36.4530   33.1900   33.5850 C   0  0  0  0  0  0  0  0  0  0  0  0
   36.8420   34.7350   34.3130 Cl  0  0  0  0  0  0  0  0  0  0  0  0
   35.8440   32.2300   34.3980 C   0  0  0  0  0  0  0  0  0  0  0  0
   36.6300   31.6920   30.7280 H   0  0  0  0  0  0  0  0  0  0  0  0
   37.1610   33.7060   31.7520 H   0  0  0  0  0  0  0  0  0  0  0  0
   35.6270   32.3900   35.4430 H   0  0  0  0  0  0  0  0  0  0  0  0
   35.3400   26.4010   30.8320 C   0  0  0  0  0  0  0  0  0  0  0  0
   36.3590   26.9760   31.6700 C   0  0  0  0  0  0  0  0  0  0  0  0
   37.1000   26.1560   32.4530 C   0  0  0  0  0  0  0  0  0  0  0  0
   36.8200   24.7980   32.4010 N   0  0  0  0  0  0  0  0  0  0  0  0
   35.8620   24.2940   31.6090 C   0  0  0  0  0  0  0  0  0  0  0  0
   35.1290   25.0930   30.8300 N   0  0  0  0  0  0  0  0  0  0  0  0
   35.6080   22.8900   31.5520 N   0  0  0  0  0  0  0  0  0  0  0  0
   34.7980   27.1080   30.2400 H   0  0  0  0  0  0  0  0  0  0  0  0
   36.1010   22.4890   30.7080 H   0  0  0  0  0  0  0  0  0  0  0  0
   35.0450   22.2420   32.1770 H   0  0  0  0  0  0  0  0  0  0  0  0
   38.1780   26.3360   33.3840 C   0  0  0  0  0  0  0  0  0  0  0  0
   38.2010   27.0050   34.5860 C   0  0  0  0  0  0  0  0  0  0  0  0
   37.2750   27.5060   34.8760 H   0  0  0  0  0  0  0  0  0  0  0  0
   39.2540   27.1310   35.4610 C   0  0  0  0  0  0  0  0  0  0  0  0
   39.1410   27.6830   36.3730 H   0  0  0  0  0  0  0  0  0  0  0  0
   40.4200   26.5120   35.0810 C   0  0  0  0  0  3  0  0  0  0  0  0
   40.4530   25.8290   33.8860 C   0  0  0  0  0  3  0  0  0  0  0  0
   39.3660   25.7640   33.0990 N   0  0  0  0  0  0  0  0  0  0  0  0
  1  3  1  0  0  0  0
  1  4  1  1  0  0  0
  2  1  1  0  0  0  0
  2  3  1  0  0  0  0
  3  7  1  1  0  0  0
  3 10  1  0  0  0  0
  5  2  1  0  0  0  0
  6  2  1  0  0  0  0
  9 15  1  0  0  0  0
  9  8  1  0  0  0  0
 10  9  2  0  0  0  0
 11 12  2  0  0  0  0
 11 10  1  0  0  0  0
 12 13  1  0  0  0  0
 13 14  1  0  0  0  0
 13 15  2  0  0  0  0
 15 18  1  0  0  0  0
 16 11  1  0  0  0  0
 17 12  1  0  0  0  0
 19 20  1  0  0  0  0
 20  1  1  0  0  0  0
 20 21  2  0  0  0  0
 21 29  1  0  0  0  0
 22 21  1  0  0  0  0
 23 22  2  0  0  0  0
 24 19  2  0  0  0  0
 24 23  1  0  0  0  0
 25 23  1  0  0  0  0
 25 28  1  0  0  0  0
 26 19  1  0  0  0  0
 27 25  1  0  0  0  0
 29 30  1  0  0  0  0
 30 31  1  0  0  0  0
 30 32  2  0  0  0  0
 32 33  1  0  0  0  0
 34 32  1  0  0  0  0
 35 34  2  0  0  0  0
 36 29  2  0  0  0  0
 36 35  1  0  0  0  0
M  END
>  <minimizedAffinity>
-5.61401176

$$$$

 OpenBabel03262522463D

 36 39  0  0  1  0  0  0  0  0999 V2000
   37.9150   25.0430   32.4970 C   0  0  1  0  0  0  0  0  0  0  0  0
   36.6980   25.7880   32.6970 C   0  0  0  0  0  0  0  0  0  0  0  0
   37.9900   26.5810   32.7270 C   0  0  2  0  0  0  0  0  0  0  0  0
   38.4750   24.9010   31.5310 H   0  0  0  0  0  0  0  0  0  0  0  0
   36.1200   25.7020   33.6120 H   0  0  0  0  0  0  0  0  0  0  0  0
   36.0540   26.0080   31.8110 H   0  0  0  0  0  0  0  0  0  0  0  0
   37.9850   27.0570   33.7020 H   0  0  0  0  0  0  0  0  0  0  0  0
   40.7300   26.9580   31.3340 Cl  0  0  0  0  0  0  0  0  0  0  0  0
   39.2490   27.6800   30.7580 C   0  0  0  0  0  0  0  0  0  0  0  0
   38.1490   27.4360   31.5480 C   0  0  0  0  0  0  0  0  0  0  0  0
   36.9670   28.0220   31.1340 C   0  0  0  0  0  0  0  0  0  0  0  0
   36.9000   28.8090   29.9890 C   0  0  0  0  0  0  0  0  0  0  0  0
   38.0580   29.0290   29.2160 C   0  0  0  0  0  0  0  0  0  0  0  0
   38.1090   30.0270   27.7770 Cl  0  0  0  0  0  0  0  0  0  0  0  0
   39.2530   28.4370   29.6320 C   0  0  0  0  0  0  0  0  0  0  0  0
   35.9600   28.0510   31.4690 H   0  0  0  0  0  0  0  0  0  0  0  0
   36.0740   29.3290   29.5350 H   0  0  0  0  0  0  0  0  0  0  0  0
   40.1870   28.5490   29.1010 H   0  0  0  0  0  0  0  0  0  0  0  0
   39.4560   24.6600   34.5400 C   0  0  0  0  0  0  0  0  0  0  0  0
   38.4600   24.1990   33.6080 C   0  0  0  0  0  0  0  0  0  0  0  0
   37.9410   22.9580   33.7680 C   0  0  0  0  0  0  0  0  0  0  0  0
   38.4140   22.2000   34.8290 N   0  0  0  0  0  0  0  0  0  0  0  0
   39.3440   22.6600   35.6800 C   0  0  0  0  0  0  0  0  0  0  0  0
   39.8580   23.8820   35.5340 N   0  0  0  0  0  0  0  0  0  0  0  0
   39.7980   21.8710   36.7810 N   0  0  0  0  0  0  0  0  0  0  0  0
   39.8170   25.6500   34.3530 H   0  0  0  0  0  0  0  0  0  0  0  0
   39.2800   22.1720   37.6510 H   0  0  0  0  0  0  0  0  0  0  0  0
   40.5170   21.0930   36.8520 H   0  0  0  0  0  0  0  0  0  0  0  0
   36.9570   22.1690   33.0810 C   0  0  0  0  0  0  0  0  0  0  0  0
   36.5060   22.2570   31.7850 C   0  0  0  0  0  0  0  0  0  0  0  0
   36.9280   23.0640   31.1820 H   0  0  0  0  0  0  0  0  0  0  0  0
   35.5770   21.4600   31.1600 C   0  0  0  0  0  0  0  0  0  0  0  0
   35.3100   21.6350   30.1360 H   0  0  0  0  0  0  0  0  0  0  0  0
   35.0380   20.4580   31.9300 C   0  0  0  0  0  3  0  0  0  0  0  0
   35.4540   20.3240   33.2350 C   0  0  0  0  0  3  0  0  0  0  0  0
   36.3720   21.1570   33.7550 N   0  0  0  0  0  0  0  0  0  0  0  0
  1  4  1  6  0  0  0
  1  2  1  0  0  0  0
  1  3  1  0  0  0  0
  1 20  1  0  0  0  0
  2  3  1  0  0  0  0
  2  5  1  0  0  0  0
  3  7  1  1  0  0  0
  6  2  1  0  0  0  0
  9  8  1  0  0  0  0
  9 10  1  0  0  0  0
 10  3  1  0  0  0  0
 11 16  1  0  0  0  0
 11 10  2  0  0  0  0
 12 11  1  0  0  0  0
 13 15  1  0  0  0  0
 13 12  2  0  0  0  0
 14 13  1  0  0  0  0
 15  9  2  0  0  0  0
 17 12  1  0  0  0  0
 18 15  1  0  0  0  0
 19 24  1  0  0  0  0
 20 21  1  0  0  0  0
 20 19  2  0  0  0  0
 21 22  2  0  0  0  0
 22 23  1  0  0  0  0
 23 25  1  0  0  0  0
 24 23  2  0  0  0  0
 25 28  1  0  0  0  0
 25 27  1  0  0  0  0
 26 19  1  0  0  0  0
 29 36  1  0  0  0  0
 29 21  1  0  0  0  0
 30 29  2  0  0  0  0
 31 30  1  0  0  0  0
 32 30  1  0  0  0  0
 32 34  2  0  0  0  0
 33 32  1  0  0  0  0
 34 35  1  0  0  0  0
 35 36  2  0  0  0  0
M  END
>  <minimizedAffinity>
-5.60882616

$$$$
