
 OpenBabel03272510013D

 20 21  0  0  0  0  0  0  0  0999 V2000
   38.3030   31.2890   50.2190 C   0  0  0  0  0  0  0  0  0  0  0  0
   38.4180   31.5510   48.8480 C   0  0  0  0  0  0  0  0  0  0  0  0
   37.4220   31.0650   48.0140 C   0  0  0  0  0  0  0  0  0  0  0  0
   36.3940   30.3670   48.5700 N   0  0  0  0  0  0  0  0  0  0  0  0
   36.3200   30.1360   49.8940 C   0  0  0  0  0  0  0  0  0  0  0  0
   37.2740   30.6000   50.7010 N   0  0  0  0  0  0  0  0  0  0  0  0
   39.1080   31.6920   50.8230 H   0  0  0  0  0  0  0  0  0  0  0  0
   39.2530   32.1100   48.4490 H   0  0  0  0  0  0  0  0  0  0  0  0
   37.4860   31.3050   46.5760 C   0  0  0  0  0  0  0  0  0  0  0  0
   36.6990   30.5420   45.7400 C   0  0  0  0  0  0  0  0  0  0  0  0
   36.0460   29.7830   46.1180 H   0  0  0  0  0  0  0  0  0  0  0  0
   36.8270   30.8420   44.3940 C   0  0  0  0  0  0  0  0  0  0  0  0
   36.2330   30.2760   43.6800 H   0  0  0  0  0  0  0  0  0  0  0  0
   37.6830   31.8240   44.0060 C   0  0  0  0  0  3  0  0  0  0  0  0
   38.4670   32.5810   44.8600 C   0  0  0  0  0  3  0  0  0  0  0  0
   38.3220   32.2690   46.1540 N   0  0  0  0  0  0  0  0  0  0  0  0
   35.1580   29.3630   50.4040 C   0  0  0  0  0  0  0  0  0  0  0  0
   35.2380   29.1140   51.7540 F   0  0  0  0  0  0  0  0  0  0  0  0
   33.9660   30.0850   50.2160 F   0  0  0  0  0  0  0  0  0  0  0  0
   34.9630   28.1750   49.7640 F   0  0  0  0  0  0  0  0  0  0  0  0
  1  6  1  0  0  0  0
  1  7  1  0  0  0  0
  2  1  2  0  0  0  0
  3  4  2  0  0  0  0
  3  2  1  0  0  0  0
  4  5  1  0  0  0  0
  5 17  1  0  0  0  0
  5  6  2  0  0  0  0
  8  2  1  0  0  0  0
  9  3  1  0  0  0  0
 10 11  1  0  0  0  0
 10  9  2  0  0  0  0
 12 10  1  0  0  0  0
 13 12  1  0  0  0  0
 14 12  2  0  0  0  0
 14 15  1  0  0  0  0
 15 16  2  0  0  0  0
 16  9  1  0  0  0  0
 17 18  1  0  0  0  0
 19 17  1  0  0  0  0
 20 17  1  0  0  0  0
M  END
>  <minimizedAffinity>
-5.44131899

>  <minimizedRMSD>
0.393630892

$$$$
