
 OpenBabel03272501283D

 38 41  0  0  1  0  0  0  0  0999 V2000
   36.1530   28.3660   32.8610 C   0  0  0  0  0  0  0  0  0  0  0  0
   36.6710   28.7940   31.6480 C   0  0  0  0  0  0  0  0  0  0  0  0
   35.7750   29.7410   31.1340 C   0  0  0  0  0  0  0  0  0  0  0  0
   34.7850   29.8460   32.0250 N   0  0  0  0  0  0  0  0  0  0  0  0
   35.0290   29.0300   33.0280 N   0  0  0  0  0  0  0  0  0  0  0  0
   37.5740   28.5110   31.1250 H   0  0  0  0  0  0  0  0  0  0  0  0
   35.8500   30.2910   30.2010 H   0  0  0  0  0  0  0  0  0  0  0  0
   32.3900   29.9670   32.2550 N   0  0  0  0  0  0  0  0  0  0  0  0
   31.4270   30.9980   32.5570 C   0  0  0  0  0  0  0  0  0  0  0  0
   32.1950   32.2510   32.9180 C   0  0  0  0  0  0  0  0  0  0  0  0
   33.6140   31.7090   33.0700 C   0  0  0  0  0  0  0  0  0  0  0  0
   33.6230   30.6750   31.9760 C   0  0  1  0  0  0  0  0  0  0  0  0
   32.5260   29.3610   33.0810 H   0  0  0  0  0  0  0  0  0  0  0  0
   30.6870   30.7250   33.3190 H   0  0  0  0  0  0  0  0  0  0  0  0
   30.8610   31.2240   31.6240 H   0  0  0  0  0  0  0  0  0  0  0  0
   32.1400   33.0500   32.1750 H   0  0  0  0  0  0  0  0  0  0  0  0
   31.8900   32.6020   33.9430 H   0  0  0  0  0  0  0  0  0  0  0  0
   33.7930   31.2920   34.0760 H   0  0  0  0  0  0  0  0  0  0  0  0
   34.3670   32.4970   32.8270 H   0  0  0  0  0  0  0  0  0  0  0  0
   33.5950   31.3570   30.7100 N   0  0  0  0  0  0  0  0  0  0  0  0
   33.6420   30.6070   29.9770 H   0  0  0  0  0  0  0  0  0  0  0  0
   34.4090   32.0060   30.6730 H   0  0  0  0  0  0  0  0  0  0  0  0
   37.2260   27.6220   34.9990 C   0  0  0  0  0  0  0  0  0  0  0  0
   36.8230   27.3720   33.6850 C   0  0  0  0  0  0  0  0  0  0  0  0
   37.0850   26.1010   33.1480 C   0  0  0  0  0  0  0  0  0  0  0  0
   37.7130   25.2000   33.9480 N   0  0  0  0  0  0  0  0  0  0  0  0
   38.0880   25.4710   35.2080 C   0  0  0  0  0  0  0  0  0  0  0  0
   37.8370   26.7090   35.7410 N   0  0  0  0  0  0  0  0  0  0  0  0
   37.0250   28.6010   35.4150 H   0  0  0  0  0  0  0  0  0  0  0  0
   36.8040   25.8290   32.1330 H   0  0  0  0  0  0  0  0  0  0  0  0
   38.7580   24.5110   36.0660 C   0  0  0  0  0  0  0  0  0  0  0  0
   38.2500   24.2500   37.3090 C   0  0  0  0  0  0  0  0  0  0  0  0
   37.3680   24.7060   37.7270 H   0  0  0  0  0  0  0  0  0  0  0  0
   38.8590   23.3370   38.1700 C   0  0  0  0  0  0  0  0  0  0  0  0
   38.5300   23.0670   39.1680 H   0  0  0  0  0  0  0  0  0  0  0  0
   40.0020   22.7030   37.7140 C   0  0  0  0  0  3  0  0  0  0  0  0
   40.5130   22.9600   36.4730 C   0  0  0  0  0  3  0  0  0  0  0  0
   39.8620   23.8560   35.7080 N   0  0  0  0  0  0  0  0  0  0  0  0
  1  5  2  0  0  0  0
  1 24  1  0  0  0  0
  2  1  1  0  0  0  0
  3  2  2  0  0  0  0
  3  4  1  0  0  0  0
  4  5  1  0  0  0  0
  6  2  1  0  0  0  0
  7  3  1  0  0  0  0
  8  9  1  0  0  0  0
  8 13  1  0  0  0  0
  9 10  1  0  0  0  0
  9 14  1  0  0  0  0
 10 11  1  0  0  0  0
 10 17  1  0  0  0  0
 11 18  1  0  0  0  0
 12 20  1  6  0  0  0
 12  4  1  0  0  0  0
 12  8  1  0  0  0  0
 12 11  1  0  0  0  0
 15  9  1  0  0  0  0
 16 10  1  0  0  0  0
 19 11  1  0  0  0  0
 21 20  1  0  0  0  0
 22 20  1  0  0  0  0
 23 29  1  0  0  0  0
 23 28  1  0  0  0  0
 24 23  2  0  0  0  0
 25 24  1  0  0  0  0
 25 26  2  0  0  0  0
 26 27  1  0  0  0  0
 27 28  2  0  0  0  0
 27 31  1  0  0  0  0
 30 25  1  0  0  0  0
 31 32  1  0  0  0  0
 32 33  1  0  0  0  0
 32 34  2  0  0  0  0
 34 35  1  0  0  0  0
 36 34  1  0  0  0  0
 37 36  2  0  0  0  0
 38 31  2  0  0  0  0
 38 37  1  0  0  0  0
M  END
>  <minimizedAffinity>
-5.79794073

$$$$

 OpenBabel03272501283D

 38 41  0  0  1  0  0  0  0  0999 V2000
   38.5780   24.7450   35.8060 C   0  0  0  0  0  0  0  0  0  0  0  0
   38.0780   24.3410   37.0340 C   0  0  0  0  0  0  0  0  0  0  0  0
   38.9440   23.3540   37.5210 C   0  0  0  0  0  0  0  0  0  0  0  0
   39.9020   23.2040   36.6000 N   0  0  0  0  0  0  0  0  0  0  0  0
   39.6650   24.0310   35.6050 N   0  0  0  0  0  0  0  0  0  0  0  0
   37.2050   24.6640   37.5830 H   0  0  0  0  0  0  0  0  0  0  0  0
   38.8720   22.8060   38.4560 H   0  0  0  0  0  0  0  0  0  0  0  0
   41.2060   21.5910   35.3770 N   0  0  0  0  0  0  0  0  0  0  0  0
   42.5600   21.0940   35.4320 C   0  0  0  0  0  0  0  0  0  0  0  0
   43.3100   21.9200   36.4540 C   0  0  0  0  0  0  0  0  0  0  0  0
   42.3320   23.0640   36.7030 C   0  0  0  0  0  0  0  0  0  0  0  0
   41.0250   22.3220   36.6150 C   0  0  1  0  0  0  0  0  0  0  0  0
   41.1030   22.2400   34.5800 H   0  0  0  0  0  0  0  0  0  0  0  0
   43.0740   21.0580   34.4630 H   0  0  0  0  0  0  0  0  0  0  0  0
   42.5280   20.0500   35.8200 H   0  0  0  0  0  0  0  0  0  0  0  0
   43.5600   21.3880   37.3750 H   0  0  0  0  0  0  0  0  0  0  0  0
   44.2140   22.3880   35.9750 H   0  0  0  0  0  0  0  0  0  0  0  0
   42.4370   23.8690   35.9550 H   0  0  0  0  0  0  0  0  0  0  0  0
   42.4480   23.4660   37.7380 H   0  0  0  0  0  0  0  0  0  0  0  0
   40.9190   21.4570   37.7580 N   0  0  0  0  0  0  0  0  0  0  0  0
   39.9830   20.9890   37.6810 H   0  0  0  0  0  0  0  0  0  0  0  0
   41.0060   22.0420   38.6170 H   0  0  0  0  0  0  0  0  0  0  0  0
   37.6590   27.0530   35.4780 C   0  0  0  0  0  0  0  0  0  0  0  0
   37.9290   25.7690   35.0000 C   0  0  0  0  0  0  0  0  0  0  0  0
   37.5480   25.4640   33.6830 C   0  0  0  0  0  0  0  0  0  0  0  0
   36.9430   26.4440   32.9630 N   0  0  0  0  0  0  0  0  0  0  0  0
   36.6990   27.6710   33.4510 C   0  0  0  0  0  0  0  0  0  0  0  0
   37.0660   27.9780   34.7360 N   0  0  0  0  0  0  0  0  0  0  0  0
   37.9520   27.2900   36.4930 H   0  0  0  0  0  0  0  0  0  0  0  0
   37.7220   24.4870   33.2380 H   0  0  0  0  0  0  0  0  0  0  0  0
   36.0540   28.7220   32.6840 C   0  0  0  0  0  0  0  0  0  0  0  0
   36.6720   29.2160   31.5690 C   0  0  0  0  0  0  0  0  0  0  0  0
   37.6260   28.8890   31.1920 H   0  0  0  0  0  0  0  0  0  0  0  0
   36.0930   30.2260   30.8000 C   0  0  0  0  0  0  0  0  0  0  0  0
   36.5070   30.6780   29.9050 H   0  0  0  0  0  0  0  0  0  0  0  0
   34.8620   30.7090   31.2130 C   0  0  0  0  0  3  0  0  0  0  0  0
   34.2410   30.2180   32.3270 C   0  0  0  0  0  3  0  0  0  0  0  0
   34.8720   29.2440   33.0090 N   0  0  0  0  0  0  0  0  0  0  0  0
  1  2  1  0  0  0  0
  2  3  2  0  0  0  0
  2  6  1  0  0  0  0
  3  7  1  0  0  0  0
  4 12  1  0  0  0  0
  4  3  1  0  0  0  0
  5  1  2  0  0  0  0
  5  4  1  0  0  0  0
  8  9  1  0  0  0  0
  8 12  1  0  0  0  0
  9 15  1  0  0  0  0
  9 10  1  0  0  0  0
 10 11  1  0  0  0  0
 10 16  1  0  0  0  0
 11 19  1  0  0  0  0
 12 11  1  0  0  0  0
 12 20  1  1  0  0  0
 13  8  1  0  0  0  0
 14  9  1  0  0  0  0
 17 10  1  0  0  0  0
 18 11  1  0  0  0  0
 20 22  1  0  0  0  0
 21 20  1  0  0  0  0
 23 29  1  0  0  0  0
 24 23  1  0  0  0  0
 24  1  1  0  0  0  0
 25 24  2  0  0  0  0
 26 27  2  0  0  0  0
 26 25  1  0  0  0  0
 27 28  1  0  0  0  0
 28 23  2  0  0  0  0
 30 25  1  0  0  0  0
 31 38  1  0  0  0  0
 31 27  1  0  0  0  0
 32 31  2  0  0  0  0
 33 32  1  0  0  0  0
 34 36  2  0  0  0  0
 34 32  1  0  0  0  0
 35 34  1  0  0  0  0
 36 37  1  0  0  0  0
 37 38  2  0  0  0  0
M  END
>  <minimizedAffinity>
-5.79702425

$$$$

 OpenBabel03272501283D

 38 41  0  0  1  0  0  0  0  0999 V2000
   36.0110   28.2540   32.3480 C   0  0  0  0  0  0  0  0  0  0  0  0
   36.3020   29.1960   31.3730 C   0  0  0  0  0  0  0  0  0  0  0  0
   36.0860   30.4550   31.9470 C   0  0  0  0  0  0  0  0  0  0  0  0
   35.6880   30.2340   33.2040 N   0  0  0  0  0  0  0  0  0  0  0  0
   35.6520   28.9360   33.4140 N   0  0  0  0  0  0  0  0  0  0  0  0
   36.6330   29.0770   30.3510 H   0  0  0  0  0  0  0  0  0  0  0  0
   36.2110   31.4300   31.4830 H   0  0  0  0  0  0  0  0  0  0  0  0
   33.9630   31.0890   34.6510 N   0  0  0  0  0  0  0  0  0  0  0  0
   33.9190   31.8110   35.9000 C   0  0  0  0  0  0  0  0  0  0  0  0
   35.3360   31.9140   36.4200 C   0  0  0  0  0  0  0  0  0  0  0  0
   36.0710   30.9400   35.5040 C   0  0  0  0  0  0  0  0  0  0  0  0
   35.3400   31.1850   34.2110 C   0  0  1  0  0  0  0  0  0  0  0  0
   33.7250   30.0970   34.8110 H   0  0  0  0  0  0  0  0  0  0  0  0
   33.2280   31.3950   36.6450 H   0  0  0  0  0  0  0  0  0  0  0  0
   33.5770   32.8490   35.6860 H   0  0  0  0  0  0  0  0  0  0  0  0
   35.7650   32.9180   36.3780 H   0  0  0  0  0  0  0  0  0  0  0  0
   35.3960   31.4680   37.4520 H   0  0  0  0  0  0  0  0  0  0  0  0
   36.0010   29.8980   35.8630 H   0  0  0  0  0  0  0  0  0  0  0  0
   37.1380   31.2440   35.3770 H   0  0  0  0  0  0  0  0  0  0  0  0
   35.6810   32.5010   33.7420 N   0  0  0  0  0  0  0  0  0  0  0  0
   35.1850   32.6190   32.8250 H   0  0  0  0  0  0  0  0  0  0  0  0
   36.7180   32.5530   33.6480 H   0  0  0  0  0  0  0  0  0  0  0  0
   35.3360   26.1480   31.1700 C   0  0  0  0  0  0  0  0  0  0  0  0
   36.1240   26.8240   32.1050 C   0  0  0  0  0  0  0  0  0  0  0  0
   37.0610   26.0760   32.8380 C   0  0  0  0  0  0  0  0  0  0  0  0
   37.1360   24.7440   32.5840 N   0  0  0  0  0  0  0  0  0  0  0  0
   36.3640   24.1230   31.6770 C   0  0  0  0  0  0  0  0  0  0  0  0
   35.4470   24.8440   30.9570 N   0  0  0  0  0  0  0  0  0  0  0  0
   34.6140   26.7220   30.6050 H   0  0  0  0  0  0  0  0  0  0  0  0
   37.7100   26.5280   33.5840 H   0  0  0  0  0  0  0  0  0  0  0  0
   36.4420   22.7000   31.4020 C   0  0  0  0  0  0  0  0  0  0  0  0
   35.4080   21.8860   31.7760 C   0  0  0  0  0  0  0  0  0  0  0  0
   34.5110   22.2120   32.2740 H   0  0  0  0  0  0  0  0  0  0  0  0
   35.4370   20.5120   31.5350 C   0  0  0  0  0  0  0  0  0  0  0  0
   34.6680   19.7920   31.7950 H   0  0  0  0  0  0  0  0  0  0  0  0
   36.5570   20.0040   30.8990 C   0  0  0  0  0  3  0  0  0  0  0  0
   37.5910   20.8140   30.5230 C   0  0  0  0  0  3  0  0  0  0  0  0
   37.4810   22.1270   30.7950 N   0  0  0  0  0  0  0  0  0  0  0  0
  1  5  2  0  0  0  0
  2  3  2  0  0  0  0
  2  1  1  0  0  0  0
  3  4  1  0  0  0  0
  4  5  1  0  0  0  0
  4 12  1  0  0  0  0
  6  2  1  0  0  0  0
  7  3  1  0  0  0  0
  8 13  1  0  0  0  0
  8  9  1  0  0  0  0
  9 10  1  0  0  0  0
  9 14  1  0  0  0  0
 10 17  1  0  0  0  0
 11 18  1  0  0  0  0
 11 10  1  0  0  0  0
 12 20  1  6  0  0  0
 12  8  1  0  0  0  0
 12 11  1  0  0  0  0
 15  9  1  0  0  0  0
 16 10  1  0  0  0  0
 19 11  1  0  0  0  0
 21 20  1  0  0  0  0
 22 20  1  0  0  0  0
 23 24  1  0  0  0  0
 24  1  1  0  0  0  0
 24 25  2  0  0  0  0
 25 30  1  0  0  0  0
 26 25  1  0  0  0  0
 27 26  2  0  0  0  0
 28 23  2  0  0  0  0
 28 27  1  0  0  0  0
 29 23  1  0  0  0  0
 31 27  1  0  0  0  0
 31 32  1  0  0  0  0
 32 33  1  0  0  0  0
 34 32  2  0  0  0  0
 34 35  1  0  0  0  0
 36 34  1  0  0  0  0
 37 38  1  0  0  0  0
 37 36  2  0  0  0  0
 38 31  2  0  0  0  0
M  END
>  <minimizedAffinity>
-5.63318777

$$$$

 OpenBabel03272501283D

 38 41  0  0  1  0  0  0  0  0999 V2000
   37.1910   28.1830   31.9450 C   0  0  0  0  0  0  0  0  0  0  0  0
   37.3580   27.8350   30.6120 C   0  0  0  0  0  0  0  0  0  0  0  0
   36.9180   28.9250   29.8500 C   0  0  0  0  0  0  0  0  0  0  0  0
   36.5160   29.8570   30.7200 N   0  0  0  0  0  0  0  0  0  0  0  0
   36.6860   29.3980   31.9410 N   0  0  0  0  0  0  0  0  0  0  0  0
   37.7410   26.9320   30.1600 H   0  0  0  0  0  0  0  0  0  0  0  0
   36.8980   29.0170   28.7680 H   0  0  0  0  0  0  0  0  0  0  0  0
   34.5480   31.2440   30.6530 N   0  0  0  0  0  0  0  0  0  0  0  0
   34.2710   32.6580   30.7400 C   0  0  0  0  0  0  0  0  0  0  0  0
   35.5700   33.3600   31.0680 C   0  0  0  0  0  0  0  0  0  0  0  0
   36.4710   32.1840   31.4370 C   0  0  0  0  0  0  0  0  0  0  0  0
   35.9810   31.1540   30.4550 C   0  0  1  0  0  0  0  0  0  0  0  0
   34.2980   30.7830   31.5440 H   0  0  0  0  0  0  0  0  0  0  0  0
   33.4630   32.9240   31.4330 H   0  0  0  0  0  0  0  0  0  0  0  0
   33.9590   33.0100   29.7300 H   0  0  0  0  0  0  0  0  0  0  0  0
   35.9870   33.9540   30.2510 H   0  0  0  0  0  0  0  0  0  0  0  0
   35.4500   33.9620   32.0120 H   0  0  0  0  0  0  0  0  0  0  0  0
   36.3500   31.8850   32.4930 H   0  0  0  0  0  0  0  0  0  0  0  0
   37.5390   32.4170   31.2100 H   0  0  0  0  0  0  0  0  0  0  0  0
   36.3830   31.5600   29.1360 N   0  0  0  0  0  0  0  0  0  0  0  0
   36.0580   30.8010   28.4880 H   0  0  0  0  0  0  0  0  0  0  0  0
   37.4190   31.6740   29.1340 H   0  0  0  0  0  0  0  0  0  0  0  0
   38.4870   26.2610   32.8970 C   0  0  0  0  0  0  0  0  0  0  0  0
   37.5450   27.2830   33.0320 C   0  0  0  0  0  0  0  0  0  0  0  0
   36.9180   27.4370   34.2800 C   0  0  0  0  0  0  0  0  0  0  0  0
   37.2740   26.5790   35.2710 N   0  0  0  0  0  0  0  0  0  0  0  0
   38.1850   25.6060   35.1090 C   0  0  0  0  0  0  0  0  0  0  0  0
   38.8020   25.4480   33.8950 N   0  0  0  0  0  0  0  0  0  0  0  0
   38.9720   26.1410   31.9360 H   0  0  0  0  0  0  0  0  0  0  0  0
   36.1730   28.2080   34.4660 H   0  0  0  0  0  0  0  0  0  0  0  0
   38.5680   24.6870   36.1650 C   0  0  0  0  0  0  0  0  0  0  0  0
   39.5960   23.8100   35.9510 C   0  0  0  0  0  0  0  0  0  0  0  0
   40.1680   23.7330   35.0420 H   0  0  0  0  0  0  0  0  0  0  0  0
   40.0010   22.9070   36.9350 C   0  0  0  0  0  0  0  0  0  0  0  0
   40.8010   22.1780   36.8570 H   0  0  0  0  0  0  0  0  0  0  0  0
   39.3190   22.9350   38.1400 C   0  0  0  0  0  3  0  0  0  0  0  0
   38.2920   23.8100   38.3570 C   0  0  0  0  0  3  0  0  0  0  0  0
   37.9670   24.6450   37.3530 N   0  0  0  0  0  0  0  0  0  0  0  0
  1 24  1  0  0  0  0
  2  1  1  0  0  0  0
  3  2  2  0  0  0  0
  3  4  1  0  0  0  0
  4  5  1  0  0  0  0
  5  1  2  0  0  0  0
  6  2  1  0  0  0  0
  7  3  1  0  0  0  0
  8  9  1  0  0  0  0
  8 13  1  0  0  0  0
  9 10  1  0  0  0  0
  9 14  1  0  0  0  0
 10 11  1  0  0  0  0
 10 17  1  0  0  0  0
 11 18  1  0  0  0  0
 12 20  1  6  0  0  0
 12  8  1  0  0  0  0
 12  4  1  0  0  0  0
 12 11  1  0  0  0  0
 15  9  1  0  0  0  0
 16 10  1  0  0  0  0
 19 11  1  0  0  0  0
 21 20  1  0  0  0  0
 22 20  1  0  0  0  0
 23 24  2  0  0  0  0
 23 28  1  0  0  0  0
 24 25  1  0  0  0  0
 25 30  1  0  0  0  0
 25 26  2  0  0  0  0
 27 26  1  0  0  0  0
 27 31  1  0  0  0  0
 28 27  2  0  0  0  0
 29 23  1  0  0  0  0
 31 38  1  0  0  0  0
 32 31  2  0  0  0  0
 32 34  1  0  0  0  0
 33 32  1  0  0  0  0
 34 36  2  0  0  0  0
 35 34  1  0  0  0  0
 36 37  1  0  0  0  0
 38 37  2  0  0  0  0
M  END
>  <minimizedAffinity>
-5.51366806

$$$$

 OpenBabel03272501283D

 38 41  0  0  1  0  0  0  0  0999 V2000
   37.7740   24.9320   33.1820 C   0  0  0  0  0  0  0  0  0  0  0  0
   37.5930   23.6630   32.6540 C   0  0  0  0  0  0  0  0  0  0  0  0
   37.7950   22.7540   33.7000 C   0  0  0  0  0  0  0  0  0  0  0  0
   38.0810   23.4830   34.7840 N   0  0  0  0  0  0  0  0  0  0  0  0
   38.0630   24.7560   34.4540 N   0  0  0  0  0  0  0  0  0  0  0  0
   37.3440   23.3430   31.6520 H   0  0  0  0  0  0  0  0  0  0  0  0
   37.7370   21.6700   33.6620 H   0  0  0  0  0  0  0  0  0  0  0  0
   39.7820   22.8210   36.3550 N   0  0  0  0  0  0  0  0  0  0  0  0
   39.9080   22.7810   37.7920 C   0  0  0  0  0  0  0  0  0  0  0  0
   38.6790   23.4390   38.3790 C   0  0  0  0  0  0  0  0  0  0  0  0
   38.0560   24.0840   37.1440 C   0  0  0  0  0  0  0  0  0  0  0  0
   38.3700   23.0370   36.1090 C   0  0  1  0  0  0  0  0  0  0  0  0
   40.3190   23.6190   35.9780 H   0  0  0  0  0  0  0  0  0  0  0  0
   40.8400   23.2100   38.1820 H   0  0  0  0  0  0  0  0  0  0  0  0
   39.8860   21.7130   38.1100 H   0  0  0  0  0  0  0  0  0  0  0  0
   37.9880   22.7540   38.8750 H   0  0  0  0  0  0  0  0  0  0  0  0
   38.9860   24.2910   39.0470 H   0  0  0  0  0  0  0  0  0  0  0  0
   38.4970   25.0720   36.9250 H   0  0  0  0  0  0  0  0  0  0  0  0
   36.9470   24.1600   37.2530 H   0  0  0  0  0  0  0  0  0  0  0  0
   37.5750   21.8720   36.3890 N   0  0  0  0  0  0  0  0  0  0  0  0
   37.7930   21.1840   35.6270 H   0  0  0  0  0  0  0  0  0  0  0  0
   36.5730   22.1580   36.3980 H   0  0  0  0  0  0  0  0  0  0  0  0
   38.1360   26.2350   31.0720 C   0  0  0  0  0  0  0  0  0  0  0  0
   37.6420   26.1360   32.3760 C   0  0  0  0  0  0  0  0  0  0  0  0
   36.9940   27.2570   32.9190 C   0  0  0  0  0  0  0  0  0  0  0  0
   36.8900   28.3630   32.1370 N   0  0  0  0  0  0  0  0  0  0  0  0
   37.3750   28.4260   30.8860 C   0  0  0  0  0  0  0  0  0  0  0  0
   38.0100   27.3370   30.3470 N   0  0  0  0  0  0  0  0  0  0  0  0
   38.6360   25.3730   30.6510 H   0  0  0  0  0  0  0  0  0  0  0  0
   36.5830   27.2600   33.9270 H   0  0  0  0  0  0  0  0  0  0  0  0
   37.2660   29.6050   30.0470 C   0  0  0  0  0  0  0  0  0  0  0  0
   36.6900   30.7380   30.5510 C   0  0  0  0  0  0  0  0  0  0  0  0
   36.2940   30.8430   31.5470 H   0  0  0  0  0  0  0  0  0  0  0  0
   36.5620   31.8960   29.7830 C   0  0  0  0  0  0  0  0  0  0  0  0
   36.1210   32.8370   30.0960 H   0  0  0  0  0  0  0  0  0  0  0  0
   37.0440   31.8520   28.4860 C   0  0  0  0  0  3  0  0  0  0  0  0
   37.6210   30.7220   27.9780 C   0  0  0  0  0  3  0  0  0  0  0  0
   37.7030   29.6500   28.7880 N   0  0  0  0  0  0  0  0  0  0  0  0
  1  5  2  0  0  0  0
  2  1  1  0  0  0  0
  2  3  2  0  0  0  0
  3  4  1  0  0  0  0
  4 12  1  0  0  0  0
  5  4  1  0  0  0  0
  6  2  1  0  0  0  0
  7  3  1  0  0  0  0
  8  9  1  0  0  0  0
  9 15  1  0  0  0  0
  9 14  1  0  0  0  0
  9 10  1  0  0  0  0
 10 16  1  0  0  0  0
 10 17  1  0  0  0  0
 11 19  1  0  0  0  0
 11 10  1  0  0  0  0
 12  8  1  0  0  0  0
 12 20  1  1  0  0  0
 12 11  1  0  0  0  0
 13  8  1  0  0  0  0
 18 11  1  0  0  0  0
 20 22  1  0  0  0  0
 21 20  1  0  0  0  0
 23 24  1  0  0  0  0
 24 25  2  0  0  0  0
 24  1  1  0  0  0  0
 25 30  1  0  0  0  0
 26 25  1  0  0  0  0
 27 26  2  0  0  0  0
 28 27  1  0  0  0  0
 28 23  2  0  0  0  0
 29 23  1  0  0  0  0
 31 32  1  0  0  0  0
 31 27  1  0  0  0  0
 32 33  1  0  0  0  0
 34 35  1  0  0  0  0
 34 32  2  0  0  0  0
 36 34  1  0  0  0  0
 37 36  2  0  0  0  0
 37 38  1  0  0  0  0
 38 31  2  0  0  0  0
M  END
>  <minimizedAffinity>
-5.4713645

$$$$

 OpenBabel03272501283D

 38 41  0  0  1  0  0  0  0  0999 V2000
   37.4830   25.6780   33.7310 C   0  0  0  0  0  0  0  0  0  0  0  0
   38.0210   24.6870   32.9250 C   0  0  0  0  0  0  0  0  0  0  0  0
   38.4690   23.6690   33.7770 C   0  0  0  0  0  0  0  0  0  0  0  0
   38.1930   24.0700   35.0220 N   0  0  0  0  0  0  0  0  0  0  0  0
   37.6160   25.2500   34.9680 N   0  0  0  0  0  0  0  0  0  0  0  0
   38.1190   24.6250   31.8500 H   0  0  0  0  0  0  0  0  0  0  0  0
   38.9470   22.7330   33.5030 H   0  0  0  0  0  0  0  0  0  0  0  0
   39.8520   23.1140   36.4840 N   0  0  0  0  0  0  0  0  0  0  0  0
   39.9480   22.8230   37.8940 C   0  0  0  0  0  0  0  0  0  0  0  0
   38.7170   23.3920   38.5650 C   0  0  0  0  0  0  0  0  0  0  0  0
   38.1290   24.2520   37.4500 C   0  0  0  0  0  0  0  0  0  0  0  0
   38.4490   23.3960   36.2550 C   0  0  1  0  0  0  0  0  0  0  0  0
   40.4080   23.9560   36.2610 H   0  0  0  0  0  0  0  0  0  0  0  0
   40.8780   23.1610   38.3690 H   0  0  0  0  0  0  0  0  0  0  0  0
   39.9040   21.7170   38.0210 H   0  0  0  0  0  0  0  0  0  0  0  0
   38.0060   22.6430   38.9220 H   0  0  0  0  0  0  0  0  0  0  0  0
   39.0230   24.1090   39.3770 H   0  0  0  0  0  0  0  0  0  0  0  0
   38.5890   25.2550   37.4140 H   0  0  0  0  0  0  0  0  0  0  0  0
   37.0200   24.3280   37.5520 H   0  0  0  0  0  0  0  0  0  0  0  0
   37.6310   22.2150   36.3140 N   0  0  0  0  0  0  0  0  0  0  0  0
   37.8540   21.6650   35.4480 H   0  0  0  0  0  0  0  0  0  0  0  0
   36.6330   22.5130   36.3540 H   0  0  0  0  0  0  0  0  0  0  0  0
   36.6700   27.0820   31.8210 C   0  0  0  0  0  0  0  0  0  0  0  0
   36.9150   26.9020   33.1840 C   0  0  0  0  0  0  0  0  0  0  0  0
   36.5980   27.9580   34.0540 C   0  0  0  0  0  0  0  0  0  0  0  0
   36.0710   29.0840   33.5070 N   0  0  0  0  0  0  0  0  0  0  0  0
   35.8460   29.2260   32.1900 C   0  0  0  0  0  0  0  0  0  0  0  0
   36.1530   28.2010   31.3330 N   0  0  0  0  0  0  0  0  0  0  0  0
   36.9140   26.2690   31.1490 H   0  0  0  0  0  0  0  0  0  0  0  0
   36.7600   27.8960   35.1280 H   0  0  0  0  0  0  0  0  0  0  0  0
   35.2820   30.4270   31.6010 C   0  0  0  0  0  0  0  0  0  0  0  0
   36.1070   31.3140   30.9660 C   0  0  0  0  0  0  0  0  0  0  0  0
   37.1730   31.2020   30.8570 H   0  0  0  0  0  0  0  0  0  0  0  0
   35.6140   32.4830   30.3850 C   0  0  0  0  0  0  0  0  0  0  0  0
   36.1890   33.2410   29.8630 H   0  0  0  0  0  0  0  0  0  0  0  0
   34.2510   32.7090   30.4780 C   0  0  0  0  0  3  0  0  0  0  0  0
   33.4230   31.8250   31.1120 C   0  0  0  0  0  3  0  0  0  0  0  0
   33.9840   30.7240   31.6440 N   0  0  0  0  0  0  0  0  0  0  0  0
  1  5  2  0  0  0  0
  2  1  1  0  0  0  0
  2  3  2  0  0  0  0
  3  4  1  0  0  0  0
  4 12  1  0  0  0  0
  5  4  1  0  0  0  0
  6  2  1  0  0  0  0
  7  3  1  0  0  0  0
  8  9  1  0  0  0  0
  9 15  1  0  0  0  0
  9 14  1  0  0  0  0
  9 10  1  0  0  0  0
 10 16  1  0  0  0  0
 10 17  1  0  0  0  0
 11 19  1  0  0  0  0
 11 10  1  0  0  0  0
 12 20  1  1  0  0  0
 12  8  1  0  0  0  0
 12 11  1  0  0  0  0
 13  8  1  0  0  0  0
 18 11  1  0  0  0  0
 20 22  1  0  0  0  0
 21 20  1  0  0  0  0
 23 24  1  0  0  0  0
 24  1  1  0  0  0  0
 24 25  2  0  0  0  0
 25 30  1  0  0  0  0
 26 25  1  0  0  0  0
 27 26  2  0  0  0  0
 28 23  2  0  0  0  0
 28 27  1  0  0  0  0
 29 23  1  0  0  0  0
 31 38  1  0  0  0  0
 31 27  1  0  0  0  0
 32 31  2  0  0  0  0
 33 32  1  0  0  0  0
 34 36  2  0  0  0  0
 34 32  1  0  0  0  0
 35 34  1  0  0  0  0
 36 37  1  0  0  0  0
 37 38  2  0  0  0  0
M  END
>  <minimizedAffinity>
-5.41055632

$$$$

 OpenBabel03272501283D

 38 41  0  0  1  0  0  0  0  0999 V2000
   37.2160   27.5460   34.3300 C   0  0  0  0  0  0  0  0  0  0  0  0
   36.6400   27.5550   33.0680 C   0  0  0  0  0  0  0  0  0  0  0  0
   35.8320   28.6970   32.9990 C   0  0  0  0  0  0  0  0  0  0  0  0
   35.9470   29.3140   34.1800 N   0  0  0  0  0  0  0  0  0  0  0  0
   36.7630   28.6190   34.9420 N   0  0  0  0  0  0  0  0  0  0  0  0
   36.7360   26.8650   32.2420 H   0  0  0  0  0  0  0  0  0  0  0  0
   35.2260   29.0350   32.1630 H   0  0  0  0  0  0  0  0  0  0  0  0
   33.9950   30.3270   35.1620 N   0  0  0  0  0  0  0  0  0  0  0  0
   33.7130   31.5340   35.9010 C   0  0  0  0  0  0  0  0  0  0  0  0
   35.0330   32.2150   36.1870 C   0  0  0  0  0  0  0  0  0  0  0  0
   36.0310   31.1260   35.8050 C   0  0  0  0  0  0  0  0  0  0  0  0
   35.3250   30.5210   34.6210 C   0  0  1  0  0  0  0  0  0  0  0  0
   34.0040   29.5170   35.8040 H   0  0  0  0  0  0  0  0  0  0  0  0
   33.1120   31.3860   36.8070 H   0  0  0  0  0  0  0  0  0  0  0  0
   33.1340   32.2160   35.2370 H   0  0  0  0  0  0  0  0  0  0  0  0
   35.2000   33.1380   35.6270 H   0  0  0  0  0  0  0  0  0  0  0  0
   35.1520   32.3640   37.2970 H   0  0  0  0  0  0  0  0  0  0  0  0
   36.2040   30.4140   36.6300 H   0  0  0  0  0  0  0  0  0  0  0  0
   36.9940   31.5740   35.4590 H   0  0  0  0  0  0  0  0  0  0  0  0
   35.3510   31.4750   33.5450 N   0  0  0  0  0  0  0  0  0  0  0  0
   34.8860   31.0030   32.7300 H   0  0  0  0  0  0  0  0  0  0  0  0
   36.3450   31.7210   33.3530 H   0  0  0  0  0  0  0  0  0  0  0  0
   39.4650   26.4420   34.3740 C   0  0  0  0  0  0  0  0  0  0  0  0
   38.1240   26.4940   34.7620 C   0  0  0  0  0  0  0  0  0  0  0  0
   37.6440   25.4780   35.6050 C   0  0  0  0  0  0  0  0  0  0  0  0
   38.5210   24.5130   35.9870 N   0  0  0  0  0  0  0  0  0  0  0  0
   39.8060   24.4920   35.5960 C   0  0  0  0  0  0  0  0  0  0  0  0
   40.2830   25.4780   34.7730 N   0  0  0  0  0  0  0  0  0  0  0  0
   39.8370   27.2230   33.7240 H   0  0  0  0  0  0  0  0  0  0  0  0
   36.6130   25.4480   35.9510 H   0  0  0  0  0  0  0  0  0  0  0  0
   40.7460   23.4630   36.0020 C   0  0  0  0  0  0  0  0  0  0  0  0
   40.3900   22.5750   36.9800 C   0  0  0  0  0  0  0  0  0  0  0  0
   39.4460   22.5670   37.4960 H   0  0  0  0  0  0  0  0  0  0  0  0
   41.2600   21.5700   37.4040 C   0  0  0  0  0  0  0  0  0  0  0  0
   41.0660   20.8250   38.1690 H   0  0  0  0  0  0  0  0  0  0  0  0
   42.5010   21.5070   36.7930 C   0  0  0  0  0  3  0  0  0  0  0  0
   42.8600   22.3920   35.8160 C   0  0  0  0  0  3  0  0  0  0  0  0
   41.9600   23.3300   35.4680 N   0  0  0  0  0  0  0  0  0  0  0  0
  1 24  1  0  0  0  0
  1  5  2  0  0  0  0
  2  1  1  0  0  0  0
  3  2  2  0  0  0  0
  3  4  1  0  0  0  0
  4 12  1  0  0  0  0
  4  5  1  0  0  0  0
  6  2  1  0  0  0  0
  7  3  1  0  0  0  0
  8 13  1  0  0  0  0
  8  9  1  0  0  0  0
  9 10  1  0  0  0  0
  9 14  1  0  0  0  0
 10 17  1  0  0  0  0
 11 10  1  0  0  0  0
 11 18  1  0  0  0  0
 12 20  1  6  0  0  0
 12  8  1  0  0  0  0
 12 11  1  0  0  0  0
 15  9  1  0  0  0  0
 16 10  1  0  0  0  0
 19 11  1  0  0  0  0
 21 20  1  0  0  0  0
 22 20  1  0  0  0  0
 23 24  2  0  0  0  0
 23 28  1  0  0  0  0
 24 25  1  0  0  0  0
 25 30  1  0  0  0  0
 25 26  2  0  0  0  0
 27 26  1  0  0  0  0
 27 31  1  0  0  0  0
 28 27  2  0  0  0  0
 29 23  1  0  0  0  0
 31 32  1  0  0  0  0
 32 34  2  0  0  0  0
 32 33  1  0  0  0  0
 34 35  1  0  0  0  0
 36 34  1  0  0  0  0
 37 36  2  0  0  0  0
 38 37  1  0  0  0  0
 38 31  2  0  0  0  0
M  END
>  <minimizedAffinity>
-5.40896034

$$$$

 OpenBabel03272501283D

 38 41  0  0  1  0  0  0  0  0999 V2000
   36.0740   27.3450   31.3160 C   0  0  0  0  0  0  0  0  0  0  0  0
   36.8720   28.0100   30.3970 C   0  0  0  0  0  0  0  0  0  0  0  0
   36.5630   29.3720   30.5020 C   0  0  0  0  0  0  0  0  0  0  0  0
   35.6240   29.4750   31.4480 N   0  0  0  0  0  0  0  0  0  0  0  0
   35.3540   28.2730   31.9090 N   0  0  0  0  0  0  0  0  0  0  0  0
   37.6090   27.6370   29.7010 H   0  0  0  0  0  0  0  0  0  0  0  0
   36.9890   30.1970   29.9390 H   0  0  0  0  0  0  0  0  0  0  0  0
   34.1630   30.4170   33.1150 N   0  0  0  0  0  0  0  0  0  0  0  0
   33.9330   31.7280   33.6720 C   0  0  0  0  0  0  0  0  0  0  0  0
   34.9830   32.6580   33.1040 C   0  0  0  0  0  0  0  0  0  0  0  0
   35.9460   31.6720   32.4490 C   0  0  0  0  0  0  0  0  0  0  0  0
   34.9700   30.6480   31.9340 C   0  0  1  0  0  0  0  0  0  0  0  0
   34.6980   29.8400   33.7850 H   0  0  0  0  0  0  0  0  0  0  0  0
   33.8940   31.7590   34.7680 H   0  0  0  0  0  0  0  0  0  0  0  0
   32.9460   32.0910   33.3040 H   0  0  0  0  0  0  0  0  0  0  0  0
   34.6030   33.3930   32.3910 H   0  0  0  0  0  0  0  0  0  0  0  0
   35.5590   33.1390   33.9430 H   0  0  0  0  0  0  0  0  0  0  0  0
   36.6760   31.2650   33.1710 H   0  0  0  0  0  0  0  0  0  0  0  0
   36.4660   32.1430   31.5810 H   0  0  0  0  0  0  0  0  0  0  0  0
   34.2220   31.2400   30.8590 N   0  0  0  0  0  0  0  0  0  0  0  0
   33.5830   30.4870   30.5020 H   0  0  0  0  0  0  0  0  0  0  0  0
   34.8960   31.5690   30.1360 H   0  0  0  0  0  0  0  0  0  0  0  0
   35.2020   25.0330   30.8960 C   0  0  0  0  0  0  0  0  0  0  0  0
   36.1240   25.9000   31.4870 C   0  0  0  0  0  0  0  0  0  0  0  0
   37.1380   25.3390   32.2810 C   0  0  0  0  0  0  0  0  0  0  0  0
   37.1520   23.9880   32.4180 N   0  0  0  0  0  0  0  0  0  0  0  0
   36.2510   23.1810   31.8350 C   0  0  0  0  0  0  0  0  0  0  0  0
   35.2570   23.7190   31.0590 N   0  0  0  0  0  0  0  0  0  0  0  0
   34.4200   25.4630   30.2840 H   0  0  0  0  0  0  0  0  0  0  0  0
   37.8930   25.9470   32.7760 H   0  0  0  0  0  0  0  0  0  0  0  0
   36.2620   21.7360   31.9780 C   0  0  0  0  0  0  0  0  0  0  0  0
   35.1170   21.0900   32.3570 C   0  0  0  0  0  0  0  0  0  0  0  0
   34.1750   21.5670   32.5670 H   0  0  0  0  0  0  0  0  0  0  0  0
   35.0790   19.7030   32.5090 C   0  0  0  0  0  0  0  0  0  0  0  0
   34.2210   19.1070   32.8040 H   0  0  0  0  0  0  0  0  0  0  0  0
   36.2490   19.0060   32.2590 C   0  0  0  0  0  3  0  0  0  0  0  0
   37.3940   19.6480   31.8810 C   0  0  0  0  0  3  0  0  0  0  0  0
   37.3430   20.9870   31.7590 N   0  0  0  0  0  0  0  0  0  0  0  0
  1 24  1  0  0  0  0
  1  5  2  0  0  0  0
  2  3  2  0  0  0  0
  2  1  1  0  0  0  0
  3  4  1  0  0  0  0
  4  5  1  0  0  0  0
  4 12  1  0  0  0  0
  6  2  1  0  0  0  0
  7  3  1  0  0  0  0
  8  9  1  0  0  0  0
  8 13  1  0  0  0  0
  9 14  1  0  0  0  0
 10  9  1  0  0  0  0
 10 17  1  0  0  0  0
 11 10  1  0  0  0  0
 11 18  1  0  0  0  0
 12 20  1  6  0  0  0
 12 11  1  0  0  0  0
 12  8  1  0  0  0  0
 15  9  1  0  0  0  0
 16 10  1  0  0  0  0
 19 11  1  0  0  0  0
 21 20  1  0  0  0  0
 22 20  1  0  0  0  0
 23 28  2  0  0  0  0
 23 24  1  0  0  0  0
 24 25  2  0  0  0  0
 25 26  1  0  0  0  0
 25 30  1  0  0  0  0
 27 31  1  0  0  0  0
 27 26  2  0  0  0  0
 28 27  1  0  0  0  0
 29 23  1  0  0  0  0
 31 32  1  0  0  0  0
 32 34  2  0  0  0  0
 32 33  1  0  0  0  0
 34 35  1  0  0  0  0
 36 34  1  0  0  0  0
 37 36  2  0  0  0  0
 38 37  1  0  0  0  0
 38 31  2  0  0  0  0
M  END
>  <minimizedAffinity>
-5.39186049

$$$$

 OpenBabel03272501283D

 38 41  0  0  1  0  0  0  0  0999 V2000
   36.0840   28.0100   31.8710 C   0  0  0  0  0  0  0  0  0  0  0  0
   35.6670   28.6860   33.0080 C   0  0  0  0  0  0  0  0  0  0  0  0
   35.7910   30.0550   32.7350 C   0  0  0  0  0  0  0  0  0  0  0  0
   36.2620   30.1500   31.4880 N   0  0  0  0  0  0  0  0  0  0  0  0
   36.4250   28.9380   31.0030 N   0  0  0  0  0  0  0  0  0  0  0  0
   35.3030   28.3170   33.9560 H   0  0  0  0  0  0  0  0  0  0  0  0
   35.5580   30.8890   33.3910 H   0  0  0  0  0  0  0  0  0  0  0  0
   37.0110   32.4380   31.5490 N   0  0  0  0  0  0  0  0  0  0  0  0
   37.6370   33.3510   30.6220 C   0  0  0  0  0  0  0  0  0  0  0  0
   37.9780   32.5720   29.3710 C   0  0  0  0  0  0  0  0  0  0  0  0
   37.7540   31.1340   29.8330 C   0  0  0  0  0  0  0  0  0  0  0  0
   36.5650   31.3250   30.7350 C   0  0  1  0  0  0  0  0  0  0  0  0
   37.7080   32.1010   32.2330 H   0  0  0  0  0  0  0  0  0  0  0  0
   38.5000   33.8940   31.0270 H   0  0  0  0  0  0  0  0  0  0  0  0
   36.8820   34.1170   30.3310 H   0  0  0  0  0  0  0  0  0  0  0  0
   37.3680   32.8200   28.4990 H   0  0  0  0  0  0  0  0  0  0  0  0
   39.0790   32.6570   29.1580 H   0  0  0  0  0  0  0  0  0  0  0  0
   38.6400   30.7220   30.3480 H   0  0  0  0  0  0  0  0  0  0  0  0
   37.4550   30.4840   28.9760 H   0  0  0  0  0  0  0  0  0  0  0  0
   35.4290   31.6570   29.9190 N   0  0  0  0  0  0  0  0  0  0  0  0
   34.6150   31.7440   30.5770 H   0  0  0  0  0  0  0  0  0  0  0  0
   35.2990   30.8970   29.2190 H   0  0  0  0  0  0  0  0  0  0  0  0
   35.2040   25.8360   30.9880 C   0  0  0  0  0  0  0  0  0  0  0  0
   36.0920   26.5570   31.7900 C   0  0  0  0  0  0  0  0  0  0  0  0
   37.0280   25.8340   32.5480 C   0  0  0  0  0  0  0  0  0  0  0  0
   37.0040   24.4800   32.4470 N   0  0  0  0  0  0  0  0  0  0  0  0
   36.1370   23.8160   31.6650 C   0  0  0  0  0  0  0  0  0  0  0  0
   35.2200   24.5130   30.9220 N   0  0  0  0  0  0  0  0  0  0  0  0
   34.4820   26.3920   30.4030 H   0  0  0  0  0  0  0  0  0  0  0  0
   37.7520   26.3220   33.1970 H   0  0  0  0  0  0  0  0  0  0  0  0
   36.1090   22.3690   31.5540 C   0  0  0  0  0  0  0  0  0  0  0  0
   35.0950   21.6690   32.1490 C   0  0  0  0  0  0  0  0  0  0  0  0
   34.2880   22.1050   32.7130 H   0  0  0  0  0  0  0  0  0  0  0  0
   35.0250   20.2770   32.0710 C   0  0  0  0  0  0  0  0  0  0  0  0
   34.2630   19.6410   32.5090 H   0  0  0  0  0  0  0  0  0  0  0  0
   36.0260   19.6320   31.3640 C   0  0  0  0  0  3  0  0  0  0  0  0
   37.0400   20.3270   30.7680 C   0  0  0  0  0  3  0  0  0  0  0  0
   37.0300   21.6670   30.8940 N   0  0  0  0  0  0  0  0  0  0  0  0
  1  2  1  0  0  0  0
  2  6  1  0  0  0  0
  3  2  2  0  0  0  0
  3  7  1  0  0  0  0
  4  3  1  0  0  0  0
  5  4  1  0  0  0  0
  5  1  2  0  0  0  0
  8 13  1  0  0  0  0
  9 14  1  0  0  0  0
  9  8  1  0  0  0  0
 10 11  1  0  0  0  0
 10  9  1  0  0  0  0
 11 18  1  0  0  0  0
 11 12  1  0  0  0  0
 12 20  1  6  0  0  0
 12  4  1  0  0  0  0
 12  8  1  0  0  0  0
 15  9  1  0  0  0  0
 16 10  1  0  0  0  0
 17 10  1  0  0  0  0
 19 11  1  0  0  0  0
 20 21  1  0  0  0  0
 22 20  1  0  0  0  0
 23 24  1  0  0  0  0
 24  1  1  0  0  0  0
 24 25  2  0  0  0  0
 25 30  1  0  0  0  0
 26 25  1  0  0  0  0
 27 26  2  0  0  0  0
 28 23  2  0  0  0  0
 28 27  1  0  0  0  0
 29 23  1  0  0  0  0
 31 27  1  0  0  0  0
 31 32  1  0  0  0  0
 32 33  1  0  0  0  0
 34 32  2  0  0  0  0
 34 35  1  0  0  0  0
 36 34  1  0  0  0  0
 37 38  1  0  0  0  0
 37 36  2  0  0  0  0
 38 31  2  0  0  0  0
M  END
>  <minimizedAffinity>
-5.36301947

$$$$
