
 OpenBabel03262523043D

 25 27  0  0  0  0  0  0  0  0999 V2000
   38.1650   24.5980   34.6670 C   0  0  0  0  0  0  0  0  0  0  0  0
   38.4120   23.8510   33.5580 C   0  0  0  0  0  0  0  0  0  0  0  0
   38.1010   24.3570   32.3270 C   0  0  0  0  0  0  0  0  0  0  0  0
   37.5530   25.5930   32.2130 N   0  0  0  0  0  0  0  0  0  0  0  0
   37.3210   26.3040   33.3200 C   0  0  0  0  0  0  0  0  0  0  0  0
   37.6150   25.8370   34.5660 N   0  0  0  0  0  0  0  0  0  0  0  0
   38.8500   22.8670   33.6750 H   0  0  0  0  0  0  0  0  0  0  0  0
   38.2960   23.7670   31.4430 H   0  0  0  0  0  0  0  0  0  0  0  0
   39.7640   22.8450   37.4710 C   0  0  0  0  0  0  0  0  0  0  0  0
   39.0010   23.2750   38.5810 C   0  0  0  0  0  0  0  0  0  0  0  0
   37.9460   24.1650   38.3300 C   0  0  0  0  0  0  0  0  0  0  0  0
   37.7180   24.5620   37.0480 N   0  0  0  0  0  0  0  0  0  0  0  0
   38.4660   24.1310   36.0170 C   0  0  0  0  0  0  0  0  0  0  0  0
   39.4960   23.2670   36.2360 N   0  0  0  0  0  0  0  0  0  0  0  0
   40.5860   22.1660   37.5860 H   0  0  0  0  0  0  0  0  0  0  0  0
   39.2380   22.9190   39.5770 H   0  0  0  0  0  0  0  0  0  0  0  0
   37.3380   24.5190   39.1490 H   0  0  0  0  0  0  0  0  0  0  0  0
   36.7300   27.6420   33.2410 C   0  0  0  0  0  0  0  0  0  0  0  0
   36.3190   28.2680   34.3970 C   0  0  0  0  0  0  0  0  0  0  0  0
   36.4070   27.8230   35.3800 H   0  0  0  0  0  0  0  0  0  0  0  0
   35.7650   29.5240   34.3160 C   0  0  0  0  0  0  0  0  0  0  0  0
   35.4130   30.0950   35.1620 H   0  0  0  0  0  0  0  0  0  0  0  0
   35.6160   30.1650   33.0850 C   0  0  0  0  0  3  0  0  0  0  0  0
   36.0310   29.5240   31.9620 C   0  0  0  0  0  3  0  0  0  0  0  0
   36.5720   28.2950   32.0530 N   0  0  0  0  0  0  0  0  0  0  0  0
  1 13  1  0  0  0  0
  2  7  1  0  0  0  0
  2  1  2  0  0  0  0
  3  2  1  0  0  0  0
  4  3  2  0  0  0  0
  4  5  1  0  0  0  0
  5  6  2  0  0  0  0
  6  1  1  0  0  0  0
  8  3  1  0  0  0  0
  9 15  1  0  0  0  0
  9 10  1  0  0  0  0
 10 16  1  0  0  0  0
 11 10  2  0  0  0  0
 11 17  1  0  0  0  0
 12 11  1  0  0  0  0
 13 14  1  0  0  0  0
 13 12  2  0  0  0  0
 14  9  2  0  0  0  0
 18  5  1  0  0  0  0
 18 19  1  0  0  0  0
 19 20  1  0  0  0  0
 21 19  2  0  0  0  0
 21 22  1  0  0  0  0
 23 21  1  0  0  0  0
 24 25  1  0  0  0  0
 24 23  2  0  0  0  0
 25 18  2  0  0  0  0
M  END
>  <minimizedAffinity>
-4.98000622

$$$$

 OpenBabel03262523043D

 25 27  0  0  0  0  0  0  0  0999 V2000
   39.8220   23.0040   36.8690 C   0  0  0  0  0  0  0  0  0  0  0  0
   39.2660   23.0420   38.1100 C   0  0  0  0  0  0  0  0  0  0  0  0
   38.2360   23.9060   38.3570 C   0  0  0  0  0  0  0  0  0  0  0  0
   37.7710   24.7160   37.3740 N   0  0  0  0  0  0  0  0  0  0  0  0
   38.3370   24.6580   36.1640 C   0  0  0  0  0  0  0  0  0  0  0  0
   39.3650   23.8130   35.8760 N   0  0  0  0  0  0  0  0  0  0  0  0
   39.6550   22.3850   38.8790 H   0  0  0  0  0  0  0  0  0  0  0  0
   37.7930   23.9380   39.3420 H   0  0  0  0  0  0  0  0  0  0  0  0
   42.5690   20.5860   37.1670 C   0  0  0  0  0  0  0  0  0  0  0  0
   43.0000   20.4390   35.8290 C   0  0  0  0  0  0  0  0  0  0  0  0
   42.3260   21.1870   34.8510 C   0  0  0  0  0  0  0  0  0  0  0  0
   41.3060   22.0000   35.2390 N   0  0  0  0  0  0  0  0  0  0  0  0
   40.9240   22.1130   36.5240 C   0  0  0  0  0  0  0  0  0  0  0  0
   41.5630   21.3970   37.4900 N   0  0  0  0  0  0  0  0  0  0  0  0
   43.0370   20.0460   37.9680 H   0  0  0  0  0  0  0  0  0  0  0  0
   43.8200   19.7720   35.5890 H   0  0  0  0  0  0  0  0  0  0  0  0
   42.6230   21.1050   33.8160 H   0  0  0  0  0  0  0  0  0  0  0  0
   37.8650   25.5170   35.0760 C   0  0  0  0  0  0  0  0  0  0  0  0
   37.5460   26.8320   35.3420 C   0  0  0  0  0  0  0  0  0  0  0  0
   37.6250   27.2760   36.3270 H   0  0  0  0  0  0  0  0  0  0  0  0
   37.1040   27.6340   34.3170 C   0  0  0  0  0  0  0  0  0  0  0  0
   36.8310   28.6720   34.4250 H   0  0  0  0  0  0  0  0  0  0  0  0
   36.9750   27.1340   33.0200 C   0  0  0  0  0  3  0  0  0  0  0  0
   37.2970   25.8350   32.7860 C   0  0  0  0  0  3  0  0  0  0  0  0
   37.7290   25.0600   33.7970 N   0  0  0  0  0  0  0  0  0  0  0  0
  1  2  1  0  0  0  0
  2  3  2  0  0  0  0
  2  7  1  0  0  0  0
  3  8  1  0  0  0  0
  4  3  1  0  0  0  0
  5  4  2  0  0  0  0
  6  5  1  0  0  0  0
  6  1  2  0  0  0  0
  9 14  1  0  0  0  0
  9 15  1  0  0  0  0
 10  9  2  0  0  0  0
 11 12  2  0  0  0  0
 11 10  1  0  0  0  0
 12 13  1  0  0  0  0
 13  1  1  0  0  0  0
 13 14  2  0  0  0  0
 16 10  1  0  0  0  0
 17 11  1  0  0  0  0
 18 19  1  0  0  0  0
 18  5  1  0  0  0  0
 19 20  1  0  0  0  0
 21 22  1  0  0  0  0
 21 19  2  0  0  0  0
 23 21  1  0  0  0  0
 24 23  2  0  0  0  0
 24 25  1  0  0  0  0
 25 18  2  0  0  0  0
M  END
>  <minimizedAffinity>
-4.93469572

$$$$

 OpenBabel03262523043D

 25 27  0  0  0  0  0  0  0  0999 V2000
   36.0400   23.5180   31.6610 C   0  0  0  0  0  0  0  0  0  0  0  0
   35.1980   24.3640   31.0100 C   0  0  0  0  0  0  0  0  0  0  0  0
   35.3700   25.7140   31.1410 C   0  0  0  0  0  0  0  0  0  0  0  0
   36.3730   26.2050   31.9110 N   0  0  0  0  0  0  0  0  0  0  0  0
   37.1850   25.3500   32.5400 C   0  0  0  0  0  0  0  0  0  0  0  0
   37.0480   23.9980   32.4370 N   0  0  0  0  0  0  0  0  0  0  0  0
   34.4040   23.9480   30.4000 H   0  0  0  0  0  0  0  0  0  0  0  0
   34.7020   26.3890   30.6250 H   0  0  0  0  0  0  0  0  0  0  0  0
   34.8320   20.0860   32.1550 C   0  0  0  0  0  0  0  0  0  0  0  0
   35.7400   19.3230   31.3840 C   0  0  0  0  0  0  0  0  0  0  0  0
   36.7540   20.0200   30.7090 C   0  0  0  0  0  0  0  0  0  0  0  0
   36.8070   21.3750   30.8320 N   0  0  0  0  0  0  0  0  0  0  0  0
   35.9240   22.0670   31.5750 C   0  0  0  0  0  0  0  0  0  0  0  0
   34.9310   21.4110   32.2390 N   0  0  0  0  0  0  0  0  0  0  0  0
   34.0310   19.6220   32.6980 H   0  0  0  0  0  0  0  0  0  0  0  0
   35.6390   18.2450   31.3300 H   0  0  0  0  0  0  0  0  0  0  0  0
   37.4680   19.4770   30.1090 H   0  0  0  0  0  0  0  0  0  0  0  0
   38.2790   25.8390   33.3820 C   0  0  0  0  0  0  0  0  0  0  0  0
   37.9960   26.6800   34.4360 C   0  0  0  0  0  0  0  0  0  0  0  0
   36.9940   27.0080   34.6840 H   0  0  0  0  0  0  0  0  0  0  0  0
   39.0260   27.1370   35.2240 C   0  0  0  0  0  0  0  0  0  0  0  0
   38.9070   27.7960   36.0690 H   0  0  0  0  0  0  0  0  0  0  0  0
   40.3460   26.7590   34.9680 C   0  0  0  0  0  3  0  0  0  0  0  0
   40.5960   25.9280   33.9230 C   0  0  0  0  0  3  0  0  0  0  0  0
   39.5790   25.4890   33.1590 N   0  0  0  0  0  0  0  0  0  0  0  0
  1  6  1  0  0  0  0
  2  3  1  0  0  0  0
  2  1  2  0  0  0  0
  3  4  2  0  0  0  0
  4  5  1  0  0  0  0
  5 18  1  0  0  0  0
  6  5  2  0  0  0  0
  7  2  1  0  0  0  0
  8  3  1  0  0  0  0
  9 14  1  0  0  0  0
  9 15  1  0  0  0  0
 10  9  2  0  0  0  0
 11 12  2  0  0  0  0
 11 10  1  0  0  0  0
 12 13  1  0  0  0  0
 13  1  1  0  0  0  0
 13 14  2  0  0  0  0
 16 10  1  0  0  0  0
 17 11  1  0  0  0  0
 18 19  1  0  0  0  0
 19 20  1  0  0  0  0
 19 21  2  0  0  0  0
 21 22  1  0  0  0  0
 23 21  1  0  0  0  0
 24 23  2  0  0  0  0
 25 18  2  0  0  0  0
 25 24  1  0  0  0  0
M  END
>  <minimizedAffinity>
-4.92789507

$$$$

 OpenBabel03262523043D

 25 27  0  0  0  0  0  0  0  0999 V2000
   36.7670   27.6990   33.5730 C   0  0  0  0  0  0  0  0  0  0  0  0
   36.8750   28.0840   32.2730 C   0  0  0  0  0  0  0  0  0  0  0  0
   36.3500   29.2850   31.8840 C   0  0  0  0  0  0  0  0  0  0  0  0
   35.7310   30.0860   32.7860 N   0  0  0  0  0  0  0  0  0  0  0  0
   35.6400   29.6820   34.0570 C   0  0  0  0  0  0  0  0  0  0  0  0
   36.1480   28.4930   34.4870 N   0  0  0  0  0  0  0  0  0  0  0  0
   37.3740   27.4270   31.5710 H   0  0  0  0  0  0  0  0  0  0  0  0
   36.4330   29.5940   30.8520 H   0  0  0  0  0  0  0  0  0  0  0  0
   38.0250   25.1000   35.8420 C   0  0  0  0  0  0  0  0  0  0  0  0
   38.3010   24.0270   34.9630 C   0  0  0  0  0  0  0  0  0  0  0  0
   38.0430   24.2320   33.5990 C   0  0  0  0  0  0  0  0  0  0  0  0
   37.5480   25.4360   33.2010 N   0  0  0  0  0  0  0  0  0  0  0  0
   37.2980   26.4340   34.0680 C   0  0  0  0  0  0  0  0  0  0  0  0
   37.5400   26.2580   35.3970 N   0  0  0  0  0  0  0  0  0  0  0  0
   38.1960   25.0160   36.8980 H   0  0  0  0  0  0  0  0  0  0  0  0
   38.6940   23.0940   35.3470 H   0  0  0  0  0  0  0  0  0  0  0  0
   38.2390   23.4400   32.8920 H   0  0  0  0  0  0  0  0  0  0  0  0
   34.9780   30.5170   35.0620 C   0  0  0  0  0  0  0  0  0  0  0  0
   35.7330   31.3850   35.8220 C   0  0  0  0  0  0  0  0  0  0  0  0
   36.8060   31.4890   35.7190 H   0  0  0  0  0  0  0  0  0  0  0  0
   35.1070   32.1670   36.7640 C   0  0  0  0  0  0  0  0  0  0  0  0
   35.6080   32.8750   37.4060 H   0  0  0  0  0  0  0  0  0  0  0  0
   33.7260   32.0910   36.9570 C   0  0  0  0  0  3  0  0  0  0  0  0
   33.0070   31.2270   36.1930 C   0  0  0  0  0  3  0  0  0  0  0  0
   33.6310   30.4670   35.2750 N   0  0  0  0  0  0  0  0  0  0  0  0
  1 13  1  0  0  0  0
  1  6  1  0  0  0  0
  2  1  2  0  0  0  0
  3  2  1  0  0  0  0
  3  4  2  0  0  0  0
  4  5  1  0  0  0  0
  5  6  2  0  0  0  0
  5 18  1  0  0  0  0
  7  2  1  0  0  0  0
  8  3  1  0  0  0  0
  9 15  1  0  0  0  0
 10 16  1  0  0  0  0
 10  9  2  0  0  0  0
 11 10  1  0  0  0  0
 12 11  2  0  0  0  0
 12 13  1  0  0  0  0
 13 14  2  0  0  0  0
 14  9  1  0  0  0  0
 17 11  1  0  0  0  0
 18 25  2  0  0  0  0
 18 19  1  0  0  0  0
 19 21  2  0  0  0  0
 20 19  1  0  0  0  0
 21 23  1  0  0  0  0
 21 22  1  0  0  0  0
 24 23  2  0  0  0  0
 25 24  1  0  0  0  0
M  END
>  <minimizedAffinity>
-4.9261198

$$$$

 OpenBabel03262523043D

 25 27  0  0  0  0  0  0  0  0999 V2000
   38.3700   24.6060   36.2270 C   0  0  0  0  0  0  0  0  0  0  0  0
   37.8600   24.6180   37.4880 C   0  0  0  0  0  0  0  0  0  0  0  0
   38.3830   23.7770   38.4300 C   0  0  0  0  0  0  0  0  0  0  0  0
   39.4010   22.9390   38.1110 N   0  0  0  0  0  0  0  0  0  0  0  0
   39.8820   22.9480   36.8640 C   0  0  0  0  0  0  0  0  0  0  0  0
   39.3900   23.7700   35.8940 N   0  0  0  0  0  0  0  0  0  0  0  0
   37.0470   25.2960   37.7190 H   0  0  0  0  0  0  0  0  0  0  0  0
   37.9810   23.7830   39.4330 H   0  0  0  0  0  0  0  0  0  0  0  0
   37.3440   25.8170   32.9150 C   0  0  0  0  0  0  0  0  0  0  0  0
   36.9140   27.1360   33.1870 C   0  0  0  0  0  0  0  0  0  0  0  0
   36.9900   27.5760   34.5170 C   0  0  0  0  0  0  0  0  0  0  0  0
   37.4680   26.7200   35.4610 N   0  0  0  0  0  0  0  0  0  0  0  0
   37.8680   25.4700   35.1640 C   0  0  0  0  0  0  0  0  0  0  0  0
   37.8030   25.0210   33.8800 N   0  0  0  0  0  0  0  0  0  0  0  0
   37.3140   25.4110   31.9220 H   0  0  0  0  0  0  0  0  0  0  0  0
   36.5430   27.7650   32.3860 H   0  0  0  0  0  0  0  0  0  0  0  0
   36.6720   28.5760   34.7690 H   0  0  0  0  0  0  0  0  0  0  0  0
   40.9790   22.0590   36.4780 C   0  0  0  0  0  0  0  0  0  0  0  0
   41.6470   21.3480   37.4530 C   0  0  0  0  0  0  0  0  0  0  0  0
   41.4050   21.4100   38.5060 H   0  0  0  0  0  0  0  0  0  0  0  0
   42.6770   20.5150   37.0850 C   0  0  0  0  0  0  0  0  0  0  0  0
   43.2580   19.9190   37.7720 H   0  0  0  0  0  0  0  0  0  0  0  0
   43.0500   20.3820   35.7460 C   0  0  0  0  0  3  0  0  0  0  0  0
   42.3740   21.0930   34.8070 C   0  0  0  0  0  3  0  0  0  0  0  0
   41.3680   21.9060   35.1790 N   0  0  0  0  0  0  0  0  0  0  0  0
  1  2  1  0  0  0  0
  2  7  1  0  0  0  0
  2  3  2  0  0  0  0
  3  8  1  0  0  0  0
  4  3  1  0  0  0  0
  5  4  2  0  0  0  0
  6  1  2  0  0  0  0
  6  5  1  0  0  0  0
  9 10  2  0  0  0  0
  9 14  1  0  0  0  0
 10 11  1  0  0  0  0
 11 17  1  0  0  0  0
 11 12  2  0  0  0  0
 13 12  1  0  0  0  0
 13  1  1  0  0  0  0
 14 13  2  0  0  0  0
 15  9  1  0  0  0  0
 16 10  1  0  0  0  0
 18  5  1  0  0  0  0
 18 19  1  0  0  0  0
 19 20  1  0  0  0  0
 21 19  2  0  0  0  0
 21 22  1  0  0  0  0
 23 21  1  0  0  0  0
 24 25  1  0  0  0  0
 24 23  2  0  0  0  0
 25 18  2  0  0  0  0
M  END
>  <minimizedAffinity>
-4.91946983

$$$$

 OpenBabel03262523043D

 25 27  0  0  0  0  0  0  0  0999 V2000
   37.1790   25.2980   32.5220 C   0  0  0  0  0  0  0  0  0  0  0  0
   36.3230   26.1170   31.8530 C   0  0  0  0  0  0  0  0  0  0  0  0
   35.3410   25.5690   31.0760 C   0  0  0  0  0  0  0  0  0  0  0  0
   35.2200   24.2220   30.9740 N   0  0  0  0  0  0  0  0  0  0  0  0
   36.0750   23.4420   31.6420 C   0  0  0  0  0  0  0  0  0  0  0  0
   37.0680   23.9460   32.4270 N   0  0  0  0  0  0  0  0  0  0  0  0
   36.4400   27.1900   31.9500 H   0  0  0  0  0  0  0  0  0  0  0  0
   34.6600   26.2170   30.5430 H   0  0  0  0  0  0  0  0  0  0  0  0
   38.9730   27.1350   35.1470 C   0  0  0  0  0  0  0  0  0  0  0  0
   40.3130   26.7280   34.9510 C   0  0  0  0  0  0  0  0  0  0  0  0
   40.5630   25.8230   33.9080 C   0  0  0  0  0  0  0  0  0  0  0  0
   39.5160   25.3920   33.1520 N   0  0  0  0  0  0  0  0  0  0  0  0
   38.2530   25.8020   33.3700 C   0  0  0  0  0  0  0  0  0  0  0  0
   37.9860   26.6800   34.3770 N   0  0  0  0  0  0  0  0  0  0  0  0
   38.7060   27.8240   35.9250 H   0  0  0  0  0  0  0  0  0  0  0  0
   41.0990   27.1110   35.5900 H   0  0  0  0  0  0  0  0  0  0  0  0
   41.5720   25.4860   33.7220 H   0  0  0  0  0  0  0  0  0  0  0  0
   35.9790   21.9830   31.5580 C   0  0  0  0  0  0  0  0  0  0  0  0
   34.9930   21.3290   32.2660 C   0  0  0  0  0  0  0  0  0  0  0  0
   34.2720   21.8390   32.8930 H   0  0  0  0  0  0  0  0  0  0  0  0
   34.9070   19.9600   32.1840 C   0  0  0  0  0  0  0  0  0  0  0  0
   34.1720   19.3590   32.6980 H   0  0  0  0  0  0  0  0  0  0  0  0
   35.8000   19.2310   31.3970 C   0  0  0  0  0  3  0  0  0  0  0  0
   36.7610   19.9010   30.7090 C   0  0  0  0  0  3  0  0  0  0  0  0
   36.8360   21.2410   30.7980 N   0  0  0  0  0  0  0  0  0  0  0  0
  1 13  1  0  0  0  0
  2  7  1  0  0  0  0
  2  1  2  0  0  0  0
  3  2  1  0  0  0  0
  4  3  2  0  0  0  0
  4  5  1  0  0  0  0
  5  6  2  0  0  0  0
  6  1  1  0  0  0  0
  8  3  1  0  0  0  0
  9 15  1  0  0  0  0
 10  9  1  0  0  0  0
 10 16  1  0  0  0  0
 11 10  2  0  0  0  0
 12 13  2  0  0  0  0
 12 11  1  0  0  0  0
 13 14  1  0  0  0  0
 14  9  2  0  0  0  0
 17 11  1  0  0  0  0
 18  5  1  0  0  0  0
 18 19  1  0  0  0  0
 19 20  1  0  0  0  0
 21 19  2  0  0  0  0
 21 22  1  0  0  0  0
 23 21  1  0  0  0  0
 24 25  1  0  0  0  0
 24 23  2  0  0  0  0
 25 18  2  0  0  0  0
M  END
>  <minimizedAffinity>
-4.84037638

$$$$

 OpenBabel03262523043D

 25 27  0  0  0  0  0  0  0  0999 V2000
   35.5830   29.7240   34.0830 C   0  0  0  0  0  0  0  0  0  0  0  0
   35.7040   30.1220   32.7880 C   0  0  0  0  0  0  0  0  0  0  0  0
   36.3650   29.3200   31.9000 C   0  0  0  0  0  0  0  0  0  0  0  0
   36.8930   28.1390   32.3050 N   0  0  0  0  0  0  0  0  0  0  0  0
   36.7590   27.7730   33.5840 C   0  0  0  0  0  0  0  0  0  0  0  0
   36.1100   28.5420   34.5020 N   0  0  0  0  0  0  0  0  0  0  0  0
   35.2740   31.0700   32.4890 H   0  0  0  0  0  0  0  0  0  0  0  0
   36.4630   29.6340   30.8710 H   0  0  0  0  0  0  0  0  0  0  0  0
   32.9270   31.1460   36.1830 C   0  0  0  0  0  0  0  0  0  0  0  0
   33.6350   32.0430   37.0150 C   0  0  0  0  0  0  0  0  0  0  0  0
   35.0230   32.1340   36.8270 C   0  0  0  0  0  0  0  0  0  0  0  0
   35.6040   31.3630   35.8670 N   0  0  0  0  0  0  0  0  0  0  0  0
   34.8950   30.5200   35.0940 C   0  0  0  0  0  0  0  0  0  0  0  0
   33.5470   30.4150   35.2580 N   0  0  0  0  0  0  0  0  0  0  0  0
   31.8650   31.0230   36.2690 H   0  0  0  0  0  0  0  0  0  0  0  0
   33.1090   32.6270   37.7610 H   0  0  0  0  0  0  0  0  0  0  0  0
   35.6030   32.8060   37.4410 H   0  0  0  0  0  0  0  0  0  0  0  0
   37.3160   26.5060   34.0620 C   0  0  0  0  0  0  0  0  0  0  0  0
   37.6410   26.3700   35.3940 C   0  0  0  0  0  0  0  0  0  0  0  0
   37.5080   27.1600   36.1230 H   0  0  0  0  0  0  0  0  0  0  0  0
   38.1640   25.1780   35.8380 C   0  0  0  0  0  0  0  0  0  0  0  0
   38.4480   24.9750   36.8590 H   0  0  0  0  0  0  0  0  0  0  0  0
   38.3660   24.1130   34.9590 C   0  0  0  0  0  3  0  0  0  0  0  0
   38.0360   24.2740   33.6510 C   0  0  0  0  0  3  0  0  0  0  0  0
   37.5260   25.4450   33.2290 N   0  0  0  0  0  0  0  0  0  0  0  0
  1  6  1  0  0  0  0
  1 13  1  0  0  0  0
  2  1  2  0  0  0  0
  3  4  2  0  0  0  0
  3  2  1  0  0  0  0
  4  5  1  0  0  0  0
  5 18  1  0  0  0  0
  5  6  2  0  0  0  0
  7  2  1  0  0  0  0
  8  3  1  0  0  0  0
  9 15  1  0  0  0  0
  9 10  1  0  0  0  0
 10 16  1  0  0  0  0
 11 10  2  0  0  0  0
 11 17  1  0  0  0  0
 12 11  1  0  0  0  0
 13 14  1  0  0  0  0
 13 12  2  0  0  0  0
 14  9  2  0  0  0  0
 18 19  1  0  0  0  0
 19 21  2  0  0  0  0
 19 20  1  0  0  0  0
 21 22  1  0  0  0  0
 23 21  1  0  0  0  0
 24 23  2  0  0  0  0
 25 24  1  0  0  0  0
 25 18  2  0  0  0  0
M  END
>  <minimizedAffinity>
-4.78102827

$$$$

 OpenBabel03262523043D

 25 27  0  0  0  0  0  0  0  0999 V2000
   38.5330   25.7830   33.2260 C   0  0  0  0  0  0  0  0  0  0  0  0
   39.2300   26.9480   33.1380 C   0  0  0  0  0  0  0  0  0  0  0  0
   40.3480   27.1180   33.9060 C   0  0  0  0  0  0  0  0  0  0  0  0
   40.7590   26.1350   34.7460 N   0  0  0  0  0  0  0  0  0  0  0  0
   40.0530   25.0020   34.8110 C   0  0  0  0  0  0  0  0  0  0  0  0
   38.9330   24.7910   34.0650 N   0  0  0  0  0  0  0  0  0  0  0  0
   38.8820   27.7180   32.4600 H   0  0  0  0  0  0  0  0  0  0  0  0
   40.9050   28.0420   33.8390 H   0  0  0  0  0  0  0  0  0  0  0  0
   35.5030   26.3060   31.2170 C   0  0  0  0  0  0  0  0  0  0  0  0
   35.0640   24.9860   30.9680 C   0  0  0  0  0  0  0  0  0  0  0  0
   35.8310   23.9410   31.5050 C   0  0  0  0  0  0  0  0  0  0  0  0
   36.9430   24.2520   32.2270 N   0  0  0  0  0  0  0  0  0  0  0  0
   37.3300   25.5220   32.4430 C   0  0  0  0  0  0  0  0  0  0  0  0
   36.6010   26.5530   31.9310 N   0  0  0  0  0  0  0  0  0  0  0  0
   34.9680   27.1550   30.8380 H   0  0  0  0  0  0  0  0  0  0  0  0
   34.1680   24.8090   30.3830 H   0  0  0  0  0  0  0  0  0  0  0  0
   35.5320   22.9170   31.3390 H   0  0  0  0  0  0  0  0  0  0  0  0
   40.4630   23.9170   35.7060 C   0  0  0  0  0  0  0  0  0  0  0  0
   41.7260   23.3800   35.5830 C   0  0  0  0  0  0  0  0  0  0  0  0
   42.4480   23.7180   34.8500 H   0  0  0  0  0  0  0  0  0  0  0  0
   42.1050   22.3620   36.4250 C   0  0  0  0  0  0  0  0  0  0  0  0
   43.0700   21.8780   36.4070 H   0  0  0  0  0  0  0  0  0  0  0  0
   41.2300   21.8710   37.3960 C   0  0  0  0  0  3  0  0  0  0  0  0
   39.9920   22.4190   37.4960 C   0  0  0  0  0  3  0  0  0  0  0  0
   39.6320   23.4150   36.6650 N   0  0  0  0  0  0  0  0  0  0  0  0
  1  6  1  0  0  0  0
  2  1  2  0  0  0  0
  2  3  1  0  0  0  0
  3  4  2  0  0  0  0
  4  5  1  0  0  0  0
  5 18  1  0  0  0  0
  6  5  2  0  0  0  0
  7  2  1  0  0  0  0
  8  3  1  0  0  0  0
  9 14  1  0  0  0  0
 10  9  2  0  0  0  0
 10 11  1  0  0  0  0
 11 12  2  0  0  0  0
 12 13  1  0  0  0  0
 13  1  1  0  0  0  0
 14 13  2  0  0  0  0
 15  9  1  0  0  0  0
 16 10  1  0  0  0  0
 17 11  1  0  0  0  0
 18 25  1  0  0  0  0
 19 18  2  0  0  0  0
 19 21  1  0  0  0  0
 20 19  1  0  0  0  0
 21 23  2  0  0  0  0
 22 21  1  0  0  0  0
 23 24  1  0  0  0  0
 25 24  2  0  0  0  0
M  END
>  <minimizedAffinity>
-4.77847385

$$$$

 OpenBabel03262523043D

 25 27  0  0  0  0  0  0  0  0999 V2000
   38.1230   23.7760   34.5290 C   0  0  0  0  0  0  0  0  0  0  0  0
   38.2330   22.7310   33.6660 C   0  0  0  0  0  0  0  0  0  0  0  0
   37.9470   22.9210   32.3430 C   0  0  0  0  0  0  0  0  0  0  0  0
   37.5590   24.1420   31.8950 N   0  0  0  0  0  0  0  0  0  0  0  0
   37.4590   25.1500   32.7670 C   0  0  0  0  0  0  0  0  0  0  0  0
   37.7330   25.0030   34.0930 N   0  0  0  0  0  0  0  0  0  0  0  0
   38.5450   21.7660   34.0480 H   0  0  0  0  0  0  0  0  0  0  0  0
   38.0330   22.0930   31.6550 H   0  0  0  0  0  0  0  0  0  0  0  0
   37.8710   24.1450   38.1750 C   0  0  0  0  0  0  0  0  0  0  0  0
   38.9820   23.4030   38.6390 C   0  0  0  0  0  0  0  0  0  0  0  0
   39.7950   22.7900   37.6730 C   0  0  0  0  0  0  0  0  0  0  0  0
   39.4740   22.9410   36.3590 N   0  0  0  0  0  0  0  0  0  0  0  0
   38.4080   23.6560   35.9550 C   0  0  0  0  0  0  0  0  0  0  0  0
   37.6040   24.2600   36.8750 N   0  0  0  0  0  0  0  0  0  0  0  0
   37.2060   24.6410   38.8540 H   0  0  0  0  0  0  0  0  0  0  0  0
   39.1790   23.3230   39.7020 H   0  0  0  0  0  0  0  0  0  0  0  0
   40.6530   22.2140   37.9840 H   0  0  0  0  0  0  0  0  0  0  0  0
   37.0420   26.4830   32.3240 C   0  0  0  0  0  0  0  0  0  0  0  0
   36.7210   27.4380   33.2650 C   0  0  0  0  0  0  0  0  0  0  0  0
   36.7590   27.2580   34.3320 H   0  0  0  0  0  0  0  0  0  0  0  0
   36.3310   28.6870   32.8440 C   0  0  0  0  0  0  0  0  0  0  0  0
   36.0610   29.4990   33.5010 H   0  0  0  0  0  0  0  0  0  0  0  0
   36.2560   28.9950   31.4840 C   0  0  0  0  0  3  0  0  0  0  0  0
   36.5790   28.0350   30.5790 C   0  0  0  0  0  3  0  0  0  0  0  0
   36.9600   26.8160   31.0030 N   0  0  0  0  0  0  0  0  0  0  0  0
  1 13  1  0  0  0  0
  2  7  1  0  0  0  0
  2  1  2  0  0  0  0
  3  2  1  0  0  0  0
  4  3  2  0  0  0  0
  4  5  1  0  0  0  0
  5  6  2  0  0  0  0
  6  1  1  0  0  0  0
  8  3  1  0  0  0  0
  9 10  1  0  0  0  0
  9 15  1  0  0  0  0
 10 16  1  0  0  0  0
 11 17  1  0  0  0  0
 11 10  2  0  0  0  0
 12 11  1  0  0  0  0
 13 12  2  0  0  0  0
 13 14  1  0  0  0  0
 14  9  2  0  0  0  0
 18  5  1  0  0  0  0
 18 19  1  0  0  0  0
 19 20  1  0  0  0  0
 21 19  2  0  0  0  0
 21 22  1  0  0  0  0
 23 21  1  0  0  0  0
 24 25  1  0  0  0  0
 24 23  2  0  0  0  0
 25 18  2  0  0  0  0
M  END
>  <minimizedAffinity>
-4.76907969

$$$$
