
 OpenBabel03272507353D

 35 38  0  0  1  0  0  0  0  0999 V2000
   38.1540   25.1480   35.6830 C   0  0  0  0  0  0  0  0  0  0  0  0
   38.3070   26.3780   36.2870 C   0  0  0  0  0  0  0  0  0  0  0  0
   38.2230   27.3540   35.2790 C   0  0  0  0  0  0  0  0  0  0  0  0
   38.0190   26.6440   34.1170 C   0  0  0  0  0  0  0  0  0  0  0  0
   37.9860   25.3580   34.3980 O   0  0  0  0  0  0  0  0  0  0  0  0
   38.4680   26.6480   37.3260 H   0  0  0  0  0  0  0  0  0  0  0  0
   38.2900   28.4440   35.3190 H   0  0  0  0  0  0  0  0  0  0  0  0
   38.1870   23.9080   36.4350 C   0  0  0  0  0  0  0  0  0  0  0  0
   37.2080   23.5950   37.1320 O   0  0  0  0  0  0  0  0  0  0  0  0
   39.3750   23.1060   36.3250 C   0  0  0  0  0  0  0  0  0  0  0  0
   39.9770   22.7000   37.5000 C   0  0  0  0  0  0  0  0  0  0  0  0
   41.1310   21.9230   37.4350 C   0  0  0  0  0  0  0  0  0  0  0  0
   41.6120   21.5970   36.1900 N   0  0  0  0  0  0  0  0  0  0  0  0
   41.0080   22.0040   35.0700 C   0  0  0  0  0  0  0  0  0  0  0  0
   39.8960   22.7520   35.1310 N   0  0  0  0  0  0  0  0  0  0  0  0
   39.5620   22.9800   38.4620 H   0  0  0  0  0  0  0  0  0  0  0  0
   41.6480   21.5740   38.3120 H   0  0  0  0  0  0  0  0  0  0  0  0
   41.4310   21.7180   34.0990 H   0  0  0  0  0  0  0  0  0  0  0  0
   37.8610   27.2200   32.7810 C   0  0  0  0  0  0  0  0  0  0  0  0
   38.8980   27.5450   32.1300 O   0  0  0  0  0  0  0  0  0  0  0  0
   36.5140   27.4330   32.1940 C   0  0  1  0  0  0  0  0  0  0  0  0
   36.6090   27.6340   30.6280 C   0  0  0  0  0  0  0  0  0  0  0  0
   35.8900   26.5050   31.2530 C   0  0  1  0  0  0  0  0  0  0  0  0
   35.9570   28.3330   32.6150 H   0  0  0  0  0  0  0  0  0  0  0  0
   37.5930   27.5390   30.1760 H   0  0  0  0  0  0  0  0  0  0  0  0
   35.9980   28.4470   30.2090 H   0  0  0  0  0  0  0  0  0  0  0  0
   34.7530   26.5680   31.2540 H   0  0  0  0  0  0  0  0  0  0  0  0
   36.3550   25.1260   31.1530 C   0  0  0  0  0  0  0  0  0  0  0  0
   35.4510   24.1350   31.5550 C   0  0  0  0  0  0  0  0  0  0  0  0
   34.4510   24.3650   31.9430 H   0  0  0  0  0  0  0  0  0  0  0  0
   35.7130   22.7620   31.5110 C   0  0  0  0  0  0  0  0  0  0  0  0
   34.9810   22.0380   31.8340 H   0  0  0  0  0  0  0  0  0  0  0  0
   36.9210   22.3380   31.0500 C   0  0  0  0  0  3  0  0  0  0  0  0
   37.7740   23.3480   30.6660 C   0  0  0  0  0  3  0  0  0  0  0  0
   37.5300   24.6530   30.7070 N   0  0  0  0  0  0  0  0  0  0  0  0
  1  2  2  0  0  0  0
  1  8  1  0  0  0  0
  2  6  1  0  0  0  0
  3  7  1  0  0  0  0
  3  2  1  0  0  0  0
  4  5  1  0  0  0  0
  4  3  2  0  0  0  0
  5  1  1  0  0  0  0
  8  9  2  0  0  0  0
 10  8  1  0  0  0  0
 10 11  1  0  0  0  0
 11 16  1  0  0  0  0
 12 11  2  0  0  0  0
 12 17  1  0  0  0  0
 13 12  1  0  0  0  0
 14 15  1  0  0  0  0
 14 13  2  0  0  0  0
 15 10  2  0  0  0  0
 18 14  1  0  0  0  0
 19  4  1  0  0  0  0
 20 19  2  0  0  0  0
 21 24  1  1  0  0  0
 21 19  1  0  0  0  0
 22 23  1  0  0  0  0
 22 21  1  0  0  0  0
 23 27  1  6  0  0  0
 23 21  1  0  0  0  0
 25 22  1  0  0  0  0
 26 22  1  0  0  0  0
 28 23  1  0  0  0  0
 28 29  1  0  0  0  0
 29 30  1  0  0  0  0
 31 29  2  0  0  0  0
 31 32  1  0  0  0  0
 33 31  1  0  0  0  0
 34 35  1  0  0  0  0
 34 33  2  0  0  0  0
 35 28  2  0  0  0  0
M  END
>  <minimizedAffinity>
-5.77171755

$$$$

 OpenBabel03272507353D

 35 38  0  0  1  0  0  0  0  0999 V2000
   35.1530   29.0970   33.4340 C   0  0  0  0  0  0  0  0  0  0  0  0
   35.6470   29.3510   32.1720 C   0  0  0  0  0  0  0  0  0  0  0  0
   36.7490   28.5010   31.9730 C   0  0  0  0  0  0  0  0  0  0  0  0
   36.8500   27.7770   33.1410 C   0  0  0  0  0  0  0  0  0  0  0  0
   35.8980   28.1580   33.9670 O   0  0  0  0  0  0  0  0  0  0  0  0
   35.3240   30.0490   31.4050 H   0  0  0  0  0  0  0  0  0  0  0  0
   37.4230   28.3760   31.1230 H   0  0  0  0  0  0  0  0  0  0  0  0
   34.0050   29.8030   33.9700 C   0  0  0  0  0  0  0  0  0  0  0  0
   32.8880   29.6220   33.4580 O   0  0  0  0  0  0  0  0  0  0  0  0
   34.2370   30.6850   35.0810 C   0  0  0  0  0  0  0  0  0  0  0  0
   33.2100   30.8460   35.9890 C   0  0  0  0  0  0  0  0  0  0  0  0
   33.3960   31.6940   37.0780 C   0  0  0  0  0  0  0  0  0  0  0  0
   34.6080   32.3320   37.1920 N   0  0  0  0  0  0  0  0  0  0  0  0
   35.5850   32.1560   36.2960 C   0  0  0  0  0  0  0  0  0  0  0  0
   35.4070   31.3390   35.2480 N   0  0  0  0  0  0  0  0  0  0  0  0
   32.2690   30.3220   35.8600 H   0  0  0  0  0  0  0  0  0  0  0  0
   32.6360   31.8630   37.8200 H   0  0  0  0  0  0  0  0  0  0  0  0
   36.5350   32.6880   36.4300 H   0  0  0  0  0  0  0  0  0  0  0  0
   37.8510   26.7470   33.4220 C   0  0  0  0  0  0  0  0  0  0  0  0
   37.6380   25.5640   33.0210 O   0  0  0  0  0  0  0  0  0  0  0  0
   39.0920   27.0700   34.1690 C   0  0  1  0  0  0  0  0  0  0  0  0
   38.7730   27.3560   35.6910 C   0  0  0  0  0  0  0  0  0  0  0  0
   39.6260   26.2370   35.2440 C   0  0  1  0  0  0  0  0  0  0  0  0
   39.6570   27.9750   33.7690 H   0  0  0  0  0  0  0  0  0  0  0  0
   37.7430   27.2320   36.0130 H   0  0  0  0  0  0  0  0  0  0  0  0
   39.2810   28.2270   36.1340 H   0  0  0  0  0  0  0  0  0  0  0  0
   40.7480   26.3640   35.3910 H   0  0  0  0  0  0  0  0  0  0  0  0
   39.2190   24.8410   35.3710 C   0  0  0  0  0  0  0  0  0  0  0  0
   38.2130   24.5690   36.3070 C   0  0  0  0  0  0  0  0  0  0  0  0
   37.7570   25.3480   36.9310 H   0  0  0  0  0  0  0  0  0  0  0  0
   37.6840   23.2990   36.5510 C   0  0  0  0  0  0  0  0  0  0  0  0
   36.9080   23.1430   37.2860 H   0  0  0  0  0  0  0  0  0  0  0  0
   38.1640   22.2400   35.8430 C   0  0  0  0  0  3  0  0  0  0  0  0
   39.1500   22.5570   34.9370 C   0  0  0  0  0  3  0  0  0  0  0  0
   39.6560   23.7630   34.7020 N   0  0  0  0  0  0  0  0  0  0  0  0
  1  5  1  0  0  0  0
  1  8  1  0  0  0  0
  2  1  2  0  0  0  0
  3  2  1  0  0  0  0
  3  4  2  0  0  0  0
  4 19  1  0  0  0  0
  4  5  1  0  0  0  0
  6  2  1  0  0  0  0
  7  3  1  0  0  0  0
  8 10  1  0  0  0  0
  9  8  2  0  0  0  0
 10 15  2  0  0  0  0
 10 11  1  0  0  0  0
 11 12  2  0  0  0  0
 12 13  1  0  0  0  0
 12 17  1  0  0  0  0
 14 18  1  0  0  0  0
 14 13  2  0  0  0  0
 15 14  1  0  0  0  0
 16 11  1  0  0  0  0
 19 21  1  0  0  0  0
 20 19  2  0  0  0  0
 21 24  1  6  0  0  0
 21 23  1  0  0  0  0
 21 22  1  0  0  0  0
 22 25  1  0  0  0  0
 22 26  1  0  0  0  0
 23 28  1  0  0  0  0
 23 27  1  1  0  0  0
 23 22  1  0  0  0  0
 28 29  1  0  0  0  0
 29 31  2  0  0  0  0
 29 30  1  0  0  0  0
 31 32  1  0  0  0  0
 33 31  1  0  0  0  0
 34 33  2  0  0  0  0
 35 34  1  0  0  0  0
 35 28  2  0  0  0  0
M  END
>  <minimizedAffinity>
-5.56376123

$$$$

 OpenBabel03272507353D

 35 38  0  0  1  0  0  0  0  0999 V2000
   36.6000   27.5570   33.0350 C   0  0  0  0  0  0  0  0  0  0  0  0
   36.8210   27.7250   34.3860 C   0  0  0  0  0  0  0  0  0  0  0  0
   37.6120   26.6470   34.8190 C   0  0  0  0  0  0  0  0  0  0  0  0
   37.8230   25.8880   33.6890 C   0  0  0  0  0  0  0  0  0  0  0  0
   37.2140   26.4560   32.6700 O   0  0  0  0  0  0  0  0  0  0  0  0
   36.4930   28.5000   35.0730 H   0  0  0  0  0  0  0  0  0  0  0  0
   38.0120   26.3920   35.8040 H   0  0  0  0  0  0  0  0  0  0  0  0
   35.8150   28.4970   32.2590 C   0  0  0  0  0  0  0  0  0  0  0  0
   34.6610   28.7720   32.6260 O   0  0  0  0  0  0  0  0  0  0  0  0
   36.4330   29.0610   31.0900 C   0  0  0  0  0  0  0  0  0  0  0  0
   36.6170   30.4290   31.0670 C   0  0  0  0  0  0  0  0  0  0  0  0
   37.2110   31.0130   29.9510 C   0  0  0  0  0  0  0  0  0  0  0  0
   37.5880   30.1860   28.9210 N   0  0  0  0  0  0  0  0  0  0  0  0
   37.3970   28.8640   28.9710 C   0  0  0  0  0  0  0  0  0  0  0  0
   36.8260   28.3000   30.0460 N   0  0  0  0  0  0  0  0  0  0  0  0
   36.3050   31.0450   31.9030 H   0  0  0  0  0  0  0  0  0  0  0  0
   37.3830   32.0720   29.8710 H   0  0  0  0  0  0  0  0  0  0  0  0
   37.7150   28.2440   28.1230 H   0  0  0  0  0  0  0  0  0  0  0  0
   38.6010   24.6510   33.6260 C   0  0  0  0  0  0  0  0  0  0  0  0
   39.8660   24.7230   33.6540 O   0  0  0  0  0  0  0  0  0  0  0  0
   37.9310   23.3300   33.5220 C   0  0  1  0  0  0  0  0  0  0  0  0
   38.9880   22.1560   33.6080 C   0  0  0  0  0  0  0  0  0  0  0  0
   37.9150   22.3480   34.6040 C   0  0  1  0  0  0  0  0  0  0  0  0
   37.3400   23.1800   32.5600 H   0  0  0  0  0  0  0  0  0  0  0  0
   40.0230   22.4340   33.7840 H   0  0  0  0  0  0  0  0  0  0  0  0
   38.8590   21.3380   32.8830 H   0  0  0  0  0  0  0  0  0  0  0  0
   37.0310   21.6310   34.5410 H   0  0  0  0  0  0  0  0  0  0  0  0
   38.1830   22.7550   35.9790 C   0  0  0  0  0  0  0  0  0  0  0  0
   39.4560   22.4530   36.4790 C   0  0  0  0  0  0  0  0  0  0  0  0
   40.2170   21.9250   35.8900 H   0  0  0  0  0  0  0  0  0  0  0  0
   39.8990   22.7830   37.7640 C   0  0  0  0  0  0  0  0  0  0  0  0
   40.8920   22.5270   38.1010 H   0  0  0  0  0  0  0  0  0  0  0  0
   39.0520   23.4410   38.6010 C   0  0  0  0  0  3  0  0  0  0  0  0
   37.8140   23.7150   38.0650 C   0  0  0  0  0  3  0  0  0  0  0  0
   37.3890   23.4030   36.8460 N   0  0  0  0  0  0  0  0  0  0  0  0
  1  2  2  0  0  0  0
  2  3  1  0  0  0  0
  2  6  1  0  0  0  0
  3  7  1  0  0  0  0
  4  3  2  0  0  0  0
  5  1  1  0  0  0  0
  5  4  1  0  0  0  0
  8  9  2  0  0  0  0
  8  1  1  0  0  0  0
 10  8  1  0  0  0  0
 11 10  1  0  0  0  0
 11 16  1  0  0  0  0
 12 11  2  0  0  0  0
 13 14  2  0  0  0  0
 13 12  1  0  0  0  0
 14 15  1  0  0  0  0
 15 10  2  0  0  0  0
 17 12  1  0  0  0  0
 18 14  1  0  0  0  0
 19 20  2  0  0  0  0
 19  4  1  0  0  0  0
 21 24  1  6  0  0  0
 21 22  1  0  0  0  0
 21 19  1  0  0  0  0
 21 23  1  0  0  0  0
 22 25  1  0  0  0  0
 22 23  1  0  0  0  0
 23 27  1  6  0  0  0
 23 28  1  0  0  0  0
 26 22  1  0  0  0  0
 28 29  2  0  0  0  0
 28 35  1  0  0  0  0
 29 31  1  0  0  0  0
 30 29  1  0  0  0  0
 31 32  1  0  0  0  0
 31 33  2  0  0  0  0
 34 33  1  0  0  0  0
 35 34  2  0  0  0  0
M  END
>  <minimizedAffinity>
-5.4860177

$$$$

 OpenBabel03272507353D

 35 38  0  0  1  0  0  0  0  0999 V2000
   37.9650   26.1530   34.2720 C   0  0  0  0  0  0  0  0  0  0  0  0
   38.2490   27.2050   33.4270 C   0  0  0  0  0  0  0  0  0  0  0  0
   37.8300   26.8330   32.1380 C   0  0  0  0  0  0  0  0  0  0  0  0
   37.3120   25.5650   32.2890 C   0  0  0  0  0  0  0  0  0  0  0  0
   37.4110   25.2070   33.5510 O   0  0  0  0  0  0  0  0  0  0  0  0
   38.7050   28.1720   33.6180 H   0  0  0  0  0  0  0  0  0  0  0  0
   37.8680   27.3630   31.1840 H   0  0  0  0  0  0  0  0  0  0  0  0
   38.2670   26.1980   35.6900 C   0  0  0  0  0  0  0  0  0  0  0  0
   38.1390   27.2700   36.3040 O   0  0  0  0  0  0  0  0  0  0  0  0
   38.7060   24.9760   36.3070 C   0  0  0  0  0  0  0  0  0  0  0  0
   38.0420   24.5670   37.4470 C   0  0  0  0  0  0  0  0  0  0  0  0
   38.4390   23.3890   38.0750 C   0  0  0  0  0  0  0  0  0  0  0  0
   39.4820   22.6880   37.5180 N   0  0  0  0  0  0  0  0  0  0  0  0
   40.1050   23.1090   36.4140 C   0  0  0  0  0  0  0  0  0  0  0  0
   39.7240   24.2430   35.8080 N   0  0  0  0  0  0  0  0  0  0  0  0
   37.2230   25.1520   37.8520 H   0  0  0  0  0  0  0  0  0  0  0  0
   37.9640   23.0160   38.9650 H   0  0  0  0  0  0  0  0  0  0  0  0
   40.9340   22.5150   36.0080 H   0  0  0  0  0  0  0  0  0  0  0  0
   36.7390   24.7460   31.2200 C   0  0  0  0  0  0  0  0  0  0  0  0
   35.4910   24.8010   31.0120 O   0  0  0  0  0  0  0  0  0  0  0  0
   37.5960   23.8560   30.3950 C   0  0  1  0  0  0  0  0  0  0  0  0
   38.9050   23.4480   31.1830 C   0  0  0  0  0  0  0  0  0  0  0  0
   37.8900   22.4690   30.7470 C   0  0  1  0  0  0  0  0  0  0  0  0
   37.9270   24.3130   29.4060 H   0  0  0  0  0  0  0  0  0  0  0  0
   38.9960   23.7980   32.2080 H   0  0  0  0  0  0  0  0  0  0  0  0
   39.8430   23.4870   30.6100 H   0  0  0  0  0  0  0  0  0  0  0  0
   38.1590   21.8280   29.8440 H   0  0  0  0  0  0  0  0  0  0  0  0
   37.0400   21.7460   31.6880 C   0  0  0  0  0  0  0  0  0  0  0  0
   36.0110   20.9750   31.1310 C   0  0  0  0  0  0  0  0  0  0  0  0
   35.8290   20.9200   30.0500 H   0  0  0  0  0  0  0  0  0  0  0  0
   35.1140   20.2020   31.8730 C   0  0  0  0  0  0  0  0  0  0  0  0
   34.3370   19.6250   31.3940 H   0  0  0  0  0  0  0  0  0  0  0  0
   35.2290   20.1820   33.2290 C   0  0  0  0  0  3  0  0  0  0  0  0
   36.2530   20.9540   33.7280 C   0  0  0  0  0  3  0  0  0  0  0  0
   37.1080   21.6910   33.0270 N   0  0  0  0  0  0  0  0  0  0  0  0
  1  8  1  0  0  0  0
  2  6  1  0  0  0  0
  2  1  2  0  0  0  0
  3  4  2  0  0  0  0
  3  2  1  0  0  0  0
  4  5  1  0  0  0  0
  5  1  1  0  0  0  0
  7  3  1  0  0  0  0
  8  9  2  0  0  0  0
  8 10  1  0  0  0  0
 10 11  1  0  0  0  0
 11 16  1  0  0  0  0
 11 12  2  0  0  0  0
 12 17  1  0  0  0  0
 13 12  1  0  0  0  0
 14 13  2  0  0  0  0
 15 10  2  0  0  0  0
 15 14  1  0  0  0  0
 18 14  1  0  0  0  0
 19  4  1  0  0  0  0
 20 19  2  0  0  0  0
 21 24  1  6  0  0  0
 21 23  1  0  0  0  0
 21 22  1  0  0  0  0
 21 19  1  0  0  0  0
 22 25  1  0  0  0  0
 23 27  1  6  0  0  0
 23 22  1  0  0  0  0
 23 28  1  0  0  0  0
 26 22  1  0  0  0  0
 28 35  1  0  0  0  0
 29 28  2  0  0  0  0
 29 31  1  0  0  0  0
 30 29  1  0  0  0  0
 31 33  2  0  0  0  0
 32 31  1  0  0  0  0
 33 34  1  0  0  0  0
 35 34  2  0  0  0  0
M  END
>  <minimizedAffinity>
-5.45763826

$$$$

 OpenBabel03272507353D

 35 38  0  0  1  0  0  0  0  0999 V2000
   36.9890   27.4750   34.6840 C   0  0  0  0  0  0  0  0  0  0  0  0
   37.9780   27.9570   35.5170 C   0  0  0  0  0  0  0  0  0  0  0  0
   38.5510   26.8530   36.1700 C   0  0  0  0  0  0  0  0  0  0  0  0
   37.8660   25.7610   35.6830 C   0  0  0  0  0  0  0  0  0  0  0  0
   36.9620   26.1700   34.8180 O   0  0  0  0  0  0  0  0  0  0  0  0
   38.3220   28.9690   35.7050 H   0  0  0  0  0  0  0  0  0  0  0  0
   39.3560   26.7840   36.9050 H   0  0  0  0  0  0  0  0  0  0  0  0
   36.1870   28.3510   33.8510 C   0  0  0  0  0  0  0  0  0  0  0  0
   35.2580   28.9940   34.3660 O   0  0  0  0  0  0  0  0  0  0  0  0
   36.5240   28.4200   32.4560 C   0  0  0  0  0  0  0  0  0  0  0  0
   36.1090   29.5360   31.7570 C   0  0  0  0  0  0  0  0  0  0  0  0
   36.4140   29.6390   30.4020 C   0  0  0  0  0  0  0  0  0  0  0  0
   37.1220   28.6110   29.8270 N   0  0  0  0  0  0  0  0  0  0  0  0
   37.5110   27.5420   30.5290 C   0  0  0  0  0  0  0  0  0  0  0  0
   37.2170   27.4430   31.8340 N   0  0  0  0  0  0  0  0  0  0  0  0
   35.5520   30.3250   32.2520 H   0  0  0  0  0  0  0  0  0  0  0  0
   36.1210   30.4820   29.8020 H   0  0  0  0  0  0  0  0  0  0  0  0
   38.0740   26.7470   30.0250 H   0  0  0  0  0  0  0  0  0  0  0  0
   38.1040   24.3670   36.0610 C   0  0  0  0  0  0  0  0  0  0  0  0
   37.3120   23.8140   36.8810 O   0  0  0  0  0  0  0  0  0  0  0  0
   39.2530   23.6090   35.5060 C   0  0  1  0  0  0  0  0  0  0  0  0
   39.0250   22.0510   35.6590 C   0  0  0  0  0  0  0  0  0  0  0  0
   39.1490   22.7220   34.3490 C   0  0  1  0  0  0  0  0  0  0  0  0
   40.2530   23.8510   35.9940 H   0  0  0  0  0  0  0  0  0  0  0  0
   38.0750   21.7290   36.0770 H   0  0  0  0  0  0  0  0  0  0  0  0
   39.8910   21.4700   36.0090 H   0  0  0  0  0  0  0  0  0  0  0  0
   40.1400   22.5850   33.8030 H   0  0  0  0  0  0  0  0  0  0  0  0
   38.0320   22.8430   33.4200 C   0  0  0  0  0  0  0  0  0  0  0  0
   37.1060   21.7910   33.4200 C   0  0  0  0  0  0  0  0  0  0  0  0
   37.2090   20.9090   34.0650 H   0  0  0  0  0  0  0  0  0  0  0  0
   35.9650   21.7440   32.6140 C   0  0  0  0  0  0  0  0  0  0  0  0
   35.2820   20.9080   32.6520 H   0  0  0  0  0  0  0  0  0  0  0  0
   35.7170   22.7770   31.7640 C   0  0  0  0  0  3  0  0  0  0  0  0
   36.6530   23.7860   31.8000 C   0  0  0  0  0  3  0  0  0  0  0  0
   37.7390   23.8350   32.5640 N   0  0  0  0  0  0  0  0  0  0  0  0
  1  5  1  0  0  0  0
  1  2  2  0  0  0  0
  2  6  1  0  0  0  0
  2  3  1  0  0  0  0
  3  7  1  0  0  0  0
  4 19  1  0  0  0  0
  4  3  2  0  0  0  0
  5  4  1  0  0  0  0
  8  9  2  0  0  0  0
  8  1  1  0  0  0  0
 10  8  1  0  0  0  0
 11 16  1  0  0  0  0
 11 10  2  0  0  0  0
 12 11  1  0  0  0  0
 13 12  2  0  0  0  0
 13 14  1  0  0  0  0
 14 15  2  0  0  0  0
 15 10  1  0  0  0  0
 17 12  1  0  0  0  0
 18 14  1  0  0  0  0
 19 20  2  0  0  0  0
 21 22  1  0  0  0  0
 21 24  1  1  0  0  0
 21 19  1  0  0  0  0
 22 26  1  0  0  0  0
 22 25  1  0  0  0  0
 23 27  1  6  0  0  0
 23 21  1  0  0  0  0
 23 22  1  0  0  0  0
 28 23  1  0  0  0  0
 29 28  1  0  0  0  0
 29 30  1  0  0  0  0
 31 32  1  0  0  0  0
 31 29  2  0  0  0  0
 33 34  2  0  0  0  0
 33 31  1  0  0  0  0
 34 35  1  0  0  0  0
 35 28  2  0  0  0  0
M  END
>  <minimizedAffinity>
-5.41002607

$$$$

 OpenBabel03272507353D

 35 38  0  0  1  0  0  0  0  0999 V2000
   37.0630   23.8300   31.6240 C   0  0  0  0  0  0  0  0  0  0  0  0
   36.0700   24.6110   31.0700 C   0  0  0  0  0  0  0  0  0  0  0  0
   36.0330   25.8160   31.7920 C   0  0  0  0  0  0  0  0  0  0  0  0
   37.0180   25.6860   32.7460 C   0  0  0  0  0  0  0  0  0  0  0  0
   37.5940   24.5100   32.6120 O   0  0  0  0  0  0  0  0  0  0  0  0
   35.3940   24.4250   30.2410 H   0  0  0  0  0  0  0  0  0  0  0  0
   35.4030   26.7030   31.6880 H   0  0  0  0  0  0  0  0  0  0  0  0
   37.3760   22.5070   31.1180 C   0  0  0  0  0  0  0  0  0  0  0  0
   38.2510   22.3830   30.2460 O   0  0  0  0  0  0  0  0  0  0  0  0
   36.6400   21.4020   31.6690 C   0  0  0  0  0  0  0  0  0  0  0  0
   36.3180   21.4610   33.0100 C   0  0  0  0  0  0  0  0  0  0  0  0
   35.6070   20.4080   33.5820 C   0  0  0  0  0  0  0  0  0  0  0  0
   35.2590   19.3560   32.7690 N   0  0  0  0  0  0  0  0  0  0  0  0
   35.5860   19.3270   31.4740 C   0  0  0  0  0  0  0  0  0  0  0  0
   36.2700   20.3400   30.9220 N   0  0  0  0  0  0  0  0  0  0  0  0
   36.6120   22.3110   33.6150 H   0  0  0  0  0  0  0  0  0  0  0  0
   35.3250   20.3920   34.6200 H   0  0  0  0  0  0  0  0  0  0  0  0
   35.2860   18.4640   30.8650 H   0  0  0  0  0  0  0  0  0  0  0  0
   37.3730   26.6910   33.7480 C   0  0  0  0  0  0  0  0  0  0  0  0
   36.4510   27.3880   34.2660 O   0  0  0  0  0  0  0  0  0  0  0  0
   38.7860   26.9050   34.1500 C   0  0  1  0  0  0  0  0  0  0  0  0
   38.8750   27.3910   35.6530 C   0  0  0  0  0  0  0  0  0  0  0  0
   39.4570   26.1180   35.1830 C   0  0  1  0  0  0  0  0  0  0  0  0
   39.3430   27.6700   33.5160 H   0  0  0  0  0  0  0  0  0  0  0  0
   37.9430   27.4530   36.2090 H   0  0  0  0  0  0  0  0  0  0  0  0
   39.5730   28.2190   35.8500 H   0  0  0  0  0  0  0  0  0  0  0  0
   40.5890   26.0940   35.0590 H   0  0  0  0  0  0  0  0  0  0  0  0
   38.9300   24.8190   35.5850 C   0  0  0  0  0  0  0  0  0  0  0  0
   39.5440   23.6960   35.0150 C   0  0  0  0  0  0  0  0  0  0  0  0
   40.3660   23.7710   34.2930 H   0  0  0  0  0  0  0  0  0  0  0  0
   39.1880   22.3730   35.2960 C   0  0  0  0  0  0  0  0  0  0  0  0
   39.6940   21.5420   34.8290 H   0  0  0  0  0  0  0  0  0  0  0  0
   38.1790   22.1380   36.1790 C   0  0  0  0  0  3  0  0  0  0  0  0
   37.6080   23.2710   36.7110 C   0  0  0  0  0  3  0  0  0  0  0  0
   37.9420   24.5290   36.4470 N   0  0  0  0  0  0  0  0  0  0  0  0
  1  5  1  0  0  0  0
  2  1  2  0  0  0  0
  2  3  1  0  0  0  0
  3  4  2  0  0  0  0
  4 19  1  0  0  0  0
  5  4  1  0  0  0  0
  6  2  1  0  0  0  0
  7  3  1  0  0  0  0
  8  1  1  0  0  0  0
  8 10  1  0  0  0  0
  9  8  2  0  0  0  0
 10 11  1  0  0  0  0
 11 12  2  0  0  0  0
 11 16  1  0  0  0  0
 12 17  1  0  0  0  0
 13 12  1  0  0  0  0
 14 13  2  0  0  0  0
 15 14  1  0  0  0  0
 15 10  2  0  0  0  0
 18 14  1  0  0  0  0
 19 21  1  0  0  0  0
 19 20  2  0  0  0  0
 21 24  1  6  0  0  0
 21 23  1  0  0  0  0
 21 22  1  0  0  0  0
 22 26  1  0  0  0  0
 22 25  1  0  0  0  0
 23 27  1  6  0  0  0
 23 28  1  0  0  0  0
 23 22  1  0  0  0  0
 28 35  1  0  0  0  0
 29 31  1  0  0  0  0
 29 28  2  0  0  0  0
 30 29  1  0  0  0  0
 31 33  2  0  0  0  0
 32 31  1  0  0  0  0
 33 34  1  0  0  0  0
 35 34  2  0  0  0  0
M  END
>  <minimizedAffinity>
-5.35456371

$$$$

 OpenBabel03272507353D

 35 38  0  0  1  0  0  0  0  0999 V2000
   36.9250   26.5550   33.0820 C   0  0  0  0  0  0  0  0  0  0  0  0
   36.9770   27.6200   33.9580 C   0  0  0  0  0  0  0  0  0  0  0  0
   37.4830   27.1370   35.1760 C   0  0  0  0  0  0  0  0  0  0  0  0
   37.7090   25.7960   34.9570 C   0  0  0  0  0  0  0  0  0  0  0  0
   37.3680   25.4980   33.7210 O   0  0  0  0  0  0  0  0  0  0  0  0
   36.7040   28.6630   33.8300 H   0  0  0  0  0  0  0  0  0  0  0  0
   37.6830   27.6380   36.1260 H   0  0  0  0  0  0  0  0  0  0  0  0
   36.4480   26.6980   31.7200 C   0  0  0  0  0  0  0  0  0  0  0  0
   35.6240   25.8810   31.2770 O   0  0  0  0  0  0  0  0  0  0  0  0
   36.9690   27.7970   30.9540 C   0  0  0  0  0  0  0  0  0  0  0  0
   38.2580   27.6800   30.4730 C   0  0  0  0  0  0  0  0  0  0  0  0
   38.8000   28.7240   29.7280 C   0  0  0  0  0  0  0  0  0  0  0  0
   38.0120   29.8280   29.5070 N   0  0  0  0  0  0  0  0  0  0  0  0
   36.7670   29.9130   29.9850 C   0  0  0  0  0  0  0  0  0  0  0  0
   36.2440   28.9080   30.7030 N   0  0  0  0  0  0  0  0  0  0  0  0
   38.8450   26.7900   30.6720 H   0  0  0  0  0  0  0  0  0  0  0  0
   39.7980   28.6960   29.3260 H   0  0  0  0  0  0  0  0  0  0  0  0
   36.1760   30.8150   29.7830 H   0  0  0  0  0  0  0  0  0  0  0  0
   38.2440   24.8500   35.9370 C   0  0  0  0  0  0  0  0  0  0  0  0
   37.7080   24.7900   37.0830 O   0  0  0  0  0  0  0  0  0  0  0  0
   39.4000   23.9780   35.6070 C   0  0  1  0  0  0  0  0  0  0  0  0
   39.6680   22.9370   36.7670 C   0  0  0  0  0  0  0  0  0  0  0  0
   39.2880   22.5370   35.3970 C   0  0  1  0  0  0  0  0  0  0  0  0
   40.3750   24.5410   35.4290 H   0  0  0  0  0  0  0  0  0  0  0  0
   38.9740   22.9390   37.6030 H   0  0  0  0  0  0  0  0  0  0  0  0
   40.7210   22.7990   37.0550 H   0  0  0  0  0  0  0  0  0  0  0  0
   40.1200   22.1160   34.7430 H   0  0  0  0  0  0  0  0  0  0  0  0
   37.9980   21.9310   35.0860 C   0  0  0  0  0  0  0  0  0  0  0  0
   37.7480   21.6590   33.7340 C   0  0  0  0  0  0  0  0  0  0  0  0
   38.4660   21.8980   32.9390 H   0  0  0  0  0  0  0  0  0  0  0  0
   36.5790   21.0650   33.2510 C   0  0  0  0  0  0  0  0  0  0  0  0
   36.4370   20.8770   32.1970 H   0  0  0  0  0  0  0  0  0  0  0  0
   35.6050   20.7180   34.1350 C   0  0  0  0  0  3  0  0  0  0  0  0
   35.8950   21.0050   35.4490 C   0  0  0  0  0  3  0  0  0  0  0  0
   37.0040   21.5700   35.9130 N   0  0  0  0  0  0  0  0  0  0  0  0
  1  5  1  0  0  0  0
  1  2  2  0  0  0  0
  2  3  1  0  0  0  0
  3  7  1  0  0  0  0
  4  3  2  0  0  0  0
  4 19  1  0  0  0  0
  5  4  1  0  0  0  0
  6  2  1  0  0  0  0
  8  1  1  0  0  0  0
  9  8  2  0  0  0  0
 10  8  1  0  0  0  0
 11 16  1  0  0  0  0
 11 10  2  0  0  0  0
 12 11  1  0  0  0  0
 13 12  2  0  0  0  0
 13 14  1  0  0  0  0
 14 15  2  0  0  0  0
 15 10  1  0  0  0  0
 17 12  1  0  0  0  0
 18 14  1  0  0  0  0
 19 20  2  0  0  0  0
 21 24  1  6  0  0  0
 21 19  1  0  0  0  0
 21 22  1  0  0  0  0
 22 26  1  0  0  0  0
 22 25  1  0  0  0  0
 23 27  1  6  0  0  0
 23 21  1  0  0  0  0
 23 22  1  0  0  0  0
 28 23  1  0  0  0  0
 28 35  1  0  0  0  0
 29 28  2  0  0  0  0
 30 29  1  0  0  0  0
 31 29  1  0  0  0  0
 31 33  2  0  0  0  0
 32 31  1  0  0  0  0
 33 34  1  0  0  0  0
 34 35  2  0  0  0  0
M  END
>  <minimizedAffinity>
-5.35314608

$$$$

 OpenBabel03272507353D

 35 38  0  0  1  0  0  0  0  0999 V2000
   36.9980   27.6160   33.1230 C   0  0  0  0  0  0  0  0  0  0  0  0
   36.8600   27.5050   34.4910 C   0  0  0  0  0  0  0  0  0  0  0  0
   37.4460   26.2870   34.8740 C   0  0  0  0  0  0  0  0  0  0  0  0
   37.9080   25.7330   33.7010 C   0  0  0  0  0  0  0  0  0  0  0  0
   37.6240   26.5430   32.7020 O   0  0  0  0  0  0  0  0  0  0  0  0
   36.4040   28.1690   35.2190 H   0  0  0  0  0  0  0  0  0  0  0  0
   37.5550   25.8120   35.8520 H   0  0  0  0  0  0  0  0  0  0  0  0
   36.5000   28.7630   32.3880 C   0  0  0  0  0  0  0  0  0  0  0  0
   37.1000   29.1340   31.3660 O   0  0  0  0  0  0  0  0  0  0  0  0
   35.3230   29.4100   32.8980 C   0  0  0  0  0  0  0  0  0  0  0  0
   35.5000   30.5820   33.6060 C   0  0  0  0  0  0  0  0  0  0  0  0
   34.3830   31.2380   34.1190 C   0  0  0  0  0  0  0  0  0  0  0  0
   33.1500   30.6760   33.8890 N   0  0  0  0  0  0  0  0  0  0  0  0
   33.0100   29.5400   33.2000 C   0  0  0  0  0  0  0  0  0  0  0  0
   34.0840   28.9080   32.7050 N   0  0  0  0  0  0  0  0  0  0  0  0
   36.4920   30.9900   33.7640 H   0  0  0  0  0  0  0  0  0  0  0  0
   34.4530   32.1540   34.6790 H   0  0  0  0  0  0  0  0  0  0  0  0
   32.0040   29.1300   33.0420 H   0  0  0  0  0  0  0  0  0  0  0  0
   38.6060   24.4530   33.5780 C   0  0  0  0  0  0  0  0  0  0  0  0
   39.8710   24.4520   33.5110 O   0  0  0  0  0  0  0  0  0  0  0  0
   37.8540   23.1740   33.5250 C   0  0  1  0  0  0  0  0  0  0  0  0
   38.8380   21.9400   33.6240 C   0  0  0  0  0  0  0  0  0  0  0  0
   37.7990   22.2250   34.6340 C   0  0  1  0  0  0  0  0  0  0  0  0
   37.2350   23.0340   32.5790 H   0  0  0  0  0  0  0  0  0  0  0  0
   39.8920   22.1570   33.7730 H   0  0  0  0  0  0  0  0  0  0  0  0
   38.6440   21.1120   32.9250 H   0  0  0  0  0  0  0  0  0  0  0  0
   36.8720   21.5620   34.6080 H   0  0  0  0  0  0  0  0  0  0  0  0
   38.1200   22.6520   35.9920 C   0  0  0  0  0  0  0  0  0  0  0  0
   39.4320   22.4170   36.4230 C   0  0  0  0  0  0  0  0  0  0  0  0
   40.1850   21.9250   35.7950 H   0  0  0  0  0  0  0  0  0  0  0  0
   39.9260   22.7750   37.6810 C   0  0  0  0  0  0  0  0  0  0  0  0
   40.9470   22.5710   37.9650 H   0  0  0  0  0  0  0  0  0  0  0  0
   39.0930   23.3940   38.5620 C   0  0  0  0  0  3  0  0  0  0  0  0
   37.8160   23.6030   38.0930 C   0  0  0  0  0  3  0  0  0  0  0  0
   37.3420   23.2630   36.8990 N   0  0  0  0  0  0  0  0  0  0  0  0
  1  2  2  0  0  0  0
  2  3  1  0  0  0  0
  2  6  1  0  0  0  0
  3  7  1  0  0  0  0
  4  3  2  0  0  0  0
  5  1  1  0  0  0  0
  5  4  1  0  0  0  0
  8 10  1  0  0  0  0
  8  1  1  0  0  0  0
  9  8  2  0  0  0  0
 10 11  1  0  0  0  0
 11 16  1  0  0  0  0
 11 12  2  0  0  0  0
 12 17  1  0  0  0  0
 13 12  1  0  0  0  0
 14 13  2  0  0  0  0
 15 10  2  0  0  0  0
 15 14  1  0  0  0  0
 18 14  1  0  0  0  0
 19  4  1  0  0  0  0
 20 19  2  0  0  0  0
 21 24  1  6  0  0  0
 21 19  1  0  0  0  0
 21 22  1  0  0  0  0
 21 23  1  0  0  0  0
 22 25  1  0  0  0  0
 22 23  1  0  0  0  0
 23 27  1  6  0  0  0
 23 28  1  0  0  0  0
 26 22  1  0  0  0  0
 28 29  2  0  0  0  0
 28 35  1  0  0  0  0
 29 31  1  0  0  0  0
 30 29  1  0  0  0  0
 31 32  1  0  0  0  0
 31 33  2  0  0  0  0
 34 33  1  0  0  0  0
 35 34  2  0  0  0  0
M  END
>  <minimizedAffinity>
-5.31160164

$$$$

 OpenBabel03272507353D

 35 38  0  0  1  0  0  0  0  0999 V2000
   36.1590   23.9810   31.7640 C   0  0  0  0  0  0  0  0  0  0  0  0
   35.6760   22.7140   31.5080 C   0  0  0  0  0  0  0  0  0  0  0  0
   36.4130   21.8160   32.2980 C   0  0  0  0  0  0  0  0  0  0  0  0
   37.3030   22.6060   32.9920 C   0  0  0  0  0  0  0  0  0  0  0  0
   37.1210   23.8640   32.6490 O   0  0  0  0  0  0  0  0  0  0  0  0
   34.8880   22.3720   30.8440 H   0  0  0  0  0  0  0  0  0  0  0  0
   36.3580   20.7300   32.4020 H   0  0  0  0  0  0  0  0  0  0  0  0
   35.6200   25.1590   31.1130 C   0  0  0  0  0  0  0  0  0  0  0  0
   34.5290   25.0820   30.5250 O   0  0  0  0  0  0  0  0  0  0  0  0
   36.3980   26.3650   31.1890 C   0  0  0  0  0  0  0  0  0  0  0  0
   35.8110   27.4620   31.7870 C   0  0  0  0  0  0  0  0  0  0  0  0
   36.5320   28.6500   31.8780 C   0  0  0  0  0  0  0  0  0  0  0  0
   37.8060   28.6650   31.3640 N   0  0  0  0  0  0  0  0  0  0  0  0
   38.3490   27.5870   30.7910 C   0  0  0  0  0  0  0  0  0  0  0  0
   37.6550   26.4430   30.7030 N   0  0  0  0  0  0  0  0  0  0  0  0
   34.8010   27.4060   32.1800 H   0  0  0  0  0  0  0  0  0  0  0  0
   36.1320   29.5410   32.3320 H   0  0  0  0  0  0  0  0  0  0  0  0
   39.3700   27.6490   30.3940 H   0  0  0  0  0  0  0  0  0  0  0  0
   38.2920   22.1290   33.9580 C   0  0  0  0  0  0  0  0  0  0  0  0
   39.3800   21.6410   33.5280 O   0  0  0  0  0  0  0  0  0  0  0  0
   38.0340   22.2030   35.4190 C   0  0  1  0  0  0  0  0  0  0  0  0
   39.3900   22.1860   36.2310 C   0  0  0  0  0  0  0  0  0  0  0  0
   38.4520   23.3260   36.2550 C   0  0  1  0  0  0  0  0  0  0  0  0
   37.3890   21.3550   35.8230 H   0  0  0  0  0  0  0  0  0  0  0  0
   40.3120   22.1830   35.6560 H   0  0  0  0  0  0  0  0  0  0  0  0
   39.4120   21.5350   37.1190 H   0  0  0  0  0  0  0  0  0  0  0  0
   37.8180   23.4400   37.1950 H   0  0  0  0  0  0  0  0  0  0  0  0
   38.7700   24.6170   35.6570 C   0  0  0  0  0  0  0  0  0  0  0  0
   37.7300   25.5540   35.6100 C   0  0  0  0  0  0  0  0  0  0  0  0
   36.7200   25.3390   35.9830 H   0  0  0  0  0  0  0  0  0  0  0  0
   37.8540   26.8470   35.0930 C   0  0  0  0  0  0  0  0  0  0  0  0
   37.0190   27.5310   35.0800 H   0  0  0  0  0  0  0  0  0  0  0  0
   39.0570   27.2430   34.5960 C   0  0  0  0  0  3  0  0  0  0  0  0
   40.0470   26.2900   34.6640 C   0  0  0  0  0  3  0  0  0  0  0  0
   39.9330   25.0600   35.1540 N   0  0  0  0  0  0  0  0  0  0  0  0
  1  5  1  0  0  0  0
  2  1  2  0  0  0  0
  2  3  1  0  0  0  0
  3  7  1  0  0  0  0
  3  4  2  0  0  0  0
  4 19  1  0  0  0  0
  5  4  1  0  0  0  0
  6  2  1  0  0  0  0
  8 10  1  0  0  0  0
  8  1  1  0  0  0  0
  9  8  2  0  0  0  0
 10 11  1  0  0  0  0
 11 12  2  0  0  0  0
 11 16  1  0  0  0  0
 12 17  1  0  0  0  0
 13 12  1  0  0  0  0
 14 13  2  0  0  0  0
 15 14  1  0  0  0  0
 15 10  2  0  0  0  0
 18 14  1  0  0  0  0
 19 21  1  0  0  0  0
 20 19  2  0  0  0  0
 21 24  1  1  0  0  0
 21 22  1  0  0  0  0
 21 23  1  0  0  0  0
 22 23  1  0  0  0  0
 22 26  1  0  0  0  0
 23 27  1  1  0  0  0
 25 22  1  0  0  0  0
 28 23  1  0  0  0  0
 29 28  1  0  0  0  0
 29 30  1  0  0  0  0
 31 29  2  0  0  0  0
 32 31  1  0  0  0  0
 33 34  2  0  0  0  0
 33 31  1  0  0  0  0
 34 35  1  0  0  0  0
 35 28  2  0  0  0  0
M  END
>  <minimizedAffinity>
-5.30173683

$$$$
