
 OpenBabel03272508443D

 26 28  0  0  0  0  0  0  0  0999 V2000
   35.7890   29.9240   49.7900 C   0  0  0  0  0  0  0  0  0  0  0  0
   36.8040   29.3320   50.5180 C   0  0  0  0  0  0  0  0  0  0  0  0
   37.9120   30.1010   50.1640 C   0  0  0  0  0  0  0  0  0  0  0  0
   37.5460   31.0830   49.2780 C   0  0  0  0  0  0  0  0  0  0  0  0
   36.2520   30.9500   49.0710 O   0  0  0  0  0  0  0  0  0  0  0  0
   36.7540   28.5010   51.1810 H   0  0  0  0  0  0  0  0  0  0  0  0
   38.9280   29.9680   50.5190 H   0  0  0  0  0  0  0  0  0  0  0  0
   38.3940   32.0980   48.6610 C   0  0  0  0  0  0  0  0  0  0  0  0
   38.7050   33.2290   49.4120 C   0  0  0  0  0  0  0  0  0  0  0  0
   38.3580   33.4050   50.4230 H   0  0  0  0  0  0  0  0  0  0  0  0
   39.5170   34.2170   48.8420 C   0  0  0  0  0  0  0  0  0  0  0  0
   39.8240   35.1320   49.3240 H   0  0  0  0  0  0  0  0  0  0  0  0
   39.9260   33.9360   47.5560 C   0  0  0  0  0  3  0  0  0  0  0  0
   39.6360   32.8290   46.7900 C   0  0  0  0  0  3  0  0  0  0  0  0
   38.8480   31.9210   47.4070 N   0  0  0  0  0  0  0  0  0  0  0  0
   34.3880   29.4810   49.8080 C   0  0  0  0  0  0  0  0  0  0  0  0
   33.6960   29.7840   50.8150 O   0  0  0  0  0  0  0  0  0  0  0  0
   32.2360   27.2370   47.9370 C   0  0  0  0  0  0  0  0  0  0  0  0
   32.7720   27.2760   46.6450 C   0  0  0  0  0  0  0  0  0  0  0  0
   33.8820   28.0760   46.4070 C   0  0  0  0  0  0  0  0  0  0  0  0
   34.3840   28.7810   47.4530 N   0  0  0  0  0  0  0  0  0  0  0  0
   33.8460   28.7260   48.6930 C   0  0  0  0  0  0  0  0  0  0  0  0
   32.7720   27.9540   48.9360 N   0  0  0  0  0  0  0  0  0  0  0  0
   31.3710   26.6290   48.1730 H   0  0  0  0  0  0  0  0  0  0  0  0
   32.3200   26.6850   45.8520 H   0  0  0  0  0  0  0  0  0  0  0  0
   34.3330   28.1370   45.4180 H   0  0  0  0  0  0  0  0  0  0  0  0
  1 16  1  0  0  0  0
  1  2  2  0  0  0  0
  2  6  1  0  0  0  0
  3  2  1  0  0  0  0
  3  7  1  0  0  0  0
  4  3  2  0  0  0  0
  5  4  1  0  0  0  0
  5  1  1  0  0  0  0
  8  4  1  0  0  0  0
  8  9  1  0  0  0  0
  9 10  1  0  0  0  0
 11 12  1  0  0  0  0
 11  9  2  0  0  0  0
 13 11  1  0  0  0  0
 14 15  1  0  0  0  0
 14 13  2  0  0  0  0
 15  8  2  0  0  0  0
 16 17  2  0  0  0  0
 18 24  1  0  0  0  0
 18 23  1  0  0  0  0
 19 18  2  0  0  0  0
 20 19  1  0  0  0  0
 20 21  2  0  0  0  0
 21 22  1  0  0  0  0
 22 23  2  0  0  0  0
 22 16  1  0  0  0  0
 25 19  1  0  0  0  0
 26 20  1  0  0  0  0
M  END
>  <minimizedAffinity>
-5.57470274

>  <minimizedRMSD>
2.1445446

$$$$
