
 OpenBabel03272508443D

 26 28  0  0  0  0  0  0  0  0999 V2000
   35.8180   29.9640   49.8210 C   0  0  0  0  0  0  0  0  0  0  0  0
   36.8280   29.3680   50.5530 C   0  0  0  0  0  0  0  0  0  0  0  0
   37.9360   30.1470   50.2240 C   0  0  0  0  0  0  0  0  0  0  0  0
   37.5740   31.1400   49.3470 C   0  0  0  0  0  0  0  0  0  0  0  0
   36.2840   31.0020   49.1210 O   0  0  0  0  0  0  0  0  0  0  0  0
   36.7750   28.5280   51.2040 H   0  0  0  0  0  0  0  0  0  0  0  0
   38.9480   30.0160   50.5890 H   0  0  0  0  0  0  0  0  0  0  0  0
   38.4250   32.1680   48.7530 C   0  0  0  0  0  0  0  0  0  0  0  0
   38.7350   33.2810   49.5310 C   0  0  0  0  0  0  0  0  0  0  0  0
   38.3880   33.4330   50.5460 H   0  0  0  0  0  0  0  0  0  0  0  0
   39.5490   34.2800   48.9850 C   0  0  0  0  0  0  0  0  0  0  0  0
   39.8560   35.1840   49.4880 H   0  0  0  0  0  0  0  0  0  0  0  0
   39.9590   34.0300   47.6930 C   0  0  0  0  0  3  0  0  0  0  0  0
   39.6680   32.9410   46.9010 C   0  0  0  0  0  3  0  0  0  0  0  0
   38.8790   32.0200   47.4950 N   0  0  0  0  0  0  0  0  0  0  0  0
   34.4200   29.5130   49.8150 C   0  0  0  0  0  0  0  0  0  0  0  0
   33.7200   29.7810   50.8260 O   0  0  0  0  0  0  0  0  0  0  0  0
   32.3360   27.2620   47.8760 C   0  0  0  0  0  0  0  0  0  0  0  0
   32.8410   27.3920   46.5780 C   0  0  0  0  0  0  0  0  0  0  0  0
   33.9060   28.2550   46.3590 C   0  0  0  0  0  0  0  0  0  0  0  0
   34.3970   28.9310   47.4280 N   0  0  0  0  0  0  0  0  0  0  0  0
   33.8900   28.7880   48.6750 C   0  0  0  0  0  0  0  0  0  0  0  0
   32.8600   27.9540   48.9000 N   0  0  0  0  0  0  0  0  0  0  0  0
   31.5070   26.6010   48.0980 H   0  0  0  0  0  0  0  0  0  0  0  0
   32.4000   26.8190   45.7640 H   0  0  0  0  0  0  0  0  0  0  0  0
   34.3320   28.3880   45.3650 H   0  0  0  0  0  0  0  0  0  0  0  0
  1  2  2  0  0  0  0
  2  6  1  0  0  0  0
  3  2  1  0  0  0  0
  3  7  1  0  0  0  0
  4  3  2  0  0  0  0
  5  4  1  0  0  0  0
  5  1  1  0  0  0  0
  8  4  1  0  0  0  0
  8  9  1  0  0  0  0
  9 10  1  0  0  0  0
 11 12  1  0  0  0  0
 11  9  2  0  0  0  0
 13 11  1  0  0  0  0
 14 15  1  0  0  0  0
 14 13  2  0  0  0  0
 15  8  2  0  0  0  0
 16  1  1  0  0  0  0
 16 17  2  0  0  0  0
 18 24  1  0  0  0  0
 18 23  1  0  0  0  0
 19 18  2  0  0  0  0
 20 19  1  0  0  0  0
 20 21  2  0  0  0  0
 21 22  1  0  0  0  0
 22 23  2  0  0  0  0
 22 16  1  0  0  0  0
 25 19  1  0  0  0  0
 26 20  1  0  0  0  0
M  END
>  <minimizedAffinity>
-5.58732986

>  <minimizedRMSD>
2.04615688

$$$$
