
 OpenBabel03272510083D

 43 47  0  0  0  0  0  0  0  0999 V2000
   34.9480   30.1710   47.6260 C   0  0  0  0  0  0  0  0  0  0  0  0
   34.8310   30.3780   48.9650 N   0  0  0  0  0  0  0  0  0  0  0  0
   35.8830   30.8370   49.6600 C   0  0  0  0  0  0  0  0  0  0  0  0
   37.0990   31.1230   49.1200 N   0  0  0  0  0  0  0  0  0  0  0  0
   37.2490   30.9290   47.7930 C   0  0  0  0  0  0  0  0  0  0  0  0
   38.4400   31.2160   47.1380 C   0  0  0  0  0  0  0  0  0  0  0  0
   38.5560   31.0310   45.7600 C   0  0  0  0  0  0  0  0  0  0  0  0
   37.4520   30.5500   45.0440 C   0  0  0  0  0  0  0  0  0  0  0  0
   36.2840   30.2760   45.7390 C   0  0  0  0  0  0  0  0  0  0  0  0
   36.1690   30.4580   47.0840 C   0  0  0  0  0  0  0  0  0  0  0  0
   35.8280   31.0160   50.7350 H   0  0  0  0  0  0  0  0  0  0  0  0
   39.2290   31.5790   47.7790 H   0  0  0  0  0  0  0  0  0  0  0  0
   39.5250   31.2880   45.3570 H   0  0  0  0  0  0  0  0  0  0  0  0
   37.7410   30.4780   44.0080 H   0  0  0  0  0  0  0  0  0  0  0  0
   33.3870   28.3630   46.7340 C   0  0  0  0  0  0  0  0  0  0  0  0
   33.7730   29.7020   46.9780 C   0  0  0  0  0  0  0  0  0  0  0  0
   32.9210   30.7390   46.5230 C   0  0  0  0  0  0  0  0  0  0  0  0
   31.7690   30.4260   45.8680 N   0  0  0  0  0  0  0  0  0  0  0  0
   31.4580   29.1140   45.6620 C   0  0  0  0  0  0  0  0  0  0  0  0
   32.2370   28.1120   46.0810 N   0  0  0  0  0  0  0  0  0  0  0  0
   30.2390   28.8400   44.9300 N   0  0  0  0  0  0  0  0  0  0  0  0
   28.9320   29.2310   45.3690 C   0  0  0  0  0  0  0  0  0  0  0  0
   28.0430   28.9490   44.1970 C   0  0  0  0  0  0  0  0  0  0  0  0
   28.9480   28.6700   43.0160 C   0  0  0  0  0  0  0  0  0  0  0  0
   30.1880   28.1310   43.6390 C   0  0  0  0  0  0  0  0  0  0  0  0
   34.0760   27.6320   47.1090 H   0  0  0  0  0  0  0  0  0  0  0  0
   33.1270   31.7740   46.6650 H   0  0  0  0  0  0  0  0  0  0  0  0
   28.8730   30.2940   45.6110 H   0  0  0  0  0  0  0  0  0  0  0  0
   28.6970   28.5790   46.2560 H   0  0  0  0  0  0  0  0  0  0  0  0
   27.4990   27.9930   44.3990 H   0  0  0  0  0  0  0  0  0  0  0  0
   27.2920   29.7290   44.0060 H   0  0  0  0  0  0  0  0  0  0  0  0
   29.1740   29.6450   42.4990 H   0  0  0  0  0  0  0  0  0  0  0  0
   28.5070   27.9570   42.2960 H   0  0  0  0  0  0  0  0  0  0  0  0
   30.2360   27.0450   43.7500 H   0  0  0  0  0  0  0  0  0  0  0  0
   31.0730   28.4850   43.0700 H   0  0  0  0  0  0  0  0  0  0  0  0
   35.3850   29.8260   44.6880 C   0  0  0  0  0  0  0  0  0  0  0  0
   35.1520   28.5640   44.1840 C   0  0  0  0  0  0  0  0  0  0  0  0
   35.7200   27.7880   44.7260 H   0  0  0  0  0  0  0  0  0  0  0  0
   34.3720   28.1620   43.1330 C   0  0  0  0  0  0  0  0  0  0  0  0
   34.3180   27.1120   42.8910 H   0  0  0  0  0  0  0  0  0  0  0  0
   33.7360   29.2090   42.5060 C   0  0  0  0  0  3  0  0  0  0  0  0
   33.9260   30.4930   42.9570 C   0  0  0  0  0  3  0  0  0  0  0  0
   34.7080   30.8080   43.9970 N   0  0  0  0  0  0  0  0  0  0  0  0
  1  2  1  0  0  0  0
  2  3  2  0  0  0  0
  3 11  1  0  0  0  0
  4  3  1  0  0  0  0
  5  4  2  0  0  0  0
  6 12  1  0  0  0  0
  6  5  1  0  0  0  0
  7  6  2  0  0  0  0
  8  9  2  0  0  0  0
  8  7  1  0  0  0  0
  9 10  1  0  0  0  0
 10  1  2  0  0  0  0
 10  5  1  0  0  0  0
 13  7  1  0  0  0  0
 14  8  1  0  0  0  0
 15 16  1  0  0  0  0
 15 26  1  0  0  0  0
 16  1  1  0  0  0  0
 17 27  1  0  0  0  0
 17 16  2  0  0  0  0
 18 17  1  0  0  0  0
 19 18  2  0  0  0  0
 19 20  1  0  0  0  0
 20 15  2  0  0  0  0
 21 22  1  0  0  0  0
 21 19  1  0  0  0  0
 22 28  1  0  0  0  0
 22 29  1  0  0  0  0
 23 30  1  0  0  0  0
 23 22  1  0  0  0  0
 24 25  1  0  0  0  0
 24 23  1  0  0  0  0
 25 34  1  0  0  0  0
 25 21  1  0  0  0  0
 31 23  1  0  0  0  0
 32 24  1  0  0  0  0
 33 24  1  0  0  0  0
 35 25  1  0  0  0  0
 36  9  1  0  0  0  0
 37 36  1  0  0  0  0
 37 38  1  0  0  0  0
 39 37  2  0  0  0  0
 40 39  1  0  0  0  0
 41 42  2  0  0  0  0
 41 39  1  0  0  0  0
 42 43  1  0  0  0  0
 43 36  2  0  0  0  0
M  END
>  <minimizedAffinity>
-4.90232038

>  <minimizedRMSD>
3.42420769

$$$$
