
 OpenBabel03272500283D

 33 35  0  0  0  0  0  0  0  0999 V2000
   37.2840   26.7740   33.2210 C   0  0  0  0  0  0  0  0  0  0  0  0
   37.6430   26.3800   32.2230 H   0  0  0  0  0  0  0  0  0  0  0  0
   36.5550   25.9670   33.5360 H   0  0  0  0  0  0  0  0  0  0  0  0
   36.5910   27.9980   32.9750 C   0  0  0  0  0  0  0  0  0  0  0  0
   36.4810   28.4830   31.7080 C   0  0  0  0  0  0  0  0  0  0  0  0
   35.8090   29.6820   31.4280 C   0  0  0  0  0  0  0  0  0  0  0  0
   35.2730   30.3210   32.5280 N   0  0  0  0  0  0  0  0  0  0  0  0
   35.3920   29.8290   33.7700 C   0  0  0  0  0  0  0  0  0  0  0  0
   36.0540   28.6680   33.9670 N   0  0  0  0  0  0  0  0  0  0  0  0
   36.8750   28.0310   30.8150 H   0  0  0  0  0  0  0  0  0  0  0  0
   35.6930   30.1040   30.4590 H   0  0  0  0  0  0  0  0  0  0  0  0
   34.8170   30.5260   34.9170 C   0  0  0  0  0  0  0  0  0  0  0  0
   35.6110   31.3610   35.6760 C   0  0  0  0  0  0  0  0  0  0  0  0
   36.6460   31.5350   35.4710 H   0  0  0  0  0  0  0  0  0  0  0  0
   35.1040   32.0280   36.7590 C   0  0  0  0  0  0  0  0  0  0  0  0
   35.6730   32.6990   37.3970 H   0  0  0  0  0  0  0  0  0  0  0  0
   33.7590   31.8500   37.0860 C   0  0  0  0  0  3  0  0  0  0  0  0
   32.9810   31.0160   36.3220 C   0  0  0  0  0  3  0  0  0  0  0  0
   33.5030   30.3580   35.2450 N   0  0  0  0  0  0  0  0  0  0  0  0
   38.4080   26.7110   34.1580 C   0  0  0  0  0  0  0  0  0  0  0  0
   39.4040   26.5650   33.6440 H   0  0  0  0  0  0  0  0  0  0  0  0
   38.5520   27.6650   34.7230 H   0  0  0  0  0  0  0  0  0  0  0  0
   38.3390   25.6070   35.1320 C   0  0  0  0  0  0  0  0  0  0  0  0
   38.3080   24.2820   34.7120 C   0  0  0  0  0  0  0  0  0  0  0  0
   38.2460   23.4930   35.8280 C   0  0  0  0  0  0  0  0  0  0  0  0
   38.2400   24.3060   36.8940 N   0  0  0  0  0  0  0  0  0  0  0  0
   38.2950   25.5340   36.4530 N   0  0  0  0  0  0  0  0  0  0  0  0
   38.3250   23.8370   33.7170 H   0  0  0  0  0  0  0  0  0  0  0  0
   38.2060   22.4190   35.9610 H   0  0  0  0  0  0  0  0  0  0  0  0
   38.1830   23.9310   38.3070 C   0  0  0  0  0  0  0  0  0  0  0  0
   37.2540   22.9490   38.5100 F   0  0  0  0  0  0  0  0  0  0  0  0
   37.9080   25.0040   39.1150 F   0  0  0  0  0  0  0  0  0  0  0  0
   39.4140   23.4110   38.7110 F   0  0  0  0  0  0  0  0  0  0  0  0
  1  3  1  0  0  0  0
  1 20  1  0  0  0  0
  2  1  1  0  0  0  0
  4  1  1  0  0  0  0
  4  9  1  0  0  0  0
  5  4  2  0  0  0  0
  6  5  1  0  0  0  0
  6  7  2  0  0  0  0
  7  8  1  0  0  0  0
  8  9  2  0  0  0  0
  8 12  1  0  0  0  0
 10  5  1  0  0  0  0
 11  6  1  0  0  0  0
 12 19  2  0  0  0  0
 12 13  1  0  0  0  0
 13 15  2  0  0  0  0
 14 13  1  0  0  0  0
 15 17  1  0  0  0  0
 15 16  1  0  0  0  0
 18 17  2  0  0  0  0
 19 18  1  0  0  0  0
 20 22  1  0  0  0  0
 20 23  1  0  0  0  0
 21 20  1  0  0  0  0
 23 27  2  0  0  0  0
 24 23  1  0  0  0  0
 24 25  2  0  0  0  0
 25 29  1  0  0  0  0
 25 26  1  0  0  0  0
 26 30  1  0  0  0  0
 27 26  1  0  0  0  0
 28 24  1  0  0  0  0
 30 31  1  0  0  0  0
 30 33  1  0  0  0  0
 30 32  1  0  0  0  0
M  END
>  <minimizedAffinity>
-6.15012074

$$$$

 OpenBabel03272500283D

 33 35  0  0  0  0  0  0  0  0999 V2000
   38.4960   26.1470   32.7770 C   0  0  0  0  0  0  0  0  0  0  0  0
   38.8310   26.9950   32.1080 H   0  0  0  0  0  0  0  0  0  0  0  0
   39.3830   25.4460   32.7200 H   0  0  0  0  0  0  0  0  0  0  0  0
   37.3510   25.5460   32.1680 C   0  0  0  0  0  0  0  0  0  0  0  0
   36.3790   26.3230   31.6170 C   0  0  0  0  0  0  0  0  0  0  0  0
   35.2420   25.7700   31.0120 C   0  0  0  0  0  0  0  0  0  0  0  0
   35.1890   24.3910   31.0190 N   0  0  0  0  0  0  0  0  0  0  0  0
   36.1560   23.6410   31.5670 C   0  0  0  0  0  0  0  0  0  0  0  0
   37.2250   24.2410   32.1350 N   0  0  0  0  0  0  0  0  0  0  0  0
   36.3640   27.3980   31.5810 H   0  0  0  0  0  0  0  0  0  0  0  0
   34.4540   26.3290   30.5670 H   0  0  0  0  0  0  0  0  0  0  0  0
   36.0760   22.1830   31.5630 C   0  0  0  0  0  0  0  0  0  0  0  0
   35.0560   21.5530   32.2460 C   0  0  0  0  0  0  0  0  0  0  0  0
   34.3010   22.0780   32.7910 H   0  0  0  0  0  0  0  0  0  0  0  0
   34.9530   20.1880   32.2630 C   0  0  0  0  0  0  0  0  0  0  0  0
   34.1750   19.6300   32.7800 H   0  0  0  0  0  0  0  0  0  0  0  0
   35.9040   19.4360   31.5730 C   0  0  0  0  0  3  0  0  0  0  0  0
   36.9140   20.0760   30.8970 C   0  0  0  0  0  3  0  0  0  0  0  0
   37.0020   21.4380   30.8900 N   0  0  0  0  0  0  0  0  0  0  0  0
   38.4490   26.6520   34.1510 C   0  0  0  0  0  0  0  0  0  0  0  0
   39.2500   27.4200   34.3670 H   0  0  0  0  0  0  0  0  0  0  0  0
   37.5030   27.2040   34.3750 H   0  0  0  0  0  0  0  0  0  0  0  0
   38.6400   25.6280   35.1930 C   0  0  0  0  0  0  0  0  0  0  0  0
   39.5180   24.5660   35.0010 C   0  0  0  0  0  0  0  0  0  0  0  0
   39.4840   23.7900   36.1280 C   0  0  0  0  0  0  0  0  0  0  0  0
   38.6170   24.3570   36.9790 N   0  0  0  0  0  0  0  0  0  0  0  0
   38.1420   25.4280   36.4020 N   0  0  0  0  0  0  0  0  0  0  0  0
   40.1600   24.3000   34.1610 H   0  0  0  0  0  0  0  0  0  0  0  0
   40.0020   22.8800   36.4010 H   0  0  0  0  0  0  0  0  0  0  0  0
   38.2420   23.8950   38.3150 C   0  0  0  0  0  0  0  0  0  0  0  0
   39.3350   23.4250   38.9890 F   0  0  0  0  0  0  0  0  0  0  0  0
   37.2710   22.9290   38.2740 F   0  0  0  0  0  0  0  0  0  0  0  0
   37.7360   24.9600   39.0630 F   0  0  0  0  0  0  0  0  0  0  0  0
  1 20  1  0  0  0  0
  2  1  1  0  0  0  0
  3  1  1  0  0  0  0
  4  1  1  0  0  0  0
  5  4  2  0  0  0  0
  6  7  2  0  0  0  0
  6  5  1  0  0  0  0
  7  8  1  0  0  0  0
  8  9  2  0  0  0  0
  9  4  1  0  0  0  0
 10  5  1  0  0  0  0
 11  6  1  0  0  0  0
 12  8  1  0  0  0  0
 12 13  1  0  0  0  0
 13 15  2  0  0  0  0
 13 14  1  0  0  0  0
 15 16  1  0  0  0  0
 17 15  1  0  0  0  0
 18 17  2  0  0  0  0
 19 18  1  0  0  0  0
 19 12  2  0  0  0  0
 20 21  1  0  0  0  0
 20 22  1  0  0  0  0
 20 23  1  0  0  0  0
 23 27  2  0  0  0  0
 24 23  1  0  0  0  0
 24 25  2  0  0  0  0
 25 29  1  0  0  0  0
 25 26  1  0  0  0  0
 26 30  1  0  0  0  0
 27 26  1  0  0  0  0
 28 24  1  0  0  0  0
 30 31  1  0  0  0  0
 30 33  1  0  0  0  0
 32 30  1  0  0  0  0
M  END
>  <minimizedAffinity>
-5.99293041

$$$$

 OpenBabel03272500283D

 33 35  0  0  0  0  0  0  0  0999 V2000
   36.9620   25.3980   31.7170 C   0  0  0  0  0  0  0  0  0  0  0  0
   37.8640   24.7980   31.3920 H   0  0  0  0  0  0  0  0  0  0  0  0
   36.9870   26.2630   30.9890 H   0  0  0  0  0  0  0  0  0  0  0  0
   37.2110   25.8620   33.0450 C   0  0  0  0  0  0  0  0  0  0  0  0
   36.8800   27.1340   33.4010 C   0  0  0  0  0  0  0  0  0  0  0  0
   37.1090   27.6250   34.6950 C   0  0  0  0  0  0  0  0  0  0  0  0
   37.6890   26.7260   35.5660 N   0  0  0  0  0  0  0  0  0  0  0  0
   38.0080   25.4770   35.1980 C   0  0  0  0  0  0  0  0  0  0  0  0
   37.7600   25.0700   33.9340 N   0  0  0  0  0  0  0  0  0  0  0  0
   36.4280   27.8770   32.7690 H   0  0  0  0  0  0  0  0  0  0  0  0
   36.8700   28.6070   35.0250 H   0  0  0  0  0  0  0  0  0  0  0  0
   38.6220   24.5440   36.1390 C   0  0  0  0  0  0  0  0  0  0  0  0
   38.0570   24.3610   37.3850 C   0  0  0  0  0  0  0  0  0  0  0  0
   37.1760   24.8710   37.7120 H   0  0  0  0  0  0  0  0  0  0  0  0
   38.6080   23.4950   38.2910 C   0  0  0  0  0  0  0  0  0  0  0  0
   38.2140   23.3040   39.2870 H   0  0  0  0  0  0  0  0  0  0  0  0
   39.7590   22.7930   37.9330 C   0  0  0  0  0  3  0  0  0  0  0  0
   40.3100   22.9850   36.6900 C   0  0  0  0  0  3  0  0  0  0  0  0
   39.7490   23.8530   35.7980 N   0  0  0  0  0  0  0  0  0  0  0  0
   35.7660   24.6150   31.3970 C   0  0  0  0  0  0  0  0  0  0  0  0
   34.8970   24.8330   32.0880 H   0  0  0  0  0  0  0  0  0  0  0  0
   35.3520   24.8550   30.3870 H   0  0  0  0  0  0  0  0  0  0  0  0
   35.9410   23.1550   31.4870 C   0  0  0  0  0  0  0  0  0  0  0  0
   37.1260   22.5490   31.0850 C   0  0  0  0  0  0  0  0  0  0  0  0
   36.9930   21.2020   31.2840 C   0  0  0  0  0  0  0  0  0  0  0  0
   35.7700   20.9900   31.7910 N   0  0  0  0  0  0  0  0  0  0  0  0
   35.1820   22.1510   31.8970 N   0  0  0  0  0  0  0  0  0  0  0  0
   38.0480   22.9630   30.6760 H   0  0  0  0  0  0  0  0  0  0  0  0
   37.6640   20.3700   31.1100 H   0  0  0  0  0  0  0  0  0  0  0  0
   35.1660   19.7130   32.1700 C   0  0  0  0  0  0  0  0  0  0  0  0
   35.7640   18.6790   31.5050 F   0  0  0  0  0  0  0  0  0  0  0  0
   33.8150   19.6930   31.9400 F   0  0  0  0  0  0  0  0  0  0  0  0
   35.3590   19.4810   33.5330 F   0  0  0  0  0  0  0  0  0  0  0  0
  1  4  1  0  0  0  0
  2  1  1  0  0  0  0
  3  1  1  0  0  0  0
  4  5  2  0  0  0  0
  4  9  1  0  0  0  0
  5  6  1  0  0  0  0
  6 11  1  0  0  0  0
  6  7  2  0  0  0  0
  8  7  1  0  0  0  0
  8 12  1  0  0  0  0
  9  8  2  0  0  0  0
 10  5  1  0  0  0  0
 12 13  1  0  0  0  0
 13 14  1  0  0  0  0
 13 15  2  0  0  0  0
 15 16  1  0  0  0  0
 17 15  1  0  0  0  0
 18 17  2  0  0  0  0
 19 12  2  0  0  0  0
 19 18  1  0  0  0  0
 20 23  1  0  0  0  0
 20  1  1  0  0  0  0
 20 21  1  0  0  0  0
 22 20  1  0  0  0  0
 23 27  2  0  0  0  0
 24 25  2  0  0  0  0
 24 23  1  0  0  0  0
 25 26  1  0  0  0  0
 26 27  1  0  0  0  0
 26 30  1  0  0  0  0
 28 24  1  0  0  0  0
 29 25  1  0  0  0  0
 30 33  1  0  0  0  0
 31 30  1  0  0  0  0
 32 30  1  0  0  0  0
M  END
>  <minimizedAffinity>
-5.97076797

$$$$

 OpenBabel03272500283D

 33 35  0  0  0  0  0  0  0  0999 V2000
   37.0370   27.5600   34.7200 C   0  0  0  0  0  0  0  0  0  0  0  0
   36.3190   26.9530   35.3490 H   0  0  0  0  0  0  0  0  0  0  0  0
   36.6500   28.6110   34.8800 H   0  0  0  0  0  0  0  0  0  0  0  0
   36.8520   27.1680   33.3580 C   0  0  0  0  0  0  0  0  0  0  0  0
   36.6670   28.1080   32.3920 C   0  0  0  0  0  0  0  0  0  0  0  0
   36.4830   27.7610   31.0460 C   0  0  0  0  0  0  0  0  0  0  0  0
   36.5050   26.4070   30.7830 N   0  0  0  0  0  0  0  0  0  0  0  0
   36.6880   25.4940   31.7490 C   0  0  0  0  0  0  0  0  0  0  0  0
   36.8590   25.8990   33.0260 N   0  0  0  0  0  0  0  0  0  0  0  0
   36.6400   29.1740   32.5340 H   0  0  0  0  0  0  0  0  0  0  0  0
   36.3340   28.4540   30.2520 H   0  0  0  0  0  0  0  0  0  0  0  0
   36.7070   24.0660   31.4460 C   0  0  0  0  0  0  0  0  0  0  0  0
   35.5420   23.3320   31.5440 C   0  0  0  0  0  0  0  0  0  0  0  0
   34.6040   23.7540   31.8350 H   0  0  0  0  0  0  0  0  0  0  0  0
   35.5250   21.9910   31.2680 C   0  0  0  0  0  0  0  0  0  0  0  0
   34.6440   21.3560   31.3250 H   0  0  0  0  0  0  0  0  0  0  0  0
   36.7140   21.3720   30.8810 C   0  0  0  0  0  3  0  0  0  0  0  0
   37.8650   22.1140   30.7870 C   0  0  0  0  0  3  0  0  0  0  0  0
   37.8650   23.4510   31.0670 N   0  0  0  0  0  0  0  0  0  0  0  0
   38.3540   27.4970   35.3570 C   0  0  0  0  0  0  0  0  0  0  0  0
   39.1620   28.0080   34.7530 H   0  0  0  0  0  0  0  0  0  0  0  0
   38.3860   28.0400   36.3340 H   0  0  0  0  0  0  0  0  0  0  0  0
   38.8720   26.1340   35.5730 C   0  0  0  0  0  0  0  0  0  0  0  0
   40.0000   25.6820   34.8970 C   0  0  0  0  0  0  0  0  0  0  0  0
   40.2360   24.3940   35.2990 C   0  0  0  0  0  0  0  0  0  0  0  0
   39.2870   24.0710   36.1880 N   0  0  0  0  0  0  0  0  0  0  0  0
   38.5060   25.1090   36.3250 N   0  0  0  0  0  0  0  0  0  0  0  0
   40.6510   26.1650   34.1690 H   0  0  0  0  0  0  0  0  0  0  0  0
   41.0000   23.6760   35.0300 H   0  0  0  0  0  0  0  0  0  0  0  0
   39.1180   22.8030   36.8980 C   0  0  0  0  0  0  0  0  0  0  0  0
   38.7280   23.0200   38.1890 F   0  0  0  0  0  0  0  0  0  0  0  0
   40.2610   22.0460   36.8790 F   0  0  0  0  0  0  0  0  0  0  0  0
   38.1110   22.0490   36.2930 F   0  0  0  0  0  0  0  0  0  0  0  0
  1  3  1  0  0  0  0
  1  2  1  0  0  0  0
  1 20  1  0  0  0  0
  4  1  1  0  0  0  0
  5 10  1  0  0  0  0
  5  4  2  0  0  0  0
  6  5  1  0  0  0  0
  7  6  2  0  0  0  0
  7  8  1  0  0  0  0
  8  9  2  0  0  0  0
  9  4  1  0  0  0  0
 11  6  1  0  0  0  0
 12 13  1  0  0  0  0
 12  8  1  0  0  0  0
 13 14  1  0  0  0  0
 15 16  1  0  0  0  0
 15 13  2  0  0  0  0
 17 15  1  0  0  0  0
 18 17  2  0  0  0  0
 18 19  1  0  0  0  0
 19 12  2  0  0  0  0
 20 23  1  0  0  0  0
 20 22  1  0  0  0  0
 21 20  1  0  0  0  0
 23 27  2  0  0  0  0
 24 25  2  0  0  0  0
 24 23  1  0  0  0  0
 25 26  1  0  0  0  0
 26 27  1  0  0  0  0
 26 30  1  0  0  0  0
 28 24  1  0  0  0  0
 29 25  1  0  0  0  0
 30 31  1  0  0  0  0
 32 30  1  0  0  0  0
 33 30  1  0  0  0  0
M  END
>  <minimizedAffinity>
-5.4841218

$$$$

 OpenBabel03272500283D

 33 35  0  0  0  0  0  0  0  0999 V2000
   37.0420   27.8860   34.7660 C   0  0  0  0  0  0  0  0  0  0  0  0
   36.3720   27.4290   35.5540 H   0  0  0  0  0  0  0  0  0  0  0  0
   37.5910   28.6760   35.3620 H   0  0  0  0  0  0  0  0  0  0  0  0
   36.1990   28.5000   33.7890 C   0  0  0  0  0  0  0  0  0  0  0  0
   36.5980   28.5780   32.4900 C   0  0  0  0  0  0  0  0  0  0  0  0
   35.7980   29.1740   31.5040 C   0  0  0  0  0  0  0  0  0  0  0  0
   34.5900   29.6670   31.9510 N   0  0  0  0  0  0  0  0  0  0  0  0
   34.2140   29.5820   33.2360 C   0  0  0  0  0  0  0  0  0  0  0  0
   35.0350   28.9950   34.1340 N   0  0  0  0  0  0  0  0  0  0  0  0
   37.5240   28.2130   32.0830 H   0  0  0  0  0  0  0  0  0  0  0  0
   36.0600   29.2610   30.4770 H   0  0  0  0  0  0  0  0  0  0  0  0
   32.9300   30.1120   33.6850 C   0  0  0  0  0  0  0  0  0  0  0  0
   31.8860   30.2240   32.7890 C   0  0  0  0  0  0  0  0  0  0  0  0
   31.9600   29.9370   31.7620 H   0  0  0  0  0  0  0  0  0  0  0  0
   30.6700   30.7170   33.1770 C   0  0  0  0  0  0  0  0  0  0  0  0
   29.8080   30.8300   32.5230 H   0  0  0  0  0  0  0  0  0  0  0  0
   30.4990   31.1100   34.5050 C   0  0  0  0  0  3  0  0  0  0  0  0
   31.5460   30.9940   35.3860 C   0  0  0  0  0  3  0  0  0  0  0  0
   32.7530   30.5000   34.9820 N   0  0  0  0  0  0  0  0  0  0  0  0
   38.0370   26.8810   34.3870 C   0  0  0  0  0  0  0  0  0  0  0  0
   37.8450   26.4300   33.3670 H   0  0  0  0  0  0  0  0  0  0  0  0
   39.0650   27.3090   34.2840 H   0  0  0  0  0  0  0  0  0  0  0  0
   38.1130   25.7160   35.2870 C   0  0  0  0  0  0  0  0  0  0  0  0
   38.1570   24.4210   34.7810 C   0  0  0  0  0  0  0  0  0  0  0  0
   38.2240   23.5620   35.8440 C   0  0  0  0  0  0  0  0  0  0  0  0
   38.2220   24.3040   36.9610 N   0  0  0  0  0  0  0  0  0  0  0  0
   38.1570   25.5580   36.6000 N   0  0  0  0  0  0  0  0  0  0  0  0
   38.1470   24.0430   33.7590 H   0  0  0  0  0  0  0  0  0  0  0  0
   38.2740   22.4820   35.9060 H   0  0  0  0  0  0  0  0  0  0  0  0
   38.2810   23.8380   38.3460 C   0  0  0  0  0  0  0  0  0  0  0  0
   39.5100   23.3100   38.6260 F   0  0  0  0  0  0  0  0  0  0  0  0
   37.3050   22.9160   38.6220 F   0  0  0  0  0  0  0  0  0  0  0  0
   38.0960   24.9120   39.2180 F   0  0  0  0  0  0  0  0  0  0  0  0
  1  3  1  0  0  0  0
  1  2  1  0  0  0  0
  4  9  1  0  0  0  0
  4  1  1  0  0  0  0
  5  4  2  0  0  0  0
  6  7  2  0  0  0  0
  6  5  1  0  0  0  0
  7  8  1  0  0  0  0
  8 12  1  0  0  0  0
  8  9  2  0  0  0  0
 10  5  1  0  0  0  0
 11  6  1  0  0  0  0
 12 19  1  0  0  0  0
 13 15  1  0  0  0  0
 13 12  2  0  0  0  0
 14 13  1  0  0  0  0
 15 17  2  0  0  0  0
 16 15  1  0  0  0  0
 17 18  1  0  0  0  0
 19 18  2  0  0  0  0
 20  1  1  0  0  0  0
 20 23  1  0  0  0  0
 21 20  1  0  0  0  0
 22 20  1  0  0  0  0
 23 27  2  0  0  0  0
 24 23  1  0  0  0  0
 24 25  2  0  0  0  0
 25 29  1  0  0  0  0
 25 26  1  0  0  0  0
 26 30  1  0  0  0  0
 27 26  1  0  0  0  0
 28 24  1  0  0  0  0
 30 32  1  0  0  0  0
 30 31  1  0  0  0  0
 30 33  1  0  0  0  0
M  END
>  <minimizedAffinity>
-5.45168352

$$$$

 OpenBabel03272500283D

 33 35  0  0  0  0  0  0  0  0999 V2000
   36.9040   27.5100   33.9240 C   0  0  0  0  0  0  0  0  0  0  0  0
   36.2870   26.5620   33.8840 H   0  0  0  0  0  0  0  0  0  0  0  0
   36.3400   28.1180   34.6930 H   0  0  0  0  0  0  0  0  0  0  0  0
   36.8190   28.1320   32.6410 C   0  0  0  0  0  0  0  0  0  0  0  0
   35.8760   29.0840   32.4010 C   0  0  0  0  0  0  0  0  0  0  0  0
   35.7620   29.7170   31.1540 C   0  0  0  0  0  0  0  0  0  0  0  0
   36.6710   29.3020   30.2030 N   0  0  0  0  0  0  0  0  0  0  0  0
   37.5930   28.3620   30.4570 C   0  0  0  0  0  0  0  0  0  0  0  0
   37.6460   27.7930   31.6820 N   0  0  0  0  0  0  0  0  0  0  0  0
   35.1430   29.4480   33.0990 H   0  0  0  0  0  0  0  0  0  0  0  0
   35.0460   30.4660   30.9140 H   0  0  0  0  0  0  0  0  0  0  0  0
   38.5440   27.9390   29.4330 C   0  0  0  0  0  0  0  0  0  0  0  0
   39.3100   26.8080   29.6380 C   0  0  0  0  0  0  0  0  0  0  0  0
   39.2470   26.2080   30.5200 H   0  0  0  0  0  0  0  0  0  0  0  0
   40.2110   26.3850   28.6980 C   0  0  0  0  0  0  0  0  0  0  0  0
   40.8430   25.5050   28.7960 H   0  0  0  0  0  0  0  0  0  0  0  0
   40.3460   27.1200   27.5200 C   0  0  0  0  0  3  0  0  0  0  0  0
   39.5780   28.2420   27.3300 C   0  0  0  0  0  3  0  0  0  0  0  0
   38.6830   28.6510   28.2770 N   0  0  0  0  0  0  0  0  0  0  0  0
   38.1990   27.1760   34.5220 C   0  0  0  0  0  0  0  0  0  0  0  0
   39.0070   26.9910   33.7530 H   0  0  0  0  0  0  0  0  0  0  0  0
   38.6190   28.0120   35.1340 H   0  0  0  0  0  0  0  0  0  0  0  0
   38.2010   25.9560   35.3490 C   0  0  0  0  0  0  0  0  0  0  0  0
   38.1730   24.6940   34.7650 C   0  0  0  0  0  0  0  0  0  0  0  0
   38.1830   23.7690   35.7730 C   0  0  0  0  0  0  0  0  0  0  0  0
   38.2170   24.4400   36.9330 N   0  0  0  0  0  0  0  0  0  0  0  0
   38.2270   25.7150   36.6500 N   0  0  0  0  0  0  0  0  0  0  0  0
   38.1470   24.3800   33.7210 H   0  0  0  0  0  0  0  0  0  0  0  0
   38.1700   22.6870   35.7680 H   0  0  0  0  0  0  0  0  0  0  0  0
   38.2410   23.8870   38.2870 C   0  0  0  0  0  0  0  0  0  0  0  0
   37.9570   24.8550   39.2090 F   0  0  0  0  0  0  0  0  0  0  0  0
   39.4440   23.3010   38.5840 F   0  0  0  0  0  0  0  0  0  0  0  0
   37.2570   22.9050   38.4180 F   0  0  0  0  0  0  0  0  0  0  0  0
  1 20  1  0  0  0  0
  1  3  1  0  0  0  0
  2  1  1  0  0  0  0
  4  1  1  0  0  0  0
  5  4  1  0  0  0  0
  5 10  1  0  0  0  0
  6  5  2  0  0  0  0
  7  8  2  0  0  0  0
  7  6  1  0  0  0  0
  8  9  1  0  0  0  0
  9  4  2  0  0  0  0
 11  6  1  0  0  0  0
 12 13  1  0  0  0  0
 12  8  1  0  0  0  0
 13 14  1  0  0  0  0
 15 16  1  0  0  0  0
 15 13  2  0  0  0  0
 17 15  1  0  0  0  0
 18 17  2  0  0  0  0
 18 19  1  0  0  0  0
 19 12  2  0  0  0  0
 20 22  1  0  0  0  0
 20 23  1  0  0  0  0
 21 20  1  0  0  0  0
 23 27  2  0  0  0  0
 24 23  1  0  0  0  0
 24 25  2  0  0  0  0
 25 26  1  0  0  0  0
 26 30  1  0  0  0  0
 27 26  1  0  0  0  0
 28 24  1  0  0  0  0
 29 25  1  0  0  0  0
 30 33  1  0  0  0  0
 30 32  1  0  0  0  0
 30 31  1  0  0  0  0
M  END
>  <minimizedAffinity>
-5.32464266

$$$$

 OpenBabel03272500283D

 33 35  0  0  0  0  0  0  0  0999 V2000
   37.5170   26.2650   33.4730 C   0  0  0  0  0  0  0  0  0  0  0  0
   36.8130   25.7090   34.1620 H   0  0  0  0  0  0  0  0  0  0  0  0
   38.3890   26.4800   34.1620 H   0  0  0  0  0  0  0  0  0  0  0  0
   36.8750   27.4840   33.0940 C   0  0  0  0  0  0  0  0  0  0  0  0
   36.8260   27.8550   31.7850 C   0  0  0  0  0  0  0  0  0  0  0  0
   36.2040   29.0440   31.3750 C   0  0  0  0  0  0  0  0  0  0  0  0
   35.6520   29.7950   32.3920 N   0  0  0  0  0  0  0  0  0  0  0  0
   35.7100   29.4130   33.6770 C   0  0  0  0  0  0  0  0  0  0  0  0
   36.3260   28.2550   34.0010 N   0  0  0  0  0  0  0  0  0  0  0  0
   37.2360   27.3140   30.9510 H   0  0  0  0  0  0  0  0  0  0  0  0
   36.1370   29.3820   30.3690 H   0  0  0  0  0  0  0  0  0  0  0  0
   35.1190   30.2270   34.7350 C   0  0  0  0  0  0  0  0  0  0  0  0
   33.7610   30.1570   34.9720 C   0  0  0  0  0  0  0  0  0  0  0  0
   33.0990   29.5280   34.4160 H   0  0  0  0  0  0  0  0  0  0  0  0
   33.1750   30.9060   35.9570 C   0  0  0  0  0  0  0  0  0  0  0  0
   32.1140   30.8980   36.1950 H   0  0  0  0  0  0  0  0  0  0  0  0
   33.9780   31.7500   36.7240 C   0  0  0  0  0  3  0  0  0  0  0  0
   35.3280   31.8090   36.4780 C   0  0  0  0  0  3  0  0  0  0  0  0
   35.8970   31.0550   35.4920 N   0  0  0  0  0  0  0  0  0  0  0  0
   38.0020   25.3170   32.4680 C   0  0  0  0  0  0  0  0  0  0  0  0
   38.0690   25.7660   31.4320 H   0  0  0  0  0  0  0  0  0  0  0  0
   39.0490   24.9770   32.6650 H   0  0  0  0  0  0  0  0  0  0  0  0
   37.1580   24.1210   32.2880 C   0  0  0  0  0  0  0  0  0  0  0  0
   36.2210   24.0540   31.2640 C   0  0  0  0  0  0  0  0  0  0  0  0
   35.5980   22.8380   31.3490 C   0  0  0  0  0  0  0  0  0  0  0  0
   36.1360   22.1840   32.3890 N   0  0  0  0  0  0  0  0  0  0  0  0
   37.0440   22.9620   32.9150 N   0  0  0  0  0  0  0  0  0  0  0  0
   35.9460   24.7660   30.4850 H   0  0  0  0  0  0  0  0  0  0  0  0
   34.8170   22.3770   30.7600 H   0  0  0  0  0  0  0  0  0  0  0  0
   35.8000   20.8480   32.8780 C   0  0  0  0  0  0  0  0  0  0  0  0
   35.7290   20.8360   34.2430 F   0  0  0  0  0  0  0  0  0  0  0  0
   36.6950   19.9020   32.4510 F   0  0  0  0  0  0  0  0  0  0  0  0
   34.5410   20.4710   32.4060 F   0  0  0  0  0  0  0  0  0  0  0  0
  1  2  1  0  0  0  0
  1  3  1  0  0  0  0
  4  1  1  0  0  0  0
  4  9  1  0  0  0  0
  5  4  2  0  0  0  0
  6  5  1  0  0  0  0
  6  7  2  0  0  0  0
  7  8  1  0  0  0  0
  8  9  2  0  0  0  0
  8 12  1  0  0  0  0
 10  5  1  0  0  0  0
 11  6  1  0  0  0  0
 12 13  2  0  0  0  0
 12 19  1  0  0  0  0
 13 15  1  0  0  0  0
 14 13  1  0  0  0  0
 15 16  1  0  0  0  0
 15 17  2  0  0  0  0
 18 17  1  0  0  0  0
 19 18  2  0  0  0  0
 20 22  1  0  0  0  0
 20  1  1  0  0  0  0
 21 20  1  0  0  0  0
 23 20  1  0  0  0  0
 23 27  2  0  0  0  0
 24 25  2  0  0  0  0
 24 23  1  0  0  0  0
 25 26  1  0  0  0  0
 26 30  1  0  0  0  0
 26 27  1  0  0  0  0
 28 24  1  0  0  0  0
 29 25  1  0  0  0  0
 30 31  1  0  0  0  0
 32 30  1  0  0  0  0
 33 30  1  0  0  0  0
M  END
>  <minimizedAffinity>
-5.25884771

$$$$

 OpenBabel03272500283D

 33 35  0  0  0  0  0  0  0  0999 V2000
   39.0370   24.8610   32.4160 C   0  0  0  0  0  0  0  0  0  0  0  0
   39.7250   24.8660   31.5190 H   0  0  0  0  0  0  0  0  0  0  0  0
   39.0440   23.7660   32.7040 H   0  0  0  0  0  0  0  0  0  0  0  0
   37.7370   25.2440   31.9630 C   0  0  0  0  0  0  0  0  0  0  0  0
   36.8410   24.2990   31.5690 C   0  0  0  0  0  0  0  0  0  0  0  0
   35.5570   24.6370   31.1180 C   0  0  0  0  0  0  0  0  0  0  0  0
   35.2790   25.9890   31.1080 N   0  0  0  0  0  0  0  0  0  0  0  0
   36.1750   26.9060   31.4990 C   0  0  0  0  0  0  0  0  0  0  0  0
   37.3950   26.5100   31.9220 N   0  0  0  0  0  0  0  0  0  0  0  0
   36.9990   23.2350   31.5550 H   0  0  0  0  0  0  0  0  0  0  0  0
   34.8190   23.9400   30.8000 H   0  0  0  0  0  0  0  0  0  0  0  0
   35.8570   28.3310   31.4780 C   0  0  0  0  0  0  0  0  0  0  0  0
   36.5340   29.1690   30.6150 C   0  0  0  0  0  0  0  0  0  0  0  0
   37.2940   28.8310   29.9440 H   0  0  0  0  0  0  0  0  0  0  0  0
   36.2600   30.5100   30.5710 C   0  0  0  0  0  0  0  0  0  0  0  0
   36.7550   31.2230   29.9160 H   0  0  0  0  0  0  0  0  0  0  0  0
   35.2770   31.0220   31.4180 C   0  0  0  0  0  3  0  0  0  0  0  0
   34.6120   30.1770   32.2720 C   0  0  0  0  0  3  0  0  0  0  0  0
   34.8970   28.8420   32.3040 N   0  0  0  0  0  0  0  0  0  0  0  0
   39.7080   25.5830   33.5000 C   0  0  0  0  0  0  0  0  0  0  0  0
   40.8100   25.3410   33.5760 H   0  0  0  0  0  0  0  0  0  0  0  0
   39.7020   26.6910   33.3470 H   0  0  0  0  0  0  0  0  0  0  0  0
   39.1820   25.3020   34.8480 C   0  0  0  0  0  0  0  0  0  0  0  0
   38.3950   26.2330   35.5170 C   0  0  0  0  0  0  0  0  0  0  0  0
   38.0600   25.6980   36.7320 C   0  0  0  0  0  0  0  0  0  0  0  0
   38.6220   24.4820   36.8020 N   0  0  0  0  0  0  0  0  0  0  0  0
   39.2700   24.2830   35.6860 N   0  0  0  0  0  0  0  0  0  0  0  0
   38.0480   27.2260   35.2320 H   0  0  0  0  0  0  0  0  0  0  0  0
   37.4690   26.0750   37.5560 H   0  0  0  0  0  0  0  0  0  0  0  0
   38.5480   23.5240   37.9050 C   0  0  0  0  0  0  0  0  0  0  0  0
   38.6410   24.1650   39.1090 F   0  0  0  0  0  0  0  0  0  0  0  0
   39.5190   22.5600   37.8160 F   0  0  0  0  0  0  0  0  0  0  0  0
   37.3140   22.8730   37.8890 F   0  0  0  0  0  0  0  0  0  0  0  0
  1  3  1  0  0  0  0
  1 20  1  0  0  0  0
  2  1  1  0  0  0  0
  4  1  1  0  0  0  0
  5  4  2  0  0  0  0
  6  5  1  0  0  0  0
  7  6  2  0  0  0  0
  7  8  1  0  0  0  0
  8  9  2  0  0  0  0
  9  4  1  0  0  0  0
 10  5  1  0  0  0  0
 11  6  1  0  0  0  0
 12  8  1  0  0  0  0
 12 19  1  0  0  0  0
 13 12  2  0  0  0  0
 14 13  1  0  0  0  0
 15 13  1  0  0  0  0
 15 17  2  0  0  0  0
 16 15  1  0  0  0  0
 17 18  1  0  0  0  0
 18 19  2  0  0  0  0
 20 21  1  0  0  0  0
 20 23  1  0  0  0  0
 22 20  1  0  0  0  0
 23 24  1  0  0  0  0
 23 27  2  0  0  0  0
 24 25  2  0  0  0  0
 25 26  1  0  0  0  0
 25 29  1  0  0  0  0
 26 30  1  0  0  0  0
 27 26  1  0  0  0  0
 28 24  1  0  0  0  0
 30 31  1  0  0  0  0
 32 30  1  0  0  0  0
 33 30  1  0  0  0  0
M  END
>  <minimizedAffinity>
-5.14766598

$$$$

 OpenBabel03272500283D

 33 35  0  0  0  0  0  0  0  0999 V2000
   38.0140   26.9390   32.0900 C   0  0  0  0  0  0  0  0  0  0  0  0
   38.0700   26.8480   30.9640 H   0  0  0  0  0  0  0  0  0  0  0  0
   38.4650   27.9630   32.2600 H   0  0  0  0  0  0  0  0  0  0  0  0
   38.8580   25.9290   32.6450 C   0  0  0  0  0  0  0  0  0  0  0  0
   39.8550   25.3800   31.8980 C   0  0  0  0  0  0  0  0  0  0  0  0
   40.7030   24.3870   32.4090 C   0  0  0  0  0  0  0  0  0  0  0  0
   40.4480   24.0160   33.7140 N   0  0  0  0  0  0  0  0  0  0  0  0
   39.4610   24.5670   34.4350 C   0  0  0  0  0  0  0  0  0  0  0  0
   38.6810   25.5200   33.8790 N   0  0  0  0  0  0  0  0  0  0  0  0
   40.1010   25.6270   30.8810 H   0  0  0  0  0  0  0  0  0  0  0  0
   41.4960   23.9250   31.8710 H   0  0  0  0  0  0  0  0  0  0  0  0
   39.2110   24.1570   35.8130 C   0  0  0  0  0  0  0  0  0  0  0  0
   40.0320   23.2200   36.4060 C   0  0  0  0  0  0  0  0  0  0  0  0
   40.8620   22.7650   35.9080 H   0  0  0  0  0  0  0  0  0  0  0  0
   39.8250   22.8130   37.6970 C   0  0  0  0  0  0  0  0  0  0  0  0
   40.4340   22.0810   38.2230 H   0  0  0  0  0  0  0  0  0  0  0  0
   38.7610   23.3650   38.4110 C   0  0  0  0  0  3  0  0  0  0  0  0
   37.9520   24.2960   37.8080 C   0  0  0  0  0  3  0  0  0  0  0  0
   38.1720   24.6910   36.5200 N   0  0  0  0  0  0  0  0  0  0  0  0
   36.6010   27.0380   32.4610 C   0  0  0  0  0  0  0  0  0  0  0  0
   35.9010   26.8060   31.6030 H   0  0  0  0  0  0  0  0  0  0  0  0
   36.3060   26.2890   33.2370 H   0  0  0  0  0  0  0  0  0  0  0  0
   36.1750   28.3700   32.9240 C   0  0  0  0  0  0  0  0  0  0  0  0
   35.7450   29.3380   32.0220 C   0  0  0  0  0  0  0  0  0  0  0  0
   35.4180   30.4580   32.7390 C   0  0  0  0  0  0  0  0  0  0  0  0
   35.6400   30.1850   34.0330 N   0  0  0  0  0  0  0  0  0  0  0  0
   36.0810   28.9580   34.1060 N   0  0  0  0  0  0  0  0  0  0  0  0
   35.6440   29.3230   30.9370 H   0  0  0  0  0  0  0  0  0  0  0  0
   35.0450   31.4290   32.4420 H   0  0  0  0  0  0  0  0  0  0  0  0
   35.4390   31.0670   35.1810 C   0  0  0  0  0  0  0  0  0  0  0  0
   36.4740   30.9530   36.0660 F   0  0  0  0  0  0  0  0  0  0  0  0
   34.2520   30.8190   35.8210 F   0  0  0  0  0  0  0  0  0  0  0  0
   35.4130   32.3980   34.7610 F   0  0  0  0  0  0  0  0  0  0  0  0
  1  3  1  0  0  0  0
  1 20  1  0  0  0  0
  1  4  1  0  0  0  0
  2  1  1  0  0  0  0
  4  9  1  0  0  0  0
  5  6  1  0  0  0  0
  5  4  2  0  0  0  0
  6  7  2  0  0  0  0
  7  8  1  0  0  0  0
  8 12  1  0  0  0  0
  9  8  2  0  0  0  0
 10  5  1  0  0  0  0
 11  6  1  0  0  0  0
 12 13  2  0  0  0  0
 12 19  1  0  0  0  0
 13 15  1  0  0  0  0
 14 13  1  0  0  0  0
 15 16  1  0  0  0  0
 15 17  2  0  0  0  0
 18 17  1  0  0  0  0
 19 18  2  0  0  0  0
 20 23  1  0  0  0  0
 20 22  1  0  0  0  0
 21 20  1  0  0  0  0
 23 27  2  0  0  0  0
 24 25  2  0  0  0  0
 24 23  1  0  0  0  0
 25 26  1  0  0  0  0
 26 27  1  0  0  0  0
 26 30  1  0  0  0  0
 28 24  1  0  0  0  0
 29 25  1  0  0  0  0
 30 32  1  0  0  0  0
 30 31  1  0  0  0  0
 33 30  1  0  0  0  0
M  END
>  <minimizedAffinity>
-5.10537672

$$$$
