
 OpenBabel03272503353D

 40 43  0  0  1  0  0  0  0  0999 V2000
   37.9490   24.1220   33.2390 C   0  0  0  0  0  0  0  0  0  0  0  0
   37.0480   23.1900   32.7030 C   0  0  0  0  0  0  0  0  0  0  0  0
   36.2890   23.5960   31.6070 C   0  0  0  0  0  0  0  0  0  0  0  0
   36.4760   24.8690   31.1320 N   0  0  0  0  0  0  0  0  0  0  0  0
   37.3460   25.7270   31.6690 C   0  0  0  0  0  0  0  0  0  0  0  0
   38.0900   25.3500   32.7340 N   0  0  0  0  0  0  0  0  0  0  0  0
   36.9120   22.1900   33.0900 H   0  0  0  0  0  0  0  0  0  0  0  0
   35.5700   22.9560   31.1240 H   0  0  0  0  0  0  0  0  0  0  0  0
   38.7270   23.6990   34.3650 N   0  0  0  0  0  0  0  0  0  0  0  0
   39.0910   24.4880   35.5100 C   0  0  0  0  0  0  0  0  0  0  0  0
   39.2380   23.4310   36.5940 C   0  0  2  0  0  0  0  0  0  0  0  0
   38.8010   22.1080   35.9670 C   0  0  0  0  0  0  0  0  0  0  0  0
   39.3000   22.3720   34.5600 C   0  0  0  0  0  0  0  0  0  0  0  0
   38.2380   25.1240   35.8120 H   0  0  0  0  0  0  0  0  0  0  0  0
   40.0300   25.0640   35.3760 H   0  0  0  0  0  0  0  0  0  0  0  0
   40.3300   23.3460   36.8090 H   0  0  0  0  0  0  0  0  0  0  0  0
   37.7020   22.0440   36.0140 H   0  0  0  0  0  0  0  0  0  0  0  0
   39.3240   21.2570   36.4160 H   0  0  0  0  0  0  0  0  0  0  0  0
   38.8770   21.6370   33.8630 H   0  0  0  0  0  0  0  0  0  0  0  0
   40.3990   22.4170   34.5860 H   0  0  0  0  0  0  0  0  0  0  0  0
   38.4290   23.7700   37.8200 C   0  0  0  0  0  0  0  0  0  0  0  0
   37.2710   23.0250   37.7500 F   0  0  0  0  0  0  0  0  0  0  0  0
   38.0440   25.0870   37.7090 F   0  0  0  0  0  0  0  0  0  0  0  0
   39.1120   23.5550   38.9890 F   0  0  0  0  0  0  0  0  0  0  0  0
   37.5520   27.3680   31.0140 S   0  0  0  0  0  0  0  0  0  0  0  0
   36.7870   28.6310   31.8110 C   0  0  0  0  0  0  0  0  0  0  0  0
   36.3480   29.9000   31.5870 C   0  0  0  0  0  0  0  0  0  0  0  0
   35.7270   30.7140   32.5140 C   0  0  0  0  0  0  0  0  0  0  0  0
   35.5790   30.0390   33.8280 C   0  0  0  0  0  0  0  0  0  0  0  0
   36.3140   28.3830   33.6040 S   0  0  0  0  0  0  0  0  0  0  0  0
   36.5430   30.2150   30.5730 H   0  0  0  0  0  0  0  0  0  0  0  0
   35.3920   31.7090   32.3140 H   0  0  0  0  0  0  0  0  0  0  0  0
   34.9710   30.6490   34.9620 C   0  0  0  0  0  0  0  0  0  0  0  0
   35.6560   31.4710   35.8340 C   0  0  0  0  0  0  0  0  0  0  0  0
   36.6870   31.6260   35.6040 H   0  0  0  0  0  0  0  0  0  0  0  0
   34.9040   31.9720   36.8750 C   0  0  0  0  0  0  0  0  0  0  0  0
   35.4690   32.6240   37.5570 H   0  0  0  0  0  0  0  0  0  0  0  0
   33.5630   31.6600   37.0180 C   0  0  0  0  0  3  0  0  0  0  0  0
   32.9170   30.8360   36.1250 C   0  0  0  0  0  3  0  0  0  0  0  0
   33.6670   30.3490   35.1040 N   0  0  0  0  0  0  0  0  0  0  0  0
  1  9  1  0  0  0  0
  2  7  1  0  0  0  0
  2  1  2  0  0  0  0
  3  2  1  0  0  0  0
  4  3  2  0  0  0  0
  4  5  1  0  0  0  0
  5  6  2  0  0  0  0
  6  1  1  0  0  0  0
  8  3  1  0  0  0  0
  9 13  1  0  0  0  0
  9 10  1  0  0  0  0
 10 14  1  0  0  0  0
 10 11  1  0  0  0  0
 11 16  1  1  0  0  0
 11 21  1  0  0  0  0
 12 17  1  0  0  0  0
 12 18  1  0  0  0  0
 12 11  1  0  0  0  0
 13 20  1  0  0  0  0
 13 12  1  0  0  0  0
 15 10  1  0  0  0  0
 19 13  1  0  0  0  0
 21 24  1  0  0  0  0
 22 21  1  0  0  0  0
 23 21  1  0  0  0  0
 25  5  1  0  0  0  0
 25 26  1  0  0  0  0
 26 30  1  0  0  0  0
 27 26  2  0  0  0  0
 27 28  1  0  0  0  0
 28 29  2  0  0  0  0
 29 33  1  0  0  0  0
 30 29  1  0  0  0  0
 31 27  1  0  0  0  0
 32 28  1  0  0  0  0
 33 40  2  0  0  0  0
 33 34  1  0  0  0  0
 34 36  2  0  0  0  0
 35 34  1  0  0  0  0
 36 38  1  0  0  0  0
 36 37  1  0  0  0  0
 39 38  2  0  0  0  0
 40 39  1  0  0  0  0
M  END
>  <minimizedAffinity>
-6.45218801

$$$$

 OpenBabel03272503353D

 40 43  0  0  1  0  0  0  0  0999 V2000
   36.3330   30.9050   31.5700 C   0  0  0  0  0  0  0  0  0  0  0  0
   36.6570   31.3990   30.2980 C   0  0  0  0  0  0  0  0  0  0  0  0
   37.0790   30.4760   29.3440 C   0  0  0  0  0  0  0  0  0  0  0  0
   37.1480   29.1570   29.7130 N   0  0  0  0  0  0  0  0  0  0  0  0
   36.8300   28.7240   30.9360 C   0  0  0  0  0  0  0  0  0  0  0  0
   36.4180   29.6070   31.8740 N   0  0  0  0  0  0  0  0  0  0  0  0
   36.5970   32.4440   30.0240 H   0  0  0  0  0  0  0  0  0  0  0  0
   37.3500   30.7550   28.3400 H   0  0  0  0  0  0  0  0  0  0  0  0
   35.8990   31.8580   32.5470 N   0  0  0  0  0  0  0  0  0  0  0  0
   34.8530   31.6880   33.5180 C   0  0  0  0  0  0  0  0  0  0  0  0
   35.3030   32.6130   34.6400 C   0  0  2  0  0  0  0  0  0  0  0  0
   36.6780   33.1410   34.2360 C   0  0  0  0  0  0  0  0  0  0  0  0
   36.4470   33.1970   32.7390 C   0  0  0  0  0  0  0  0  0  0  0  0
   34.8900   30.6630   33.9300 H   0  0  0  0  0  0  0  0  0  0  0  0
   33.8460   31.9660   33.1440 H   0  0  0  0  0  0  0  0  0  0  0  0
   34.6040   33.4830   34.6330 H   0  0  0  0  0  0  0  0  0  0  0  0
   37.4360   32.3910   34.5120 H   0  0  0  0  0  0  0  0  0  0  0  0
   36.8610   34.1410   34.6420 H   0  0  0  0  0  0  0  0  0  0  0  0
   37.4000   33.3280   32.2110 H   0  0  0  0  0  0  0  0  0  0  0  0
   35.6880   33.9660   32.5350 H   0  0  0  0  0  0  0  0  0  0  0  0
   35.3370   31.9050   35.9690 C   0  0  0  0  0  0  0  0  0  0  0  0
   35.3990   32.8830   36.9390 F   0  0  0  0  0  0  0  0  0  0  0  0
   36.5290   31.2200   36.0420 F   0  0  0  0  0  0  0  0  0  0  0  0
   34.2740   31.0600   36.1540 F   0  0  0  0  0  0  0  0  0  0  0  0
   36.9350   27.0010   31.3640 S   0  0  0  0  0  0  0  0  0  0  0  0
   37.2720   26.6100   32.9610 C   0  0  0  0  0  0  0  0  0  0  0  0
   37.1220   27.1110   34.2180 C   0  0  0  0  0  0  0  0  0  0  0  0
   37.5400   26.5020   35.3850 C   0  0  0  0  0  0  0  0  0  0  0  0
   38.1930   25.1960   35.1190 C   0  0  0  0  0  0  0  0  0  0  0  0
   38.1410   24.9900   33.3060 S   0  0  0  0  0  0  0  0  0  0  0  0
   36.6230   28.0690   34.2070 H   0  0  0  0  0  0  0  0  0  0  0  0
   37.4110   26.9160   36.3610 H   0  0  0  0  0  0  0  0  0  0  0  0
   38.7170   24.3550   36.1440 C   0  0  0  0  0  0  0  0  0  0  0  0
   38.1040   24.1890   37.3680 C   0  0  0  0  0  0  0  0  0  0  0  0
   37.1970   24.7360   37.5070 H   0  0  0  0  0  0  0  0  0  0  0  0
   38.7550   23.3370   38.2350 C   0  0  0  0  0  0  0  0  0  0  0  0
   38.2500   23.2180   39.2040 H   0  0  0  0  0  0  0  0  0  0  0  0
   39.9370   22.7070   37.8830 C   0  0  0  0  0  3  0  0  0  0  0  0
   40.5160   22.9010   36.6490 C   0  0  0  0  0  3  0  0  0  0  0  0
   39.8650   23.7410   35.8040 N   0  0  0  0  0  0  0  0  0  0  0  0
  1  6  1  0  0  0  0
  1  9  1  0  0  0  0
  2  1  2  0  0  0  0
  3  4  2  0  0  0  0
  3  2  1  0  0  0  0
  4  5  1  0  0  0  0
  5 25  1  0  0  0  0
  5  6  2  0  0  0  0
  7  2  1  0  0  0  0
  8  3  1  0  0  0  0
  9 13  1  0  0  0  0
  9 10  1  0  0  0  0
 10 14  1  0  0  0  0
 10 11  1  0  0  0  0
 11 16  1  1  0  0  0
 11 21  1  0  0  0  0
 12 17  1  0  0  0  0
 12 11  1  0  0  0  0
 12 18  1  0  0  0  0
 13 12  1  0  0  0  0
 15 10  1  0  0  0  0
 19 13  1  0  0  0  0
 20 13  1  0  0  0  0
 21 23  1  0  0  0  0
 21 24  1  0  0  0  0
 21 22  1  0  0  0  0
 25 26  1  0  0  0  0
 26 30  1  0  0  0  0
 26 27  2  0  0  0  0
 27 28  1  0  0  0  0
 28 32  1  0  0  0  0
 29 28  2  0  0  0  0
 29 33  1  0  0  0  0
 30 29  1  0  0  0  0
 31 27  1  0  0  0  0
 33 34  1  0  0  0  0
 34 35  1  0  0  0  0
 34 36  2  0  0  0  0
 36 37  1  0  0  0  0
 38 36  1  0  0  0  0
 39 38  2  0  0  0  0
 40 33  2  0  0  0  0
 40 39  1  0  0  0  0
M  END
>  <minimizedAffinity>
-6.24542761

$$$$

 OpenBabel03272503353D

 40 43  0  0  1  0  0  0  0  0999 V2000
   39.9330   24.7740   34.8020 C   0  0  0  0  0  0  0  0  0  0  0  0
   41.1110   25.5290   34.9020 C   0  0  0  0  0  0  0  0  0  0  0  0
   41.1860   26.6960   34.1440 C   0  0  0  0  0  0  0  0  0  0  0  0
   40.1100   27.0220   33.3590 N   0  0  0  0  0  0  0  0  0  0  0  0
   39.0050   26.2760   33.2900 C   0  0  0  0  0  0  0  0  0  0  0  0
   38.9150   25.1400   34.0190 N   0  0  0  0  0  0  0  0  0  0  0  0
   41.9510   25.2580   35.5270 H   0  0  0  0  0  0  0  0  0  0  0  0
   42.0460   27.3440   34.1520 H   0  0  0  0  0  0  0  0  0  0  0  0
   39.8610   23.5750   35.5830 N   0  0  0  0  0  0  0  0  0  0  0  0
   40.5220   22.3280   35.3180 C   0  0  0  0  0  0  0  0  0  0  0  0
   40.6750   21.7420   36.7130 C   0  0  2  0  0  0  0  0  0  0  0  0
   40.1820   22.8120   37.6850 C   0  0  0  0  0  0  0  0  0  0  0  0
   39.0920   23.3990   36.8110 C   0  0  0  0  0  0  0  0  0  0  0  0
   41.5470   22.5200   34.9490 H   0  0  0  0  0  0  0  0  0  0  0  0
   39.9470   21.6490   34.6540 H   0  0  0  0  0  0  0  0  0  0  0  0
   39.9600   20.8860   36.7790 H   0  0  0  0  0  0  0  0  0  0  0  0
   41.0010   23.5270   37.8640 H   0  0  0  0  0  0  0  0  0  0  0  0
   39.7610   22.3690   38.5930 H   0  0  0  0  0  0  0  0  0  0  0  0
   38.7510   24.3580   37.2210 H   0  0  0  0  0  0  0  0  0  0  0  0
   38.3080   22.6390   36.6790 H   0  0  0  0  0  0  0  0  0  0  0  0
   42.0980   21.3330   36.9960 C   0  0  0  0  0  0  0  0  0  0  0  0
   42.4100   20.3350   36.0980 F   0  0  0  0  0  0  0  0  0  0  0  0
   42.1180   20.7460   38.2420 F   0  0  0  0  0  0  0  0  0  0  0  0
   42.9790   22.3800   36.9330 F   0  0  0  0  0  0  0  0  0  0  0  0
   37.6360   26.7430   32.2550 S   0  0  0  0  0  0  0  0  0  0  0  0
   36.7060   28.0570   32.7310 C   0  0  0  0  0  0  0  0  0  0  0  0
   35.9620   29.0640   32.1970 C   0  0  0  0  0  0  0  0  0  0  0  0
   35.2920   30.0380   32.9100 C   0  0  0  0  0  0  0  0  0  0  0  0
   35.4700   29.8680   34.3740 C   0  0  0  0  0  0  0  0  0  0  0  0
   36.5340   28.3960   34.5630 S   0  0  0  0  0  0  0  0  0  0  0  0
   35.9500   29.0200   31.1180 H   0  0  0  0  0  0  0  0  0  0  0  0
   34.7140   30.8200   32.4670 H   0  0  0  0  0  0  0  0  0  0  0  0
   34.8860   30.7330   35.3440 C   0  0  0  0  0  0  0  0  0  0  0  0
   35.6190   31.6350   36.0880 C   0  0  0  0  0  0  0  0  0  0  0  0
   36.6680   31.6480   35.8920 H   0  0  0  0  0  0  0  0  0  0  0  0
   34.8830   32.3890   36.9780 C   0  0  0  0  0  0  0  0  0  0  0  0
   35.4850   33.1010   37.5600 H   0  0  0  0  0  0  0  0  0  0  0  0
   33.5130   32.2350   37.1010 C   0  0  0  0  0  3  0  0  0  0  0  0
   32.8200   31.3230   36.3390 C   0  0  0  0  0  3  0  0  0  0  0  0
   33.5540   30.5870   35.4650 N   0  0  0  0  0  0  0  0  0  0  0  0
  1  2  1  0  0  0  0
  1  9  1  0  0  0  0
  2  7  1  0  0  0  0
  3  8  1  0  0  0  0
  3  2  2  0  0  0  0
  4  3  1  0  0  0  0
  5  4  2  0  0  0  0
  5  6  1  0  0  0  0
  6  1  2  0  0  0  0
  9 13  1  0  0  0  0
 10  9  1  0  0  0  0
 10 11  1  0  0  0  0
 11 16  1  1  0  0  0
 11 21  1  0  0  0  0
 11 12  1  0  0  0  0
 12 17  1  0  0  0  0
 12 18  1  0  0  0  0
 13 19  1  0  0  0  0
 13 12  1  0  0  0  0
 14 10  1  0  0  0  0
 15 10  1  0  0  0  0
 20 13  1  0  0  0  0
 21 23  1  0  0  0  0
 22 21  1  0  0  0  0
 24 21  1  0  0  0  0
 25 26  1  0  0  0  0
 25  5  1  0  0  0  0
 26 30  1  0  0  0  0
 27 26  2  0  0  0  0
 27 28  1  0  0  0  0
 28 29  2  0  0  0  0
 29 30  1  0  0  0  0
 29 33  1  0  0  0  0
 31 27  1  0  0  0  0
 32 28  1  0  0  0  0
 33 40  2  0  0  0  0
 33 34  1  0  0  0  0
 34 36  2  0  0  0  0
 35 34  1  0  0  0  0
 36 38  1  0  0  0  0
 36 37  1  0  0  0  0
 39 38  2  0  0  0  0
 40 39  1  0  0  0  0
M  END
>  <minimizedAffinity>
-6.10406876

$$$$

 OpenBabel03272503353D

 40 43  0  0  1  0  0  0  0  0999 V2000
   37.6350   24.0800   33.2010 C   0  0  0  0  0  0  0  0  0  0  0  0
   37.2080   23.0100   32.4010 C   0  0  0  0  0  0  0  0  0  0  0  0
   36.3500   23.3070   31.3450 C   0  0  0  0  0  0  0  0  0  0  0  0
   35.9860   24.6160   31.1620 N   0  0  0  0  0  0  0  0  0  0  0  0
   36.4140   25.6090   31.9450 C   0  0  0  0  0  0  0  0  0  0  0  0
   37.2470   25.3380   32.9760 N   0  0  0  0  0  0  0  0  0  0  0  0
   37.5050   21.9820   32.5600 H   0  0  0  0  0  0  0  0  0  0  0  0
   35.9670   22.5570   30.6740 H   0  0  0  0  0  0  0  0  0  0  0  0
   38.5170   23.7690   34.2870 N   0  0  0  0  0  0  0  0  0  0  0  0
   38.8040   24.5890   35.4310 C   0  0  0  0  0  0  0  0  0  0  0  0
   39.1600   23.5530   36.4870 C   0  0  2  0  0  0  0  0  0  0  0  0
   38.9070   22.1880   35.8520 C   0  0  0  0  0  0  0  0  0  0  0  0
   39.2970   22.5450   34.4310 C   0  0  0  0  0  0  0  0  0  0  0  0
   37.8760   25.0800   35.7800 H   0  0  0  0  0  0  0  0  0  0  0  0
   39.6360   25.3060   35.2700 H   0  0  0  0  0  0  0  0  0  0  0  0
   40.2610   23.6370   36.6550 H   0  0  0  0  0  0  0  0  0  0  0  0
   37.8340   21.9530   35.9420 H   0  0  0  0  0  0  0  0  0  0  0  0
   39.5740   21.4230   36.2620 H   0  0  0  0  0  0  0  0  0  0  0  0
   38.9630   21.7620   33.7370 H   0  0  0  0  0  0  0  0  0  0  0  0
   40.3750   22.7600   34.4130 H   0  0  0  0  0  0  0  0  0  0  0  0
   38.3630   23.7460   37.7510 C   0  0  0  0  0  0  0  0  0  0  0  0
   38.0660   25.0900   37.8330 F   0  0  0  0  0  0  0  0  0  0  0  0
   39.1980   23.4740   38.8110 F   0  0  0  0  0  0  0  0  0  0  0  0
   37.2380   22.9650   37.8000 F   0  0  0  0  0  0  0  0  0  0  0  0
   35.9120   27.2920   31.6650 S   0  0  0  0  0  0  0  0  0  0  0  0
   35.8290   28.3160   32.9920 C   0  0  0  0  0  0  0  0  0  0  0  0
   36.5320   28.6410   34.1120 C   0  0  0  0  0  0  0  0  0  0  0  0
   36.1600   29.5800   35.0530 C   0  0  0  0  0  0  0  0  0  0  0  0
   34.8680   30.2240   34.7070 C   0  0  0  0  0  0  0  0  0  0  0  0
   34.3470   29.4490   33.1380 S   0  0  0  0  0  0  0  0  0  0  0  0
   37.4440   28.0680   34.1890 H   0  0  0  0  0  0  0  0  0  0  0  0
   36.7290   29.8170   35.9260 H   0  0  0  0  0  0  0  0  0  0  0  0
   34.2510   31.2300   35.5050 C   0  0  0  0  0  0  0  0  0  0  0  0
   34.9020   31.8800   36.5340 C   0  0  0  0  0  0  0  0  0  0  0  0
   35.9140   31.5810   36.7000 H   0  0  0  0  0  0  0  0  0  0  0  0
   34.1470   32.8240   37.1970 C   0  0  0  0  0  0  0  0  0  0  0  0
   34.6840   33.3300   38.0110 H   0  0  0  0  0  0  0  0  0  0  0  0
   32.8340   33.0840   36.8420 C   0  0  0  0  0  3  0  0  0  0  0  0
   32.2220   32.4120   35.8080 C   0  0  0  0  0  3  0  0  0  0  0  0
   32.9750   31.4860   35.1630 N   0  0  0  0  0  0  0  0  0  0  0  0
  1  9  1  0  0  0  0
  2  7  1  0  0  0  0
  2  1  2  0  0  0  0
  3  2  1  0  0  0  0
  4  3  2  0  0  0  0
  4  5  1  0  0  0  0
  5  6  2  0  0  0  0
  6  1  1  0  0  0  0
  8  3  1  0  0  0  0
  9 13  1  0  0  0  0
  9 10  1  0  0  0  0
 10 14  1  0  0  0  0
 10 11  1  0  0  0  0
 11 16  1  1  0  0  0
 11 21  1  0  0  0  0
 12 17  1  0  0  0  0
 12 18  1  0  0  0  0
 12 11  1  0  0  0  0
 13 12  1  0  0  0  0
 15 10  1  0  0  0  0
 19 13  1  0  0  0  0
 20 13  1  0  0  0  0
 21 24  1  0  0  0  0
 21 22  1  0  0  0  0
 21 23  1  0  0  0  0
 25  5  1  0  0  0  0
 25 26  1  0  0  0  0
 26 30  1  0  0  0  0
 26 27  2  0  0  0  0
 27 31  1  0  0  0  0
 27 28  1  0  0  0  0
 28 32  1  0  0  0  0
 29 28  2  0  0  0  0
 29 33  1  0  0  0  0
 30 29  1  0  0  0  0
 33 34  1  0  0  0  0
 34 35  1  0  0  0  0
 34 36  2  0  0  0  0
 36 37  1  0  0  0  0
 38 36  1  0  0  0  0
 39 38  2  0  0  0  0
 40 33  2  0  0  0  0
 40 39  1  0  0  0  0
M  END
>  <minimizedAffinity>
-6.10220671

$$$$

 OpenBabel03272503353D

 40 43  0  0  1  0  0  0  0  0999 V2000
   39.6680   24.9970   33.9570 C   0  0  0  0  0  0  0  0  0  0  0  0
   40.9980   25.4340   33.8660 C   0  0  0  0  0  0  0  0  0  0  0  0
   41.2690   26.4700   32.9760 C   0  0  0  0  0  0  0  0  0  0  0  0
   40.2230   26.9880   32.2550 N   0  0  0  0  0  0  0  0  0  0  0  0
   38.9680   26.5460   32.3700 C   0  0  0  0  0  0  0  0  0  0  0  0
   38.6880   25.5400   33.2300 N   0  0  0  0  0  0  0  0  0  0  0  0
   41.8110   25.0140   34.4420 H   0  0  0  0  0  0  0  0  0  0  0  0
   42.2560   26.8760   32.8340 H   0  0  0  0  0  0  0  0  0  0  0  0
   39.3950   23.9310   34.8740 N   0  0  0  0  0  0  0  0  0  0  0  0
   39.9300   23.7690   36.1970 C   0  0  0  0  0  0  0  0  0  0  0  0
   38.8330   22.9770   36.8930 C   0  0  2  0  0  0  0  0  0  0  0  0
   37.6810   22.8720   35.8960 C   0  0  0  0  0  0  0  0  0  0  0  0
   38.5090   22.7970   34.6290 C   0  0  0  0  0  0  0  0  0  0  0  0
   39.9720   24.7510   36.7050 H   0  0  0  0  0  0  0  0  0  0  0  0
   40.8990   23.2300   36.2250 H   0  0  0  0  0  0  0  0  0  0  0  0
   39.2320   21.9450   37.0410 H   0  0  0  0  0  0  0  0  0  0  0  0
   37.0860   23.7980   35.9500 H   0  0  0  0  0  0  0  0  0  0  0  0
   37.1040   21.9530   36.0420 H   0  0  0  0  0  0  0  0  0  0  0  0
   37.8740   22.9570   33.7490 H   0  0  0  0  0  0  0  0  0  0  0  0
   39.0700   21.8510   34.6380 H   0  0  0  0  0  0  0  0  0  0  0  0
   38.4060   23.6260   38.1850 C   0  0  0  0  0  0  0  0  0  0  0  0
   39.4530   23.4770   39.0690 F   0  0  0  0  0  0  0  0  0  0  0  0
   37.3660   22.8830   38.6960 F   0  0  0  0  0  0  0  0  0  0  0  0
   38.0430   24.9380   38.0300 F   0  0  0  0  0  0  0  0  0  0  0  0
   37.6460   27.2520   31.4130 S   0  0  0  0  0  0  0  0  0  0  0  0
   36.7650   28.5050   32.0990 C   0  0  0  0  0  0  0  0  0  0  0  0
   36.2400   29.7180   31.7740 C   0  0  0  0  0  0  0  0  0  0  0  0
   35.5310   30.5440   32.6250 C   0  0  0  0  0  0  0  0  0  0  0  0
   35.3940   29.9510   33.9790 C   0  0  0  0  0  0  0  0  0  0  0  0
   36.2570   28.3450   33.8920 S   0  0  0  0  0  0  0  0  0  0  0  0
   36.4420   29.9770   30.7460 H   0  0  0  0  0  0  0  0  0  0  0  0
   35.1300   31.4940   32.3470 H   0  0  0  0  0  0  0  0  0  0  0  0
   34.7080   30.5900   35.0520 C   0  0  0  0  0  0  0  0  0  0  0  0
   33.3620   30.4140   35.2960 C   0  0  0  0  0  0  0  0  0  0  0  0
   32.8540   29.7590   34.6230 H   0  0  0  0  0  0  0  0  0  0  0  0
   32.8690   31.1130   36.3780 C   0  0  0  0  0  0  0  0  0  0  0  0
   31.7960   30.9580   36.5560 H   0  0  0  0  0  0  0  0  0  0  0  0
   33.6830   31.9270   37.1480 C   0  0  0  0  0  3  0  0  0  0  0  0
   35.0230   32.0750   36.8690 C   0  0  0  0  0  3  0  0  0  0  0  0
   35.4960   31.3810   35.8030 N   0  0  0  0  0  0  0  0  0  0  0  0
  1  9  1  0  0  0  0
  2  1  1  0  0  0  0
  2  7  1  0  0  0  0
  3  2  2  0  0  0  0
  4  5  2  0  0  0  0
  4  3  1  0  0  0  0
  5  6  1  0  0  0  0
  6  1  2  0  0  0  0
  8  3  1  0  0  0  0
  9 10  1  0  0  0  0
 10 15  1  0  0  0  0
 10 14  1  0  0  0  0
 10 11  1  0  0  0  0
 11 16  1  1  0  0  0
 11 21  1  0  0  0  0
 12 17  1  0  0  0  0
 12 18  1  0  0  0  0
 12 11  1  0  0  0  0
 13 20  1  0  0  0  0
 13  9  1  0  0  0  0
 13 12  1  0  0  0  0
 19 13  1  0  0  0  0
 21 23  1  0  0  0  0
 21 22  1  0  0  0  0
 24 21  1  0  0  0  0
 25 26  1  0  0  0  0
 25  5  1  0  0  0  0
 26 30  1  0  0  0  0
 27 26  2  0  0  0  0
 27 28  1  0  0  0  0
 28 29  2  0  0  0  0
 29 33  1  0  0  0  0
 30 29  1  0  0  0  0
 31 27  1  0  0  0  0
 32 28  1  0  0  0  0
 33 34  2  0  0  0  0
 33 40  1  0  0  0  0
 34 36  1  0  0  0  0
 35 34  1  0  0  0  0
 36 37  1  0  0  0  0
 36 38  2  0  0  0  0
 39 38  1  0  0  0  0
 40 39  2  0  0  0  0
M  END
>  <minimizedAffinity>
-6.0468936

$$$$

 OpenBabel03272503353D

 40 43  0  0  1  0  0  0  0  0999 V2000
   37.5600   24.0810   33.0950 C   0  0  0  0  0  0  0  0  0  0  0  0
   36.9480   23.0040   32.4370 C   0  0  0  0  0  0  0  0  0  0  0  0
   36.0710   23.3070   31.3980 C   0  0  0  0  0  0  0  0  0  0  0  0
   35.8700   24.6290   31.0920 N   0  0  0  0  0  0  0  0  0  0  0  0
   36.4730   25.6280   31.7420 C   0  0  0  0  0  0  0  0  0  0  0  0
   37.3270   25.3510   32.7530 N   0  0  0  0  0  0  0  0  0  0  0  0
   37.1170   21.9660   32.6910 H   0  0  0  0  0  0  0  0  0  0  0  0
   35.5520   22.5530   30.8310 H   0  0  0  0  0  0  0  0  0  0  0  0
   38.4610   23.7630   34.1630 N   0  0  0  0  0  0  0  0  0  0  0  0
   38.7850   24.5860   35.2950 C   0  0  0  0  0  0  0  0  0  0  0  0
   39.1480   23.5510   36.3500 C   0  0  2  0  0  0  0  0  0  0  0  0
   38.8620   22.1860   35.7290 C   0  0  0  0  0  0  0  0  0  0  0  0
   39.2260   22.5280   34.2980 C   0  0  0  0  0  0  0  0  0  0  0  0
   37.8720   25.0920   35.6610 H   0  0  0  0  0  0  0  0  0  0  0  0
   39.6230   25.2900   35.1120 H   0  0  0  0  0  0  0  0  0  0  0  0
   40.2540   23.6190   36.4940 H   0  0  0  0  0  0  0  0  0  0  0  0
   37.7880   21.9670   35.8430 H   0  0  0  0  0  0  0  0  0  0  0  0
   39.5270   21.4130   36.1290 H   0  0  0  0  0  0  0  0  0  0  0  0
   38.8660   21.7470   33.6160 H   0  0  0  0  0  0  0  0  0  0  0  0
   40.3070   22.7280   34.2550 H   0  0  0  0  0  0  0  0  0  0  0  0
   38.3820   23.7630   37.6300 C   0  0  0  0  0  0  0  0  0  0  0  0
   37.1820   23.0980   37.4880 F   0  0  0  0  0  0  0  0  0  0  0  0
   38.0700   25.1010   37.7080 F   0  0  0  0  0  0  0  0  0  0  0  0
   39.0710   23.3540   38.7410 F   0  0  0  0  0  0  0  0  0  0  0  0
   36.1780   27.3260   31.3060 S   0  0  0  0  0  0  0  0  0  0  0  0
   36.0110   28.4370   32.5530 C   0  0  0  0  0  0  0  0  0  0  0  0
   35.9850   28.4920   33.9130 C   0  0  0  0  0  0  0  0  0  0  0  0
   35.8160   29.6330   34.6710 C   0  0  0  0  0  0  0  0  0  0  0  0
   35.6610   30.8410   33.8210 C   0  0  0  0  0  0  0  0  0  0  0  0
   35.7700   30.2370   32.1020 S   0  0  0  0  0  0  0  0  0  0  0  0
   36.1150   27.5140   34.3530 H   0  0  0  0  0  0  0  0  0  0  0  0
   35.7980   29.6500   35.7390 H   0  0  0  0  0  0  0  0  0  0  0  0
   35.4740   32.1520   34.3440 C   0  0  0  0  0  0  0  0  0  0  0  0
   36.2410   32.6730   35.3660 C   0  0  0  0  0  0  0  0  0  0  0  0
   36.9980   32.0250   35.7480 H   0  0  0  0  0  0  0  0  0  0  0  0
   35.9150   33.9590   35.7420 C   0  0  0  0  0  0  0  0  0  0  0  0
   36.5380   34.3550   36.5560 H   0  0  0  0  0  0  0  0  0  0  0  0
   34.8890   34.6580   35.1280 C   0  0  0  0  0  3  0  0  0  0  0  0
   34.1470   34.1000   34.1110 C   0  0  0  0  0  3  0  0  0  0  0  0
   34.4770   32.8340   33.7490 N   0  0  0  0  0  0  0  0  0  0  0  0
  1  9  1  0  0  0  0
  2  7  1  0  0  0  0
  2  1  2  0  0  0  0
  3  2  1  0  0  0  0
  4  3  2  0  0  0  0
  4  5  1  0  0  0  0
  5  6  2  0  0  0  0
  6  1  1  0  0  0  0
  8  3  1  0  0  0  0
  9 13  1  0  0  0  0
  9 10  1  0  0  0  0
 10 14  1  0  0  0  0
 10 11  1  0  0  0  0
 11 16  1  1  0  0  0
 11 21  1  0  0  0  0
 12 17  1  0  0  0  0
 12 18  1  0  0  0  0
 12 11  1  0  0  0  0
 13 12  1  0  0  0  0
 15 10  1  0  0  0  0
 19 13  1  0  0  0  0
 20 13  1  0  0  0  0
 21 23  1  0  0  0  0
 21 24  1  0  0  0  0
 22 21  1  0  0  0  0
 25  5  1  0  0  0  0
 25 26  1  0  0  0  0
 26 27  2  0  0  0  0
 27 31  1  0  0  0  0
 27 28  1  0  0  0  0
 28 32  1  0  0  0  0
 29 33  1  0  0  0  0
 29 28  2  0  0  0  0
 30 26  1  0  0  0  0
 30 29  1  0  0  0  0
 33 34  1  0  0  0  0
 34 36  2  0  0  0  0
 34 35  1  0  0  0  0
 36 37  1  0  0  0  0
 38 36  1  0  0  0  0
 39 38  2  0  0  0  0
 40 39  1  0  0  0  0
 40 33  2  0  0  0  0
M  END
>  <minimizedAffinity>
-5.94550371

$$$$

 OpenBabel03272503353D

 40 43  0  0  1  0  0  0  0  0999 V2000
   34.5300   30.9340   32.7350 C   0  0  0  0  0  0  0  0  0  0  0  0
   34.9630   31.8300   31.7460 C   0  0  0  0  0  0  0  0  0  0  0  0
   35.8770   31.3520   30.8090 C   0  0  0  0  0  0  0  0  0  0  0  0
   36.2870   30.0480   30.9190 N   0  0  0  0  0  0  0  0  0  0  0  0
   35.8510   29.2240   31.8750 C   0  0  0  0  0  0  0  0  0  0  0  0
   34.9640   29.6720   32.7930 N   0  0  0  0  0  0  0  0  0  0  0  0
   34.6300   32.8560   31.6740 H   0  0  0  0  0  0  0  0  0  0  0  0
   36.2690   31.9600   30.0110 H   0  0  0  0  0  0  0  0  0  0  0  0
   33.5910   31.4310   33.6950 N   0  0  0  0  0  0  0  0  0  0  0  0
   33.1220   30.7580   34.8750 C   0  0  0  0  0  0  0  0  0  0  0  0
   32.7790   31.9230   35.7930 C   0  0  2  0  0  0  0  0  0  0  0  0
   33.2220   33.1890   35.0640 C   0  0  0  0  0  0  0  0  0  0  0  0
   32.9270   32.7290   33.6500 C   0  0  0  0  0  0  0  0  0  0  0  0
   33.9620   30.2230   35.3570 H   0  0  0  0  0  0  0  0  0  0  0  0
   32.2410   30.1070   34.6990 H   0  0  0  0  0  0  0  0  0  0  0  0
   31.6650   31.9570   35.8590 H   0  0  0  0  0  0  0  0  0  0  0  0
   34.3010   33.3340   35.2370 H   0  0  0  0  0  0  0  0  0  0  0  0
   32.6010   34.0490   35.3350 H   0  0  0  0  0  0  0  0  0  0  0  0
   33.3970   33.4050   32.9240 H   0  0  0  0  0  0  0  0  0  0  0  0
   31.8380   32.6120   33.5460 H   0  0  0  0  0  0  0  0  0  0  0  0
   33.4370   31.7860   37.1420 C   0  0  0  0  0  0  0  0  0  0  0  0
   33.4500   33.0430   37.7060 F   0  0  0  0  0  0  0  0  0  0  0  0
   34.7550   31.4510   36.9260 F   0  0  0  0  0  0  0  0  0  0  0  0
   32.8220   30.8640   37.9470 F   0  0  0  0  0  0  0  0  0  0  0  0
   36.4130   27.5400   31.9740 S   0  0  0  0  0  0  0  0  0  0  0  0
   37.0770   27.0190   33.4240 C   0  0  0  0  0  0  0  0  0  0  0  0
   37.3070   27.4610   34.6910 C   0  0  0  0  0  0  0  0  0  0  0  0
   37.9150   26.7390   35.6990 C   0  0  0  0  0  0  0  0  0  0  0  0
   38.3070   25.3810   35.2440 C   0  0  0  0  0  0  0  0  0  0  0  0
   37.7850   25.2890   33.4970 S   0  0  0  0  0  0  0  0  0  0  0  0
   36.9500   28.4700   34.8310 H   0  0  0  0  0  0  0  0  0  0  0  0
   38.0850   27.1080   36.6870 H   0  0  0  0  0  0  0  0  0  0  0  0
   38.9510   24.4260   36.0820 C   0  0  0  0  0  0  0  0  0  0  0  0
   40.1090   23.7680   35.7220 C   0  0  0  0  0  0  0  0  0  0  0  0
   40.5020   24.0200   34.7620 H   0  0  0  0  0  0  0  0  0  0  0  0
   40.5890   22.8780   36.6600 C   0  0  0  0  0  0  0  0  0  0  0  0
   41.5120   22.3650   36.3540 H   0  0  0  0  0  0  0  0  0  0  0  0
   39.9410   22.6740   37.8660 C   0  0  0  0  0  3  0  0  0  0  0  0
   38.7870   23.3530   38.1870 C   0  0  0  0  0  3  0  0  0  0  0  0
   38.3240   24.2260   37.2560 N   0  0  0  0  0  0  0  0  0  0  0  0
  1  6  1  0  0  0  0
  1  9  1  0  0  0  0
  2  1  2  0  0  0  0
  3  4  2  0  0  0  0
  3  2  1  0  0  0  0
  4  5  1  0  0  0  0
  5 25  1  0  0  0  0
  5  6  2  0  0  0  0
  7  2  1  0  0  0  0
  8  3  1  0  0  0  0
  9 10  1  0  0  0  0
 10 14  1  0  0  0  0
 10 11  1  0  0  0  0
 11 16  1  1  0  0  0
 11 21  1  0  0  0  0
 12 17  1  0  0  0  0
 12 18  1  0  0  0  0
 12 11  1  0  0  0  0
 13  9  1  0  0  0  0
 13 12  1  0  0  0  0
 15 10  1  0  0  0  0
 19 13  1  0  0  0  0
 20 13  1  0  0  0  0
 21 22  1  0  0  0  0
 21 24  1  0  0  0  0
 23 21  1  0  0  0  0
 25 26  1  0  0  0  0
 26 30  1  0  0  0  0
 26 27  2  0  0  0  0
 27 31  1  0  0  0  0
 27 28  1  0  0  0  0
 28 32  1  0  0  0  0
 29 28  2  0  0  0  0
 29 33  1  0  0  0  0
 30 29  1  0  0  0  0
 33 40  1  0  0  0  0
 34 33  2  0  0  0  0
 34 36  1  0  0  0  0
 35 34  1  0  0  0  0
 36 38  2  0  0  0  0
 37 36  1  0  0  0  0
 38 39  1  0  0  0  0
 40 39  2  0  0  0  0
M  END
>  <minimizedAffinity>
-5.909585

$$$$

 OpenBabel03272503353D

 40 43  0  0  1  0  0  0  0  0999 V2000
   37.4990   24.9600   32.4880 C   0  0  0  0  0  0  0  0  0  0  0  0
   36.5360   24.0160   32.1030 C   0  0  0  0  0  0  0  0  0  0  0  0
   35.5610   24.4340   31.2000 C   0  0  0  0  0  0  0  0  0  0  0  0
   35.6120   25.7300   30.7530 N   0  0  0  0  0  0  0  0  0  0  0  0
   36.5470   26.5990   31.1430 C   0  0  0  0  0  0  0  0  0  0  0  0
   37.5000   26.2100   32.0200 N   0  0  0  0  0  0  0  0  0  0  0  0
   36.5100   22.9980   32.4650 H   0  0  0  0  0  0  0  0  0  0  0  0
   34.7780   23.7860   30.8420 H   0  0  0  0  0  0  0  0  0  0  0  0
   38.5000   24.5250   33.4180 N   0  0  0  0  0  0  0  0  0  0  0  0
   39.9200   24.4880   33.2060 C   0  0  0  0  0  0  0  0  0  0  0  0
   40.4600   24.6510   34.6190 C   0  0  2  0  0  0  0  0  0  0  0  0
   39.2480   24.9020   35.5150 C   0  0  0  0  0  0  0  0  0  0  0  0
   38.2550   24.0330   34.7690 C   0  0  0  0  0  0  0  0  0  0  0  0
   40.2370   25.3900   32.6490 H   0  0  0  0  0  0  0  0  0  0  0  0
   40.2790   23.5470   32.7400 H   0  0  0  0  0  0  0  0  0  0  0  0
   40.8840   23.6600   34.9120 H   0  0  0  0  0  0  0  0  0  0  0  0
   38.9880   25.9710   35.4610 H   0  0  0  0  0  0  0  0  0  0  0  0
   39.4130   24.5260   36.5300 H   0  0  0  0  0  0  0  0  0  0  0  0
   37.2330   24.2490   35.1050 H   0  0  0  0  0  0  0  0  0  0  0  0
   38.5700   22.9840   34.8690 H   0  0  0  0  0  0  0  0  0  0  0  0
   41.4700   25.7650   34.7080 C   0  0  0  0  0  0  0  0  0  0  0  0
   40.7970   26.8750   35.1700 F   0  0  0  0  0  0  0  0  0  0  0  0
   41.8680   26.0650   33.4250 F   0  0  0  0  0  0  0  0  0  0  0  0
   42.5470   25.4500   35.4940 F   0  0  0  0  0  0  0  0  0  0  0  0
   36.5690   28.2700   30.5340 S   0  0  0  0  0  0  0  0  0  0  0  0
   36.1790   29.5000   31.6060 C   0  0  0  0  0  0  0  0  0  0  0  0
   36.2330   30.8570   31.7110 C   0  0  0  0  0  0  0  0  0  0  0  0
   35.8060   31.5990   32.7950 C   0  0  0  0  0  0  0  0  0  0  0  0
   35.2610   30.7360   33.8730 C   0  0  0  0  0  0  0  0  0  0  0  0
   35.4120   29.0280   33.2460 S   0  0  0  0  0  0  0  0  0  0  0  0
   36.6590   31.3070   30.8270 H   0  0  0  0  0  0  0  0  0  0  0  0
   35.8600   32.6640   32.8540 H   0  0  0  0  0  0  0  0  0  0  0  0
   34.7500   31.2420   35.1020 C   0  0  0  0  0  0  0  0  0  0  0  0
   35.4550   32.1080   35.9120 C   0  0  0  0  0  0  0  0  0  0  0  0
   36.4240   32.3830   35.5580 H   0  0  0  0  0  0  0  0  0  0  0  0
   34.8010   32.4920   37.0640 C   0  0  0  0  0  0  0  0  0  0  0  0
   35.3790   33.1820   37.6950 H   0  0  0  0  0  0  0  0  0  0  0  0
   33.5310   32.0300   37.3670 C   0  0  0  0  0  3  0  0  0  0  0  0
   32.8610   31.1660   36.5300 C   0  0  0  0  0  3  0  0  0  0  0  0
   33.5150   30.7960   35.3990 N   0  0  0  0  0  0  0  0  0  0  0  0
  1  9  1  0  0  0  0
  2  7  1  0  0  0  0
  2  1  1  0  0  0  0
  3  2  2  0  0  0  0
  4  5  2  0  0  0  0
  4  3  1  0  0  0  0
  5  6  1  0  0  0  0
  6  1  2  0  0  0  0
  8  3  1  0  0  0  0
  9 13  1  0  0  0  0
 10  9  1  0  0  0  0
 10 11  1  0  0  0  0
 11 21  1  0  0  0  0
 11 16  1  1  0  0  0
 11 12  1  0  0  0  0
 12 18  1  0  0  0  0
 13 20  1  0  0  0  0
 13 19  1  0  0  0  0
 13 12  1  0  0  0  0
 14 10  1  0  0  0  0
 15 10  1  0  0  0  0
 17 12  1  0  0  0  0
 21 22  1  0  0  0  0
 21 24  1  0  0  0  0
 23 21  1  0  0  0  0
 25  5  1  0  0  0  0
 25 26  1  0  0  0  0
 26 27  2  0  0  0  0
 26 30  1  0  0  0  0
 27 28  1  0  0  0  0
 28 32  1  0  0  0  0
 28 29  2  0  0  0  0
 29 33  1  0  0  0  0
 30 29  1  0  0  0  0
 31 27  1  0  0  0  0
 33 40  2  0  0  0  0
 33 34  1  0  0  0  0
 34 36  2  0  0  0  0
 35 34  1  0  0  0  0
 36 38  1  0  0  0  0
 36 37  1  0  0  0  0
 39 38  2  0  0  0  0
 40 39  1  0  0  0  0
M  END
>  <minimizedAffinity>
-5.75667191

$$$$

 OpenBabel03272503353D

 40 43  0  0  1  0  0  0  0  0999 V2000
   35.7550   29.5630   33.2990 C   0  0  0  0  0  0  0  0  0  0  0  0
   35.6150   30.3220   32.1270 C   0  0  0  0  0  0  0  0  0  0  0  0
   36.2290   29.8340   30.9760 C   0  0  0  0  0  0  0  0  0  0  0  0
   36.9230   28.6540   31.0680 N   0  0  0  0  0  0  0  0  0  0  0  0
   37.0320   27.9600   32.2030 C   0  0  0  0  0  0  0  0  0  0  0  0
   36.4430   28.4190   33.3300 N   0  0  0  0  0  0  0  0  0  0  0  0
   35.0650   31.2510   32.0720 H   0  0  0  0  0  0  0  0  0  0  0  0
   36.1810   30.3420   30.0270 H   0  0  0  0  0  0  0  0  0  0  0  0
   35.1210   30.0690   34.4800 N   0  0  0  0  0  0  0  0  0  0  0  0
   35.7450   30.7880   35.5570 C   0  0  0  0  0  0  0  0  0  0  0  0
   34.5950   31.6320   36.0870 C   0  0  2  0  0  0  0  0  0  0  0  0
   33.4180   31.3960   35.1430 C   0  0  0  0  0  0  0  0  0  0  0  0
   33.7050   29.9460   34.8110 C   0  0  0  0  0  0  0  0  0  0  0  0
   36.4870   31.4990   35.1490 H   0  0  0  0  0  0  0  0  0  0  0  0
   36.1650   30.1330   36.3470 H   0  0  0  0  0  0  0  0  0  0  0  0
   34.3130   31.1980   37.0770 H   0  0  0  0  0  0  0  0  0  0  0  0
   33.5340   32.0540   34.2670 H   0  0  0  0  0  0  0  0  0  0  0  0
   32.4590   31.4970   35.6620 H   0  0  0  0  0  0  0  0  0  0  0  0
   33.1090   29.6280   33.9460 H   0  0  0  0  0  0  0  0  0  0  0  0
   33.5650   29.3480   35.7240 H   0  0  0  0  0  0  0  0  0  0  0  0
   34.9650   33.0900   36.1770 C   0  0  0  0  0  0  0  0  0  0  0  0
   34.1740   33.7570   35.2670 F   0  0  0  0  0  0  0  0  0  0  0  0
   36.2590   33.2160   35.7230 F   0  0  0  0  0  0  0  0  0  0  0  0
   34.8380   33.5980   37.4440 F   0  0  0  0  0  0  0  0  0  0  0  0
   37.9430   26.4340   32.2700 S   0  0  0  0  0  0  0  0  0  0  0  0
   37.1010   25.0060   32.0040 C   0  0  0  0  0  0  0  0  0  0  0  0
   35.9530   24.5580   31.4260 C   0  0  0  0  0  0  0  0  0  0  0  0
   35.5310   23.2440   31.3840 C   0  0  0  0  0  0  0  0  0  0  0  0
   36.4930   22.3350   32.0570 C   0  0  0  0  0  0  0  0  0  0  0  0
   37.8400   23.4140   32.6520 S   0  0  0  0  0  0  0  0  0  0  0  0
   35.3860   25.3660   30.9880 H   0  0  0  0  0  0  0  0  0  0  0  0
   34.6240   22.9170   30.9250 H   0  0  0  0  0  0  0  0  0  0  0  0
   36.3060   20.9270   32.1580 C   0  0  0  0  0  0  0  0  0  0  0  0
   35.3540   20.3500   32.9740 C   0  0  0  0  0  0  0  0  0  0  0  0
   34.7540   21.0320   33.5340 H   0  0  0  0  0  0  0  0  0  0  0  0
   35.3190   18.9720   32.9430 C   0  0  0  0  0  0  0  0  0  0  0  0
   34.5540   18.5320   33.5980 H   0  0  0  0  0  0  0  0  0  0  0  0
   36.1840   18.2400   32.1470 C   0  0  0  0  0  3  0  0  0  0  0  0
   37.1200   18.8560   31.3470 C   0  0  0  0  0  3  0  0  0  0  0  0
   37.1450   20.2130   31.3850 N   0  0  0  0  0  0  0  0  0  0  0  0
  1  6  1  0  0  0  0
  1  9  1  0  0  0  0
  2  1  2  0  0  0  0
  3  4  2  0  0  0  0
  3  2  1  0  0  0  0
  4  5  1  0  0  0  0
  5 25  1  0  0  0  0
  5  6  2  0  0  0  0
  7  2  1  0  0  0  0
  8  3  1  0  0  0  0
  9 13  1  0  0  0  0
  9 10  1  0  0  0  0
 10 11  1  0  0  0  0
 10 15  1  0  0  0  0
 11 21  1  0  0  0  0
 11 16  1  1  0  0  0
 12 18  1  0  0  0  0
 12 11  1  0  0  0  0
 13 12  1  0  0  0  0
 13 20  1  0  0  0  0
 14 10  1  0  0  0  0
 17 12  1  0  0  0  0
 19 13  1  0  0  0  0
 21 24  1  0  0  0  0
 22 21  1  0  0  0  0
 23 21  1  0  0  0  0
 26 25  1  0  0  0  0
 26 30  1  0  0  0  0
 27 26  2  0  0  0  0
 28 27  1  0  0  0  0
 28 29  2  0  0  0  0
 29 33  1  0  0  0  0
 29 30  1  0  0  0  0
 31 27  1  0  0  0  0
 32 28  1  0  0  0  0
 33 34  1  0  0  0  0
 34 35  1  0  0  0  0
 36 34  2  0  0  0  0
 36 37  1  0  0  0  0
 38 36  1  0  0  0  0
 39 40  1  0  0  0  0
 39 38  2  0  0  0  0
 40 33  2  0  0  0  0
M  END
>  <minimizedAffinity>
-5.74486494

$$$$
