
 OpenBabel03262522483D

 24 26  0  0  0  0  0  0  0  0999 V2000
   36.3450   30.3160   48.8490 C   0  0  0  0  0  0  0  0  0  0  0  0
   36.1790   29.4910   49.8850 C   0  0  0  0  0  0  0  0  0  0  0  0
   35.2140   28.5250   49.8580 C   0  0  0  0  0  0  0  0  0  0  0  0
   34.4630   28.4810   48.7190 C   0  0  0  0  0  0  0  0  0  0  0  0
   35.1610   29.8340   47.7060 S   0  0  0  0  0  0  0  0  0  0  0  0
   36.8340   29.5990   50.7680 H   0  0  0  0  0  0  0  0  0  0  0  0
   34.9900   27.8080   50.6310 H   0  0  0  0  0  0  0  0  0  0  0  0
   38.1990   33.3930   49.4770 C   0  0  0  0  0  0  0  0  0  0  0  0
   39.0830   33.4690   48.3930 C   0  0  0  0  0  0  0  0  0  0  0  0
   39.0320   32.4540   47.4470 C   0  0  0  0  0  0  0  0  0  0  0  0
   38.1330   31.4420   47.6180 N   0  0  0  0  0  0  0  0  0  0  0  0
   37.3090   31.4130   48.6730 C   0  0  0  0  0  0  0  0  0  0  0  0
   37.3160   32.3710   49.6200 N   0  0  0  0  0  0  0  0  0  0  0  0
   38.2520   34.1910   50.2030 H   0  0  0  0  0  0  0  0  0  0  0  0
   39.7820   34.2960   48.2990 H   0  0  0  0  0  0  0  0  0  0  0  0
   39.6850   32.4500   46.5860 H   0  0  0  0  0  0  0  0  0  0  0  0
   33.3470   27.5780   48.3470 C   0  0  0  0  0  0  0  0  0  0  0  0
   33.6000   26.4990   47.5720 C   0  0  0  0  0  0  0  0  0  0  0  0
   34.6130   26.3200   47.2390 H   0  0  0  0  0  0  0  0  0  0  0  0
   32.5200   25.6980   47.2610 C   0  0  0  0  0  0  0  0  0  0  0  0
   32.7390   24.8240   46.6300 H   0  0  0  0  0  0  0  0  0  0  0  0
   31.2600   26.0120   47.7370 C   0  0  0  0  0  0  0  0  0  0  0  0
   31.0670   27.1210   48.5200 C   0  0  0  0  0  0  0  0  0  0  0  0
   32.1360   27.8680   48.7960 N   0  0  0  0  0  0  0  0  0  0  0  0
  1  2  2  0  0  0  0
  2  6  1  0  0  0  0
  3  2  1  0  0  0  0
  3  7  1  0  0  0  0
  4  3  2  0  0  0  0
  5  4  1  0  0  0  0
  5  1  1  0  0  0  0
  8 13  1  0  0  0  0
  8 14  1  0  0  0  0
  9  8  2  0  0  0  0
 10 11  2  0  0  0  0
 10  9  1  0  0  0  0
 11 12  1  0  0  0  0
 12  1  1  0  0  0  0
 12 13  2  0  0  0  0
 15  9  1  0  0  0  0
 16 10  1  0  0  0  0
 17  4  1  0  0  0  0
 17 24  1  0  0  0  0
 18 17  2  0  0  0  0
 19 18  1  0  0  0  0
 20 18  1  0  0  0  0
 20 22  2  0  0  0  0
 21 20  1  0  0  0  0
 22 23  1  0  0  0  0
 23 24  2  0  0  0  0
M  END
>  <minimizedAffinity>
-5.36924696

>  <minimizedRMSD>
0.695765555

$$$$
