
 OpenBabel03272500263D

 33 35  0  0  0  0  0  0  0  0999 V2000
   39.7980   32.2490   46.9510 C   0  0  0  0  0  0  0  0  0  0  0  0
   40.6500   32.9410   47.2240 H   0  0  0  0  0  0  0  0  0  0  0  0
   40.1470   31.2690   47.3980 H   0  0  0  0  0  0  0  0  0  0  0  0
   39.7590   32.1570   45.5260 C   0  0  0  0  0  0  0  0  0  0  0  0
   39.7080   33.2850   44.7670 C   0  0  0  0  0  0  0  0  0  0  0  0
   39.6680   33.2340   43.3650 C   0  0  0  0  0  0  0  0  0  0  0  0
   39.6860   31.9640   42.8260 N   0  0  0  0  0  0  0  0  0  0  0  0
   39.7370   30.8630   43.5910 C   0  0  0  0  0  0  0  0  0  0  0  0
   39.7720   30.9850   44.9360 N   0  0  0  0  0  0  0  0  0  0  0  0
   39.6910   34.2980   45.1270 H   0  0  0  0  0  0  0  0  0  0  0  0
   39.6280   34.0820   42.7250 H   0  0  0  0  0  0  0  0  0  0  0  0
   39.7540   29.5290   42.9960 C   0  0  0  0  0  0  0  0  0  0  0  0
   38.9920   28.5230   43.5550 C   0  0  0  0  0  0  0  0  0  0  0  0
   38.3730   28.6630   44.4150 H   0  0  0  0  0  0  0  0  0  0  0  0
   38.9850   27.2620   43.0220 C   0  0  0  0  0  0  0  0  0  0  0  0
   38.4080   26.4270   43.4110 H   0  0  0  0  0  0  0  0  0  0  0  0
   39.7690   27.0060   41.8970 C   0  0  0  0  0  0  0  0  0  0  0  0
   40.5230   28.0160   41.3520 C   0  0  0  0  0  0  0  0  0  0  0  0
   40.5180   29.2690   41.8950 N   0  0  0  0  0  0  0  0  0  0  0  0
   38.6210   32.6630   47.7190 C   0  0  0  0  0  0  0  0  0  0  0  0
   38.8580   33.4360   48.5090 H   0  0  0  0  0  0  0  0  0  0  0  0
   37.8530   33.1740   47.0870 H   0  0  0  0  0  0  0  0  0  0  0  0
   37.9550   31.5780   48.4620 C   0  0  0  0  0  0  0  0  0  0  0  0
   37.0650   30.7180   47.8300 C   0  0  0  0  0  0  0  0  0  0  0  0
   36.6140   29.8250   48.7640 C   0  0  0  0  0  0  0  0  0  0  0  0
   37.2070   30.1290   49.9280 N   0  0  0  0  0  0  0  0  0  0  0  0
   37.9840   31.1580   49.7160 N   0  0  0  0  0  0  0  0  0  0  0  0
   36.7180   30.6650   46.7980 H   0  0  0  0  0  0  0  0  0  0  0  0
   35.9200   28.9970   48.7050 H   0  0  0  0  0  0  0  0  0  0  0  0
   37.0440   29.4600   51.2180 C   0  0  0  0  0  0  0  0  0  0  0  0
   37.8350   28.3480   51.2900 F   0  0  0  0  0  0  0  0  0  0  0  0
   35.7390   29.1180   51.4600 F   0  0  0  0  0  0  0  0  0  0  0  0
   37.4480   30.3100   52.2500 F   0  0  0  0  0  0  0  0  0  0  0  0
  1  2  1  0  0  0  0
  1  3  1  0  0  0  0
  1 20  1  0  0  0  0
  4  1  1  0  0  0  0
  5 10  1  0  0  0  0
  5  4  2  0  0  0  0
  6  5  1  0  0  0  0
  7  6  2  0  0  0  0
  7  8  1  0  0  0  0
  8  9  2  0  0  0  0
  9  4  1  0  0  0  0
 11  6  1  0  0  0  0
 12 13  1  0  0  0  0
 12  8  1  0  0  0  0
 13 14  1  0  0  0  0
 15 16  1  0  0  0  0
 15 13  2  0  0  0  0
 17 15  1  0  0  0  0
 18 19  1  0  0  0  0
 18 17  2  0  0  0  0
 19 12  2  0  0  0  0
 20 23  1  0  0  0  0
 20 21  1  0  0  0  0
 22 20  1  0  0  0  0
 23 27  2  0  0  0  0
 24 23  1  0  0  0  0
 24 25  2  0  0  0  0
 25 26  1  0  0  0  0
 26 30  1  0  0  0  0
 27 26  1  0  0  0  0
 28 24  1  0  0  0  0
 29 25  1  0  0  0  0
 30 31  1  0  0  0  0
 30 32  1  0  0  0  0
 30 33  1  0  0  0  0
M  END
>  <minimizedAffinity>
-6.14553165

>  <minimizedRMSD>
1.2357204

$$$$
