
 OpenBabel03272508463D

 26 28  0  0  0  0  0  0  0  0999 V2000
   37.1300   26.6340   33.7890 C   0  0  0  0  0  0  0  0  0  0  0  0
   37.3530   27.6690   34.6780 C   0  0  0  0  0  0  0  0  0  0  0  0
   37.9680   27.0190   35.7460 C   0  0  0  0  0  0  0  0  0  0  0  0
   38.0900   25.6780   35.4790 C   0  0  0  0  0  0  0  0  0  0  0  0
   37.5720   25.4750   34.2860 O   0  0  0  0  0  0  0  0  0  0  0  0
   37.1160   28.7010   34.5730 H   0  0  0  0  0  0  0  0  0  0  0  0
   38.3120   27.4760   36.6670 H   0  0  0  0  0  0  0  0  0  0  0  0
   38.6730   24.6420   36.3280 C   0  0  0  0  0  0  0  0  0  0  0  0
   38.0890   24.4180   37.5720 C   0  0  0  0  0  0  0  0  0  0  0  0
   37.2310   24.9610   37.9510 H   0  0  0  0  0  0  0  0  0  0  0  0
   38.6290   23.4310   38.4030 C   0  0  0  0  0  0  0  0  0  0  0  0
   38.2640   23.1670   39.3840 H   0  0  0  0  0  0  0  0  0  0  0  0
   39.7170   22.7750   37.8670 C   0  0  0  0  0  3  0  0  0  0  0  0
   40.3150   22.9750   36.6430 C   0  0  0  0  0  3  0  0  0  0  0  0
   39.7390   23.9440   35.8970 N   0  0  0  0  0  0  0  0  0  0  0  0
   36.4910   26.7900   32.4760 C   0  0  0  0  0  0  0  0  0  0  0  0
   36.1540   25.7420   31.8650 O   0  0  0  0  0  0  0  0  0  0  0  0
   37.0480   29.8300   30.5740 C   0  0  0  0  0  0  0  0  0  0  0  0
   35.9110   30.5980   30.8520 C   0  0  0  0  0  0  0  0  0  0  0  0
   34.9430   30.0750   31.6980 C   0  0  0  0  0  0  0  0  0  0  0  0
   35.1570   28.8370   32.2100 N   0  0  0  0  0  0  0  0  0  0  0  0
   36.2660   28.1140   31.9250 C   0  0  0  0  0  0  0  0  0  0  0  0
   37.2110   28.6100   31.1080 N   0  0  0  0  0  0  0  0  0  0  0  0
   37.8310   30.1930   29.9210 H   0  0  0  0  0  0  0  0  0  0  0  0
   35.8020   31.5850   30.4080 H   0  0  0  0  0  0  0  0  0  0  0  0
   34.0430   30.6370   31.9430 H   0  0  0  0  0  0  0  0  0  0  0  0
  1  5  1  0  0  0  0
  1  2  2  0  0  0  0
  2  3  1  0  0  0  0
  3  7  1  0  0  0  0
  4  3  2  0  0  0  0
  4  8  1  0  0  0  0
  5  4  1  0  0  0  0
  6  2  1  0  0  0  0
  8  9  1  0  0  0  0
  9 10  1  0  0  0  0
  9 11  2  0  0  0  0
 11 12  1  0  0  0  0
 13 11  1  0  0  0  0
 14 13  2  0  0  0  0
 15  8  2  0  0  0  0
 15 14  1  0  0  0  0
 16  1  1  0  0  0  0
 17 16  2  0  0  0  0
 18 19  2  0  0  0  0
 18 23  1  0  0  0  0
 19 20  1  0  0  0  0
 20 26  1  0  0  0  0
 20 21  2  0  0  0  0
 22 21  1  0  0  0  0
 22 16  1  0  0  0  0
 23 22  2  0  0  0  0
 24 18  1  0  0  0  0
 25 19  1  0  0  0  0
M  END
>  <minimizedAffinity>
-5.17677212

$$$$

 OpenBabel03272508463D

 26 28  0  0  0  0  0  0  0  0999 V2000
   38.0930   25.4920   35.8470 C   0  0  0  0  0  0  0  0  0  0  0  0
   38.3490   26.6940   36.4800 C   0  0  0  0  0  0  0  0  0  0  0  0
   38.0610   27.6250   35.4830 C   0  0  0  0  0  0  0  0  0  0  0  0
   37.6590   26.9840   34.3370 C   0  0  0  0  0  0  0  0  0  0  0  0
   37.6900   25.6920   34.5890 O   0  0  0  0  0  0  0  0  0  0  0  0
   38.6820   26.8660   37.4760 H   0  0  0  0  0  0  0  0  0  0  0  0
   38.1330   28.7030   35.5670 H   0  0  0  0  0  0  0  0  0  0  0  0
   37.2670   27.5810   33.0630 C   0  0  0  0  0  0  0  0  0  0  0  0
   38.1740   27.5120   32.0080 C   0  0  0  0  0  0  0  0  0  0  0  0
   39.1500   27.0450   32.0700 H   0  0  0  0  0  0  0  0  0  0  0  0
   37.8210   28.0770   30.7780 C   0  0  0  0  0  0  0  0  0  0  0  0
   38.4370   28.0860   29.8910 H   0  0  0  0  0  0  0  0  0  0  0  0
   36.5710   28.6560   30.7610 C   0  0  0  0  0  3  0  0  0  0  0  0
   35.6550   28.7400   31.7850 C   0  0  0  0  0  3  0  0  0  0  0  0
   36.0660   28.1730   32.9410 N   0  0  0  0  0  0  0  0  0  0  0  0
   38.2450   24.1740   36.4760 C   0  0  0  0  0  0  0  0  0  0  0  0
   37.2180   23.6490   36.9810 O   0  0  0  0  0  0  0  0  0  0  0  0
   41.6600   23.3430   35.5730 C   0  0  0  0  0  0  0  0  0  0  0  0
   42.0020   22.3390   36.4860 C   0  0  0  0  0  0  0  0  0  0  0  0
   41.0570   21.9390   37.4220 C   0  0  0  0  0  0  0  0  0  0  0  0
   39.8470   22.5530   37.3950 N   0  0  0  0  0  0  0  0  0  0  0  0
   39.5420   23.5210   36.5000 C   0  0  0  0  0  0  0  0  0  0  0  0
   40.4480   23.9160   35.5890 N   0  0  0  0  0  0  0  0  0  0  0  0
   42.3620   23.6890   34.8240 H   0  0  0  0  0  0  0  0  0  0  0  0
   42.9910   21.8880   36.4520 H   0  0  0  0  0  0  0  0  0  0  0  0
   41.2780   21.1620   38.1520 H   0  0  0  0  0  0  0  0  0  0  0  0
  1 16  1  0  0  0  0
  1  2  2  0  0  0  0
  2  6  1  0  0  0  0
  3  7  1  0  0  0  0
  3  2  1  0  0  0  0
  4  5  1  0  0  0  0
  4  3  2  0  0  0  0
  5  1  1  0  0  0  0
  8  4  1  0  0  0  0
  9 10  1  0  0  0  0
  9  8  2  0  0  0  0
 11  9  1  0  0  0  0
 12 11  1  0  0  0  0
 13 11  2  0  0  0  0
 13 14  1  0  0  0  0
 14 15  2  0  0  0  0
 15  8  1  0  0  0  0
 16 22  1  0  0  0  0
 16 17  2  0  0  0  0
 18 23  2  0  0  0  0
 18 19  1  0  0  0  0
 19 20  2  0  0  0  0
 20 26  1  0  0  0  0
 21 20  1  0  0  0  0
 22 21  2  0  0  0  0
 23 22  1  0  0  0  0
 24 18  1  0  0  0  0
 25 19  1  0  0  0  0
M  END
>  <minimizedAffinity>
-5.12532949

$$$$

 OpenBabel03272508463D

 26 28  0  0  0  0  0  0  0  0999 V2000
   38.0720   25.4440   35.8450 C   0  0  0  0  0  0  0  0  0  0  0  0
   38.3350   26.6500   36.4670 C   0  0  0  0  0  0  0  0  0  0  0  0
   38.0080   27.5750   35.4770 C   0  0  0  0  0  0  0  0  0  0  0  0
   37.5790   26.9270   34.3450 C   0  0  0  0  0  0  0  0  0  0  0  0
   37.6300   25.6360   34.5990 O   0  0  0  0  0  0  0  0  0  0  0  0
   38.6950   26.8280   37.4530 H   0  0  0  0  0  0  0  0  0  0  0  0
   38.0710   28.6540   35.5570 H   0  0  0  0  0  0  0  0  0  0  0  0
   37.1430   27.5170   33.0820 C   0  0  0  0  0  0  0  0  0  0  0  0
   36.2210   28.5590   33.1380 C   0  0  0  0  0  0  0  0  0  0  0  0
   35.8050   28.9600   34.0550 H   0  0  0  0  0  0  0  0  0  0  0  0
   35.7880   29.1410   31.9410 C   0  0  0  0  0  0  0  0  0  0  0  0
   35.0790   29.9510   31.8570 H   0  0  0  0  0  0  0  0  0  0  0  0
   36.3500   28.5900   30.8100 C   0  0  0  0  0  3  0  0  0  0  0  0
   37.2630   27.5630   30.7250 C   0  0  0  0  0  3  0  0  0  0  0  0
   37.6330   27.0510   31.9200 N   0  0  0  0  0  0  0  0  0  0  0  0
   38.2560   24.1290   36.4720 C   0  0  0  0  0  0  0  0  0  0  0  0
   37.2440   23.5830   36.9840 O   0  0  0  0  0  0  0  0  0  0  0  0
   40.9880   21.9660   37.4850 C   0  0  0  0  0  0  0  0  0  0  0  0
   42.0060   22.2830   36.5780 C   0  0  0  0  0  0  0  0  0  0  0  0
   41.7590   23.2470   35.6100 C   0  0  0  0  0  0  0  0  0  0  0  0
   40.5330   23.8280   35.5990 N   0  0  0  0  0  0  0  0  0  0  0  0
   39.5660   23.5030   36.4880 C   0  0  0  0  0  0  0  0  0  0  0  0
   39.7930   22.5720   37.4310 N   0  0  0  0  0  0  0  0  0  0  0  0
   41.1310   21.2210   38.2590 H   0  0  0  0  0  0  0  0  0  0  0  0
   42.9670   21.7780   36.6430 H   0  0  0  0  0  0  0  0  0  0  0  0
   42.5210   23.5260   34.8830 H   0  0  0  0  0  0  0  0  0  0  0  0
  1  2  2  0  0  0  0
  1 16  1  0  0  0  0
  2  6  1  0  0  0  0
  3  7  1  0  0  0  0
  3  2  1  0  0  0  0
  4  5  1  0  0  0  0
  4  3  2  0  0  0  0
  5  1  1  0  0  0  0
  8  9  1  0  0  0  0
  8  4  1  0  0  0  0
  9 10  1  0  0  0  0
 11  9  2  0  0  0  0
 12 11  1  0  0  0  0
 13 11  1  0  0  0  0
 14 13  2  0  0  0  0
 14 15  1  0  0  0  0
 15  8  2  0  0  0  0
 16 22  1  0  0  0  0
 16 17  2  0  0  0  0
 18 24  1  0  0  0  0
 19 25  1  0  0  0  0
 19 18  2  0  0  0  0
 20 19  1  0  0  0  0
 21 20  2  0  0  0  0
 21 22  1  0  0  0  0
 22 23  2  0  0  0  0
 23 18  1  0  0  0  0
 26 20  1  0  0  0  0
M  END
>  <minimizedAffinity>
-5.12499905

$$$$

 OpenBabel03272508463D

 26 28  0  0  0  0  0  0  0  0999 V2000
   36.6600   28.5010   32.6750 C   0  0  0  0  0  0  0  0  0  0  0  0
   36.3100   29.4740   31.7580 C   0  0  0  0  0  0  0  0  0  0  0  0
   35.5780   30.3690   32.5360 C   0  0  0  0  0  0  0  0  0  0  0  0
   35.5150   29.9270   33.8350 C   0  0  0  0  0  0  0  0  0  0  0  0
   36.1800   28.7910   33.8870 O   0  0  0  0  0  0  0  0  0  0  0  0
   36.5410   29.5280   30.7200 H   0  0  0  0  0  0  0  0  0  0  0  0
   35.1140   31.2880   32.1980 H   0  0  0  0  0  0  0  0  0  0  0  0
   34.8480   30.5610   34.9680 C   0  0  0  0  0  0  0  0  0  0  0  0
   35.6010   31.4160   35.7690 C   0  0  0  0  0  0  0  0  0  0  0  0
   36.6490   31.6410   35.6060 H   0  0  0  0  0  0  0  0  0  0  0  0
   34.9850   32.0360   36.8610 C   0  0  0  0  0  0  0  0  0  0  0  0
   35.4630   32.7150   37.5500 H   0  0  0  0  0  0  0  0  0  0  0  0
   33.6540   31.7110   37.0170 C   0  0  0  0  0  3  0  0  0  0  0  0
   32.8850   30.8710   36.2430 C   0  0  0  0  0  3  0  0  0  0  0  0
   33.5480   30.3100   35.2090 N   0  0  0  0  0  0  0  0  0  0  0  0
   37.4550   27.3070   32.3550 C   0  0  0  0  0  0  0  0  0  0  0  0
   38.7080   27.4170   32.3910 O   0  0  0  0  0  0  0  0  0  0  0  0
   35.0050   25.0130   30.9760 C   0  0  0  0  0  0  0  0  0  0  0  0
   35.4990   23.7550   31.3390 C   0  0  0  0  0  0  0  0  0  0  0  0
   36.6810   23.6860   32.0640 C   0  0  0  0  0  0  0  0  0  0  0  0
   37.2940   24.8550   32.3790 N   0  0  0  0  0  0  0  0  0  0  0  0
   36.7950   26.0590   32.0150 C   0  0  0  0  0  0  0  0  0  0  0  0
   35.6510   26.1390   31.3140 N   0  0  0  0  0  0  0  0  0  0  0  0
   34.0870   25.1190   30.4110 H   0  0  0  0  0  0  0  0  0  0  0  0
   34.9560   22.8560   31.0540 H   0  0  0  0  0  0  0  0  0  0  0  0
   37.1030   22.7290   32.3680 H   0  0  0  0  0  0  0  0  0  0  0  0
  1  5  1  0  0  0  0
  2  3  1  0  0  0  0
  2  1  2  0  0  0  0
  3  4  2  0  0  0  0
  4  5  1  0  0  0  0
  4  8  1  0  0  0  0
  6  2  1  0  0  0  0
  7  3  1  0  0  0  0
  8 15  2  0  0  0  0
  8  9  1  0  0  0  0
  9 11  2  0  0  0  0
 10  9  1  0  0  0  0
 11 13  1  0  0  0  0
 11 12  1  0  0  0  0
 14 13  2  0  0  0  0
 15 14  1  0  0  0  0
 16 17  2  0  0  0  0
 16  1  1  0  0  0  0
 18 23  2  0  0  0  0
 18 19  1  0  0  0  0
 19 20  2  0  0  0  0
 20 26  1  0  0  0  0
 20 21  1  0  0  0  0
 22 16  1  0  0  0  0
 22 21  2  0  0  0  0
 23 22  1  0  0  0  0
 24 18  1  0  0  0  0
 25 19  1  0  0  0  0
M  END
>  <minimizedAffinity>
-5.09820032

$$$$

 OpenBabel03272508463D

 26 28  0  0  0  0  0  0  0  0999 V2000
   37.1670   26.2150   33.3890 C   0  0  0  0  0  0  0  0  0  0  0  0
   37.1380   27.2980   34.2480 C   0  0  0  0  0  0  0  0  0  0  0  0
   37.6880   26.7680   35.4150 C   0  0  0  0  0  0  0  0  0  0  0  0
   38.0130   25.4470   35.2290 C   0  0  0  0  0  0  0  0  0  0  0  0
   37.6850   25.1410   33.9910 O   0  0  0  0  0  0  0  0  0  0  0  0
   36.7870   28.2860   34.0660 H   0  0  0  0  0  0  0  0  0  0  0  0
   37.8470   27.2940   36.3480 H   0  0  0  0  0  0  0  0  0  0  0  0
   38.6090   24.5250   36.1920 C   0  0  0  0  0  0  0  0  0  0  0  0
   38.0060   24.4140   37.4420 C   0  0  0  0  0  0  0  0  0  0  0  0
   37.1250   24.9670   37.7470 H   0  0  0  0  0  0  0  0  0  0  0  0
   38.5570   23.5370   38.3820 C   0  0  0  0  0  0  0  0  0  0  0  0
   38.1800   23.3660   39.3800 H   0  0  0  0  0  0  0  0  0  0  0  0
   39.6740   22.8630   37.9370 C   0  0  0  0  0  3  0  0  0  0  0  0
   40.2920   22.9520   36.7100 C   0  0  0  0  0  3  0  0  0  0  0  0
   39.7030   23.8180   35.8560 N   0  0  0  0  0  0  0  0  0  0  0  0
   36.6890   26.2450   32.0000 C   0  0  0  0  0  0  0  0  0  0  0  0
   35.7310   25.4860   31.6990 O   0  0  0  0  0  0  0  0  0  0  0  0
   39.2580   27.7660   29.9380 C   0  0  0  0  0  0  0  0  0  0  0  0
   38.5610   28.7450   29.2220 C   0  0  0  0  0  0  0  0  0  0  0  0
   37.1980   28.8910   29.4440 C   0  0  0  0  0  0  0  0  0  0  0  0
   36.6180   28.0650   30.3510 N   0  0  0  0  0  0  0  0  0  0  0  0
   37.3150   27.1250   31.0310 C   0  0  0  0  0  0  0  0  0  0  0  0
   38.6350   26.9750   30.8240 N   0  0  0  0  0  0  0  0  0  0  0  0
   40.3220   27.6130   29.8000 H   0  0  0  0  0  0  0  0  0  0  0  0
   39.0890   29.3750   28.5090 H   0  0  0  0  0  0  0  0  0  0  0  0
   36.6150   29.6400   28.9110 H   0  0  0  0  0  0  0  0  0  0  0  0
  1  5  1  0  0  0  0
  1  2  2  0  0  0  0
  2  3  1  0  0  0  0
  3  7  1  0  0  0  0
  4  3  2  0  0  0  0
  4  8  1  0  0  0  0
  5  4  1  0  0  0  0
  6  2  1  0  0  0  0
  8  9  1  0  0  0  0
  9 10  1  0  0  0  0
  9 11  2  0  0  0  0
 11 12  1  0  0  0  0
 13 11  1  0  0  0  0
 14 13  2  0  0  0  0
 15  8  2  0  0  0  0
 15 14  1  0  0  0  0
 16  1  1  0  0  0  0
 17 16  2  0  0  0  0
 18 23  1  0  0  0  0
 19 20  1  0  0  0  0
 19 18  2  0  0  0  0
 20 21  2  0  0  0  0
 21 22  1  0  0  0  0
 22 16  1  0  0  0  0
 23 22  2  0  0  0  0
 24 18  1  0  0  0  0
 25 19  1  0  0  0  0
 26 20  1  0  0  0  0
M  END
>  <minimizedAffinity>
-5.05439186

$$$$

 OpenBabel03272508463D

 26 28  0  0  0  0  0  0  0  0999 V2000
   37.5540   24.2340   32.7990 C   0  0  0  0  0  0  0  0  0  0  0  0
   37.8200   25.5780   32.9790 C   0  0  0  0  0  0  0  0  0  0  0  0
   38.2310   25.6260   34.3100 C   0  0  0  0  0  0  0  0  0  0  0  0
   38.2010   24.3690   34.8620 C   0  0  0  0  0  0  0  0  0  0  0  0
   37.7860   23.5470   33.9210 O   0  0  0  0  0  0  0  0  0  0  0  0
   37.7350   26.3750   32.2800 H   0  0  0  0  0  0  0  0  0  0  0  0
   38.5370   26.5090   34.8590 H   0  0  0  0  0  0  0  0  0  0  0  0
   38.5520   23.9760   36.2240 C   0  0  0  0  0  0  0  0  0  0  0  0
   37.7800   24.4870   37.2650 C   0  0  0  0  0  0  0  0  0  0  0  0
   36.9380   25.1560   37.1310 H   0  0  0  0  0  0  0  0  0  0  0  0
   38.0960   24.1260   38.5790 C   0  0  0  0  0  0  0  0  0  0  0  0
   37.5730   24.4560   39.4650 H   0  0  0  0  0  0  0  0  0  0  0  0
   39.1750   23.2750   38.6870 C   0  0  0  0  0  3  0  0  0  0  0  0
   39.9550   22.7550   37.6780 C   0  0  0  0  0  3  0  0  0  0  0  0
   39.5900   23.1490   36.4380 N   0  0  0  0  0  0  0  0  0  0  0  0
   37.0790   23.6430   31.5410 C   0  0  0  0  0  0  0  0  0  0  0  0
   37.1320   24.3590   30.5070 O   0  0  0  0  0  0  0  0  0  0  0  0
   34.8640   20.8210   32.0840 C   0  0  0  0  0  0  0  0  0  0  0  0
   35.5570   19.7490   31.5100 C   0  0  0  0  0  0  0  0  0  0  0  0
   36.7960   19.9900   30.9300 C   0  0  0  0  0  0  0  0  0  0  0  0
   37.2640   21.2640   30.9550 N   0  0  0  0  0  0  0  0  0  0  0  0
   36.5730   22.2830   31.5170 C   0  0  0  0  0  0  0  0  0  0  0  0
   35.3730   22.0620   32.0820 N   0  0  0  0  0  0  0  0  0  0  0  0
   33.8950   20.6840   32.5480 H   0  0  0  0  0  0  0  0  0  0  0  0
   35.1240   18.7520   31.5250 H   0  0  0  0  0  0  0  0  0  0  0  0
   37.3710   19.1880   30.4720 H   0  0  0  0  0  0  0  0  0  0  0  0
  1  2  2  0  0  0  0
  1  5  1  0  0  0  0
  2  3  1  0  0  0  0
  3  7  1  0  0  0  0
  3  4  2  0  0  0  0
  4  8  1  0  0  0  0
  5  4  1  0  0  0  0
  6  2  1  0  0  0  0
  8 15  2  0  0  0  0
  8  9  1  0  0  0  0
  9 11  2  0  0  0  0
 10  9  1  0  0  0  0
 11 13  1  0  0  0  0
 11 12  1  0  0  0  0
 14 13  2  0  0  0  0
 15 14  1  0  0  0  0
 16  1  1  0  0  0  0
 17 16  2  0  0  0  0
 18 24  1  0  0  0  0
 19 25  1  0  0  0  0
 19 18  2  0  0  0  0
 20 21  2  0  0  0  0
 20 19  1  0  0  0  0
 21 22  1  0  0  0  0
 22 16  1  0  0  0  0
 22 23  2  0  0  0  0
 23 18  1  0  0  0  0
 26 20  1  0  0  0  0
M  END
>  <minimizedAffinity>
-5.02078247

$$$$

 OpenBabel03272508463D

 26 28  0  0  0  0  0  0  0  0999 V2000
   37.9810   24.1530   33.8120 C   0  0  0  0  0  0  0  0  0  0  0  0
   37.4130   24.7780   32.7170 C   0  0  0  0  0  0  0  0  0  0  0  0
   36.7940   23.7190   32.0570 C   0  0  0  0  0  0  0  0  0  0  0  0
   36.9980   22.5470   32.7420 C   0  0  0  0  0  0  0  0  0  0  0  0
   37.7220   22.8430   33.8010 O   0  0  0  0  0  0  0  0  0  0  0  0
   37.4410   25.8070   32.4470 H   0  0  0  0  0  0  0  0  0  0  0  0
   36.2260   23.7780   31.1350 H   0  0  0  0  0  0  0  0  0  0  0  0
   36.5230   21.2100   32.3970 C   0  0  0  0  0  0  0  0  0  0  0  0
   35.1480   20.9920   32.3880 C   0  0  0  0  0  0  0  0  0  0  0  0
   34.4080   21.7480   32.6200 H   0  0  0  0  0  0  0  0  0  0  0  0
   34.6690   19.7190   32.0600 C   0  0  0  0  0  0  0  0  0  0  0  0
   33.6290   19.4300   32.0200 H   0  0  0  0  0  0  0  0  0  0  0  0
   35.6560   18.8000   31.7760 C   0  0  0  0  0  3  0  0  0  0  0  0
   37.0200   18.9860   31.7760 C   0  0  0  0  0  3  0  0  0  0  0  0
   37.4070   20.2400   32.1020 N   0  0  0  0  0  0  0  0  0  0  0  0
   38.7650   24.8410   34.8460 C   0  0  0  0  0  0  0  0  0  0  0  0
   39.3620   25.8990   34.5150 O   0  0  0  0  0  0  0  0  0  0  0  0
   37.9560   24.2890   38.3410 C   0  0  0  0  0  0  0  0  0  0  0  0
   38.8960   23.3330   38.7430 C   0  0  0  0  0  0  0  0  0  0  0  0
   39.8180   22.8710   37.8140 C   0  0  0  0  0  0  0  0  0  0  0  0
   39.7510   23.3780   36.5560 N   0  0  0  0  0  0  0  0  0  0  0  0
   38.8320   24.3020   36.1920 C   0  0  0  0  0  0  0  0  0  0  0  0
   37.9340   24.7580   37.0840 N   0  0  0  0  0  0  0  0  0  0  0  0
   37.2160   24.6800   39.0280 H   0  0  0  0  0  0  0  0  0  0  0  0
   38.8940   22.9690   39.7680 H   0  0  0  0  0  0  0  0  0  0  0  0
   40.5670   22.1280   38.0820 H   0  0  0  0  0  0  0  0  0  0  0  0
  1 16  1  0  0  0  0
  2  1  2  0  0  0  0
  3  2  1  0  0  0  0
  3  4  2  0  0  0  0
  4  5  1  0  0  0  0
  5  1  1  0  0  0  0
  6  2  1  0  0  0  0
  7  3  1  0  0  0  0
  8  4  1  0  0  0  0
  9  8  1  0  0  0  0
  9 10  1  0  0  0  0
 11  9  2  0  0  0  0
 12 11  1  0  0  0  0
 13 11  1  0  0  0  0
 14 13  2  0  0  0  0
 14 15  1  0  0  0  0
 15  8  2  0  0  0  0
 16 22  1  0  0  0  0
 17 16  2  0  0  0  0
 18 19  1  0  0  0  0
 18 24  1  0  0  0  0
 19 25  1  0  0  0  0
 20 26  1  0  0  0  0
 20 19  2  0  0  0  0
 21 20  1  0  0  0  0
 22 21  2  0  0  0  0
 22 23  1  0  0  0  0
 23 18  2  0  0  0  0
M  END
>  <minimizedAffinity>
-4.95857906

$$$$

 OpenBabel03272508463D

 26 28  0  0  0  0  0  0  0  0999 V2000
   36.4230   26.0290   32.0750 C   0  0  0  0  0  0  0  0  0  0  0  0
   35.3900   26.1060   31.1600 C   0  0  0  0  0  0  0  0  0  0  0  0
   35.1530   24.7650   30.8630 C   0  0  0  0  0  0  0  0  0  0  0  0
   36.0090   23.9630   31.5750 C   0  0  0  0  0  0  0  0  0  0  0  0
   36.7670   24.7590   32.3000 O   0  0  0  0  0  0  0  0  0  0  0  0
   34.8980   26.9700   30.7780 H   0  0  0  0  0  0  0  0  0  0  0  0
   34.4090   24.3780   30.1760 H   0  0  0  0  0  0  0  0  0  0  0  0
   36.0970   22.5050   31.5600 C   0  0  0  0  0  0  0  0  0  0  0  0
   35.0800   21.7870   32.1850 C   0  0  0  0  0  0  0  0  0  0  0  0
   34.2290   22.2390   32.6810 H   0  0  0  0  0  0  0  0  0  0  0  0
   35.1420   20.3900   32.1830 C   0  0  0  0  0  0  0  0  0  0  0  0
   34.4160   19.7280   32.6320 H   0  0  0  0  0  0  0  0  0  0  0  0
   36.2450   19.8740   31.5390 C   0  0  0  0  0  3  0  0  0  0  0  0
   37.2650   20.5570   30.9140 C   0  0  0  0  0  3  0  0  0  0  0  0
   37.1370   21.9020   30.9560 N   0  0  0  0  0  0  0  0  0  0  0  0
   37.0560   27.1920   32.7120 C   0  0  0  0  0  0  0  0  0  0  0  0
   36.3850   28.2550   32.7760 O   0  0  0  0  0  0  0  0  0  0  0  0
   39.7600   26.7980   35.0990 C   0  0  0  0  0  0  0  0  0  0  0  0
   40.9090   26.8950   34.3060 C   0  0  0  0  0  0  0  0  0  0  0  0
   40.7620   27.0980   32.9400 C   0  0  0  0  0  0  0  0  0  0  0  0
   39.4990   27.1900   32.4510 N   0  0  0  0  0  0  0  0  0  0  0  0
   38.4040   27.0920   33.2400 C   0  0  0  0  0  0  0  0  0  0  0  0
   38.5340   26.8970   34.5640 N   0  0  0  0  0  0  0  0  0  0  0  0
   39.8220   26.6400   36.1690 H   0  0  0  0  0  0  0  0  0  0  0  0
   41.8930   26.8120   34.7630 H   0  0  0  0  0  0  0  0  0  0  0  0
   41.6270   27.1790   32.2840 H   0  0  0  0  0  0  0  0  0  0  0  0
  1  5  1  0  0  0  0
  1 16  1  0  0  0  0
  2  1  2  0  0  0  0
  3  2  1  0  0  0  0
  3  4  2  0  0  0  0
  4  5  1  0  0  0  0
  6  2  1  0  0  0  0
  7  3  1  0  0  0  0
  8  4  1  0  0  0  0
  8  9  1  0  0  0  0
  9 10  1  0  0  0  0
 11  9  2  0  0  0  0
 11 12  1  0  0  0  0
 13 11  1  0  0  0  0
 14 15  1  0  0  0  0
 14 13  2  0  0  0  0
 15  8  2  0  0  0  0
 16 17  2  0  0  0  0
 16 22  1  0  0  0  0
 18 24  1  0  0  0  0
 19 25  1  0  0  0  0
 19 18  2  0  0  0  0
 20 19  1  0  0  0  0
 21 20  2  0  0  0  0
 21 22  1  0  0  0  0
 22 23  2  0  0  0  0
 23 18  1  0  0  0  0
 26 20  1  0  0  0  0
M  END
>  <minimizedAffinity>
-4.93794823

$$$$

 OpenBabel03272508463D

 26 28  0  0  0  0  0  0  0  0999 V2000
   38.2030   24.5140   35.6170 C   0  0  0  0  0  0  0  0  0  0  0  0
   38.4950   25.4150   36.6240 C   0  0  0  0  0  0  0  0  0  0  0  0
   38.1320   26.6330   36.0500 C   0  0  0  0  0  0  0  0  0  0  0  0
   37.6560   26.4350   34.7780 C   0  0  0  0  0  0  0  0  0  0  0  0
   37.7120   25.1400   34.5440 O   0  0  0  0  0  0  0  0  0  0  0  0
   38.8950   25.2280   37.5930 H   0  0  0  0  0  0  0  0  0  0  0  0
   38.2030   27.6100   36.5130 H   0  0  0  0  0  0  0  0  0  0  0  0
   37.1730   27.4380   33.8330 C   0  0  0  0  0  0  0  0  0  0  0  0
   37.7320   27.4500   32.5580 C   0  0  0  0  0  0  0  0  0  0  0  0
   38.5010   26.7650   32.2210 H   0  0  0  0  0  0  0  0  0  0  0  0
   37.2850   28.4010   31.6340 C   0  0  0  0  0  0  0  0  0  0  0  0
   37.6410   28.5080   30.6210 H   0  0  0  0  0  0  0  0  0  0  0  0
   36.3080   29.2440   32.1200 C   0  0  0  0  0  3  0  0  0  0  0  0
   35.7370   29.2550   33.3730 C   0  0  0  0  0  3  0  0  0  0  0  0
   36.2190   28.3090   34.2090 N   0  0  0  0  0  0  0  0  0  0  0  0
   38.4070   23.0630   35.7180 C   0  0  0  0  0  0  0  0  0  0  0  0
   39.4250   22.6610   36.3410 O   0  0  0  0  0  0  0  0  0  0  0  0
   35.6750   20.6940   35.4180 C   0  0  0  0  0  0  0  0  0  0  0  0
   35.6380   20.4140   34.0470 C   0  0  0  0  0  0  0  0  0  0  0  0
   36.5560   21.0390   33.2140 C   0  0  0  0  0  0  0  0  0  0  0  0
   37.4420   21.8940   33.7840 N   0  0  0  0  0  0  0  0  0  0  0  0
   37.4570   22.1480   35.1130 C   0  0  0  0  0  0  0  0  0  0  0  0
   36.5740   21.5480   35.9310 N   0  0  0  0  0  0  0  0  0  0  0  0
   34.9810   20.2320   36.1090 H   0  0  0  0  0  0  0  0  0  0  0  0
   34.9010   19.7160   33.6560 H   0  0  0  0  0  0  0  0  0  0  0  0
   36.5650   20.8510   32.1410 H   0  0  0  0  0  0  0  0  0  0  0  0
  1 16  1  0  0  0  0
  1  2  2  0  0  0  0
  2  6  1  0  0  0  0
  3  7  1  0  0  0  0
  3  2  1  0  0  0  0
  4  3  2  0  0  0  0
  5  4  1  0  0  0  0
  5  1  1  0  0  0  0
  8 15  1  0  0  0  0
  8  4  1  0  0  0  0
  9  8  2  0  0  0  0
 10  9  1  0  0  0  0
 11 13  2  0  0  0  0
 11  9  1  0  0  0  0
 12 11  1  0  0  0  0
 13 14  1  0  0  0  0
 14 15  2  0  0  0  0
 16 17  2  0  0  0  0
 18 23  1  0  0  0  0
 18 24  1  0  0  0  0
 19 18  2  0  0  0  0
 20 21  2  0  0  0  0
 20 19  1  0  0  0  0
 21 22  1  0  0  0  0
 22 16  1  0  0  0  0
 22 23  2  0  0  0  0
 25 19  1  0  0  0  0
 26 20  1  0  0  0  0
M  END
>  <minimizedAffinity>
-4.87885284

$$$$
