
 OpenBabel03272507493D

 45 49  0  0  1  0  0  0  0  0999 V2000
   37.5510   24.9760   31.7450 N   0  0  0  0  0  0  0  0  0  0  0  0
   38.6160   25.9170   31.6600 C   0  0  0  0  0  0  0  0  0  0  0  0
   38.2870   27.3280   31.9670 C   0  0  0  0  0  0  0  0  0  0  0  0
   36.9830   27.8180   31.5210 C   0  0  1  0  0  0  0  0  0  0  0  0
   35.8960   26.7270   31.5780 C   0  0  0  0  0  0  0  0  0  0  0  0
   36.4850   25.4710   30.9160 C   0  0  0  0  0  0  0  0  0  0  0  0
   38.9860   25.8910   30.5960 H   0  0  0  0  0  0  0  0  0  0  0  0
   39.4950   25.6030   32.2620 H   0  0  0  0  0  0  0  0  0  0  0  0
   39.1000   27.9860   31.6150 H   0  0  0  0  0  0  0  0  0  0  0  0
   38.2470   27.3130   33.1070 H   0  0  0  0  0  0  0  0  0  0  0  0
   36.9580   28.1490   30.4460 H   0  0  0  0  0  0  0  0  0  0  0  0
   35.7250   26.4970   32.6400 H   0  0  0  0  0  0  0  0  0  0  0  0
   35.0260   27.0810   31.0180 H   0  0  0  0  0  0  0  0  0  0  0  0
   36.7780   25.7570   29.8970 H   0  0  0  0  0  0  0  0  0  0  0  0
   35.7120   24.6880   30.8470 H   0  0  0  0  0  0  0  0  0  0  0  0
   36.0780   28.6870   33.6280 C   0  0  0  0  0  0  0  0  0  0  0  0
   36.4340   28.9450   32.3180 C   0  0  0  0  0  0  0  0  0  0  0  0
   36.2850   30.1640   31.7130 C   0  0  0  0  0  0  0  0  0  0  0  0
   35.7410   31.2070   32.4660 C   0  0  0  0  0  0  0  0  0  0  0  0
   35.3880   30.9480   33.7660 C   0  0  0  0  0  0  0  0  0  0  0  0
   35.5380   29.7100   34.3850 C   0  0  0  0  0  0  0  0  0  0  0  0
   34.8600   32.1110   34.3620 O   0  0  0  0  0  0  0  0  0  0  0  0
   35.2440   33.1610   33.4780 C   0  0  0  0  0  0  0  0  0  0  0  0
   35.4370   32.5450   32.2300 O   0  0  0  0  0  0  0  0  0  0  0  0
   36.1570   27.7820   34.2140 H   0  0  0  0  0  0  0  0  0  0  0  0
   36.5680   30.3290   30.7060 H   0  0  0  0  0  0  0  0  0  0  0  0
   35.2290   29.5850   35.4360 H   0  0  0  0  0  0  0  0  0  0  0  0
   34.3540   33.8310   33.3910 H   0  0  0  0  0  0  0  0  0  0  0  0
   36.1100   33.7230   33.8590 H   0  0  0  0  0  0  0  0  0  0  0  0
   37.5130   23.7610   32.4980 C   0  0  0  0  0  0  0  0  0  0  0  0
   37.1050   22.5170   32.0190 C   0  0  0  0  0  0  0  0  0  0  0  0
   37.1380   21.4450   32.9070 C   0  0  0  0  0  0  0  0  0  0  0  0
   37.5580   21.6630   34.1760 N   0  0  0  0  0  0  0  0  0  0  0  0
   37.9470   22.8730   34.6150 C   0  0  0  0  0  0  0  0  0  0  0  0
   37.9200   23.9060   33.7720 N   0  0  0  0  0  0  0  0  0  0  0  0
   36.8020   22.4990   31.0050 H   0  0  0  0  0  0  0  0  0  0  0  0
   36.8220   20.4920   32.5290 H   0  0  0  0  0  0  0  0  0  0  0  0
   38.3890   23.0360   35.9950 C   0  0  0  0  0  0  0  0  0  0  0  0
   37.5980   23.7130   36.9000 C   0  0  0  0  0  0  0  0  0  0  0  0
   36.6370   24.1260   36.5730 H   0  0  0  0  0  0  0  0  0  0  0  0
   37.9490   23.9100   38.2320 C   0  0  0  0  0  0  0  0  0  0  0  0
   37.3260   24.4410   38.9350 H   0  0  0  0  0  0  0  0  0  0  0  0
   39.1570   23.3940   38.6530 C   0  0  0  0  0  3  0  0  0  0  0  0
   39.9510   22.7100   37.7260 C   0  0  0  0  0  3  0  0  0  0  0  0
   39.5760   22.5350   36.4270 N   0  0  0  0  0  0  0  0  0  0  0  0
  1 30  1  0  0  0  0
  2  1  1  0  0  0  0
  2  3  1  0  0  0  0
  2  8  1  0  0  0  0
  3 10  1  0  0  0  0
  4 11  1  6  0  0  0
  4  5  1  0  0  0  0
  4  3  1  0  0  0  0
  4 17  1  0  0  0  0
  5 12  1  0  0  0  0
  6  5  1  0  0  0  0
  6  1  1  0  0  0  0
  7  2  1  0  0  0  0
  9  3  1  0  0  0  0
 13  5  1  0  0  0  0
 14  6  1  0  0  0  0
 15  6  1  0  0  0  0
 16 25  1  0  0  0  0
 16 21  1  0  0  0  0
 17 16  2  0  0  0  0
 18 17  1  0  0  0  0
 18 19  2  0  0  0  0
 19 20  1  0  0  0  0
 20 22  1  0  0  0  0
 20 21  2  0  0  0  0
 21 27  1  0  0  0  0
 23 29  1  0  0  0  0
 23 22  1  0  0  0  0
 24 19  1  0  0  0  0
 24 23  1  0  0  0  0
 26 18  1  0  0  0  0
 28 23  1  0  0  0  0
 30 35  1  0  0  0  0
 31 30  2  0  0  0  0
 31 32  1  0  0  0  0
 32 33  2  0  0  0  0
 33 34  1  0  0  0  0
 34 38  1  0  0  0  0
 35 34  2  0  0  0  0
 36 31  1  0  0  0  0
 37 32  1  0  0  0  0
 38 45  2  0  0  0  0
 38 39  1  0  0  0  0
 39 41  2  0  0  0  0
 40 39  1  0  0  0  0
 41 43  1  0  0  0  0
 41 42  1  0  0  0  0
 44 43  2  0  0  0  0
 45 44  1  0  0  0  0
M  END
>  <minimizedAffinity>
-6.37887239

$$$$

 OpenBabel03272507493D

 45 49  0  0  1  0  0  0  0  0999 V2000
   37.7150   25.0540   31.8640 N   0  0  0  0  0  0  0  0  0  0  0  0
   38.7580   26.0220   31.9150 C   0  0  0  0  0  0  0  0  0  0  0  0
   38.3510   27.4340   32.1040 C   0  0  0  0  0  0  0  0  0  0  0  0
   37.1260   27.8670   31.4300 C   0  0  1  0  0  0  0  0  0  0  0  0
   36.0700   26.7480   31.3550 C   0  0  0  0  0  0  0  0  0  0  0  0
   36.7890   25.4860   30.8510 C   0  0  0  0  0  0  0  0  0  0  0  0
   39.2980   25.9670   30.9270 H   0  0  0  0  0  0  0  0  0  0  0  0
   39.5320   25.7570   32.6650 H   0  0  0  0  0  0  0  0  0  0  0  0
   39.1950   28.1010   31.8620 H   0  0  0  0  0  0  0  0  0  0  0  0
   38.1240   27.4600   33.2220 H   0  0  0  0  0  0  0  0  0  0  0  0
   37.2710   28.1570   30.3530 H   0  0  0  0  0  0  0  0  0  0  0  0
   35.7320   26.5530   32.3830 H   0  0  0  0  0  0  0  0  0  0  0  0
   35.2960   27.0550   30.6460 H   0  0  0  0  0  0  0  0  0  0  0  0
   37.2390   25.7420   29.8830 H   0  0  0  0  0  0  0  0  0  0  0  0
   36.0560   24.6780   30.6900 H   0  0  0  0  0  0  0  0  0  0  0  0
   36.5200   30.2430   31.4670 C   0  0  0  0  0  0  0  0  0  0  0  0
   36.4280   29.0070   32.0780 C   0  0  0  0  0  0  0  0  0  0  0  0
   35.7570   28.7840   33.2510 C   0  0  0  0  0  0  0  0  0  0  0  0
   35.1300   29.8710   33.8640 C   0  0  0  0  0  0  0  0  0  0  0  0
   35.2230   31.0970   33.2560 C   0  0  0  0  0  0  0  0  0  0  0  0
   35.9040   31.3280   32.0630 C   0  0  0  0  0  0  0  0  0  0  0  0
   34.5350   32.0640   34.0160 O   0  0  0  0  0  0  0  0  0  0  0  0
   33.7290   31.2980   34.9080 C   0  0  0  0  0  0  0  0  0  0  0  0
   34.3760   30.0560   35.0200 O   0  0  0  0  0  0  0  0  0  0  0  0
   37.0030   30.5400   30.5470 H   0  0  0  0  0  0  0  0  0  0  0  0
   35.7060   27.8230   33.6940 H   0  0  0  0  0  0  0  0  0  0  0  0
   35.9310   32.3460   31.6390 H   0  0  0  0  0  0  0  0  0  0  0  0
   33.8010   31.8080   35.9000 H   0  0  0  0  0  0  0  0  0  0  0  0
   32.6820   31.2500   34.5770 H   0  0  0  0  0  0  0  0  0  0  0  0
   37.5820   23.8680   32.6510 C   0  0  0  0  0  0  0  0  0  0  0  0
   37.0920   22.6420   32.2020 C   0  0  0  0  0  0  0  0  0  0  0  0
   37.0380   21.5980   33.1210 C   0  0  0  0  0  0  0  0  0  0  0  0
   37.4560   21.8220   34.3890 N   0  0  0  0  0  0  0  0  0  0  0  0
   37.9250   23.0150   34.7980 C   0  0  0  0  0  0  0  0  0  0  0  0
   37.9820   24.0220   33.9260 N   0  0  0  0  0  0  0  0  0  0  0  0
   36.8020   22.6150   31.1850 H   0  0  0  0  0  0  0  0  0  0  0  0
   36.6600   20.6580   32.7660 H   0  0  0  0  0  0  0  0  0  0  0  0
   38.3600   23.1880   36.1800 C   0  0  0  0  0  0  0  0  0  0  0  0
   37.6080   23.9460   37.0530 C   0  0  0  0  0  0  0  0  0  0  0  0
   36.6840   24.4160   36.7000 H   0  0  0  0  0  0  0  0  0  0  0  0
   37.9560   24.1580   38.3830 C   0  0  0  0  0  0  0  0  0  0  0  0
   37.3640   24.7520   39.0610 H   0  0  0  0  0  0  0  0  0  0  0  0
   39.1180   23.5690   38.8370 C   0  0  0  0  0  3  0  0  0  0  0  0
   39.8720   22.8020   37.9420 C   0  0  0  0  0  3  0  0  0  0  0  0
   39.5030   22.6160   36.6440 N   0  0  0  0  0  0  0  0  0  0  0  0
  1  2  1  0  0  0  0
  1 30  1  0  0  0  0
  2  3  1  0  0  0  0
  2  8  1  0  0  0  0
  3 10  1  0  0  0  0
  4 11  1  6  0  0  0
  4 17  1  0  0  0  0
  4  3  1  0  0  0  0
  5  4  1  0  0  0  0
  5 12  1  0  0  0  0
  6  5  1  0  0  0  0
  6  1  1  0  0  0  0
  7  2  1  0  0  0  0
  9  3  1  0  0  0  0
 13  5  1  0  0  0  0
 14  6  1  0  0  0  0
 15  6  1  0  0  0  0
 16 21  2  0  0  0  0
 16 17  1  0  0  0  0
 17 18  2  0  0  0  0
 18 26  1  0  0  0  0
 18 19  1  0  0  0  0
 19 24  1  0  0  0  0
 20 19  2  0  0  0  0
 20 22  1  0  0  0  0
 21 20  1  0  0  0  0
 22 23  1  0  0  0  0
 23 24  1  0  0  0  0
 23 28  1  0  0  0  0
 25 16  1  0  0  0  0
 27 21  1  0  0  0  0
 29 23  1  0  0  0  0
 30 35  1  0  0  0  0
 31 30  2  0  0  0  0
 31 32  1  0  0  0  0
 32 33  2  0  0  0  0
 33 34  1  0  0  0  0
 34 38  1  0  0  0  0
 35 34  2  0  0  0  0
 36 31  1  0  0  0  0
 37 32  1  0  0  0  0
 38 45  2  0  0  0  0
 38 39  1  0  0  0  0
 39 41  2  0  0  0  0
 40 39  1  0  0  0  0
 41 43  1  0  0  0  0
 41 42  1  0  0  0  0
 44 43  2  0  0  0  0
 45 44  1  0  0  0  0
M  END
>  <minimizedAffinity>
-6.37728691

$$$$

 OpenBabel03272507493D

 45 49  0  0  1  0  0  0  0  0999 V2000
   37.1930   27.8210   31.4310 N   0  0  0  0  0  0  0  0  0  0  0  0
   36.4950   26.6130   31.1500 C   0  0  0  0  0  0  0  0  0  0  0  0
   36.6600   25.5040   32.1180 C   0  0  0  0  0  0  0  0  0  0  0  0
   37.9860   25.3360   32.7140 C   0  0  1  0  0  0  0  0  0  0  0  0
   38.7070   26.6810   32.9280 C   0  0  0  0  0  0  0  0  0  0  0  0
   38.5760   27.4740   31.6180 C   0  0  0  0  0  0  0  0  0  0  0  0
   36.8790   26.2410   30.1570 H   0  0  0  0  0  0  0  0  0  0  0  0
   35.4140   26.7910   30.9730 H   0  0  0  0  0  0  0  0  0  0  0  0
   36.3040   24.5610   31.6690 H   0  0  0  0  0  0  0  0  0  0  0  0
   35.9700   25.8330   32.9650 H   0  0  0  0  0  0  0  0  0  0  0  0
   38.7080   24.7560   32.0760 H   0  0  0  0  0  0  0  0  0  0  0  0
   38.1520   27.2250   33.7060 H   0  0  0  0  0  0  0  0  0  0  0  0
   39.7580   26.4750   33.1460 H   0  0  0  0  0  0  0  0  0  0  0  0
   39.0150   26.8520   30.8260 H   0  0  0  0  0  0  0  0  0  0  0  0
   39.1580   28.4080   31.6880 H   0  0  0  0  0  0  0  0  0  0  0  0
   38.0000   23.3030   34.0850 C   0  0  0  0  0  0  0  0  0  0  0  0
   37.9900   24.6850   34.0490 C   0  0  0  0  0  0  0  0  0  0  0  0
   37.9590   25.4760   35.1660 C   0  0  0  0  0  0  0  0  0  0  0  0
   37.9340   24.8500   36.4130 C   0  0  0  0  0  0  0  0  0  0  0  0
   37.9430   23.4780   36.4470 C   0  0  0  0  0  0  0  0  0  0  0  0
   37.9750   22.6690   35.3140 C   0  0  0  0  0  0  0  0  0  0  0  0
   37.9130   23.0290   37.7820 O   0  0  0  0  0  0  0  0  0  0  0  0
   38.2490   24.1850   38.5460 C   0  0  0  0  0  0  0  0  0  0  0  0
   37.9010   25.2790   37.7380 O   0  0  0  0  0  0  0  0  0  0  0  0
   38.0360   22.5780   33.2850 H   0  0  0  0  0  0  0  0  0  0  0  0
   37.9530   26.5340   35.1040 H   0  0  0  0  0  0  0  0  0  0  0  0
   37.9800   21.5720   35.4270 H   0  0  0  0  0  0  0  0  0  0  0  0
   37.5610   24.1820   39.4260 H   0  0  0  0  0  0  0  0  0  0  0  0
   39.2970   24.1670   38.8800 H   0  0  0  0  0  0  0  0  0  0  0  0
   36.6560   29.1440   31.5170 C   0  0  0  0  0  0  0  0  0  0  0  0
   36.6490   30.0900   30.4940 C   0  0  0  0  0  0  0  0  0  0  0  0
   36.0780   31.3290   30.7690 C   0  0  0  0  0  0  0  0  0  0  0  0
   35.5670   31.5510   32.0030 N   0  0  0  0  0  0  0  0  0  0  0  0
   35.5850   30.6220   32.9750 C   0  0  0  0  0  0  0  0  0  0  0  0
   36.1290   29.4310   32.7210 N   0  0  0  0  0  0  0  0  0  0  0  0
   37.0850   29.7740   29.5830 H   0  0  0  0  0  0  0  0  0  0  0  0
   36.0780   32.0510   29.9750 H   0  0  0  0  0  0  0  0  0  0  0  0
   35.0150   30.9280   34.2820 C   0  0  0  0  0  0  0  0  0  0  0  0
   35.7690   31.5910   35.2290 C   0  0  0  0  0  0  0  0  0  0  0  0
   36.7970   31.8840   34.9890 H   0  0  0  0  0  0  0  0  0  0  0  0
   35.2970   31.9190   36.4960 C   0  0  0  0  0  0  0  0  0  0  0  0
   35.8920   32.4370   37.2320 H   0  0  0  0  0  0  0  0  0  0  0  0
   34.0040   31.5540   36.8050 C   0  0  0  0  0  3  0  0  0  0  0  0
   33.2490   30.8820   35.8370 C   0  0  0  0  0  3  0  0  0  0  0  0
   33.7430   30.5760   34.6050 N   0  0  0  0  0  0  0  0  0  0  0  0
  1 30  1  0  0  0  0
  1  6  1  0  0  0  0
  2  1  1  0  0  0  0
  2  3  1  0  0  0  0
  3  4  1  0  0  0  0
  3 10  1  0  0  0  0
  4 11  1  6  0  0  0
  4  5  1  0  0  0  0
  4 17  1  0  0  0  0
  5 13  1  0  0  0  0
  5 12  1  0  0  0  0
  6 15  1  0  0  0  0
  6  5  1  0  0  0  0
  7  2  1  0  0  0  0
  8  2  1  0  0  0  0
  9  3  1  0  0  0  0
 14  6  1  0  0  0  0
 16 21  1  0  0  0  0
 17 16  2  0  0  0  0
 17 18  1  0  0  0  0
 18 19  2  0  0  0  0
 19 20  1  0  0  0  0
 19 24  1  0  0  0  0
 20 22  1  0  0  0  0
 21 27  1  0  0  0  0
 21 20  2  0  0  0  0
 22 23  1  0  0  0  0
 23 29  1  0  0  0  0
 23 28  1  0  0  0  0
 24 23  1  0  0  0  0
 25 16  1  0  0  0  0
 26 18  1  0  0  0  0
 30 35  1  0  0  0  0
 31 32  1  0  0  0  0
 31 30  2  0  0  0  0
 32 33  2  0  0  0  0
 33 34  1  0  0  0  0
 34 38  1  0  0  0  0
 35 34  2  0  0  0  0
 36 31  1  0  0  0  0
 37 32  1  0  0  0  0
 38 45  2  0  0  0  0
 38 39  1  0  0  0  0
 39 41  2  0  0  0  0
 40 39  1  0  0  0  0
 41 43  1  0  0  0  0
 41 42  1  0  0  0  0
 44 43  2  0  0  0  0
 45 44  1  0  0  0  0
M  END
>  <minimizedAffinity>
-6.22434855

$$$$

 OpenBabel03272507493D

 45 49  0  0  1  0  0  0  0  0999 V2000
   38.6230   26.5190   33.4870 N   0  0  0  0  0  0  0  0  0  0  0  0
   38.1200   26.9870   32.2390 C   0  0  0  0  0  0  0  0  0  0  0  0
   37.2300   28.1700   32.2780 C   0  0  0  0  0  0  0  0  0  0  0  0
   36.2990   28.2630   33.4030 C   0  0  1  0  0  0  0  0  0  0  0  0
   36.8870   27.6790   34.7010 C   0  0  0  0  0  0  0  0  0  0  0  0
   37.4890   26.3100   34.3460 C   0  0  0  0  0  0  0  0  0  0  0  0
   37.5220   26.1410   31.7950 H   0  0  0  0  0  0  0  0  0  0  0  0
   38.9330   27.1600   31.5040 H   0  0  0  0  0  0  0  0  0  0  0  0
   36.7020   28.2710   31.3160 H   0  0  0  0  0  0  0  0  0  0  0  0
   37.9810   29.0180   32.4170 H   0  0  0  0  0  0  0  0  0  0  0  0
   35.3490   27.6770   33.2640 H   0  0  0  0  0  0  0  0  0  0  0  0
   37.7130   28.3380   35.0070 H   0  0  0  0  0  0  0  0  0  0  0  0
   36.0750   27.5630   35.4240 H   0  0  0  0  0  0  0  0  0  0  0  0
   36.6770   25.7100   33.9130 H   0  0  0  0  0  0  0  0  0  0  0  0
   37.8400   25.8070   35.2620 H   0  0  0  0  0  0  0  0  0  0  0  0
   35.5450   30.4960   32.7240 C   0  0  0  0  0  0  0  0  0  0  0  0
   35.8880   29.6460   33.7590 C   0  0  0  0  0  0  0  0  0  0  0  0
   35.8940   30.0130   35.0780 C   0  0  0  0  0  0  0  0  0  0  0  0
   35.5340   31.3240   35.3950 C   0  0  0  0  0  0  0  0  0  0  0  0
   35.1940   32.1670   34.3670 C   0  0  0  0  0  0  0  0  0  0  0  0
   35.1860   31.7980   33.0240 C   0  0  0  0  0  0  0  0  0  0  0  0
   34.8640   33.4380   34.8760 O   0  0  0  0  0  0  0  0  0  0  0  0
   34.6730   33.2170   36.2710 C   0  0  0  0  0  0  0  0  0  0  0  0
   35.4170   32.0630   36.5700 O   0  0  0  0  0  0  0  0  0  0  0  0
   35.4900   30.3230   31.6590 H   0  0  0  0  0  0  0  0  0  0  0  0
   36.1620   29.3360   35.8470 H   0  0  0  0  0  0  0  0  0  0  0  0
   34.9000   32.5360   32.2570 H   0  0  0  0  0  0  0  0  0  0  0  0
   35.1620   34.0780   36.7890 H   0  0  0  0  0  0  0  0  0  0  0  0
   33.6070   33.1650   36.5370 H   0  0  0  0  0  0  0  0  0  0  0  0
   39.9870   26.2890   33.8510 C   0  0  0  0  0  0  0  0  0  0  0  0
   41.0670   27.1070   33.5240 C   0  0  0  0  0  0  0  0  0  0  0  0
   42.3260   26.7160   33.9700 C   0  0  0  0  0  0  0  0  0  0  0  0
   42.4370   25.5740   34.6900 N   0  0  0  0  0  0  0  0  0  0  0  0
   41.3790   24.8020   34.9930 C   0  0  0  0  0  0  0  0  0  0  0  0
   40.1680   25.1670   34.5710 N   0  0  0  0  0  0  0  0  0  0  0  0
   40.8280   27.9670   32.9560 H   0  0  0  0  0  0  0  0  0  0  0  0
   43.1520   27.3510   33.7130 H   0  0  0  0  0  0  0  0  0  0  0  0
   41.5700   23.5840   35.7730 C   0  0  0  0  0  0  0  0  0  0  0  0
   42.7810   22.9230   35.7420 C   0  0  0  0  0  0  0  0  0  0  0  0
   43.5950   23.3210   35.1260 H   0  0  0  0  0  0  0  0  0  0  0  0
   43.0400   21.7590   36.4570 C   0  0  0  0  0  0  0  0  0  0  0  0
   43.9900   21.2470   36.4270 H   0  0  0  0  0  0  0  0  0  0  0  0
   42.0210   21.2510   37.2340 C   0  0  0  0  0  3  0  0  0  0  0  0
   40.7970   21.9290   37.2590 C   0  0  0  0  0  3  0  0  0  0  0  0
   40.5760   23.0690   36.5450 N   0  0  0  0  0  0  0  0  0  0  0  0
  1 30  1  0  0  0  0
  1  6  1  0  0  0  0
  2  3  1  0  0  0  0
  2  1  1  0  0  0  0
  3 10  1  0  0  0  0
  3  4  1  0  0  0  0
  4 11  1  6  0  0  0
  4 17  1  0  0  0  0
  4  5  1  0  0  0  0
  5 12  1  0  0  0  0
  5 13  1  0  0  0  0
  6  5  1  0  0  0  0
  6 15  1  0  0  0  0
  7  2  1  0  0  0  0
  8  2  1  0  0  0  0
  9  3  1  0  0  0  0
 14  6  1  0  0  0  0
 16 21  2  0  0  0  0
 16 17  1  0  0  0  0
 17 18  2  0  0  0  0
 18 19  1  0  0  0  0
 18 26  1  0  0  0  0
 19 24  1  0  0  0  0
 20 22  1  0  0  0  0
 20 19  2  0  0  0  0
 21 20  1  0  0  0  0
 22 23  1  0  0  0  0
 23 29  1  0  0  0  0
 23 24  1  0  0  0  0
 23 28  1  0  0  0  0
 25 16  1  0  0  0  0
 27 21  1  0  0  0  0
 30 35  1  0  0  0  0
 31 30  2  0  0  0  0
 31 32  1  0  0  0  0
 32 33  2  0  0  0  0
 33 34  1  0  0  0  0
 34 38  1  0  0  0  0
 35 34  2  0  0  0  0
 36 31  1  0  0  0  0
 37 32  1  0  0  0  0
 38 45  1  0  0  0  0
 39 38  2  0  0  0  0
 39 41  1  0  0  0  0
 40 39  1  0  0  0  0
 41 43  2  0  0  0  0
 42 41  1  0  0  0  0
 43 44  1  0  0  0  0
 45 44  2  0  0  0  0
M  END
>  <minimizedAffinity>
-6.15105104

$$$$

 OpenBabel03272507493D

 45 49  0  0  1  0  0  0  0  0999 V2000
   36.9340   27.3400   33.1470 N   0  0  0  0  0  0  0  0  0  0  0  0
   37.0720   28.3250   34.1660 C   0  0  0  0  0  0  0  0  0  0  0  0
   35.8580   29.0980   34.5180 C   0  0  0  0  0  0  0  0  0  0  0  0
   34.9570   29.4530   33.4220 C   0  0  1  0  0  0  0  0  0  0  0  0
   34.9090   28.3700   32.3270 C   0  0  0  0  0  0  0  0  0  0  0  0
   36.3640   27.9960   32.0010 C   0  0  0  0  0  0  0  0  0  0  0  0
   37.8370   29.0660   33.7960 H   0  0  0  0  0  0  0  0  0  0  0  0
   37.5240   27.9060   35.0890 H   0  0  0  0  0  0  0  0  0  0  0  0
   36.1400   29.9880   35.1050 H   0  0  0  0  0  0  0  0  0  0  0  0
   35.2900   28.3510   35.1670 H   0  0  0  0  0  0  0  0  0  0  0  0
   35.2610   30.3770   32.8560 H   0  0  0  0  0  0  0  0  0  0  0  0
   34.4270   27.4860   32.7680 H   0  0  0  0  0  0  0  0  0  0  0  0
   34.4180   28.7940   31.4470 H   0  0  0  0  0  0  0  0  0  0  0  0
   36.8680   28.9220   31.6930 H   0  0  0  0  0  0  0  0  0  0  0  0
   36.3870   27.2910   31.1550 H   0  0  0  0  0  0  0  0  0  0  0  0
   32.5640   29.3310   32.8960 C   0  0  0  0  0  0  0  0  0  0  0  0
   33.5400   29.6550   33.8210 C   0  0  0  0  0  0  0  0  0  0  0  0
   33.2750   30.1700   35.0610 C   0  0  0  0  0  0  0  0  0  0  0  0
   31.9400   30.3810   35.4110 C   0  0  0  0  0  0  0  0  0  0  0  0
   30.9730   30.0610   34.4920 C   0  0  0  0  0  0  0  0  0  0  0  0
   31.2380   29.5360   33.2300 C   0  0  0  0  0  0  0  0  0  0  0  0
   29.6960   30.3420   35.0190 O   0  0  0  0  0  0  0  0  0  0  0  0
   29.9240   30.5050   36.4160 C   0  0  0  0  0  0  0  0  0  0  0  0
   31.2750   30.8700   36.5330 O   0  0  0  0  0  0  0  0  0  0  0  0
   32.6460   28.9120   31.9040 H   0  0  0  0  0  0  0  0  0  0  0  0
   34.0460   30.4070   35.7470 H   0  0  0  0  0  0  0  0  0  0  0  0
   30.4020   29.3040   32.5490 H   0  0  0  0  0  0  0  0  0  0  0  0
   29.3080   31.3830   36.7270 H   0  0  0  0  0  0  0  0  0  0  0  0
   29.6310   29.6110   36.9870 H   0  0  0  0  0  0  0  0  0  0  0  0
   37.2840   25.9550   33.2140 C   0  0  0  0  0  0  0  0  0  0  0  0
   37.2280   25.0470   32.1580 C   0  0  0  0  0  0  0  0  0  0  0  0
   37.6110   23.7350   32.4180 C   0  0  0  0  0  0  0  0  0  0  0  0
   38.0120   23.4090   33.6700 N   0  0  0  0  0  0  0  0  0  0  0  0
   38.0570   24.3030   34.6730 C   0  0  0  0  0  0  0  0  0  0  0  0
   37.6930   25.5630   34.4340 N   0  0  0  0  0  0  0  0  0  0  0  0
   36.8940   25.4460   31.2360 H   0  0  0  0  0  0  0  0  0  0  0  0
   37.5640   23.0440   31.5990 H   0  0  0  0  0  0  0  0  0  0  0  0
   38.5010   23.8840   35.9990 C   0  0  0  0  0  0  0  0  0  0  0  0
   37.8020   24.2800   37.1200 C   0  0  0  0  0  0  0  0  0  0  0  0
   36.9140   24.9110   37.0060 H   0  0  0  0  0  0  0  0  0  0  0  0
   38.1610   23.9230   38.4160 C   0  0  0  0  0  0  0  0  0  0  0  0
   37.6100   24.2370   39.2890 H   0  0  0  0  0  0  0  0  0  0  0  0
   39.2780   23.1290   38.5690 C   0  0  0  0  0  3  0  0  0  0  0  0
   39.9790   22.7330   37.4240 C   0  0  0  0  0  3  0  0  0  0  0  0
   39.6000   23.1020   36.1680 N   0  0  0  0  0  0  0  0  0  0  0  0
  1 30  1  0  0  0  0
  1  2  1  0  0  0  0
  2  3  1  0  0  0  0
  2  8  1  0  0  0  0
  3  9  1  0  0  0  0
  3 10  1  0  0  0  0
  4 11  1  6  0  0  0
  4 17  1  0  0  0  0
  4  3  1  0  0  0  0
  5 12  1  0  0  0  0
  5  4  1  0  0  0  0
  6  5  1  0  0  0  0
  6  1  1  0  0  0  0
  7  2  1  0  0  0  0
 13  5  1  0  0  0  0
 14  6  1  0  0  0  0
 15  6  1  0  0  0  0
 16 21  2  0  0  0  0
 16 17  1  0  0  0  0
 17 18  2  0  0  0  0
 18 19  1  0  0  0  0
 18 26  1  0  0  0  0
 19 24  1  0  0  0  0
 20 22  1  0  0  0  0
 20 19  2  0  0  0  0
 21 20  1  0  0  0  0
 22 23  1  0  0  0  0
 23 24  1  0  0  0  0
 23 28  1  0  0  0  0
 23 29  1  0  0  0  0
 25 16  1  0  0  0  0
 27 21  1  0  0  0  0
 30 35  1  0  0  0  0
 31 32  1  0  0  0  0
 31 30  2  0  0  0  0
 32 33  2  0  0  0  0
 33 34  1  0  0  0  0
 34 38  1  0  0  0  0
 35 34  2  0  0  0  0
 36 31  1  0  0  0  0
 37 32  1  0  0  0  0
 38 45  2  0  0  0  0
 38 39  1  0  0  0  0
 39 41  2  0  0  0  0
 40 39  1  0  0  0  0
 41 43  1  0  0  0  0
 41 42  1  0  0  0  0
 44 43  2  0  0  0  0
 45 44  1  0  0  0  0
M  END
>  <minimizedAffinity>
-6.12802172

$$$$

 OpenBabel03272507493D

 45 49  0  0  1  0  0  0  0  0999 V2000
   37.6180   27.7170   32.3510 N   0  0  0  0  0  0  0  0  0  0  0  0
   38.2770   26.9680   31.3350 C   0  0  0  0  0  0  0  0  0  0  0  0
   38.1810   25.4930   31.4240 C   0  0  0  0  0  0  0  0  0  0  0  0
   38.2250   24.9050   32.7630 C   0  0  1  0  0  0  0  0  0  0  0  0
   37.5520   25.8010   33.8200 C   0  0  0  0  0  0  0  0  0  0  0  0
   38.0960   27.2240   33.6150 C   0  0  0  0  0  0  0  0  0  0  0  0
   39.3710   27.2300   31.3990 H   0  0  0  0  0  0  0  0  0  0  0  0
   37.9770   27.2970   30.3190 H   0  0  0  0  0  0  0  0  0  0  0  0
   38.9320   25.0300   30.7620 H   0  0  0  0  0  0  0  0  0  0  0  0
   37.1270   25.3060   31.0300 H   0  0  0  0  0  0  0  0  0  0  0  0
   39.2640   24.7630   33.1700 H   0  0  0  0  0  0  0  0  0  0  0  0
   36.4760   25.8180   33.5910 H   0  0  0  0  0  0  0  0  0  0  0  0
   37.8250   25.4270   34.8100 H   0  0  0  0  0  0  0  0  0  0  0  0
   39.1890   27.1620   33.7110 H   0  0  0  0  0  0  0  0  0  0  0  0
   37.7150   27.8870   34.4090 H   0  0  0  0  0  0  0  0  0  0  0  0
   37.8460   22.8180   33.9960 C   0  0  0  0  0  0  0  0  0  0  0  0
   37.5440   23.5900   32.8890 C   0  0  0  0  0  0  0  0  0  0  0  0
   36.6810   23.2010   31.9000 C   0  0  0  0  0  0  0  0  0  0  0  0
   36.0710   21.9510   32.0170 C   0  0  0  0  0  0  0  0  0  0  0  0
   36.3720   21.1860   33.1150 C   0  0  0  0  0  0  0  0  0  0  0  0
   37.2490   21.5770   34.1240 C   0  0  0  0  0  0  0  0  0  0  0  0
   35.6680   19.9660   33.0600 O   0  0  0  0  0  0  0  0  0  0  0  0
   34.6650   20.1870   32.0720 C   0  0  0  0  0  0  0  0  0  0  0  0
   35.1670   21.2140   31.2560 O   0  0  0  0  0  0  0  0  0  0  0  0
   38.4920   23.0170   34.8380 H   0  0  0  0  0  0  0  0  0  0  0  0
   36.4710   23.8170   31.0640 H   0  0  0  0  0  0  0  0  0  0  0  0
   37.4370   20.9030   34.9750 H   0  0  0  0  0  0  0  0  0  0  0  0
   34.6290   19.2540   31.4580 H   0  0  0  0  0  0  0  0  0  0  0  0
   33.6820   20.3880   32.5220 H   0  0  0  0  0  0  0  0  0  0  0  0
   36.6610   28.7670   32.1850 C   0  0  0  0  0  0  0  0  0  0  0  0
   36.2450   29.3060   30.9690 C   0  0  0  0  0  0  0  0  0  0  0  0
   35.3000   30.3270   31.0100 C   0  0  0  0  0  0  0  0  0  0  0  0
   34.8390   30.7410   32.2130 N   0  0  0  0  0  0  0  0  0  0  0  0
   35.2560   30.2050   33.3740 C   0  0  0  0  0  0  0  0  0  0  0  0
   36.1610   29.2260   33.3470 N   0  0  0  0  0  0  0  0  0  0  0  0
   36.6930   28.8820   30.1090 H   0  0  0  0  0  0  0  0  0  0  0  0
   34.9860   30.7360   30.0680 H   0  0  0  0  0  0  0  0  0  0  0  0
   34.7160   30.6990   34.6370 C   0  0  0  0  0  0  0  0  0  0  0  0
   35.5150   31.4280   35.4930 C   0  0  0  0  0  0  0  0  0  0  0  0
   36.5560   31.6310   35.2170 H   0  0  0  0  0  0  0  0  0  0  0  0
   35.0750   31.9320   36.7120 C   0  0  0  0  0  0  0  0  0  0  0  0
   35.7060   32.5010   37.3780 H   0  0  0  0  0  0  0  0  0  0  0  0
   33.7670   31.6810   37.0680 C   0  0  0  0  0  3  0  0  0  0  0  0
   32.9660   30.9400   36.1910 C   0  0  0  0  0  3  0  0  0  0  0  0
   33.4300   30.4600   35.0030 N   0  0  0  0  0  0  0  0  0  0  0  0
  1  6  1  0  0  0  0
  2  7  1  0  0  0  0
  2  3  1  0  0  0  0
  2  1  1  0  0  0  0
  3  4  1  0  0  0  0
  4 17  1  0  0  0  0
  4 11  1  1  0  0  0
  4  5  1  0  0  0  0
  5 13  1  0  0  0  0
  6 14  1  0  0  0  0
  6  5  1  0  0  0  0
  6 15  1  0  0  0  0
  8  2  1  0  0  0  0
  9  3  1  0  0  0  0
 10  3  1  0  0  0  0
 12  5  1  0  0  0  0
 16 21  1  0  0  0  0
 16 25  1  0  0  0  0
 17 16  2  0  0  0  0
 18 19  2  0  0  0  0
 18 17  1  0  0  0  0
 19 20  1  0  0  0  0
 20 21  2  0  0  0  0
 21 27  1  0  0  0  0
 22 20  1  0  0  0  0
 23 29  1  0  0  0  0
 23 22  1  0  0  0  0
 24 19  1  0  0  0  0
 24 23  1  0  0  0  0
 26 18  1  0  0  0  0
 28 23  1  0  0  0  0
 30  1  1  0  0  0  0
 30 35  1  0  0  0  0
 31 32  1  0  0  0  0
 31 30  2  0  0  0  0
 32 33  2  0  0  0  0
 33 34  1  0  0  0  0
 34 38  1  0  0  0  0
 35 34  2  0  0  0  0
 36 31  1  0  0  0  0
 37 32  1  0  0  0  0
 38 45  2  0  0  0  0
 38 39  1  0  0  0  0
 39 41  2  0  0  0  0
 40 39  1  0  0  0  0
 41 43  1  0  0  0  0
 41 42  1  0  0  0  0
 44 43  2  0  0  0  0
 45 44  1  0  0  0  0
M  END
>  <minimizedAffinity>
-6.12596989

$$$$

 OpenBabel03272507493D

 45 49  0  0  1  0  0  0  0  0999 V2000
   37.0750   27.8980   31.5340 N   0  0  0  0  0  0  0  0  0  0  0  0
   36.3190   26.6920   31.5160 C   0  0  0  0  0  0  0  0  0  0  0  0
   36.6970   25.6510   32.4990 C   0  0  0  0  0  0  0  0  0  0  0  0
   38.1240   25.4910   32.7810 C   0  0  1  0  0  0  0  0  0  0  0  0
   38.8880   26.8270   32.7180 C   0  0  0  0  0  0  0  0  0  0  0  0
   38.4600   27.5280   31.4190 C   0  0  0  0  0  0  0  0  0  0  0  0
   36.4560   26.2410   30.4920 H   0  0  0  0  0  0  0  0  0  0  0  0
   35.2280   26.8860   31.5850 H   0  0  0  0  0  0  0  0  0  0  0  0
   36.2370   24.6880   32.2190 H   0  0  0  0  0  0  0  0  0  0  0  0
   36.2290   26.0570   33.4570 H   0  0  0  0  0  0  0  0  0  0  0  0
   38.6710   24.8470   32.0370 H   0  0  0  0  0  0  0  0  0  0  0  0
   38.5360   27.4400   33.5610 H   0  0  0  0  0  0  0  0  0  0  0  0
   39.9590   26.6090   32.6990 H   0  0  0  0  0  0  0  0  0  0  0  0
   38.6950   26.8400   30.5950 H   0  0  0  0  0  0  0  0  0  0  0  0
   39.0510   28.4490   31.2800 H   0  0  0  0  0  0  0  0  0  0  0  0
   37.7160   25.4220   35.1980 C   0  0  0  0  0  0  0  0  0  0  0  0
   38.4360   24.9360   34.1230 C   0  0  0  0  0  0  0  0  0  0  0  0
   39.4280   23.9990   34.2300 C   0  0  0  0  0  0  0  0  0  0  0  0
   39.7310   23.5070   35.5020 C   0  0  0  0  0  0  0  0  0  0  0  0
   39.0160   23.9920   36.5680 C   0  0  0  0  0  0  0  0  0  0  0  0
   38.0060   24.9450   36.4630 C   0  0  0  0  0  0  0  0  0  0  0  0
   39.4590   23.3850   37.7610 O   0  0  0  0  0  0  0  0  0  0  0  0
   40.2170   22.2610   37.3190 C   0  0  0  0  0  0  0  0  0  0  0  0
   40.6360   22.5830   36.0180 O   0  0  0  0  0  0  0  0  0  0  0  0
   36.9120   26.1430   35.2400 H   0  0  0  0  0  0  0  0  0  0  0  0
   39.9610   23.6460   33.3860 H   0  0  0  0  0  0  0  0  0  0  0  0
   37.4780   25.2820   37.3710 H   0  0  0  0  0  0  0  0  0  0  0  0
   41.1250   22.2290   37.9690 H   0  0  0  0  0  0  0  0  0  0  0  0
   39.6490   21.3230   37.4080 H   0  0  0  0  0  0  0  0  0  0  0  0
   36.5860   29.2370   31.6440 C   0  0  0  0  0  0  0  0  0  0  0  0
   36.6470   30.2120   30.6500 C   0  0  0  0  0  0  0  0  0  0  0  0
   36.1150   31.4640   30.9450 C   0  0  0  0  0  0  0  0  0  0  0  0
   35.5730   31.6700   32.1680 N   0  0  0  0  0  0  0  0  0  0  0  0
   35.5260   30.7130   33.1120 C   0  0  0  0  0  0  0  0  0  0  0  0
   36.0320   29.5100   32.8400 N   0  0  0  0  0  0  0  0  0  0  0  0
   37.1000   29.9060   29.7430 H   0  0  0  0  0  0  0  0  0  0  0  0
   36.1670   32.2080   30.1730 H   0  0  0  0  0  0  0  0  0  0  0  0
   34.9260   31.0040   34.4100 C   0  0  0  0  0  0  0  0  0  0  0  0
   35.6390   31.7020   35.3620 C   0  0  0  0  0  0  0  0  0  0  0  0
   36.6570   32.0360   35.1340 H   0  0  0  0  0  0  0  0  0  0  0  0
   35.1380   32.0180   36.6200 C   0  0  0  0  0  0  0  0  0  0  0  0
   35.7010   32.5640   37.3610 H   0  0  0  0  0  0  0  0  0  0  0  0
   33.8570   31.6020   36.9160 C   0  0  0  0  0  3  0  0  0  0  0  0
   33.1430   30.8930   35.9420 C   0  0  0  0  0  3  0  0  0  0  0  0
   33.6650   30.6010   34.7180 N   0  0  0  0  0  0  0  0  0  0  0  0
  1 30  1  0  0  0  0
  2  1  1  0  0  0  0
  2  8  1  0  0  0  0
  2  3  1  0  0  0  0
  3  4  1  0  0  0  0
  3 10  1  0  0  0  0
  4 11  1  6  0  0  0
  4 17  1  0  0  0  0
  5  4  1  0  0  0  0
  5 12  1  0  0  0  0
  6  1  1  0  0  0  0
  6  5  1  0  0  0  0
  7  2  1  0  0  0  0
  9  3  1  0  0  0  0
 13  5  1  0  0  0  0
 14  6  1  0  0  0  0
 15  6  1  0  0  0  0
 16 25  1  0  0  0  0
 16 21  1  0  0  0  0
 17 18  1  0  0  0  0
 17 16  2  0  0  0  0
 18 19  2  0  0  0  0
 19 24  1  0  0  0  0
 19 20  1  0  0  0  0
 20 22  1  0  0  0  0
 21 20  2  0  0  0  0
 21 27  1  0  0  0  0
 23 29  1  0  0  0  0
 23 22  1  0  0  0  0
 23 28  1  0  0  0  0
 24 23  1  0  0  0  0
 26 18  1  0  0  0  0
 30 35  1  0  0  0  0
 31 32  1  0  0  0  0
 31 30  2  0  0  0  0
 32 33  2  0  0  0  0
 33 34  1  0  0  0  0
 34 38  1  0  0  0  0
 35 34  2  0  0  0  0
 36 31  1  0  0  0  0
 37 32  1  0  0  0  0
 38 45  2  0  0  0  0
 38 39  1  0  0  0  0
 39 41  2  0  0  0  0
 40 39  1  0  0  0  0
 41 43  1  0  0  0  0
 41 42  1  0  0  0  0
 44 43  2  0  0  0  0
 45 44  1  0  0  0  0
M  END
>  <minimizedAffinity>
-6.1077342

$$$$

 OpenBabel03272507493D

 45 49  0  0  1  0  0  0  0  0999 V2000
   37.4170   27.4320   31.4350 N   0  0  0  0  0  0  0  0  0  0  0  0
   36.9850   26.0910   31.2330 C   0  0  0  0  0  0  0  0  0  0  0  0
   37.4360   25.0860   32.2230 C   0  0  0  0  0  0  0  0  0  0  0  0
   38.7940   25.2340   32.7470 C   0  0  1  0  0  0  0  0  0  0  0  0
   39.2150   26.7100   32.8760 C   0  0  0  0  0  0  0  0  0  0  0  0
   38.8500   27.4000   31.5520 C   0  0  0  0  0  0  0  0  0  0  0  0
   37.3910   25.7690   30.2310 H   0  0  0  0  0  0  0  0  0  0  0  0
   35.8830   26.0240   31.1140 H   0  0  0  0  0  0  0  0  0  0  0  0
   37.2710   24.0710   31.8260 H   0  0  0  0  0  0  0  0  0  0  0  0
   36.7340   25.2950   33.0990 H   0  0  0  0  0  0  0  0  0  0  0  0
   39.5920   24.7960   32.0870 H   0  0  0  0  0  0  0  0  0  0  0  0
   38.5940   27.1550   33.6680 H   0  0  0  0  0  0  0  0  0  0  0  0
   40.2960   26.7450   33.0390 H   0  0  0  0  0  0  0  0  0  0  0  0
   39.3730   26.8530   30.7560 H   0  0  0  0  0  0  0  0  0  0  0  0
   39.2180   28.4390   31.5580 H   0  0  0  0  0  0  0  0  0  0  0  0
   40.2080   24.0140   34.3370 C   0  0  0  0  0  0  0  0  0  0  0  0
   39.0070   24.6570   34.0990 C   0  0  0  0  0  0  0  0  0  0  0  0
   38.0040   24.7660   35.0240 C   0  0  0  0  0  0  0  0  0  0  0  0
   38.2060   24.1930   36.2810 C   0  0  0  0  0  0  0  0  0  0  0  0
   39.3980   23.5550   36.5160 C   0  0  0  0  0  0  0  0  0  0  0  0
   40.4210   23.4420   35.5780 C   0  0  0  0  0  0  0  0  0  0  0  0
   39.4200   23.0430   37.8280 O   0  0  0  0  0  0  0  0  0  0  0  0
   38.3430   23.7110   38.4810 C   0  0  0  0  0  0  0  0  0  0  0  0
   37.4620   24.0890   37.4540 O   0  0  0  0  0  0  0  0  0  0  0  0
   41.0700   23.8750   33.7010 H   0  0  0  0  0  0  0  0  0  0  0  0
   37.0950   25.2660   34.8100 H   0  0  0  0  0  0  0  0  0  0  0  0
   41.3510   22.9130   35.8460 H   0  0  0  0  0  0  0  0  0  0  0  0
   37.8300   22.9340   39.0980 H   0  0  0  0  0  0  0  0  0  0  0  0
   38.6970   24.5340   39.1190 H   0  0  0  0  0  0  0  0  0  0  0  0
   36.6100   28.6110   31.5110 C   0  0  0  0  0  0  0  0  0  0  0  0
   36.8600   29.8140   30.8540 C   0  0  0  0  0  0  0  0  0  0  0  0
   35.9560   30.8540   31.0530 C   0  0  0  0  0  0  0  0  0  0  0  0
   34.8940   30.6470   31.8660 N   0  0  0  0  0  0  0  0  0  0  0  0
   34.6740   29.4760   32.4900 C   0  0  0  0  0  0  0  0  0  0  0  0
   35.5330   28.4730   32.3050 N   0  0  0  0  0  0  0  0  0  0  0  0
   37.7300   29.8290   30.2510 H   0  0  0  0  0  0  0  0  0  0  0  0
   36.1580   31.7760   30.5430 H   0  0  0  0  0  0  0  0  0  0  0  0
   33.5070   29.3210   33.3520 C   0  0  0  0  0  0  0  0  0  0  0  0
   33.5960   29.6150   34.6970 C   0  0  0  0  0  0  0  0  0  0  0  0
   34.5490   29.9650   35.1100 H   0  0  0  0  0  0  0  0  0  0  0  0
   32.5310   29.4930   35.5830 C   0  0  0  0  0  0  0  0  0  0  0  0
   32.6070   29.7240   36.6340 H   0  0  0  0  0  0  0  0  0  0  0  0
   31.3270   29.0540   35.0710 C   0  0  0  0  0  3  0  0  0  0  0  0
   31.2490   28.7590   33.7060 C   0  0  0  0  0  3  0  0  0  0  0  0
   32.3140   28.8890   32.8650 N   0  0  0  0  0  0  0  0  0  0  0  0
  1 30  1  0  0  0  0
  1  6  1  0  0  0  0
  2  1  1  0  0  0  0
  2  3  1  0  0  0  0
  3  4  1  0  0  0  0
  3 10  1  0  0  0  0
  4 11  1  6  0  0  0
  4  5  1  0  0  0  0
  4 17  1  0  0  0  0
  5 13  1  0  0  0  0
  5 12  1  0  0  0  0
  6 15  1  0  0  0  0
  6  5  1  0  0  0  0
  7  2  1  0  0  0  0
  8  2  1  0  0  0  0
  9  3  1  0  0  0  0
 14  6  1  0  0  0  0
 16 21  1  0  0  0  0
 17 16  2  0  0  0  0
 17 18  1  0  0  0  0
 18 19  2  0  0  0  0
 19 20  1  0  0  0  0
 19 24  1  0  0  0  0
 20 22  1  0  0  0  0
 21 27  1  0  0  0  0
 21 20  2  0  0  0  0
 22 23  1  0  0  0  0
 23 28  1  0  0  0  0
 23 29  1  0  0  0  0
 24 23  1  0  0  0  0
 25 16  1  0  0  0  0
 26 18  1  0  0  0  0
 30 35  1  0  0  0  0
 31 32  1  0  0  0  0
 31 30  2  0  0  0  0
 32 33  2  0  0  0  0
 33 34  1  0  0  0  0
 34 38  1  0  0  0  0
 35 34  2  0  0  0  0
 36 31  1  0  0  0  0
 37 32  1  0  0  0  0
 38 39  1  0  0  0  0
 39 40  1  0  0  0  0
 39 41  2  0  0  0  0
 41 42  1  0  0  0  0
 43 41  1  0  0  0  0
 44 43  2  0  0  0  0
 45 38  2  0  0  0  0
 45 44  1  0  0  0  0
M  END
>  <minimizedAffinity>
-6.09818792

$$$$

 OpenBabel03272507493D

 45 49  0  0  1  0  0  0  0  0999 V2000
   37.2690   27.0520   33.2680 N   0  0  0  0  0  0  0  0  0  0  0  0
   37.0880   27.8720   34.4170 C   0  0  0  0  0  0  0  0  0  0  0  0
   35.9460   28.8150   34.3930 C   0  0  0  0  0  0  0  0  0  0  0  0
   35.6410   29.4550   33.1130 C   0  0  1  0  0  0  0  0  0  0  0  0
   35.9220   28.5310   31.9130 C   0  0  0  0  0  0  0  0  0  0  0  0
   37.3200   27.9280   32.1290 C   0  0  0  0  0  0  0  0  0  0  0  0
   38.0230   28.4930   34.5200 H   0  0  0  0  0  0  0  0  0  0  0  0
   37.0540   27.2740   35.3510 H   0  0  0  0  0  0  0  0  0  0  0  0
   36.0640   29.5650   35.1930 H   0  0  0  0  0  0  0  0  0  0  0  0
   35.0690   28.1210   34.6180 H   0  0  0  0  0  0  0  0  0  0  0  0
   36.2670   30.3630   32.8910 H   0  0  0  0  0  0  0  0  0  0  0  0
   35.1930   27.7090   31.9610 H   0  0  0  0  0  0  0  0  0  0  0  0
   35.9030   29.1360   31.0030 H   0  0  0  0  0  0  0  0  0  0  0  0
   38.0180   28.7720   32.2170 H   0  0  0  0  0  0  0  0  0  0  0  0
   37.6080   27.3310   31.2480 H   0  0  0  0  0  0  0  0  0  0  0  0
   33.3200   29.4590   33.9080 C   0  0  0  0  0  0  0  0  0  0  0  0
   34.2250   29.8730   32.9480 C   0  0  0  0  0  0  0  0  0  0  0  0
   33.8850   30.6200   31.8520 C   0  0  0  0  0  0  0  0  0  0  0  0
   32.5460   30.9810   31.6940 C   0  0  0  0  0  0  0  0  0  0  0  0
   31.6490   30.5680   32.6470 C   0  0  0  0  0  0  0  0  0  0  0  0
   31.9900   29.8090   33.7640 C   0  0  0  0  0  0  0  0  0  0  0  0
   30.3560   31.0230   32.3210 O   0  0  0  0  0  0  0  0  0  0  0  0
   30.5780   32.0240   31.3300 C   0  0  0  0  0  0  0  0  0  0  0  0
   31.8190   31.7070   30.7540 O   0  0  0  0  0  0  0  0  0  0  0  0
   33.4660   28.8850   34.8120 H   0  0  0  0  0  0  0  0  0  0  0  0
   34.6030   30.9220   31.1340 H   0  0  0  0  0  0  0  0  0  0  0  0
   31.2080   29.5170   34.4850 H   0  0  0  0  0  0  0  0  0  0  0  0
   29.7930   31.8640   30.5520 H   0  0  0  0  0  0  0  0  0  0  0  0
   30.5030   33.0380   31.7480 H   0  0  0  0  0  0  0  0  0  0  0  0
   37.3820   25.6270   33.2170 C   0  0  0  0  0  0  0  0  0  0  0  0
   36.8100   24.7970   32.2550 C   0  0  0  0  0  0  0  0  0  0  0  0
   37.0330   23.4280   32.3730 C   0  0  0  0  0  0  0  0  0  0  0  0
   37.7840   22.9770   33.4060 N   0  0  0  0  0  0  0  0  0  0  0  0
   38.3260   23.7990   34.3220 C   0  0  0  0  0  0  0  0  0  0  0  0
   38.1190   25.1120   34.2180 N   0  0  0  0  0  0  0  0  0  0  0  0
   36.2480   25.2910   31.5070 H   0  0  0  0  0  0  0  0  0  0  0  0
   36.5880   22.7970   31.6280 H   0  0  0  0  0  0  0  0  0  0  0  0
   39.1260   23.2450   35.4100 C   0  0  0  0  0  0  0  0  0  0  0  0
   38.7830   23.5000   36.7210 C   0  0  0  0  0  0  0  0  0  0  0  0
   37.9060   24.1200   36.9380 H   0  0  0  0  0  0  0  0  0  0  0  0
   39.4940   23.0090   37.8110 C   0  0  0  0  0  0  0  0  0  0  0  0
   39.2210   23.2130   38.8350 H   0  0  0  0  0  0  0  0  0  0  0  0
   40.5990   22.2270   37.5480 C   0  0  0  0  0  3  0  0  0  0  0  0
   40.9370   21.9750   36.2140 C   0  0  0  0  0  3  0  0  0  0  0  0
   40.2180   22.4730   35.1690 N   0  0  0  0  0  0  0  0  0  0  0  0
  1  2  1  0  0  0  0
  2  7  1  0  0  0  0
  2  8  1  0  0  0  0
  3  2  1  0  0  0  0
  3 10  1  0  0  0  0
  3  9  1  0  0  0  0
  4 11  1  6  0  0  0
  4  3  1  0  0  0  0
  5 12  1  0  0  0  0
  5  6  1  0  0  0  0
  5  4  1  0  0  0  0
  6 14  1  0  0  0  0
  6  1  1  0  0  0  0
 13  5  1  0  0  0  0
 15  6  1  0  0  0  0
 16 25  1  0  0  0  0
 17  4  1  0  0  0  0
 17 16  2  0  0  0  0
 18 17  1  0  0  0  0
 19 18  2  0  0  0  0
 19 20  1  0  0  0  0
 20 21  2  0  0  0  0
 21 16  1  0  0  0  0
 21 27  1  0  0  0  0
 22 20  1  0  0  0  0
 23 29  1  0  0  0  0
 23 22  1  0  0  0  0
 24 23  1  0  0  0  0
 24 19  1  0  0  0  0
 26 18  1  0  0  0  0
 28 23  1  0  0  0  0
 30  1  1  0  0  0  0
 30 35  1  0  0  0  0
 31 32  1  0  0  0  0
 31 30  2  0  0  0  0
 32 33  2  0  0  0  0
 33 34  1  0  0  0  0
 34 38  1  0  0  0  0
 35 34  2  0  0  0  0
 36 31  1  0  0  0  0
 37 32  1  0  0  0  0
 38 39  1  0  0  0  0
 39 40  1  0  0  0  0
 39 41  2  0  0  0  0
 41 42  1  0  0  0  0
 43 41  1  0  0  0  0
 44 43  2  0  0  0  0
 45 38  2  0  0  0  0
 45 44  1  0  0  0  0
M  END
>  <minimizedAffinity>
-6.0773139

$$$$
