
 OpenBabel03272510083D

 43 47  0  0  0  0  0  0  0  0999 V2000
   36.2520   30.0900   47.8390 C   0  0  0  0  0  0  0  0  0  0  0  0
   36.9050   30.2750   49.0180 N   0  0  0  0  0  0  0  0  0  0  0  0
   38.0320   31.0030   49.0460 C   0  0  0  0  0  0  0  0  0  0  0  0
   38.5970   31.5920   47.9570 N   0  0  0  0  0  0  0  0  0  0  0  0
   37.9740   31.4280   46.7710 C   0  0  0  0  0  0  0  0  0  0  0  0
   38.4520   32.0110   45.6030 C   0  0  0  0  0  0  0  0  0  0  0  0
   37.7710   31.8470   44.3970 C   0  0  0  0  0  0  0  0  0  0  0  0
   36.5960   31.0840   44.3780 C   0  0  0  0  0  0  0  0  0  0  0  0
   36.1570   30.5210   45.5670 C   0  0  0  0  0  0  0  0  0  0  0  0
   36.8200   30.6810   46.7450 C   0  0  0  0  0  0  0  0  0  0  0  0
   38.5830   31.1740   49.9710 H   0  0  0  0  0  0  0  0  0  0  0  0
   39.3630   32.5760   45.7240 H   0  0  0  0  0  0  0  0  0  0  0  0
   38.2300   32.3440   43.5560 H   0  0  0  0  0  0  0  0  0  0  0  0
   36.2250   31.0780   43.3660 H   0  0  0  0  0  0  0  0  0  0  0  0
   34.9080   27.9260   47.7360 C   0  0  0  0  0  0  0  0  0  0  0  0
   35.0590   29.3210   47.9180 C   0  0  0  0  0  0  0  0  0  0  0  0
   33.9040   30.0910   48.2010 C   0  0  0  0  0  0  0  0  0  0  0  0
   32.6900   29.4780   48.2850 N   0  0  0  0  0  0  0  0  0  0  0  0
   32.6140   28.1290   48.0940 C   0  0  0  0  0  0  0  0  0  0  0  0
   33.6840   27.3740   47.8300 N   0  0  0  0  0  0  0  0  0  0  0  0
   31.2940   27.5360   48.1610 N   0  0  0  0  0  0  0  0  0  0  0  0
   30.4560   27.5650   49.3230 C   0  0  0  0  0  0  0  0  0  0  0  0
   29.1340   27.0500   48.8450 C   0  0  0  0  0  0  0  0  0  0  0  0
   29.1950   27.0170   47.3330 C   0  0  0  0  0  0  0  0  0  0  0  0
   30.6430   26.8320   47.0410 C   0  0  0  0  0  0  0  0  0  0  0  0
   35.8230   27.4080   47.5300 H   0  0  0  0  0  0  0  0  0  0  0  0
   33.9210   31.1440   48.3560 H   0  0  0  0  0  0  0  0  0  0  0  0
   30.3230   28.5750   49.7160 H   0  0  0  0  0  0  0  0  0  0  0  0
   30.9430   26.8790   50.0710 H   0  0  0  0  0  0  0  0  0  0  0  0
   29.0400   25.9840   49.1720 H   0  0  0  0  0  0  0  0  0  0  0  0
   28.2680   27.6000   49.2430 H   0  0  0  0  0  0  0  0  0  0  0  0
   28.8510   28.0140   46.9390 H   0  0  0  0  0  0  0  0  0  0  0  0
   28.5820   26.2080   46.8970 H   0  0  0  0  0  0  0  0  0  0  0  0
   30.9830   25.7990   46.9350 H   0  0  0  0  0  0  0  0  0  0  0  0
   30.9140   27.4060   46.1310 H   0  0  0  0  0  0  0  0  0  0  0  0
   34.9370   29.8370   45.1660 C   0  0  0  0  0  0  0  0  0  0  0  0
   33.6220   30.2530   45.1970 C   0  0  0  0  0  0  0  0  0  0  0  0
   33.5240   31.2990   45.5380 H   0  0  0  0  0  0  0  0  0  0  0  0
   32.4720   29.5700   44.9050 C   0  0  0  0  0  0  0  0  0  0  0  0
   31.5240   30.0790   44.9900 H   0  0  0  0  0  0  0  0  0  0  0  0
   32.7040   28.2680   44.5240 C   0  0  0  0  0  3  0  0  0  0  0  0
   33.9920   27.7900   44.4730 C   0  0  0  0  0  3  0  0  0  0  0  0
   35.0700   28.5220   44.7760 N   0  0  0  0  0  0  0  0  0  0  0  0
  1 16  1  0  0  0  0
  1  2  1  0  0  0  0
  2  3  2  0  0  0  0
  3 11  1  0  0  0  0
  4  3  1  0  0  0  0
  5  4  2  0  0  0  0
  6 12  1  0  0  0  0
  6  5  1  0  0  0  0
  7  6  2  0  0  0  0
  8  7  1  0  0  0  0
  8  9  2  0  0  0  0
  9 10  1  0  0  0  0
 10  5  1  0  0  0  0
 10  1  2  0  0  0  0
 13  7  1  0  0  0  0
 14  8  1  0  0  0  0
 15 20  2  0  0  0  0
 15 16  1  0  0  0  0
 16 17  2  0  0  0  0
 17 18  1  0  0  0  0
 17 27  1  0  0  0  0
 19 21  1  0  0  0  0
 19 18  2  0  0  0  0
 20 19  1  0  0  0  0
 21 22  1  0  0  0  0
 22 28  1  0  0  0  0
 22 29  1  0  0  0  0
 23 30  1  0  0  0  0
 23 31  1  0  0  0  0
 23 22  1  0  0  0  0
 24 23  1  0  0  0  0
 25 24  1  0  0  0  0
 25 21  1  0  0  0  0
 26 15  1  0  0  0  0
 32 24  1  0  0  0  0
 33 24  1  0  0  0  0
 34 25  1  0  0  0  0
 35 25  1  0  0  0  0
 36 37  1  0  0  0  0
 36  9  1  0  0  0  0
 37 38  1  0  0  0  0
 39 40  1  0  0  0  0
 39 37  2  0  0  0  0
 41 39  1  0  0  0  0
 42 41  2  0  0  0  0
 42 43  1  0  0  0  0
 43 36  2  0  0  0  0
M  END
>  <minimizedAffinity>
-3.77761054

>  <minimizedRMSD>
2.20499897

$$$$
