
 OpenBabel03272507333D

 35 38  0  0  1  0  0  0  0  0999 V2000
   36.4620   30.5930   49.2360 C   0  0  0  0  0  0  0  0  0  0  0  0
   35.4350   30.7710   50.1390 C   0  0  0  0  0  0  0  0  0  0  0  0
   34.2410   30.4090   49.4930 C   0  0  0  0  0  0  0  0  0  0  0  0
   34.6270   30.0300   48.2260 C   0  0  0  0  0  0  0  0  0  0  0  0
   35.9330   30.1530   48.1190 O   0  0  0  0  0  0  0  0  0  0  0  0
   35.4420   31.1180   51.1680 H   0  0  0  0  0  0  0  0  0  0  0  0
   33.2050   30.4000   49.8390 H   0  0  0  0  0  0  0  0  0  0  0  0
   37.8450   30.8740   49.5740 C   0  0  0  0  0  0  0  0  0  0  0  0
   38.3860   30.2380   50.4930 O   0  0  0  0  0  0  0  0  0  0  0  0
   38.5140   31.8900   48.8090 C   0  0  0  0  0  0  0  0  0  0  0  0
   38.7710   33.0920   49.4380 C   0  0  0  0  0  0  0  0  0  0  0  0
   39.4160   34.1030   48.7300 C   0  0  0  0  0  0  0  0  0  0  0  0
   39.7670   33.8450   47.4260 N   0  0  0  0  0  0  0  0  0  0  0  0
   39.5050   32.6720   46.8430 C   0  0  0  0  0  0  0  0  0  0  0  0
   38.8850   31.6980   47.5250 N   0  0  0  0  0  0  0  0  0  0  0  0
   38.4760   33.2520   50.4700 H   0  0  0  0  0  0  0  0  0  0  0  0
   39.6450   35.0610   49.1620 H   0  0  0  0  0  0  0  0  0  0  0  0
   39.8050   32.5140   45.7990 H   0  0  0  0  0  0  0  0  0  0  0  0
   33.7330   29.5600   47.1670 C   0  0  0  0  0  0  0  0  0  0  0  0
   32.9760   30.3980   46.5920 O   0  0  0  0  0  0  0  0  0  0  0  0
   33.6990   28.1300   46.7720 C   0  0  1  0  0  0  0  0  0  0  0  0
   34.0680   27.2000   47.9970 C   0  0  0  0  0  0  0  0  0  0  0  0
   32.7530   27.1630   47.3250 C   0  0  1  0  0  0  0  0  0  0  0  0
   34.4090   27.8630   45.9220 H   0  0  0  0  0  0  0  0  0  0  0  0
   34.2360   27.6850   48.9540 H   0  0  0  0  0  0  0  0  0  0  0  0
   34.7630   26.3750   47.7820 H   0  0  0  0  0  0  0  0  0  0  0  0
   32.5640   26.2790   46.6320 H   0  0  0  0  0  0  0  0  0  0  0  0
   31.5270   27.6140   47.9740 C   0  0  0  0  0  0  0  0  0  0  0  0
   30.4740   27.9820   47.1260 C   0  0  0  0  0  0  0  0  0  0  0  0
   30.5560   27.9560   46.0320 H   0  0  0  0  0  0  0  0  0  0  0  0
   29.2210   28.4190   47.5670 C   0  0  0  0  0  0  0  0  0  0  0  0
   28.4430   28.6910   46.8700 H   0  0  0  0  0  0  0  0  0  0  0  0
   28.9870   28.4980   48.9050 C   0  0  0  0  0  0  0  0  0  0  0  0
   30.0490   28.1260   49.6960 C   0  0  0  0  0  0  0  0  0  0  0  0
   31.2420   27.7120   49.2820 N   0  0  0  0  0  0  0  0  0  0  0  0
  1  8  1  0  0  0  0
  1  2  2  0  0  0  0
  2  6  1  0  0  0  0
  3  7  1  0  0  0  0
  3  2  1  0  0  0  0
  4  3  2  0  0  0  0
  5  4  1  0  0  0  0
  5  1  1  0  0  0  0
  8  9  2  0  0  0  0
 10 11  1  0  0  0  0
 10  8  1  0  0  0  0
 11 16  1  0  0  0  0
 12 17  1  0  0  0  0
 12 11  2  0  0  0  0
 13 12  1  0  0  0  0
 14 13  2  0  0  0  0
 14 15  1  0  0  0  0
 15 10  2  0  0  0  0
 18 14  1  0  0  0  0
 19  4  1  0  0  0  0
 20 19  2  0  0  0  0
 21 24  1  6  0  0  0
 21 19  1  0  0  0  0
 21 23  1  0  0  0  0
 21 22  1  0  0  0  0
 22 25  1  0  0  0  0
 23 27  1  6  0  0  0
 23 28  1  0  0  0  0
 23 22  1  0  0  0  0
 26 22  1  0  0  0  0
 28 35  1  0  0  0  0
 29 31  1  0  0  0  0
 29 28  2  0  0  0  0
 30 29  1  0  0  0  0
 31 33  2  0  0  0  0
 32 31  1  0  0  0  0
 33 34  1  0  0  0  0
 35 34  2  0  0  0  0
M  END
>  <minimizedAffinity>
-5.53714895

>  <minimizedRMSD>
2.31010032

$$$$
