
 OpenBabel03272506553D

 19 20  0  0  0  0  0  0  0  0999 V2000
   37.8490   32.9870   49.5420 C   0  0  0  0  0  0  0  0  0  0  0  0
   38.7460   33.2130   48.4910 C   0  0  0  0  0  0  0  0  0  0  0  0
   38.6560   32.3120   47.4090 C   0  0  0  0  0  0  0  0  0  0  0  0
   37.7350   31.3030   47.4410 N   0  0  0  0  0  0  0  0  0  0  0  0
   36.9080   31.1460   48.4810 C   0  0  0  0  0  0  0  0  0  0  0  0
   36.9500   31.9810   49.5470 N   0  0  0  0  0  0  0  0  0  0  0  0
   37.8820   33.6620   50.4050 H   0  0  0  0  0  0  0  0  0  0  0  0
   39.3290   32.4580   46.5860 H   0  0  0  0  0  0  0  0  0  0  0  0
   35.9280   30.0660   48.5050 C   0  0  0  0  0  0  0  0  0  0  0  0
   35.1380   29.8490   47.3960 C   0  0  0  0  0  0  0  0  0  0  0  0
   35.2530   30.4810   46.5270 H   0  0  0  0  0  0  0  0  0  0  0  0
   34.2000   28.8400   47.3740 C   0  0  0  0  0  0  0  0  0  0  0  0
   33.5920   28.6790   46.5150 H   0  0  0  0  0  0  0  0  0  0  0  0
   34.0550   28.0340   48.4870 C   0  0  0  0  0  0  0  0  0  0  0  0
   34.8590   28.2670   49.5930 C   0  0  0  0  0  0  0  0  0  0  0  0
   35.7640   29.2590   49.5810 N   0  0  0  0  0  0  0  0  0  0  0  0
   39.6650   34.2830   48.5440 N   0  0  0  0  0  0  0  0  0  0  0  0
   40.5920   33.8020   48.4550 H   0  0  0  0  0  0  0  0  0  0  0  0
   39.5100   35.3230   48.6460 H   0  0  0  0  0  0  0  0  0  0  0  0
  1  6  1  0  0  0  0
  1  7  1  0  0  0  0
  2 17  1  0  0  0  0
  2  1  2  0  0  0  0
  3  4  2  0  0  0  0
  3  2  1  0  0  0  0
  4  5  1  0  0  0  0
  5  9  1  0  0  0  0
  5  6  2  0  0  0  0
  8  3  1  0  0  0  0
  9 16  1  0  0  0  0
 10  9  2  0  0  0  0
 11 10  1  0  0  0  0
 12 10  1  0  0  0  0
 12 14  2  0  0  0  0
 13 12  1  0  0  0  0
 14 15  1  0  0  0  0
 16 15  2  0  0  0  0
 17 19  1  0  0  0  0
 18 17  1  0  0  0  0
M  END
>  <minimizedAffinity>
-4.84229946

>  <minimizedRMSD>
3.62564039

$$$$
