
 OpenBabel03272504073D

 29 31  0  0  0  0  0  0  0  0999 V2000
   37.7750   30.4860   50.1610 C   0  0  0  0  0  0  0  0  0  0  0  0
   37.2830   30.6150   48.8510 C   0  0  0  0  0  0  0  0  0  0  0  0
   36.0040   30.1540   48.5930 C   0  0  0  0  0  0  0  0  0  0  0  0
   35.2690   29.5990   49.5850 N   0  0  0  0  0  0  0  0  0  0  0  0
   35.7980   29.4950   50.8530 C   0  0  0  0  0  0  0  0  0  0  0  0
   37.0330   29.9350   51.1250 N   0  0  0  0  0  0  0  0  0  0  0  0
   34.9840   28.8940   51.8650 N   0  0  0  0  0  0  0  0  0  0  0  0
   38.7700   30.8470   50.3560 H   0  0  0  0  0  0  0  0  0  0  0  0
   35.0530   27.8550   51.7690 H   0  0  0  0  0  0  0  0  0  0  0  0
   34.4450   29.4870   52.5380 H   0  0  0  0  0  0  0  0  0  0  0  0
   38.0430   33.5590   49.0400 Cl  0  0  0  0  0  0  0  0  0  0  0  0
   38.6060   32.5200   47.7450 C   0  0  0  0  0  0  0  0  0  0  0  0
   38.1440   31.2230   47.8400 C   0  0  0  0  0  0  0  0  0  0  0  0
   38.5470   30.3350   46.8490 C   0  0  0  0  0  0  0  0  0  0  0  0
   39.3540   30.6800   45.8140 C   0  0  0  0  0  0  0  0  0  0  0  0
   39.7970   31.9880   45.7490 C   0  0  0  0  0  0  0  0  0  0  0  0
   40.8360   32.4950   44.4460 Cl  0  0  0  0  0  0  0  0  0  0  0  0
   39.4230   32.8900   46.7080 C   0  0  0  0  0  0  0  0  0  0  0  0
   38.2360   29.2870   46.8350 H   0  0  0  0  0  0  0  0  0  0  0  0
   39.6770   30.0040   45.0350 H   0  0  0  0  0  0  0  0  0  0  0  0
   39.7310   33.9370   46.7240 H   0  0  0  0  0  0  0  0  0  0  0  0
   35.3930   30.2280   47.2920 C   0  0  0  0  0  0  0  0  0  0  0  0
   35.9460   30.1860   46.0260 C   0  0  0  0  0  0  0  0  0  0  0  0
   37.0130   30.0690   46.0300 H   0  0  0  0  0  0  0  0  0  0  0  0
   35.1990   30.2780   44.8820 C   0  0  0  0  0  0  0  0  0  0  0  0
   35.7490   30.2320   43.9640 H   0  0  0  0  0  0  0  0  0  0  0  0
   33.8330   30.4170   45.0000 C   0  0  0  0  0  0  0  0  0  0  0  0
   33.2850   30.4570   46.2620 C   0  0  0  0  0  0  0  0  0  0  0  0
   34.0480   30.3660   47.3770 N   0  0  0  0  0  0  0  0  0  0  0  0
  1  8  1  0  0  0  0
  1  6  1  0  0  0  0
  2  1  2  0  0  0  0
  3  2  1  0  0  0  0
  3  4  2  0  0  0  0
  4  5  1  0  0  0  0
  5  6  2  0  0  0  0
  5  7  1  0  0  0  0
  7 10  1  0  0  0  0
  9  7  1  0  0  0  0
 12 13  1  0  0  0  0
 12 11  1  0  0  0  0
 13  2  1  0  0  0  0
 14 13  2  0  0  0  0
 15 14  1  0  0  0  0
 16 15  2  0  0  0  0
 16 18  1  0  0  0  0
 17 16  1  0  0  0  0
 18 21  1  0  0  0  0
 18 12  2  0  0  0  0
 19 14  1  0  0  0  0
 20 15  1  0  0  0  0
 22 29  1  0  0  0  0
 22  3  1  0  0  0  0
 23 24  1  0  0  0  0
 23 22  2  0  0  0  0
 25 27  2  0  0  0  0
 25 23  1  0  0  0  0
 26 25  1  0  0  0  0
 27 28  1  0  0  0  0
 28 29  2  0  0  0  0
M  END
>  <minimizedAffinity>
-5.74186897

>  <minimizedRMSD>
1.07715416

$$$$
