
 OpenBabel03272510333D

 27 29  0  0  0  0  0  0  0  0999 V2000
   35.9440   30.1860   46.6530 C   0  0  0  0  0  0  0  0  0  0  0  0
   35.3440   30.1990   45.4300 C   0  0  0  0  0  0  0  0  0  0  0  0
   34.1320   29.5740   45.2010 C   0  0  0  0  0  0  0  0  0  0  0  0
   33.5360   28.9240   46.2710 C   0  0  0  0  0  0  0  0  0  0  0  0
   34.1190   28.8920   47.5240 C   0  0  0  0  0  0  0  0  0  0  0  0
   35.3340   29.5300   47.7080 C   0  0  0  0  0  0  0  0  0  0  0  0
   35.8040   30.7100   44.5710 H   0  0  0  0  0  0  0  0  0  0  0  0
   33.6710   29.5930   44.2330 H   0  0  0  0  0  0  0  0  0  0  0  0
   32.5870   28.4290   46.1090 H   0  0  0  0  0  0  0  0  0  0  0  0
   33.6090   28.3680   48.3250 H   0  0  0  0  0  0  0  0  0  0  0  0
   38.4270   32.5810   47.7960 C   0  0  0  0  0  0  0  0  0  0  0  0
   39.5890   32.2420   47.1090 C   0  0  0  0  0  0  0  0  0  0  0  0
   39.5050   31.1510   46.2270 C   0  0  0  0  0  0  0  0  0  0  0  0
   38.3230   30.4960   46.0870 N   0  0  0  0  0  0  0  0  0  0  0  0
   37.2200   30.8730   46.7840 C   0  0  0  0  0  0  0  0  0  0  0  0
   37.2680   31.9260   47.6490 N   0  0  0  0  0  0  0  0  0  0  0  0
   38.5520   33.4260   48.4590 H   0  0  0  0  0  0  0  0  0  0  0  0
   40.5430   32.7050   47.1670 H   0  0  0  0  0  0  0  0  0  0  0  0
   40.2980   30.7400   45.6080 H   0  0  0  0  0  0  0  0  0  0  0  0
   35.9860   29.5260   49.0140 C   0  0  0  0  0  0  0  0  0  0  0  0
   35.2680   29.6020   50.1850 C   0  0  0  0  0  0  0  0  0  0  0  0
   34.1890   29.6630   50.0650 H   0  0  0  0  0  0  0  0  0  0  0  0
   35.8200   29.6050   51.4440 C   0  0  0  0  0  0  0  0  0  0  0  0
   35.1750   29.6680   52.3160 H   0  0  0  0  0  0  0  0  0  0  0  0
   37.2030   29.5250   51.5460 C   0  0  0  0  0  3  0  0  0  0  0  0
   37.9360   29.4480   50.3800 C   0  0  0  0  0  3  0  0  0  0  0  0
   37.3370   29.4500   49.1750 N   0  0  0  0  0  0  0  0  0  0  0  0
  1 15  1  0  0  0  0
  1  6  1  0  0  0  0
  2  1  2  0  0  0  0
  3  2  1  0  0  0  0
  3  4  2  0  0  0  0
  4  5  1  0  0  0  0
  5  6  2  0  0  0  0
  5 10  1  0  0  0  0
  6 20  1  0  0  0  0
  7  2  1  0  0  0  0
  8  3  1  0  0  0  0
  9  4  1  0  0  0  0
 11 17  1  0  0  0  0
 12 18  1  0  0  0  0
 12 11  2  0  0  0  0
 13 12  1  0  0  0  0
 14 13  2  0  0  0  0
 14 15  1  0  0  0  0
 15 16  2  0  0  0  0
 16 11  1  0  0  0  0
 19 13  1  0  0  0  0
 20 27  2  0  0  0  0
 20 21  1  0  0  0  0
 21 23  2  0  0  0  0
 22 21  1  0  0  0  0
 23 25  1  0  0  0  0
 23 24  1  0  0  0  0
 26 25  2  0  0  0  0
 27 26  1  0  0  0  0
M  END
>  <minimizedAffinity>
-4.88580561

>  <minimizedRMSD>
2.19245338

$$$$
