
 OpenBabel03272510333D

 27 29  0  0  0  0  0  0  0  0999 V2000
   35.9450   30.1860   46.6520 C   0  0  0  0  0  0  0  0  0  0  0  0
   35.3440   30.1990   45.4300 C   0  0  0  0  0  0  0  0  0  0  0  0
   34.1320   29.5740   45.2010 C   0  0  0  0  0  0  0  0  0  0  0  0
   33.5370   28.9240   46.2710 C   0  0  0  0  0  0  0  0  0  0  0  0
   34.1200   28.8920   47.5240 C   0  0  0  0  0  0  0  0  0  0  0  0
   35.3350   29.5310   47.7080 C   0  0  0  0  0  0  0  0  0  0  0  0
   35.8050   30.7100   44.5700 H   0  0  0  0  0  0  0  0  0  0  0  0
   33.6710   29.5930   44.2330 H   0  0  0  0  0  0  0  0  0  0  0  0
   32.5870   28.4290   46.1100 H   0  0  0  0  0  0  0  0  0  0  0  0
   33.6100   28.3690   48.3260 H   0  0  0  0  0  0  0  0  0  0  0  0
   38.4280   32.5810   47.7940 C   0  0  0  0  0  0  0  0  0  0  0  0
   39.5900   32.2420   47.1070 C   0  0  0  0  0  0  0  0  0  0  0  0
   39.5060   31.1510   46.2260 C   0  0  0  0  0  0  0  0  0  0  0  0
   38.3240   30.4950   46.0860 N   0  0  0  0  0  0  0  0  0  0  0  0
   37.2200   30.8730   46.7840 C   0  0  0  0  0  0  0  0  0  0  0  0
   37.2690   31.9270   47.6470 N   0  0  0  0  0  0  0  0  0  0  0  0
   38.5540   33.4270   48.4580 H   0  0  0  0  0  0  0  0  0  0  0  0
   40.5440   32.7050   47.1650 H   0  0  0  0  0  0  0  0  0  0  0  0
   40.2980   30.7390   45.6070 H   0  0  0  0  0  0  0  0  0  0  0  0
   35.9870   29.5270   49.0140 C   0  0  0  0  0  0  0  0  0  0  0  0
   35.2670   29.6020   50.1850 C   0  0  0  0  0  0  0  0  0  0  0  0
   34.1900   29.6640   50.0650 H   0  0  0  0  0  0  0  0  0  0  0  0
   35.8200   29.6050   51.4430 C   0  0  0  0  0  0  0  0  0  0  0  0
   35.1750   29.6670   52.3160 H   0  0  0  0  0  0  0  0  0  0  0  0
   37.2030   29.5260   51.5470 C   0  0  0  0  0  3  0  0  0  0  0  0
   37.9360   29.4490   50.3800 C   0  0  0  0  0  3  0  0  0  0  0  0
   37.3380   29.4510   49.1750 N   0  0  0  0  0  0  0  0  0  0  0  0
  1 15  1  0  0  0  0
  1  6  1  0  0  0  0
  2  1  2  0  0  0  0
  3  2  1  0  0  0  0
  3  4  2  0  0  0  0
  4  5  1  0  0  0  0
  5  6  2  0  0  0  0
  5 10  1  0  0  0  0
  6 20  1  0  0  0  0
  7  2  1  0  0  0  0
  8  3  1  0  0  0  0
  9  4  1  0  0  0  0
 11 17  1  0  0  0  0
 12 18  1  0  0  0  0
 12 11  2  0  0  0  0
 13 12  1  0  0  0  0
 14 13  2  0  0  0  0
 14 15  1  0  0  0  0
 15 16  2  0  0  0  0
 16 11  1  0  0  0  0
 19 13  1  0  0  0  0
 20 27  2  0  0  0  0
 20 21  1  0  0  0  0
 21 23  2  0  0  0  0
 22 21  1  0  0  0  0
 23 25  1  0  0  0  0
 23 24  1  0  0  0  0
 26 25  2  0  0  0  0
 27 26  1  0  0  0  0
M  END
>  <minimizedAffinity>
-4.88677359

>  <minimizedRMSD>
2.0907259

$$$$
