
 OpenBabel03272504503D

 41 44  0  0  1  0  0  0  0  0999 V2000
   36.8840   30.8280   48.6630 N   0  0  0  0  0  0  0  0  0  0  0  0
   37.5480   30.5330   49.9200 C   0  0  0  0  0  0  0  0  0  0  0  0
   38.6790   31.4380   50.2410 C   0  0  0  0  0  0  0  0  0  0  0  0
   38.4650   32.8280   49.6720 C   0  0  0  0  0  0  0  0  0  0  0  0
   38.4360   32.6700   48.1790 C   0  0  0  0  0  0  0  0  0  0  0  0
   37.2950   31.8140   47.7200 C   0  0  1  0  0  0  0  0  0  0  0  0
   37.9220   29.4910   49.8440 H   0  0  0  0  0  0  0  0  0  0  0  0
   36.7800   30.4830   50.7450 H   0  0  0  0  0  0  0  0  0  0  0  0
   38.6690   31.5820   51.3600 H   0  0  0  0  0  0  0  0  0  0  0  0
   39.6800   31.0820   49.9870 H   0  0  0  0  0  0  0  0  0  0  0  0
   37.5520   33.2980   50.0810 H   0  0  0  0  0  0  0  0  0  0  0  0
   39.3450   33.4250   49.9630 H   0  0  0  0  0  0  0  0  0  0  0  0
   38.4400   33.6210   47.6190 H   0  0  0  0  0  0  0  0  0  0  0  0
   39.3670   32.0840   47.9260 H   0  0  0  0  0  0  0  0  0  0  0  0
   36.4440   32.4890   47.5050 H   0  0  0  0  0  0  0  0  0  0  0  0
   35.6260   28.7480   48.8550 C   0  0  0  0  0  0  0  0  0  0  0  0
   35.7310   30.0610   48.3560 C   0  0  0  0  0  0  0  0  0  0  0  0
   34.6890   30.5400   47.5830 C   0  0  0  0  0  0  0  0  0  0  0  0
   33.6170   29.7240   47.3450 N   0  0  0  0  0  0  0  0  0  0  0  0
   33.5380   28.4890   47.8260 C   0  0  0  0  0  0  0  0  0  0  0  0
   34.5500   28.0000   48.5860 N   0  0  0  0  0  0  0  0  0  0  0  0
   36.3940   28.2930   49.4680 H   0  0  0  0  0  0  0  0  0  0  0  0
   34.7160   31.5310   47.1800 H   0  0  0  0  0  0  0  0  0  0  0  0
   32.3900   27.6390   47.5640 C   0  0  0  0  0  0  0  0  0  0  0  0
   32.4940   26.2830   47.5560 C   0  0  0  0  0  0  0  0  0  0  0  0
   31.4160   25.4620   47.3090 C   0  0  0  0  0  0  0  0  0  0  0  0
   30.2300   26.0910   47.0720 C   0  0  0  0  0  0  0  0  0  0  0  0
   30.0630   27.4790   47.0670 C   0  0  0  0  0  0  0  0  0  0  0  0
   31.1890   28.2260   47.3220 N   0  0  0  0  0  0  0  0  0  0  0  0
   33.4730   25.8600   47.7540 H   0  0  0  0  0  0  0  0  0  0  0  0
   31.4880   24.3770   47.3000 H   0  0  0  0  0  0  0  0  0  0  0  0
   29.3390   25.5100   46.8700 H   0  0  0  0  0  0  0  0  0  0  0  0
   29.1130   27.9620   46.8760 H   0  0  0  0  0  0  0  0  0  0  0  0
   37.6120   31.1110   46.4390 C   0  0  0  0  0  0  0  0  0  0  0  0
   38.9500   30.7690   46.3260 C   0  0  0  0  0  0  0  0  0  0  0  0
   39.6920   30.9710   47.0610 H   0  0  0  0  0  0  0  0  0  0  0  0
   39.4690   30.1130   45.2210 C   0  0  0  0  0  0  0  0  0  0  0  0
   40.5050   29.8350   45.1090 H   0  0  0  0  0  0  0  0  0  0  0  0
   38.6330   29.7710   44.1640 C   0  0  0  0  0  0  0  0  0  0  0  0
   37.3040   30.1380   44.3290 C   0  0  0  0  0  0  0  0  0  0  0  0
   36.8120   30.7700   45.3960 N   0  0  0  0  0  0  0  0  0  0  0  0
  1  2  1  0  0  0  0
  2  3  1  0  0  0  0
  2  8  1  0  0  0  0
  3  9  1  0  0  0  0
  4 12  1  0  0  0  0
  4 11  1  0  0  0  0
  4  3  1  0  0  0  0
  5  4  1  0  0  0  0
  6 15  1  6  0  0  0
  6  5  1  0  0  0  0
  6  1  1  0  0  0  0
  7  2  1  0  0  0  0
 10  3  1  0  0  0  0
 13  5  1  0  0  0  0
 14  5  1  0  0  0  0
 16 22  1  0  0  0  0
 17  1  1  0  0  0  0
 17 16  2  0  0  0  0
 18 17  1  0  0  0  0
 19 18  2  0  0  0  0
 19 20  1  0  0  0  0
 20 21  2  0  0  0  0
 21 16  1  0  0  0  0
 23 18  1  0  0  0  0
 24 20  1  0  0  0  0
 25 24  1  0  0  0  0
 25 30  1  0  0  0  0
 26 25  2  0  0  0  0
 27 26  1  0  0  0  0
 28 27  2  0  0  0  0
 28 29  1  0  0  0  0
 29 24  2  0  0  0  0
 31 26  1  0  0  0  0
 32 27  1  0  0  0  0
 33 28  1  0  0  0  0
 34  6  1  0  0  0  0
 35 34  1  0  0  0  0
 35 36  1  0  0  0  0
 37 35  2  0  0  0  0
 38 37  1  0  0  0  0
 39 40  2  0  0  0  0
 39 37  1  0  0  0  0
 40 41  1  0  0  0  0
 41 34  2  0  0  0  0
M  END
>  <minimizedAffinity>
-5.52899551

>  <minimizedRMSD>
1.18560159

$$$$
