
 OpenBabel03272504513D

 41 44  0  0  1  0  0  0  0  0999 V2000
   41.5370   23.8690   35.2790 N   0  0  0  0  0  0  0  0  0  0  0  0
   42.8400   24.3750   35.6700 C   0  0  0  0  0  0  0  0  0  0  0  0
   43.6670   23.4100   36.4350 C   0  0  0  0  0  0  0  0  0  0  0  0
   43.3730   21.9770   36.0330 C   0  0  0  0  0  0  0  0  0  0  0  0
   41.9410   21.7220   36.4050 C   0  0  0  0  0  0  0  0  0  0  0  0
   40.9930   22.6060   35.6530 C   0  0  1  0  0  0  0  0  0  0  0  0
   42.6560   25.2750   36.2940 H   0  0  0  0  0  0  0  0  0  0  0  0
   43.3700   24.7830   34.7620 H   0  0  0  0  0  0  0  0  0  0  0  0
   44.7370   23.5820   36.1200 H   0  0  0  0  0  0  0  0  0  0  0  0
   43.6500   23.5020   37.5230 H   0  0  0  0  0  0  0  0  0  0  0  0
   43.5850   21.8040   34.9620 H   0  0  0  0  0  0  0  0  0  0  0  0
   44.0330   21.3380   36.6430 H   0  0  0  0  0  0  0  0  0  0  0  0
   41.6250   20.6690   36.3120 H   0  0  0  0  0  0  0  0  0  0  0  0
   41.8550   22.0450   37.4840 H   0  0  0  0  0  0  0  0  0  0  0  0
   40.6860   22.0570   34.7410 H   0  0  0  0  0  0  0  0  0  0  0  0
   40.4110   26.0010   34.9160 C   0  0  0  0  0  0  0  0  0  0  0  0
   40.7460   24.7120   34.4580 C   0  0  0  0  0  0  0  0  0  0  0  0
   40.2800   24.3310   33.2120 C   0  0  0  0  0  0  0  0  0  0  0  0
   39.5260   25.2170   32.4920 N   0  0  0  0  0  0  0  0  0  0  0  0
   39.2220   26.4280   32.9430 C   0  0  0  0  0  0  0  0  0  0  0  0
   39.6690   26.8210   34.1630 N   0  0  0  0  0  0  0  0  0  0  0  0
   40.7320   26.3800   35.8770 H   0  0  0  0  0  0  0  0  0  0  0  0
   40.5060   23.3630   32.8140 H   0  0  0  0  0  0  0  0  0  0  0  0
   38.4220   27.3560   32.1630 C   0  0  0  0  0  0  0  0  0  0  0  0
   37.2270   27.8220   32.6160 C   0  0  0  0  0  0  0  0  0  0  0  0
   36.4560   28.7010   31.8890 C   0  0  0  0  0  0  0  0  0  0  0  0
   36.9610   29.0800   30.6800 C   0  0  0  0  0  0  0  0  0  0  0  0
   38.1810   28.6340   30.1640 C   0  0  0  0  0  0  0  0  0  0  0  0
   38.8890   27.7580   30.9530 N   0  0  0  0  0  0  0  0  0  0  0  0
   36.8950   27.4730   33.5870 H   0  0  0  0  0  0  0  0  0  0  0  0
   35.4990   29.0810   32.2410 H   0  0  0  0  0  0  0  0  0  0  0  0
   36.4100   29.7690   30.0540 H   0  0  0  0  0  0  0  0  0  0  0  0
   38.5670   28.9440   29.2010 H   0  0  0  0  0  0  0  0  0  0  0  0
   39.7430   22.8650   36.4320 C   0  0  0  0  0  0  0  0  0  0  0  0
   39.9780   23.0700   37.7820 C   0  0  0  0  0  0  0  0  0  0  0  0
   40.9390   23.0530   38.2390 H   0  0  0  0  0  0  0  0  0  0  0  0
   38.9670   23.3250   38.6940 C   0  0  0  0  0  0  0  0  0  0  0  0
   39.1240   23.4880   39.7480 H   0  0  0  0  0  0  0  0  0  0  0  0
   37.6460   23.3820   38.2630 C   0  0  0  0  0  3  0  0  0  0  0  0
   37.4670   23.1690   36.9020 C   0  0  0  0  0  3  0  0  0  0  0  0
   38.4470   22.9240   36.0310 N   0  0  0  0  0  0  0  0  0  0  0  0
  1  6  1  0  0  0  0
  1  2  1  0  0  0  0
  2  7  1  0  0  0  0
  2  3  1  0  0  0  0
  3 10  1  0  0  0  0
  4  5  1  0  0  0  0
  4  3  1  0  0  0  0
  4 12  1  0  0  0  0
  5 14  1  0  0  0  0
  6 15  1  6  0  0  0
  6  5  1  0  0  0  0
  6 34  1  0  0  0  0
  8  2  1  0  0  0  0
  9  3  1  0  0  0  0
 11  4  1  0  0  0  0
 13  5  1  0  0  0  0
 16 22  1  0  0  0  0
 17 16  1  0  0  0  0
 17  1  1  0  0  0  0
 18 17  2  0  0  0  0
 19 20  2  0  0  0  0
 19 18  1  0  0  0  0
 20 21  1  0  0  0  0
 21 16  2  0  0  0  0
 23 18  1  0  0  0  0
 24 25  1  0  0  0  0
 24 20  1  0  0  0  0
 25 30  1  0  0  0  0
 26 31  1  0  0  0  0
 26 25  2  0  0  0  0
 27 26  1  0  0  0  0
 28 27  2  0  0  0  0
 28 29  1  0  0  0  0
 29 24  2  0  0  0  0
 32 27  1  0  0  0  0
 33 28  1  0  0  0  0
 34 35  1  0  0  0  0
 35 36  1  0  0  0  0
 35 37  2  0  0  0  0
 37 38  1  0  0  0  0
 39 37  1  0  0  0  0
 40 39  2  0  0  0  0
 41 34  2  0  0  0  0
 41 40  1  0  0  0  0
M  END
>  <minimizedAffinity>
-5.62791634

$$$$

 OpenBabel03272504513D

 41 44  0  0  1  0  0  0  0  0999 V2000
   38.7320   22.8230   35.7530 N   0  0  0  0  0  0  0  0  0  0  0  0
   39.7460   22.2250   36.6010 C   0  0  0  0  0  0  0  0  0  0  0  0
   39.8810   22.8600   37.9350 C   0  0  0  0  0  0  0  0  0  0  0  0
   38.5620   23.4290   38.4210 C   0  0  0  0  0  0  0  0  0  0  0  0
   38.1900   24.5140   37.4510 C   0  0  0  0  0  0  0  0  0  0  0  0
   37.9700   23.9850   36.0660 C   0  0  1  0  0  0  0  0  0  0  0  0
   40.7090   22.3110   36.0550 H   0  0  0  0  0  0  0  0  0  0  0  0
   39.5730   21.1120   36.6620 H   0  0  0  0  0  0  0  0  0  0  0  0
   40.1220   22.0330   38.6640 H   0  0  0  0  0  0  0  0  0  0  0  0
   40.6720   23.6060   38.0460 H   0  0  0  0  0  0  0  0  0  0  0  0
   37.7910   22.6440   38.5170 H   0  0  0  0  0  0  0  0  0  0  0  0
   38.7570   23.8720   39.4120 H   0  0  0  0  0  0  0  0  0  0  0  0
   37.3250   25.1260   37.7600 H   0  0  0  0  0  0  0  0  0  0  0  0
   39.1060   25.1700   37.3770 H   0  0  0  0  0  0  0  0  0  0  0  0
   36.8920   23.7510   35.9710 H   0  0  0  0  0  0  0  0  0  0  0  0
   39.5620   21.9880   33.6170 C   0  0  0  0  0  0  0  0  0  0  0  0
   38.4890   22.1900   34.5070 C   0  0  0  0  0  0  0  0  0  0  0  0
   37.2360   21.7510   34.1150 C   0  0  0  0  0  0  0  0  0  0  0  0
   37.1030   21.1490   32.8930 N   0  0  0  0  0  0  0  0  0  0  0  0
   38.1290   20.9680   32.0700 C   0  0  0  0  0  0  0  0  0  0  0  0
   39.3650   21.3910   32.4360 N   0  0  0  0  0  0  0  0  0  0  0  0
   40.5730   22.3000   33.8420 H   0  0  0  0  0  0  0  0  0  0  0  0
   36.3870   21.8780   34.7530 H   0  0  0  0  0  0  0  0  0  0  0  0
   37.9670   20.3230   30.7790 C   0  0  0  0  0  0  0  0  0  0  0  0
   36.8420   19.6240   30.4670 C   0  0  0  0  0  0  0  0  0  0  0  0
   36.6720   19.0070   29.2480 C   0  0  0  0  0  0  0  0  0  0  0  0
   37.7030   19.1360   28.3650 C   0  0  0  0  0  0  0  0  0  0  0  0
   38.8810   19.8400   28.6290 C   0  0  0  0  0  0  0  0  0  0  0  0
   38.9710   20.4270   29.8700 N   0  0  0  0  0  0  0  0  0  0  0  0
   36.0680   19.5680   31.2240 H   0  0  0  0  0  0  0  0  0  0  0  0
   35.7770   18.4460   28.9880 H   0  0  0  0  0  0  0  0  0  0  0  0
   37.6400   18.6770   27.3870 H   0  0  0  0  0  0  0  0  0  0  0  0
   39.6900   19.9330   27.9170 H   0  0  0  0  0  0  0  0  0  0  0  0
   38.2730   25.0180   35.0260 C   0  0  0  0  0  0  0  0  0  0  0  0
   39.4640   25.6880   35.2590 C   0  0  0  0  0  0  0  0  0  0  0  0
   40.1130   25.5020   36.0810 H   0  0  0  0  0  0  0  0  0  0  0  0
   39.9410   26.6860   34.4260 C   0  0  0  0  0  0  0  0  0  0  0  0
   40.8640   27.2220   34.5840 H   0  0  0  0  0  0  0  0  0  0  0  0
   39.2130   27.0550   33.3000 C   0  0  0  0  0  3  0  0  0  0  0  0
   38.0280   26.3530   33.1160 C   0  0  0  0  0  3  0  0  0  0  0  0
   37.5760   25.3930   33.9230 N   0  0  0  0  0  0  0  0  0  0  0  0
  1  6  1  0  0  0  0
  1  2  1  0  0  0  0
  2  8  1  0  0  0  0
  2  3  1  0  0  0  0
  3 10  1  0  0  0  0
  3  4  1  0  0  0  0
  3  9  1  0  0  0  0
  4 11  1  0  0  0  0
  4 12  1  0  0  0  0
  5 13  1  0  0  0  0
  5  4  1  0  0  0  0
  6 15  1  6  0  0  0
  6  5  1  0  0  0  0
  7  2  1  0  0  0  0
 14  5  1  0  0  0  0
 16 22  1  0  0  0  0
 16 17  1  0  0  0  0
 17  1  1  0  0  0  0
 18 17  2  0  0  0  0
 18 23  1  0  0  0  0
 19 18  1  0  0  0  0
 20 21  1  0  0  0  0
 20 19  2  0  0  0  0
 21 16  2  0  0  0  0
 24 20  1  0  0  0  0
 25 24  1  0  0  0  0
 25 30  1  0  0  0  0
 26 25  2  0  0  0  0
 27 28  2  0  0  0  0
 27 26  1  0  0  0  0
 28 29  1  0  0  0  0
 29 24  2  0  0  0  0
 31 26  1  0  0  0  0
 32 27  1  0  0  0  0
 33 28  1  0  0  0  0
 34 35  1  0  0  0  0
 34  6  1  0  0  0  0
 35 36  1  0  0  0  0
 37 38  1  0  0  0  0
 37 35  2  0  0  0  0
 39 37  1  0  0  0  0
 40 39  2  0  0  0  0
 40 41  1  0  0  0  0
 41 34  2  0  0  0  0
M  END
>  <minimizedAffinity>
-5.5600214

$$$$

 OpenBabel03272504513D

 41 44  0  0  1  0  0  0  0  0999 V2000
   38.6560   24.1070   35.8330 N   0  0  0  0  0  0  0  0  0  0  0  0
   38.4630   24.4860   37.2210 C   0  0  0  0  0  0  0  0  0  0  0  0
   38.9180   23.4690   38.2010 C   0  0  0  0  0  0  0  0  0  0  0  0
   40.0880   22.6630   37.6710 C   0  0  0  0  0  0  0  0  0  0  0  0
   39.5770   21.9200   36.4710 C   0  0  0  0  0  0  0  0  0  0  0  0
   39.1340   22.8450   35.3780 C   0  0  1  0  0  0  0  0  0  0  0  0
   37.3750   24.6630   37.3540 H   0  0  0  0  0  0  0  0  0  0  0  0
   38.9220   25.5010   37.3980 H   0  0  0  0  0  0  0  0  0  0  0  0
   39.3360   24.0360   39.0830 H   0  0  0  0  0  0  0  0  0  0  0  0
   38.1550   22.7990   38.6030 H   0  0  0  0  0  0  0  0  0  0  0  0
   40.9580   23.3070   37.4500 H   0  0  0  0  0  0  0  0  0  0  0  0
   40.3580   21.9440   38.4630 H   0  0  0  0  0  0  0  0  0  0  0  0
   40.2770   21.1690   36.0660 H   0  0  0  0  0  0  0  0  0  0  0  0
   38.6360   21.4040   36.8220 H   0  0  0  0  0  0  0  0  0  0  0  0
   40.0030   23.0030   34.7090 H   0  0  0  0  0  0  0  0  0  0  0  0
   37.2150   25.9140   35.0550 C   0  0  0  0  0  0  0  0  0  0  0  0
   38.3350   25.0840   34.8560 C   0  0  0  0  0  0  0  0  0  0  0  0
   39.0750   25.2680   33.7010 C   0  0  0  0  0  0  0  0  0  0  0  0
   38.6870   26.2390   32.8190 N   0  0  0  0  0  0  0  0  0  0  0  0
   37.6280   27.0120   33.0270 C   0  0  0  0  0  0  0  0  0  0  0  0
   36.8880   26.8470   34.1530 N   0  0  0  0  0  0  0  0  0  0  0  0
   36.5810   25.8390   35.9280 H   0  0  0  0  0  0  0  0  0  0  0  0
   39.9360   24.6660   33.5000 H   0  0  0  0  0  0  0  0  0  0  0  0
   37.2340   28.0400   32.0790 C   0  0  0  0  0  0  0  0  0  0  0  0
   37.7200   28.0610   30.8090 C   0  0  0  0  0  0  0  0  0  0  0  0
   37.3570   29.0280   29.8980 C   0  0  0  0  0  0  0  0  0  0  0  0
   36.4780   29.9690   30.3440 C   0  0  0  0  0  0  0  0  0  0  0  0
   35.9460   29.9980   31.6370 C   0  0  0  0  0  0  0  0  0  0  0  0
   36.3590   28.9960   32.4850 N   0  0  0  0  0  0  0  0  0  0  0  0
   38.4150   27.2770   30.5310 H   0  0  0  0  0  0  0  0  0  0  0  0
   37.7390   29.0550   28.8790 H   0  0  0  0  0  0  0  0  0  0  0  0
   36.1480   30.7600   29.6840 H   0  0  0  0  0  0  0  0  0  0  0  0
   35.2490   30.7530   31.9760 H   0  0  0  0  0  0  0  0  0  0  0  0
   38.0600   22.2310   34.5360 C   0  0  0  0  0  0  0  0  0  0  0  0
   37.0810   21.5960   35.2850 C   0  0  0  0  0  0  0  0  0  0  0  0
   37.0720   21.5420   36.3480 H   0  0  0  0  0  0  0  0  0  0  0  0
   35.9920   20.9570   34.7160 C   0  0  0  0  0  0  0  0  0  0  0  0
   35.2180   20.4570   35.2750 H   0  0  0  0  0  0  0  0  0  0  0  0
   35.8500   20.9350   33.3330 C   0  0  0  0  0  3  0  0  0  0  0  0
   36.8580   21.5840   32.6310 C   0  0  0  0  0  3  0  0  0  0  0  0
   37.9030   22.1970   33.1880 N   0  0  0  0  0  0  0  0  0  0  0  0
  1  2  1  0  0  0  0
  2  7  1  0  0  0  0
  2  8  1  0  0  0  0
  2  3  1  0  0  0  0
  3 10  1  0  0  0  0
  3  9  1  0  0  0  0
  4  3  1  0  0  0  0
  4 12  1  0  0  0  0
  5 14  1  0  0  0  0
  5  4  1  0  0  0  0
  6 15  1  6  0  0  0
  6  1  1  0  0  0  0
  6  5  1  0  0  0  0
 11  4  1  0  0  0  0
 13  5  1  0  0  0  0
 16 22  1  0  0  0  0
 17 16  1  0  0  0  0
 17  1  1  0  0  0  0
 18 17  2  0  0  0  0
 19 20  2  0  0  0  0
 19 18  1  0  0  0  0
 20 21  1  0  0  0  0
 21 16  2  0  0  0  0
 23 18  1  0  0  0  0
 24 29  1  0  0  0  0
 24 20  1  0  0  0  0
 25 24  2  0  0  0  0
 26 27  2  0  0  0  0
 26 25  1  0  0  0  0
 27 28  1  0  0  0  0
 28 33  1  0  0  0  0
 28 29  2  0  0  0  0
 30 25  1  0  0  0  0
 31 26  1  0  0  0  0
 32 27  1  0  0  0  0
 34 35  1  0  0  0  0
 34  6  1  0  0  0  0
 35 36  1  0  0  0  0
 37 38  1  0  0  0  0
 37 35  2  0  0  0  0
 39 37  1  0  0  0  0
 40 41  1  0  0  0  0
 40 39  2  0  0  0  0
 41 34  2  0  0  0  0
M  END
>  <minimizedAffinity>
-5.51638556

$$$$

 OpenBabel03272504513D

 41 44  0  0  1  0  0  0  0  0999 V2000
   38.6380   24.1070   35.7540 N   0  0  0  0  0  0  0  0  0  0  0  0
   38.4600   24.5100   37.1370 C   0  0  0  0  0  0  0  0  0  0  0  0
   38.9060   23.5020   38.1300 C   0  0  0  0  0  0  0  0  0  0  0  0
   40.0610   22.6710   37.6050 C   0  0  0  0  0  0  0  0  0  0  0  0
   39.5310   21.9170   36.4200 C   0  0  0  0  0  0  0  0  0  0  0  0
   39.0940   22.8310   35.3150 C   0  0  1  0  0  0  0  0  0  0  0  0
   37.3750   24.7050   37.2740 H   0  0  0  0  0  0  0  0  0  0  0  0
   38.9350   25.5210   37.2950 H   0  0  0  0  0  0  0  0  0  0  0  0
   39.3380   24.0760   39.0000 H   0  0  0  0  0  0  0  0  0  0  0  0
   38.1360   22.8490   38.5470 H   0  0  0  0  0  0  0  0  0  0  0  0
   40.9390   23.2980   37.3690 H   0  0  0  0  0  0  0  0  0  0  0  0
   40.3260   21.9600   38.4060 H   0  0  0  0  0  0  0  0  0  0  0  0
   40.2170   21.1500   36.0220 H   0  0  0  0  0  0  0  0  0  0  0  0
   38.5850   21.4200   36.7850 H   0  0  0  0  0  0  0  0  0  0  0  0
   39.9610   22.9660   34.6390 H   0  0  0  0  0  0  0  0  0  0  0  0
   39.1930   25.2400   33.6670 C   0  0  0  0  0  0  0  0  0  0  0  0
   38.3250   25.0730   34.7630 C   0  0  0  0  0  0  0  0  0  0  0  0
   37.1950   25.8700   34.8160 C   0  0  0  0  0  0  0  0  0  0  0  0
   36.9790   26.7720   33.8100 N   0  0  0  0  0  0  0  0  0  0  0  0
   37.8110   26.9120   32.7850 C   0  0  0  0  0  0  0  0  0  0  0  0
   38.9250   26.1400   32.7150 N   0  0  0  0  0  0  0  0  0  0  0  0
   40.0990   24.6590   33.5460 H   0  0  0  0  0  0  0  0  0  0  0  0
   36.5010   25.7840   35.6260 H   0  0  0  0  0  0  0  0  0  0  0  0
   37.5620   27.8740   31.7250 C   0  0  0  0  0  0  0  0  0  0  0  0
   36.6130   28.8410   31.8490 C   0  0  0  0  0  0  0  0  0  0  0  0
   36.3640   29.7600   30.8540 C   0  0  0  0  0  0  0  0  0  0  0  0
   37.1270   29.6450   29.7300 C   0  0  0  0  0  0  0  0  0  0  0  0
   38.1140   28.6720   29.5470 C   0  0  0  0  0  0  0  0  0  0  0  0
   38.3000   27.7930   30.5880 N   0  0  0  0  0  0  0  0  0  0  0  0
   36.0490   28.8660   32.7740 H   0  0  0  0  0  0  0  0  0  0  0  0
   35.6080   30.5380   30.9420 H   0  0  0  0  0  0  0  0  0  0  0  0
   36.9870   30.3320   28.9070 H   0  0  0  0  0  0  0  0  0  0  0  0
   38.7110   28.5940   28.6470 H   0  0  0  0  0  0  0  0  0  0  0  0
   38.0060   22.2200   34.4900 C   0  0  0  0  0  0  0  0  0  0  0  0
   37.0470   21.5720   35.2530 C   0  0  0  0  0  0  0  0  0  0  0  0
   37.0600   21.5070   36.3150 H   0  0  0  0  0  0  0  0  0  0  0  0
   35.9500   20.9330   34.7000 C   0  0  0  0  0  0  0  0  0  0  0  0
   35.1900   20.4230   35.2700 H   0  0  0  0  0  0  0  0  0  0  0  0
   35.7780   20.9240   33.3200 C   0  0  0  0  0  3  0  0  0  0  0  0
   36.7670   21.5870   32.6040 C   0  0  0  0  0  3  0  0  0  0  0  0
   37.8210   22.1990   33.1460 N   0  0  0  0  0  0  0  0  0  0  0  0
  1  2  1  0  0  0  0
  2  7  1  0  0  0  0
  2  8  1  0  0  0  0
  2  3  1  0  0  0  0
  3 10  1  0  0  0  0
  3  9  1  0  0  0  0
  4  3  1  0  0  0  0
  4 12  1  0  0  0  0
  5 14  1  0  0  0  0
  5  4  1  0  0  0  0
  6 15  1  6  0  0  0
  6  1  1  0  0  0  0
  6  5  1  0  0  0  0
 11  4  1  0  0  0  0
 13  5  1  0  0  0  0
 16 17  1  0  0  0  0
 17 18  2  0  0  0  0
 17  1  1  0  0  0  0
 18 23  1  0  0  0  0
 19 18  1  0  0  0  0
 20 19  2  0  0  0  0
 21 20  1  0  0  0  0
 21 16  2  0  0  0  0
 22 16  1  0  0  0  0
 24 25  1  0  0  0  0
 24 20  1  0  0  0  0
 25 30  1  0  0  0  0
 26 31  1  0  0  0  0
 26 25  2  0  0  0  0
 27 26  1  0  0  0  0
 28 27  2  0  0  0  0
 28 29  1  0  0  0  0
 29 24  2  0  0  0  0
 32 27  1  0  0  0  0
 33 28  1  0  0  0  0
 34 35  1  0  0  0  0
 34  6  1  0  0  0  0
 35 36  1  0  0  0  0
 37 35  2  0  0  0  0
 37 38  1  0  0  0  0
 39 37  1  0  0  0  0
 40 41  1  0  0  0  0
 40 39  2  0  0  0  0
 41 34  2  0  0  0  0
M  END
>  <minimizedAffinity>
-5.46092367

$$$$

 OpenBabel03272504513D

 41 44  0  0  1  0  0  0  0  0999 V2000
   36.7130   26.8650   31.7670 N   0  0  0  0  0  0  0  0  0  0  0  0
   36.2390   27.6310   32.9050 C   0  0  0  0  0  0  0  0  0  0  0  0
   36.2900   29.1020   32.7170 C   0  0  0  0  0  0  0  0  0  0  0  0
   36.0950   29.4890   31.2630 C   0  0  0  0  0  0  0  0  0  0  0  0
   37.2600   28.9070   30.5140 C   0  0  0  0  0  0  0  0  0  0  0  0
   37.2890   27.4100   30.5830 C   0  0  1  0  0  0  0  0  0  0  0  0
   36.8800   27.3490   33.7670 H   0  0  0  0  0  0  0  0  0  0  0  0
   35.2150   27.2640   33.2020 H   0  0  0  0  0  0  0  0  0  0  0  0
   35.3910   29.5270   33.2490 H   0  0  0  0  0  0  0  0  0  0  0  0
   37.1600   29.6190   33.1260 H   0  0  0  0  0  0  0  0  0  0  0  0
   35.1160   29.1510   30.8810 H   0  0  0  0  0  0  0  0  0  0  0  0
   36.1430   30.5900   31.2220 H   0  0  0  0  0  0  0  0  0  0  0  0
   37.3380   29.2350   29.4640 H   0  0  0  0  0  0  0  0  0  0  0  0
   38.1750   29.2480   31.0820 H   0  0  0  0  0  0  0  0  0  0  0  0
   36.7380   27.0310   29.7010 H   0  0  0  0  0  0  0  0  0  0  0  0
   35.6560   24.7950   31.0270 C   0  0  0  0  0  0  0  0  0  0  0  0
   36.5890   25.4550   31.8520 C   0  0  0  0  0  0  0  0  0  0  0  0
   37.3470   24.6810   32.7120 C   0  0  0  0  0  0  0  0  0  0  0  0
   37.1560   23.3260   32.7190 N   0  0  0  0  0  0  0  0  0  0  0  0
   36.2710   22.7250   31.9320 C   0  0  0  0  0  0  0  0  0  0  0  0
   35.5180   23.4660   31.0820 N   0  0  0  0  0  0  0  0  0  0  0  0
   35.0220   25.3220   30.3260 H   0  0  0  0  0  0  0  0  0  0  0  0
   38.0710   25.1300   33.3600 H   0  0  0  0  0  0  0  0  0  0  0  0
   36.0860   21.2840   31.9530 C   0  0  0  0  0  0  0  0  0  0  0  0
   35.5960   20.6440   33.0490 C   0  0  0  0  0  0  0  0  0  0  0  0
   35.4140   19.2800   33.0850 C   0  0  0  0  0  0  0  0  0  0  0  0
   35.7560   18.6010   31.9530 C   0  0  0  0  0  0  0  0  0  0  0  0
   36.2630   19.2050   30.7980 C   0  0  0  0  0  0  0  0  0  0  0  0
   36.4140   20.5720   30.8450 N   0  0  0  0  0  0  0  0  0  0  0  0
   35.3490   21.2550   33.9100 H   0  0  0  0  0  0  0  0  0  0  0  0
   35.0240   18.7570   33.9560 H   0  0  0  0  0  0  0  0  0  0  0  0
   35.6400   17.5270   31.9080 H   0  0  0  0  0  0  0  0  0  0  0  0
   36.5300   18.6510   29.9070 H   0  0  0  0  0  0  0  0  0  0  0  0
   38.6830   26.8790   30.4730 C   0  0  0  0  0  0  0  0  0  0  0  0
   39.5610   27.4710   31.3670 C   0  0  0  0  0  0  0  0  0  0  0  0
   39.2940   28.2240   32.0700 H   0  0  0  0  0  0  0  0  0  0  0  0
   40.9030   27.1360   31.4400 C   0  0  0  0  0  0  0  0  0  0  0  0
   41.6060   27.5810   32.1250 H   0  0  0  0  0  0  0  0  0  0  0  0
   41.4200   26.1650   30.5890 C   0  0  0  0  0  3  0  0  0  0  0  0
   40.4970   25.6050   29.7140 C   0  0  0  0  0  3  0  0  0  0  0  0
   39.2070   25.9340   29.6500 N   0  0  0  0  0  0  0  0  0  0  0  0
  1 17  1  0  0  0  0
  1  2  1  0  0  0  0
  2  8  1  0  0  0  0
  2  7  1  0  0  0  0
  3  2  1  0  0  0  0
  3 10  1  0  0  0  0
  3  9  1  0  0  0  0
  4  3  1  0  0  0  0
  5  6  1  0  0  0  0
  5 14  1  0  0  0  0
  5  4  1  0  0  0  0
  6 15  1  6  0  0  0
  6  1  1  0  0  0  0
 11  4  1  0  0  0  0
 12  4  1  0  0  0  0
 13  5  1  0  0  0  0
 16 21  2  0  0  0  0
 16 17  1  0  0  0  0
 17 18  2  0  0  0  0
 18 19  1  0  0  0  0
 18 23  1  0  0  0  0
 20 24  1  0  0  0  0
 20 19  2  0  0  0  0
 21 20  1  0  0  0  0
 22 16  1  0  0  0  0
 24 25  1  0  0  0  0
 25 26  2  0  0  0  0
 25 30  1  0  0  0  0
 26 31  1  0  0  0  0
 27 26  1  0  0  0  0
 28 29  1  0  0  0  0
 28 27  2  0  0  0  0
 29 24  2  0  0  0  0
 32 27  1  0  0  0  0
 33 28  1  0  0  0  0
 34  6  1  0  0  0  0
 34 35  1  0  0  0  0
 35 37  2  0  0  0  0
 35 36  1  0  0  0  0
 37 38  1  0  0  0  0
 39 37  1  0  0  0  0
 40 39  2  0  0  0  0
 41 40  1  0  0  0  0
 41 34  2  0  0  0  0
M  END
>  <minimizedAffinity>
-5.32386351

$$$$

 OpenBabel03272504513D

 41 44  0  0  1  0  0  0  0  0999 V2000
   36.0840   28.0270   32.0760 N   0  0  0  0  0  0  0  0  0  0  0  0
   35.9350   28.5120   33.4360 C   0  0  0  0  0  0  0  0  0  0  0  0
   35.8340   29.9880   33.5500 C   0  0  0  0  0  0  0  0  0  0  0  0
   35.1780   30.6020   32.3280 C   0  0  0  0  0  0  0  0  0  0  0  0
   36.0910   30.3120   31.1720 C   0  0  0  0  0  0  0  0  0  0  0  0
   36.2330   28.8420   30.9170 C   0  0  1  0  0  0  0  0  0  0  0  0
   36.8260   28.1610   33.9970 H   0  0  0  0  0  0  0  0  0  0  0  0
   35.0760   27.9750   33.9320 H   0  0  0  0  0  0  0  0  0  0  0  0
   35.1160   30.1970   34.3960 H   0  0  0  0  0  0  0  0  0  0  0  0
   36.7530   30.5260   33.7900 H   0  0  0  0  0  0  0  0  0  0  0  0
   34.1520   30.2210   32.1830 H   0  0  0  0  0  0  0  0  0  0  0  0
   35.1410   31.6900   32.5050 H   0  0  0  0  0  0  0  0  0  0  0  0
   35.8220   30.8300   30.2360 H   0  0  0  0  0  0  0  0  0  0  0  0
   37.1130   30.6540   31.5090 H   0  0  0  0  0  0  0  0  0  0  0  0
   35.4630   28.5620   30.1720 H   0  0  0  0  0  0  0  0  0  0  0  0
   36.9340   25.8250   32.6870 C   0  0  0  0  0  0  0  0  0  0  0  0
   36.0800   26.6200   31.8980 C   0  0  0  0  0  0  0  0  0  0  0  0
   35.2710   25.9770   30.9790 C   0  0  0  0  0  0  0  0  0  0  0  0
   35.3380   24.6130   30.8830 N   0  0  0  0  0  0  0  0  0  0  0  0
   36.1500   23.8830   31.6380 C   0  0  0  0  0  0  0  0  0  0  0  0
   36.9530   24.4950   32.5450 N   0  0  0  0  0  0  0  0  0  0  0  0
   37.6010   26.2440   33.4300 H   0  0  0  0  0  0  0  0  0  0  0  0
   34.6020   26.5320   30.3550 H   0  0  0  0  0  0  0  0  0  0  0  0
   36.2040   22.4360   31.5230 C   0  0  0  0  0  0  0  0  0  0  0  0
   37.2540   21.8070   30.9290 C   0  0  0  0  0  0  0  0  0  0  0  0
   37.3220   20.4370   30.8120 C   0  0  0  0  0  0  0  0  0  0  0  0
   36.2690   19.7410   31.3280 C   0  0  0  0  0  0  0  0  0  0  0  0
   35.1640   20.3320   31.9470 C   0  0  0  0  0  0  0  0  0  0  0  0
   35.1750   21.7060   32.0240 N   0  0  0  0  0  0  0  0  0  0  0  0
   38.0530   22.4320   30.5440 H   0  0  0  0  0  0  0  0  0  0  0  0
   38.1570   19.9230   30.3400 H   0  0  0  0  0  0  0  0  0  0  0  0
   36.2530   18.6610   31.2710 H   0  0  0  0  0  0  0  0  0  0  0  0
   34.3350   19.7650   32.3510 H   0  0  0  0  0  0  0  0  0  0  0  0
   37.5570   28.5140   30.3010 C   0  0  0  0  0  0  0  0  0  0  0  0
   37.5640   28.6560   28.9230 C   0  0  0  0  0  0  0  0  0  0  0  0
   36.7290   28.9680   28.3420 H   0  0  0  0  0  0  0  0  0  0  0  0
   38.6810   28.4040   28.1450 C   0  0  0  0  0  0  0  0  0  0  0  0
   38.7130   28.5070   27.0720 H   0  0  0  0  0  0  0  0  0  0  0  0
   39.8630   27.9860   28.7470 C   0  0  0  0  0  3  0  0  0  0  0  0
   39.8010   27.8600   30.1290 C   0  0  0  0  0  3  0  0  0  0  0  0
   38.7200   28.1050   30.8710 N   0  0  0  0  0  0  0  0  0  0  0  0
  1  2  1  0  0  0  0
  2  3  1  0  0  0  0
  2  8  1  0  0  0  0
  2  7  1  0  0  0  0
  3 10  1  0  0  0  0
  3  9  1  0  0  0  0
  4 12  1  0  0  0  0
  4  3  1  0  0  0  0
  5 14  1  0  0  0  0
  5  4  1  0  0  0  0
  6 15  1  6  0  0  0
  6  5  1  0  0  0  0
  6  1  1  0  0  0  0
 11  4  1  0  0  0  0
 13  5  1  0  0  0  0
 16 22  1  0  0  0  0
 17  1  1  0  0  0  0
 17 16  2  0  0  0  0
 18 17  1  0  0  0  0
 19 18  2  0  0  0  0
 19 20  1  0  0  0  0
 20 21  2  0  0  0  0
 21 16  1  0  0  0  0
 23 18  1  0  0  0  0
 24 20  1  0  0  0  0
 24 29  1  0  0  0  0
 25 24  2  0  0  0  0
 26 25  1  0  0  0  0
 26 27  2  0  0  0  0
 27 28  1  0  0  0  0
 28 29  2  0  0  0  0
 28 33  1  0  0  0  0
 30 25  1  0  0  0  0
 31 26  1  0  0  0  0
 32 27  1  0  0  0  0
 34 41  1  0  0  0  0
 34  6  1  0  0  0  0
 35 34  2  0  0  0  0
 36 35  1  0  0  0  0
 37 39  2  0  0  0  0
 37 35  1  0  0  0  0
 38 37  1  0  0  0  0
 39 40  1  0  0  0  0
 40 41  2  0  0  0  0
M  END
>  <minimizedAffinity>
-5.29575491

$$$$

 OpenBabel03272504513D

 41 44  0  0  1  0  0  0  0  0999 V2000
   36.1590   30.0600   32.1540 N   0  0  0  0  0  0  0  0  0  0  0  0
   36.6180   30.7280   30.9500 C   0  0  0  0  0  0  0  0  0  0  0  0
   36.5590   32.2090   31.0120 C   0  0  0  0  0  0  0  0  0  0  0  0
   36.7630   32.7200   32.4250 C   0  0  0  0  0  0  0  0  0  0  0  0
   35.6090   32.1980   33.2310 C   0  0  0  0  0  0  0  0  0  0  0  0
   35.5890   30.7010   33.2910 C   0  0  1  0  0  0  0  0  0  0  0  0
   35.9710   30.3690   30.1210 H   0  0  0  0  0  0  0  0  0  0  0  0
   37.6420   30.3420   30.6760 H   0  0  0  0  0  0  0  0  0  0  0  0
   37.4510   32.5920   30.4370 H   0  0  0  0  0  0  0  0  0  0  0  0
   35.6820   32.6840   30.5670 H   0  0  0  0  0  0  0  0  0  0  0  0
   37.7480   32.4220   32.8260 H   0  0  0  0  0  0  0  0  0  0  0  0
   36.7090   33.8200   32.3720 H   0  0  0  0  0  0  0  0  0  0  0  0
   35.5380   32.6150   34.2500 H   0  0  0  0  0  0  0  0  0  0  0  0
   34.6870   32.4840   32.6450 H   0  0  0  0  0  0  0  0  0  0  0  0
   36.1500   30.4020   34.1980 H   0  0  0  0  0  0  0  0  0  0  0  0
   35.8850   27.8910   31.0730 C   0  0  0  0  0  0  0  0  0  0  0  0
   36.2910   28.6480   32.1890 C   0  0  0  0  0  0  0  0  0  0  0  0
   36.8070   27.9650   33.2760 C   0  0  0  0  0  0  0  0  0  0  0  0
   36.8970   26.6010   33.2130 N   0  0  0  0  0  0  0  0  0  0  0  0
   36.5090   25.9070   32.1500 C   0  0  0  0  0  0  0  0  0  0  0  0
   36.0000   26.5580   31.0740 N   0  0  0  0  0  0  0  0  0  0  0  0
   35.4710   28.3430   30.1810 H   0  0  0  0  0  0  0  0  0  0  0  0
   37.1320   28.4900   34.1500 H   0  0  0  0  0  0  0  0  0  0  0  0
   36.6160   24.4590   32.1030 C   0  0  0  0  0  0  0  0  0  0  0  0
   35.7690   23.7070   31.3500 C   0  0  0  0  0  0  0  0  0  0  0  0
   35.8560   22.3340   31.2930 C   0  0  0  0  0  0  0  0  0  0  0  0
   36.8460   21.7670   32.0400 C   0  0  0  0  0  0  0  0  0  0  0  0
   37.7440   22.4890   32.8310 C   0  0  0  0  0  0  0  0  0  0  0  0
   37.5890   23.8550   32.8320 N   0  0  0  0  0  0  0  0  0  0  0  0
   35.0080   24.2330   30.7850 H   0  0  0  0  0  0  0  0  0  0  0  0
   35.1840   21.7220   30.6950 H   0  0  0  0  0  0  0  0  0  0  0  0
   36.9740   20.6930   32.0440 H   0  0  0  0  0  0  0  0  0  0  0  0
   38.5250   22.0230   33.4190 H   0  0  0  0  0  0  0  0  0  0  0  0
   34.1990   30.1730   33.4590 C   0  0  0  0  0  0  0  0  0  0  0  0
   33.9020   29.8360   34.7700 C   0  0  0  0  0  0  0  0  0  0  0  0
   34.5750   29.9370   35.5890 H   0  0  0  0  0  0  0  0  0  0  0  0
   32.6740   29.3260   35.1570 C   0  0  0  0  0  0  0  0  0  0  0  0
   32.4180   29.0560   36.1690 H   0  0  0  0  0  0  0  0  0  0  0  0
   31.6770   29.1310   34.2080 C   0  0  0  0  0  3  0  0  0  0  0  0
   32.0270   29.4840   32.9120 C   0  0  0  0  0  3  0  0  0  0  0  0
   33.2130   29.9750   32.5480 N   0  0  0  0  0  0  0  0  0  0  0  0
  1 17  1  0  0  0  0
  1  6  1  0  0  0  0
  2  3  1  0  0  0  0
  2  1  1  0  0  0  0
  3  4  1  0  0  0  0
  4 11  1  0  0  0  0
  4  5  1  0  0  0  0
  5  6  1  0  0  0  0
  5 13  1  0  0  0  0
  6 34  1  0  0  0  0
  6 15  1  1  0  0  0
  7  2  1  0  0  0  0
  8  2  1  0  0  0  0
  9  3  1  0  0  0  0
 10  3  1  0  0  0  0
 12  4  1  0  0  0  0
 14  5  1  0  0  0  0
 16 21  2  0  0  0  0
 16 17  1  0  0  0  0
 17 18  2  0  0  0  0
 18 23  1  0  0  0  0
 19 18  1  0  0  0  0
 20 19  2  0  0  0  0
 21 20  1  0  0  0  0
 22 16  1  0  0  0  0
 24 20  1  0  0  0  0
 24 29  1  0  0  0  0
 25 24  2  0  0  0  0
 26 25  1  0  0  0  0
 26 27  2  0  0  0  0
 27 32  1  0  0  0  0
 27 28  1  0  0  0  0
 28 29  2  0  0  0  0
 28 33  1  0  0  0  0
 30 25  1  0  0  0  0
 31 26  1  0  0  0  0
 34 35  1  0  0  0  0
 35 37  2  0  0  0  0
 35 36  1  0  0  0  0
 37 38  1  0  0  0  0
 39 37  1  0  0  0  0
 40 39  2  0  0  0  0
 41 40  1  0  0  0  0
 41 34  2  0  0  0  0
M  END
>  <minimizedAffinity>
-5.28392935

$$$$

 OpenBabel03272504513D

 41 44  0  0  1  0  0  0  0  0999 V2000
   39.5450   25.9990   30.9600 N   0  0  0  0  0  0  0  0  0  0  0  0
   39.4970   26.5420   29.6150 C   0  0  0  0  0  0  0  0  0  0  0  0
   40.3940   27.7030   29.3910 C   0  0  0  0  0  0  0  0  0  0  0  0
   41.6370   27.6260   30.2570 C   0  0  0  0  0  0  0  0  0  0  0  0
   41.1630   27.7030   31.6790 C   0  0  0  0  0  0  0  0  0  0  0  0
   40.2840   26.5460   32.0480 C   0  0  1  0  0  0  0  0  0  0  0  0
   38.4460   26.8510   29.4350 H   0  0  0  0  0  0  0  0  0  0  0  0
   39.6630   25.7110   28.8700 H   0  0  0  0  0  0  0  0  0  0  0  0
   40.7760   27.6160   28.3330 H   0  0  0  0  0  0  0  0  0  0  0  0
   39.9440   28.6940   29.4730 H   0  0  0  0  0  0  0  0  0  0  0  0
   42.2280   26.7180   30.0400 H   0  0  0  0  0  0  0  0  0  0  0  0
   42.2400   28.5190   30.0200 H   0  0  0  0  0  0  0  0  0  0  0  0
   41.9690   27.8130   32.4240 H   0  0  0  0  0  0  0  0  0  0  0  0
   40.4910   28.6100   31.7180 H   0  0  0  0  0  0  0  0  0  0  0  0
   40.9380   25.7610   32.4770 H   0  0  0  0  0  0  0  0  0  0  0  0
   39.3930   23.7370   31.8590 C   0  0  0  0  0  0  0  0  0  0  0  0
   38.7870   24.8250   31.2010 C   0  0  0  0  0  0  0  0  0  0  0  0
   37.4630   24.6900   30.8200 C   0  0  0  0  0  0  0  0  0  0  0  0
   36.8150   23.5180   31.1000 N   0  0  0  0  0  0  0  0  0  0  0  0
   37.4060   22.5050   31.7220 C   0  0  0  0  0  0  0  0  0  0  0  0
   38.7040   22.6170   32.1030 N   0  0  0  0  0  0  0  0  0  0  0  0
   40.4230   23.7570   32.1910 H   0  0  0  0  0  0  0  0  0  0  0  0
   36.9530   25.4860   30.3180 H   0  0  0  0  0  0  0  0  0  0  0  0
   36.6990   21.2700   32.0120 C   0  0  0  0  0  0  0  0  0  0  0  0
   36.1050   21.0550   33.2170 C   0  0  0  0  0  0  0  0  0  0  0  0
   35.4310   19.8900   33.5090 C   0  0  0  0  0  0  0  0  0  0  0  0
   35.3930   18.9570   32.5160 C   0  0  0  0  0  0  0  0  0  0  0  0
   35.9840   19.1230   31.2600 C   0  0  0  0  0  0  0  0  0  0  0  0
   36.6380   20.3150   31.0490 N   0  0  0  0  0  0  0  0  0  0  0  0
   36.1800   21.8460   33.9550 H   0  0  0  0  0  0  0  0  0  0  0  0
   34.9520   19.7080   34.4690 H   0  0  0  0  0  0  0  0  0  0  0  0
   34.8810   18.0170   32.6730 H   0  0  0  0  0  0  0  0  0  0  0  0
   35.9450   18.3710   30.4810 H   0  0  0  0  0  0  0  0  0  0  0  0
   39.3060   26.9150   33.1190 C   0  0  0  0  0  0  0  0  0  0  0  0
   39.8260   26.7800   34.3960 C   0  0  0  0  0  0  0  0  0  0  0  0
   40.8140   26.4540   34.6180 H   0  0  0  0  0  0  0  0  0  0  0  0
   39.0970   27.0640   35.5400 C   0  0  0  0  0  0  0  0  0  0  0  0
   39.4770   26.9680   36.5440 H   0  0  0  0  0  0  0  0  0  0  0  0
   37.7820   27.5040   35.4300 C   0  0  0  0  0  3  0  0  0  0  0  0
   37.3120   27.6200   34.1280 C   0  0  0  0  0  3  0  0  0  0  0  0
   38.0210   27.3440   33.0330 N   0  0  0  0  0  0  0  0  0  0  0  0
  1 17  1  0  0  0  0
  1  6  1  0  0  0  0
  2  1  1  0  0  0  0
  3 10  1  0  0  0  0
  3  2  1  0  0  0  0
  3  4  1  0  0  0  0
  4  5  1  0  0  0  0
  5 14  1  0  0  0  0
  5  6  1  0  0  0  0
  5 13  1  0  0  0  0
  6 15  1  1  0  0  0
  6 34  1  0  0  0  0
  7  2  1  0  0  0  0
  8  2  1  0  0  0  0
  9  3  1  0  0  0  0
 11  4  1  0  0  0  0
 12  4  1  0  0  0  0
 16 21  1  0  0  0  0
 16 22  1  0  0  0  0
 17 16  2  0  0  0  0
 18 19  2  0  0  0  0
 18 17  1  0  0  0  0
 19 20  1  0  0  0  0
 20 24  1  0  0  0  0
 20 21  2  0  0  0  0
 23 18  1  0  0  0  0
 24 25  1  0  0  0  0
 25 26  2  0  0  0  0
 25 30  1  0  0  0  0
 26 31  1  0  0  0  0
 27 32  1  0  0  0  0
 27 26  1  0  0  0  0
 28 27  2  0  0  0  0
 29 28  1  0  0  0  0
 29 24  2  0  0  0  0
 33 28  1  0  0  0  0
 34 35  1  0  0  0  0
 35 36  1  0  0  0  0
 35 37  2  0  0  0  0
 37 38  1  0  0  0  0
 39 37  1  0  0  0  0
 40 39  2  0  0  0  0
 41 34  2  0  0  0  0
 41 40  1  0  0  0  0
M  END
>  <minimizedAffinity>
-5.24057579

$$$$

 OpenBabel03272504513D

 41 44  0  0  1  0  0  0  0  0999 V2000
   36.2120   29.4910   32.5160 N   0  0  0  0  0  0  0  0  0  0  0  0
   36.5550   29.4660   31.1060 C   0  0  0  0  0  0  0  0  0  0  0  0
   36.2000   30.7040   30.3680 C   0  0  0  0  0  0  0  0  0  0  0  0
   36.2670   31.9280   31.2610 C   0  0  0  0  0  0  0  0  0  0  0  0
   35.2220   31.7320   32.3210 C   0  0  0  0  0  0  0  0  0  0  0  0
   35.5000   30.5330   33.1770 C   0  0  1  0  0  0  0  0  0  0  0  0
   36.0120   28.6060   30.6620 H   0  0  0  0  0  0  0  0  0  0  0  0
   37.6420   29.1850   30.9920 H   0  0  0  0  0  0  0  0  0  0  0  0
   37.0110   30.8650   29.6000 H   0  0  0  0  0  0  0  0  0  0  0  0
   35.2570   30.6940   29.8190 H   0  0  0  0  0  0  0  0  0  0  0  0
   37.2820   32.0780   31.6690 H   0  0  0  0  0  0  0  0  0  0  0  0
   35.9960   32.7910   30.6300 H   0  0  0  0  0  0  0  0  0  0  0  0
   35.0460   32.6150   32.9590 H   0  0  0  0  0  0  0  0  0  0  0  0
   34.2750   31.4810   31.7590 H   0  0  0  0  0  0  0  0  0  0  0  0
   36.0880   30.8820   34.0480 H   0  0  0  0  0  0  0  0  0  0  0  0
   36.6780   27.1040   32.6910 C   0  0  0  0  0  0  0  0  0  0  0  0
   36.6220   28.3770   33.2920 C   0  0  0  0  0  0  0  0  0  0  0  0
   36.9770   28.4750   34.6250 C   0  0  0  0  0  0  0  0  0  0  0  0
   37.3630   27.3420   35.2880 N   0  0  0  0  0  0  0  0  0  0  0  0
   37.4090   26.1510   34.7020 C   0  0  0  0  0  0  0  0  0  0  0  0
   37.0640   26.0340   33.3950 N   0  0  0  0  0  0  0  0  0  0  0  0
   36.4170   26.9360   31.6540 H   0  0  0  0  0  0  0  0  0  0  0  0
   36.9540   29.4180   35.1310 H   0  0  0  0  0  0  0  0  0  0  0  0
   37.8240   24.9610   35.4230 C   0  0  0  0  0  0  0  0  0  0  0  0
   37.9850   24.9650   36.7740 C   0  0  0  0  0  0  0  0  0  0  0  0
   38.3780   23.8460   37.4730 C   0  0  0  0  0  0  0  0  0  0  0  0
   38.5980   22.7250   36.7300 C   0  0  0  0  0  0  0  0  0  0  0  0
   38.4480   22.6610   35.3410 C   0  0  0  0  0  0  0  0  0  0  0  0
   38.0530   23.8230   34.7190 N   0  0  0  0  0  0  0  0  0  0  0  0
   37.7910   25.8970   37.2930 H   0  0  0  0  0  0  0  0  0  0  0  0
   38.5100   23.8380   38.5530 H   0  0  0  0  0  0  0  0  0  0  0  0
   38.9090   21.8070   37.2110 H   0  0  0  0  0  0  0  0  0  0  0  0
   38.6280   21.7620   34.7650 H   0  0  0  0  0  0  0  0  0  0  0  0
   34.2400   29.9430   33.7260 C   0  0  0  0  0  0  0  0  0  0  0  0
   33.3490   29.5530   32.7390 C   0  0  0  0  0  0  0  0  0  0  0  0
   33.5220   29.6500   31.6940 H   0  0  0  0  0  0  0  0  0  0  0  0
   32.1170   28.9830   33.0180 C   0  0  0  0  0  0  0  0  0  0  0  0
   31.4070   28.6710   32.2690 H   0  0  0  0  0  0  0  0  0  0  0  0
   31.7310   28.7830   34.3390 C   0  0  0  0  0  3  0  0  0  0  0  0
   32.6600   29.1920   35.2870 C   0  0  0  0  0  3  0  0  0  0  0  0
   33.8440   29.7400   35.0090 N   0  0  0  0  0  0  0  0  0  0  0  0
  1  6  1  0  0  0  0
  1 17  1  0  0  0  0
  2  1  1  0  0  0  0
  3  2  1  0  0  0  0
  3  4  1  0  0  0  0
  4 11  1  0  0  0  0
  4  5  1  0  0  0  0
  5 13  1  0  0  0  0
  5  6  1  0  0  0  0
  6 34  1  0  0  0  0
  6 15  1  1  0  0  0
  7  2  1  0  0  0  0
  8  2  1  0  0  0  0
  9  3  1  0  0  0  0
 10  3  1  0  0  0  0
 12  4  1  0  0  0  0
 14  5  1  0  0  0  0
 16 17  2  0  0  0  0
 16 21  1  0  0  0  0
 17 18  1  0  0  0  0
 18 23  1  0  0  0  0
 18 19  2  0  0  0  0
 20 19  1  0  0  0  0
 20 24  1  0  0  0  0
 21 20  2  0  0  0  0
 22 16  1  0  0  0  0
 24 25  1  0  0  0  0
 25 30  1  0  0  0  0
 25 26  2  0  0  0  0
 26 31  1  0  0  0  0
 27 32  1  0  0  0  0
 27 26  1  0  0  0  0
 28 27  2  0  0  0  0
 29 28  1  0  0  0  0
 29 24  2  0  0  0  0
 33 28  1  0  0  0  0
 34 41  1  0  0  0  0
 35 37  1  0  0  0  0
 35 34  2  0  0  0  0
 36 35  1  0  0  0  0
 37 39  2  0  0  0  0
 38 37  1  0  0  0  0
 39 40  1  0  0  0  0
 41 40  2  0  0  0  0
M  END
>  <minimizedAffinity>
-5.11894846

$$$$
