
 OpenBabel03272510333D

 27 29  0  0  0  0  0  0  0  0999 V2000
   35.9450   30.1860   46.6520 C   0  0  0  0  0  0  0  0  0  0  0  0
   35.3450   30.1990   45.4290 C   0  0  0  0  0  0  0  0  0  0  0  0
   34.1330   29.5750   45.2010 C   0  0  0  0  0  0  0  0  0  0  0  0
   33.5370   28.9250   46.2700 C   0  0  0  0  0  0  0  0  0  0  0  0
   34.1200   28.8930   47.5230 C   0  0  0  0  0  0  0  0  0  0  0  0
   35.3360   29.5310   47.7080 C   0  0  0  0  0  0  0  0  0  0  0  0
   35.8060   30.7110   44.5690 H   0  0  0  0  0  0  0  0  0  0  0  0
   33.6720   29.5940   44.2320 H   0  0  0  0  0  0  0  0  0  0  0  0
   32.5880   28.4300   46.1090 H   0  0  0  0  0  0  0  0  0  0  0  0
   33.6110   28.3690   48.3250 H   0  0  0  0  0  0  0  0  0  0  0  0
   38.4290   32.5820   47.7940 C   0  0  0  0  0  0  0  0  0  0  0  0
   39.5910   32.2420   47.1070 C   0  0  0  0  0  0  0  0  0  0  0  0
   39.5070   31.1510   46.2260 C   0  0  0  0  0  0  0  0  0  0  0  0
   38.3250   30.4950   46.0860 N   0  0  0  0  0  0  0  0  0  0  0  0
   37.2210   30.8730   46.7830 C   0  0  0  0  0  0  0  0  0  0  0  0
   37.2700   31.9270   47.6470 N   0  0  0  0  0  0  0  0  0  0  0  0
   38.5550   33.4270   48.4570 H   0  0  0  0  0  0  0  0  0  0  0  0
   40.5450   32.7050   47.1650 H   0  0  0  0  0  0  0  0  0  0  0  0
   40.2990   30.7390   45.6070 H   0  0  0  0  0  0  0  0  0  0  0  0
   35.9880   29.5270   49.0130 C   0  0  0  0  0  0  0  0  0  0  0  0
   35.2690   29.6030   50.1840 C   0  0  0  0  0  0  0  0  0  0  0  0
   34.1900   29.6630   50.0650 H   0  0  0  0  0  0  0  0  0  0  0  0
   35.8210   29.6050   51.4430 C   0  0  0  0  0  0  0  0  0  0  0  0
   35.1760   29.6670   52.3150 H   0  0  0  0  0  0  0  0  0  0  0  0
   37.2030   29.5260   51.5460 C   0  0  0  0  0  3  0  0  0  0  0  0
   37.9370   29.4500   50.3800 C   0  0  0  0  0  3  0  0  0  0  0  0
   37.3380   29.4520   49.1740 N   0  0  0  0  0  0  0  0  0  0  0  0
  1 15  1  0  0  0  0
  1  6  1  0  0  0  0
  2  1  2  0  0  0  0
  3  2  1  0  0  0  0
  3  4  2  0  0  0  0
  4  5  1  0  0  0  0
  5  6  2  0  0  0  0
  5 10  1  0  0  0  0
  6 20  1  0  0  0  0
  7  2  1  0  0  0  0
  8  3  1  0  0  0  0
  9  4  1  0  0  0  0
 11 17  1  0  0  0  0
 12 18  1  0  0  0  0
 12 11  2  0  0  0  0
 13 12  1  0  0  0  0
 14 13  2  0  0  0  0
 14 15  1  0  0  0  0
 15 16  2  0  0  0  0
 16 11  1  0  0  0  0
 19 13  1  0  0  0  0
 20 27  2  0  0  0  0
 20 21  1  0  0  0  0
 21 23  2  0  0  0  0
 22 21  1  0  0  0  0
 23 25  1  0  0  0  0
 23 24  1  0  0  0  0
 26 25  2  0  0  0  0
 27 26  1  0  0  0  0
M  END
>  <minimizedAffinity>
-4.88680983

>  <minimizedRMSD>
2.06437063

$$$$
