
 OpenBabel03272504083D

 29 31  0  0  0  0  0  0  0  0999 V2000
   37.8420   23.9630   36.3830 C   0  0  0  0  0  0  0  0  0  0  0  0
   38.5840   24.7410   35.4790 C   0  0  0  0  0  0  0  0  0  0  0  0
   39.9450   24.5080   35.3920 C   0  0  0  0  0  0  0  0  0  0  0  0
   40.5220   23.5580   36.1630 N   0  0  0  0  0  0  0  0  0  0  0  0
   39.7500   22.8220   37.0360 C   0  0  0  0  0  0  0  0  0  0  0  0
   38.4320   23.0310   37.1350 N   0  0  0  0  0  0  0  0  0  0  0  0
   40.4100   21.8350   37.8350 N   0  0  0  0  0  0  0  0  0  0  0  0
   36.7830   24.1480   36.4460 H   0  0  0  0  0  0  0  0  0  0  0  0
   40.8480   22.3140   38.6540 H   0  0  0  0  0  0  0  0  0  0  0  0
   40.3970   20.8280   37.5550 H   0  0  0  0  0  0  0  0  0  0  0  0
   37.7240   24.1300   32.6210 Cl  0  0  0  0  0  0  0  0  0  0  0  0
   37.4070   25.6720   33.3920 C   0  0  0  0  0  0  0  0  0  0  0  0
   37.8820   25.7470   34.6860 C   0  0  0  0  0  0  0  0  0  0  0  0
   37.6690   26.9400   35.3680 C   0  0  0  0  0  0  0  0  0  0  0  0
   37.0310   28.0100   34.8300 C   0  0  0  0  0  0  0  0  0  0  0  0
   36.5690   27.9000   33.5320 C   0  0  0  0  0  0  0  0  0  0  0  0
   35.7430   29.2370   32.7820 Cl  0  0  0  0  0  0  0  0  0  0  0  0
   36.7590   26.7410   32.8290 C   0  0  0  0  0  0  0  0  0  0  0  0
   38.0060   27.1000   36.3960 H   0  0  0  0  0  0  0  0  0  0  0  0
   36.8570   28.9440   35.3450 H   0  0  0  0  0  0  0  0  0  0  0  0
   36.4240   26.5790   31.8030 H   0  0  0  0  0  0  0  0  0  0  0  0
   40.8100   25.2430   34.5050 C   0  0  0  0  0  0  0  0  0  0  0  0
   41.2960   26.5340   34.5750 C   0  0  0  0  0  0  0  0  0  0  0  0
   40.9720   27.0660   35.4500 H   0  0  0  0  0  0  0  0  0  0  0  0
   42.1170   27.0750   33.6230 C   0  0  0  0  0  0  0  0  0  0  0  0
   42.4230   28.0880   33.7950 H   0  0  0  0  0  0  0  0  0  0  0  0
   42.4740   26.2940   32.5440 C   0  0  0  0  0  3  0  0  0  0  0  0
   41.9890   25.0080   32.4770 C   0  0  0  0  0  3  0  0  0  0  0  0
   41.1770   24.4990   33.4340 N   0  0  0  0  0  0  0  0  0  0  0  0
  1  8  1  0  0  0  0
  1  6  1  0  0  0  0
  2  1  2  0  0  0  0
  3  2  1  0  0  0  0
  3  4  2  0  0  0  0
  4  5  1  0  0  0  0
  5  6  2  0  0  0  0
  5  7  1  0  0  0  0
  7  9  1  0  0  0  0
 10  7  1  0  0  0  0
 11 12  1  0  0  0  0
 12 13  1  0  0  0  0
 13 14  2  0  0  0  0
 13  2  1  0  0  0  0
 14 19  1  0  0  0  0
 15 20  1  0  0  0  0
 15 14  1  0  0  0  0
 16 15  2  0  0  0  0
 17 16  1  0  0  0  0
 18 12  2  0  0  0  0
 18 16  1  0  0  0  0
 21 18  1  0  0  0  0
 22 23  1  0  0  0  0
 22  3  1  0  0  0  0
 23 24  1  0  0  0  0
 25 26  1  0  0  0  0
 25 23  2  0  0  0  0
 27 25  1  0  0  0  0
 28 27  2  0  0  0  0
 28 29  1  0  0  0  0
 29 22  2  0  0  0  0
M  END
>  <minimizedAffinity>
-5.58362865

$$$$

 OpenBabel03272504083D

 29 31  0  0  0  0  0  0  0  0999 V2000
   38.0220   23.6820   36.1930 C   0  0  0  0  0  0  0  0  0  0  0  0
   38.7620   24.5050   35.3280 C   0  0  0  0  0  0  0  0  0  0  0  0
   40.1380   24.3540   35.3120 C   0  0  0  0  0  0  0  0  0  0  0  0
   40.7300   23.4380   36.1140 N   0  0  0  0  0  0  0  0  0  0  0  0
   39.9580   22.6570   36.9460 C   0  0  0  0  0  0  0  0  0  0  0  0
   38.6260   22.7860   36.9760 N   0  0  0  0  0  0  0  0  0  0  0  0
   40.6330   21.7090   37.7800 N   0  0  0  0  0  0  0  0  0  0  0  0
   36.9520   23.8040   36.2010 H   0  0  0  0  0  0  0  0  0  0  0  0
   40.9990   22.2120   38.6200 H   0  0  0  0  0  0  0  0  0  0  0  0
   40.6960   20.7030   37.5010 H   0  0  0  0  0  0  0  0  0  0  0  0
   38.3420   27.3630   36.2960 Cl  0  0  0  0  0  0  0  0  0  0  0  0
   37.7540   26.7960   34.7440 C   0  0  0  0  0  0  0  0  0  0  0  0
   38.0440   25.4690   34.4980 C   0  0  0  0  0  0  0  0  0  0  0  0
   37.6100   24.9420   33.2860 C   0  0  0  0  0  0  0  0  0  0  0  0
   36.9290   25.6590   32.3560 C   0  0  0  0  0  0  0  0  0  0  0  0
   36.6550   26.9840   32.6360 C   0  0  0  0  0  0  0  0  0  0  0  0
   35.7840   27.9590   31.4850 Cl  0  0  0  0  0  0  0  0  0  0  0  0
   37.0670   27.5380   33.8190 C   0  0  0  0  0  0  0  0  0  0  0  0
   37.7900   23.9030   32.9970 H   0  0  0  0  0  0  0  0  0  0  0  0
   36.5850   25.2660   31.4100 H   0  0  0  0  0  0  0  0  0  0  0  0
   36.8880   28.5750   34.1100 H   0  0  0  0  0  0  0  0  0  0  0  0
   41.0020   25.1400   34.4710 C   0  0  0  0  0  0  0  0  0  0  0  0
   41.4500   26.4420   34.5940 C   0  0  0  0  0  0  0  0  0  0  0  0
   41.0910   26.9350   35.4780 H   0  0  0  0  0  0  0  0  0  0  0  0
   42.2770   27.0360   33.6800 C   0  0  0  0  0  0  0  0  0  0  0  0
   42.5510   28.0510   33.8920 H   0  0  0  0  0  0  0  0  0  0  0  0
   42.6820   26.3010   32.5860 C   0  0  0  0  0  3  0  0  0  0  0  0
   42.2350   25.0040   32.4660 C   0  0  0  0  0  3  0  0  0  0  0  0
   41.4150   24.4420   33.3860 N   0  0  0  0  0  0  0  0  0  0  0  0
  1  8  1  0  0  0  0
  1  6  1  0  0  0  0
  2  1  2  0  0  0  0
  3  2  1  0  0  0  0
  3  4  2  0  0  0  0
  4  5  1  0  0  0  0
  5  6  2  0  0  0  0
  5  7  1  0  0  0  0
  7  9  1  0  0  0  0
 10  7  1  0  0  0  0
 12 11  1  0  0  0  0
 13 12  1  0  0  0  0
 13  2  1  0  0  0  0
 14 13  2  0  0  0  0
 15 16  2  0  0  0  0
 15 14  1  0  0  0  0
 16 18  1  0  0  0  0
 17 16  1  0  0  0  0
 18 21  1  0  0  0  0
 18 12  2  0  0  0  0
 19 14  1  0  0  0  0
 20 15  1  0  0  0  0
 22 23  1  0  0  0  0
 22  3  1  0  0  0  0
 23 24  1  0  0  0  0
 25 26  1  0  0  0  0
 25 23  2  0  0  0  0
 27 25  1  0  0  0  0
 28 27  2  0  0  0  0
 28 29  1  0  0  0  0
 29 22  2  0  0  0  0
M  END
>  <minimizedAffinity>
-5.52405691

$$$$

 OpenBabel03272504083D

 29 31  0  0  0  0  0  0  0  0999 V2000
   36.0210   31.7370   35.4830 C   0  0  0  0  0  0  0  0  0  0  0  0
   35.1100   30.7980   34.9730 C   0  0  0  0  0  0  0  0  0  0  0  0
   33.8220   30.8050   35.4790 C   0  0  0  0  0  0  0  0  0  0  0  0
   33.4730   31.6970   36.4360 N   0  0  0  0  0  0  0  0  0  0  0  0
   34.4050   32.5980   36.9040 C   0  0  0  0  0  0  0  0  0  0  0  0
   35.6560   32.6080   36.4270 N   0  0  0  0  0  0  0  0  0  0  0  0
   33.9890   33.5140   37.9210 N   0  0  0  0  0  0  0  0  0  0  0  0
   37.0210   31.7270   35.0850 H   0  0  0  0  0  0  0  0  0  0  0  0
   34.0260   33.0230   38.8430 H   0  0  0  0  0  0  0  0  0  0  0  0
   33.7100   34.4920   37.6760 H   0  0  0  0  0  0  0  0  0  0  0  0
   34.8310   31.5040   32.0230 Cl  0  0  0  0  0  0  0  0  0  0  0  0
   35.5420   29.9970   32.5690 C   0  0  0  0  0  0  0  0  0  0  0  0
   35.5700   29.8690   33.9430 C   0  0  0  0  0  0  0  0  0  0  0  0
   36.1190   28.7000   34.4570 C   0  0  0  0  0  0  0  0  0  0  0  0
   36.6170   27.7010   33.6850 C   0  0  0  0  0  0  0  0  0  0  0  0
   36.5720   27.8620   32.3130 C   0  0  0  0  0  0  0  0  0  0  0  0
   37.1930   26.6160   31.2660 Cl  0  0  0  0  0  0  0  0  0  0  0  0
   36.0390   29.0000   31.7700 C   0  0  0  0  0  0  0  0  0  0  0  0
   36.1880   28.5030   35.5310 H   0  0  0  0  0  0  0  0  0  0  0  0
   37.0470   26.7860   34.0670 H   0  0  0  0  0  0  0  0  0  0  0  0
   35.9690   29.1990   30.6990 H   0  0  0  0  0  0  0  0  0  0  0  0
   32.8020   29.8900   35.0380 C   0  0  0  0  0  0  0  0  0  0  0  0
   32.2230   29.7050   33.7970 C   0  0  0  0  0  0  0  0  0  0  0  0
   32.6180   30.3570   33.0410 H   0  0  0  0  0  0  0  0  0  0  0  0
   31.2480   28.7750   33.5590 C   0  0  0  0  0  0  0  0  0  0  0  0
   30.8820   28.7340   32.5520 H   0  0  0  0  0  0  0  0  0  0  0  0
   30.8240   27.9860   34.6070 C   0  0  0  0  0  3  0  0  0  0  0  0
   31.4030   28.1710   35.8420 C   0  0  0  0  0  3  0  0  0  0  0  0
   32.3660   29.1000   36.0490 N   0  0  0  0  0  0  0  0  0  0  0  0
  1  6  1  0  0  0  0
  2  3  1  0  0  0  0
  2  1  2  0  0  0  0
  3  4  2  0  0  0  0
  4  5  1  0  0  0  0
  5  7  1  0  0  0  0
  6  5  2  0  0  0  0
  7  9  1  0  0  0  0
  8  1  1  0  0  0  0
 10  7  1  0  0  0  0
 11 12  1  0  0  0  0
 12 13  1  0  0  0  0
 13 14  2  0  0  0  0
 13  2  1  0  0  0  0
 14 19  1  0  0  0  0
 15 20  1  0  0  0  0
 15 14  1  0  0  0  0
 16 15  2  0  0  0  0
 17 16  1  0  0  0  0
 18 16  1  0  0  0  0
 18 12  2  0  0  0  0
 21 18  1  0  0  0  0
 22  3  1  0  0  0  0
 22 29  1  0  0  0  0
 23 22  2  0  0  0  0
 24 23  1  0  0  0  0
 25 23  1  0  0  0  0
 25 27  2  0  0  0  0
 26 25  1  0  0  0  0
 27 28  1  0  0  0  0
 28 29  2  0  0  0  0
M  END
>  <minimizedAffinity>
-5.37714624

$$$$

 OpenBabel03272504083D

 29 31  0  0  0  0  0  0  0  0999 V2000
   37.5380   23.0160   32.4000 C   0  0  0  0  0  0  0  0  0  0  0  0
   38.1610   23.3200   33.6210 C   0  0  0  0  0  0  0  0  0  0  0  0
   37.8400   22.5450   34.7210 C   0  0  0  0  0  0  0  0  0  0  0  0
   36.9500   21.5320   34.6020 N   0  0  0  0  0  0  0  0  0  0  0  0
   36.3650   21.2750   33.3810 C   0  0  0  0  0  0  0  0  0  0  0  0
   36.6620   22.0130   32.3040 N   0  0  0  0  0  0  0  0  0  0  0  0
   35.4250   20.1990   33.3090 N   0  0  0  0  0  0  0  0  0  0  0  0
   37.7920   23.6230   31.5480 H   0  0  0  0  0  0  0  0  0  0  0  0
   34.5030   20.5430   33.6590 H   0  0  0  0  0  0  0  0  0  0  0  0
   35.7160   19.2600   32.9520 H   0  0  0  0  0  0  0  0  0  0  0  0
   37.2460   26.0940   34.4880 Cl  0  0  0  0  0  0  0  0  0  0  0  0
   38.9020   25.7480   34.0270 C   0  0  0  0  0  0  0  0  0  0  0  0
   39.1080   24.4320   33.6630 C   0  0  0  0  0  0  0  0  0  0  0  0
   40.3970   24.0770   33.2840 C   0  0  0  0  0  0  0  0  0  0  0  0
   41.4390   24.9470   33.2550 C   0  0  0  0  0  0  0  0  0  0  0  0
   41.1970   26.2560   33.6240 C   0  0  0  0  0  0  0  0  0  0  0  0
   42.4900   27.4220   33.6080 Cl  0  0  0  0  0  0  0  0  0  0  0  0
   39.9400   26.6430   34.0060 C   0  0  0  0  0  0  0  0  0  0  0  0
   40.6630   23.0610   32.9780 H   0  0  0  0  0  0  0  0  0  0  0  0
   42.4460   24.6880   32.9620 H   0  0  0  0  0  0  0  0  0  0  0  0
   39.6710   27.6560   34.3100 H   0  0  0  0  0  0  0  0  0  0  0  0
   38.4110   22.7610   36.0250 C   0  0  0  0  0  0  0  0  0  0  0  0
   39.6480   22.4250   36.5420 C   0  0  0  0  0  0  0  0  0  0  0  0
   40.2840   21.9260   35.8350 H   0  0  0  0  0  0  0  0  0  0  0  0
   40.0230   22.7110   37.8270 C   0  0  0  0  0  0  0  0  0  0  0  0
   41.0090   22.3960   38.1040 H   0  0  0  0  0  0  0  0  0  0  0  0
   39.1240   23.3640   38.6430 C   0  0  0  0  0  3  0  0  0  0  0  0
   37.8920   23.6980   38.1260 C   0  0  0  0  0  3  0  0  0  0  0  0
   37.5480   23.4020   36.8500 N   0  0  0  0  0  0  0  0  0  0  0  0
  1  2  1  0  0  0  0
  2 13  1  0  0  0  0
  2  3  2  0  0  0  0
  3 22  1  0  0  0  0
  4  3  1  0  0  0  0
  5  4  2  0  0  0  0
  6  1  2  0  0  0  0
  6  5  1  0  0  0  0
  7  5  1  0  0  0  0
  7  9  1  0  0  0  0
  8  1  1  0  0  0  0
 10  7  1  0  0  0  0
 12 11  1  0  0  0  0
 13 12  2  0  0  0  0
 14 13  1  0  0  0  0
 15 14  2  0  0  0  0
 15 16  1  0  0  0  0
 16 18  2  0  0  0  0
 17 16  1  0  0  0  0
 18 12  1  0  0  0  0
 18 21  1  0  0  0  0
 19 14  1  0  0  0  0
 20 15  1  0  0  0  0
 22 23  2  0  0  0  0
 22 29  1  0  0  0  0
 23 25  1  0  0  0  0
 24 23  1  0  0  0  0
 25 26  1  0  0  0  0
 25 27  2  0  0  0  0
 28 27  1  0  0  0  0
 29 28  2  0  0  0  0
M  END
>  <minimizedAffinity>
-5.25340223

$$$$

 OpenBabel03272504083D

 29 31  0  0  0  0  0  0  0  0999 V2000
   35.1460   25.8470   30.7910 C   0  0  0  0  0  0  0  0  0  0  0  0
   36.0720   26.4610   31.6500 C   0  0  0  0  0  0  0  0  0  0  0  0
   36.8490   25.6440   32.4530 C   0  0  0  0  0  0  0  0  0  0  0  0
   36.7040   24.2990   32.3950 N   0  0  0  0  0  0  0  0  0  0  0  0
   35.7800   23.7460   31.5350 C   0  0  0  0  0  0  0  0  0  0  0  0
   35.0190   24.5180   30.7500 N   0  0  0  0  0  0  0  0  0  0  0  0
   35.6600   22.3210   31.5180 N   0  0  0  0  0  0  0  0  0  0  0  0
   34.5450   26.4880   30.1680 H   0  0  0  0  0  0  0  0  0  0  0  0
   35.0580   22.0310   32.3230 H   0  0  0  0  0  0  0  0  0  0  0  0
   36.1380   21.7540   30.7800 H   0  0  0  0  0  0  0  0  0  0  0  0
   38.0470   27.8850   29.8190 Cl  0  0  0  0  0  0  0  0  0  0  0  0
   36.9750   28.7490   30.9050 C   0  0  0  0  0  0  0  0  0  0  0  0
   36.1630   27.9190   31.6510 C   0  0  0  0  0  0  0  0  0  0  0  0
   35.2820   28.5280   32.5380 C   0  0  0  0  0  0  0  0  0  0  0  0
   35.1880   29.8720   32.6990 C   0  0  0  0  0  0  0  0  0  0  0  0
   36.0160   30.6730   31.9370 C   0  0  0  0  0  0  0  0  0  0  0  0
   35.9460   32.4060   32.0970 Cl  0  0  0  0  0  0  0  0  0  0  0  0
   36.8960   30.1100   31.0520 C   0  0  0  0  0  0  0  0  0  0  0  0
   34.5970   27.9590   33.1730 H   0  0  0  0  0  0  0  0  0  0  0  0
   34.5090   30.3620   33.3830 H   0  0  0  0  0  0  0  0  0  0  0  0
   37.5810   30.6750   30.4170 H   0  0  0  0  0  0  0  0  0  0  0  0
   37.8290   26.1550   33.3750 C   0  0  0  0  0  0  0  0  0  0  0  0
   39.1260   26.5890   33.1740 C   0  0  0  0  0  0  0  0  0  0  0  0
   39.4380   26.5390   32.1480 H   0  0  0  0  0  0  0  0  0  0  0  0
   39.9250   27.0460   34.1860 C   0  0  0  0  0  0  0  0  0  0  0  0
   40.9110   27.3520   33.8970 H   0  0  0  0  0  0  0  0  0  0  0  0
   39.4130   27.0740   35.4650 C   0  0  0  0  0  3  0  0  0  0  0  0
   38.1210   26.6420   35.6630 C   0  0  0  0  0  3  0  0  0  0  0  0
   37.3520   26.1940   34.6420 N   0  0  0  0  0  0  0  0  0  0  0  0
  1  2  1  0  0  0  0
  2 13  1  0  0  0  0
  2  3  2  0  0  0  0
  3 22  1  0  0  0  0
  4  3  1  0  0  0  0
  5  4  2  0  0  0  0
  6  1  2  0  0  0  0
  6  5  1  0  0  0  0
  7  5  1  0  0  0  0
  7  9  1  0  0  0  0
  8  1  1  0  0  0  0
 10  7  1  0  0  0  0
 11 12  1  0  0  0  0
 12 18  2  0  0  0  0
 12 13  1  0  0  0  0
 13 14  2  0  0  0  0
 14 15  1  0  0  0  0
 14 19  1  0  0  0  0
 15 20  1  0  0  0  0
 16 17  1  0  0  0  0
 16 15  2  0  0  0  0
 18 16  1  0  0  0  0
 21 18  1  0  0  0  0
 22 29  1  0  0  0  0
 23 22  2  0  0  0  0
 23 25  1  0  0  0  0
 24 23  1  0  0  0  0
 25 27  2  0  0  0  0
 26 25  1  0  0  0  0
 27 28  1  0  0  0  0
 29 28  2  0  0  0  0
M  END
>  <minimizedAffinity>
-5.2410593

$$$$

 OpenBabel03272504083D

 29 31  0  0  0  0  0  0  0  0999 V2000
   37.3840   25.1140   32.4830 C   0  0  0  0  0  0  0  0  0  0  0  0
   37.3450   23.7330   32.7370 C   0  0  0  0  0  0  0  0  0  0  0  0
   36.3800   22.9830   32.0860 C   0  0  0  0  0  0  0  0  0  0  0  0
   35.5120   23.5820   31.2380 N   0  0  0  0  0  0  0  0  0  0  0  0
   35.5920   24.9410   31.0240 C   0  0  0  0  0  0  0  0  0  0  0  0
   36.5170   25.6840   31.6420 N   0  0  0  0  0  0  0  0  0  0  0  0
   34.6460   25.5270   30.1240 N   0  0  0  0  0  0  0  0  0  0  0  0
   38.1370   25.6920   32.9910 H   0  0  0  0  0  0  0  0  0  0  0  0
   33.7500   25.6780   30.6410 H   0  0  0  0  0  0  0  0  0  0  0  0
   34.9080   25.7280   29.1320 H   0  0  0  0  0  0  0  0  0  0  0  0
   39.9280   22.4890   31.7050 Cl  0  0  0  0  0  0  0  0  0  0  0  0
   39.5360   22.5710   33.4120 C   0  0  0  0  0  0  0  0  0  0  0  0
   38.3180   23.1680   33.6680 C   0  0  0  0  0  0  0  0  0  0  0  0
   37.9340   23.2710   35.0010 C   0  0  0  0  0  0  0  0  0  0  0  0
   38.6850   22.8200   36.0370 C   0  0  0  0  0  0  0  0  0  0  0  0
   39.8990   22.2270   35.7440 C   0  0  0  0  0  0  0  0  0  0  0  0
   40.9110   21.6270   37.0270 Cl  0  0  0  0  0  0  0  0  0  0  0  0
   40.3110   22.1090   34.4440 C   0  0  0  0  0  0  0  0  0  0  0  0
   36.9880   23.7270   35.3080 H   0  0  0  0  0  0  0  0  0  0  0  0
   38.4030   22.8920   37.0770 H   0  0  0  0  0  0  0  0  0  0  0  0
   41.2540   21.6530   34.1340 H   0  0  0  0  0  0  0  0  0  0  0  0
   36.2400   21.5620   32.2670 C   0  0  0  0  0  0  0  0  0  0  0  0
   35.5770   20.8310   33.2350 C   0  0  0  0  0  0  0  0  0  0  0  0
   35.0790   21.4420   33.9640 H   0  0  0  0  0  0  0  0  0  0  0  0
   35.5540   19.4630   33.2520 C   0  0  0  0  0  0  0  0  0  0  0  0
   35.0040   19.0170   34.0570 H   0  0  0  0  0  0  0  0  0  0  0  0
   36.2230   18.7830   32.2570 C   0  0  0  0  0  3  0  0  0  0  0  0
   36.8820   19.5130   31.2940 C   0  0  0  0  0  3  0  0  0  0  0  0
   36.8890   20.8670   31.3020 N   0  0  0  0  0  0  0  0  0  0  0  0
  1  2  1  0  0  0  0
  1  8  1  0  0  0  0
  2 13  1  0  0  0  0
  3 22  1  0  0  0  0
  3  2  2  0  0  0  0
  4  3  1  0  0  0  0
  5  4  2  0  0  0  0
  5  6  1  0  0  0  0
  6  1  2  0  0  0  0
  7  9  1  0  0  0  0
  7  5  1  0  0  0  0
 10  7  1  0  0  0  0
 11 12  1  0  0  0  0
 12 13  2  0  0  0  0
 12 18  1  0  0  0  0
 13 14  1  0  0  0  0
 14 19  1  0  0  0  0
 14 15  2  0  0  0  0
 15 20  1  0  0  0  0
 16 15  1  0  0  0  0
 16 17  1  0  0  0  0
 18 16  2  0  0  0  0
 21 18  1  0  0  0  0
 22 23  1  0  0  0  0
 23 25  2  0  0  0  0
 23 24  1  0  0  0  0
 25 26  1  0  0  0  0
 27 25  1  0  0  0  0
 28 29  1  0  0  0  0
 28 27  2  0  0  0  0
 29 22  2  0  0  0  0
M  END
>  <minimizedAffinity>
-5.21267653

$$$$

 OpenBabel03272504083D

 29 31  0  0  0  0  0  0  0  0999 V2000
   36.4370   26.4580   32.4410 C   0  0  0  0  0  0  0  0  0  0  0  0
   37.7540   26.3100   32.9080 C   0  0  0  0  0  0  0  0  0  0  0  0
   38.7790   26.7910   32.1130 C   0  0  0  0  0  0  0  0  0  0  0  0
   38.5000   27.3800   30.9280 N   0  0  0  0  0  0  0  0  0  0  0  0
   37.1910   27.5000   30.5140 C   0  0  0  0  0  0  0  0  0  0  0  0
   36.1840   27.0420   31.2680 N   0  0  0  0  0  0  0  0  0  0  0  0
   36.9500   28.1240   29.2490 N   0  0  0  0  0  0  0  0  0  0  0  0
   35.6440   26.0830   33.0640 H   0  0  0  0  0  0  0  0  0  0  0  0
   37.1040   27.4140   28.4970 H   0  0  0  0  0  0  0  0  0  0  0  0
   36.6720   29.1310   29.1950 H   0  0  0  0  0  0  0  0  0  0  0  0
   37.7550   27.9450   35.4790 Cl  0  0  0  0  0  0  0  0  0  0  0  0
   37.9980   26.2090   35.4650 C   0  0  0  0  0  0  0  0  0  0  0  0
   37.9660   25.6590   34.1990 C   0  0  0  0  0  0  0  0  0  0  0  0
   38.1510   24.2850   34.1020 C   0  0  0  0  0  0  0  0  0  0  0  0
   38.3580   23.4770   35.1730 C   0  0  0  0  0  0  0  0  0  0  0  0
   38.3850   24.0610   36.4260 C   0  0  0  0  0  0  0  0  0  0  0  0
   38.6470   23.0800   37.8410 Cl  0  0  0  0  0  0  0  0  0  0  0  0
   38.2050   25.4110   36.5610 C   0  0  0  0  0  0  0  0  0  0  0  0
   38.1430   23.7550   33.1460 H   0  0  0  0  0  0  0  0  0  0  0  0
   38.5040   22.4080   35.1170 H   0  0  0  0  0  0  0  0  0  0  0  0
   38.2140   25.9430   37.5140 H   0  0  0  0  0  0  0  0  0  0  0  0
   40.1670   26.6950   32.4830 C   0  0  0  0  0  0  0  0  0  0  0  0
   40.9040   27.3800   33.4300 C   0  0  0  0  0  0  0  0  0  0  0  0
   40.3270   28.0970   33.9830 H   0  0  0  0  0  0  0  0  0  0  0  0
   42.2370   27.1560   33.6440 C   0  0  0  0  0  0  0  0  0  0  0  0
   42.6920   27.7550   34.4080 H   0  0  0  0  0  0  0  0  0  0  0  0
   42.8730   26.2020   32.8790 C   0  0  0  0  0  3  0  0  0  0  0  0
   42.1370   25.5200   31.9370 C   0  0  0  0  0  3  0  0  0  0  0  0
   40.8190   25.7630   31.7460 N   0  0  0  0  0  0  0  0  0  0  0  0
  1  2  1  0  0  0  0
  1  8  1  0  0  0  0
  2 13  1  0  0  0  0
  3 22  1  0  0  0  0
  3  2  2  0  0  0  0
  4  3  1  0  0  0  0
  5  4  2  0  0  0  0
  5  6  1  0  0  0  0
  6  1  2  0  0  0  0
  7  5  1  0  0  0  0
  9  7  1  0  0  0  0
 10  7  1  0  0  0  0
 12 11  1  0  0  0  0
 12 18  1  0  0  0  0
 13 12  2  0  0  0  0
 14 13  1  0  0  0  0
 14 15  2  0  0  0  0
 15 16  1  0  0  0  0
 16 18  2  0  0  0  0
 16 17  1  0  0  0  0
 18 21  1  0  0  0  0
 19 14  1  0  0  0  0
 20 15  1  0  0  0  0
 22 23  1  0  0  0  0
 23 25  2  0  0  0  0
 23 24  1  0  0  0  0
 25 26  1  0  0  0  0
 27 25  1  0  0  0  0
 28 27  2  0  0  0  0
 29 28  1  0  0  0  0
 29 22  2  0  0  0  0
M  END
>  <minimizedAffinity>
-5.18299627

$$$$

 OpenBabel03272504083D

 29 31  0  0  0  0  0  0  0  0999 V2000
   40.3280   23.6050   36.0390 C   0  0  0  0  0  0  0  0  0  0  0  0
   39.7590   24.6190   35.2520 C   0  0  0  0  0  0  0  0  0  0  0  0
   38.4490   24.9810   35.5120 C   0  0  0  0  0  0  0  0  0  0  0  0
   37.7570   24.3640   36.4980 N   0  0  0  0  0  0  0  0  0  0  0  0
   38.3610   23.3740   37.2420 C   0  0  0  0  0  0  0  0  0  0  0  0
   39.6270   23.0090   37.0070 N   0  0  0  0  0  0  0  0  0  0  0  0
   37.5840   22.7470   38.2670 N   0  0  0  0  0  0  0  0  0  0  0  0
   41.3480   23.3280   35.8330 H   0  0  0  0  0  0  0  0  0  0  0  0
   36.9790   22.0190   37.8230 H   0  0  0  0  0  0  0  0  0  0  0  0
   37.6800   23.0430   39.2650 H   0  0  0  0  0  0  0  0  0  0  0  0
   39.9830   23.3160   32.5070 Cl  0  0  0  0  0  0  0  0  0  0  0  0
   40.8030   24.8120   32.9110 C   0  0  0  0  0  0  0  0  0  0  0  0
   40.5760   25.2320   34.2070 C   0  0  0  0  0  0  0  0  0  0  0  0
   41.1920   26.4120   34.6060 C   0  0  0  0  0  0  0  0  0  0  0  0
   41.9910   27.1540   33.7970 C   0  0  0  0  0  0  0  0  0  0  0  0
   42.1980   26.7040   32.5060 C   0  0  0  0  0  0  0  0  0  0  0  0
   43.2130   27.6080   31.4180 Cl  0  0  0  0  0  0  0  0  0  0  0  0
   41.6060   25.5460   32.0770 C   0  0  0  0  0  0  0  0  0  0  0  0
   41.0750   26.8280   35.6100 H   0  0  0  0  0  0  0  0  0  0  0  0
   42.4780   28.0730   34.0900 H   0  0  0  0  0  0  0  0  0  0  0  0
   41.7220   25.1280   31.0750 H   0  0  0  0  0  0  0  0  0  0  0  0
   37.7570   26.0040   34.7720 C   0  0  0  0  0  0  0  0  0  0  0  0
   37.4230   27.3010   35.1110 C   0  0  0  0  0  0  0  0  0  0  0  0
   37.7490   27.5830   36.0940 H   0  0  0  0  0  0  0  0  0  0  0  0
   36.7480   28.1430   34.2670 C   0  0  0  0  0  0  0  0  0  0  0  0
   36.5500   29.1240   34.6520 H   0  0  0  0  0  0  0  0  0  0  0  0
   36.3870   27.6730   33.0230 C   0  0  0  0  0  3  0  0  0  0  0  0
   36.7220   26.3810   32.6870 C   0  0  0  0  0  3  0  0  0  0  0  0
   37.3890   25.5700   33.5420 N   0  0  0  0  0  0  0  0  0  0  0  0
  1  6  1  0  0  0  0
  2  3  1  0  0  0  0
  2  1  2  0  0  0  0
  3  4  2  0  0  0  0
  4  5  1  0  0  0  0
  5  7  1  0  0  0  0
  6  5  2  0  0  0  0
  7 10  1  0  0  0  0
  8  1  1  0  0  0  0
  9  7  1  0  0  0  0
 11 12  1  0  0  0  0
 12 13  1  0  0  0  0
 13 14  2  0  0  0  0
 13  2  1  0  0  0  0
 14 19  1  0  0  0  0
 15 20  1  0  0  0  0
 15 14  1  0  0  0  0
 16 15  2  0  0  0  0
 17 16  1  0  0  0  0
 18 16  1  0  0  0  0
 18 12  2  0  0  0  0
 21 18  1  0  0  0  0
 22 23  1  0  0  0  0
 22  3  1  0  0  0  0
 23 24  1  0  0  0  0
 25 26  1  0  0  0  0
 25 23  2  0  0  0  0
 27 25  1  0  0  0  0
 28 27  2  0  0  0  0
 28 29  1  0  0  0  0
 29 22  2  0  0  0  0
M  END
>  <minimizedAffinity>
-5.17399025

$$$$

 OpenBabel03272504083D

 29 31  0  0  0  0  0  0  0  0999 V2000
   41.7620   26.1450   34.5550 C   0  0  0  0  0  0  0  0  0  0  0  0
   40.5230   25.5560   34.8570 C   0  0  0  0  0  0  0  0  0  0  0  0
   40.5290   24.2920   35.4200 C   0  0  0  0  0  0  0  0  0  0  0  0
   41.7020   23.6620   35.6620 N   0  0  0  0  0  0  0  0  0  0  0  0
   42.8910   24.2830   35.3460 C   0  0  0  0  0  0  0  0  0  0  0  0
   42.9080   25.5050   34.8010 N   0  0  0  0  0  0  0  0  0  0  0  0
   44.1020   23.5710   35.6150 N   0  0  0  0  0  0  0  0  0  0  0  0
   41.7510   27.1290   34.1170 H   0  0  0  0  0  0  0  0  0  0  0  0
   44.2680   22.8960   34.8340 H   0  0  0  0  0  0  0  0  0  0  0  0
   44.6560   23.7680   36.4800 H   0  0  0  0  0  0  0  0  0  0  0  0
   39.1550   25.2690   32.1500 Cl  0  0  0  0  0  0  0  0  0  0  0  0
   38.5360   26.3140   33.4140 C   0  0  0  0  0  0  0  0  0  0  0  0
   39.3040   26.3050   34.5610 C   0  0  0  0  0  0  0  0  0  0  0  0
   38.8790   27.1100   35.6120 C   0  0  0  0  0  0  0  0  0  0  0  0
   37.7680   27.8870   35.5610 C   0  0  0  0  0  0  0  0  0  0  0  0
   37.0220   27.8720   34.3980 C   0  0  0  0  0  0  0  0  0  0  0  0
   35.5850   28.8480   34.2680 Cl  0  0  0  0  0  0  0  0  0  0  0  0
   37.4090   27.0920   33.3420 C   0  0  0  0  0  0  0  0  0  0  0  0
   39.4180   27.1730   36.5610 H   0  0  0  0  0  0  0  0  0  0  0  0
   37.4230   28.5180   36.3680 H   0  0  0  0  0  0  0  0  0  0  0  0
   36.8740   27.0280   32.3930 H   0  0  0  0  0  0  0  0  0  0  0  0
   39.3240   23.5860   35.7700 C   0  0  0  0  0  0  0  0  0  0  0  0
   38.5250   23.6560   36.8960 C   0  0  0  0  0  0  0  0  0  0  0  0
   38.8700   24.3700   37.6200 H   0  0  0  0  0  0  0  0  0  0  0  0
   37.4010   22.8930   37.0620 C   0  0  0  0  0  0  0  0  0  0  0  0
   36.8700   23.0430   37.9810 H   0  0  0  0  0  0  0  0  0  0  0  0
   37.0500   22.0150   36.0590 C   0  0  0  0  0  3  0  0  0  0  0  0
   37.8470   21.9470   34.9390 C   0  0  0  0  0  3  0  0  0  0  0  0
   38.9550   22.7140   34.8020 N   0  0  0  0  0  0  0  0  0  0  0  0
  1  6  2  0  0  0  0
  1  2  1  0  0  0  0
  2  3  2  0  0  0  0
  3  4  1  0  0  0  0
  3 22  1  0  0  0  0
  5  7  1  0  0  0  0
  5  4  2  0  0  0  0
  6  5  1  0  0  0  0
  7 10  1  0  0  0  0
  8  1  1  0  0  0  0
  9  7  1  0  0  0  0
 11 12  1  0  0  0  0
 12 13  1  0  0  0  0
 13  2  1  0  0  0  0
 13 14  2  0  0  0  0
 14 19  1  0  0  0  0
 15 14  1  0  0  0  0
 15 20  1  0  0  0  0
 16 15  2  0  0  0  0
 17 16  1  0  0  0  0
 18 12  2  0  0  0  0
 18 16  1  0  0  0  0
 21 18  1  0  0  0  0
 22 23  1  0  0  0  0
 23 25  2  0  0  0  0
 23 24  1  0  0  0  0
 25 26  1  0  0  0  0
 27 25  1  0  0  0  0
 28 27  2  0  0  0  0
 29 28  1  0  0  0  0
 29 22  2  0  0  0  0
M  END
>  <minimizedAffinity>
-5.17090988

$$$$
