
 OpenBabel03272510333D

 27 29  0  0  0  0  0  0  0  0999 V2000
   35.9830   30.1530   46.8930 C   0  0  0  0  0  0  0  0  0  0  0  0
   35.4740   30.1370   45.6300 C   0  0  0  0  0  0  0  0  0  0  0  0
   34.3680   29.3780   45.2950 C   0  0  0  0  0  0  0  0  0  0  0  0
   33.7830   28.6230   46.2990 C   0  0  0  0  0  0  0  0  0  0  0  0
   34.2760   28.6170   47.5910 C   0  0  0  0  0  0  0  0  0  0  0  0
   35.3860   29.3920   47.8830 C   0  0  0  0  0  0  0  0  0  0  0  0
   35.9280   30.7310   44.8210 H   0  0  0  0  0  0  0  0  0  0  0  0
   33.9780   29.3750   44.2950 H   0  0  0  0  0  0  0  0  0  0  0  0
   32.9160   28.0220   46.0540 H   0  0  0  0  0  0  0  0  0  0  0  0
   33.7790   28.0080   48.3380 H   0  0  0  0  0  0  0  0  0  0  0  0
   38.1080   32.6980   48.3840 C   0  0  0  0  0  0  0  0  0  0  0  0
   39.3090   32.6120   47.6830 C   0  0  0  0  0  0  0  0  0  0  0  0
   39.3790   31.6430   46.6680 C   0  0  0  0  0  0  0  0  0  0  0  0
   38.2990   30.8560   46.4220 N   0  0  0  0  0  0  0  0  0  0  0  0
   37.1520   30.9850   47.1380 C   0  0  0  0  0  0  0  0  0  0  0  0
   37.0510   31.9150   48.1300 N   0  0  0  0  0  0  0  0  0  0  0  0
   38.1140   33.4590   49.1520 H   0  0  0  0  0  0  0  0  0  0  0  0
   40.1890   33.1890   47.8200 H   0  0  0  0  0  0  0  0  0  0  0  0
   40.2220   31.4270   46.0190 H   0  0  0  0  0  0  0  0  0  0  0  0
   35.9390   29.4210   49.2330 C   0  0  0  0  0  0  0  0  0  0  0  0
   37.2870   29.2710   49.4690 C   0  0  0  0  0  0  0  0  0  0  0  0
   37.9010   29.1310   48.5850 H   0  0  0  0  0  0  0  0  0  0  0  0
   37.8690   29.2870   50.7140 C   0  0  0  0  0  0  0  0  0  0  0  0
   38.9430   29.1590   50.8100 H   0  0  0  0  0  0  0  0  0  0  0  0
   37.0420   29.4680   51.8160 C   0  0  0  0  0  3  0  0  0  0  0  0
   35.6890   29.6200   51.5930 C   0  0  0  0  0  3  0  0  0  0  0  0
   35.1780   29.5960   50.3490 N   0  0  0  0  0  0  0  0  0  0  0  0
  1 15  1  0  0  0  0
  1  6  1  0  0  0  0
  2  1  2  0  0  0  0
  3  2  1  0  0  0  0
  3  4  2  0  0  0  0
  4  5  1  0  0  0  0
  5  6  2  0  0  0  0
  5 10  1  0  0  0  0
  6 20  1  0  0  0  0
  7  2  1  0  0  0  0
  8  3  1  0  0  0  0
  9  4  1  0  0  0  0
 11 17  1  0  0  0  0
 12 18  1  0  0  0  0
 12 11  2  0  0  0  0
 13 12  1  0  0  0  0
 14 13  2  0  0  0  0
 14 15  1  0  0  0  0
 15 16  2  0  0  0  0
 16 11  1  0  0  0  0
 19 13  1  0  0  0  0
 20 21  2  0  0  0  0
 20 27  1  0  0  0  0
 21 23  1  0  0  0  0
 22 21  1  0  0  0  0
 23 24  1  0  0  0  0
 23 25  2  0  0  0  0
 26 25  1  0  0  0  0
 27 26  2  0  0  0  0
M  END
>  <minimizedAffinity>
-4.52023077

>  <minimizedRMSD>
1.98471737

$$$$
