
 OpenBabel03272502423D

 27 29  0  0  0  0  0  0  0  0999 V2000
   37.3780   32.3740   49.7060 C   0  0  0  0  0  0  0  0  0  0  0  0
   38.3030   32.4720   48.6550 C   0  0  0  0  0  0  0  0  0  0  0  0
   38.0690   31.6570   47.5360 C   0  0  0  0  0  0  0  0  0  0  0  0
   36.9980   30.8370   47.5180 N   0  0  0  0  0  0  0  0  0  0  0  0
   36.1210   30.7690   48.5600 C   0  0  0  0  0  0  0  0  0  0  0  0
   36.3390   31.5430   49.6250 N   0  0  0  0  0  0  0  0  0  0  0  0
   37.4540   32.9520   50.6200 H   0  0  0  0  0  0  0  0  0  0  0  0
   39.1310   33.1530   48.7510 H   0  0  0  0  0  0  0  0  0  0  0  0
   35.6050   29.2120   51.0210 Cl  0  0  0  0  0  0  0  0  0  0  0  0
   34.6600   29.1000   49.5700 C   0  0  0  0  0  0  0  0  0  0  0  0
   34.9850   29.8670   48.4840 C   0  0  0  0  0  0  0  0  0  0  0  0
   34.2630   29.8140   47.3040 C   0  0  0  0  0  0  0  0  0  0  0  0
   33.1760   28.9630   47.2050 C   0  0  0  0  0  0  0  0  0  0  0  0
   32.8200   28.1700   48.2900 C   0  0  0  0  0  0  0  0  0  0  0  0
   31.4680   27.0510   48.2990 Cl  0  0  0  0  0  0  0  0  0  0  0  0
   33.5750   28.2680   49.4330 C   0  0  0  0  0  0  0  0  0  0  0  0
   34.5460   30.4340   46.4620 H   0  0  0  0  0  0  0  0  0  0  0  0
   32.5760   28.8770   46.3160 H   0  0  0  0  0  0  0  0  0  0  0  0
   33.3210   27.6580   50.3030 H   0  0  0  0  0  0  0  0  0  0  0  0
   39.0100   31.7330   46.4260 C   0  0  0  0  0  0  0  0  0  0  0  0
   39.7800   32.8690   46.2720 C   0  0  0  0  0  0  0  0  0  0  0  0
   39.7230   33.7180   46.9400 H   0  0  0  0  0  0  0  0  0  0  0  0
   40.6820   32.9400   45.2070 C   0  0  0  0  0  0  0  0  0  0  0  0
   41.3250   33.7720   44.9960 H   0  0  0  0  0  0  0  0  0  0  0  0
   40.6910   31.8190   44.4060 C   0  0  0  0  0  0  0  0  0  0  0  0
   39.9400   30.6720   44.5290 C   0  0  0  0  0  0  0  0  0  0  0  0
   39.0860   30.6830   45.5930 N   0  0  0  0  0  0  0  0  0  0  0  0
  1  7  1  0  0  0  0
  2  8  1  0  0  0  0
  2  1  2  0  0  0  0
  3  2  1  0  0  0  0
  4  3  2  0  0  0  0
  4  5  1  0  0  0  0
  5  6  2  0  0  0  0
  6  1  1  0  0  0  0
 10  9  1  0  0  0  0
 11  5  1  0  0  0  0
 11 10  2  0  0  0  0
 12 11  1  0  0  0  0
 13 12  2  0  0  0  0
 13 14  1  0  0  0  0
 14 15  1  0  0  0  0
 14 16  2  0  0  0  0
 16 10  1  0  0  0  0
 16 19  1  0  0  0  0
 17 12  1  0  0  0  0
 18 13  1  0  0  0  0
 20  3  1  0  0  0  0
 21 20  1  0  0  0  0
 21 22  1  0  0  0  0
 23 21  2  0  0  0  0
 24 23  1  0  0  0  0
 25 26  2  0  0  0  0
 25 23  1  0  0  0  0
 26 27  1  0  0  0  0
 27 20  2  0  0  0  0
M  END
>  <minimizedAffinity>
-6.52635527

>  <minimizedRMSD>
1.15690053

$$$$
