
 OpenBabel03272505303D

 39 42  0  0  0  0  0  0  0  0999 V2000
   37.3820   31.1780   47.0900 N   0  0  0  0  0  0  0  0  0  0  0  0
   36.7150   30.9410   45.9280 C   0  0  0  0  0  0  0  0  0  0  0  0
   37.1390   31.4590   44.7180 C   0  0  0  0  0  0  0  0  0  0  0  0
   38.2990   32.2510   44.7260 C   0  0  0  0  0  0  0  0  0  0  0  0
   38.7230   32.7460   43.6500 O   0  0  0  0  0  0  0  0  0  0  0  0
   38.9670   32.4860   45.9000 N   0  0  0  0  0  0  0  0  0  0  0  0
   38.4610   31.9350   46.9910 C   0  0  0  0  0  0  0  0  0  0  0  0
   39.1000   32.1720   48.0410 O   0  0  0  0  0  0  0  0  0  0  0  0
   35.8110   30.3250   45.9150 H   0  0  0  0  0  0  0  0  0  0  0  0
   37.3790   29.5290   50.4170 C   0  0  0  0  0  0  0  0  0  0  0  0
   37.8310   30.0590   49.1960 C   0  0  0  0  0  0  0  0  0  0  0  0
   36.9440   30.6490   48.3020 C   0  0  0  0  0  0  0  0  0  0  0  0
   35.6400   30.6910   48.6510 N   0  0  0  0  0  0  0  0  0  0  0  0
   35.1810   30.1810   49.8300 C   0  0  0  0  0  0  0  0  0  0  0  0
   36.0580   29.6040   50.7030 N   0  0  0  0  0  0  0  0  0  0  0  0
   38.1250   29.0940   51.0470 H   0  0  0  0  0  0  0  0  0  0  0  0
   38.8730   30.0420   48.8860 H   0  0  0  0  0  0  0  0  0  0  0  0
   34.1270   30.2280   50.0870 H   0  0  0  0  0  0  0  0  0  0  0  0
   36.4650   31.2380   43.4530 C   0  0  0  0  0  0  0  0  0  0  0  0
   36.7190   30.1830   42.6220 C   0  0  0  0  0  0  0  0  0  0  0  0
   36.1010   29.9490   41.4240 C   0  0  0  0  0  0  0  0  0  0  0  0
   35.1330   30.8480   41.0050 C   0  0  0  0  0  0  0  0  0  0  0  0
   34.8800   31.9180   41.8550 C   0  0  0  0  0  0  0  0  0  0  0  0
   35.5350   32.0720   43.0160 N   0  0  0  0  0  0  0  0  0  0  0  0
   37.4720   29.4440   42.9030 H   0  0  0  0  0  0  0  0  0  0  0  0
   36.3340   29.0950   40.7940 H   0  0  0  0  0  0  0  0  0  0  0  0
   34.6160   30.7260   40.0900 H   0  0  0  0  0  0  0  0  0  0  0  0
   33.8880   32.9410   41.5420 C   0  0  0  0  0  0  0  0  0  0  0  0
   33.2770   33.7240   42.4990 C   0  0  0  0  0  0  0  0  0  0  0  0
   33.5230   33.6010   43.5350 H   0  0  0  0  0  0  0  0  0  0  0  0
   32.3370   34.7020   42.2540 C   0  0  0  0  0  0  0  0  0  0  0  0
   31.8880   35.2850   43.0230 H   0  0  0  0  0  0  0  0  0  0  0  0
   31.9610   34.9280   40.9460 C   0  0  0  0  0  0  0  0  0  0  0  0
   32.5670   34.1480   39.9830 C   0  0  0  0  0  0  0  0  0  0  0  0
   33.4800   33.2100   40.2860 N   0  0  0  0  0  0  0  0  0  0  0  0
   40.1550   33.3000   45.8930 C   0  0  0  0  0  0  0  0  0  0  0  0
   40.0830   34.2660   44.9390 F   0  0  0  0  0  0  0  0  0  0  0  0
   41.3130   32.5800   45.6280 F   0  0  0  0  0  0  0  0  0  0  0  0
   40.2760   33.9270   47.1390 F   0  0  0  0  0  0  0  0  0  0  0  0
  1 12  1  0  0  0  0
  2  1  1  0  0  0  0
  3  4  1  0  0  0  0
  3  2  2  0  0  0  0
  4  6  1  0  0  0  0
  5  4  2  0  0  0  0
  6  7  1  0  0  0  0
  7  1  1  0  0  0  0
  7  8  2  0  0  0  0
  9  2  1  0  0  0  0
 10 15  1  0  0  0  0
 10 16  1  0  0  0  0
 11 10  2  0  0  0  0
 12 13  2  0  0  0  0
 12 11  1  0  0  0  0
 13 14  1  0  0  0  0
 14 18  1  0  0  0  0
 14 15  2  0  0  0  0
 17 11  1  0  0  0  0
 19  3  1  0  0  0  0
 20 25  1  0  0  0  0
 20 19  2  0  0  0  0
 21 20  1  0  0  0  0
 22 21  2  0  0  0  0
 22 23  1  0  0  0  0
 23 24  2  0  0  0  0
 24 19  1  0  0  0  0
 26 21  1  0  0  0  0
 27 22  1  0  0  0  0
 28 23  1  0  0  0  0
 28 29  1  0  0  0  0
 29 30  1  0  0  0  0
 31 29  2  0  0  0  0
 31 32  1  0  0  0  0
 33 31  1  0  0  0  0
 34 35  1  0  0  0  0
 34 33  2  0  0  0  0
 35 28  2  0  0  0  0
 36  6  1  0  0  0  0
 36 39  1  0  0  0  0
 37 36  1  0  0  0  0
 38 36  1  0  0  0  0
M  END
>  <minimizedAffinity>
-6.53263521

>  <minimizedRMSD>
0.491805464

$$$$
