
 OpenBabel03262521343D

 24 26  0  0  1  0  0  0  0  0999 V2000
   38.8700   22.5860   34.3100 C   0  0  1  0  0  0  0  0  0  0  0  0
   37.7610   22.9130   33.4430 C   0  0  0  0  0  0  0  0  0  0  0  0
   38.9490   23.8890   33.5020 C   0  0  1  0  0  0  0  0  0  0  0  0
   39.6170   21.8170   33.9910 H   0  0  0  0  0  0  0  0  0  0  0  0
   37.5370   22.4080   32.5030 H   0  0  0  0  0  0  0  0  0  0  0  0
   36.8240   23.2500   33.9610 H   0  0  0  0  0  0  0  0  0  0  0  0
   39.5750   23.8400   32.6010 H   0  0  0  0  0  0  0  0  0  0  0  0
   40.0050   22.8130   37.8700 C   0  0  0  0  0  0  0  0  0  0  0  0
   40.0500   22.6120   36.4760 C   0  0  0  0  0  0  0  0  0  0  0  0
   38.8700   22.8040   35.7590 C   0  0  0  0  0  0  0  0  0  0  0  0
   37.7520   23.1740   36.4650 N   0  0  0  0  0  0  0  0  0  0  0  0
   37.7370   23.3580   37.7930 C   0  0  0  0  0  0  0  0  0  0  0  0
   38.8730   23.1740   38.4930 N   0  0  0  0  0  0  0  0  0  0  0  0
   40.9100   22.6650   38.4180 H   0  0  0  0  0  0  0  0  0  0  0  0
   40.9300   22.3210   35.9250 H   0  0  0  0  0  0  0  0  0  0  0  0
   36.7510   23.6460   38.1350 H   0  0  0  0  0  0  0  0  0  0  0  0
   38.6780   25.1640   34.1670 C   0  0  0  0  0  0  0  0  0  0  0  0
   39.7020   25.8430   34.8010 C   0  0  0  0  0  0  0  0  0  0  0  0
   40.7260   25.4930   34.8470 H   0  0  0  0  0  0  0  0  0  0  0  0
   39.3970   27.0470   35.4160 C   0  0  0  0  0  0  0  0  0  0  0  0
   40.1080   27.6700   35.9430 H   0  0  0  0  0  0  0  0  0  0  0  0
   38.0900   27.5260   35.3760 C   0  0  0  0  0  3  0  0  0  0  0  0
   37.0930   26.8240   34.7360 C   0  0  0  0  0  3  0  0  0  0  0  0
   37.4240   25.6470   34.1410 N   0  0  0  0  0  0  0  0  0  0  0  0
  1  4  1  6  0  0  0
  1 10  1  0  0  0  0
  2  3  1  0  0  0  0
  2  6  1  0  0  0  0
  2  1  1  0  0  0  0
  3  7  1  6  0  0  0
  3 17  1  0  0  0  0
  3  1  1  0  0  0  0
  5  2  1  0  0  0  0
  8 14  1  0  0  0  0
  8 13  1  0  0  0  0
  9  8  2  0  0  0  0
 10 11  2  0  0  0  0
 10  9  1  0  0  0  0
 11 12  1  0  0  0  0
 12 16  1  0  0  0  0
 12 13  2  0  0  0  0
 15  9  1  0  0  0  0
 17 18  1  0  0  0  0
 18 19  1  0  0  0  0
 18 20  2  0  0  0  0
 20 21  1  0  0  0  0
 22 20  1  0  0  0  0
 23 22  2  0  0  0  0
 24 17  2  0  0  0  0
 24 23  1  0  0  0  0
M  END
>  <minimizedAffinity>
-4.4223752

$$$$

 OpenBabel03262521343D

 24 26  0  0  1  0  0  0  0  0999 V2000
   38.2020   23.7130   33.6210 C   0  0  1  0  0  0  0  0  0  0  0  0
   39.1830   22.6530   33.6220 C   0  0  0  0  0  0  0  0  0  0  0  0
   38.0360   22.5820   34.6460 C   0  0  1  0  0  0  0  0  0  0  0  0
   37.4010   23.7290   32.8400 H   0  0  0  0  0  0  0  0  0  0  0  0
   39.2610   21.8770   32.8610 H   0  0  0  0  0  0  0  0  0  0  0  0
   40.1910   22.9260   34.0340 H   0  0  0  0  0  0  0  0  0  0  0  0
   37.2880   21.8220   34.3840 H   0  0  0  0  0  0  0  0  0  0  0  0
   39.8730   26.7400   35.0570 C   0  0  0  0  0  0  0  0  0  0  0  0
   39.7130   25.4820   34.4420 C   0  0  0  0  0  0  0  0  0  0  0  0
   38.4110   25.0250   34.2390 C   0  0  0  0  0  0  0  0  0  0  0  0
   37.3830   25.8350   34.6540 N   0  0  0  0  0  0  0  0  0  0  0  0
   37.5640   27.0290   35.2380 C   0  0  0  0  0  0  0  0  0  0  0  0
   38.8180   27.4760   35.4370 N   0  0  0  0  0  0  0  0  0  0  0  0
   40.8710   27.0880   35.2120 H   0  0  0  0  0  0  0  0  0  0  0  0
   40.5230   24.8490   34.1180 H   0  0  0  0  0  0  0  0  0  0  0  0
   36.6160   27.4900   35.4810 H   0  0  0  0  0  0  0  0  0  0  0  0
   38.4260   22.8110   36.0380 C   0  0  0  0  0  0  0  0  0  0  0  0
   39.7020   22.4860   36.4590 C   0  0  0  0  0  0  0  0  0  0  0  0
   40.4630   22.0600   35.8190 H   0  0  0  0  0  0  0  0  0  0  0  0
   40.0250   22.7220   37.7870 C   0  0  0  0  0  0  0  0  0  0  0  0
   40.9870   22.5120   38.2360 H   0  0  0  0  0  0  0  0  0  0  0  0
   39.0690   23.2700   38.6380 C   0  0  0  0  0  3  0  0  0  0  0  0
   37.8070   23.5820   38.1860 C   0  0  0  0  0  3  0  0  0  0  0  0
   37.5210   23.3400   36.8790 N   0  0  0  0  0  0  0  0  0  0  0  0
  1  4  1  6  0  0  0
  1  2  1  0  0  0  0
  1 10  1  0  0  0  0
  1  3  1  0  0  0  0
  2  6  1  0  0  0  0
  2  3  1  0  0  0  0
  3  7  1  6  0  0  0
  3 17  1  0  0  0  0
  5  2  1  0  0  0  0
  8 14  1  0  0  0  0
  8 13  1  0  0  0  0
  9  8  2  0  0  0  0
 10  9  1  0  0  0  0
 10 11  2  0  0  0  0
 11 12  1  0  0  0  0
 12 13  2  0  0  0  0
 12 16  1  0  0  0  0
 15  9  1  0  0  0  0
 17 18  2  0  0  0  0
 17 24  1  0  0  0  0
 18 20  1  0  0  0  0
 19 18  1  0  0  0  0
 20 21  1  0  0  0  0
 20 22  2  0  0  0  0
 23 22  1  0  0  0  0
 24 23  2  0  0  0  0
M  END
>  <minimizedAffinity>
-4.35403156

$$$$

 OpenBabel03262521343D

 24 26  0  0  1  0  0  0  0  0999 V2000
   41.2500   24.8260   34.8790 C   0  0  1  0  0  0  0  0  0  0  0  0
   41.6220   25.5270   33.6740 C   0  0  0  0  0  0  0  0  0  0  0  0
   40.9720   26.3330   34.8110 C   0  0  1  0  0  0  0  0  0  0  0  0
   42.0350   24.5500   35.6270 H   0  0  0  0  0  0  0  0  0  0  0  0
   42.6460   25.7590   33.3790 H   0  0  0  0  0  0  0  0  0  0  0  0
   40.9730   25.3310   32.7780 H   0  0  0  0  0  0  0  0  0  0  0  0
   41.6960   26.9650   35.3430 H   0  0  0  0  0  0  0  0  0  0  0  0
   38.4140   22.9010   36.3840 C   0  0  0  0  0  0  0  0  0  0  0  0
   39.5750   23.6940   36.2930 C   0  0  0  0  0  0  0  0  0  0  0  0
   40.0340   24.0200   35.0180 C   0  0  0  0  0  0  0  0  0  0  0  0
   39.3200   23.5440   33.9460 N   0  0  0  0  0  0  0  0  0  0  0  0
   38.2170   22.7900   34.0610 C   0  0  0  0  0  0  0  0  0  0  0  0
   37.7680   22.4710   35.2900 N   0  0  0  0  0  0  0  0  0  0  0  0
   38.0630   22.6520   37.3620 H   0  0  0  0  0  0  0  0  0  0  0  0
   40.1330   24.0660   37.1370 H   0  0  0  0  0  0  0  0  0  0  0  0
   37.8210   22.5290   33.0890 H   0  0  0  0  0  0  0  0  0  0  0  0
   39.6100   26.8010   34.5470 C   0  0  0  0  0  0  0  0  0  0  0  0
   38.7900   27.1640   35.5990 C   0  0  0  0  0  0  0  0  0  0  0  0
   39.0840   27.1280   36.6400 H   0  0  0  0  0  0  0  0  0  0  0  0
   37.5090   27.6020   35.2990 C   0  0  0  0  0  0  0  0  0  0  0  0
   36.7750   27.9140   36.0300 H   0  0  0  0  0  0  0  0  0  0  0  0
   37.0980   27.6610   33.9700 C   0  0  0  0  0  3  0  0  0  0  0  0
   37.9410   27.2920   32.9460 C   0  0  0  0  0  3  0  0  0  0  0  0
   39.1910   26.8680   33.2720 N   0  0  0  0  0  0  0  0  0  0  0  0
  1 10  1  0  0  0  0
  1  4  1  1  0  0  0
  2  3  1  0  0  0  0
  2  1  1  0  0  0  0
  3  1  1  0  0  0  0
  3  7  1  1  0  0  0
  5  2  1  0  0  0  0
  6  2  1  0  0  0  0
  8 14  1  0  0  0  0
  9  8  1  0  0  0  0
  9 15  1  0  0  0  0
 10  9  2  0  0  0  0
 11 12  2  0  0  0  0
 11 10  1  0  0  0  0
 12 13  1  0  0  0  0
 13  8  2  0  0  0  0
 16 12  1  0  0  0  0
 17  3  1  0  0  0  0
 17 18  1  0  0  0  0
 18 19  1  0  0  0  0
 20 18  2  0  0  0  0
 20 21  1  0  0  0  0
 22 20  1  0  0  0  0
 23 24  1  0  0  0  0
 23 22  2  0  0  0  0
 24 17  2  0  0  0  0
M  END
>  <minimizedAffinity>
-4.02792645

$$$$

 OpenBabel03262521343D

 24 26  0  0  1  0  0  0  0  0999 V2000
   38.6490   27.3170   34.1930 C   0  0  1  0  0  0  0  0  0  0  0  0
   37.9650   27.4570   35.4570 C   0  0  0  0  0  0  0  0  0  0  0  0
   39.2550   26.6190   35.4180 C   0  0  1  0  0  0  0  0  0  0  0  0
   39.2750   28.1590   33.8030 H   0  0  0  0  0  0  0  0  0  0  0  0
   37.9440   28.3680   36.0550 H   0  0  0  0  0  0  0  0  0  0  0  0
   37.0080   26.8790   35.5570 H   0  0  0  0  0  0  0  0  0  0  0  0
   40.1060   27.1400   35.8770 H   0  0  0  0  0  0  0  0  0  0  0  0
   38.7120   25.1770   31.1220 C   0  0  0  0  0  0  0  0  0  0  0  0
   39.1480   26.0630   32.1280 C   0  0  0  0  0  0  0  0  0  0  0  0
   38.2420   26.3840   33.1390 C   0  0  0  0  0  0  0  0  0  0  0  0
   36.9950   25.8130   33.0780 N   0  0  0  0  0  0  0  0  0  0  0  0
   36.6070   24.9730   32.1080 C   0  0  0  0  0  0  0  0  0  0  0  0
   37.4750   24.6580   31.1280 N   0  0  0  0  0  0  0  0  0  0  0  0
   39.4070   24.9330   30.3480 H   0  0  0  0  0  0  0  0  0  0  0  0
   40.1280   26.5090   32.1710 H   0  0  0  0  0  0  0  0  0  0  0  0
   35.5860   24.6480   32.2610 H   0  0  0  0  0  0  0  0  0  0  0  0
   39.0690   25.1770   35.5880 C   0  0  0  0  0  0  0  0  0  0  0  0
   38.0010   24.7020   36.3260 C   0  0  0  0  0  0  0  0  0  0  0  0
   37.2650   25.3340   36.8060 H   0  0  0  0  0  0  0  0  0  0  0  0
   37.8660   23.3280   36.4590 C   0  0  0  0  0  0  0  0  0  0  0  0
   37.0760   22.8350   37.0090 H   0  0  0  0  0  0  0  0  0  0  0  0
   38.7960   22.4870   35.8540 C   0  0  0  0  0  3  0  0  0  0  0  0
   39.8480   22.9930   35.1250 C   0  0  0  0  0  3  0  0  0  0  0  0
   39.9530   24.3450   35.0130 N   0  0  0  0  0  0  0  0  0  0  0  0
  1  4  1  6  0  0  0
  1  3  1  0  0  0  0
  1  2  1  0  0  0  0
  2  6  1  0  0  0  0
  2  5  1  0  0  0  0
  3  2  1  0  0  0  0
  3 17  1  0  0  0  0
  3  7  1  1  0  0  0
  8 13  2  0  0  0  0
  8  9  1  0  0  0  0
  9 15  1  0  0  0  0
  9 10  2  0  0  0  0
 10  1  1  0  0  0  0
 11 10  1  0  0  0  0
 12 16  1  0  0  0  0
 12 11  2  0  0  0  0
 13 12  1  0  0  0  0
 14  8  1  0  0  0  0
 17 18  1  0  0  0  0
 18 20  2  0  0  0  0
 18 19  1  0  0  0  0
 20 21  1  0  0  0  0
 22 20  1  0  0  0  0
 23 22  2  0  0  0  0
 24 23  1  0  0  0  0
 24 17  2  0  0  0  0
M  END
>  <minimizedAffinity>
-3.91761351

$$$$

 OpenBabel03262521343D

 24 26  0  0  1  0  0  0  0  0999 V2000
   38.1970   25.9350   36.1520 C   0  0  1  0  0  0  0  0  0  0  0  0
   38.6730   27.2670   35.8620 C   0  0  0  0  0  0  0  0  0  0  0  0
   37.4880   26.7260   35.0440 C   0  0  1  0  0  0  0  0  0  0  0  0
   37.5580   25.7550   37.0520 H   0  0  0  0  0  0  0  0  0  0  0  0
   38.5210   28.1350   36.5040 H   0  0  0  0  0  0  0  0  0  0  0  0
   39.6560   27.3240   35.3220 H   0  0  0  0  0  0  0  0  0  0  0  0
   36.5340   27.1840   35.3380 H   0  0  0  0  0  0  0  0  0  0  0  0
   38.7900   22.3510   35.2440 C   0  0  0  0  0  0  0  0  0  0  0  0
   38.1310   23.5100   35.7020 C   0  0  0  0  0  0  0  0  0  0  0  0
   38.8390   24.7100   35.6650 C   0  0  0  0  0  0  0  0  0  0  0  0
   40.1250   24.6730   35.1860 N   0  0  0  0  0  0  0  0  0  0  0  0
   40.7280   23.5550   34.7560 C   0  0  0  0  0  0  0  0  0  0  0  0
   40.0510   22.3920   34.7890 N   0  0  0  0  0  0  0  0  0  0  0  0
   38.2450   21.4320   35.2730 H   0  0  0  0  0  0  0  0  0  0  0  0
   37.1210   23.5340   36.0780 H   0  0  0  0  0  0  0  0  0  0  0  0
   41.7380   23.7610   34.4250 H   0  0  0  0  0  0  0  0  0  0  0  0
   37.7820   26.4220   33.6430 C   0  0  0  0  0  0  0  0  0  0  0  0
   38.7860   27.1080   32.9850 C   0  0  0  0  0  0  0  0  0  0  0  0
   39.3940   27.8790   33.4400 H   0  0  0  0  0  0  0  0  0  0  0  0
   39.0280   26.7850   31.6580 C   0  0  0  0  0  0  0  0  0  0  0  0
   39.7850   27.2470   31.0380 H   0  0  0  0  0  0  0  0  0  0  0  0
   38.2650   25.7960   31.0430 C   0  0  0  0  0  3  0  0  0  0  0  0
   37.2710   25.1330   31.7280 C   0  0  0  0  0  3  0  0  0  0  0  0
   37.0580   25.4720   33.0270 N   0  0  0  0  0  0  0  0  0  0  0  0
  1  4  1  1  0  0  0
  2  1  1  0  0  0  0
  2  5  1  0  0  0  0
  3  7  1  1  0  0  0
  3  2  1  0  0  0  0
  3  1  1  0  0  0  0
  6  2  1  0  0  0  0
  8 14  1  0  0  0  0
  8  9  1  0  0  0  0
  9 15  1  0  0  0  0
 10  9  2  0  0  0  0
 10  1  1  0  0  0  0
 11 10  1  0  0  0  0
 12 13  1  0  0  0  0
 12 11  2  0  0  0  0
 13  8  2  0  0  0  0
 16 12  1  0  0  0  0
 17  3  1  0  0  0  0
 18 19  1  0  0  0  0
 18 17  2  0  0  0  0
 20 18  1  0  0  0  0
 21 20  1  0  0  0  0
 22 20  2  0  0  0  0
 22 23  1  0  0  0  0
 23 24  2  0  0  0  0
 24 17  1  0  0  0  0
M  END
>  <minimizedAffinity>
-3.907516

$$$$

 OpenBabel03262521343D

 24 26  0  0  1  0  0  0  0  0999 V2000
   39.5980   26.7920   34.9640 C   0  0  1  0  0  0  0  0  0  0  0  0
   40.5070   27.0170   33.8640 C   0  0  0  0  0  0  0  0  0  0  0  0
   38.9980   27.1430   33.5960 C   0  0  1  0  0  0  0  0  0  0  0  0
   39.4500   27.5890   35.7350 H   0  0  0  0  0  0  0  0  0  0  0  0
   41.1410   27.8980   33.7510 H   0  0  0  0  0  0  0  0  0  0  0  0
   41.0040   26.0990   33.4500 H   0  0  0  0  0  0  0  0  0  0  0  0
   38.6790   28.1880   33.4810 H   0  0  0  0  0  0  0  0  0  0  0  0
   37.7480   24.0520   36.7200 C   0  0  0  0  0  0  0  0  0  0  0  0
   38.0830   25.3430   36.2620 C   0  0  0  0  0  0  0  0  0  0  0  0
   39.2040   25.4640   35.4430 C   0  0  0  0  0  0  0  0  0  0  0  0
   39.8980   24.3190   35.1430 N   0  0  0  0  0  0  0  0  0  0  0  0
   39.5570   23.1020   35.5930 C   0  0  0  0  0  0  0  0  0  0  0  0
   38.4750   22.9760   36.3850 N   0  0  0  0  0  0  0  0  0  0  0  0
   36.8880   23.9610   37.3480 H   0  0  0  0  0  0  0  0  0  0  0  0
   37.5350   26.2400   36.5010 H   0  0  0  0  0  0  0  0  0  0  0  0
   40.2440   22.3480   35.2320 H   0  0  0  0  0  0  0  0  0  0  0  0
   38.4190   26.0810   32.7710 C   0  0  0  0  0  0  0  0  0  0  0  0
   37.0630   25.8180   32.8390 C   0  0  0  0  0  0  0  0  0  0  0  0
   36.3710   26.3520   33.4770 H   0  0  0  0  0  0  0  0  0  0  0  0
   36.5610   24.8030   32.0390 C   0  0  0  0  0  0  0  0  0  0  0  0
   35.5220   24.5020   32.0020 H   0  0  0  0  0  0  0  0  0  0  0  0
   37.4240   24.0950   31.2060 C   0  0  0  0  0  3  0  0  0  0  0  0
   38.7690   24.3840   31.1630 C   0  0  0  0  0  3  0  0  0  0  0  0
   39.2310   25.3850   31.9590 N   0  0  0  0  0  0  0  0  0  0  0  0
  1 10  1  0  0  0  0
  1  4  1  1  0  0  0
  2  1  1  0  0  0  0
  3  7  1  6  0  0  0
  3  2  1  0  0  0  0
  3  1  1  0  0  0  0
  5  2  1  0  0  0  0
  6  2  1  0  0  0  0
  8 14  1  0  0  0  0
  9 15  1  0  0  0  0
  9  8  2  0  0  0  0
 10  9  1  0  0  0  0
 11 10  2  0  0  0  0
 11 12  1  0  0  0  0
 12 13  2  0  0  0  0
 13  8  1  0  0  0  0
 16 12  1  0  0  0  0
 17 18  1  0  0  0  0
 17  3  1  0  0  0  0
 18 19  1  0  0  0  0
 20 18  2  0  0  0  0
 21 20  1  0  0  0  0
 22 20  1  0  0  0  0
 23 22  2  0  0  0  0
 23 24  1  0  0  0  0
 24 17  2  0  0  0  0
M  END
>  <minimizedAffinity>
-3.88785076

$$$$

 OpenBabel03262521343D

 24 26  0  0  1  0  0  0  0  0999 V2000
   38.5300   27.3050   34.0880 C   0  0  1  0  0  0  0  0  0  0  0  0
   37.8090   27.4600   35.3290 C   0  0  0  0  0  0  0  0  0  0  0  0
   39.1540   26.7140   35.3590 C   0  0  1  0  0  0  0  0  0  0  0  0
   39.1060   28.1670   33.6670 H   0  0  0  0  0  0  0  0  0  0  0  0
   37.7110   28.3970   35.8780 H   0  0  0  0  0  0  0  0  0  0  0  0
   36.8920   26.8220   35.4400 H   0  0  0  0  0  0  0  0  0  0  0  0
   39.9560   27.3160   35.8080 H   0  0  0  0  0  0  0  0  0  0  0  0
   38.8110   25.0240   31.1330 C   0  0  0  0  0  0  0  0  0  0  0  0
   39.1610   25.9870   32.0990 C   0  0  0  0  0  0  0  0  0  0  0  0
   38.2140   26.2920   33.0760 C   0  0  0  0  0  0  0  0  0  0  0  0
   37.0120   25.6310   33.0230 N   0  0  0  0  0  0  0  0  0  0  0  0
   36.7050   24.7170   32.0910 C   0  0  0  0  0  0  0  0  0  0  0  0
   37.6150   24.4170   31.1440 N   0  0  0  0  0  0  0  0  0  0  0  0
   39.5380   24.7910   30.3850 H   0  0  0  0  0  0  0  0  0  0  0  0
   40.1050   26.5050   32.1370 H   0  0  0  0  0  0  0  0  0  0  0  0
   35.7070   24.3270   32.2420 H   0  0  0  0  0  0  0  0  0  0  0  0
   39.0650   25.2730   35.6010 C   0  0  0  0  0  0  0  0  0  0  0  0
   40.0730   24.4360   35.1610 C   0  0  0  0  0  0  0  0  0  0  0  0
   40.9550   24.7730   34.6320 H   0  0  0  0  0  0  0  0  0  0  0  0
   39.9440   23.0790   35.4140 C   0  0  0  0  0  0  0  0  0  0  0  0
   40.6640   22.3240   35.1220 H   0  0  0  0  0  0  0  0  0  0  0  0
   38.8220   22.6110   36.0920 C   0  0  0  0  0  3  0  0  0  0  0  0
   37.8360   23.4730   36.5170 C   0  0  0  0  0  3  0  0  0  0  0  0
   37.9910   24.7980   36.2540 N   0  0  0  0  0  0  0  0  0  0  0  0
  1  4  1  6  0  0  0
  1  2  1  0  0  0  0
  1  3  1  0  0  0  0
  2  3  1  0  0  0  0
  2  6  1  0  0  0  0
  2  5  1  0  0  0  0
  3 17  1  0  0  0  0
  3  7  1  1  0  0  0
  8 13  2  0  0  0  0
  8  9  1  0  0  0  0
  9 15  1  0  0  0  0
  9 10  2  0  0  0  0
 10  1  1  0  0  0  0
 11 10  1  0  0  0  0
 12 16  1  0  0  0  0
 12 11  2  0  0  0  0
 13 12  1  0  0  0  0
 14  8  1  0  0  0  0
 17 24  1  0  0  0  0
 18 20  1  0  0  0  0
 18 17  2  0  0  0  0
 19 18  1  0  0  0  0
 20 22  2  0  0  0  0
 21 20  1  0  0  0  0
 22 23  1  0  0  0  0
 24 23  2  0  0  0  0
M  END
>  <minimizedAffinity>
-3.86085725

$$$$

 OpenBabel03262521343D

 24 26  0  0  1  0  0  0  0  0999 V2000
   37.6650   27.1570   35.1580 C   0  0  1  0  0  0  0  0  0  0  0  0
   38.1520   26.2670   36.1860 C   0  0  0  0  0  0  0  0  0  0  0  0
   39.1620   27.1990   35.4940 C   0  0  1  0  0  0  0  0  0  0  0  0
   37.1160   28.0890   35.4430 H   0  0  0  0  0  0  0  0  0  0  0  0
   37.9640   26.3880   37.2530 H   0  0  0  0  0  0  0  0  0  0  0  0
   38.2100   25.1830   35.9010 H   0  0  0  0  0  0  0  0  0  0  0  0
   39.4710   28.0330   36.1390 H   0  0  0  0  0  0  0  0  0  0  0  0
   36.9630   27.2870   31.4830 C   0  0  0  0  0  0  0  0  0  0  0  0
   37.2420   27.7220   32.7940 C   0  0  0  0  0  0  0  0  0  0  0  0
   37.3950   26.7450   33.7770 C   0  0  0  0  0  0  0  0  0  0  0  0
   37.2640   25.4330   33.3940 N   0  0  0  0  0  0  0  0  0  0  0  0
   36.9980   25.0470   32.1380 C   0  0  0  0  0  0  0  0  0  0  0  0
   36.8480   25.9850   31.1830 N   0  0  0  0  0  0  0  0  0  0  0  0
   36.8460   28.0360   30.7300 H   0  0  0  0  0  0  0  0  0  0  0  0
   37.3440   28.7530   33.0900 H   0  0  0  0  0  0  0  0  0  0  0  0
   36.9380   23.9690   32.0670 H   0  0  0  0  0  0  0  0  0  0  0  0
   40.1170   26.5360   34.6050 C   0  0  0  0  0  0  0  0  0  0  0  0
   40.7180   27.2490   33.5840 C   0  0  0  0  0  0  0  0  0  0  0  0
   40.5320   28.2960   33.3820 H   0  0  0  0  0  0  0  0  0  0  0  0
   41.6170   26.5780   32.7690 C   0  0  0  0  0  0  0  0  0  0  0  0
   42.1510   27.0240   31.9390 H   0  0  0  0  0  0  0  0  0  0  0  0
   41.8800   25.2310   33.0010 C   0  0  0  0  0  3  0  0  0  0  0  0
   41.2640   24.5500   34.0270 C   0  0  0  0  0  3  0  0  0  0  0  0
   40.3880   25.2360   34.8100 N   0  0  0  0  0  0  0  0  0  0  0  0
  1  4  1  1  0  0  0
  1  3  1  0  0  0  0
  1  2  1  0  0  0  0
  2  5  1  0  0  0  0
  3  7  1  1  0  0  0
  3  2  1  0  0  0  0
  6  2  1  0  0  0  0
  8  9  1  0  0  0  0
  9 15  1  0  0  0  0
  9 10  2  0  0  0  0
 10  1  1  0  0  0  0
 11 10  1  0  0  0  0
 12 11  2  0  0  0  0
 13  8  2  0  0  0  0
 13 12  1  0  0  0  0
 14  8  1  0  0  0  0
 16 12  1  0  0  0  0
 17 24  1  0  0  0  0
 17  3  1  0  0  0  0
 18 17  2  0  0  0  0
 19 18  1  0  0  0  0
 20 22  2  0  0  0  0
 20 18  1  0  0  0  0
 21 20  1  0  0  0  0
 22 23  1  0  0  0  0
 23 24  2  0  0  0  0
M  END
>  <minimizedAffinity>
-3.83178616

$$$$

 OpenBabel03262521343D

 24 26  0  0  1  0  0  0  0  0999 V2000
   37.3950   28.0350   32.1270 C   0  0  1  0  0  0  0  0  0  0  0  0
   37.9240   27.9640   30.7860 C   0  0  0  0  0  0  0  0  0  0  0  0
   36.6100   27.2230   31.0880 C   0  0  1  0  0  0  0  0  0  0  0  0
   36.8630   28.9590   32.4670 H   0  0  0  0  0  0  0  0  0  0  0  0
   37.9170   28.7860   30.0700 H   0  0  0  0  0  0  0  0  0  0  0  0
   38.8330   27.3160   30.6570 H   0  0  0  0  0  0  0  0  0  0  0  0
   35.7350   27.7340   30.6620 H   0  0  0  0  0  0  0  0  0  0  0  0
   39.6620   26.1020   34.3940 C   0  0  0  0  0  0  0  0  0  0  0  0
   39.2360   26.9020   33.3150 C   0  0  0  0  0  0  0  0  0  0  0  0
   37.8810   27.2230   33.2460 C   0  0  0  0  0  0  0  0  0  0  0  0
   37.0630   26.7350   34.2350 N   0  0  0  0  0  0  0  0  0  0  0  0
   37.4950   25.9750   35.2520 C   0  0  0  0  0  0  0  0  0  0  0  0
   38.8030   25.6610   35.3250 N   0  0  0  0  0  0  0  0  0  0  0  0
   40.7010   25.8570   34.4450 H   0  0  0  0  0  0  0  0  0  0  0  0
   39.8820   27.2820   32.5400 H   0  0  0  0  0  0  0  0  0  0  0  0
   36.6790   25.7060   35.9090 H   0  0  0  0  0  0  0  0  0  0  0  0
   36.7030   25.7620   31.0970 C   0  0  0  0  0  0  0  0  0  0  0  0
   35.6150   25.0050   31.4890 C   0  0  0  0  0  0  0  0  0  0  0  0
   34.6650   25.4210   31.8010 H   0  0  0  0  0  0  0  0  0  0  0  0
   35.7500   23.6250   31.4810 C   0  0  0  0  0  0  0  0  0  0  0  0
   34.9740   22.9260   31.7640 H   0  0  0  0  0  0  0  0  0  0  0  0
   36.9580   23.0570   31.0840 C   0  0  0  0  0  3  0  0  0  0  0  0
   38.0220   23.8410   30.6990 C   0  0  0  0  0  3  0  0  0  0  0  0
   37.8580   25.1910   30.7180 N   0  0  0  0  0  0  0  0  0  0  0  0
  1  4  1  1  0  0  0
  1 10  1  0  0  0  0
  2  3  1  0  0  0  0
  2  1  1  0  0  0  0
  3  7  1  6  0  0  0
  3 17  1  0  0  0  0
  3  1  1  0  0  0  0
  5  2  1  0  0  0  0
  6  2  1  0  0  0  0
  8 14  1  0  0  0  0
  8 13  1  0  0  0  0
  9  8  2  0  0  0  0
 10  9  1  0  0  0  0
 10 11  2  0  0  0  0
 11 12  1  0  0  0  0
 12 13  2  0  0  0  0
 12 16  1  0  0  0  0
 15  9  1  0  0  0  0
 17 18  1  0  0  0  0
 18 19  1  0  0  0  0
 20 18  2  0  0  0  0
 20 21  1  0  0  0  0
 22 20  1  0  0  0  0
 23 24  1  0  0  0  0
 23 22  2  0  0  0  0
 24 17  2  0  0  0  0
M  END
>  <minimizedAffinity>
-3.80209494

$$$$
