
 OpenBabel03272510263D

 44 48  0  0  1  0  0  0  0  0999 V2000
   36.1590   30.2190   46.8730 C   0  0  0  0  0  0  0  0  0  0  0  0
   37.0580   30.7630   47.7860 C   0  0  0  0  0  0  0  0  0  0  0  0
   38.0580   31.6270   47.3660 C   0  0  0  0  0  0  0  0  0  0  0  0
   38.1060   31.9080   46.0060 C   0  0  0  0  0  0  0  0  0  0  0  0
   39.0030   32.7270   45.3710 N   0  0  0  0  0  0  0  0  0  0  0  0
   38.6690   32.6960   44.0720 C   0  0  0  0  0  0  0  0  0  0  0  0
   37.6300   31.9110   43.8820 N   0  0  0  0  0  0  0  0  0  0  0  0
   37.2460   31.3980   45.0750 C   0  0  0  0  0  0  0  0  0  0  0  0
   36.2460   30.5300   45.5230 C   0  0  0  0  0  0  0  0  0  0  0  0
   35.3650   29.5380   47.1800 H   0  0  0  0  0  0  0  0  0  0  0  0
   38.7500   32.0440   48.0760 H   0  0  0  0  0  0  0  0  0  0  0  0
   39.7950   33.2730   45.8100 H   0  0  0  0  0  0  0  0  0  0  0  0
   35.5760   30.1370   44.7720 H   0  0  0  0  0  0  0  0  0  0  0  0
   37.5560   30.2020   51.4580 C   0  0  0  0  0  0  0  0  0  0  0  0
   37.8260   30.6290   50.1700 C   0  0  0  0  0  0  0  0  0  0  0  0
   36.8920   30.3730   49.1720 C   0  0  0  0  0  0  0  0  0  0  0  0
   35.7600   29.7110   49.5350 N   0  0  0  0  0  0  0  0  0  0  0  0
   35.5060   29.3000   50.7860 C   0  0  0  0  0  0  0  0  0  0  0  0
   36.4010   29.5480   51.7330 N   0  0  0  0  0  0  0  0  0  0  0  0
   38.3110   30.4200   52.2150 H   0  0  0  0  0  0  0  0  0  0  0  0
   38.7370   31.1590   49.8930 H   0  0  0  0  0  0  0  0  0  0  0  0
   34.5660   28.7820   50.9450 H   0  0  0  0  0  0  0  0  0  0  0  0
   39.3900   33.4350   43.1160 O   0  0  0  0  0  0  0  0  0  0  0  0
   39.1470   31.5950   41.7930 N   0  0  0  0  0  0  0  0  0  0  0  0
   39.1810   33.0430   41.7580 C   0  0  1  0  0  0  0  0  0  0  0  0
   37.9130   33.5470   41.2390 C   0  0  0  0  0  0  0  0  0  0  0  0
   37.7800   33.1340   39.9030 O   0  0  0  0  0  0  0  0  0  0  0  0
   37.8850   31.7940   39.6950 C   0  0  0  0  0  0  0  0  0  0  0  0
   39.0320   31.1470   40.4070 C   0  0  1  0  0  0  0  0  0  0  0  0
   40.0800   31.2720   42.1280 H   0  0  0  0  0  0  0  0  0  0  0  0
   40.0060   33.4680   41.1620 H   0  0  0  0  0  0  0  0  0  0  0  0
   36.9630   33.3700   41.6620 H   0  0  0  0  0  0  0  0  0  0  0  0
   38.0170   34.6720   41.1480 H   0  0  0  0  0  0  0  0  0  0  0  0
   38.0050   31.6180   38.6210 H   0  0  0  0  0  0  0  0  0  0  0  0
   36.9270   31.2890   39.9760 H   0  0  0  0  0  0  0  0  0  0  0  0
   38.7200   30.0630   40.5200 H   0  0  0  0  0  0  0  0  0  0  0  0
   40.2990   31.1200   39.6790 C   0  0  0  0  0  0  0  0  0  0  0  0
   40.4170   31.7220   38.4170 C   0  0  0  0  0  0  0  0  0  0  0  0
   39.4980   32.2000   38.0410 H   0  0  0  0  0  0  0  0  0  0  0  0
   41.5420   31.7750   37.6230 C   0  0  0  0  0  0  0  0  0  0  0  0
   41.4680   32.2810   36.6700 H   0  0  0  0  0  0  0  0  0  0  0  0
   42.6710   31.1730   38.1160 C   0  0  0  0  0  0  0  0  0  0  0  0
   42.5580   30.5790   39.3570 C   0  0  0  0  0  0  0  0  0  0  0  0
   41.4410   30.5510   40.1010 N   0  0  0  0  0  0  0  0  0  0  0  0
  1 10  1  0  0  0  0
  1  2  1  0  0  0  0
  2 16  1  0  0  0  0
  3  2  2  0  0  0  0
  3 11  1  0  0  0  0
  4  3  1  0  0  0  0
  5 12  1  0  0  0  0
  5  4  1  0  0  0  0
  6  5  1  0  0  0  0
  7  6  2  0  0  0  0
  7  8  1  0  0  0  0
  8  9  1  0  0  0  0
  8  4  2  0  0  0  0
  9  1  2  0  0  0  0
 13  9  1  0  0  0  0
 14 19  1  0  0  0  0
 14 20  1  0  0  0  0
 15 14  2  0  0  0  0
 16 17  2  0  0  0  0
 16 15  1  0  0  0  0
 17 18  1  0  0  0  0
 18 22  1  0  0  0  0
 18 19  2  0  0  0  0
 21 15  1  0  0  0  0
 23  6  1  0  0  0  0
 24 30  1  0  0  0  0
 25 31  1  6  0  0  0
 25 24  1  0  0  0  0
 25 23  1  0  0  0  0
 26 32  1  0  0  0  0
 26 25  1  0  0  0  0
 27 26  1  0  0  0  0
 28 27  1  0  0  0  0
 28 35  1  0  0  0  0
 28 29  1  0  0  0  0
 29 36  1  1  0  0  0
 29 24  1  0  0  0  0
 33 26  1  0  0  0  0
 34 28  1  0  0  0  0
 37 44  1  0  0  0  0
 37 29  1  0  0  0  0
 38 37  2  0  0  0  0
 39 38  1  0  0  0  0
 40 42  2  0  0  0  0
 40 38  1  0  0  0  0
 41 40  1  0  0  0  0
 42 43  1  0  0  0  0
 43 44  2  0  0  0  0
M  END
>  <minimizedAffinity>
-5.94879103

>  <minimizedRMSD>
0.635714948

$$$$
