
 OpenBabel03272510263D

 44 48  0  0  1  0  0  0  0  0999 V2000
   36.1590   30.2170   46.8750 C   0  0  0  0  0  0  0  0  0  0  0  0
   37.0580   30.7620   47.7880 C   0  0  0  0  0  0  0  0  0  0  0  0
   38.0570   31.6260   47.3680 C   0  0  0  0  0  0  0  0  0  0  0  0
   38.1060   31.9080   46.0080 C   0  0  0  0  0  0  0  0  0  0  0  0
   39.0020   32.7270   45.3730 N   0  0  0  0  0  0  0  0  0  0  0  0
   38.6690   32.6950   44.0740 C   0  0  0  0  0  0  0  0  0  0  0  0
   37.6300   31.9100   43.8840 N   0  0  0  0  0  0  0  0  0  0  0  0
   37.2460   31.3960   45.0770 C   0  0  0  0  0  0  0  0  0  0  0  0
   36.2470   30.5280   45.5250 C   0  0  0  0  0  0  0  0  0  0  0  0
   35.3660   29.5360   47.1820 H   0  0  0  0  0  0  0  0  0  0  0  0
   38.7490   32.0440   48.0780 H   0  0  0  0  0  0  0  0  0  0  0  0
   39.7940   33.2730   45.8120 H   0  0  0  0  0  0  0  0  0  0  0  0
   35.5770   30.1340   44.7730 H   0  0  0  0  0  0  0  0  0  0  0  0
   37.5550   30.2010   51.4610 C   0  0  0  0  0  0  0  0  0  0  0  0
   37.8250   30.6270   50.1720 C   0  0  0  0  0  0  0  0  0  0  0  0
   36.8920   30.3730   49.1740 C   0  0  0  0  0  0  0  0  0  0  0  0
   35.7590   29.7110   49.5370 N   0  0  0  0  0  0  0  0  0  0  0  0
   35.5050   29.3000   50.7880 C   0  0  0  0  0  0  0  0  0  0  0  0
   36.4000   29.5480   51.7350 N   0  0  0  0  0  0  0  0  0  0  0  0
   38.3100   30.4190   52.2170 H   0  0  0  0  0  0  0  0  0  0  0  0
   38.7370   31.1570   49.8950 H   0  0  0  0  0  0  0  0  0  0  0  0
   34.5650   28.7820   50.9470 H   0  0  0  0  0  0  0  0  0  0  0  0
   39.3900   33.4340   43.1180 O   0  0  0  0  0  0  0  0  0  0  0  0
   39.1470   31.5950   41.7940 N   0  0  0  0  0  0  0  0  0  0  0  0
   39.1800   33.0430   41.7600 C   0  0  1  0  0  0  0  0  0  0  0  0
   37.9120   33.5470   41.2420 C   0  0  0  0  0  0  0  0  0  0  0  0
   37.7780   33.1340   39.9060 O   0  0  0  0  0  0  0  0  0  0  0  0
   37.8840   31.7940   39.6970 C   0  0  0  0  0  0  0  0  0  0  0  0
   39.0310   31.1470   40.4080 C   0  0  1  0  0  0  0  0  0  0  0  0
   40.0790   31.2720   42.1290 H   0  0  0  0  0  0  0  0  0  0  0  0
   40.0050   33.4680   41.1640 H   0  0  0  0  0  0  0  0  0  0  0  0
   36.9630   33.3690   41.6650 H   0  0  0  0  0  0  0  0  0  0  0  0
   38.0160   34.6720   41.1510 H   0  0  0  0  0  0  0  0  0  0  0  0
   38.0040   31.6190   38.6220 H   0  0  0  0  0  0  0  0  0  0  0  0
   36.9260   31.2880   39.9780 H   0  0  0  0  0  0  0  0  0  0  0  0
   38.7200   30.0630   40.5210 H   0  0  0  0  0  0  0  0  0  0  0  0
   40.2980   31.1210   39.6800 C   0  0  0  0  0  0  0  0  0  0  0  0
   40.4160   31.7210   38.4180 C   0  0  0  0  0  0  0  0  0  0  0  0
   39.4960   32.1980   38.0410 H   0  0  0  0  0  0  0  0  0  0  0  0
   41.5410   31.7730   37.6230 C   0  0  0  0  0  0  0  0  0  0  0  0
   41.4650   32.2770   36.6700 H   0  0  0  0  0  0  0  0  0  0  0  0
   42.6690   31.1720   38.1160 C   0  0  0  0  0  3  0  0  0  0  0  0
   42.5580   30.5790   39.3570 C   0  0  0  0  0  3  0  0  0  0  0  0
   41.4400   30.5520   40.1030 N   0  0  0  0  0  0  0  0  0  0  0  0
  1 10  1  0  0  0  0
  1  2  1  0  0  0  0
  2 16  1  0  0  0  0
  3  2  2  0  0  0  0
  3 11  1  0  0  0  0
  4  3  1  0  0  0  0
  5 12  1  0  0  0  0
  5  4  1  0  0  0  0
  6  5  1  0  0  0  0
  7  6  2  0  0  0  0
  7  8  1  0  0  0  0
  8  9  1  0  0  0  0
  8  4  2  0  0  0  0
  9  1  2  0  0  0  0
 13  9  1  0  0  0  0
 14 19  1  0  0  0  0
 14 20  1  0  0  0  0
 15 14  2  0  0  0  0
 16 17  2  0  0  0  0
 16 15  1  0  0  0  0
 17 18  1  0  0  0  0
 18 22  1  0  0  0  0
 18 19  2  0  0  0  0
 21 15  1  0  0  0  0
 23  6  1  0  0  0  0
 24 30  1  0  0  0  0
 25 31  1  6  0  0  0
 25 24  1  0  0  0  0
 25 23  1  0  0  0  0
 26 32  1  0  0  0  0
 26 25  1  0  0  0  0
 27 26  1  0  0  0  0
 28 27  1  0  0  0  0
 28 35  1  0  0  0  0
 28 29  1  0  0  0  0
 29 36  1  1  0  0  0
 29 24  1  0  0  0  0
 33 26  1  0  0  0  0
 34 28  1  0  0  0  0
 37 44  1  0  0  0  0
 37 29  1  0  0  0  0
 38 37  2  0  0  0  0
 39 38  1  0  0  0  0
 40 42  2  0  0  0  0
 40 38  1  0  0  0  0
 41 40  1  0  0  0  0
 42 43  1  0  0  0  0
 43 44  2  0  0  0  0
M  END
>  <minimizedAffinity>
-5.94565344

>  <minimizedRMSD>
0.874216795

$$$$
