
 OpenBabel03272510203D

 35 38  0  0  0  0  0  0  0  0999 V2000
   37.4100   29.1610   50.8020 Br  0  0  0  0  0  0  0  0  0  0  0  0
   35.9990   29.2830   49.5190 C   0  0  0  0  0  0  0  0  0  0  0  0
   35.9970   30.2860   48.5600 C   0  0  0  0  0  0  0  0  0  0  0  0
   34.9490   30.3110   47.6690 C   0  0  0  0  0  0  0  0  0  0  0  0
   33.9130   29.3940   47.6860 C   0  0  0  0  0  0  0  0  0  0  0  0
   33.9500   28.4270   48.6400 C   0  0  0  0  0  0  0  0  0  0  0  0
   34.9870   28.3760   49.5470 C   0  0  0  0  0  0  0  0  0  0  0  0
   34.8930   31.0760   46.8940 H   0  0  0  0  0  0  0  0  0  0  0  0
   33.1780   27.6550   48.7380 H   0  0  0  0  0  0  0  0  0  0  0  0
   35.0060   27.5950   50.3070 H   0  0  0  0  0  0  0  0  0  0  0  0
   38.0170   33.1870   49.4750 C   0  0  0  0  0  0  0  0  0  0  0  0
   39.0480   33.1860   48.4890 C   0  0  0  0  0  0  0  0  0  0  0  0
   39.0250   32.1930   47.5370 C   0  0  0  0  0  0  0  0  0  0  0  0
   38.0270   31.2500   47.5650 N   0  0  0  0  0  0  0  0  0  0  0  0
   37.0700   31.2740   48.5040 C   0  0  0  0  0  0  0  0  0  0  0  0
   37.0760   32.2430   49.4490 N   0  0  0  0  0  0  0  0  0  0  0  0
   38.0160   33.9590   50.2330 H   0  0  0  0  0  0  0  0  0  0  0  0
   39.8150   33.9530   48.5090 H   0  0  0  0  0  0  0  0  0  0  0  0
   39.7820   32.1410   46.7630 H   0  0  0  0  0  0  0  0  0  0  0  0
   32.8100   29.4200   46.7500 C   0  0  0  0  0  0  0  0  0  0  0  0
   31.9570   28.3670   46.5040 C   0  0  0  0  0  0  0  0  0  0  0  0
   30.9110   28.4430   45.5900 C   0  0  0  0  0  0  0  0  0  0  0  0
   30.7040   29.5820   44.9090 N   0  0  0  0  0  0  0  0  0  0  0  0
   31.5280   30.6090   45.1420 C   0  0  0  0  0  0  0  0  0  0  0  0
   32.5350   30.5190   46.0270 N   0  0  0  0  0  0  0  0  0  0  0  0
   32.1200   27.4360   47.0570 H   0  0  0  0  0  0  0  0  0  0  0  0
   30.2520   27.6000   45.4140 H   0  0  0  0  0  0  0  0  0  0  0  0
   31.3320   31.8620   44.4170 C   0  0  0  0  0  0  0  0  0  0  0  0
   30.7860   31.8690   43.1470 C   0  0  0  0  0  0  0  0  0  0  0  0
   30.5260   30.8960   42.7490 H   0  0  0  0  0  0  0  0  0  0  0  0
   30.6120   33.0690   42.4850 C   0  0  0  0  0  0  0  0  0  0  0  0
   30.1760   32.9170   41.5020 H   0  0  0  0  0  0  0  0  0  0  0  0
   30.9680   34.2610   43.0580 C   0  0  0  0  0  3  0  0  0  0  0  0
   31.5060   34.2140   44.3190 C   0  0  0  0  0  3  0  0  0  0  0  0
   31.6800   33.0390   44.9760 N   0  0  0  0  0  0  0  0  0  0  0  0
  2  7  1  0  0  0  0
  2  1  1  0  0  0  0
  3  2  2  0  0  0  0
  4  5  2  0  0  0  0
  4  3  1  0  0  0  0
  5  6  1  0  0  0  0
  6  9  1  0  0  0  0
  6  7  2  0  0  0  0
  7 10  1  0  0  0  0
  8  4  1  0  0  0  0
 11 17  1  0  0  0  0
 12 18  1  0  0  0  0
 12 11  2  0  0  0  0
 13 14  2  0  0  0  0
 13 12  1  0  0  0  0
 14 15  1  0  0  0  0
 15  3  1  0  0  0  0
 15 16  2  0  0  0  0
 16 11  1  0  0  0  0
 19 13  1  0  0  0  0
 20  5  1  0  0  0  0
 21 20  1  0  0  0  0
 21 26  1  0  0  0  0
 22 21  2  0  0  0  0
 23 24  2  0  0  0  0
 23 22  1  0  0  0  0
 24 25  1  0  0  0  0
 25 20  2  0  0  0  0
 27 22  1  0  0  0  0
 28 35  1  0  0  0  0
 28 24  1  0  0  0  0
 29 28  2  0  0  0  0
 30 29  1  0  0  0  0
 31 33  2  0  0  0  0
 31 29  1  0  0  0  0
 32 31  1  0  0  0  0
 33 34  1  0  0  0  0
 34 35  2  0  0  0  0
M  END
>  <minimizedAffinity>
-6.63058424

>  <minimizedRMSD>
0.557509959

$$$$
