
 OpenBabel03272508303D

 31 33  0  0  1  0  0  0  0  0999 V2000
   36.7300   30.4270   46.8380 N   0  0  0  0  0  0  0  0  0  0  0  0
   35.8090   30.3510   45.7110 C   0  0  0  0  0  0  0  0  0  0  0  0
   36.4860   30.4540   44.3930 C   0  0  0  0  0  0  0  0  0  0  0  0
   37.8460   30.0350   44.5080 N   0  0  0  0  0  0  0  0  0  0  0  0
   38.5210   31.0650   45.2870 C   0  0  0  0  0  0  0  0  0  0  0  0
   38.1290   30.7980   46.7150 C   0  0  1  0  0  0  0  0  0  0  0  0
   35.3520   29.3230   45.7800 H   0  0  0  0  0  0  0  0  0  0  0  0
   34.9460   31.0490   45.8250 H   0  0  0  0  0  0  0  0  0  0  0  0
   35.9900   29.8250   43.6290 H   0  0  0  0  0  0  0  0  0  0  0  0
   36.4770   31.4930   44.0110 H   0  0  0  0  0  0  0  0  0  0  0  0
   37.9660   29.0970   44.9270 H   0  0  0  0  0  0  0  0  0  0  0  0
   38.2400   32.0560   44.9290 H   0  0  0  0  0  0  0  0  0  0  0  0
   39.6200   30.9610   45.2090 H   0  0  0  0  0  0  0  0  0  0  0  0
   38.7210   29.9310   47.0740 H   0  0  0  0  0  0  0  0  0  0  0  0
   37.0310   29.4360   49.0760 C   0  0  0  0  0  0  0  0  0  0  0  0
   36.2580   30.1250   48.1400 C   0  0  0  0  0  0  0  0  0  0  0  0
   34.9830   30.5150   48.5320 C   0  0  0  0  0  0  0  0  0  0  0  0
   34.5780   30.1920   49.8160 N   0  0  0  0  0  0  0  0  0  0  0  0
   35.3610   29.5300   50.6690 C   0  0  0  0  0  0  0  0  0  0  0  0
   36.6140   29.1340   50.3190 N   0  0  0  0  0  0  0  0  0  0  0  0
   38.0360   29.1140   48.8050 H   0  0  0  0  0  0  0  0  0  0  0  0
   34.3120   31.0500   47.8840 H   0  0  0  0  0  0  0  0  0  0  0  0
   34.9740   29.3150   51.6520 H   0  0  0  0  0  0  0  0  0  0  0  0
   38.4590   31.9570   47.5940 C   0  0  0  0  0  0  0  0  0  0  0  0
   39.4700   32.8510   47.3160 C   0  0  0  0  0  0  0  0  0  0  0  0
   40.0600   32.7170   46.4210 H   0  0  0  0  0  0  0  0  0  0  0  0
   39.7680   33.9140   48.1250 C   0  0  0  0  0  0  0  0  0  0  0  0
   40.5730   34.6250   47.9030 H   0  0  0  0  0  0  0  0  0  0  0  0
   39.0480   34.1340   49.2820 C   0  0  0  0  0  0  0  0  0  0  0  0
   38.0400   33.2280   49.5410 C   0  0  0  0  0  0  0  0  0  0  0  0
   37.7680   32.1890   48.7250 N   0  0  0  0  0  0  0  0  0  0  0  0
  1 16  1  0  0  0  0
  2  7  1  0  0  0  0
  2  8  1  0  0  0  0
  2  1  1  0  0  0  0
  3  4  1  0  0  0  0
  3  2  1  0  0  0  0
  4 11  1  0  0  0  0
  4  5  1  0  0  0  0
  5  6  1  0  0  0  0
  6  1  1  0  0  0  0
  6 14  1  1  0  0  0
  6 24  1  0  0  0  0
  9  3  1  0  0  0  0
 10  3  1  0  0  0  0
 12  5  1  0  0  0  0
 13  5  1  0  0  0  0
 15 20  1  0  0  0  0
 16 17  1  0  0  0  0
 16 15  2  0  0  0  0
 17 18  2  0  0  0  0
 18 19  1  0  0  0  0
 19 23  1  0  0  0  0
 20 19  2  0  0  0  0
 21 15  1  0  0  0  0
 22 17  1  0  0  0  0
 24 31  1  0  0  0  0
 25 24  2  0  0  0  0
 25 27  1  0  0  0  0
 26 25  1  0  0  0  0
 27 29  2  0  0  0  0
 28 27  1  0  0  0  0
 29 30  1  0  0  0  0
 31 30  2  0  0  0  0
M  END
>  <minimizedAffinity>
-4.86771297

>  <minimizedRMSD>
2.55556417

$$$$
