
 OpenBabel03272510203D

 35 38  0  0  0  0  0  0  0  0999 V2000
   37.4130   29.1620   50.8040 Br  0  0  0  0  0  0  0  0  0  0  0  0
   35.9980   29.2770   49.5240 C   0  0  0  0  0  0  0  0  0  0  0  0
   35.9920   30.2780   48.5620 C   0  0  0  0  0  0  0  0  0  0  0  0
   34.9420   30.2980   47.6740 C   0  0  0  0  0  0  0  0  0  0  0  0
   33.9070   29.3810   47.6970 C   0  0  0  0  0  0  0  0  0  0  0  0
   33.9480   28.4160   48.6540 C   0  0  0  0  0  0  0  0  0  0  0  0
   34.9870   28.3700   49.5580 C   0  0  0  0  0  0  0  0  0  0  0  0
   34.8830   31.0610   46.8960 H   0  0  0  0  0  0  0  0  0  0  0  0
   33.1770   27.6440   48.7570 H   0  0  0  0  0  0  0  0  0  0  0  0
   35.0090   27.5910   50.3200 H   0  0  0  0  0  0  0  0  0  0  0  0
   38.0130   33.1830   49.4630 C   0  0  0  0  0  0  0  0  0  0  0  0
   39.0390   33.1810   48.4730 C   0  0  0  0  0  0  0  0  0  0  0  0
   39.0140   32.1870   47.5230 C   0  0  0  0  0  0  0  0  0  0  0  0
   38.0170   31.2420   47.5570 N   0  0  0  0  0  0  0  0  0  0  0  0
   37.0640   31.2670   48.5000 C   0  0  0  0  0  0  0  0  0  0  0  0
   37.0730   32.2380   49.4430 N   0  0  0  0  0  0  0  0  0  0  0  0
   38.0140   33.9560   50.2190 H   0  0  0  0  0  0  0  0  0  0  0  0
   39.8060   33.9490   48.4880 H   0  0  0  0  0  0  0  0  0  0  0  0
   39.7670   32.1340   46.7460 H   0  0  0  0  0  0  0  0  0  0  0  0
   32.8010   29.4020   46.7640 C   0  0  0  0  0  0  0  0  0  0  0  0
   31.9670   28.3380   46.5020 C   0  0  0  0  0  0  0  0  0  0  0  0
   30.9170   28.4110   45.5930 C   0  0  0  0  0  0  0  0  0  0  0  0
   30.6880   29.5560   44.9300 N   0  0  0  0  0  0  0  0  0  0  0  0
   31.4940   30.5950   45.1780 C   0  0  0  0  0  0  0  0  0  0  0  0
   32.5050   30.5080   46.0600 N   0  0  0  0  0  0  0  0  0  0  0  0
   32.1470   27.4010   47.0400 H   0  0  0  0  0  0  0  0  0  0  0  0
   30.2720   27.5590   45.4050 H   0  0  0  0  0  0  0  0  0  0  0  0
   31.2750   31.8550   44.4750 C   0  0  0  0  0  0  0  0  0  0  0  0
   30.5890   31.8860   43.2740 C   0  0  0  0  0  0  0  0  0  0  0  0
   30.2420   30.9270   42.9140 H   0  0  0  0  0  0  0  0  0  0  0  0
   30.3940   33.0930   42.6300 C   0  0  0  0  0  0  0  0  0  0  0  0
   29.8430   32.9610   41.7030 H   0  0  0  0  0  0  0  0  0  0  0  0
   30.8670   34.2680   43.1520 C   0  0  0  0  0  3  0  0  0  0  0  0
   31.5410   34.1960   44.3440 C   0  0  0  0  0  3  0  0  0  0  0  0
   31.7360   33.0150   44.9840 N   0  0  0  0  0  0  0  0  0  0  0  0
  2  7  1  0  0  0  0
  2  1  1  0  0  0  0
  3  2  2  0  0  0  0
  4  5  2  0  0  0  0
  4  3  1  0  0  0  0
  5  6  1  0  0  0  0
  6  9  1  0  0  0  0
  6  7  2  0  0  0  0
  7 10  1  0  0  0  0
  8  4  1  0  0  0  0
 11 17  1  0  0  0  0
 12 18  1  0  0  0  0
 12 11  2  0  0  0  0
 13 14  2  0  0  0  0
 13 12  1  0  0  0  0
 14 15  1  0  0  0  0
 15  3  1  0  0  0  0
 15 16  2  0  0  0  0
 16 11  1  0  0  0  0
 19 13  1  0  0  0  0
 20  5  1  0  0  0  0
 21 20  1  0  0  0  0
 21 26  1  0  0  0  0
 22 21  2  0  0  0  0
 23 24  2  0  0  0  0
 23 22  1  0  0  0  0
 24 25  1  0  0  0  0
 25 20  2  0  0  0  0
 27 22  1  0  0  0  0
 28 35  1  0  0  0  0
 28 24  1  0  0  0  0
 29 28  2  0  0  0  0
 30 29  1  0  0  0  0
 31 33  2  0  0  0  0
 31 29  1  0  0  0  0
 32 31  1  0  0  0  0
 33 34  1  0  0  0  0
 34 35  2  0  0  0  0
M  END
>  <minimizedAffinity>
-6.64413309

>  <minimizedRMSD>
0.320605099

$$$$
