
 OpenBabel03272510203D

 35 38  0  0  0  0  0  0  0  0999 V2000
   37.4110   29.1630   50.8060 Br  0  0  0  0  0  0  0  0  0  0  0  0
   35.9960   29.2780   49.5250 C   0  0  0  0  0  0  0  0  0  0  0  0
   35.9910   30.2780   48.5630 C   0  0  0  0  0  0  0  0  0  0  0  0
   34.9420   30.2980   47.6740 C   0  0  0  0  0  0  0  0  0  0  0  0
   33.9060   29.3810   47.6970 C   0  0  0  0  0  0  0  0  0  0  0  0
   33.9460   28.4170   48.6540 C   0  0  0  0  0  0  0  0  0  0  0  0
   34.9850   28.3710   49.5580 C   0  0  0  0  0  0  0  0  0  0  0  0
   34.8830   31.0600   46.8950 H   0  0  0  0  0  0  0  0  0  0  0  0
   33.1760   27.6440   48.7570 H   0  0  0  0  0  0  0  0  0  0  0  0
   35.0070   27.5930   50.3210 H   0  0  0  0  0  0  0  0  0  0  0  0
   38.0120   33.1820   49.4630 C   0  0  0  0  0  0  0  0  0  0  0  0
   39.0390   33.1800   48.4730 C   0  0  0  0  0  0  0  0  0  0  0  0
   39.0140   32.1860   47.5230 C   0  0  0  0  0  0  0  0  0  0  0  0
   38.0170   31.2410   47.5570 N   0  0  0  0  0  0  0  0  0  0  0  0
   37.0640   31.2670   48.5000 C   0  0  0  0  0  0  0  0  0  0  0  0
   37.0720   32.2380   49.4430 N   0  0  0  0  0  0  0  0  0  0  0  0
   38.0140   33.9560   50.2190 H   0  0  0  0  0  0  0  0  0  0  0  0
   39.8060   33.9480   48.4880 H   0  0  0  0  0  0  0  0  0  0  0  0
   39.7670   32.1330   46.7470 H   0  0  0  0  0  0  0  0  0  0  0  0
   32.8010   29.4020   46.7620 C   0  0  0  0  0  0  0  0  0  0  0  0
   31.9680   28.3370   46.5000 C   0  0  0  0  0  0  0  0  0  0  0  0
   30.9190   28.4090   45.5900 C   0  0  0  0  0  0  0  0  0  0  0  0
   30.6890   29.5550   44.9280 N   0  0  0  0  0  0  0  0  0  0  0  0
   31.4940   30.5940   45.1770 C   0  0  0  0  0  0  0  0  0  0  0  0
   32.5050   30.5080   46.0590 N   0  0  0  0  0  0  0  0  0  0  0  0
   32.1490   27.4000   47.0370 H   0  0  0  0  0  0  0  0  0  0  0  0
   30.2750   27.5570   45.4010 H   0  0  0  0  0  0  0  0  0  0  0  0
   31.2740   31.8540   44.4740 C   0  0  0  0  0  0  0  0  0  0  0  0
   30.5870   31.8860   43.2750 C   0  0  0  0  0  0  0  0  0  0  0  0
   30.2390   30.9270   42.9140 H   0  0  0  0  0  0  0  0  0  0  0  0
   30.3920   33.0940   42.6310 C   0  0  0  0  0  0  0  0  0  0  0  0
   29.8400   32.9620   41.7060 H   0  0  0  0  0  0  0  0  0  0  0  0
   30.8650   34.2680   43.1530 C   0  0  0  0  0  3  0  0  0  0  0  0
   31.5420   34.1960   44.3450 C   0  0  0  0  0  3  0  0  0  0  0  0
   31.7370   33.0150   44.9830 N   0  0  0  0  0  0  0  0  0  0  0  0
  2  7  1  0  0  0  0
  2  1  1  0  0  0  0
  3  2  2  0  0  0  0
  4  5  2  0  0  0  0
  4  3  1  0  0  0  0
  5  6  1  0  0  0  0
  6  9  1  0  0  0  0
  6  7  2  0  0  0  0
  7 10  1  0  0  0  0
  8  4  1  0  0  0  0
 11 17  1  0  0  0  0
 12 18  1  0  0  0  0
 12 11  2  0  0  0  0
 13 14  2  0  0  0  0
 13 12  1  0  0  0  0
 14 15  1  0  0  0  0
 15  3  1  0  0  0  0
 15 16  2  0  0  0  0
 16 11  1  0  0  0  0
 19 13  1  0  0  0  0
 20  5  1  0  0  0  0
 21 20  1  0  0  0  0
 21 26  1  0  0  0  0
 22 21  2  0  0  0  0
 23 24  2  0  0  0  0
 23 22  1  0  0  0  0
 24 25  1  0  0  0  0
 25 20  2  0  0  0  0
 27 22  1  0  0  0  0
 28 35  1  0  0  0  0
 28 24  1  0  0  0  0
 29 28  2  0  0  0  0
 30 29  1  0  0  0  0
 31 33  2  0  0  0  0
 31 29  1  0  0  0  0
 32 31  1  0  0  0  0
 33 34  1  0  0  0  0
 34 35  2  0  0  0  0
M  END
>  <minimizedAffinity>
-6.6445961

>  <minimizedRMSD>
0.402690917

$$$$
