
 OpenBabel03272510203D

 35 38  0  0  0  0  0  0  0  0999 V2000
   37.4120   29.1620   50.8030 Br  0  0  0  0  0  0  0  0  0  0  0  0
   35.9970   29.2780   49.5230 C   0  0  0  0  0  0  0  0  0  0  0  0
   35.9920   30.2780   48.5620 C   0  0  0  0  0  0  0  0  0  0  0  0
   34.9420   30.2990   47.6730 C   0  0  0  0  0  0  0  0  0  0  0  0
   33.9070   29.3810   47.6960 C   0  0  0  0  0  0  0  0  0  0  0  0
   33.9470   28.4170   48.6530 C   0  0  0  0  0  0  0  0  0  0  0  0
   34.9870   28.3700   49.5570 C   0  0  0  0  0  0  0  0  0  0  0  0
   34.8830   31.0610   46.8960 H   0  0  0  0  0  0  0  0  0  0  0  0
   33.1770   27.6440   48.7550 H   0  0  0  0  0  0  0  0  0  0  0  0
   35.0090   27.5910   50.3190 H   0  0  0  0  0  0  0  0  0  0  0  0
   38.0130   33.1820   49.4640 C   0  0  0  0  0  0  0  0  0  0  0  0
   39.0390   33.1810   48.4730 C   0  0  0  0  0  0  0  0  0  0  0  0
   39.0130   32.1880   47.5220 C   0  0  0  0  0  0  0  0  0  0  0  0
   38.0160   31.2430   47.5560 N   0  0  0  0  0  0  0  0  0  0  0  0
   37.0640   31.2670   48.5000 C   0  0  0  0  0  0  0  0  0  0  0  0
   37.0730   32.2370   49.4440 N   0  0  0  0  0  0  0  0  0  0  0  0
   38.0160   33.9540   50.2210 H   0  0  0  0  0  0  0  0  0  0  0  0
   39.8060   33.9490   48.4890 H   0  0  0  0  0  0  0  0  0  0  0  0
   39.7650   32.1360   46.7440 H   0  0  0  0  0  0  0  0  0  0  0  0
   32.8010   29.4030   46.7620 C   0  0  0  0  0  0  0  0  0  0  0  0
   31.9670   28.3380   46.5010 C   0  0  0  0  0  0  0  0  0  0  0  0
   30.9170   28.4110   45.5910 C   0  0  0  0  0  0  0  0  0  0  0  0
   30.6880   29.5570   44.9290 N   0  0  0  0  0  0  0  0  0  0  0  0
   31.4940   30.5950   45.1770 C   0  0  0  0  0  0  0  0  0  0  0  0
   32.5050   30.5090   46.0590 N   0  0  0  0  0  0  0  0  0  0  0  0
   32.1480   27.4010   47.0380 H   0  0  0  0  0  0  0  0  0  0  0  0
   30.2730   27.5590   45.4030 H   0  0  0  0  0  0  0  0  0  0  0  0
   31.2750   31.8560   44.4740 C   0  0  0  0  0  0  0  0  0  0  0  0
   30.5890   31.8870   43.2730 C   0  0  0  0  0  0  0  0  0  0  0  0
   30.2420   30.9270   42.9130 H   0  0  0  0  0  0  0  0  0  0  0  0
   30.3950   33.0940   42.6290 C   0  0  0  0  0  0  0  0  0  0  0  0
   29.8430   32.9620   41.7030 H   0  0  0  0  0  0  0  0  0  0  0  0
   30.8650   34.2680   43.1510 C   0  0  0  0  0  3  0  0  0  0  0  0
   31.5410   34.1970   44.3440 C   0  0  0  0  0  3  0  0  0  0  0  0
   31.7360   33.0160   44.9840 N   0  0  0  0  0  0  0  0  0  0  0  0
  2  7  1  0  0  0  0
  2  1  1  0  0  0  0
  3  2  2  0  0  0  0
  4  5  2  0  0  0  0
  4  3  1  0  0  0  0
  5  6  1  0  0  0  0
  6  9  1  0  0  0  0
  6  7  2  0  0  0  0
  7 10  1  0  0  0  0
  8  4  1  0  0  0  0
 11 17  1  0  0  0  0
 12 18  1  0  0  0  0
 12 11  2  0  0  0  0
 13 14  2  0  0  0  0
 13 12  1  0  0  0  0
 14 15  1  0  0  0  0
 15  3  1  0  0  0  0
 15 16  2  0  0  0  0
 16 11  1  0  0  0  0
 19 13  1  0  0  0  0
 20  5  1  0  0  0  0
 21 20  1  0  0  0  0
 21 26  1  0  0  0  0
 22 21  2  0  0  0  0
 23 24  2  0  0  0  0
 23 22  1  0  0  0  0
 24 25  1  0  0  0  0
 25 20  2  0  0  0  0
 27 22  1  0  0  0  0
 28 35  1  0  0  0  0
 28 24  1  0  0  0  0
 29 28  2  0  0  0  0
 30 29  1  0  0  0  0
 31 33  2  0  0  0  0
 31 29  1  0  0  0  0
 32 31  1  0  0  0  0
 33 34  1  0  0  0  0
 34 35  2  0  0  0  0
M  END
>  <minimizedAffinity>
-6.64523745

>  <minimizedRMSD>
0.401500583

$$$$
