
 OpenBabel03272508553D

 37 40  0  0  1  0  0  0  0  0999 V2000
   36.9880   26.8150   33.0000 C   0  0  0  0  0  0  0  0  0  0  0  0
   37.1170   26.2510   34.1280 O   0  0  0  0  0  0  0  0  0  0  0  0
   37.2830   26.1090   31.7890 N   0  0  0  0  0  0  0  0  0  0  0  0
   37.3560   26.5690   30.8550 H   0  0  0  0  0  0  0  0  0  0  0  0
   36.5320   28.2140   32.9150 C   0  0  0  0  0  0  0  0  0  0  0  0
   36.7500   28.8920   31.7470 C   0  0  0  0  0  0  0  0  0  0  0  0
   36.3200   30.2020   31.6610 C   0  0  0  0  0  0  0  0  0  0  0  0
   35.6920   30.7540   32.7600 C   0  0  0  0  0  0  0  0  0  0  0  0
   35.4650   30.0670   33.9580 C   0  0  0  0  0  0  0  0  0  0  0  0
   35.9130   28.8030   33.9570 N   0  0  0  0  0  0  0  0  0  0  0  0
   37.2380   28.4960   30.8640 H   0  0  0  0  0  0  0  0  0  0  0  0
   36.4540   30.8060   30.7750 H   0  0  0  0  0  0  0  0  0  0  0  0
   35.3530   31.7850   32.6920 H   0  0  0  0  0  0  0  0  0  0  0  0
   34.7990   30.6860   35.0920 C   0  0  0  0  0  0  0  0  0  0  0  0
   35.5400   31.5590   35.8490 C   0  0  0  0  0  0  0  0  0  0  0  0
   36.5810   31.8060   35.6480 H   0  0  0  0  0  0  0  0  0  0  0  0
   34.9230   32.1560   36.9300 C   0  0  0  0  0  0  0  0  0  0  0  0
   35.3930   32.8590   37.6050 H   0  0  0  0  0  0  0  0  0  0  0  0
   33.6050   31.8140   37.1470 C   0  0  0  0  0  3  0  0  0  0  0  0
   32.8470   30.9250   36.3770 C   0  0  0  0  0  3  0  0  0  0  0  0
   33.5210   30.3760   35.3300 N   0  0  0  0  0  0  0  0  0  0  0  0
   36.5140   23.7940   31.3020 C   0  0  2  0  0  0  0  0  0  0  0  0
   37.7530   23.9880   30.5320 C   0  0  0  0  0  0  0  0  0  0  0  0
   37.4910   24.6730   31.8960 C   0  0  1  0  0  0  0  0  0  0  0  0
   35.6110   24.2180   30.7820 H   0  0  0  0  0  0  0  0  0  0  0  0
   38.4460   23.1220   30.5420 H   0  0  0  0  0  0  0  0  0  0  0  0
   37.7890   24.6240   29.6470 H   0  0  0  0  0  0  0  0  0  0  0  0
   38.1740   24.3150   32.6980 H   0  0  0  0  0  0  0  0  0  0  0  0
   36.5130   21.0190   33.7350 C   0  0  0  0  0  0  0  0  0  0  0  0
   35.5440   20.1230   33.1790 C   0  0  0  0  0  0  0  0  0  0  0  0
   34.9130   20.5210   31.9430 C   0  0  0  0  0  0  0  0  0  0  0  0
   35.2600   21.6990   31.3760 N   0  0  0  0  0  0  0  0  0  0  0  0
   36.1850   22.5020   31.9540 C   0  0  0  0  0  0  0  0  0  0  0  0
   36.8290   22.1870   33.1340 N   0  0  0  0  0  0  0  0  0  0  0  0
   36.9460   20.6710   34.6520 H   0  0  0  0  0  0  0  0  0  0  0  0
   35.3080   19.2030   33.6710 H   0  0  0  0  0  0  0  0  0  0  0  0
   34.1870   19.8510   31.5250 H   0  0  0  0  0  0  0  0  0  0  0  0
  1  2  2  0  0  0  0
  3 24  1  0  0  0  0
  3  1  1  0  0  0  0
  4  3  1  0  0  0  0
  5  1  1  0  0  0  0
  5 10  1  0  0  0  0
  6  5  2  0  0  0  0
  7  6  1  0  0  0  0
  7  8  2  0  0  0  0
  8  9  1  0  0  0  0
  9 14  1  0  0  0  0
 10  9  2  0  0  0  0
 11  6  1  0  0  0  0
 12  7  1  0  0  0  0
 13  8  1  0  0  0  0
 14 21  2  0  0  0  0
 14 15  1  0  0  0  0
 15 17  2  0  0  0  0
 16 15  1  0  0  0  0
 17 19  1  0  0  0  0
 17 18  1  0  0  0  0
 20 19  2  0  0  0  0
 21 20  1  0  0  0  0
 22 25  1  6  0  0  0
 22 24  1  0  0  0  0
 22 33  1  0  0  0  0
 23 26  1  0  0  0  0
 23 22  1  0  0  0  0
 23 24  1  0  0  0  0
 24 28  1  1  0  0  0
 27 23  1  0  0  0  0
 29 35  1  0  0  0  0
 30 36  1  0  0  0  0
 30 29  1  0  0  0  0
 31 30  2  0  0  0  0
 32 31  1  0  0  0  0
 32 33  2  0  0  0  0
 33 34  1  0  0  0  0
 34 29  2  0  0  0  0
 37 31  1  0  0  0  0
M  END
>  <minimizedAffinity>
-5.94959116

$$$$

 OpenBabel03272508553D

 37 40  0  0  1  0  0  0  0  0999 V2000
   37.2130   26.0610   33.6030 C   0  0  0  0  0  0  0  0  0  0  0  0
   37.3650   25.1820   32.7030 O   0  0  0  0  0  0  0  0  0  0  0  0
   37.4550   25.7490   34.9800 N   0  0  0  0  0  0  0  0  0  0  0  0
   37.1880   26.3760   35.7710 H   0  0  0  0  0  0  0  0  0  0  0  0
   36.7820   27.4250   33.2480 C   0  0  0  0  0  0  0  0  0  0  0  0
   37.0110   27.8610   31.9710 C   0  0  0  0  0  0  0  0  0  0  0  0
   36.6050   29.1360   31.6330 C   0  0  0  0  0  0  0  0  0  0  0  0
   35.9870   29.9020   32.6030 C   0  0  0  0  0  0  0  0  0  0  0  0
   35.7490   29.4630   33.9100 C   0  0  0  0  0  0  0  0  0  0  0  0
   36.1750   28.2150   34.1550 N   0  0  0  0  0  0  0  0  0  0  0  0
   37.4910   27.2930   31.1830 H   0  0  0  0  0  0  0  0  0  0  0  0
   36.7480   29.5550   30.6480 H   0  0  0  0  0  0  0  0  0  0  0  0
   35.6670   30.9060   32.3370 H   0  0  0  0  0  0  0  0  0  0  0  0
   35.0950   30.3010   34.9020 C   0  0  0  0  0  0  0  0  0  0  0  0
   35.8900   31.1770   35.5980 C   0  0  0  0  0  0  0  0  0  0  0  0
   36.9650   31.2740   35.4490 H   0  0  0  0  0  0  0  0  0  0  0  0
   35.2860   31.9810   36.5430 C   0  0  0  0  0  0  0  0  0  0  0  0
   35.7960   32.7110   37.1590 H   0  0  0  0  0  0  0  0  0  0  0  0
   33.9240   31.8240   36.6990 C   0  0  0  0  0  3  0  0  0  0  0  0
   33.1120   30.9330   35.9900 C   0  0  0  0  0  3  0  0  0  0  0  0
   33.7770   30.1740   35.0770 N   0  0  0  0  0  0  0  0  0  0  0  0
   38.9450   24.3890   36.4360 C   0  0  2  0  0  0  0  0  0  0  0  0
   37.6000   23.8050   36.5610 C   0  0  0  0  0  0  0  0  0  0  0  0
   38.1100   24.4800   35.2640 C   0  0  1  0  0  0  0  0  0  0  0  0
   39.0910   25.2850   37.1000 H   0  0  0  0  0  0  0  0  0  0  0  0
   37.5740   22.6950   36.5590 H   0  0  0  0  0  0  0  0  0  0  0  0
   36.8030   24.3060   37.1110 H   0  0  0  0  0  0  0  0  0  0  0  0
   38.2230   23.7650   34.4190 H   0  0  0  0  0  0  0  0  0  0  0  0
   41.3590   21.7210   37.2600 C   0  0  0  0  0  0  0  0  0  0  0  0
   42.4220   21.9720   36.3330 C   0  0  0  0  0  0  0  0  0  0  0  0
   42.2630   23.0920   35.4360 C   0  0  0  0  0  0  0  0  0  0  0  0
   41.1390   23.8410   35.5100 N   0  0  0  0  0  0  0  0  0  0  0  0
   40.1690   23.5490   36.4110 C   0  0  0  0  0  0  0  0  0  0  0  0
   40.2530   22.4950   37.2990 N   0  0  0  0  0  0  0  0  0  0  0  0
   41.5340   20.8780   37.8970 H   0  0  0  0  0  0  0  0  0  0  0  0
   43.2900   21.3470   36.3190 H   0  0  0  0  0  0  0  0  0  0  0  0
   43.0590   23.2810   34.7420 H   0  0  0  0  0  0  0  0  0  0  0  0
  1  3  1  0  0  0  0
  2  1  2  0  0  0  0
  3 24  1  0  0  0  0
  3  4  1  0  0  0  0
  5  1  1  0  0  0  0
  5 10  1  0  0  0  0
  6  5  2  0  0  0  0
  7  6  1  0  0  0  0
  7  8  2  0  0  0  0
  8  9  1  0  0  0  0
  9 10  2  0  0  0  0
  9 14  1  0  0  0  0
 11  6  1  0  0  0  0
 12  7  1  0  0  0  0
 13  8  1  0  0  0  0
 14 21  2  0  0  0  0
 14 15  1  0  0  0  0
 15 17  2  0  0  0  0
 16 15  1  0  0  0  0
 17 19  1  0  0  0  0
 17 18  1  0  0  0  0
 20 19  2  0  0  0  0
 21 20  1  0  0  0  0
 22 23  1  0  0  0  0
 22 25  1  1  0  0  0
 23 27  1  0  0  0  0
 24 28  1  6  0  0  0
 24 22  1  0  0  0  0
 24 23  1  0  0  0  0
 26 23  1  0  0  0  0
 29 34  1  0  0  0  0
 29 35  1  0  0  0  0
 30 29  2  0  0  0  0
 31 32  2  0  0  0  0
 31 30  1  0  0  0  0
 32 33  1  0  0  0  0
 33 22  1  0  0  0  0
 33 34  2  0  0  0  0
 36 30  1  0  0  0  0
 37 31  1  0  0  0  0
M  END
>  <minimizedAffinity>
-5.72699213

$$$$

 OpenBabel03272508553D

 37 40  0  0  1  0  0  0  0  0999 V2000
   36.6690   27.1380   32.7650 C   0  0  0  0  0  0  0  0  0  0  0  0
   36.1100   27.2660   31.6350 O   0  0  0  0  0  0  0  0  0  0  0  0
   36.5510   28.1600   33.7620 N   0  0  0  0  0  0  0  0  0  0  0  0
   37.1200   28.1840   34.6360 H   0  0  0  0  0  0  0  0  0  0  0  0
   37.4540   25.9300   33.0750 C   0  0  0  0  0  0  0  0  0  0  0  0
   37.9740   25.2140   32.0310 C   0  0  0  0  0  0  0  0  0  0  0  0
   38.7140   24.0840   32.3170 C   0  0  0  0  0  0  0  0  0  0  0  0
   38.8900   23.7390   33.6420 C   0  0  0  0  0  0  0  0  0  0  0  0
   38.3620   24.4650   34.7150 C   0  0  0  0  0  0  0  0  0  0  0  0
   37.6580   25.5460   34.3510 N   0  0  0  0  0  0  0  0  0  0  0  0
   37.8580   25.4510   30.9790 H   0  0  0  0  0  0  0  0  0  0  0  0
   39.1580   23.4650   31.5500 H   0  0  0  0  0  0  0  0  0  0  0  0
   39.4730   22.8490   33.8670 H   0  0  0  0  0  0  0  0  0  0  0  0
   38.5720   24.0680   36.0980 C   0  0  0  0  0  0  0  0  0  0  0  0
   39.6180   23.2170   36.3490 C   0  0  0  0  0  0  0  0  0  0  0  0
   40.2870   22.8300   35.5810 H   0  0  0  0  0  0  0  0  0  0  0  0
   39.8330   22.8290   37.6570 C   0  0  0  0  0  0  0  0  0  0  0  0
   40.6190   22.1640   37.9890 H   0  0  0  0  0  0  0  0  0  0  0  0
   38.9620   23.3420   38.5960 C   0  0  0  0  0  3  0  0  0  0  0  0
   37.8950   24.2100   38.3430 C   0  0  0  0  0  3  0  0  0  0  0  0
   37.7470   24.5470   37.0330 N   0  0  0  0  0  0  0  0  0  0  0  0
   34.4610   29.3380   34.4210 C   0  0  2  0  0  0  0  0  0  0  0  0
   35.5570   30.3000   34.6190 C   0  0  0  0  0  0  0  0  0  0  0  0
   35.5770   29.2120   33.5150 C   0  0  1  0  0  0  0  0  0  0  0  0
   34.3490   28.6270   35.2850 H   0  0  0  0  0  0  0  0  0  0  0  0
   35.3330   31.3340   34.2840 H   0  0  0  0  0  0  0  0  0  0  0  0
   36.2710   30.2010   35.4370 H   0  0  0  0  0  0  0  0  0  0  0  0
   35.5350   29.6380   32.4880 H   0  0  0  0  0  0  0  0  0  0  0  0
   31.8780   30.8810   32.2840 C   0  0  0  0  0  0  0  0  0  0  0  0
   30.6640   30.4850   32.9340 C   0  0  0  0  0  0  0  0  0  0  0  0
   30.7890   29.6810   34.1270 C   0  0  0  0  0  0  0  0  0  0  0  0
   32.0230   29.3450   34.5690 N   0  0  0  0  0  0  0  0  0  0  0  0
   33.1320   29.7530   33.9070 C   0  0  0  0  0  0  0  0  0  0  0  0
   33.0890   30.5220   32.7610 N   0  0  0  0  0  0  0  0  0  0  0  0
   31.7210   31.4740   31.4050 H   0  0  0  0  0  0  0  0  0  0  0  0
   29.7150   30.7800   32.5410 H   0  0  0  0  0  0  0  0  0  0  0  0
   29.8810   29.3840   34.6150 H   0  0  0  0  0  0  0  0  0  0  0  0
  1  5  1  0  0  0  0
  1  3  1  0  0  0  0
  2  1  2  0  0  0  0
  3  4  1  0  0  0  0
  5 10  1  0  0  0  0
  6  7  1  0  0  0  0
  6  5  2  0  0  0  0
  7  8  2  0  0  0  0
  8 13  1  0  0  0  0
  8  9  1  0  0  0  0
  9 14  1  0  0  0  0
 10  9  2  0  0  0  0
 11  6  1  0  0  0  0
 12  7  1  0  0  0  0
 14 15  2  0  0  0  0
 14 21  1  0  0  0  0
 15 17  1  0  0  0  0
 16 15  1  0  0  0  0
 17 18  1  0  0  0  0
 17 19  2  0  0  0  0
 20 19  1  0  0  0  0
 21 20  2  0  0  0  0
 22 23  1  0  0  0  0
 22 25  1  1  0  0  0
 23 27  1  0  0  0  0
 24 28  1  6  0  0  0
 24  3  1  0  0  0  0
 24 22  1  0  0  0  0
 24 23  1  0  0  0  0
 26 23  1  0  0  0  0
 29 34  2  0  0  0  0
 29 30  1  0  0  0  0
 30 31  2  0  0  0  0
 31 32  1  0  0  0  0
 31 37  1  0  0  0  0
 33 22  1  0  0  0  0
 33 32  2  0  0  0  0
 34 33  1  0  0  0  0
 35 29  1  0  0  0  0
 36 30  1  0  0  0  0
M  END
>  <minimizedAffinity>
-5.57302761

$$$$

 OpenBabel03272508553D

 37 40  0  0  1  0  0  0  0  0999 V2000
   37.7760   25.0740   35.0390 C   0  0  0  0  0  0  0  0  0  0  0  0
   37.1510   26.1520   35.2720 O   0  0  0  0  0  0  0  0  0  0  0  0
   37.8440   24.5380   33.7120 N   0  0  0  0  0  0  0  0  0  0  0  0
   38.1960   23.5800   33.4930 H   0  0  0  0  0  0  0  0  0  0  0  0
   38.4440   24.3490   36.1350 C   0  0  0  0  0  0  0  0  0  0  0  0
   37.8150   24.2960   37.3490 C   0  0  0  0  0  0  0  0  0  0  0  0
   38.4350   23.6130   38.3770 C   0  0  0  0  0  0  0  0  0  0  0  0
   39.6560   23.0210   38.1220 C   0  0  0  0  0  0  0  0  0  0  0  0
   40.3050   23.0710   36.8830 C   0  0  0  0  0  0  0  0  0  0  0  0
   39.6360   23.7520   35.9420 N   0  0  0  0  0  0  0  0  0  0  0  0
   36.8590   24.7470   37.5890 H   0  0  0  0  0  0  0  0  0  0  0  0
   38.0060   23.5250   39.3650 H   0  0  0  0  0  0  0  0  0  0  0  0
   40.1450   22.4830   38.9310 H   0  0  0  0  0  0  0  0  0  0  0  0
   41.5910   22.4320   36.6550 C   0  0  0  0  0  0  0  0  0  0  0  0
   42.6180   23.2360   36.2270 C   0  0  0  0  0  0  0  0  0  0  0  0
   42.5210   24.3060   36.0510 H   0  0  0  0  0  0  0  0  0  0  0  0
   43.8470   22.6470   36.0070 C   0  0  0  0  0  0  0  0  0  0  0  0
   44.7350   23.1650   35.6690 H   0  0  0  0  0  0  0  0  0  0  0  0
   43.9250   21.2900   36.2410 C   0  0  0  0  0  3  0  0  0  0  0  0
   42.8800   20.4690   36.6790 C   0  0  0  0  0  3  0  0  0  0  0  0
   41.7010   21.1190   36.8740 N   0  0  0  0  0  0  0  0  0  0  0  0
   38.2800   26.4290   32.1550 C   0  0  2  0  0  0  0  0  0  0  0  0
   38.2020   25.2170   31.3220 C   0  0  0  0  0  0  0  0  0  0  0  0
   37.3900   25.3970   32.6300 C   0  0  1  0  0  0  0  0  0  0  0  0
   39.2920   26.5650   32.6260 H   0  0  0  0  0  0  0  0  0  0  0  0
   37.6400   25.3420   30.3740 H   0  0  0  0  0  0  0  0  0  0  0  0
   38.9940   24.4680   31.3200 H   0  0  0  0  0  0  0  0  0  0  0  0
   36.2930   25.4580   32.4520 H   0  0  0  0  0  0  0  0  0  0  0  0
   37.6820   29.4320   30.0960 C   0  0  0  0  0  0  0  0  0  0  0  0
   36.6820   30.1280   30.8500 C   0  0  0  0  0  0  0  0  0  0  0  0
   36.2450   29.5180   32.0830 C   0  0  0  0  0  0  0  0  0  0  0  0
   36.7890   28.3390   32.4640 N   0  0  0  0  0  0  0  0  0  0  0  0
   37.7310   27.7320   31.7040 C   0  0  0  0  0  0  0  0  0  0  0  0
   38.1970   28.2560   30.5140 N   0  0  0  0  0  0  0  0  0  0  0  0
   37.9650   29.9330   29.1910 H   0  0  0  0  0  0  0  0  0  0  0  0
   36.2870   31.0590   30.5010 H   0  0  0  0  0  0  0  0  0  0  0  0
   35.4970   30.0380   32.6490 H   0  0  0  0  0  0  0  0  0  0  0  0
  1  2  2  0  0  0  0
  1  5  1  0  0  0  0
  3  1  1  0  0  0  0
  4  3  1  0  0  0  0
  5  6  1  0  0  0  0
  6 11  1  0  0  0  0
  6  7  2  0  0  0  0
  7 12  1  0  0  0  0
  8  7  1  0  0  0  0
  8 13  1  0  0  0  0
  9  8  2  0  0  0  0
 10  5  2  0  0  0  0
 10  9  1  0  0  0  0
 14 21  1  0  0  0  0
 14  9  1  0  0  0  0
 15 14  2  0  0  0  0
 16 15  1  0  0  0  0
 17 15  1  0  0  0  0
 17 19  2  0  0  0  0
 18 17  1  0  0  0  0
 19 20  1  0  0  0  0
 20 21  2  0  0  0  0
 22 25  1  1  0  0  0
 22 24  1  0  0  0  0
 23 22  1  0  0  0  0
 23 24  1  0  0  0  0
 24 28  1  6  0  0  0
 24  3  1  0  0  0  0
 26 23  1  0  0  0  0
 27 23  1  0  0  0  0
 29 34  2  0  0  0  0
 29 30  1  0  0  0  0
 30 31  2  0  0  0  0
 31 32  1  0  0  0  0
 31 37  1  0  0  0  0
 33 22  1  0  0  0  0
 33 32  2  0  0  0  0
 34 33  1  0  0  0  0
 35 29  1  0  0  0  0
 36 30  1  0  0  0  0
M  END
>  <minimizedAffinity>
-5.47742844

$$$$

 OpenBabel03272508553D

 37 40  0  0  1  0  0  0  0  0999 V2000
   38.4710   26.8900   34.8750 C   0  0  0  0  0  0  0  0  0  0  0  0
   38.2660   26.2880   35.9710 O   0  0  0  0  0  0  0  0  0  0  0  0
   39.7580   26.8500   34.2470 N   0  0  0  0  0  0  0  0  0  0  0  0
   40.0280   27.4570   33.4420 H   0  0  0  0  0  0  0  0  0  0  0  0
   37.3860   27.6460   34.2260 C   0  0  0  0  0  0  0  0  0  0  0  0
   37.0480   27.3130   32.9420 C   0  0  0  0  0  0  0  0  0  0  0  0
   36.0290   28.0170   32.3310 C   0  0  0  0  0  0  0  0  0  0  0  0
   35.4050   29.0170   33.0500 C   0  0  0  0  0  0  0  0  0  0  0  0
   35.7460   29.3630   34.3630 C   0  0  0  0  0  0  0  0  0  0  0  0
   36.7440   28.6330   34.8800 N   0  0  0  0  0  0  0  0  0  0  0  0
   37.5120   26.5370   32.3450 H   0  0  0  0  0  0  0  0  0  0  0  0
   35.7020   27.8160   31.3210 H   0  0  0  0  0  0  0  0  0  0  0  0
   34.6020   29.5710   32.5690 H   0  0  0  0  0  0  0  0  0  0  0  0
   35.0630   30.4250   35.0860 C   0  0  0  0  0  0  0  0  0  0  0  0
   35.8490   31.2980   35.7950 C   0  0  0  0  0  0  0  0  0  0  0  0
   36.9350   31.2390   35.8450 H   0  0  0  0  0  0  0  0  0  0  0  0
   35.2180   32.3130   36.4870 C   0  0  0  0  0  0  0  0  0  0  0  0
   35.7170   33.0640   37.0840 H   0  0  0  0  0  0  0  0  0  0  0  0
   33.8420   32.3500   36.3970 C   0  0  0  0  0  3  0  0  0  0  0  0
   33.0400   31.4610   35.6740 C   0  0  0  0  0  3  0  0  0  0  0  0
   33.7310   30.4900   35.0190 N   0  0  0  0  0  0  0  0  0  0  0  0
   40.5580   24.5050   34.4690 C   0  0  2  0  0  0  0  0  0  0  0  0
   41.5820   25.2180   33.6880 C   0  0  0  0  0  0  0  0  0  0  0  0
   40.7240   25.9030   34.7820 C   0  0  1  0  0  0  0  0  0  0  0  0
   39.6910   24.1640   33.8370 H   0  0  0  0  0  0  0  0  0  0  0  0
   42.6280   24.9750   33.9650 H   0  0  0  0  0  0  0  0  0  0  0  0
   41.4130   25.5180   32.6540 H   0  0  0  0  0  0  0  0  0  0  0  0
   41.3240   26.2270   35.6610 H   0  0  0  0  0  0  0  0  0  0  0  0
   40.3780   22.3440   37.4560 C   0  0  0  0  0  0  0  0  0  0  0  0
   41.5470   21.5280   37.3150 C   0  0  0  0  0  0  0  0  0  0  0  0
   42.3820   21.7680   36.1630 C   0  0  0  0  0  0  0  0  0  0  0  0
   42.0310   22.7340   35.2840 N   0  0  0  0  0  0  0  0  0  0  0  0
   40.9110   23.4720   35.4750 C   0  0  0  0  0  0  0  0  0  0  0  0
   40.0650   23.2980   36.5530 N   0  0  0  0  0  0  0  0  0  0  0  0
   39.7980   22.1190   38.3290 H   0  0  0  0  0  0  0  0  0  0  0  0
   41.7780   20.7780   38.0420 H   0  0  0  0  0  0  0  0  0  0  0  0
   43.2590   21.1590   36.0570 H   0  0  0  0  0  0  0  0  0  0  0  0
  1  2  2  0  0  0  0
  3 24  1  0  0  0  0
  3  1  1  0  0  0  0
  4  3  1  0  0  0  0
  5  1  1  0  0  0  0
  5 10  1  0  0  0  0
  6  5  2  0  0  0  0
  7  6  1  0  0  0  0
  7  8  2  0  0  0  0
  8  9  1  0  0  0  0
  9 10  2  0  0  0  0
  9 14  1  0  0  0  0
 11  6  1  0  0  0  0
 12  7  1  0  0  0  0
 13  8  1  0  0  0  0
 14 15  1  0  0  0  0
 15 16  1  0  0  0  0
 15 17  2  0  0  0  0
 17 18  1  0  0  0  0
 19 17  1  0  0  0  0
 20 19  2  0  0  0  0
 21 14  2  0  0  0  0
 21 20  1  0  0  0  0
 22 25  1  6  0  0  0
 22 24  1  0  0  0  0
 22 33  1  0  0  0  0
 23 26  1  0  0  0  0
 23 22  1  0  0  0  0
 23 24  1  0  0  0  0
 24 28  1  1  0  0  0
 27 23  1  0  0  0  0
 29 35  1  0  0  0  0
 30 29  1  0  0  0  0
 30 36  1  0  0  0  0
 31 30  2  0  0  0  0
 32 33  2  0  0  0  0
 32 31  1  0  0  0  0
 33 34  1  0  0  0  0
 34 29  2  0  0  0  0
 37 31  1  0  0  0  0
M  END
>  <minimizedAffinity>
-5.35172844

$$$$

 OpenBabel03272508553D

 37 40  0  0  1  0  0  0  0  0999 V2000
   37.2410   23.6550   31.6430 C   0  0  0  0  0  0  0  0  0  0  0  0
   37.3620   23.9780   30.4240 O   0  0  0  0  0  0  0  0  0  0  0  0
   36.5750   22.4430   32.0180 N   0  0  0  0  0  0  0  0  0  0  0  0
   36.3020   22.2130   32.9990 H   0  0  0  0  0  0  0  0  0  0  0  0
   37.7830   24.5250   32.7020 C   0  0  0  0  0  0  0  0  0  0  0  0
   38.0770   25.8230   32.3810 C   0  0  0  0  0  0  0  0  0  0  0  0
   38.5810   26.6430   33.3710 C   0  0  0  0  0  0  0  0  0  0  0  0
   38.7610   26.1080   34.6310 C   0  0  0  0  0  0  0  0  0  0  0  0
   38.4630   24.7820   34.9670 C   0  0  0  0  0  0  0  0  0  0  0  0
   37.9790   24.0560   33.9490 N   0  0  0  0  0  0  0  0  0  0  0  0
   37.9510   26.2800   31.4060 H   0  0  0  0  0  0  0  0  0  0  0  0
   38.8380   27.6790   33.2000 H   0  0  0  0  0  0  0  0  0  0  0  0
   39.1580   26.7540   35.4110 H   0  0  0  0  0  0  0  0  0  0  0  0
   38.6670   24.2580   36.3070 C   0  0  0  0  0  0  0  0  0  0  0  0
   37.8520   24.7460   37.2970 C   0  0  0  0  0  0  0  0  0  0  0  0
   37.0760   25.4920   37.1340 H   0  0  0  0  0  0  0  0  0  0  0  0
   38.0310   24.2580   38.5760 C   0  0  0  0  0  0  0  0  0  0  0  0
   37.4580   24.5590   39.4440 H   0  0  0  0  0  0  0  0  0  0  0  0
   39.0240   23.3150   38.7370 C   0  0  0  0  0  3  0  0  0  0  0  0
   39.8560   22.8150   37.7300 C   0  0  0  0  0  3  0  0  0  0  0  0
   39.6210   23.3420   36.4970 N   0  0  0  0  0  0  0  0  0  0  0  0
   37.0200   20.2660   30.9000 C   0  0  2  0  0  0  0  0  0  0  0  0
   35.6640   20.1700   31.4660 C   0  0  0  0  0  0  0  0  0  0  0  0
   36.2740   21.4990   30.9530 C   0  0  1  0  0  0  0  0  0  0  0  0
   37.8210   20.0550   31.6610 H   0  0  0  0  0  0  0  0  0  0  0  0
   34.9180   19.6850   30.8030 H   0  0  0  0  0  0  0  0  0  0  0  0
   35.4920   20.0750   32.5380 H   0  0  0  0  0  0  0  0  0  0  0  0
   35.7530   21.8950   30.0530 H   0  0  0  0  0  0  0  0  0  0  0  0
   36.8120   18.2150   27.8390 C   0  0  0  0  0  0  0  0  0  0  0  0
   38.0040   18.5880   27.1380 C   0  0  0  0  0  0  0  0  0  0  0  0
   38.8650   19.5580   27.7720 C   0  0  0  0  0  0  0  0  0  0  0  0
   38.5140   20.0610   28.9780 N   0  0  0  0  0  0  0  0  0  0  0  0
   37.3710   19.6660   29.5880 C   0  0  0  0  0  0  0  0  0  0  0  0
   36.5000   18.7440   29.0420 N   0  0  0  0  0  0  0  0  0  0  0  0
   36.2140   17.4940   27.3180 H   0  0  0  0  0  0  0  0  0  0  0  0
   38.2330   18.1570   26.1860 H   0  0  0  0  0  0  0  0  0  0  0  0
   39.7580   19.8370   27.2490 H   0  0  0  0  0  0  0  0  0  0  0  0
  1  3  1  0  0  0  0
  1  5  1  0  0  0  0
  2  1  2  0  0  0  0
  3  4  1  0  0  0  0
  5 10  1  0  0  0  0
  6  5  2  0  0  0  0
  6  7  1  0  0  0  0
  7  8  2  0  0  0  0
  8  9  1  0  0  0  0
  8 13  1  0  0  0  0
  9 14  1  0  0  0  0
 10  9  2  0  0  0  0
 11  6  1  0  0  0  0
 12  7  1  0  0  0  0
 14 21  2  0  0  0  0
 14 15  1  0  0  0  0
 15 17  2  0  0  0  0
 16 15  1  0  0  0  0
 17 19  1  0  0  0  0
 17 18  1  0  0  0  0
 20 19  2  0  0  0  0
 21 20  1  0  0  0  0
 22 24  1  0  0  0  0
 22 23  1  0  0  0  0
 22 25  1  1  0  0  0
 23 27  1  0  0  0  0
 24 28  1  6  0  0  0
 24 23  1  0  0  0  0
 24  3  1  0  0  0  0
 26 23  1  0  0  0  0
 29 34  1  0  0  0  0
 30 31  1  0  0  0  0
 30 29  2  0  0  0  0
 31 32  2  0  0  0  0
 32 33  1  0  0  0  0
 33 22  1  0  0  0  0
 34 33  2  0  0  0  0
 35 29  1  0  0  0  0
 36 30  1  0  0  0  0
 37 31  1  0  0  0  0
M  END
>  <minimizedAffinity>
-5.32568741

$$$$

 OpenBabel03272508553D

 37 40  0  0  1  0  0  0  0  0999 V2000
   38.2460   26.1280   34.1410 C   0  0  0  0  0  0  0  0  0  0  0  0
   39.2190   26.9110   34.3520 O   0  0  0  0  0  0  0  0  0  0  0  0
   37.0790   26.5800   33.4440 N   0  0  0  0  0  0  0  0  0  0  0  0
   36.1900   26.0360   33.3890 H   0  0  0  0  0  0  0  0  0  0  0  0
   38.2960   24.7320   34.6120 C   0  0  0  0  0  0  0  0  0  0  0  0
   38.8780   24.4830   35.8250 C   0  0  0  0  0  0  0  0  0  0  0  0
   38.9230   23.1770   36.2720 C   0  0  0  0  0  0  0  0  0  0  0  0
   38.3770   22.1950   35.4700 C   0  0  0  0  0  0  0  0  0  0  0  0
   37.7810   22.4420   34.2280 C   0  0  0  0  0  0  0  0  0  0  0  0
   37.7790   23.7340   33.8700 N   0  0  0  0  0  0  0  0  0  0  0  0
   39.3170   25.2240   36.4830 H   0  0  0  0  0  0  0  0  0  0  0  0
   39.3640   22.8960   37.2180 H   0  0  0  0  0  0  0  0  0  0  0  0
   38.4130   21.1660   35.8220 H   0  0  0  0  0  0  0  0  0  0  0  0
   37.2170   21.3780   33.4140 C   0  0  0  0  0  0  0  0  0  0  0  0
   36.0340   20.8280   33.8400 C   0  0  0  0  0  0  0  0  0  0  0  0
   35.5060   21.1410   34.7390 H   0  0  0  0  0  0  0  0  0  0  0  0
   35.4830   19.8170   33.0780 C   0  0  0  0  0  0  0  0  0  0  0  0
   34.5600   19.3010   33.3020 H   0  0  0  0  0  0  0  0  0  0  0  0
   36.1850   19.4520   31.9480 C   0  0  0  0  0  3  0  0  0  0  0  0
   37.3910   20.0120   31.5110 C   0  0  0  0  0  3  0  0  0  0  0  0
   37.8720   21.0010   32.3120 N   0  0  0  0  0  0  0  0  0  0  0  0
   36.2540   28.1540   31.7020 C   0  0  2  0  0  0  0  0  0  0  0  0
   35.9090   28.7570   33.0000 C   0  0  0  0  0  0  0  0  0  0  0  0
   37.1650   27.8750   32.7850 C   0  0  1  0  0  0  0  0  0  0  0  0
   35.5090   27.3780   31.3740 H   0  0  0  0  0  0  0  0  0  0  0  0
   36.0820   29.8510   33.0640 H   0  0  0  0  0  0  0  0  0  0  0  0
   35.1130   28.3560   33.6290 H   0  0  0  0  0  0  0  0  0  0  0  0
   38.1160   28.4420   32.8980 H   0  0  0  0  0  0  0  0  0  0  0  0
   36.8830   31.0760   29.5370 C   0  0  0  0  0  0  0  0  0  0  0  0
   37.5710   30.4920   28.4250 C   0  0  0  0  0  0  0  0  0  0  0  0
   37.7920   29.0660   28.4630 C   0  0  0  0  0  0  0  0  0  0  0  0
   37.3470   28.3590   29.5270 N   0  0  0  0  0  0  0  0  0  0  0  0
   36.7020   28.9730   30.5480 C   0  0  0  0  0  0  0  0  0  0  0  0
   36.4560   30.3310   30.5790 N   0  0  0  0  0  0  0  0  0  0  0  0
   36.7490   32.1360   29.4520 H   0  0  0  0  0  0  0  0  0  0  0  0
   37.9010   31.1000   27.6090 H   0  0  0  0  0  0  0  0  0  0  0  0
   38.3070   28.6270   27.6310 H   0  0  0  0  0  0  0  0  0  0  0  0
  1  2  2  0  0  0  0
  1  5  1  0  0  0  0
  3  1  1  0  0  0  0
  4  3  1  0  0  0  0
  5  6  1  0  0  0  0
  6  7  2  0  0  0  0
  6 11  1  0  0  0  0
  7 12  1  0  0  0  0
  8 13  1  0  0  0  0
  8  7  1  0  0  0  0
  9  8  2  0  0  0  0
 10  9  1  0  0  0  0
 10  5  2  0  0  0  0
 14 15  1  0  0  0  0
 14  9  1  0  0  0  0
 15 16  1  0  0  0  0
 17 18  1  0  0  0  0
 17 15  2  0  0  0  0
 19 17  1  0  0  0  0
 20 19  2  0  0  0  0
 20 21  1  0  0  0  0
 21 14  2  0  0  0  0
 22 25  1  6  0  0  0
 22 24  1  0  0  0  0
 22 23  1  0  0  0  0
 23 26  1  0  0  0  0
 23 27  1  0  0  0  0
 24 28  1  6  0  0  0
 24 23  1  0  0  0  0
 24  3  1  0  0  0  0
 29 34  1  0  0  0  0
 30 31  1  0  0  0  0
 30 29  2  0  0  0  0
 31 32  2  0  0  0  0
 32 33  1  0  0  0  0
 33 34  2  0  0  0  0
 33 22  1  0  0  0  0
 35 29  1  0  0  0  0
 36 30  1  0  0  0  0
 37 31  1  0  0  0  0
M  END
>  <minimizedAffinity>
-5.26497889

$$$$

 OpenBabel03272508553D

 37 40  0  0  1  0  0  0  0  0999 V2000
   36.5070   24.9690   31.9470 C   0  0  0  0  0  0  0  0  0  0  0  0
   35.5690   24.9240   31.0950 O   0  0  0  0  0  0  0  0  0  0  0  0
   36.9530   26.2210   32.4810 N   0  0  0  0  0  0  0  0  0  0  0  0
   37.8210   26.3310   33.0500 H   0  0  0  0  0  0  0  0  0  0  0  0
   37.1590   23.7290   32.4030 C   0  0  0  0  0  0  0  0  0  0  0  0
   37.0770   22.6250   31.5980 C   0  0  0  0  0  0  0  0  0  0  0  0
   37.6900   21.4610   32.0200 C   0  0  0  0  0  0  0  0  0  0  0  0
   38.3540   21.4770   33.2310 C   0  0  0  0  0  0  0  0  0  0  0  0
   38.4430   22.6020   34.0580 C   0  0  0  0  0  0  0  0  0  0  0  0
   37.8210   23.6870   33.5760 N   0  0  0  0  0  0  0  0  0  0  0  0
   36.5670   22.5710   30.6440 H   0  0  0  0  0  0  0  0  0  0  0  0
   37.6720   20.5470   31.4440 H   0  0  0  0  0  0  0  0  0  0  0  0
   38.8380   20.5610   33.5620 H   0  0  0  0  0  0  0  0  0  0  0  0
   39.1520   22.5770   35.3270 C   0  0  0  0  0  0  0  0  0  0  0  0
   38.5160   23.1350   36.4070 C   0  0  0  0  0  0  0  0  0  0  0  0
   37.5260   23.5880   36.3640 H   0  0  0  0  0  0  0  0  0  0  0  0
   39.1750   23.1190   37.6210 C   0  0  0  0  0  0  0  0  0  0  0  0
   38.7870   23.5240   38.5460 H   0  0  0  0  0  0  0  0  0  0  0  0
   40.4250   22.5360   37.6290 C   0  0  0  0  0  3  0  0  0  0  0  0
   41.0750   21.9660   36.5300 C   0  0  0  0  0  3  0  0  0  0  0  0
   40.3650   22.0190   35.3700 N   0  0  0  0  0  0  0  0  0  0  0  0
   36.2690   28.5450   33.0500 C   0  0  2  0  0  0  0  0  0  0  0  0
   36.9550   28.6230   31.7490 C   0  0  0  0  0  0  0  0  0  0  0  0
   36.1320   27.3890   32.1980 C   0  0  1  0  0  0  0  0  0  0  0  0
   36.9860   28.5290   33.9160 H   0  0  0  0  0  0  0  0  0  0  0  0
   36.4710   29.2930   31.0100 H   0  0  0  0  0  0  0  0  0  0  0  0
   38.0350   28.5030   31.6590 H   0  0  0  0  0  0  0  0  0  0  0  0
   35.2180   27.2330   31.5830 H   0  0  0  0  0  0  0  0  0  0  0  0
   32.8110   29.8330   33.0310 C   0  0  0  0  0  0  0  0  0  0  0  0
   32.8750   30.9000   33.9850 C   0  0  0  0  0  0  0  0  0  0  0  0
   34.1520   31.1450   34.6130 C   0  0  0  0  0  0  0  0  0  0  0  0
   35.2100   30.3720   34.2770 N   0  0  0  0  0  0  0  0  0  0  0  0
   35.0820   29.3780   33.3660 C   0  0  0  0  0  0  0  0  0  0  0  0
   33.8940   29.0860   32.7260 N   0  0  0  0  0  0  0  0  0  0  0  0
   31.8380   29.6990   32.6000 H   0  0  0  0  0  0  0  0  0  0  0  0
   32.0060   31.4800   34.2120 H   0  0  0  0  0  0  0  0  0  0  0  0
   34.2010   31.9440   35.3270 H   0  0  0  0  0  0  0  0  0  0  0  0
  1  5  1  0  0  0  0
  1  3  1  0  0  0  0
  2  1  2  0  0  0  0
  3  4  1  0  0  0  0
  5 10  1  0  0  0  0
  6  7  1  0  0  0  0
  6  5  2  0  0  0  0
  7  8  2  0  0  0  0
  8 13  1  0  0  0  0
  8  9  1  0  0  0  0
  9 14  1  0  0  0  0
 10  9  2  0  0  0  0
 11  6  1  0  0  0  0
 12  7  1  0  0  0  0
 14 21  2  0  0  0  0
 14 15  1  0  0  0  0
 15 17  2  0  0  0  0
 16 15  1  0  0  0  0
 17 19  1  0  0  0  0
 17 18  1  0  0  0  0
 20 19  2  0  0  0  0
 21 20  1  0  0  0  0
 22 33  1  0  0  0  0
 22 25  1  1  0  0  0
 23 24  1  0  0  0  0
 23 22  1  0  0  0  0
 24 28  1  6  0  0  0
 24  3  1  0  0  0  0
 24 22  1  0  0  0  0
 26 23  1  0  0  0  0
 27 23  1  0  0  0  0
 29 30  1  0  0  0  0
 30 36  1  0  0  0  0
 30 31  2  0  0  0  0
 31 37  1  0  0  0  0
 32 31  1  0  0  0  0
 33 32  2  0  0  0  0
 34 29  2  0  0  0  0
 34 33  1  0  0  0  0
 35 29  1  0  0  0  0
M  END
>  <minimizedAffinity>
-5.24442244

$$$$

 OpenBabel03272508553D

 37 40  0  0  1  0  0  0  0  0999 V2000
   36.9560   26.3130   32.6780 C   0  0  0  0  0  0  0  0  0  0  0  0
   37.0480   25.9240   33.8800 O   0  0  0  0  0  0  0  0  0  0  0  0
   37.2920   25.4360   31.5960 N   0  0  0  0  0  0  0  0  0  0  0  0
   37.3950   25.7510   30.6070 H   0  0  0  0  0  0  0  0  0  0  0  0
   36.5020   27.6810   32.3700 C   0  0  0  0  0  0  0  0  0  0  0  0
   36.5500   28.0960   31.0670 C   0  0  0  0  0  0  0  0  0  0  0  0
   36.1210   29.3760   30.7730 C   0  0  0  0  0  0  0  0  0  0  0  0
   35.6660   30.1650   31.8100 C   0  0  0  0  0  0  0  0  0  0  0  0
   35.6140   29.7470   33.1450 C   0  0  0  0  0  0  0  0  0  0  0  0
   36.0490   28.4940   33.3430 N   0  0  0  0  0  0  0  0  0  0  0  0
   36.9000   27.5090   30.2250 H   0  0  0  0  0  0  0  0  0  0  0  0
   36.1270   29.7800   29.7710 H   0  0  0  0  0  0  0  0  0  0  0  0
   35.3280   31.1720   31.5790 H   0  0  0  0  0  0  0  0  0  0  0  0
   35.1270   30.6100   34.2090 C   0  0  0  0  0  0  0  0  0  0  0  0
   33.8820   31.1610   34.0420 C   0  0  0  0  0  0  0  0  0  0  0  0
   33.2520   30.9910   33.1700 H   0  0  0  0  0  0  0  0  0  0  0  0
   33.4030   31.9830   35.0430 C   0  0  0  0  0  0  0  0  0  0  0  0
   32.4420   32.4790   35.0350 H   0  0  0  0  0  0  0  0  0  0  0  0
   34.2340   32.1720   36.1280 C   0  0  0  0  0  3  0  0  0  0  0  0
   35.5030   31.6090   36.3010 C   0  0  0  0  0  3  0  0  0  0  0  0
   35.9070   30.8120   35.2750 N   0  0  0  0  0  0  0  0  0  0  0  0
   36.8750   23.0370   31.0870 C   0  0  2  0  0  0  0  0  0  0  0  0
   38.3090   23.2650   30.8510 C   0  0  0  0  0  0  0  0  0  0  0  0
   37.4970   24.0330   31.9240 C   0  0  1  0  0  0  0  0  0  0  0  0
   36.2380   23.3470   30.2130 H   0  0  0  0  0  0  0  0  0  0  0  0
   38.9750   22.4590   31.2230 H   0  0  0  0  0  0  0  0  0  0  0  0
   38.6690   23.8300   29.9910 H   0  0  0  0  0  0  0  0  0  0  0  0
   37.8170   23.7930   32.9620 H   0  0  0  0  0  0  0  0  0  0  0  0
   35.7800   19.5270   31.4160 C   0  0  0  0  0  0  0  0  0  0  0  0
   35.4590   19.4350   32.8090 C   0  0  0  0  0  0  0  0  0  0  0  0
   35.6320   20.6270   33.6040 C   0  0  0  0  0  0  0  0  0  0  0  0
   36.0790   21.7570   33.0100 N   0  0  0  0  0  0  0  0  0  0  0  0
   36.3650   21.7780   31.6860 C   0  0  0  0  0  0  0  0  0  0  0  0
   36.2250   20.6770   30.8640 N   0  0  0  0  0  0  0  0  0  0  0  0
   35.6330   18.6120   30.8780 H   0  0  0  0  0  0  0  0  0  0  0  0
   35.1080   18.5150   33.2260 H   0  0  0  0  0  0  0  0  0  0  0  0
   35.3910   20.5590   34.6470 H   0  0  0  0  0  0  0  0  0  0  0  0
  1  2  2  0  0  0  0
  3 24  1  0  0  0  0
  3  1  1  0  0  0  0
  4  3  1  0  0  0  0
  5  1  1  0  0  0  0
  5 10  1  0  0  0  0
  6  5  2  0  0  0  0
  7  6  1  0  0  0  0
  7  8  2  0  0  0  0
  8  9  1  0  0  0  0
  9 10  2  0  0  0  0
  9 14  1  0  0  0  0
 11  6  1  0  0  0  0
 12  7  1  0  0  0  0
 13  8  1  0  0  0  0
 14 21  1  0  0  0  0
 15 14  2  0  0  0  0
 15 17  1  0  0  0  0
 16 15  1  0  0  0  0
 17 19  2  0  0  0  0
 18 17  1  0  0  0  0
 19 20  1  0  0  0  0
 21 20  2  0  0  0  0
 22 25  1  6  0  0  0
 22 33  1  0  0  0  0
 22 24  1  0  0  0  0
 23 22  1  0  0  0  0
 23 26  1  0  0  0  0
 23 24  1  0  0  0  0
 24 28  1  1  0  0  0
 27 23  1  0  0  0  0
 29 30  1  0  0  0  0
 30 36  1  0  0  0  0
 30 31  2  0  0  0  0
 31 37  1  0  0  0  0
 32 31  1  0  0  0  0
 33 32  2  0  0  0  0
 34 29  2  0  0  0  0
 34 33  1  0  0  0  0
 35 29  1  0  0  0  0
M  END
>  <minimizedAffinity>
-5.23077679

$$$$
