
 OpenBabel03272505553D

 33 35  0  0  1  0  0  0  0  0999 V2000
   35.4160   30.1210   49.9160 C   0  0  2  0  0  0  0  0  0  0  0  0
   36.2150   31.2110   49.2470 C   0  0  0  0  0  0  0  0  0  0  0  0
   37.6900   30.9690   49.3460 C   0  0  2  0  0  0  0  0  0  0  0  0
   38.1380   30.8120   50.7850 C   0  0  0  0  0  0  0  0  0  0  0  0
   37.2770   29.8720   51.5660 C   0  0  0  0  0  0  0  0  0  0  0  0
   36.2360   29.1710   50.7210 C   0  0  0  0  0  0  0  0  0  0  0  0
   34.6210   30.5540   50.5700 H   0  0  0  0  0  0  0  0  0  0  0  0
   35.9740   31.3110   48.1690 H   0  0  0  0  0  0  0  0  0  0  0  0
   35.9440   32.1700   49.7360 H   0  0  0  0  0  0  0  0  0  0  0  0
   37.8920   30.0180   48.7930 H   0  0  0  0  0  0  0  0  0  0  0  0
   37.9870   31.8330   51.2420 H   0  0  0  0  0  0  0  0  0  0  0  0
   39.2110   30.6280   50.8260 H   0  0  0  0  0  0  0  0  0  0  0  0
   37.9570   29.0490   51.9330 H   0  0  0  0  0  0  0  0  0  0  0  0
   36.8620   30.3080   52.4950 H   0  0  0  0  0  0  0  0  0  0  0  0
   36.7690   28.4370   50.0750 H   0  0  0  0  0  0  0  0  0  0  0  0
   35.5600   28.6650   51.4430 H   0  0  0  0  0  0  0  0  0  0  0  0
   34.6780   29.3240   48.8870 C   0  0  0  0  0  0  0  0  0  0  0  0
   34.2890   30.0130   47.7240 C   0  0  0  0  0  0  0  0  0  0  0  0
   33.5940   29.2860   46.7600 C   0  0  0  0  0  0  0  0  0  0  0  0
   33.3280   27.9510   46.9970 N   0  0  0  0  0  0  0  0  0  0  0  0
   33.7220   27.3290   48.1310 C   0  0  0  0  0  0  0  0  0  0  0  0
   34.3890   28.0140   49.0620 N   0  0  0  0  0  0  0  0  0  0  0  0
   34.4700   31.0370   47.5000 H   0  0  0  0  0  0  0  0  0  0  0  0
   33.2540   29.7320   45.8300 H   0  0  0  0  0  0  0  0  0  0  0  0
   33.4650   26.2830   48.2200 H   0  0  0  0  0  0  0  0  0  0  0  0
   38.4800   32.0310   48.7330 C   0  0  0  0  0  0  0  0  0  0  0  0
   38.7740   33.1880   49.4000 C   0  0  0  0  0  0  0  0  0  0  0  0
   38.4330   33.3780   50.4270 H   0  0  0  0  0  0  0  0  0  0  0  0
   39.5270   34.1940   48.8060 C   0  0  0  0  0  0  0  0  0  0  0  0
   39.7950   35.1350   49.2810 H   0  0  0  0  0  0  0  0  0  0  0  0
   39.9930   34.0340   47.5200 C   0  0  0  0  0  0  0  0  0  0  0  0
   39.6860   32.8600   46.8630 C   0  0  0  0  0  0  0  0  0  0  0  0
   38.9640   31.9350   47.4750 N   0  0  0  0  0  0  0  0  0  0  0  0
  1  7  1  1  0  0  0
  1  6  1  0  0  0  0
  2  3  1  0  0  0  0
  2  9  1  0  0  0  0
  2  1  1  0  0  0  0
  3 10  1  6  0  0  0
  3  4  1  0  0  0  0
  4 12  1  0  0  0  0
  4 11  1  0  0  0  0
  4  5  1  0  0  0  0
  5 13  1  0  0  0  0
  5 14  1  0  0  0  0
  6 16  1  0  0  0  0
  6  5  1  0  0  0  0
  8  2  1  0  0  0  0
 15  6  1  0  0  0  0
 17 22  1  0  0  0  0
 17  1  1  0  0  0  0
 18 17  2  0  0  0  0
 19 20  2  0  0  0  0
 19 18  1  0  0  0  0
 20 21  1  0  0  0  0
 21 25  1  0  0  0  0
 21 22  2  0  0  0  0
 23 18  1  0  0  0  0
 24 19  1  0  0  0  0
 26  3  1  0  0  0  0
 26 27  1  0  0  0  0
 27 28  1  0  0  0  0
 29 30  1  0  0  0  0
 29 27  2  0  0  0  0
 31 29  1  0  0  0  0
 32 33  1  0  0  0  0
 32 31  2  0  0  0  0
 33 26  2  0  0  0  0
M  END
>  <minimizedAffinity>
-6.53898001

>  <minimizedRMSD>
0.555941939

$$$$
