
 OpenBabel03272505563D

 33 35  0  0  1  0  0  0  0  0999 V2000
   37.6730   26.2660   33.2040 C   0  0  2  0  0  0  0  0  0  0  0  0
   38.3310   25.2540   34.1080 C   0  0  0  0  0  0  0  0  0  0  0  0
   37.9110   25.4200   35.5370 C   0  0  2  0  0  0  0  0  0  0  0  0
   38.1890   26.8200   36.0460 C   0  0  0  0  0  0  0  0  0  0  0  0
   37.7180   27.8850   35.1080 C   0  0  0  0  0  0  0  0  0  0  0  0
   36.9400   27.3450   33.9270 C   0  0  0  0  0  0  0  0  0  0  0  0
   38.4210   26.7350   32.5210 H   0  0  0  0  0  0  0  0  0  0  0  0
   38.0920   24.2100   33.8190 H   0  0  0  0  0  0  0  0  0  0  0  0
   39.4280   25.3820   34.0080 H   0  0  0  0  0  0  0  0  0  0  0  0
   36.8100   25.2300   35.5670 H   0  0  0  0  0  0  0  0  0  0  0  0
   39.3140   26.8960   36.0690 H   0  0  0  0  0  0  0  0  0  0  0  0
   37.8650   26.9150   37.0810 H   0  0  0  0  0  0  0  0  0  0  0  0
   36.9750   28.5100   35.6850 H   0  0  0  0  0  0  0  0  0  0  0  0
   38.5040   28.6090   34.8170 H   0  0  0  0  0  0  0  0  0  0  0  0
   35.9570   26.9900   34.3100 H   0  0  0  0  0  0  0  0  0  0  0  0
   36.8230   28.2020   33.2320 H   0  0  0  0  0  0  0  0  0  0  0  0
   36.6970   25.5830   32.2990 C   0  0  0  0  0  0  0  0  0  0  0  0
   36.8090   24.1850   32.2010 C   0  0  0  0  0  0  0  0  0  0  0  0
   35.9120   23.5360   31.3550 C   0  0  0  0  0  0  0  0  0  0  0  0
   34.9790   24.2890   30.6700 N   0  0  0  0  0  0  0  0  0  0  0  0
   34.9080   25.6340   30.7950 C   0  0  0  0  0  0  0  0  0  0  0  0
   35.7610   26.2680   31.6020 N   0  0  0  0  0  0  0  0  0  0  0  0
   37.5090   23.5650   32.7070 H   0  0  0  0  0  0  0  0  0  0  0  0
   35.9210   22.4580   31.2160 H   0  0  0  0  0  0  0  0  0  0  0  0
   34.1420   26.1320   30.2160 H   0  0  0  0  0  0  0  0  0  0  0  0
   38.5640   24.4710   36.4320 C   0  0  0  0  0  0  0  0  0  0  0  0
   38.1490   24.2910   37.7220 C   0  0  0  0  0  0  0  0  0  0  0  0
   37.3050   24.8490   38.1510 H   0  0  0  0  0  0  0  0  0  0  0  0
   38.7780   23.3840   38.5660 C   0  0  0  0  0  0  0  0  0  0  0  0
   38.4970   23.1950   39.5990 H   0  0  0  0  0  0  0  0  0  0  0  0
   39.8450   22.6440   38.1040 C   0  0  0  0  0  3  0  0  0  0  0  0
   40.2510   22.8390   36.8000 C   0  0  0  0  0  3  0  0  0  0  0  0
   39.6160   23.7170   36.0390 N   0  0  0  0  0  0  0  0  0  0  0  0
  1  7  1  6  0  0  0
  1  6  1  0  0  0  0
  1  2  1  0  0  0  0
  2  3  1  0  0  0  0
  3 10  1  1  0  0  0
  3  4  1  0  0  0  0
  3 26  1  0  0  0  0
  4 11  1  0  0  0  0
  4 12  1  0  0  0  0
  5 13  1  0  0  0  0
  5  4  1  0  0  0  0
  6 15  1  0  0  0  0
  6  5  1  0  0  0  0
  8  2  1  0  0  0  0
  9  2  1  0  0  0  0
 14  5  1  0  0  0  0
 16  6  1  0  0  0  0
 17  1  1  0  0  0  0
 18 17  1  0  0  0  0
 18 23  1  0  0  0  0
 19 18  2  0  0  0  0
 20 21  2  0  0  0  0
 20 19  1  0  0  0  0
 21 22  1  0  0  0  0
 22 17  2  0  0  0  0
 24 19  1  0  0  0  0
 25 21  1  0  0  0  0
 26 27  1  0  0  0  0
 27 28  1  0  0  0  0
 27 29  2  0  0  0  0
 29 30  1  0  0  0  0
 31 29  1  0  0  0  0
 32 31  2  0  0  0  0
 33 26  2  0  0  0  0
 33 32  1  0  0  0  0
M  END
>  <minimizedAffinity>
-5.47067165

$$$$

 OpenBabel03272505563D

 33 35  0  0  1  0  0  0  0  0999 V2000
   39.3610   22.3940   36.6250 C   0  0  2  0  0  0  0  0  0  0  0  0
   38.7500   23.3450   35.6270 C   0  0  0  0  0  0  0  0  0  0  0  0
   38.6580   24.7410   36.1630 C   0  0  2  0  0  0  0  0  0  0  0  0
   37.8830   24.7940   37.4630 C   0  0  0  0  0  0  0  0  0  0  0  0
   38.3180   23.7530   38.4450 C   0  0  0  0  0  0  0  0  0  0  0  0
   39.5300   22.9690   37.9900 C   0  0  0  0  0  0  0  0  0  0  0  0
   38.7590   21.4570   36.7020 H   0  0  0  0  0  0  0  0  0  0  0  0
   39.3300   23.3970   34.6820 H   0  0  0  0  0  0  0  0  0  0  0  0
   37.7410   22.9590   35.3730 H   0  0  0  0  0  0  0  0  0  0  0  0
   39.7080   25.0780   36.3480 H   0  0  0  0  0  0  0  0  0  0  0  0
   36.8240   24.5310   37.1740 H   0  0  0  0  0  0  0  0  0  0  0  0
   37.8400   25.8170   37.8350 H   0  0  0  0  0  0  0  0  0  0  0  0
   38.6600   24.3100   39.3660 H   0  0  0  0  0  0  0  0  0  0  0  0
   37.4950   23.1090   38.8140 H   0  0  0  0  0  0  0  0  0  0  0  0
   40.4080   23.6510   38.0440 H   0  0  0  0  0  0  0  0  0  0  0  0
   39.6220   22.1260   38.7060 H   0  0  0  0  0  0  0  0  0  0  0  0
   40.7080   21.9510   36.1500 C   0  0  0  0  0  0  0  0  0  0  0  0
   41.6060   21.5110   37.1390 C   0  0  0  0  0  0  0  0  0  0  0  0
   42.8680   21.1030   36.7120 C   0  0  0  0  0  0  0  0  0  0  0  0
   43.1630   21.1530   35.3640 N   0  0  0  0  0  0  0  0  0  0  0  0
   42.2670   21.5840   34.4470 C   0  0  0  0  0  0  0  0  0  0  0  0
   41.0550   21.9780   34.8420 N   0  0  0  0  0  0  0  0  0  0  0  0
   41.4240   21.4570   38.1860 H   0  0  0  0  0  0  0  0  0  0  0  0
   43.6270   20.7470   37.4030 H   0  0  0  0  0  0  0  0  0  0  0  0
   42.5960   21.5850   33.4170 H   0  0  0  0  0  0  0  0  0  0  0  0
   38.0380   25.6690   35.2230 C   0  0  0  0  0  0  0  0  0  0  0  0
   37.7470   26.9590   35.5670 C   0  0  0  0  0  0  0  0  0  0  0  0
   37.9640   27.3640   36.5650 H   0  0  0  0  0  0  0  0  0  0  0  0
   37.1560   27.8340   34.6640 C   0  0  0  0  0  0  0  0  0  0  0  0
   36.9000   28.8690   34.8750 H   0  0  0  0  0  0  0  0  0  0  0  0
   36.8530   27.4030   33.3900 C   0  0  0  0  0  3  0  0  0  0  0  0
   37.1530   26.0980   33.0610 C   0  0  0  0  0  3  0  0  0  0  0  0
   37.7160   25.3070   33.9600 N   0  0  0  0  0  0  0  0  0  0  0  0
  1  7  1  1  0  0  0
  1  6  1  0  0  0  0
  2  3  1  0  0  0  0
  2  1  1  0  0  0  0
  3 10  1  1  0  0  0
  3  4  1  0  0  0  0
  4 12  1  0  0  0  0
  4  5  1  0  0  0  0
  5 14  1  0  0  0  0
  5 13  1  0  0  0  0
  6 15  1  0  0  0  0
  6  5  1  0  0  0  0
  6 16  1  0  0  0  0
  8  2  1  0  0  0  0
  9  2  1  0  0  0  0
 11  4  1  0  0  0  0
 17  1  1  0  0  0  0
 17 18  1  0  0  0  0
 18 23  1  0  0  0  0
 19 18  2  0  0  0  0
 19 24  1  0  0  0  0
 20 19  1  0  0  0  0
 21 22  1  0  0  0  0
 21 20  2  0  0  0  0
 22 17  2  0  0  0  0
 25 21  1  0  0  0  0
 26 27  1  0  0  0  0
 26  3  1  0  0  0  0
 27 28  1  0  0  0  0
 29 30  1  0  0  0  0
 29 27  2  0  0  0  0
 31 29  1  0  0  0  0
 32 31  2  0  0  0  0
 32 33  1  0  0  0  0
 33 26  2  0  0  0  0
M  END
>  <minimizedAffinity>
-5.11332273

$$$$

 OpenBabel03272505563D

 33 35  0  0  1  0  0  0  0  0999 V2000
   37.0650   27.8970   31.9910 C   0  0  2  0  0  0  0  0  0  0  0  0
   36.4880   28.5020   33.2460 C   0  0  0  0  0  0  0  0  0  0  0  0
   35.4520   29.5420   32.9440 C   0  0  2  0  0  0  0  0  0  0  0  0
   35.9980   30.6360   32.0500 C   0  0  0  0  0  0  0  0  0  0  0  0
   36.7430   30.1060   30.8670 C   0  0  0  0  0  0  0  0  0  0  0  0
   36.6700   28.6000   30.7380 C   0  0  0  0  0  0  0  0  0  0  0  0
   38.1800   27.8570   32.0450 H   0  0  0  0  0  0  0  0  0  0  0  0
   36.0080   27.7450   33.8990 H   0  0  0  0  0  0  0  0  0  0  0  0
   37.3290   28.9460   33.8190 H   0  0  0  0  0  0  0  0  0  0  0  0
   34.6210   29.0150   32.4130 H   0  0  0  0  0  0  0  0  0  0  0  0
   36.7590   31.1710   32.6890 H   0  0  0  0  0  0  0  0  0  0  0  0
   35.2230   31.3710   31.8390 H   0  0  0  0  0  0  0  0  0  0  0  0
   36.2120   30.5040   29.9540 H   0  0  0  0  0  0  0  0  0  0  0  0
   37.7730   30.5020   30.7690 H   0  0  0  0  0  0  0  0  0  0  0  0
   35.6310   28.3420   30.4310 H   0  0  0  0  0  0  0  0  0  0  0  0
   37.4060   28.3340   29.9510 H   0  0  0  0  0  0  0  0  0  0  0  0
   36.6330   26.4710   31.8670 C   0  0  0  0  0  0  0  0  0  0  0  0
   35.4690   26.2340   31.1140 C   0  0  0  0  0  0  0  0  0  0  0  0
   35.0490   24.9110   30.9960 C   0  0  0  0  0  0  0  0  0  0  0  0
   35.7860   23.9210   31.6160 N   0  0  0  0  0  0  0  0  0  0  0  0
   36.9000   24.1950   32.3320 C   0  0  0  0  0  0  0  0  0  0  0  0
   37.3130   25.4580   32.4520 N   0  0  0  0  0  0  0  0  0  0  0  0
   34.8700   26.9630   30.6210 H   0  0  0  0  0  0  0  0  0  0  0  0
   34.1620   24.6310   30.4340 H   0  0  0  0  0  0  0  0  0  0  0  0
   37.4060   23.3500   32.7780 H   0  0  0  0  0  0  0  0  0  0  0  0
   34.9070   30.1620   34.1470 C   0  0  0  0  0  0  0  0  0  0  0  0
   35.6650   30.9650   34.9520 C   0  0  0  0  0  0  0  0  0  0  0  0
   36.7200   31.1850   34.7380 H   0  0  0  0  0  0  0  0  0  0  0  0
   35.1350   31.5510   36.0960 C   0  0  0  0  0  0  0  0  0  0  0  0
   35.6840   32.1980   36.7760 H   0  0  0  0  0  0  0  0  0  0  0  0
   33.8190   31.3260   36.4350 C   0  0  0  0  0  3  0  0  0  0  0  0
   33.0690   30.5120   35.6100 C   0  0  0  0  0  3  0  0  0  0  0  0
   33.6240   29.9790   34.5340 N   0  0  0  0  0  0  0  0  0  0  0  0
  1  7  1  1  0  0  0
  1  2  1  0  0  0  0
  2  9  1  0  0  0  0
  2  8  1  0  0  0  0
  3 10  1  6  0  0  0
  3  2  1  0  0  0  0
  3 26  1  0  0  0  0
  4 11  1  0  0  0  0
  4  3  1  0  0  0  0
  5  4  1  0  0  0  0
  6  5  1  0  0  0  0
  6  1  1  0  0  0  0
 12  4  1  0  0  0  0
 13  5  1  0  0  0  0
 14  5  1  0  0  0  0
 15  6  1  0  0  0  0
 16  6  1  0  0  0  0
 17  1  1  0  0  0  0
 17 22  1  0  0  0  0
 18 17  2  0  0  0  0
 19 18  1  0  0  0  0
 19 20  2  0  0  0  0
 20 21  1  0  0  0  0
 21 22  2  0  0  0  0
 21 25  1  0  0  0  0
 23 18  1  0  0  0  0
 24 19  1  0  0  0  0
 26 33  2  0  0  0  0
 26 27  1  0  0  0  0
 27 29  2  0  0  0  0
 28 27  1  0  0  0  0
 29 31  1  0  0  0  0
 29 30  1  0  0  0  0
 32 31  2  0  0  0  0
 33 32  1  0  0  0  0
M  END
>  <minimizedAffinity>
-4.93591118

$$$$

 OpenBabel03272505563D

 33 35  0  0  1  0  0  0  0  0999 V2000
   38.3000   26.8040   34.1470 C   0  0  2  0  0  0  0  0  0  0  0  0
   37.4820   27.8970   34.7870 C   0  0  0  0  0  0  0  0  0  0  0  0
   36.2760   28.2480   33.9690 C   0  0  2  0  0  0  0  0  0  0  0  0
   36.6520   28.6480   32.5570 C   0  0  0  0  0  0  0  0  0  0  0  0
   37.6100   27.6960   31.9160 C   0  0  0  0  0  0  0  0  0  0  0  0
   37.8850   26.4670   32.7550 C   0  0  0  0  0  0  0  0  0  0  0  0
   39.3850   27.0690   34.1440 H   0  0  0  0  0  0  0  0  0  0  0  0
   37.1190   27.6170   35.7970 H   0  0  0  0  0  0  0  0  0  0  0  0
   38.1420   28.7810   34.9060 H   0  0  0  0  0  0  0  0  0  0  0  0
   35.6400   27.3300   33.9340 H   0  0  0  0  0  0  0  0  0  0  0  0
   37.2080   29.6230   32.6770 H   0  0  0  0  0  0  0  0  0  0  0  0
   35.7570   28.8880   31.9840 H   0  0  0  0  0  0  0  0  0  0  0  0
   37.0970   27.3060   30.9880 H   0  0  0  0  0  0  0  0  0  0  0  0
   38.5300   28.1750   31.5300 H   0  0  0  0  0  0  0  0  0  0  0  0
   36.9660   25.8390   32.7400 H   0  0  0  0  0  0  0  0  0  0  0  0
   38.7370   25.9550   32.2600 H   0  0  0  0  0  0  0  0  0  0  0  0
   38.2100   25.5540   34.9630 C   0  0  0  0  0  0  0  0  0  0  0  0
   38.1490   25.7210   36.3580 C   0  0  0  0  0  0  0  0  0  0  0  0
   38.0730   24.5650   37.1310 C   0  0  0  0  0  0  0  0  0  0  0  0
   38.0620   23.3390   36.4960 N   0  0  0  0  0  0  0  0  0  0  0  0
   38.1230   23.2250   35.1500 C   0  0  0  0  0  0  0  0  0  0  0  0
   38.1960   24.3240   34.3970 N   0  0  0  0  0  0  0  0  0  0  0  0
   38.1560   26.6420   36.8900 H   0  0  0  0  0  0  0  0  0  0  0  0
   38.0210   24.5950   38.2160 H   0  0  0  0  0  0  0  0  0  0  0  0
   38.1090   22.2200   34.7500 H   0  0  0  0  0  0  0  0  0  0  0  0
   35.4900   29.3280   34.5570 C   0  0  0  0  0  0  0  0  0  0  0  0
   36.0730   30.3460   35.2580 C   0  0  0  0  0  0  0  0  0  0  0  0
   37.1590   30.4060   35.4140 H   0  0  0  0  0  0  0  0  0  0  0  0
   35.3140   31.3690   35.8140 C   0  0  0  0  0  0  0  0  0  0  0  0
   35.7160   32.2060   36.3810 H   0  0  0  0  0  0  0  0  0  0  0  0
   33.9450   31.3690   35.6610 C   0  0  0  0  0  3  0  0  0  0  0  0
   33.3740   30.3320   34.9520 C   0  0  0  0  0  3  0  0  0  0  0  0
   34.1440   29.3830   34.4440 N   0  0  0  0  0  0  0  0  0  0  0  0
  1  7  1  6  0  0  0
  1  2  1  0  0  0  0
  1 17  1  0  0  0  0
  2  9  1  0  0  0  0
  2  8  1  0  0  0  0
  3 10  1  6  0  0  0
  3 26  1  0  0  0  0
  3  2  1  0  0  0  0
  4 11  1  0  0  0  0
  4  3  1  0  0  0  0
  5  4  1  0  0  0  0
  5  6  1  0  0  0  0
  6  1  1  0  0  0  0
 12  4  1  0  0  0  0
 13  5  1  0  0  0  0
 14  5  1  0  0  0  0
 15  6  1  0  0  0  0
 16  6  1  0  0  0  0
 17 18  1  0  0  0  0
 18 23  1  0  0  0  0
 18 19  2  0  0  0  0
 19 24  1  0  0  0  0
 20 19  1  0  0  0  0
 21 20  2  0  0  0  0
 22 17  2  0  0  0  0
 22 21  1  0  0  0  0
 25 21  1  0  0  0  0
 26 27  1  0  0  0  0
 27 28  1  0  0  0  0
 27 29  2  0  0  0  0
 29 30  1  0  0  0  0
 31 29  1  0  0  0  0
 32 31  2  0  0  0  0
 33 26  2  0  0  0  0
 33 32  1  0  0  0  0
M  END
>  <minimizedAffinity>
-4.89829302

$$$$

 OpenBabel03272505563D

 33 35  0  0  1  0  0  0  0  0999 V2000
   39.0390   25.5400   32.2320 C   0  0  2  0  0  0  0  0  0  0  0  0
   39.4090   24.5150   33.2740 C   0  0  0  0  0  0  0  0  0  0  0  0
   39.5850   25.1290   34.6290 C   0  0  2  0  0  0  0  0  0  0  0  0
   40.6150   26.2400   34.6140 C   0  0  0  0  0  0  0  0  0  0  0  0
   40.4150   27.2050   33.4900 C   0  0  0  0  0  0  0  0  0  0  0  0
   39.1500   26.9520   32.6990 C   0  0  0  0  0  0  0  0  0  0  0  0
   39.6620   25.4160   31.3130 H   0  0  0  0  0  0  0  0  0  0  0  0
   38.6430   23.7190   33.3750 H   0  0  0  0  0  0  0  0  0  0  0  0
   40.3490   24.0280   32.9430 H   0  0  0  0  0  0  0  0  0  0  0  0
   38.5910   25.5540   34.9150 H   0  0  0  0  0  0  0  0  0  0  0  0
   41.5940   25.7160   34.4100 H   0  0  0  0  0  0  0  0  0  0  0  0
   40.7150   26.6740   35.6080 H   0  0  0  0  0  0  0  0  0  0  0  0
   40.2630   28.2180   33.9650 H   0  0  0  0  0  0  0  0  0  0  0  0
   41.3080   27.3430   32.8500 H   0  0  0  0  0  0  0  0  0  0  0  0
   38.2900   27.2410   33.3440 H   0  0  0  0  0  0  0  0  0  0  0  0
   39.2250   27.6030   31.8030 H   0  0  0  0  0  0  0  0  0  0  0  0
   37.6310   25.3220   31.7780 C   0  0  0  0  0  0  0  0  0  0  0  0
   36.8590   26.4770   31.5590 C   0  0  0  0  0  0  0  0  0  0  0  0
   35.5420   26.2890   31.1440 C   0  0  0  0  0  0  0  0  0  0  0  0
   35.0750   25.0010   30.9740 N   0  0  0  0  0  0  0  0  0  0  0  0
   35.8550   23.9180   31.1970 C   0  0  0  0  0  0  0  0  0  0  0  0
   37.1170   24.0840   31.5940 N   0  0  0  0  0  0  0  0  0  0  0  0
   37.1740   27.4860   31.6780 H   0  0  0  0  0  0  0  0  0  0  0  0
   34.8710   27.1210   30.9500 H   0  0  0  0  0  0  0  0  0  0  0  0
   35.3950   22.9530   31.0350 H   0  0  0  0  0  0  0  0  0  0  0  0
   39.9760   24.1560   35.6440 C   0  0  0  0  0  0  0  0  0  0  0  0
   41.2190   23.5880   35.6580 C   0  0  0  0  0  0  0  0  0  0  0  0
   41.9860   23.8330   34.9100 H   0  0  0  0  0  0  0  0  0  0  0  0
   41.5800   22.6620   36.6300 C   0  0  0  0  0  0  0  0  0  0  0  0
   42.5500   22.1750   36.6960 H   0  0  0  0  0  0  0  0  0  0  0  0
   40.6760   22.3020   37.6050 C   0  0  0  0  0  3  0  0  0  0  0  0
   39.4260   22.8850   37.5740 C   0  0  0  0  0  3  0  0  0  0  0  0
   39.1340   23.7610   36.6250 N   0  0  0  0  0  0  0  0  0  0  0  0
  1  7  1  6  0  0  0
  1  6  1  0  0  0  0
  1  2  1  0  0  0  0
  2  8  1  0  0  0  0
  2  3  1  0  0  0  0
  3 10  1  1  0  0  0
  3 26  1  0  0  0  0
  4  3  1  0  0  0  0
  4 12  1  0  0  0  0
  5 13  1  0  0  0  0
  5  4  1  0  0  0  0
  6 15  1  0  0  0  0
  6  5  1  0  0  0  0
  9  2  1  0  0  0  0
 11  4  1  0  0  0  0
 14  5  1  0  0  0  0
 16  6  1  0  0  0  0
 17  1  1  0  0  0  0
 18 23  1  0  0  0  0
 18 17  2  0  0  0  0
 19 18  1  0  0  0  0
 20 19  2  0  0  0  0
 20 21  1  0  0  0  0
 21 22  2  0  0  0  0
 22 17  1  0  0  0  0
 24 19  1  0  0  0  0
 25 21  1  0  0  0  0
 26 27  2  0  0  0  0
 26 33  1  0  0  0  0
 27 29  1  0  0  0  0
 28 27  1  0  0  0  0
 29 30  1  0  0  0  0
 29 31  2  0  0  0  0
 32 31  1  0  0  0  0
 33 32  2  0  0  0  0
M  END
>  <minimizedAffinity>
-4.83408165

$$$$

 OpenBabel03272505563D

 33 35  0  0  1  0  0  0  0  0999 V2000
   38.6310   25.0980   35.8920 C   0  0  2  0  0  0  0  0  0  0  0  0
   39.8490   24.2190   35.7580 C   0  0  0  0  0  0  0  0  0  0  0  0
   39.6580   22.8890   36.4240 C   0  0  2  0  0  0  0  0  0  0  0  0
   39.2920   23.0400   37.8860 C   0  0  0  0  0  0  0  0  0  0  0  0
   38.2010   24.0370   38.1140 C   0  0  0  0  0  0  0  0  0  0  0  0
   37.6000   24.5730   36.8330 C   0  0  0  0  0  0  0  0  0  0  0  0
   38.9170   26.1280   36.2110 H   0  0  0  0  0  0  0  0  0  0  0  0
   40.1110   24.0170   34.6990 H   0  0  0  0  0  0  0  0  0  0  0  0
   40.7030   24.7620   36.2130 H   0  0  0  0  0  0  0  0  0  0  0  0
   38.8190   22.3840   35.8850 H   0  0  0  0  0  0  0  0  0  0  0  0
   40.2170   23.4690   38.3680 H   0  0  0  0  0  0  0  0  0  0  0  0
   39.1500   22.0610   38.3410 H   0  0  0  0  0  0  0  0  0  0  0  0
   37.3600   23.4770   38.6190 H   0  0  0  0  0  0  0  0  0  0  0  0
   38.4630   24.8330   38.8380 H   0  0  0  0  0  0  0  0  0  0  0  0
   37.0040   23.7510   36.3750 H   0  0  0  0  0  0  0  0  0  0  0  0
   36.9550   25.4230   37.1410 H   0  0  0  0  0  0  0  0  0  0  0  0
   37.9790   25.2730   34.5570 C   0  0  0  0  0  0  0  0  0  0  0  0
   37.4640   26.5520   34.2760 C   0  0  0  0  0  0  0  0  0  0  0  0
   36.8470   26.7280   33.0400 C   0  0  0  0  0  0  0  0  0  0  0  0
   36.7740   25.6550   32.1730 N   0  0  0  0  0  0  0  0  0  0  0  0
   37.2830   24.4420   32.4860 C   0  0  0  0  0  0  0  0  0  0  0  0
   37.8770   24.2590   33.6660 N   0  0  0  0  0  0  0  0  0  0  0  0
   37.4960   27.4040   34.9110 H   0  0  0  0  0  0  0  0  0  0  0  0
   36.4210   27.6800   32.7350 H   0  0  0  0  0  0  0  0  0  0  0  0
   37.1750   23.6680   31.7390 H   0  0  0  0  0  0  0  0  0  0  0  0
   40.8400   22.0380   36.3340 C   0  0  0  0  0  0  0  0  0  0  0  0
   41.4550   21.7810   35.1410 C   0  0  0  0  0  0  0  0  0  0  0  0
   41.0960   22.2020   34.1910 H   0  0  0  0  0  0  0  0  0  0  0  0
   42.5800   20.9680   35.0660 C   0  0  0  0  0  0  0  0  0  0  0  0
   43.1150   20.7260   34.1510 H   0  0  0  0  0  0  0  0  0  0  0  0
   43.0950   20.4030   36.2130 C   0  0  0  0  0  3  0  0  0  0  0  0
   42.4590   20.6720   37.4070 C   0  0  0  0  0  3  0  0  0  0  0  0
   41.3910   21.4530   37.4210 N   0  0  0  0  0  0  0  0  0  0  0  0
  1  7  1  1  0  0  0
  1  6  1  0  0  0  0
  2  1  1  0  0  0  0
  2  9  1  0  0  0  0
  2  3  1  0  0  0  0
  3 10  1  6  0  0  0
  3  4  1  0  0  0  0
  4  5  1  0  0  0  0
  4 12  1  0  0  0  0
  4 11  1  0  0  0  0
  5 13  1  0  0  0  0
  5 14  1  0  0  0  0
  6 16  1  0  0  0  0
  6  5  1  0  0  0  0
  8  2  1  0  0  0  0
 15  6  1  0  0  0  0
 17  1  1  0  0  0  0
 18 17  1  0  0  0  0
 18 23  1  0  0  0  0
 19 18  2  0  0  0  0
 20 21  2  0  0  0  0
 20 19  1  0  0  0  0
 21 22  1  0  0  0  0
 22 17  2  0  0  0  0
 24 19  1  0  0  0  0
 25 21  1  0  0  0  0
 26  3  1  0  0  0  0
 26 33  1  0  0  0  0
 27 26  2  0  0  0  0
 28 27  1  0  0  0  0
 29 27  1  0  0  0  0
 29 31  2  0  0  0  0
 30 29  1  0  0  0  0
 31 32  1  0  0  0  0
 32 33  2  0  0  0  0
M  END
>  <minimizedAffinity>
-4.81786966

$$$$

 OpenBabel03272505563D

 33 35  0  0  1  0  0  0  0  0999 V2000
   36.5500   23.3560   30.9890 C   0  0  2  0  0  0  0  0  0  0  0  0
   37.6830   23.9590   31.7800 C   0  0  0  0  0  0  0  0  0  0  0  0
   37.2010   24.9860   32.7600 C   0  0  2  0  0  0  0  0  0  0  0  0
   36.4080   26.0830   32.0800 C   0  0  0  0  0  0  0  0  0  0  0  0
   35.3750   25.5570   31.1360 C   0  0  0  0  0  0  0  0  0  0  0  0
   35.2430   24.0500   31.1700 C   0  0  0  0  0  0  0  0  0  0  0  0
   36.7950   23.3300   29.9000 H   0  0  0  0  0  0  0  0  0  0  0  0
   38.2470   23.1990   32.3580 H   0  0  0  0  0  0  0  0  0  0  0  0
   38.3900   24.4150   31.0560 H   0  0  0  0  0  0  0  0  0  0  0  0
   36.5370   24.4470   33.4810 H   0  0  0  0  0  0  0  0  0  0  0  0
   37.1660   26.6290   31.4460 H   0  0  0  0  0  0  0  0  0  0  0  0
   36.0620   26.8080   32.8150 H   0  0  0  0  0  0  0  0  0  0  0  0
   34.3810   25.9450   31.5060 H   0  0  0  0  0  0  0  0  0  0  0  0
   35.4530   25.9650   30.1090 H   0  0  0  0  0  0  0  0  0  0  0  0
   34.7620   23.7790   32.1370 H   0  0  0  0  0  0  0  0  0  0  0  0
   34.5960   23.7900   30.3050 H   0  0  0  0  0  0  0  0  0  0  0  0
   36.3610   21.9240   31.3780 C   0  0  0  0  0  0  0  0  0  0  0  0
   35.3270   21.6570   32.2930 C   0  0  0  0  0  0  0  0  0  0  0  0
   35.1440   20.3290   32.6710 C   0  0  0  0  0  0  0  0  0  0  0  0
   35.9750   19.3640   32.1370 N   0  0  0  0  0  0  0  0  0  0  0  0
   36.9590   19.6680   31.2590 C   0  0  0  0  0  0  0  0  0  0  0  0
   37.1440   20.9360   30.8880 N   0  0  0  0  0  0  0  0  0  0  0  0
   34.6640   22.3650   32.7300 H   0  0  0  0  0  0  0  0  0  0  0  0
   34.3700   20.0260   33.3720 H   0  0  0  0  0  0  0  0  0  0  0  0
   37.5550   18.8400   30.8990 H   0  0  0  0  0  0  0  0  0  0  0  0
   38.2870   25.6050   33.5120 C   0  0  0  0  0  0  0  0  0  0  0  0
   38.0530   26.5300   34.4890 C   0  0  0  0  0  0  0  0  0  0  0  0
   37.0390   26.8560   34.7600 H   0  0  0  0  0  0  0  0  0  0  0  0
   39.0960   27.1140   35.1980 C   0  0  0  0  0  0  0  0  0  0  0  0
   38.9770   27.8550   35.9860 H   0  0  0  0  0  0  0  0  0  0  0  0
   40.3980   26.7600   34.9200 C   0  0  0  0  0  3  0  0  0  0  0  0
   40.6150   25.8240   33.9300 C   0  0  0  0  0  3  0  0  0  0  0  0
   39.5850   25.3000   33.2850 N   0  0  0  0  0  0  0  0  0  0  0  0
  1  7  1  6  0  0  0
  1  6  1  0  0  0  0
  1 17  1  0  0  0  0
  1  2  1  0  0  0  0
  2  8  1  0  0  0  0
  2  3  1  0  0  0  0
  3 10  1  1  0  0  0
  3 26  1  0  0  0  0
  4  3  1  0  0  0  0
  4 12  1  0  0  0  0
  5  6  1  0  0  0  0
  5 13  1  0  0  0  0
  5  4  1  0  0  0  0
  6 15  1  0  0  0  0
  9  2  1  0  0  0  0
 11  4  1  0  0  0  0
 14  5  1  0  0  0  0
 16  6  1  0  0  0  0
 17 18  1  0  0  0  0
 18 19  2  0  0  0  0
 18 23  1  0  0  0  0
 19 24  1  0  0  0  0
 20 19  1  0  0  0  0
 21 20  2  0  0  0  0
 22 21  1  0  0  0  0
 22 17  2  0  0  0  0
 25 21  1  0  0  0  0
 26 27  1  0  0  0  0
 27 28  1  0  0  0  0
 27 29  2  0  0  0  0
 29 30  1  0  0  0  0
 31 29  1  0  0  0  0
 32 31  2  0  0  0  0
 33 26  2  0  0  0  0
 33 32  1  0  0  0  0
M  END
>  <minimizedAffinity>
-4.8123827

$$$$

 OpenBabel03272505563D

 33 35  0  0  1  0  0  0  0  0999 V2000
   39.4870   26.1720   34.7100 C   0  0  2  0  0  0  0  0  0  0  0  0
   38.3380   27.1490   34.7240 C   0  0  0  0  0  0  0  0  0  0  0  0
   37.5850   27.1490   33.4290 C   0  0  2  0  0  0  0  0  0  0  0  0
   38.4910   27.4400   32.2510 C   0  0  0  0  0  0  0  0  0  0  0  0
   39.7470   26.6280   32.2660 C   0  0  0  0  0  0  0  0  0  0  0  0
   39.7770   25.5910   33.3680 C   0  0  0  0  0  0  0  0  0  0  0  0
   40.4180   26.6470   35.1040 H   0  0  0  0  0  0  0  0  0  0  0  0
   37.6050   26.9280   35.5270 H   0  0  0  0  0  0  0  0  0  0  0  0
   38.7590   28.1550   34.9290 H   0  0  0  0  0  0  0  0  0  0  0  0
   37.1520   26.1250   33.3150 H   0  0  0  0  0  0  0  0  0  0  0  0
   38.8090   28.5140   32.3950 H   0  0  0  0  0  0  0  0  0  0  0  0
   37.9200   27.4240   31.3240 H   0  0  0  0  0  0  0  0  0  0  0  0
   39.7510   26.0330   31.3060 H   0  0  0  0  0  0  0  0  0  0  0  0
   40.6740   27.2300   32.2090 H   0  0  0  0  0  0  0  0  0  0  0  0
   39.0470   24.7950   33.0970 H   0  0  0  0  0  0  0  0  0  0  0  0
   40.8170   25.2030   33.3820 H   0  0  0  0  0  0  0  0  0  0  0  0
   39.2050   25.0380   35.6440 C   0  0  0  0  0  0  0  0  0  0  0  0
   38.1050   25.1990   36.5060 C   0  0  0  0  0  0  0  0  0  0  0  0
   37.8350   24.1540   37.3880 C   0  0  0  0  0  0  0  0  0  0  0  0
   38.6490   23.0390   37.3680 N   0  0  0  0  0  0  0  0  0  0  0  0
   39.6970   22.9280   36.5200 C   0  0  0  0  0  0  0  0  0  0  0  0
   39.9670   23.9210   35.6710 N   0  0  0  0  0  0  0  0  0  0  0  0
   37.4530   26.0380   36.5580 H   0  0  0  0  0  0  0  0  0  0  0  0
   37.0070   24.1870   38.0910 H   0  0  0  0  0  0  0  0  0  0  0  0
   40.2730   22.0150   36.5830 H   0  0  0  0  0  0  0  0  0  0  0  0
   36.4890   28.1130   33.4130 C   0  0  0  0  0  0  0  0  0  0  0  0
   36.1640   28.8550   34.5130 C   0  0  0  0  0  0  0  0  0  0  0  0
   36.7070   28.7650   35.4640 H   0  0  0  0  0  0  0  0  0  0  0  0
   35.1180   29.7700   34.4870 C   0  0  0  0  0  0  0  0  0  0  0  0
   34.8100   30.3890   35.3260 H   0  0  0  0  0  0  0  0  0  0  0  0
   34.3870   29.9430   33.3310 C   0  0  0  0  0  3  0  0  0  0  0  0
   34.7300   29.1850   32.2310 C   0  0  0  0  0  3  0  0  0  0  0  0
   35.7350   28.3270   32.3110 N   0  0  0  0  0  0  0  0  0  0  0  0
  1  2  1  0  0  0  0
  1  7  1  1  0  0  0
  1 17  1  0  0  0  0
  2  9  1  0  0  0  0
  2  8  1  0  0  0  0
  3 10  1  6  0  0  0
  3  2  1  0  0  0  0
  4  5  1  0  0  0  0
  4 11  1  0  0  0  0
  4  3  1  0  0  0  0
  5  6  1  0  0  0  0
  6 16  1  0  0  0  0
  6  1  1  0  0  0  0
 12  4  1  0  0  0  0
 13  5  1  0  0  0  0
 14  5  1  0  0  0  0
 15  6  1  0  0  0  0
 17 22  2  0  0  0  0
 17 18  1  0  0  0  0
 18 23  1  0  0  0  0
 18 19  2  0  0  0  0
 19 24  1  0  0  0  0
 20 19  1  0  0  0  0
 21 25  1  0  0  0  0
 21 20  2  0  0  0  0
 22 21  1  0  0  0  0
 26  3  1  0  0  0  0
 26 27  1  0  0  0  0
 27 28  1  0  0  0  0
 29 27  2  0  0  0  0
 29 30  1  0  0  0  0
 31 29  1  0  0  0  0
 32 33  1  0  0  0  0
 32 31  2  0  0  0  0
 33 26  2  0  0  0  0
M  END
>  <minimizedAffinity>
-4.79045296

$$$$

 OpenBabel03272505563D

 33 35  0  0  1  0  0  0  0  0999 V2000
   39.3050   25.9450   35.3140 C   0  0  2  0  0  0  0  0  0  0  0  0
   38.4950   26.6800   34.2770 C   0  0  0  0  0  0  0  0  0  0  0  0
   39.1810   26.7100   32.9450 C   0  0  2  0  0  0  0  0  0  0  0  0
   40.5650   27.3180   33.0400 C   0  0  0  0  0  0  0  0  0  0  0  0
   41.3720   26.7590   34.1690 C   0  0  0  0  0  0  0  0  0  0  0  0
   40.6920   25.6100   34.8800 C   0  0  0  0  0  0  0  0  0  0  0  0
   39.3570   26.5280   36.2650 H   0  0  0  0  0  0  0  0  0  0  0  0
   37.4970   26.2220   34.1170 H   0  0  0  0  0  0  0  0  0  0  0  0
   38.3280   27.7110   34.6520 H   0  0  0  0  0  0  0  0  0  0  0  0
   39.2690   25.6470   32.6100 H   0  0  0  0  0  0  0  0  0  0  0  0
   40.3820   28.4040   33.2910 H   0  0  0  0  0  0  0  0  0  0  0  0
   41.0440   27.3190   32.0620 H   0  0  0  0  0  0  0  0  0  0  0  0
   42.2970   26.3080   33.7040 H   0  0  0  0  0  0  0  0  0  0  0  0
   41.7700   27.5260   34.8610 H   0  0  0  0  0  0  0  0  0  0  0  0
   40.7080   24.7350   34.1920 H   0  0  0  0  0  0  0  0  0  0  0  0
   41.2990   25.4250   35.7910 H   0  0  0  0  0  0  0  0  0  0  0  0
   38.6240   24.6650   35.6820 C   0  0  0  0  0  0  0  0  0  0  0  0
   38.1430   24.5710   37.0010 C   0  0  0  0  0  0  0  0  0  0  0  0
   37.5130   23.3810   37.3610 C   0  0  0  0  0  0  0  0  0  0  0  0
   37.3990   22.3770   36.4190 N   0  0  0  0  0  0  0  0  0  0  0  0
   37.8780   22.5120   35.1620 C   0  0  0  0  0  0  0  0  0  0  0  0
   38.4830   23.6460   34.8040 N   0  0  0  0  0  0  0  0  0  0  0  0
   38.2090   25.3150   37.7580 H   0  0  0  0  0  0  0  0  0  0  0  0
   37.1090   23.2160   38.3560 H   0  0  0  0  0  0  0  0  0  0  0  0
   37.7380   21.6680   34.5000 H   0  0  0  0  0  0  0  0  0  0  0  0
   38.4260   27.4470   31.9370 C   0  0  0  0  0  0  0  0  0  0  0  0
   37.1600   27.9020   32.1730 C   0  0  0  0  0  0  0  0  0  0  0  0
   36.6450   27.7400   33.1310 H   0  0  0  0  0  0  0  0  0  0  0  0
   36.4500   28.6030   31.2050 C   0  0  0  0  0  0  0  0  0  0  0  0
   35.4420   28.9910   31.3300 H   0  0  0  0  0  0  0  0  0  0  0  0
   37.0240   28.8490   29.9770 C   0  0  0  0  0  3  0  0  0  0  0  0
   38.3030   28.3810   29.7570 C   0  0  0  0  0  3  0  0  0  0  0  0
   38.9340   27.7190   30.7130 N   0  0  0  0  0  0  0  0  0  0  0  0
  1 17  1  0  0  0  0
  1  7  1  1  0  0  0
  2  9  1  0  0  0  0
  2  1  1  0  0  0  0
  3 10  1  6  0  0  0
  3  4  1  0  0  0  0
  3  2  1  0  0  0  0
  4 11  1  0  0  0  0
  4  5  1  0  0  0  0
  5 14  1  0  0  0  0
  5  6  1  0  0  0  0
  6  1  1  0  0  0  0
  6 16  1  0  0  0  0
  8  2  1  0  0  0  0
 12  4  1  0  0  0  0
 13  5  1  0  0  0  0
 15  6  1  0  0  0  0
 17 18  1  0  0  0  0
 18 19  2  0  0  0  0
 18 23  1  0  0  0  0
 19 24  1  0  0  0  0
 20 19  1  0  0  0  0
 21 20  2  0  0  0  0
 22 21  1  0  0  0  0
 22 17  2  0  0  0  0
 25 21  1  0  0  0  0
 26 27  1  0  0  0  0
 26  3  1  0  0  0  0
 27 28  1  0  0  0  0
 29 30  1  0  0  0  0
 29 27  2  0  0  0  0
 31 29  1  0  0  0  0
 32 31  2  0  0  0  0
 32 33  1  0  0  0  0
 33 26  2  0  0  0  0
M  END
>  <minimizedAffinity>
-4.77937937

$$$$
