
 OpenBabel03262523063D

 40 44  0  0  0  0  0  0  0  0999 V2000
   37.3710   31.0040   49.6280 C   0  0  0  0  0  0  0  0  0  0  0  0
   37.6070   30.6280   50.9240 C   0  0  0  0  0  0  0  0  0  0  0  0
   36.7820   29.7000   51.4960 C   0  0  0  0  0  0  0  0  0  0  0  0
   35.7500   29.1640   50.7830 N   0  0  0  0  0  0  0  0  0  0  0  0
   35.5590   29.5600   49.5220 C   0  0  0  0  0  0  0  0  0  0  0  0
   36.3560   30.4730   48.9330 N   0  0  0  0  0  0  0  0  0  0  0  0
   38.4560   31.1110   51.4150 H   0  0  0  0  0  0  0  0  0  0  0  0
   36.9770   29.4090   52.5240 H   0  0  0  0  0  0  0  0  0  0  0  0
   34.4590   28.9890   48.7640 C   0  0  0  0  0  0  0  0  0  0  0  0
   34.5040   28.9190   47.3850 C   0  0  0  0  0  0  0  0  0  0  0  0
   33.5480   28.4110   46.5380 C   0  0  0  0  0  0  0  0  0  0  0  0
   32.4240   27.9200   47.1860 C   0  0  0  0  0  0  0  0  0  0  0  0
   31.4310   27.3980   46.4120 N   0  0  0  0  0  0  0  0  0  0  0  0
   30.2930   26.8940   46.9470 C   0  0  0  0  0  0  0  0  0  0  0  0
   30.1370   26.9090   48.3210 C   0  0  0  0  0  0  0  0  0  0  0  0
   31.1450   27.4400   49.1050 C   0  0  0  0  0  0  0  0  0  0  0  0
   32.3110   27.9560   48.5560 C   0  0  0  0  0  0  0  0  0  0  0  0
   33.3120   28.4820   49.3390 C   0  0  0  0  0  0  0  0  0  0  0  0
   35.4120   29.3190   46.9220 H   0  0  0  0  0  0  0  0  0  0  0  0
   33.6820   28.4040   45.4840 H   0  0  0  0  0  0  0  0  0  0  0  0
   29.5180   26.4840   46.3030 H   0  0  0  0  0  0  0  0  0  0  0  0
   29.2480   26.5200   48.7960 H   0  0  0  0  0  0  0  0  0  0  0  0
   31.0190   27.4500   50.1820 H   0  0  0  0  0  0  0  0  0  0  0  0
   33.2180   28.5090   50.4160 H   0  0  0  0  0  0  0  0  0  0  0  0
   39.4530   33.9690   48.9610 C   0  0  0  0  0  0  0  0  0  0  0  0
   39.8120   33.8160   47.6290 C   0  0  0  0  0  0  0  0  0  0  0  0
   39.3180   32.6680   46.9710 C   0  0  0  0  0  0  0  0  0  0  0  0
   38.5420   31.8020   47.6600 N   0  0  0  0  0  0  0  0  0  0  0  0
   38.2190   31.9930   48.9590 C   0  0  0  0  0  0  0  0  0  0  0  0
   38.6840   33.0800   49.5850 N   0  0  0  0  0  0  0  0  0  0  0  0
   39.8520   34.8550   49.4160 H   0  0  0  0  0  0  0  0  0  0  0  0
   40.4200   34.4880   47.0790 H   0  0  0  0  0  0  0  0  0  0  0  0
   39.5970   32.3530   45.5780 C   0  0  0  0  0  0  0  0  0  0  0  0
   40.2820   31.2360   45.1660 C   0  0  0  0  0  0  0  0  0  0  0  0
   40.6480   30.5300   45.8970 H   0  0  0  0  0  0  0  0  0  0  0  0
   40.5610   30.9100   43.8570 C   0  0  0  0  0  0  0  0  0  0  0  0
   41.1060   30.0160   43.5750 H   0  0  0  0  0  0  0  0  0  0  0  0
   40.1290   31.7600   42.8600 C   0  0  0  0  0  0  0  0  0  0  0  0
   39.4430   32.8780   43.2840 C   0  0  0  0  0  0  0  0  0  0  0  0
   39.1970   33.1510   44.5620 N   0  0  0  0  0  0  0  0  0  0  0  0
  1  2  1  0  0  0  0
  2  7  1  0  0  0  0
  2  3  2  0  0  0  0
  3  8  1  0  0  0  0
  4  3  1  0  0  0  0
  5  4  2  0  0  0  0
  6  5  1  0  0  0  0
  6  1  2  0  0  0  0
  9 18  1  0  0  0  0
  9  5  1  0  0  0  0
 10  9  2  0  0  0  0
 11 12  2  0  0  0  0
 11 10  1  0  0  0  0
 12 17  1  0  0  0  0
 13 14  2  0  0  0  0
 13 12  1  0  0  0  0
 14 15  1  0  0  0  0
 15 22  1  0  0  0  0
 15 16  2  0  0  0  0
 16 23  1  0  0  0  0
 17 16  1  0  0  0  0
 17 18  2  0  0  0  0
 18 24  1  0  0  0  0
 19 10  1  0  0  0  0
 20 11  1  0  0  0  0
 21 14  1  0  0  0  0
 25 31  1  0  0  0  0
 25 30  1  0  0  0  0
 26 25  2  0  0  0  0
 27 26  1  0  0  0  0
 27 28  2  0  0  0  0
 28 29  1  0  0  0  0
 29 30  2  0  0  0  0
 29  1  1  0  0  0  0
 32 26  1  0  0  0  0
 33 27  1  0  0  0  0
 34 33  1  0  0  0  0
 34 35  1  0  0  0  0
 36 34  2  0  0  0  0
 37 36  1  0  0  0  0
 38 39  2  0  0  0  0
 38 36  1  0  0  0  0
 39 40  1  0  0  0  0
 40 33  2  0  0  0  0
M  END
>  <minimizedAffinity>
-7.75365973

>  <minimizedRMSD>
0.418459922

$$$$
