
 OpenBabel03272507083D

 38 42  0  0  0  0  0  0  0  0999 V2000
   37.0470   28.9980   31.1220 C   0  0  0  0  0  0  0  0  0  0  0  0
   37.4760   27.6840   31.3510 C   0  0  0  0  0  0  0  0  0  0  0  0
   37.1020   27.0990   32.5780 C   0  0  0  0  0  0  0  0  0  0  0  0
   36.3620   27.8170   33.4560 N   0  0  0  0  0  0  0  0  0  0  0  0
   35.9740   29.0830   33.1890 C   0  0  0  0  0  0  0  0  0  0  0  0
   36.3160   29.6700   32.0240 N   0  0  0  0  0  0  0  0  0  0  0  0
   37.3400   29.4390   30.1760 H   0  0  0  0  0  0  0  0  0  0  0  0
   38.0650   27.0860   30.6700 H   0  0  0  0  0  0  0  0  0  0  0  0
   33.8230   29.4890   34.2950 C   0  0  0  0  0  0  0  0  0  0  0  0
   35.1770   29.7890   34.1920 C   0  0  0  0  0  0  0  0  0  0  0  0
   35.7340   30.7220   35.0110 C   0  0  0  0  0  0  0  0  0  0  0  0
   34.9930   31.3840   35.9480 C   0  0  0  0  0  0  0  0  0  0  0  0
   35.3020   32.3330   36.8630 N   0  0  0  0  0  0  0  0  0  0  0  0
   34.1150   32.5810   37.4990 C   0  0  0  0  0  0  0  0  0  0  0  0
   33.1250   31.8140   36.9920 N   0  0  0  0  0  0  0  0  0  0  0  0
   33.6560   31.0600   36.0210 C   0  0  0  0  0  0  0  0  0  0  0  0
   33.0380   30.1370   35.2310 C   0  0  0  0  0  0  0  0  0  0  0  0
   33.3740   28.7440   33.6420 H   0  0  0  0  0  0  0  0  0  0  0  0
   36.7850   30.9530   34.9280 H   0  0  0  0  0  0  0  0  0  0  0  0
   36.2300   32.7560   37.0230 H   0  0  0  0  0  0  0  0  0  0  0  0
   34.0110   33.3040   38.3020 H   0  0  0  0  0  0  0  0  0  0  0  0
   31.9920   29.8740   35.2780 H   0  0  0  0  0  0  0  0  0  0  0  0
   37.4590   25.7520   32.9740 C   0  0  0  0  0  0  0  0  0  0  0  0
   37.5390   24.6860   32.1040 C   0  0  0  0  0  0  0  0  0  0  0  0
   37.8740   23.3960   32.4420 C   0  0  0  0  0  0  0  0  0  0  0  0
   38.1420   23.1760   33.7380 N   0  0  0  0  0  0  0  0  0  0  0  0
   38.0760   24.1810   34.6230 C   0  0  0  0  0  0  0  0  0  0  0  0
   37.7470   25.4110   34.2410 N   0  0  0  0  0  0  0  0  0  0  0  0
   37.3220   24.8540   31.0400 H   0  0  0  0  0  0  0  0  0  0  0  0
   37.9130   22.6150   31.6910 H   0  0  0  0  0  0  0  0  0  0  0  0
   38.3710   23.9320   36.0350 C   0  0  0  0  0  0  0  0  0  0  0  0
   39.4630   23.1420   36.3880 C   0  0  0  0  0  0  0  0  0  0  0  0
   40.0990   22.7060   35.6020 H   0  0  0  0  0  0  0  0  0  0  0  0
   39.8030   22.8650   37.6950 C   0  0  0  0  0  0  0  0  0  0  0  0
   40.6500   22.2500   37.9670 H   0  0  0  0  0  0  0  0  0  0  0  0
   38.9630   23.4410   38.6530 C   0  0  0  0  0  3  0  0  0  0  0  0
   37.8780   24.2260   38.3230 C   0  0  0  0  0  3  0  0  0  0  0  0
   37.5950   24.4630   37.0140 N   0  0  0  0  0  0  0  0  0  0  0  0
  1  2  2  0  0  0  0
  1  6  1  0  0  0  0
  2  3  1  0  0  0  0
  3 23  1  0  0  0  0
  3  4  2  0  0  0  0
  5  4  1  0  0  0  0
  5 10  1  0  0  0  0
  6  5  2  0  0  0  0
  7  1  1  0  0  0  0
  8  2  1  0  0  0  0
  9 17  1  0  0  0  0
 10  9  2  0  0  0  0
 10 11  1  0  0  0  0
 11 12  2  0  0  0  0
 12 16  1  0  0  0  0
 12 13  1  0  0  0  0
 13 20  1  0  0  0  0
 13 14  1  0  0  0  0
 14 21  1  0  0  0  0
 15 14  2  0  0  0  0
 16 15  1  0  0  0  0
 17 22  1  0  0  0  0
 17 16  2  0  0  0  0
 18  9  1  0  0  0  0
 19 11  1  0  0  0  0
 23 28  1  0  0  0  0
 24 25  1  0  0  0  0
 24 23  2  0  0  0  0
 25 26  2  0  0  0  0
 26 27  1  0  0  0  0
 27 31  1  0  0  0  0
 28 27  2  0  0  0  0
 29 24  1  0  0  0  0
 30 25  1  0  0  0  0
 31 32  2  0  0  0  0
 31 38  1  0  0  0  0
 32 34  1  0  0  0  0
 33 32  1  0  0  0  0
 34 35  1  0  0  0  0
 34 36  2  0  0  0  0
 37 36  1  0  0  0  0
 38 37  2  0  0  0  0
M  END
>  <minimizedAffinity>
-6.92806768

$$$$

 OpenBabel03272507083D

 38 42  0  0  0  0  0  0  0  0999 V2000
   36.9240   29.1100   31.2360 C   0  0  0  0  0  0  0  0  0  0  0  0
   37.3150   27.7790   31.4330 C   0  0  0  0  0  0  0  0  0  0  0  0
   36.9930   27.2020   32.6780 C   0  0  0  0  0  0  0  0  0  0  0  0
   36.3350   27.9420   33.6020 N   0  0  0  0  0  0  0  0  0  0  0  0
   35.9790   29.2230   33.3630 C   0  0  0  0  0  0  0  0  0  0  0  0
   36.2740   29.8030   32.1810 N   0  0  0  0  0  0  0  0  0  0  0  0
   37.1770   29.5450   30.2750 H   0  0  0  0  0  0  0  0  0  0  0  0
   37.8400   27.1640   30.7160 H   0  0  0  0  0  0  0  0  0  0  0  0
   35.9990   30.8050   35.2370 C   0  0  0  0  0  0  0  0  0  0  0  0
   35.2710   29.9520   34.4140 C   0  0  0  0  0  0  0  0  0  0  0  0
   33.9300   29.8080   34.5960 C   0  0  0  0  0  0  0  0  0  0  0  0
   33.2640   30.4870   35.5760 C   0  0  0  0  0  0  0  0  0  0  0  0
   31.9650   30.5180   35.9540 N   0  0  0  0  0  0  0  0  0  0  0  0
   31.9450   31.3980   37.0040 C   0  0  0  0  0  0  0  0  0  0  0  0
   33.1810   31.8820   37.2530 N   0  0  0  0  0  0  0  0  0  0  0  0
   34.0180   31.3230   36.3710 C   0  0  0  0  0  0  0  0  0  0  0  0
   35.3630   31.5100   36.2410 C   0  0  0  0  0  0  0  0  0  0  0  0
   37.0710   30.9230   35.0950 H   0  0  0  0  0  0  0  0  0  0  0  0
   33.3680   29.1450   33.9560 H   0  0  0  0  0  0  0  0  0  0  0  0
   31.1860   29.9890   35.5300 H   0  0  0  0  0  0  0  0  0  0  0  0
   31.0400   31.6550   37.5470 H   0  0  0  0  0  0  0  0  0  0  0  0
   35.9650   32.1620   36.8570 H   0  0  0  0  0  0  0  0  0  0  0  0
   37.3220   25.8390   33.0470 C   0  0  0  0  0  0  0  0  0  0  0  0
   37.3070   24.7760   32.1710 C   0  0  0  0  0  0  0  0  0  0  0  0
   37.6130   23.4720   32.4830 C   0  0  0  0  0  0  0  0  0  0  0  0
   37.9520   23.2350   33.7590 N   0  0  0  0  0  0  0  0  0  0  0  0
   37.9790   24.2380   34.6500 C   0  0  0  0  0  0  0  0  0  0  0  0
   37.6740   25.4810   34.2930 N   0  0  0  0  0  0  0  0  0  0  0  0
   37.0320   24.9590   31.1220 H   0  0  0  0  0  0  0  0  0  0  0  0
   37.5760   22.6950   31.7290 H   0  0  0  0  0  0  0  0  0  0  0  0
   38.3510   23.9700   36.0400 C   0  0  0  0  0  0  0  0  0  0  0  0
   37.6530   24.5850   37.0770 C   0  0  0  0  0  0  0  0  0  0  0  0
   36.8250   25.2730   36.8450 H   0  0  0  0  0  0  0  0  0  0  0  0
   37.9450   24.3810   38.4090 C   0  0  0  0  0  0  0  0  0  0  0  0
   37.4030   24.8610   39.2130 H   0  0  0  0  0  0  0  0  0  0  0  0
   39.0050   23.5010   38.6470 C   0  0  0  0  0  3  0  0  0  0  0  0
   39.7070   22.8820   37.6340 C   0  0  0  0  0  3  0  0  0  0  0  0
   39.3700   23.1250   36.3390 N   0  0  0  0  0  0  0  0  0  0  0  0
  1  2  2  0  0  0  0
  1  6  1  0  0  0  0
  2  3  1  0  0  0  0
  3 23  1  0  0  0  0
  3  4  2  0  0  0  0
  5  4  1  0  0  0  0
  5 10  1  0  0  0  0
  6  5  2  0  0  0  0
  7  1  1  0  0  0  0
  8  2  1  0  0  0  0
  9 17  1  0  0  0  0
 10 11  1  0  0  0  0
 10  9  2  0  0  0  0
 11 12  2  0  0  0  0
 12 13  1  0  0  0  0
 12 16  1  0  0  0  0
 13 14  1  0  0  0  0
 14 15  2  0  0  0  0
 14 21  1  0  0  0  0
 16 15  1  0  0  0  0
 17 16  2  0  0  0  0
 17 22  1  0  0  0  0
 18  9  1  0  0  0  0
 19 11  1  0  0  0  0
 20 13  1  0  0  0  0
 23 28  1  0  0  0  0
 24 25  1  0  0  0  0
 24 23  2  0  0  0  0
 25 26  2  0  0  0  0
 26 27  1  0  0  0  0
 27 31  1  0  0  0  0
 28 27  2  0  0  0  0
 29 24  1  0  0  0  0
 30 25  1  0  0  0  0
 31 38  2  0  0  0  0
 31 32  1  0  0  0  0
 32 34  2  0  0  0  0
 33 32  1  0  0  0  0
 34 36  1  0  0  0  0
 34 35  1  0  0  0  0
 37 36  2  0  0  0  0
 38 37  1  0  0  0  0
M  END
>  <minimizedAffinity>
-6.91080999

$$$$

 OpenBabel03272507083D

 38 42  0  0  0  0  0  0  0  0999 V2000
   35.9600   24.2900   31.3720 C   0  0  0  0  0  0  0  0  0  0  0  0
   35.6260   25.6460   31.2590 C   0  0  0  0  0  0  0  0  0  0  0  0
   36.3100   26.5400   32.1070 C   0  0  0  0  0  0  0  0  0  0  0  0
   37.2370   26.0590   32.9690 N   0  0  0  0  0  0  0  0  0  0  0  0
   37.5230   24.7410   33.0410 C   0  0  0  0  0  0  0  0  0  0  0  0
   36.8850   23.8600   32.2430 N   0  0  0  0  0  0  0  0  0  0  0  0
   35.4280   23.6100   30.7160 H   0  0  0  0  0  0  0  0  0  0  0  0
   34.8930   26.0600   30.5810 H   0  0  0  0  0  0  0  0  0  0  0  0
   39.8450   24.7410   33.8280 C   0  0  0  0  0  0  0  0  0  0  0  0
   38.5370   24.3030   34.0000 C   0  0  0  0  0  0  0  0  0  0  0  0
   38.2220   23.4840   35.0400 C   0  0  0  0  0  0  0  0  0  0  0  0
   39.1660   23.0730   35.9380 C   0  0  0  0  0  0  0  0  0  0  0  0
   39.1100   22.2790   37.0330 N   0  0  0  0  0  0  0  0  0  0  0  0
   40.3990   22.2610   37.4950 C   0  0  0  0  0  0  0  0  0  0  0  0
   41.2040   23.0130   36.7150 N   0  0  0  0  0  0  0  0  0  0  0  0
   40.4500   23.5280   35.7360 C   0  0  0  0  0  0  0  0  0  0  0  0
   40.8310   24.3480   34.7140 C   0  0  0  0  0  0  0  0  0  0  0  0
   40.1010   25.3960   32.9980 H   0  0  0  0  0  0  0  0  0  0  0  0
   37.2050   23.1460   35.1700 H   0  0  0  0  0  0  0  0  0  0  0  0
   38.2730   21.8070   37.4110 H   0  0  0  0  0  0  0  0  0  0  0  0
   40.7050   21.7060   38.3780 H   0  0  0  0  0  0  0  0  0  0  0  0
   41.8330   24.7110   34.5450 H   0  0  0  0  0  0  0  0  0  0  0  0
   36.0890   27.9720   32.1200 C   0  0  0  0  0  0  0  0  0  0  0  0
   36.2950   28.7960   31.0350 C   0  0  0  0  0  0  0  0  0  0  0  0
   36.0960   30.1570   31.0090 C   0  0  0  0  0  0  0  0  0  0  0  0
   35.6640   30.7120   32.1510 N   0  0  0  0  0  0  0  0  0  0  0  0
   35.4500   29.9510   33.2350 C   0  0  0  0  0  0  0  0  0  0  0  0
   35.6580   28.6390   33.2040 N   0  0  0  0  0  0  0  0  0  0  0  0
   36.6480   28.3520   30.0930 H   0  0  0  0  0  0  0  0  0  0  0  0
   36.2830   30.7310   30.1090 H   0  0  0  0  0  0  0  0  0  0  0  0
   34.9780   30.5650   34.4770 C   0  0  0  0  0  0  0  0  0  0  0  0
   35.8440   31.3450   35.2400 C   0  0  0  0  0  0  0  0  0  0  0  0
   36.8820   31.4950   34.9050 H   0  0  0  0  0  0  0  0  0  0  0  0
   35.4710   31.9560   36.4180 C   0  0  0  0  0  0  0  0  0  0  0  0
   36.1460   32.5600   37.0100 H   0  0  0  0  0  0  0  0  0  0  0  0
   34.1440   31.7330   36.7980 C   0  0  0  0  0  3  0  0  0  0  0  0
   33.2720   30.9640   36.0560 C   0  0  0  0  0  3  0  0  0  0  0  0
   33.7010   30.3890   34.9010 N   0  0  0  0  0  0  0  0  0  0  0  0
  1  6  1  0  0  0  0
  2  1  2  0  0  0  0
  2  3  1  0  0  0  0
  3 23  1  0  0  0  0
  3  4  2  0  0  0  0
  4  5  1  0  0  0  0
  5 10  1  0  0  0  0
  6  5  2  0  0  0  0
  7  1  1  0  0  0  0
  8  2  1  0  0  0  0
  9 10  2  0  0  0  0
  9 17  1  0  0  0  0
 10 11  1  0  0  0  0
 11 19  1  0  0  0  0
 11 12  2  0  0  0  0
 12 13  1  0  0  0  0
 13 20  1  0  0  0  0
 13 14  1  0  0  0  0
 14 21  1  0  0  0  0
 15 14  2  0  0  0  0
 16 12  1  0  0  0  0
 16 15  1  0  0  0  0
 17 16  2  0  0  0  0
 18  9  1  0  0  0  0
 22 17  1  0  0  0  0
 23 28  1  0  0  0  0
 24 23  2  0  0  0  0
 25 24  1  0  0  0  0
 25 26  2  0  0  0  0
 26 27  1  0  0  0  0
 27 31  1  0  0  0  0
 28 27  2  0  0  0  0
 29 24  1  0  0  0  0
 30 25  1  0  0  0  0
 31 38  2  0  0  0  0
 31 32  1  0  0  0  0
 32 34  2  0  0  0  0
 33 32  1  0  0  0  0
 34 36  1  0  0  0  0
 34 35  1  0  0  0  0
 37 36  2  0  0  0  0
 38 37  1  0  0  0  0
M  END
>  <minimizedAffinity>
-6.73706675

$$$$

 OpenBabel03272507083D

 38 42  0  0  0  0  0  0  0  0999 V2000
   39.1860   25.3980   34.8150 C   0  0  0  0  0  0  0  0  0  0  0  0
   38.5790   26.6420   34.5960 C   0  0  0  0  0  0  0  0  0  0  0  0
   37.5200   26.6760   33.6670 C   0  0  0  0  0  0  0  0  0  0  0  0
   37.1470   25.5330   33.0440 N   0  0  0  0  0  0  0  0  0  0  0  0
   37.7650   24.3570   33.2890 C   0  0  0  0  0  0  0  0  0  0  0  0
   38.7820   24.2920   34.1740 N   0  0  0  0  0  0  0  0  0  0  0  0
   40.0000   25.3830   35.5320 H   0  0  0  0  0  0  0  0  0  0  0  0
   38.8530   27.5710   35.0770 H   0  0  0  0  0  0  0  0  0  0  0  0
   36.1340   23.2590   31.8240 C   0  0  0  0  0  0  0  0  0  0  0  0
   37.3010   23.1680   32.5740 C   0  0  0  0  0  0  0  0  0  0  0  0
   37.9850   21.9930   32.6340 C   0  0  0  0  0  0  0  0  0  0  0  0
   37.5550   20.8810   31.9690 C   0  0  0  0  0  0  0  0  0  0  0  0
   38.0440   19.6220   31.8690 N   0  0  0  0  0  0  0  0  0  0  0  0
   37.1490   18.9830   31.0520 C   0  0  0  0  0  0  0  0  0  0  0  0
   36.1580   19.8180   30.6720 N   0  0  0  0  0  0  0  0  0  0  0  0
   36.3960   21.0090   31.2360 C   0  0  0  0  0  0  0  0  0  0  0  0
   35.6640   22.1560   31.1360 C   0  0  0  0  0  0  0  0  0  0  0  0
   35.5840   24.1960   31.7740 H   0  0  0  0  0  0  0  0  0  0  0  0
   38.8900   21.9270   33.2180 H   0  0  0  0  0  0  0  0  0  0  0  0
   38.8980   19.2550   32.3160 H   0  0  0  0  0  0  0  0  0  0  0  0
   37.2470   17.9400   30.7640 H   0  0  0  0  0  0  0  0  0  0  0  0
   34.7550   22.2680   30.5650 H   0  0  0  0  0  0  0  0  0  0  0  0
   36.7840   27.8760   33.3230 C   0  0  0  0  0  0  0  0  0  0  0  0
   36.6400   28.3530   32.0380 C   0  0  0  0  0  0  0  0  0  0  0  0
   35.9500   29.4850   31.6730 C   0  0  0  0  0  0  0  0  0  0  0  0
   35.3740   30.1730   32.6700 N   0  0  0  0  0  0  0  0  0  0  0  0
   35.4870   29.7490   33.9380 C   0  0  0  0  0  0  0  0  0  0  0  0
   36.1660   28.6460   34.2340 N   0  0  0  0  0  0  0  0  0  0  0  0
   37.1070   27.7970   31.2120 H   0  0  0  0  0  0  0  0  0  0  0  0
   35.8870   29.7890   30.6340 H   0  0  0  0  0  0  0  0  0  0  0  0
   34.8540   30.5050   35.0200 C   0  0  0  0  0  0  0  0  0  0  0  0
   35.6090   31.4010   35.7750 C   0  0  0  0  0  0  0  0  0  0  0  0
   36.6790   31.5350   35.5540 H   0  0  0  0  0  0  0  0  0  0  0  0
   35.0820   32.1480   36.8060 C   0  0  0  0  0  0  0  0  0  0  0  0
   35.6700   32.8420   37.3920 H   0  0  0  0  0  0  0  0  0  0  0  0
   33.7210   31.9390   37.0450 C   0  0  0  0  0  3  0  0  0  0  0  0
   32.9580   31.0570   36.3090 C   0  0  0  0  0  3  0  0  0  0  0  0
   33.5370   30.3490   35.3020 N   0  0  0  0  0  0  0  0  0  0  0  0
  1  7  1  0  0  0  0
  2  1  1  0  0  0  0
  2  8  1  0  0  0  0
  3  2  2  0  0  0  0
  4  5  2  0  0  0  0
  4  3  1  0  0  0  0
  5  6  1  0  0  0  0
  6  1  2  0  0  0  0
  9 10  1  0  0  0  0
 10 11  2  0  0  0  0
 10  5  1  0  0  0  0
 11 19  1  0  0  0  0
 12 11  1  0  0  0  0
 13 12  1  0  0  0  0
 13 20  1  0  0  0  0
 14 13  1  0  0  0  0
 15 14  2  0  0  0  0
 15 16  1  0  0  0  0
 16 12  2  0  0  0  0
 17 16  1  0  0  0  0
 17  9  2  0  0  0  0
 18  9  1  0  0  0  0
 21 14  1  0  0  0  0
 22 17  1  0  0  0  0
 23  3  1  0  0  0  0
 23 28  1  0  0  0  0
 24 23  2  0  0  0  0
 25 24  1  0  0  0  0
 25 26  2  0  0  0  0
 26 27  1  0  0  0  0
 27 28  2  0  0  0  0
 27 31  1  0  0  0  0
 29 24  1  0  0  0  0
 30 25  1  0  0  0  0
 31 38  2  0  0  0  0
 31 32  1  0  0  0  0
 32 34  2  0  0  0  0
 33 32  1  0  0  0  0
 34 36  1  0  0  0  0
 34 35  1  0  0  0  0
 37 36  2  0  0  0  0
 38 37  1  0  0  0  0
M  END
>  <minimizedAffinity>
-6.36839485

$$$$

 OpenBabel03272507083D

 38 42  0  0  0  0  0  0  0  0999 V2000
   36.9750   29.0880   31.2530 C   0  0  0  0  0  0  0  0  0  0  0  0
   37.4430   27.7960   31.5290 C   0  0  0  0  0  0  0  0  0  0  0  0
   37.0770   27.2420   32.7720 C   0  0  0  0  0  0  0  0  0  0  0  0
   36.3090   27.9650   33.6210 N   0  0  0  0  0  0  0  0  0  0  0  0
   35.8830   29.2080   33.3080 C   0  0  0  0  0  0  0  0  0  0  0  0
   36.2160   29.7660   32.1250 N   0  0  0  0  0  0  0  0  0  0  0  0
   37.2620   29.5050   30.2940 H   0  0  0  0  0  0  0  0  0  0  0  0
   38.0560   27.1940   30.8730 H   0  0  0  0  0  0  0  0  0  0  0  0
   33.6840   29.7000   34.2750 C   0  0  0  0  0  0  0  0  0  0  0  0
   35.0560   29.9230   34.2800 C   0  0  0  0  0  0  0  0  0  0  0  0
   35.6040   30.7900   35.1750 C   0  0  0  0  0  0  0  0  0  0  0  0
   34.8360   31.4590   36.0840 C   0  0  0  0  0  0  0  0  0  0  0  0
   35.1300   32.3530   37.0570 N   0  0  0  0  0  0  0  0  0  0  0  0
   33.9150   32.6460   37.6170 C   0  0  0  0  0  0  0  0  0  0  0  0
   32.9240   31.9600   37.0100 N   0  0  0  0  0  0  0  0  0  0  0  0
   33.4810   31.2120   36.0490 C   0  0  0  0  0  0  0  0  0  0  0  0
   32.8710   30.3580   35.1790 C   0  0  0  0  0  0  0  0  0  0  0  0
   33.2420   29.0080   33.5610 H   0  0  0  0  0  0  0  0  0  0  0  0
   36.6690   30.9600   35.1760 H   0  0  0  0  0  0  0  0  0  0  0  0
   36.0670   32.7140   37.3000 H   0  0  0  0  0  0  0  0  0  0  0  0
   33.7940   33.3440   38.4410 H   0  0  0  0  0  0  0  0  0  0  0  0
   31.8110   30.1560   35.1410 H   0  0  0  0  0  0  0  0  0  0  0  0
   37.4730   25.9200   33.2170 C   0  0  0  0  0  0  0  0  0  0  0  0
   38.2220   25.6780   34.3480 C   0  0  0  0  0  0  0  0  0  0  0  0
   38.6170   24.4410   34.8010 C   0  0  0  0  0  0  0  0  0  0  0  0
   38.2290   23.3900   34.0620 N   0  0  0  0  0  0  0  0  0  0  0  0
   37.5000   23.5760   32.9520 C   0  0  0  0  0  0  0  0  0  0  0  0
   37.1460   24.7950   32.5600 N   0  0  0  0  0  0  0  0  0  0  0  0
   38.5450   26.5310   34.9620 H   0  0  0  0  0  0  0  0  0  0  0  0
   39.2060   24.3400   35.7050 H   0  0  0  0  0  0  0  0  0  0  0  0
   37.0810   22.4240   32.1530 C   0  0  0  0  0  0  0  0  0  0  0  0
   35.7620   21.9780   32.2140 C   0  0  0  0  0  0  0  0  0  0  0  0
   35.0400   22.4950   32.8650 H   0  0  0  0  0  0  0  0  0  0  0  0
   35.2950   20.9020   31.4900 C   0  0  0  0  0  0  0  0  0  0  0  0
   34.2700   20.5570   31.5390 H   0  0  0  0  0  0  0  0  0  0  0  0
   36.2510   20.2820   30.6800 C   0  0  0  0  0  3  0  0  0  0  0  0
   37.5600   20.7090   30.6060 C   0  0  0  0  0  3  0  0  0  0  0  0
   37.9600   21.7780   31.3450 N   0  0  0  0  0  0  0  0  0  0  0  0
  1  2  2  0  0  0  0
  1  6  1  0  0  0  0
  2  3  1  0  0  0  0
  3 23  1  0  0  0  0
  3  4  2  0  0  0  0
  5  4  1  0  0  0  0
  5 10  1  0  0  0  0
  6  5  2  0  0  0  0
  7  1  1  0  0  0  0
  8  2  1  0  0  0  0
  9 10  2  0  0  0  0
  9 17  1  0  0  0  0
 10 11  1  0  0  0  0
 11 19  1  0  0  0  0
 11 12  2  0  0  0  0
 12 13  1  0  0  0  0
 13 20  1  0  0  0  0
 13 14  1  0  0  0  0
 14 21  1  0  0  0  0
 15 14  2  0  0  0  0
 16 12  1  0  0  0  0
 16 15  1  0  0  0  0
 17 16  2  0  0  0  0
 18  9  1  0  0  0  0
 22 17  1  0  0  0  0
 23 24  1  0  0  0  0
 24 25  2  0  0  0  0
 24 29  1  0  0  0  0
 25 30  1  0  0  0  0
 26 25  1  0  0  0  0
 27 26  2  0  0  0  0
 28 27  1  0  0  0  0
 28 23  2  0  0  0  0
 31 32  1  0  0  0  0
 31 27  1  0  0  0  0
 32 33  1  0  0  0  0
 34 35  1  0  0  0  0
 34 32  2  0  0  0  0
 36 34  1  0  0  0  0
 37 36  2  0  0  0  0
 37 38  1  0  0  0  0
 38 31  2  0  0  0  0
M  END
>  <minimizedAffinity>
-6.35495138

$$$$

 OpenBabel03272507083D

 38 42  0  0  0  0  0  0  0  0999 V2000
   37.3070   27.7150   31.7480 C   0  0  0  0  0  0  0  0  0  0  0  0
   36.4770   28.7330   32.2360 C   0  0  0  0  0  0  0  0  0  0  0  0
   36.1750   28.6990   33.6120 C   0  0  0  0  0  0  0  0  0  0  0  0
   36.6890   27.7080   34.3800 N   0  0  0  0  0  0  0  0  0  0  0  0
   37.4840   26.7480   33.8600 C   0  0  0  0  0  0  0  0  0  0  0  0
   37.7920   26.7540   32.5470 N   0  0  0  0  0  0  0  0  0  0  0  0
   37.5330   27.7500   30.6870 H   0  0  0  0  0  0  0  0  0  0  0  0
   36.0520   29.5350   31.6500 H   0  0  0  0  0  0  0  0  0  0  0  0
   38.8530   24.7480   34.2370 C   0  0  0  0  0  0  0  0  0  0  0  0
   37.9990   25.7140   34.7580 C   0  0  0  0  0  0  0  0  0  0  0  0
   37.6570   25.6840   36.0750 C   0  0  0  0  0  0  0  0  0  0  0  0
   38.1340   24.7210   36.9160 C   0  0  0  0  0  0  0  0  0  0  0  0
   37.9500   24.4780   38.2350 N   0  0  0  0  0  0  0  0  0  0  0  0
   38.7060   23.3610   38.4750 C   0  0  0  0  0  0  0  0  0  0  0  0
   39.3240   22.9440   37.3500 N   0  0  0  0  0  0  0  0  0  0  0  0
   38.9780   23.7820   36.3650 C   0  0  0  0  0  0  0  0  0  0  0  0
   39.3580   23.7550   35.0550 C   0  0  0  0  0  0  0  0  0  0  0  0
   39.1290   24.7680   33.1850 H   0  0  0  0  0  0  0  0  0  0  0  0
   36.9930   26.4360   36.4750 H   0  0  0  0  0  0  0  0  0  0  0  0
   37.3670   25.0250   38.8880 H   0  0  0  0  0  0  0  0  0  0  0  0
   38.7810   22.8930   39.4530 H   0  0  0  0  0  0  0  0  0  0  0  0
   40.0180   23.0250   34.6110 H   0  0  0  0  0  0  0  0  0  0  0  0
   35.3340   29.6720   34.2810 C   0  0  0  0  0  0  0  0  0  0  0  0
   34.0300   29.4370   34.6580 C   0  0  0  0  0  0  0  0  0  0  0  0
   33.2020   30.3340   35.2930 C   0  0  0  0  0  0  0  0  0  0  0  0
   33.7300   31.5380   35.5590 N   0  0  0  0  0  0  0  0  0  0  0  0
   34.9960   31.8140   35.2100 C   0  0  0  0  0  0  0  0  0  0  0  0
   35.7520   30.9090   34.5980 N   0  0  0  0  0  0  0  0  0  0  0  0
   33.5870   28.4540   34.4460 H   0  0  0  0  0  0  0  0  0  0  0  0
   32.1850   30.0650   35.5540 H   0  0  0  0  0  0  0  0  0  0  0  0
   35.5640   33.1310   35.5050 C   0  0  0  0  0  0  0  0  0  0  0  0
   36.8830   33.4120   35.1560 C   0  0  0  0  0  0  0  0  0  0  0  0
   37.4930   32.6410   34.6600 H   0  0  0  0  0  0  0  0  0  0  0  0
   37.4850   34.6280   35.4000 C   0  0  0  0  0  0  0  0  0  0  0  0
   38.5100   34.8440   35.1290 H   0  0  0  0  0  0  0  0  0  0  0  0
   36.6670   35.5700   36.0310 C   0  0  0  0  0  3  0  0  0  0  0  0
   35.3600   35.3090   36.3840 C   0  0  0  0  0  3  0  0  0  0  0  0
   34.8230   34.0890   36.1150 N   0  0  0  0  0  0  0  0  0  0  0  0
  1  2  2  0  0  0  0
  1  6  1  0  0  0  0
  2  3  1  0  0  0  0
  3 23  1  0  0  0  0
  3  4  2  0  0  0  0
  5  4  1  0  0  0  0
  5 10  1  0  0  0  0
  6  5  2  0  0  0  0
  7  1  1  0  0  0  0
  8  2  1  0  0  0  0
  9 10  2  0  0  0  0
  9 17  1  0  0  0  0
 10 11  1  0  0  0  0
 11 19  1  0  0  0  0
 11 12  2  0  0  0  0
 12 13  1  0  0  0  0
 13 14  1  0  0  0  0
 13 20  1  0  0  0  0
 14 21  1  0  0  0  0
 15 14  2  0  0  0  0
 16 12  1  0  0  0  0
 16 15  1  0  0  0  0
 17 16  2  0  0  0  0
 18  9  1  0  0  0  0
 22 17  1  0  0  0  0
 23 28  2  0  0  0  0
 23 24  1  0  0  0  0
 24 25  2  0  0  0  0
 25 30  1  0  0  0  0
 25 26  1  0  0  0  0
 27 31  1  0  0  0  0
 27 26  2  0  0  0  0
 28 27  1  0  0  0  0
 29 24  1  0  0  0  0
 31 38  1  0  0  0  0
 32 34  1  0  0  0  0
 32 31  2  0  0  0  0
 33 32  1  0  0  0  0
 34 36  2  0  0  0  0
 35 34  1  0  0  0  0
 36 37  1  0  0  0  0
 38 37  2  0  0  0  0
M  END
>  <minimizedAffinity>
-6.33511305

$$$$

 OpenBabel03272507083D

 38 42  0  0  0  0  0  0  0  0999 V2000
   37.7440   25.9520   30.9320 C   0  0  0  0  0  0  0  0  0  0  0  0
   37.0780   27.1800   31.0460 C   0  0  0  0  0  0  0  0  0  0  0  0
   36.8170   27.6410   32.3520 C   0  0  0  0  0  0  0  0  0  0  0  0
   37.2140   26.8950   33.4100 N   0  0  0  0  0  0  0  0  0  0  0  0
   37.8530   25.7160   33.2480 C   0  0  0  0  0  0  0  0  0  0  0  0
   38.1170   25.2480   32.0100 N   0  0  0  0  0  0  0  0  0  0  0  0
   37.9400   25.6060   29.9230 H   0  0  0  0  0  0  0  0  0  0  0  0
   36.7500   27.7980   30.2220 H   0  0  0  0  0  0  0  0  0  0  0  0
   39.0980   23.8810   34.2950 C   0  0  0  0  0  0  0  0  0  0  0  0
   38.2480   24.9710   34.4430 C   0  0  0  0  0  0  0  0  0  0  0  0
   37.7990   25.3250   35.6780 C   0  0  0  0  0  0  0  0  0  0  0  0
   38.1650   24.6320   36.7970 C   0  0  0  0  0  0  0  0  0  0  0  0
   37.8640   24.7790   38.1090 N   0  0  0  0  0  0  0  0  0  0  0  0
   38.5490   23.7630   38.7210 C   0  0  0  0  0  0  0  0  0  0  0  0
   39.2370   23.0300   37.8200 N   0  0  0  0  0  0  0  0  0  0  0  0
   39.0080   23.5590   36.6120 C   0  0  0  0  0  0  0  0  0  0  0  0
   39.4920   23.1530   35.4030 C   0  0  0  0  0  0  0  0  0  0  0  0
   39.4590   23.5950   33.3100 H   0  0  0  0  0  0  0  0  0  0  0  0
   37.1390   26.1710   35.7890 H   0  0  0  0  0  0  0  0  0  0  0  0
   37.2540   25.5000   38.5250 H   0  0  0  0  0  0  0  0  0  0  0  0
   38.5240   23.5920   39.7940 H   0  0  0  0  0  0  0  0  0  0  0  0
   40.1530   22.3150   35.2440 H   0  0  0  0  0  0  0  0  0  0  0  0
   36.1400   28.8870   32.6500 C   0  0  0  0  0  0  0  0  0  0  0  0
   36.3080   30.0490   31.9290 C   0  0  0  0  0  0  0  0  0  0  0  0
   35.6850   31.2490   32.1810 C   0  0  0  0  0  0  0  0  0  0  0  0
   34.8430   31.2690   33.2250 N   0  0  0  0  0  0  0  0  0  0  0  0
   34.6470   30.1630   33.9580 C   0  0  0  0  0  0  0  0  0  0  0  0
   35.2770   29.0290   33.6690 N   0  0  0  0  0  0  0  0  0  0  0  0
   36.9950   30.0450   31.0710 H   0  0  0  0  0  0  0  0  0  0  0  0
   35.8750   32.1180   31.5610 H   0  0  0  0  0  0  0  0  0  0  0  0
   33.7260   30.1940   35.0950 C   0  0  0  0  0  0  0  0  0  0  0  0
   33.8010   31.2320   36.0220 C   0  0  0  0  0  0  0  0  0  0  0  0
   34.5540   32.0240   35.8940 H   0  0  0  0  0  0  0  0  0  0  0  0
   32.9670   31.3280   37.1150 C   0  0  0  0  0  0  0  0  0  0  0  0
   33.0280   32.1340   37.8350 H   0  0  0  0  0  0  0  0  0  0  0  0
   32.0310   30.2960   37.2300 C   0  0  0  0  0  3  0  0  0  0  0  0
   31.9420   29.2610   36.3230 C   0  0  0  0  0  3  0  0  0  0  0  0
   32.7930   29.2230   35.2630 N   0  0  0  0  0  0  0  0  0  0  0  0
  1  2  2  0  0  0  0
  1  6  1  0  0  0  0
  2  3  1  0  0  0  0
  3 23  1  0  0  0  0
  3  4  2  0  0  0  0
  5  4  1  0  0  0  0
  5 10  1  0  0  0  0
  6  5  2  0  0  0  0
  7  1  1  0  0  0  0
  8  2  1  0  0  0  0
  9 10  2  0  0  0  0
  9 17  1  0  0  0  0
 10 11  1  0  0  0  0
 11 19  1  0  0  0  0
 11 12  2  0  0  0  0
 12 13  1  0  0  0  0
 13 20  1  0  0  0  0
 13 14  1  0  0  0  0
 14 21  1  0  0  0  0
 15 14  2  0  0  0  0
 16 12  1  0  0  0  0
 16 15  1  0  0  0  0
 17 16  2  0  0  0  0
 18  9  1  0  0  0  0
 22 17  1  0  0  0  0
 23 28  1  0  0  0  0
 24 25  1  0  0  0  0
 24 23  2  0  0  0  0
 25 26  2  0  0  0  0
 26 27  1  0  0  0  0
 27 31  1  0  0  0  0
 28 27  2  0  0  0  0
 29 24  1  0  0  0  0
 30 25  1  0  0  0  0
 31 38  2  0  0  0  0
 31 32  1  0  0  0  0
 32 34  2  0  0  0  0
 33 32  1  0  0  0  0
 34 36  1  0  0  0  0
 34 35  1  0  0  0  0
 37 36  2  0  0  0  0
 38 37  1  0  0  0  0
M  END
>  <minimizedAffinity>
-6.28250408

$$$$

 OpenBabel03272507083D

 38 42  0  0  0  0  0  0  0  0999 V2000
   38.1990   26.1750   31.0270 C   0  0  0  0  0  0  0  0  0  0  0  0
   37.4490   27.3570   31.0830 C   0  0  0  0  0  0  0  0  0  0  0  0
   37.0280   27.7810   32.3590 C   0  0  0  0  0  0  0  0  0  0  0  0
   37.3620   27.0450   33.4460 N   0  0  0  0  0  0  0  0  0  0  0  0
   38.0870   25.9100   33.3390 C   0  0  0  0  0  0  0  0  0  0  0  0
   38.5040   25.4790   32.1310 N   0  0  0  0  0  0  0  0  0  0  0  0
   38.5170   25.8570   30.0400 H   0  0  0  0  0  0  0  0  0  0  0  0
   37.1670   27.9650   30.2350 H   0  0  0  0  0  0  0  0  0  0  0  0
   37.7020   25.4800   35.7230 C   0  0  0  0  0  0  0  0  0  0  0  0
   38.4050   25.1730   34.5630 C   0  0  0  0  0  0  0  0  0  0  0  0
   39.3650   24.2090   34.5800 C   0  0  0  0  0  0  0  0  0  0  0  0
   39.6650   23.5190   35.7190 C   0  0  0  0  0  0  0  0  0  0  0  0
   40.5540   22.5360   35.9920 N   0  0  0  0  0  0  0  0  0  0  0  0
   40.3610   22.2740   37.3230 C   0  0  0  0  0  0  0  0  0  0  0  0
   39.3950   23.0640   37.8370 N   0  0  0  0  0  0  0  0  0  0  0  0
   38.9480   23.8500   36.8490 C   0  0  0  0  0  0  0  0  0  0  0  0
   37.9760   24.8050   36.8980 C   0  0  0  0  0  0  0  0  0  0  0  0
   36.9350   26.2500   35.7130 H   0  0  0  0  0  0  0  0  0  0  0  0
   39.9080   23.9740   33.6770 H   0  0  0  0  0  0  0  0  0  0  0  0
   41.2160   22.1010   35.3300 H   0  0  0  0  0  0  0  0  0  0  0  0
   40.9260   21.5230   37.8680 H   0  0  0  0  0  0  0  0  0  0  0  0
   37.4080   25.0730   37.7760 H   0  0  0  0  0  0  0  0  0  0  0  0
   36.2470   28.9780   32.5980 C   0  0  0  0  0  0  0  0  0  0  0  0
   36.3050   30.1080   31.8110 C   0  0  0  0  0  0  0  0  0  0  0  0
   35.5810   31.2610   32.0050 C   0  0  0  0  0  0  0  0  0  0  0  0
   34.7510   31.2660   33.0590 N   0  0  0  0  0  0  0  0  0  0  0  0
   34.6610   30.1910   33.8550 C   0  0  0  0  0  0  0  0  0  0  0  0
   35.3850   29.1010   33.6200 N   0  0  0  0  0  0  0  0  0  0  0  0
   36.9810   30.1150   30.9440 H   0  0  0  0  0  0  0  0  0  0  0  0
   35.6880   32.1060   31.3350 H   0  0  0  0  0  0  0  0  0  0  0  0
   33.7520   30.2050   35.0020 C   0  0  0  0  0  0  0  0  0  0  0  0
   33.8440   31.2230   35.9490 C   0  0  0  0  0  0  0  0  0  0  0  0
   34.6030   32.0120   35.8300 H   0  0  0  0  0  0  0  0  0  0  0  0
   33.0230   31.3030   37.0530 C   0  0  0  0  0  0  0  0  0  0  0  0
   33.0980   32.0940   37.7880 H   0  0  0  0  0  0  0  0  0  0  0  0
   32.0790   30.2770   37.1560 C   0  0  0  0  0  3  0  0  0  0  0  0
   31.9720   29.2620   36.2290 C   0  0  0  0  0  3  0  0  0  0  0  0
   32.8120   29.2390   35.1600 N   0  0  0  0  0  0  0  0  0  0  0  0
  1  2  2  0  0  0  0
  1  6  1  0  0  0  0
  2  3  1  0  0  0  0
  3 23  1  0  0  0  0
  3  4  2  0  0  0  0
  5  4  1  0  0  0  0
  5 10  1  0  0  0  0
  6  5  2  0  0  0  0
  7  1  1  0  0  0  0
  8  2  1  0  0  0  0
  9 17  1  0  0  0  0
 10 11  1  0  0  0  0
 10  9  2  0  0  0  0
 11 12  2  0  0  0  0
 12 13  1  0  0  0  0
 12 16  1  0  0  0  0
 13 14  1  0  0  0  0
 14 15  2  0  0  0  0
 14 21  1  0  0  0  0
 16 17  2  0  0  0  0
 16 15  1  0  0  0  0
 17 22  1  0  0  0  0
 18  9  1  0  0  0  0
 19 11  1  0  0  0  0
 20 13  1  0  0  0  0
 23 28  1  0  0  0  0
 24 25  1  0  0  0  0
 24 23  2  0  0  0  0
 25 26  2  0  0  0  0
 26 27  1  0  0  0  0
 27 31  1  0  0  0  0
 28 27  2  0  0  0  0
 29 24  1  0  0  0  0
 30 25  1  0  0  0  0
 31 38  2  0  0  0  0
 31 32  1  0  0  0  0
 32 34  2  0  0  0  0
 33 32  1  0  0  0  0
 34 36  1  0  0  0  0
 34 35  1  0  0  0  0
 37 36  2  0  0  0  0
 38 37  1  0  0  0  0
M  END
>  <minimizedAffinity>
-6.25289679

$$$$

 OpenBabel03272507083D

 38 42  0  0  0  0  0  0  0  0999 V2000
   35.4240   29.7860   34.0790 C   0  0  0  0  0  0  0  0  0  0  0  0
   35.9310   28.5010   34.3120 C   0  0  0  0  0  0  0  0  0  0  0  0
   36.6770   27.9150   33.2700 C   0  0  0  0  0  0  0  0  0  0  0  0
   36.8640   28.6040   32.1190 N   0  0  0  0  0  0  0  0  0  0  0  0
   36.3530   29.8420   31.9430 C   0  0  0  0  0  0  0  0  0  0  0  0
   35.6350   30.4300   32.9220 N   0  0  0  0  0  0  0  0  0  0  0  0
   34.8520   30.2280   34.8870 H   0  0  0  0  0  0  0  0  0  0  0  0
   35.7990   27.9260   35.2180 H   0  0  0  0  0  0  0  0  0  0  0  0
   36.1220   31.8140   30.5020 C   0  0  0  0  0  0  0  0  0  0  0  0
   36.6010   30.5190   30.6700 C   0  0  0  0  0  0  0  0  0  0  0  0
   37.2830   29.9080   29.6630 C   0  0  0  0  0  0  0  0  0  0  0  0
   37.5170   30.5360   28.4740 C   0  0  0  0  0  0  0  0  0  0  0  0
   38.1540   30.1550   27.3420 N   0  0  0  0  0  0  0  0  0  0  0  0
   38.0410   31.2410   26.5150 C   0  0  0  0  0  0  0  0  0  0  0  0
   37.3640   32.2400   27.1200 N   0  0  0  0  0  0  0  0  0  0  0  0
   37.0280   31.8170   28.3440 C   0  0  0  0  0  0  0  0  0  0  0  0
   36.3370   32.4840   29.3130 C   0  0  0  0  0  0  0  0  0  0  0  0
   35.5760   32.3060   31.3040 H   0  0  0  0  0  0  0  0  0  0  0  0
   37.6530   28.9030   29.7970 H   0  0  0  0  0  0  0  0  0  0  0  0
   38.6130   29.2460   27.1680 H   0  0  0  0  0  0  0  0  0  0  0  0
   38.4520   31.2680   25.5100 H   0  0  0  0  0  0  0  0  0  0  0  0
   35.9490   33.4880   29.2240 H   0  0  0  0  0  0  0  0  0  0  0  0
   37.2720   26.5950   33.3430 C   0  0  0  0  0  0  0  0  0  0  0  0
   37.5580   25.8140   32.2450 C   0  0  0  0  0  0  0  0  0  0  0  0
   38.1220   24.5600   32.2750 C   0  0  0  0  0  0  0  0  0  0  0  0
   38.4110   24.0720   33.4900 N   0  0  0  0  0  0  0  0  0  0  0  0
   38.1510   24.7950   34.5900 C   0  0  0  0  0  0  0  0  0  0  0  0
   37.6040   26.0030   34.5030 N   0  0  0  0  0  0  0  0  0  0  0  0
   37.3250   26.2040   31.2440 H   0  0  0  0  0  0  0  0  0  0  0  0
   38.3130   24.0130   31.3590 H   0  0  0  0  0  0  0  0  0  0  0  0
   38.4710   24.2550   35.9120 C   0  0  0  0  0  0  0  0  0  0  0  0
   37.7460   24.6710   37.0270 C   0  0  0  0  0  0  0  0  0  0  0  0
   36.9350   25.4060   36.9080 H   0  0  0  0  0  0  0  0  0  0  0  0
   37.9890   24.2050   38.3010 C   0  0  0  0  0  0  0  0  0  0  0  0
   37.4250   24.5310   39.1660 H   0  0  0  0  0  0  0  0  0  0  0  0
   39.0280   23.2750   38.3960 C   0  0  0  0  0  3  0  0  0  0  0  0
   39.7560   22.8510   37.3050 C   0  0  0  0  0  3  0  0  0  0  0  0
   39.4670   23.3480   36.0720 N   0  0  0  0  0  0  0  0  0  0  0  0
  1  2  1  0  0  0  0
  1  7  1  0  0  0  0
  2  8  1  0  0  0  0
  3 23  1  0  0  0  0
  3  2  2  0  0  0  0
  4  3  1  0  0  0  0
  5  4  2  0  0  0  0
  5  6  1  0  0  0  0
  6  1  2  0  0  0  0
  9 10  1  0  0  0  0
  9 18  1  0  0  0  0
 10  5  1  0  0  0  0
 11 19  1  0  0  0  0
 11 10  2  0  0  0  0
 12 11  1  0  0  0  0
 13 12  1  0  0  0  0
 14 15  2  0  0  0  0
 14 13  1  0  0  0  0
 15 16  1  0  0  0  0
 16 12  2  0  0  0  0
 16 17  1  0  0  0  0
 17  9  2  0  0  0  0
 20 13  1  0  0  0  0
 21 14  1  0  0  0  0
 22 17  1  0  0  0  0
 23 28  1  0  0  0  0
 24 25  1  0  0  0  0
 24 23  2  0  0  0  0
 25 26  2  0  0  0  0
 26 27  1  0  0  0  0
 27 31  1  0  0  0  0
 28 27  2  0  0  0  0
 29 24  1  0  0  0  0
 30 25  1  0  0  0  0
 31 38  2  0  0  0  0
 31 32  1  0  0  0  0
 32 34  2  0  0  0  0
 33 32  1  0  0  0  0
 34 36  1  0  0  0  0
 34 35  1  0  0  0  0
 37 36  2  0  0  0  0
 38 37  1  0  0  0  0
M  END
>  <minimizedAffinity>
-6.23289824

$$$$
