
 OpenBabel03272509213D

 45 49  0  0  0  0  0  0  0  0999 V2000
   38.0200   31.2430   47.6950 C   0  0  0  0  0  0  0  0  0  0  0  0
   37.1050   31.2870   48.7320 C   0  0  0  0  0  0  0  0  0  0  0  0
   37.2430   32.4000   49.5760 C   0  0  0  0  0  0  0  0  0  0  0  0
   38.2290   33.3660   49.3670 C   0  0  0  0  0  0  0  0  0  0  0  0
   39.1190   33.2320   48.2780 C   0  0  0  0  0  0  0  0  0  0  0  0
   38.9890   32.1300   47.4320 C   0  0  0  0  0  0  0  0  0  0  0  0
   36.5790   32.5270   50.4140 H   0  0  0  0  0  0  0  0  0  0  0  0
   38.3180   34.2140   50.0280 H   0  0  0  0  0  0  0  0  0  0  0  0
   39.8740   33.9950   48.1360 H   0  0  0  0  0  0  0  0  0  0  0  0
   34.9420   30.3050   48.1850 C   0  0  0  0  0  0  0  0  0  0  0  0
   36.0990   30.3030   48.9480 C   0  0  0  0  0  0  0  0  0  0  0  0
   36.2310   29.3000   49.9280 C   0  0  0  0  0  0  0  0  0  0  0  0
   35.2330   28.3990   50.0750 N   0  0  0  0  0  0  0  0  0  0  0  0
   34.1160   28.4430   49.3000 C   0  0  0  0  0  0  0  0  0  0  0  0
   33.9710   29.3900   48.3610 N   0  0  0  0  0  0  0  0  0  0  0  0
   34.8100   31.0540   47.4310 H   0  0  0  0  0  0  0  0  0  0  0  0
   33.3980   27.6630   49.5250 H   0  0  0  0  0  0  0  0  0  0  0  0
   37.4490   29.2480   50.7750 C   0  0  0  0  0  0  0  0  0  0  0  0
   37.2380   28.5870   51.6390 H   0  0  0  0  0  0  0  0  0  0  0  0
   37.7940   30.2620   51.0710 H   0  0  0  0  0  0  0  0  0  0  0  0
   38.2360   28.7550   50.1640 H   0  0  0  0  0  0  0  0  0  0  0  0
   37.9670   30.1730   46.7950 O   0  0  0  0  0  0  0  0  0  0  0  0
   37.3740   30.1410   45.9900 H   0  0  0  0  0  0  0  0  0  0  0  0
   39.8940   32.0630   46.3860 O   0  0  0  0  0  0  0  0  0  0  0  0
   40.1750   31.0360   44.1540 C   0  0  0  0  0  0  0  0  0  0  0  0
   39.5930   31.8740   45.0720 C   0  0  0  0  0  0  0  0  0  0  0  0
   38.5340   32.6740   44.6550 C   0  0  0  0  0  0  0  0  0  0  0  0
   38.0690   32.6270   43.3280 C   0  0  0  0  0  0  0  0  0  0  0  0
   37.1040   33.2460   42.6320 N   0  0  0  0  0  0  0  0  0  0  0  0
   37.0850   32.8220   41.3650 C   0  0  0  0  0  0  0  0  0  0  0  0
   38.0710   31.9050   41.2610 N   0  0  0  0  0  0  0  0  0  0  0  0
   38.6960   31.7630   42.4540 C   0  0  0  0  0  0  0  0  0  0  0  0
   39.7390   30.9710   42.8520 C   0  0  0  0  0  0  0  0  0  0  0  0
   40.9820   30.4460   44.5280 H   0  0  0  0  0  0  0  0  0  0  0  0
   37.9840   33.3780   45.2680 H   0  0  0  0  0  0  0  0  0  0  0  0
   36.4590   33.9620   43.0330 H   0  0  0  0  0  0  0  0  0  0  0  0
   36.4130   33.1450   40.5720 H   0  0  0  0  0  0  0  0  0  0  0  0
   40.3570   30.0820   41.8800 C   0  0  0  0  0  0  0  0  0  0  0  0
   40.1300   28.7290   41.8100 C   0  0  0  0  0  0  0  0  0  0  0  0
   39.4520   28.2680   42.5130 H   0  0  0  0  0  0  0  0  0  0  0  0
   40.7110   27.8790   40.8920 C   0  0  0  0  0  0  0  0  0  0  0  0
   40.5090   26.8140   40.8650 H   0  0  0  0  0  0  0  0  0  0  0  0
   41.5880   28.3970   39.9630 C   0  0  0  0  0  3  0  0  0  0  0  0
   41.8090   29.7560   40.0420 C   0  0  0  0  0  3  0  0  0  0  0  0
   41.2200   30.5460   40.9550 N   0  0  0  0  0  0  0  0  0  0  0  0
  1  2  1  0  0  0  0
  2 11  1  0  0  0  0
  2  3  2  0  0  0  0
  3  7  1  0  0  0  0
  4  3  1  0  0  0  0
  4  8  1  0  0  0  0
  5  4  2  0  0  0  0
  6  1  2  0  0  0  0
  6  5  1  0  0  0  0
  9  5  1  0  0  0  0
 10 15  2  0  0  0  0
 10 11  1  0  0  0  0
 11 12  2  0  0  0  0
 12 13  1  0  0  0  0
 12 18  1  0  0  0  0
 14 17  1  0  0  0  0
 14 13  2  0  0  0  0
 15 14  1  0  0  0  0
 16 10  1  0  0  0  0
 18 20  1  0  0  0  0
 18 19  1  0  0  0  0
 21 18  1  0  0  0  0
 22  1  1  0  0  0  0
 23 22  1  0  0  0  0
 24  6  1  0  0  0  0
 25 34  1  0  0  0  0
 25 26  1  0  0  0  0
 26 24  1  0  0  0  0
 27 26  2  0  0  0  0
 27 35  1  0  0  0  0
 28 27  1  0  0  0  0
 29 36  1  0  0  0  0
 29 28  1  0  0  0  0
 30 29  1  0  0  0  0
 31 30  2  0  0  0  0
 31 32  1  0  0  0  0
 32 33  1  0  0  0  0
 32 28  2  0  0  0  0
 33 25  2  0  0  0  0
 37 30  1  0  0  0  0
 38 33  1  0  0  0  0
 39 38  1  0  0  0  0
 39 40  1  0  0  0  0
 41 39  2  0  0  0  0
 42 41  1  0  0  0  0
 43 44  2  0  0  0  0
 43 41  1  0  0  0  0
 44 45  1  0  0  0  0
 45 38  2  0  0  0  0
M  END
>  <minimizedAffinity>
-7.49656153

>  <minimizedRMSD>
0.494115353

$$$$
