
 OpenBabel03272509043D

 32 34  0  0  0  0  0  0  0  0999 V2000
   36.7590   29.3730   49.4050 C   0  0  0  0  0  0  0  0  0  0  0  0
   35.5090   29.2850   49.0630 C   0  0  0  0  0  0  0  0  0  0  0  0
   38.3710   32.6510   49.6820 C   0  0  0  0  0  0  0  0  0  0  0  0
   38.8770   32.8310   48.3740 C   0  0  0  0  0  0  0  0  0  0  0  0
   38.6360   31.7990   47.4430 C   0  0  0  0  0  0  0  0  0  0  0  0
   37.9420   30.7140   47.8590 N   0  0  0  0  0  0  0  0  0  0  0  0
   37.4790   30.5850   49.1120 C   0  0  0  0  0  0  0  0  0  0  0  0
   37.6950   31.5510   50.0170 N   0  0  0  0  0  0  0  0  0  0  0  0
   38.5650   33.4500   50.3770 H   0  0  0  0  0  0  0  0  0  0  0  0
   39.4200   33.6870   48.0620 H   0  0  0  0  0  0  0  0  0  0  0  0
   39.0990   31.8520   46.0620 C   0  0  0  0  0  0  0  0  0  0  0  0
   40.1790   31.1740   45.6000 C   0  0  0  0  0  0  0  0  0  0  0  0
   40.7560   30.5550   46.2460 H   0  0  0  0  0  0  0  0  0  0  0  0
   40.6320   31.2160   44.2820 C   0  0  0  0  0  0  0  0  0  0  0  0
   41.4970   30.6690   43.9280 H   0  0  0  0  0  0  0  0  0  0  0  0
   39.9510   31.9910   43.3680 C   0  0  0  0  0  0  0  0  0  0  0  0
   38.8580   32.6680   43.8640 C   0  0  0  0  0  0  0  0  0  0  0  0
   38.4490   32.6050   45.1450 N   0  0  0  0  0  0  0  0  0  0  0  0
   34.5800   28.1650   49.2550 C   0  0  0  0  0  0  0  0  0  0  0  0
   33.7220   28.5020   49.8410 H   0  0  0  0  0  0  0  0  0  0  0  0
   35.1120   27.3630   49.8300 H   0  0  0  0  0  0  0  0  0  0  0  0
   34.0910   27.5860   47.9600 C   0  0  0  0  0  0  0  0  0  0  0  0
   33.7540   26.2620   47.7530 C   0  0  0  0  0  0  0  0  0  0  0  0
   33.3150   25.8460   46.5160 C   0  0  0  0  0  0  0  0  0  0  0  0
   33.1980   26.7410   45.4460 C   0  0  0  0  0  0  0  0  0  0  0  0
   33.5340   28.0650   45.6490 C   0  0  0  0  0  0  0  0  0  0  0  0
   33.9730   28.4780   46.8910 C   0  0  0  0  0  0  0  0  0  0  0  0
   33.8570   25.5990   48.6020 H   0  0  0  0  0  0  0  0  0  0  0  0
   33.0620   24.8010   46.3940 H   0  0  0  0  0  0  0  0  0  0  0  0
   32.8500   26.3890   44.4820 H   0  0  0  0  0  0  0  0  0  0  0  0
   33.4500   28.7750   44.8350 H   0  0  0  0  0  0  0  0  0  0  0  0
   34.2320   29.5200   47.0310 H   0  0  0  0  0  0  0  0  0  0  0  0
  2 19  1  0  0  0  0
  2  1  2  0  0  0  0
  3  8  1  0  0  0  0
  3  9  1  0  0  0  0
  4  3  2  0  0  0  0
  5  6  2  0  0  0  0
  5  4  1  0  0  0  0
  6  7  1  0  0  0  0
  7  1  1  0  0  0  0
  7  8  2  0  0  0  0
 10  4  1  0  0  0  0
 11  5  1  0  0  0  0
 12 11  1  0  0  0  0
 12 13  1  0  0  0  0
 14 12  2  0  0  0  0
 15 14  1  0  0  0  0
 16 17  2  0  0  0  0
 16 14  1  0  0  0  0
 17 18  1  0  0  0  0
 18 11  2  0  0  0  0
 19 21  1  0  0  0  0
 19 20  1  0  0  0  0
 22 19  1  0  0  0  0
 23 22  1  0  0  0  0
 23 28  1  0  0  0  0
 24 23  2  0  0  0  0
 25 26  2  0  0  0  0
 25 24  1  0  0  0  0
 26 27  1  0  0  0  0
 27 32  1  0  0  0  0
 27 22  2  0  0  0  0
 29 24  1  0  0  0  0
 30 25  1  0  0  0  0
 31 26  1  0  0  0  0
M  END
>  <minimizedAffinity>
-6.20851135

>  <minimizedRMSD>
2.29255557

$$$$
