
 OpenBabel03272509213D

 45 49  0  0  0  0  0  0  0  0999 V2000
   37.9870   31.2850   47.7680 C   0  0  0  0  0  0  0  0  0  0  0  0
   37.0660   31.2990   48.8010 C   0  0  0  0  0  0  0  0  0  0  0  0
   37.1790   32.4030   49.6590 C   0  0  0  0  0  0  0  0  0  0  0  0
   38.1470   33.3910   49.4660 C   0  0  0  0  0  0  0  0  0  0  0  0
   39.0440   33.2870   48.3800 C   0  0  0  0  0  0  0  0  0  0  0  0
   38.9390   32.1940   47.5210 C   0  0  0  0  0  0  0  0  0  0  0  0
   36.5090   32.5080   50.4950 H   0  0  0  0  0  0  0  0  0  0  0  0
   38.2170   34.2330   50.1380 H   0  0  0  0  0  0  0  0  0  0  0  0
   39.7850   34.0660   48.2510 H   0  0  0  0  0  0  0  0  0  0  0  0
   34.9170   30.2930   48.2450 C   0  0  0  0  0  0  0  0  0  0  0  0
   36.0790   30.2930   49.0000 C   0  0  0  0  0  0  0  0  0  0  0  0
   36.2340   29.2700   49.9560 C   0  0  0  0  0  0  0  0  0  0  0  0
   35.2520   28.3490   50.0890 N   0  0  0  0  0  0  0  0  0  0  0  0
   34.1290   28.3920   49.3220 C   0  0  0  0  0  0  0  0  0  0  0  0
   33.9620   29.3580   48.4060 N   0  0  0  0  0  0  0  0  0  0  0  0
   34.7670   31.0560   47.5090 H   0  0  0  0  0  0  0  0  0  0  0  0
   33.4260   27.5950   49.5320 H   0  0  0  0  0  0  0  0  0  0  0  0
   37.4570   29.2190   50.7940 C   0  0  0  0  0  0  0  0  0  0  0  0
   37.2640   28.5350   51.6440 H   0  0  0  0  0  0  0  0  0  0  0  0
   37.7880   30.2320   51.1120 H   0  0  0  0  0  0  0  0  0  0  0  0
   38.2490   28.7540   50.1680 H   0  0  0  0  0  0  0  0  0  0  0  0
   37.9580   30.2250   46.8550 O   0  0  0  0  0  0  0  0  0  0  0  0
   37.3700   30.1910   46.0470 H   0  0  0  0  0  0  0  0  0  0  0  0
   39.8510   32.1560   46.4770 O   0  0  0  0  0  0  0  0  0  0  0  0
   40.2400   31.2990   44.1920 C   0  0  0  0  0  0  0  0  0  0  0  0
   39.5570   31.9940   45.1590 C   0  0  0  0  0  0  0  0  0  0  0  0
   38.3860   32.6500   44.7950 C   0  0  0  0  0  0  0  0  0  0  0  0
   37.9100   32.6030   43.4720 C   0  0  0  0  0  0  0  0  0  0  0  0
   36.8530   33.1090   42.8190 N   0  0  0  0  0  0  0  0  0  0  0  0
   36.8740   32.7520   41.5320 C   0  0  0  0  0  0  0  0  0  0  0  0
   37.9820   31.9970   41.3690 N   0  0  0  0  0  0  0  0  0  0  0  0
   38.6420   31.8870   42.5470 C   0  0  0  0  0  0  0  0  0  0  0  0
   39.7960   31.2370   42.8920 C   0  0  0  0  0  0  0  0  0  0  0  0
   41.1310   30.8150   44.5260 H   0  0  0  0  0  0  0  0  0  0  0  0
   37.7490   33.2330   45.4500 H   0  0  0  0  0  0  0  0  0  0  0  0
   36.1170   33.7000   43.2650 H   0  0  0  0  0  0  0  0  0  0  0  0
   36.1480   33.0140   40.7630 H   0  0  0  0  0  0  0  0  0  0  0  0
   40.5210   30.5000   41.8670 C   0  0  0  0  0  0  0  0  0  0  0  0
   40.7900   30.9800   40.6090 C   0  0  0  0  0  0  0  0  0  0  0  0
   40.4530   31.9680   40.3340 H   0  0  0  0  0  0  0  0  0  0  0  0
   41.4750   30.2870   39.6330 C   0  0  0  0  0  0  0  0  0  0  0  0
   41.6700   30.6960   38.6470 H   0  0  0  0  0  0  0  0  0  0  0  0
   41.9360   29.0180   39.9110 C   0  0  0  0  0  3  0  0  0  0  0  0
   41.6610   28.5460   41.1780 C   0  0  0  0  0  3  0  0  0  0  0  0
   40.9880   29.2580   42.0970 N   0  0  0  0  0  0  0  0  0  0  0  0
  1  2  1  0  0  0  0
  2 11  1  0  0  0  0
  2  3  2  0  0  0  0
  3  7  1  0  0  0  0
  4  3  1  0  0  0  0
  4  8  1  0  0  0  0
  5  4  2  0  0  0  0
  6  1  2  0  0  0  0
  6  5  1  0  0  0  0
  9  5  1  0  0  0  0
 10 15  2  0  0  0  0
 10 11  1  0  0  0  0
 11 12  2  0  0  0  0
 12 13  1  0  0  0  0
 12 18  1  0  0  0  0
 14 17  1  0  0  0  0
 14 13  2  0  0  0  0
 15 14  1  0  0  0  0
 16 10  1  0  0  0  0
 18 20  1  0  0  0  0
 18 19  1  0  0  0  0
 21 18  1  0  0  0  0
 22  1  1  0  0  0  0
 23 22  1  0  0  0  0
 24  6  1  0  0  0  0
 25 34  1  0  0  0  0
 25 26  1  0  0  0  0
 26 24  1  0  0  0  0
 27 26  2  0  0  0  0
 27 35  1  0  0  0  0
 28 27  1  0  0  0  0
 29 36  1  0  0  0  0
 29 28  1  0  0  0  0
 30 29  1  0  0  0  0
 31 30  2  0  0  0  0
 31 32  1  0  0  0  0
 32 33  1  0  0  0  0
 32 28  2  0  0  0  0
 33 25  2  0  0  0  0
 37 30  1  0  0  0  0
 38 45  1  0  0  0  0
 38 33  1  0  0  0  0
 39 38  2  0  0  0  0
 40 39  1  0  0  0  0
 41 43  2  0  0  0  0
 41 39  1  0  0  0  0
 42 41  1  0  0  0  0
 43 44  1  0  0  0  0
 44 45  2  0  0  0  0
M  END
>  <minimizedAffinity>
-7.70899057

>  <minimizedRMSD>
0.449146271

$$$$
