
 OpenBabel03272509123D

 27 29  0  0  0  0  0  0  0  0999 V2000
   35.2030   25.6100   30.7840 C   0  0  0  0  0  0  0  0  0  0  0  0
   36.0310   26.2660   31.7190 C   0  0  0  0  0  0  0  0  0  0  0  0
   36.8370   25.5020   32.5550 C   0  0  0  0  0  0  0  0  0  0  0  0
   36.8000   24.1380   32.4440 N   0  0  0  0  0  0  0  0  0  0  0  0
   35.9880   23.5370   31.5300 C   0  0  0  0  0  0  0  0  0  0  0  0
   35.2000   24.2710   30.7110 N   0  0  0  0  0  0  0  0  0  0  0  0
   34.5560   26.1090   30.1050 H   0  0  0  0  0  0  0  0  0  0  0  0
   35.9470   22.4600   31.4290 H   0  0  0  0  0  0  0  0  0  0  0  0
   37.7120   26.0980   33.5350 C   0  0  0  0  0  0  0  0  0  0  0  0
   39.0050   26.3640   33.1850 C   0  0  0  0  0  0  0  0  0  0  0  0
   39.8990   26.9430   34.0850 C   0  0  0  0  0  0  0  0  0  0  0  0
   39.4230   27.2390   35.3630 C   0  0  0  0  0  0  0  0  0  0  0  0
   38.1110   26.9900   35.7760 C   0  0  0  0  0  0  0  0  0  0  0  0
   37.3040   26.4160   34.8120 C   0  0  0  0  0  0  0  0  0  0  0  0
   39.5210   26.1840   32.2640 H   0  0  0  0  0  0  0  0  0  0  0  0
   40.9320   27.1850   33.8910 H   0  0  0  0  0  0  0  0  0  0  0  0
   40.0580   27.6930   36.1250 H   0  0  0  0  0  0  0  0  0  0  0  0
   37.7850   27.2350   36.7740 H   0  0  0  0  0  0  0  0  0  0  0  0
   36.2720   26.1950   35.0690 H   0  0  0  0  0  0  0  0  0  0  0  0
   35.9020   27.6870   31.6850 C   0  0  0  0  0  0  0  0  0  0  0  0
   36.6340   28.2910   30.6510 C   0  0  0  0  0  0  0  0  0  0  0  0
   37.2520   27.7360   29.9400 H   0  0  0  0  0  0  0  0  0  0  0  0
   36.6410   29.6530   30.4380 C   0  0  0  0  0  0  0  0  0  0  0  0
   37.2050   30.1170   29.6420 H   0  0  0  0  0  0  0  0  0  0  0  0
   35.9100   30.4910   31.2500 C   0  0  0  0  0  3  0  0  0  0  0  0
   35.1990   29.8540   32.2600 C   0  0  0  0  0  3  0  0  0  0  0  0
   35.1830   28.5160   32.4820 N   0  0  0  0  0  0  0  0  0  0  0  0
  1  2  1  0  0  0  0
  2  3  2  0  0  0  0
  3  9  1  0  0  0  0
  4  3  1  0  0  0  0
  5  4  2  0  0  0  0
  6  1  2  0  0  0  0
  6  5  1  0  0  0  0
  7  1  1  0  0  0  0
  8  5  1  0  0  0  0
  9 14  1  0  0  0  0
 10  9  2  0  0  0  0
 10 11  1  0  0  0  0
 11 12  2  0  0  0  0
 12 13  1  0  0  0  0
 12 17  1  0  0  0  0
 13 18  1  0  0  0  0
 14 19  1  0  0  0  0
 14 13  2  0  0  0  0
 15 10  1  0  0  0  0
 16 11  1  0  0  0  0
 20  2  1  0  0  0  0
 20 27  1  0  0  0  0
 21 20  2  0  0  0  0
 22 21  1  0  0  0  0
 23 21  1  0  0  0  0
 23 25  2  0  0  0  0
 24 23  1  0  0  0  0
 25 26  1  0  0  0  0
 26 27  2  0  0  0  0
M  END
>  <minimizedAffinity>
-5.00901604

$$$$

 OpenBabel03272509123D

 27 29  0  0  0  0  0  0  0  0999 V2000
   38.7990   25.6450   32.0430 C   0  0  0  0  0  0  0  0  0  0  0  0
   38.5960   24.8940   33.2200 C   0  0  0  0  0  0  0  0  0  0  0  0
   39.2340   25.2920   34.3890 C   0  0  0  0  0  0  0  0  0  0  0  0
   40.0380   26.4000   34.3610 N   0  0  0  0  0  0  0  0  0  0  0  0
   40.2120   27.1020   33.2080 C   0  0  0  0  0  0  0  0  0  0  0  0
   39.5950   26.7240   32.0640 N   0  0  0  0  0  0  0  0  0  0  0  0
   38.3540   25.4190   31.1050 H   0  0  0  0  0  0  0  0  0  0  0  0
   40.8440   27.9800   33.1670 H   0  0  0  0  0  0  0  0  0  0  0  0
   39.0760   24.5770   35.6330 C   0  0  0  0  0  0  0  0  0  0  0  0
   38.0210   24.8930   36.4420 C   0  0  0  0  0  0  0  0  0  0  0  0
   37.8110   24.2360   37.6540 C   0  0  0  0  0  0  0  0  0  0  0  0
   38.7220   23.2430   38.0130 C   0  0  0  0  0  0  0  0  0  0  0  0
   39.8180   22.8780   37.2260 C   0  0  0  0  0  0  0  0  0  0  0  0
   39.9380   23.5850   36.0460 C   0  0  0  0  0  0  0  0  0  0  0  0
   37.2540   25.6300   36.3190 H   0  0  0  0  0  0  0  0  0  0  0  0
   37.0070   24.4230   38.3490 H   0  0  0  0  0  0  0  0  0  0  0  0
   38.6280   22.6820   38.9450 H   0  0  0  0  0  0  0  0  0  0  0  0
   40.4990   22.1030   37.5420 H   0  0  0  0  0  0  0  0  0  0  0  0
   40.7700   23.3510   35.3870 H   0  0  0  0  0  0  0  0  0  0  0  0
   37.7410   23.7670   33.0270 C   0  0  0  0  0  0  0  0  0  0  0  0
   36.7200   23.9940   32.0910 C   0  0  0  0  0  0  0  0  0  0  0  0
   36.5800   24.9400   31.5610 H   0  0  0  0  0  0  0  0  0  0  0  0
   35.7910   23.0330   31.7540 C   0  0  0  0  0  0  0  0  0  0  0  0
   35.0050   23.2080   31.0330 H   0  0  0  0  0  0  0  0  0  0  0  0
   35.8320   21.7860   32.3350 C   0  0  0  0  0  3  0  0  0  0  0  0
   36.8580   21.6010   33.2550 C   0  0  0  0  0  3  0  0  0  0  0  0
   37.7790   22.5370   33.5970 N   0  0  0  0  0  0  0  0  0  0  0  0
  1  6  2  0  0  0  0
  1  2  1  0  0  0  0
  2  3  2  0  0  0  0
  3  9  1  0  0  0  0
  4  3  1  0  0  0  0
  5  4  2  0  0  0  0
  6  5  1  0  0  0  0
  7  1  1  0  0  0  0
  8  5  1  0  0  0  0
  9 14  2  0  0  0  0
  9 10  1  0  0  0  0
 10 11  2  0  0  0  0
 11 12  1  0  0  0  0
 11 16  1  0  0  0  0
 12 17  1  0  0  0  0
 13 18  1  0  0  0  0
 13 12  2  0  0  0  0
 14 13  1  0  0  0  0
 15 10  1  0  0  0  0
 19 14  1  0  0  0  0
 20  2  1  0  0  0  0
 20 27  1  0  0  0  0
 21 20  2  0  0  0  0
 22 21  1  0  0  0  0
 23 21  1  0  0  0  0
 23 25  2  0  0  0  0
 24 23  1  0  0  0  0
 25 26  1  0  0  0  0
 26 27  2  0  0  0  0
M  END
>  <minimizedAffinity>
-4.85086298

$$$$

 OpenBabel03272509123D

 27 29  0  0  0  0  0  0  0  0999 V2000
   38.2120   23.2730   32.2960 C   0  0  0  0  0  0  0  0  0  0  0  0
   38.6200   23.5430   33.6200 C   0  0  0  0  0  0  0  0  0  0  0  0
   38.1070   22.7650   34.6520 C   0  0  0  0  0  0  0  0  0  0  0  0
   37.2230   21.7640   34.3510 N   0  0  0  0  0  0  0  0  0  0  0  0
   36.8510   21.5300   33.0620 C   0  0  0  0  0  0  0  0  0  0  0  0
   37.3440   22.2810   32.0490 N   0  0  0  0  0  0  0  0  0  0  0  0
   38.5500   23.8110   31.4450 H   0  0  0  0  0  0  0  0  0  0  0  0
   36.1540   20.7430   32.8050 H   0  0  0  0  0  0  0  0  0  0  0  0
   38.4760   22.9780   36.0310 C   0  0  0  0  0  0  0  0  0  0  0  0
   37.6300   23.6890   36.8340 C   0  0  0  0  0  0  0  0  0  0  0  0
   37.9270   23.9270   38.1750 C   0  0  0  0  0  0  0  0  0  0  0  0
   39.1250   23.4100   38.6690 C   0  0  0  0  0  0  0  0  0  0  0  0
   40.0280   22.6760   37.8950 C   0  0  0  0  0  0  0  0  0  0  0  0
   39.6430   22.4950   36.5810 C   0  0  0  0  0  0  0  0  0  0  0  0
   36.6950   24.1590   36.6060 H   0  0  0  0  0  0  0  0  0  0  0  0
   37.3170   24.4760   38.8750 H   0  0  0  0  0  0  0  0  0  0  0  0
   39.4310   23.5510   39.7070 H   0  0  0  0  0  0  0  0  0  0  0  0
   40.9440   22.2950   38.3170 H   0  0  0  0  0  0  0  0  0  0  0  0
   40.3000   21.9320   35.9240 H   0  0  0  0  0  0  0  0  0  0  0  0
   39.5270   24.6400   33.7160 C   0  0  0  0  0  0  0  0  0  0  0  0
   38.8880   25.8870   33.8030 C   0  0  0  0  0  0  0  0  0  0  0  0
   37.8020   26.0160   33.7920 H   0  0  0  0  0  0  0  0  0  0  0  0
   39.5810   27.0750   33.9100 C   0  0  0  0  0  0  0  0  0  0  0  0
   39.0880   28.0340   33.9760 H   0  0  0  0  0  0  0  0  0  0  0  0
   40.9570   27.0800   33.9380 C   0  0  0  0  0  3  0  0  0  0  0  0
   41.5510   25.8270   33.8500 C   0  0  0  0  0  3  0  0  0  0  0  0
   40.8830   24.6510   33.7440 N   0  0  0  0  0  0  0  0  0  0  0  0
  1  2  1  0  0  0  0
  2 20  1  0  0  0  0
  2  3  2  0  0  0  0
  3  9  1  0  0  0  0
  4  3  1  0  0  0  0
  5  4  2  0  0  0  0
  6  1  2  0  0  0  0
  6  5  1  0  0  0  0
  7  1  1  0  0  0  0
  8  5  1  0  0  0  0
  9 14  2  0  0  0  0
  9 10  1  0  0  0  0
 10 11  2  0  0  0  0
 11 12  1  0  0  0  0
 11 16  1  0  0  0  0
 12 17  1  0  0  0  0
 13 18  1  0  0  0  0
 13 12  2  0  0  0  0
 14 13  1  0  0  0  0
 15 10  1  0  0  0  0
 19 14  1  0  0  0  0
 20 27  2  0  0  0  0
 20 21  1  0  0  0  0
 21 23  2  0  0  0  0
 22 21  1  0  0  0  0
 23 25  1  0  0  0  0
 23 24  1  0  0  0  0
 26 25  2  0  0  0  0
 27 26  1  0  0  0  0
M  END
>  <minimizedAffinity>
-4.7772603

$$$$

 OpenBabel03272509123D

 27 29  0  0  0  0  0  0  0  0999 V2000
   37.7570   23.3150   32.4020 C   0  0  0  0  0  0  0  0  0  0  0  0
   38.2040   23.6110   33.7080 C   0  0  0  0  0  0  0  0  0  0  0  0
   37.9050   22.7250   34.7360 C   0  0  0  0  0  0  0  0  0  0  0  0
   37.1860   21.5960   34.4510 N   0  0  0  0  0  0  0  0  0  0  0  0
   36.7700   21.3410   33.1800 C   0  0  0  0  0  0  0  0  0  0  0  0
   37.0560   22.1950   32.1700 N   0  0  0  0  0  0  0  0  0  0  0  0
   37.9370   23.9290   31.5550 H   0  0  0  0  0  0  0  0  0  0  0  0
   36.2010   20.4530   32.9360 H   0  0  0  0  0  0  0  0  0  0  0  0
   38.3280   22.9570   36.0970 C   0  0  0  0  0  0  0  0  0  0  0  0
   39.5510   22.4940   36.4910 C   0  0  0  0  0  0  0  0  0  0  0  0
   40.0190   22.6890   37.7910 C   0  0  0  0  0  0  0  0  0  0  0  0
   39.1880   23.3740   38.6770 C   0  0  0  0  0  0  0  0  0  0  0  0
   37.9280   23.8700   38.3290 C   0  0  0  0  0  0  0  0  0  0  0  0
   37.5560   23.6270   37.0210 C   0  0  0  0  0  0  0  0  0  0  0  0
   40.2900   21.9440   35.9440 H   0  0  0  0  0  0  0  0  0  0  0  0
   40.9680   22.3570   38.1820 H   0  0  0  0  0  0  0  0  0  0  0  0
   39.4800   23.5680   39.7100 H   0  0  0  0  0  0  0  0  0  0  0  0
   37.3180   24.3940   39.0470 H   0  0  0  0  0  0  0  0  0  0  0  0
   36.5880   23.9850   36.6850 H   0  0  0  0  0  0  0  0  0  0  0  0
   38.9150   24.8450   33.7920 C   0  0  0  0  0  0  0  0  0  0  0  0
   40.2730   24.7330   33.4540 C   0  0  0  0  0  0  0  0  0  0  0  0
   40.7510   23.7940   33.1620 H   0  0  0  0  0  0  0  0  0  0  0  0
   41.1360   25.8080   33.4640 C   0  0  0  0  0  0  0  0  0  0  0  0
   42.1810   25.7200   33.2050 H   0  0  0  0  0  0  0  0  0  0  0  0
   40.6860   27.0620   33.8110 C   0  0  0  0  0  3  0  0  0  0  0  0
   39.3370   27.1310   34.1370 C   0  0  0  0  0  3  0  0  0  0  0  0
   38.4760   26.0820   34.1320 N   0  0  0  0  0  0  0  0  0  0  0  0
  1  2  1  0  0  0  0
  2 20  1  0  0  0  0
  2  3  2  0  0  0  0
  3  9  1  0  0  0  0
  4  3  1  0  0  0  0
  5  4  2  0  0  0  0
  6  1  2  0  0  0  0
  6  5  1  0  0  0  0
  7  1  1  0  0  0  0
  8  5  1  0  0  0  0
  9 10  2  0  0  0  0
  9 14  1  0  0  0  0
 10 11  1  0  0  0  0
 11 16  1  0  0  0  0
 11 12  2  0  0  0  0
 12 17  1  0  0  0  0
 13 12  1  0  0  0  0
 13 18  1  0  0  0  0
 14 13  2  0  0  0  0
 15 10  1  0  0  0  0
 19 14  1  0  0  0  0
 20 27  1  0  0  0  0
 21 23  1  0  0  0  0
 21 20  2  0  0  0  0
 22 21  1  0  0  0  0
 23 25  2  0  0  0  0
 24 23  1  0  0  0  0
 25 26  1  0  0  0  0
 27 26  2  0  0  0  0
M  END
>  <minimizedAffinity>
-4.73069239

$$$$

 OpenBabel03272509123D

 27 29  0  0  0  0  0  0  0  0999 V2000
   41.9660   24.4050   35.0230 C   0  0  0  0  0  0  0  0  0  0  0  0
   40.6630   24.9360   34.9070 C   0  0  0  0  0  0  0  0  0  0  0  0
   40.5080   26.2430   34.4590 C   0  0  0  0  0  0  0  0  0  0  0  0
   41.6230   26.9720   34.1450 N   0  0  0  0  0  0  0  0  0  0  0  0
   42.8660   26.4290   34.2680 C   0  0  0  0  0  0  0  0  0  0  0  0
   43.0290   25.1570   34.7030 N   0  0  0  0  0  0  0  0  0  0  0  0
   42.1830   23.4200   35.3540 H   0  0  0  0  0  0  0  0  0  0  0  0
   43.7580   26.9910   34.0250 H   0  0  0  0  0  0  0  0  0  0  0  0
   39.2100   26.8560   34.3130 C   0  0  0  0  0  0  0  0  0  0  0  0
   38.5950   27.3620   35.4230 C   0  0  0  0  0  0  0  0  0  0  0  0
   37.3420   27.9700   35.3480 C   0  0  0  0  0  0  0  0  0  0  0  0
   36.7370   28.0410   34.0940 C   0  0  0  0  0  0  0  0  0  0  0  0
   37.3180   27.5420   32.9250 C   0  0  0  0  0  0  0  0  0  0  0  0
   38.5580   26.9590   33.1040 C   0  0  0  0  0  0  0  0  0  0  0  0
   38.9160   27.3710   36.4450 H   0  0  0  0  0  0  0  0  0  0  0  0
   36.7890   28.3930   36.1730 H   0  0  0  0  0  0  0  0  0  0  0  0
   35.7580   28.5010   33.9500 H   0  0  0  0  0  0  0  0  0  0  0  0
   36.8150   27.6180   31.9750 H   0  0  0  0  0  0  0  0  0  0  0  0
   39.0660   26.5500   32.2350 H   0  0  0  0  0  0  0  0  0  0  0  0
   39.6450   24.0190   35.3060 C   0  0  0  0  0  0  0  0  0  0  0  0
   39.2330   23.1580   34.2750 C   0  0  0  0  0  0  0  0  0  0  0  0
   39.6410   23.1850   33.2610 H   0  0  0  0  0  0  0  0  0  0  0  0
   38.2650   22.1930   34.4520 C   0  0  0  0  0  0  0  0  0  0  0  0
   37.9490   21.5320   33.6580 H   0  0  0  0  0  0  0  0  0  0  0  0
   37.6540   22.0320   35.6750 C   0  0  0  0  0  3  0  0  0  0  0  0
   38.0900   22.9020   36.6680 C   0  0  0  0  0  3  0  0  0  0  0  0
   39.0410   23.8560   36.5090 N   0  0  0  0  0  0  0  0  0  0  0  0
  1  7  1  0  0  0  0
  2  1  1  0  0  0  0
  2 20  1  0  0  0  0
  3  2  2  0  0  0  0
  4  5  2  0  0  0  0
  4  3  1  0  0  0  0
  5  6  1  0  0  0  0
  6  1  2  0  0  0  0
  8  5  1  0  0  0  0
  9  3  1  0  0  0  0
  9 10  1  0  0  0  0
 10 15  1  0  0  0  0
 11 10  2  0  0  0  0
 11 16  1  0  0  0  0
 12 11  1  0  0  0  0
 13 14  1  0  0  0  0
 13 12  2  0  0  0  0
 14  9  2  0  0  0  0
 17 12  1  0  0  0  0
 18 13  1  0  0  0  0
 19 14  1  0  0  0  0
 20 27  1  0  0  0  0
 21 23  1  0  0  0  0
 21 20  2  0  0  0  0
 22 21  1  0  0  0  0
 23 25  2  0  0  0  0
 24 23  1  0  0  0  0
 25 26  1  0  0  0  0
 27 26  2  0  0  0  0
M  END
>  <minimizedAffinity>
-4.71261692

$$$$

 OpenBabel03272509123D

 27 29  0  0  0  0  0  0  0  0999 V2000
   37.1150   24.3570   32.2760 C   0  0  0  0  0  0  0  0  0  0  0  0
   37.2260   25.7640   32.2460 C   0  0  0  0  0  0  0  0  0  0  0  0
   36.2320   26.5030   31.6170 C   0  0  0  0  0  0  0  0  0  0  0  0
   35.1770   25.8430   31.0460 N   0  0  0  0  0  0  0  0  0  0  0  0
   35.1000   24.4840   31.0930 C   0  0  0  0  0  0  0  0  0  0  0  0
   36.0620   23.7550   31.7040 N   0  0  0  0  0  0  0  0  0  0  0  0
   37.8220   23.7110   32.7330 H   0  0  0  0  0  0  0  0  0  0  0  0
   34.2730   23.9460   30.6480 H   0  0  0  0  0  0  0  0  0  0  0  0
   36.2740   27.9440   31.5450 C   0  0  0  0  0  0  0  0  0  0  0  0
   36.7790   28.5310   30.4200 C   0  0  0  0  0  0  0  0  0  0  0  0
   36.8430   29.9170   30.2870 C   0  0  0  0  0  0  0  0  0  0  0  0
   36.3730   30.6870   31.3520 C   0  0  0  0  0  0  0  0  0  0  0  0
   35.8460   30.1420   32.5260 C   0  0  0  0  0  0  0  0  0  0  0  0
   35.8250   28.7610   32.5600 C   0  0  0  0  0  0  0  0  0  0  0  0
   37.1880   28.0860   29.5350 H   0  0  0  0  0  0  0  0  0  0  0  0
   37.2260   30.4590   29.4360 H   0  0  0  0  0  0  0  0  0  0  0  0
   36.3890   31.7780   31.3270 H   0  0  0  0  0  0  0  0  0  0  0  0
   35.4940   30.7740   33.3250 H   0  0  0  0  0  0  0  0  0  0  0  0
   35.4280   28.2730   33.4450 H   0  0  0  0  0  0  0  0  0  0  0  0
   38.4110   26.2470   32.8780 C   0  0  0  0  0  0  0  0  0  0  0  0
   38.2880   26.3820   34.2700 C   0  0  0  0  0  0  0  0  0  0  0  0
   37.3750   26.1480   34.8240 H   0  0  0  0  0  0  0  0  0  0  0  0
   39.3180   26.8270   35.0710 C   0  0  0  0  0  0  0  0  0  0  0  0
   39.2210   26.9300   36.1420 H   0  0  0  0  0  0  0  0  0  0  0  0
   40.5350   27.1620   34.5220 C   0  0  0  0  0  3  0  0  0  0  0  0
   40.6170   27.0140   33.1420 C   0  0  0  0  0  3  0  0  0  0  0  0
   39.6120   26.5780   32.3420 N   0  0  0  0  0  0  0  0  0  0  0  0
  1  7  1  0  0  0  0
  2  1  1  0  0  0  0
  2 20  1  0  0  0  0
  3  2  2  0  0  0  0
  4  5  2  0  0  0  0
  4  3  1  0  0  0  0
  5  6  1  0  0  0  0
  6  1  2  0  0  0  0
  8  5  1  0  0  0  0
  9  3  1  0  0  0  0
  9 14  1  0  0  0  0
 10  9  2  0  0  0  0
 11 10  1  0  0  0  0
 11 12  2  0  0  0  0
 12 13  1  0  0  0  0
 13 14  2  0  0  0  0
 13 18  1  0  0  0  0
 14 19  1  0  0  0  0
 15 10  1  0  0  0  0
 16 11  1  0  0  0  0
 17 12  1  0  0  0  0
 20 21  1  0  0  0  0
 21 22  1  0  0  0  0
 21 23  2  0  0  0  0
 23 24  1  0  0  0  0
 25 23  1  0  0  0  0
 26 25  2  0  0  0  0
 27 20  2  0  0  0  0
 27 26  1  0  0  0  0
M  END
>  <minimizedAffinity>
-4.67301226

$$$$

 OpenBabel03272509123D

 27 29  0  0  0  0  0  0  0  0999 V2000
   35.8690   31.7730   35.6610 C   0  0  0  0  0  0  0  0  0  0  0  0
   34.9490   30.8110   35.1900 C   0  0  0  0  0  0  0  0  0  0  0  0
   33.6570   30.8100   35.7030 C   0  0  0  0  0  0  0  0  0  0  0  0
   33.3190   31.7400   36.6490 N   0  0  0  0  0  0  0  0  0  0  0  0
   34.2310   32.6530   37.0830 C   0  0  0  0  0  0  0  0  0  0  0  0
   35.4920   32.6640   36.5890 N   0  0  0  0  0  0  0  0  0  0  0  0
   36.8740   31.8520   35.3280 H   0  0  0  0  0  0  0  0  0  0  0  0
   33.9820   33.3950   37.8300 H   0  0  0  0  0  0  0  0  0  0  0  0
   32.6600   29.8600   35.2710 C   0  0  0  0  0  0  0  0  0  0  0  0
   32.1860   28.9510   36.1730 C   0  0  0  0  0  0  0  0  0  0  0  0
   31.2190   28.0100   35.8190 C   0  0  0  0  0  0  0  0  0  0  0  0
   30.7540   28.0300   34.5050 C   0  0  0  0  0  0  0  0  0  0  0  0
   31.2020   28.9370   33.5400 C   0  0  0  0  0  0  0  0  0  0  0  0
   32.1580   29.8270   33.9880 C   0  0  0  0  0  0  0  0  0  0  0  0
   32.4480   28.7970   37.2000 H   0  0  0  0  0  0  0  0  0  0  0  0
   30.7930   27.2600   36.4670 H   0  0  0  0  0  0  0  0  0  0  0  0
   29.9980   27.3280   34.1480 H   0  0  0  0  0  0  0  0  0  0  0  0
   30.8150   28.9170   32.5330 H   0  0  0  0  0  0  0  0  0  0  0  0
   32.5500   30.5590   33.2880 H   0  0  0  0  0  0  0  0  0  0  0  0
   35.5100   29.9240   34.2230 C   0  0  0  0  0  0  0  0  0  0  0  0
   35.6440   30.4980   32.9490 C   0  0  0  0  0  0  0  0  0  0  0  0
   35.3440   31.5220   32.7090 H   0  0  0  0  0  0  0  0  0  0  0  0
   36.1700   29.8130   31.8740 C   0  0  0  0  0  0  0  0  0  0  0  0
   36.2720   30.2560   30.8930 H   0  0  0  0  0  0  0  0  0  0  0  0
   36.5950   28.5110   32.0140 C   0  0  0  0  0  3  0  0  0  0  0  0
   36.4460   27.9810   33.2910 C   0  0  0  0  0  3  0  0  0  0  0  0
   35.9300   28.6420   34.3570 N   0  0  0  0  0  0  0  0  0  0  0  0
  1  6  1  0  0  0  0
  2  1  2  0  0  0  0
  2  3  1  0  0  0  0
  3  4  2  0  0  0  0
  4  5  1  0  0  0  0
  5  8  1  0  0  0  0
  6  5  2  0  0  0  0
  7  1  1  0  0  0  0
  9  3  1  0  0  0  0
  9 10  1  0  0  0  0
 10 15  1  0  0  0  0
 11 10  2  0  0  0  0
 11 16  1  0  0  0  0
 12 11  1  0  0  0  0
 13 14  1  0  0  0  0
 13 12  2  0  0  0  0
 14  9  2  0  0  0  0
 17 12  1  0  0  0  0
 18 13  1  0  0  0  0
 19 14  1  0  0  0  0
 20 27  1  0  0  0  0
 20  2  1  0  0  0  0
 21 20  2  0  0  0  0
 22 21  1  0  0  0  0
 23 25  2  0  0  0  0
 23 21  1  0  0  0  0
 24 23  1  0  0  0  0
 25 26  1  0  0  0  0
 26 27  2  0  0  0  0
M  END
>  <minimizedAffinity>
-4.65461731

$$$$

 OpenBabel03272509123D

 27 29  0  0  0  0  0  0  0  0999 V2000
   39.2730   25.2830   29.7220 C   0  0  0  0  0  0  0  0  0  0  0  0
   38.7920   25.5030   31.0310 C   0  0  0  0  0  0  0  0  0  0  0  0
   39.1540   26.6720   31.6910 C   0  0  0  0  0  0  0  0  0  0  0  0
   39.9640   27.5710   31.0510 N   0  0  0  0  0  0  0  0  0  0  0  0
   40.4110   27.3270   29.7880 C   0  0  0  0  0  0  0  0  0  0  0  0
   40.0650   26.1920   29.1350 N   0  0  0  0  0  0  0  0  0  0  0  0
   39.0510   24.4230   29.1410 H   0  0  0  0  0  0  0  0  0  0  0  0
   41.0520   28.0260   29.2670 H   0  0  0  0  0  0  0  0  0  0  0  0
   38.7020   26.9700   33.0290 C   0  0  0  0  0  0  0  0  0  0  0  0
   39.5750   26.8120   34.0670 C   0  0  0  0  0  0  0  0  0  0  0  0
   39.2020   27.0860   35.3820 C   0  0  0  0  0  0  0  0  0  0  0  0
   37.8970   27.5280   35.6000 C   0  0  0  0  0  0  0  0  0  0  0  0
   36.9600   27.7090   34.5770 C   0  0  0  0  0  0  0  0  0  0  0  0
   37.4280   27.4110   33.3120 C   0  0  0  0  0  0  0  0  0  0  0  0
   40.5910   26.4700   34.0670 H   0  0  0  0  0  0  0  0  0  0  0  0
   39.8270   26.9880   36.2560 H   0  0  0  0  0  0  0  0  0  0  0  0
   37.5260   27.7650   36.5980 H   0  0  0  0  0  0  0  0  0  0  0  0
   35.9610   28.0530   34.7900 H   0  0  0  0  0  0  0  0  0  0  0  0
   36.7500   27.5290   32.4710 H   0  0  0  0  0  0  0  0  0  0  0  0
   37.9830   24.4340   31.5190 C   0  0  0  0  0  0  0  0  0  0  0  0
   36.6990   24.4000   30.9520 C   0  0  0  0  0  0  0  0  0  0  0  0
   36.3430   25.1220   30.2120 H   0  0  0  0  0  0  0  0  0  0  0  0
   35.7630   23.4440   31.2820 C   0  0  0  0  0  0  0  0  0  0  0  0
   34.7750   23.4180   30.8440 H   0  0  0  0  0  0  0  0  0  0  0  0
   36.0600   22.4620   32.2000 C   0  0  0  0  0  3  0  0  0  0  0  0
   37.3400   22.5310   32.7380 C   0  0  0  0  0  3  0  0  0  0  0  0
   38.2710   23.4650   32.4240 N   0  0  0  0  0  0  0  0  0  0  0  0
  1  2  1  0  0  0  0
  2 20  1  0  0  0  0
  2  3  2  0  0  0  0
  3  9  1  0  0  0  0
  4  3  1  0  0  0  0
  5  4  2  0  0  0  0
  6  1  2  0  0  0  0
  6  5  1  0  0  0  0
  7  1  1  0  0  0  0
  8  5  1  0  0  0  0
  9 14  2  0  0  0  0
  9 10  1  0  0  0  0
 10 11  2  0  0  0  0
 11 12  1  0  0  0  0
 11 16  1  0  0  0  0
 12 17  1  0  0  0  0
 13 18  1  0  0  0  0
 13 12  2  0  0  0  0
 14 13  1  0  0  0  0
 15 10  1  0  0  0  0
 19 14  1  0  0  0  0
 20 27  1  0  0  0  0
 21 23  1  0  0  0  0
 21 20  2  0  0  0  0
 22 21  1  0  0  0  0
 23 25  2  0  0  0  0
 24 23  1  0  0  0  0
 25 26  1  0  0  0  0
 27 26  2  0  0  0  0
M  END
>  <minimizedAffinity>
-4.65002489

$$$$

 OpenBabel03272509123D

 27 29  0  0  0  0  0  0  0  0999 V2000
   37.2470   25.5210   32.7510 C   0  0  0  0  0  0  0  0  0  0  0  0
   37.1630   24.1150   32.6620 C   0  0  0  0  0  0  0  0  0  0  0  0
   36.2350   23.5520   31.7940 C   0  0  0  0  0  0  0  0  0  0  0  0
   35.4320   24.3780   31.0550 N   0  0  0  0  0  0  0  0  0  0  0  0
   35.5390   25.7310   31.1650 C   0  0  0  0  0  0  0  0  0  0  0  0
   36.4400   26.2910   32.0060 N   0  0  0  0  0  0  0  0  0  0  0  0
   37.9240   26.0410   33.3830 H   0  0  0  0  0  0  0  0  0  0  0  0
   34.9130   26.3990   30.5880 H   0  0  0  0  0  0  0  0  0  0  0  0
   36.0900   22.1230   31.6470 C   0  0  0  0  0  0  0  0  0  0  0  0
   35.1080   21.4870   32.3520 C   0  0  0  0  0  0  0  0  0  0  0  0
   34.9140   20.1100   32.2500 C   0  0  0  0  0  0  0  0  0  0  0  0
   35.7640   19.4020   31.4000 C   0  0  0  0  0  0  0  0  0  0  0  0
   36.7840   19.9990   30.6540 C   0  0  0  0  0  0  0  0  0  0  0  0
   36.8950   21.3660   30.8230 C   0  0  0  0  0  0  0  0  0  0  0  0
   34.3950   21.8790   33.0490 H   0  0  0  0  0  0  0  0  0  0  0  0
   34.1660   19.5320   32.7700 H   0  0  0  0  0  0  0  0  0  0  0  0
   35.6780   18.3230   31.2640 H   0  0  0  0  0  0  0  0  0  0  0  0
   37.4190   19.4140   30.0080 H   0  0  0  0  0  0  0  0  0  0  0  0
   37.6690   21.8930   30.2730 H   0  0  0  0  0  0  0  0  0  0  0  0
   38.0720   23.4420   33.5320 C   0  0  0  0  0  0  0  0  0  0  0  0
   39.4010   23.4620   33.0780 C   0  0  0  0  0  0  0  0  0  0  0  0
   39.7170   23.9380   32.1460 H   0  0  0  0  0  0  0  0  0  0  0  0
   40.4360   22.8750   33.7730 C   0  0  0  0  0  0  0  0  0  0  0  0
   41.4580   22.8910   33.4220 H   0  0  0  0  0  0  0  0  0  0  0  0
   40.2010   22.2340   34.9680 C   0  0  0  0  0  3  0  0  0  0  0  0
   38.8740   22.2370   35.3840 C   0  0  0  0  0  3  0  0  0  0  0  0
   37.8450   22.8100   34.7100 N   0  0  0  0  0  0  0  0  0  0  0  0
  1  7  1  0  0  0  0
  2  1  1  0  0  0  0
  2 20  1  0  0  0  0
  3  2  2  0  0  0  0
  4  5  2  0  0  0  0
  4  3  1  0  0  0  0
  5  6  1  0  0  0  0
  6  1  2  0  0  0  0
  8  5  1  0  0  0  0
  9  3  1  0  0  0  0
  9 10  1  0  0  0  0
 10 15  1  0  0  0  0
 11 10  2  0  0  0  0
 11 16  1  0  0  0  0
 12 11  1  0  0  0  0
 13 14  1  0  0  0  0
 13 12  2  0  0  0  0
 14  9  2  0  0  0  0
 17 12  1  0  0  0  0
 18 13  1  0  0  0  0
 19 14  1  0  0  0  0
 20 27  1  0  0  0  0
 21 20  2  0  0  0  0
 21 23  1  0  0  0  0
 22 21  1  0  0  0  0
 23 25  2  0  0  0  0
 24 23  1  0  0  0  0
 25 26  1  0  0  0  0
 27 26  2  0  0  0  0
M  END
>  <minimizedAffinity>
-4.64453697

$$$$
