
 OpenBabel03272509213D

 45 49  0  0  0  0  0  0  0  0999 V2000
   37.9820   31.2750   47.7790 C   0  0  0  0  0  0  0  0  0  0  0  0
   37.0630   31.2960   48.8130 C   0  0  0  0  0  0  0  0  0  0  0  0
   37.1800   32.4040   49.6660 C   0  0  0  0  0  0  0  0  0  0  0  0
   38.1510   33.3880   49.4670 C   0  0  0  0  0  0  0  0  0  0  0  0
   39.0460   33.2770   48.3800 C   0  0  0  0  0  0  0  0  0  0  0  0
   38.9370   32.1790   47.5260 C   0  0  0  0  0  0  0  0  0  0  0  0
   36.5120   32.5150   50.5020 H   0  0  0  0  0  0  0  0  0  0  0  0
   38.2240   34.2330   50.1340 H   0  0  0  0  0  0  0  0  0  0  0  0
   39.7900   34.0520   48.2460 H   0  0  0  0  0  0  0  0  0  0  0  0
   34.9060   30.3000   48.2710 C   0  0  0  0  0  0  0  0  0  0  0  0
   36.0730   30.2940   49.0180 C   0  0  0  0  0  0  0  0  0  0  0  0
   36.2310   29.2690   49.9720 C   0  0  0  0  0  0  0  0  0  0  0  0
   35.2460   28.3530   50.1110 N   0  0  0  0  0  0  0  0  0  0  0  0
   34.1170   28.4010   49.3520 C   0  0  0  0  0  0  0  0  0  0  0  0
   33.9480   29.3690   48.4380 N   0  0  0  0  0  0  0  0  0  0  0  0
   34.7530   31.0650   47.5380 H   0  0  0  0  0  0  0  0  0  0  0  0
   33.4120   27.6070   49.5670 H   0  0  0  0  0  0  0  0  0  0  0  0
   37.4600   29.2120   50.8010 C   0  0  0  0  0  0  0  0  0  0  0  0
   37.2690   28.5280   51.6520 H   0  0  0  0  0  0  0  0  0  0  0  0
   37.7970   30.2230   51.1170 H   0  0  0  0  0  0  0  0  0  0  0  0
   38.2450   28.7440   50.1680 H   0  0  0  0  0  0  0  0  0  0  0  0
   37.9490   30.2100   46.8710 O   0  0  0  0  0  0  0  0  0  0  0  0
   37.3600   30.1740   46.0640 H   0  0  0  0  0  0  0  0  0  0  0  0
   39.8470   32.1340   46.4820 O   0  0  0  0  0  0  0  0  0  0  0  0
   40.2420   31.3350   44.1760 C   0  0  0  0  0  0  0  0  0  0  0  0
   39.5500   31.9930   45.1620 C   0  0  0  0  0  0  0  0  0  0  0  0
   38.3620   32.6300   44.8190 C   0  0  0  0  0  0  0  0  0  0  0  0
   37.8790   32.6010   43.4980 C   0  0  0  0  0  0  0  0  0  0  0  0
   36.8070   33.0960   42.8610 N   0  0  0  0  0  0  0  0  0  0  0  0
   36.8290   32.7680   41.5660 C   0  0  0  0  0  0  0  0  0  0  0  0
   37.9530   32.0420   41.3810 N   0  0  0  0  0  0  0  0  0  0  0  0
   38.6210   31.9220   42.5530 C   0  0  0  0  0  0  0  0  0  0  0  0
   39.7920   31.2910   42.8780 C   0  0  0  0  0  0  0  0  0  0  0  0
   41.1460   30.8640   44.4950 H   0  0  0  0  0  0  0  0  0  0  0  0
   37.7160   33.1840   45.4890 H   0  0  0  0  0  0  0  0  0  0  0  0
   36.0610   33.6610   43.3230 H   0  0  0  0  0  0  0  0  0  0  0  0
   36.0930   33.0290   40.8080 H   0  0  0  0  0  0  0  0  0  0  0  0
   40.5270   30.5920   41.8340 C   0  0  0  0  0  0  0  0  0  0  0  0
   41.0800   29.3430   41.9760 C   0  0  0  0  0  0  0  0  0  0  0  0
   40.9780   28.8220   42.9160 H   0  0  0  0  0  0  0  0  0  0  0  0
   41.7780   28.6740   40.9910 C   0  0  0  0  0  0  0  0  0  0  0  0
   42.2020   27.6870   41.1390 H   0  0  0  0  0  0  0  0  0  0  0  0
   41.9480   29.2790   39.7650 C   0  0  0  0  0  0  0  0  0  0  0  0
   41.3890   30.5320   39.6330 C   0  0  0  0  0  0  0  0  0  0  0  0
   40.7170   31.1460   40.6210 N   0  0  0  0  0  0  0  0  0  0  0  0
  1  2  1  0  0  0  0
  2 11  1  0  0  0  0
  2  3  2  0  0  0  0
  3  7  1  0  0  0  0
  4  3  1  0  0  0  0
  4  8  1  0  0  0  0
  5  4  2  0  0  0  0
  6  1  2  0  0  0  0
  6  5  1  0  0  0  0
  9  5  1  0  0  0  0
 10 15  2  0  0  0  0
 10 11  1  0  0  0  0
 11 12  2  0  0  0  0
 12 13  1  0  0  0  0
 12 18  1  0  0  0  0
 14 17  1  0  0  0  0
 14 13  2  0  0  0  0
 15 14  1  0  0  0  0
 16 10  1  0  0  0  0
 18 20  1  0  0  0  0
 18 19  1  0  0  0  0
 21 18  1  0  0  0  0
 22  1  1  0  0  0  0
 23 22  1  0  0  0  0
 24  6  1  0  0  0  0
 25 34  1  0  0  0  0
 25 26  1  0  0  0  0
 26 24  1  0  0  0  0
 27 26  2  0  0  0  0
 27 35  1  0  0  0  0
 28 27  1  0  0  0  0
 29 36  1  0  0  0  0
 29 28  1  0  0  0  0
 30 29  1  0  0  0  0
 31 30  2  0  0  0  0
 31 32  1  0  0  0  0
 32 33  1  0  0  0  0
 32 28  2  0  0  0  0
 33 25  2  0  0  0  0
 37 30  1  0  0  0  0
 38 39  1  0  0  0  0
 38 33  1  0  0  0  0
 39 40  1  0  0  0  0
 41 42  1  0  0  0  0
 41 39  2  0  0  0  0
 43 41  1  0  0  0  0
 44 43  2  0  0  0  0
 44 45  1  0  0  0  0
 45 38  2  0  0  0  0
M  END
>  <minimizedAffinity>
-7.78209019

>  <minimizedRMSD>
0.495433599

$$$$
