
 OpenBabel03262520583D

 32 34  0  0  1  0  0  0  0  0999 V2000
   39.2560   32.8290   42.3560 N   0  0  0  0  0  0  0  0  0  0  0  0
   38.5920   32.7350   43.6070 C   0  0  1  0  0  0  0  0  0  0  0  0
   37.0880   32.6380   43.4230 C   0  0  0  0  0  0  0  0  0  0  0  0
   36.8270   31.4720   42.6000 N   0  0  0  0  0  0  0  0  0  0  0  0
   37.3410   31.8300   41.2670 C   0  0  0  0  0  0  0  0  0  0  0  0
   38.8620   31.8230   41.4290 C   0  0  2  0  0  0  0  0  0  0  0  0
   40.2870   32.7660   42.5080 H   0  0  0  0  0  0  0  0  0  0  0  0
   38.8880   33.6030   44.2210 H   0  0  0  0  0  0  0  0  0  0  0  0
   36.6030   32.5770   44.4070 H   0  0  0  0  0  0  0  0  0  0  0  0
   36.7580   33.5590   42.9020 H   0  0  0  0  0  0  0  0  0  0  0  0
   35.7920   31.3580   42.4870 H   0  0  0  0  0  0  0  0  0  0  0  0
   37.0600   32.8710   41.0100 H   0  0  0  0  0  0  0  0  0  0  0  0
   37.0440   31.1100   40.5040 H   0  0  0  0  0  0  0  0  0  0  0  0
   39.2540   32.1450   40.4200 H   0  0  0  0  0  0  0  0  0  0  0  0
   39.3650   30.4650   41.7020 C   0  0  0  0  0  0  0  0  0  0  0  0
   40.7270   30.3100   41.8480 C   0  0  0  0  0  0  0  0  0  0  0  0
   41.4770   31.0610   41.7880 H   0  0  0  0  0  0  0  0  0  0  0  0
   41.2420   29.0420   42.1080 C   0  0  0  0  0  0  0  0  0  0  0  0
   42.3120   28.8170   42.2400 H   0  0  0  0  0  0  0  0  0  0  0  0
   40.3450   27.9740   42.2090 C   0  0  0  0  0  0  0  0  0  0  0  0
   38.9830   28.1420   42.0610 C   0  0  0  0  0  0  0  0  0  0  0  0
   38.5660   29.3870   41.8150 N   0  0  0  0  0  0  0  0  0  0  0  0
   39.0490   31.2020   44.5280 S   0  0  0  0  0  0  0  0  0  0  0  0
   38.5240   32.0740   48.4680 C   0  0  0  0  0  0  0  0  0  0  0  0
   39.1210   32.0710   47.2100 C   0  0  0  0  0  0  0  0  0  0  0  0
   38.4610   31.3430   46.2210 C   0  0  0  0  0  0  0  0  0  0  0  0
   37.2950   30.6900   46.5320 N   0  0  0  0  0  0  0  0  0  0  0  0
   36.7750   30.7310   47.7530 C   0  0  0  0  0  0  0  0  0  0  0  0
   37.3950   31.4330   48.7410 N   0  0  0  0  0  0  0  0  0  0  0  0
   39.0320   32.6310   49.2260 H   0  0  0  0  0  0  0  0  0  0  0  0
   40.0330   32.5700   46.9280 H   0  0  0  0  0  0  0  0  0  0  0  0
   35.8600   30.2320   48.0430 H   0  0  0  0  0  0  0  0  0  0  0  0
  1  7  1  0  0  0  0
  1  2  1  0  0  0  0
  2  8  1  1  0  0  0
  2 23  1  0  0  0  0
  3  2  1  0  0  0  0
  3  9  1  0  0  0  0
  4  3  1  0  0  0  0
  5  6  1  0  0  0  0
  5  4  1  0  0  0  0
  6 14  1  6  0  0  0
  6 15  1  0  0  0  0
  6  1  1  0  0  0  0
 10  3  1  0  0  0  0
 11  4  1  0  0  0  0
 12  5  1  0  0  0  0
 13  5  1  0  0  0  0
 15 22  2  0  0  0  0
 15 16  1  0  0  0  0
 16 18  2  0  0  0  0
 17 16  1  0  0  0  0
 18 20  1  0  0  0  0
 18 19  1  0  0  0  0
 21 20  2  0  0  0  0
 22 21  1  0  0  0  0
 23 26  1  0  0  0  0
 24 29  1  0  0  0  0
 24 30  1  0  0  0  0
 25 24  2  0  0  0  0
 26 27  2  0  0  0  0
 26 25  1  0  0  0  0
 27 28  1  0  0  0  0
 28 32  1  0  0  0  0
 28 29  2  0  0  0  0
 31 25  1  0  0  0  0
M  END
>  <minimizedAffinity>
-4.11836243

>  <minimizedRMSD>
3.77950549

$$$$
