
 OpenBabel03272506093D

 43 46  0  0  0  0  0  0  0  0999 V2000
   34.2030   28.0460   48.9490 C   0  0  0  0  0  0  0  0  0  0  0  0
   34.3820   27.0090   49.3070 H   0  0  0  0  0  0  0  0  0  0  0  0
   35.0140   28.2710   48.2280 H   0  0  0  0  0  0  0  0  0  0  0  0
   32.8660   28.1000   48.2680 C   0  0  0  0  0  0  0  0  0  0  0  0
   32.7990   28.6030   46.9070 C   0  0  0  0  0  0  0  0  0  0  0  0
   31.0650   28.4630   46.5760 S   0  0  0  0  0  0  0  0  0  0  0  0
   30.6420   27.7570   48.2790 C   0  0  0  0  0  0  0  0  0  0  0  0
   31.7250   27.7360   48.7690 N   0  0  0  0  0  0  0  0  0  0  0  0
   29.3760   27.3510   48.8440 N   0  0  0  0  0  0  0  0  0  0  0  0
   28.3910   26.8840   47.9230 C   0  0  0  0  0  0  0  0  0  0  0  0
   27.0240   26.7650   48.4780 C   0  0  0  0  0  0  0  0  0  0  0  0
   26.8740   27.4820   49.7490 N   0  0  0  0  0  0  0  0  0  0  0  0
   27.8570   26.8690   50.6380 C   0  0  0  0  0  0  0  0  0  0  0  0
   29.1930   27.4420   50.2710 C   0  0  0  0  0  0  0  0  0  0  0  0
   33.5920   28.9450   46.3180 H   0  0  0  0  0  0  0  0  0  0  0  0
   28.3680   27.6070   47.0780 H   0  0  0  0  0  0  0  0  0  0  0  0
   28.7320   25.9150   47.4560 H   0  0  0  0  0  0  0  0  0  0  0  0
   26.2640   27.0860   47.7330 H   0  0  0  0  0  0  0  0  0  0  0  0
   26.8210   25.6720   48.6380 H   0  0  0  0  0  0  0  0  0  0  0  0
   25.9080   27.4200   50.0840 H   0  0  0  0  0  0  0  0  0  0  0  0
   27.8170   25.7720   50.6260 H   0  0  0  0  0  0  0  0  0  0  0  0
   27.5990   27.2330   51.6660 H   0  0  0  0  0  0  0  0  0  0  0  0
   29.9700   26.8930   50.8450 H   0  0  0  0  0  0  0  0  0  0  0  0
   29.1520   28.5280   50.5620 H   0  0  0  0  0  0  0  0  0  0  0  0
   34.2440   28.9700   50.1140 C   0  0  0  0  0  0  0  0  0  0  0  0
   34.0150   28.4390   51.0600 H   0  0  0  0  0  0  0  0  0  0  0  0
   33.5430   29.8400   49.9970 H   0  0  0  0  0  0  0  0  0  0  0  0
   37.4850   30.1360   51.4720 C   0  0  0  0  0  0  0  0  0  0  0  0
   38.0910   30.7330   50.3630 C   0  0  0  0  0  0  0  0  0  0  0  0
   37.3810   30.7280   49.1640 C   0  0  0  0  0  0  0  0  0  0  0  0
   36.1640   30.1490   49.1600 N   0  0  0  0  0  0  0  0  0  0  0  0
   35.6140   29.5840   50.2530 C   0  0  0  0  0  0  0  0  0  0  0  0
   36.2630   29.5750   51.4010 N   0  0  0  0  0  0  0  0  0  0  0  0
   38.0400   30.1450   52.3970 H   0  0  0  0  0  0  0  0  0  0  0  0
   39.0570   31.1900   50.3740 H   0  0  0  0  0  0  0  0  0  0  0  0
   37.8660   31.3050   47.9160 C   0  0  0  0  0  0  0  0  0  0  0  0
   38.9410   32.1490   47.8390 C   0  0  0  0  0  0  0  0  0  0  0  0
   39.4810   32.4230   48.7310 H   0  0  0  0  0  0  0  0  0  0  0  0
   39.4130   32.7010   46.6860 C   0  0  0  0  0  0  0  0  0  0  0  0
   40.2800   33.3780   46.6490 H   0  0  0  0  0  0  0  0  0  0  0  0
   38.7960   32.4160   45.4940 C   0  0  0  0  0  0  0  0  0  0  0  0
   37.7160   31.5650   45.5870 C   0  0  0  0  0  0  0  0  0  0  0  0
   37.2810   31.0430   46.7360 N   0  0  0  0  0  0  0  0  0  0  0  0
  1  2  1  0  0  0  0
  1 25  1  0  0  0  0
  3  1  1  0  0  0  0
  4  8  1  0  0  0  0
  4  1  1  0  0  0  0
  5  4  2  0  0  0  0
  6  5  1  0  0  0  0
  6  7  1  0  0  0  0
  7  8  2  0  0  0  0
  7  9  1  0  0  0  0
  9 14  1  0  0  0  0
 10 11  1  0  0  0  0
 10  9  1  0  0  0  0
 11 19  1  0  0  0  0
 11 12  1  0  0  0  0
 12 20  1  0  0  0  0
 12 13  1  0  0  0  0
 13 22  1  0  0  0  0
 14 24  1  0  0  0  0
 14 13  1  0  0  0  0
 14 23  1  0  0  0  0
 15  5  1  0  0  0  0
 16 10  1  0  0  0  0
 17 10  1  0  0  0  0
 18 11  1  0  0  0  0
 21 13  1  0  0  0  0
 25 32  1  0  0  0  0
 25 26  1  0  0  0  0
 27 25  1  0  0  0  0
 28 34  1  0  0  0  0
 29 35  1  0  0  0  0
 29 28  2  0  0  0  0
 30 29  1  0  0  0  0
 31 30  2  0  0  0  0
 31 32  1  0  0  0  0
 32 33  2  0  0  0  0
 33 28  1  0  0  0  0
 36 30  1  0  0  0  0
 37 36  1  0  0  0  0
 37 38  1  0  0  0  0
 39 37  2  0  0  0  0
 40 39  1  0  0  0  0
 41 42  2  0  0  0  0
 41 39  1  0  0  0  0
 42 43  1  0  0  0  0
 43 36  2  0  0  0  0
M  END
>  <minimizedAffinity>
-7.40066481

>  <minimizedRMSD>
1.93596447

$$$$
