
 OpenBabel03272509213D

 45 49  0  0  0  0  0  0  0  0999 V2000
   38.1310   31.4070   47.9250 C   0  0  0  0  0  0  0  0  0  0  0  0
   37.2670   31.5930   48.9890 C   0  0  0  0  0  0  0  0  0  0  0  0
   37.4580   32.7980   49.6830 C   0  0  0  0  0  0  0  0  0  0  0  0
   38.4440   33.7150   49.3110 C   0  0  0  0  0  0  0  0  0  0  0  0
   39.2780   33.4330   48.2070 C   0  0  0  0  0  0  0  0  0  0  0  0
   39.0960   32.2390   47.5110 C   0  0  0  0  0  0  0  0  0  0  0  0
   36.8360   33.0380   50.5280 H   0  0  0  0  0  0  0  0  0  0  0  0
   38.5730   34.6360   49.8570 H   0  0  0  0  0  0  0  0  0  0  0  0
   40.0350   34.1600   47.9380 H   0  0  0  0  0  0  0  0  0  0  0  0
   35.1630   30.4430   48.5550 C   0  0  0  0  0  0  0  0  0  0  0  0
   36.2620   30.6600   49.3700 C   0  0  0  0  0  0  0  0  0  0  0  0
   36.3370   29.9280   50.5710 C   0  0  0  0  0  0  0  0  0  0  0  0
   35.3430   29.0590   50.8660 N   0  0  0  0  0  0  0  0  0  0  0  0
   34.2830   28.8810   50.0310 C   0  0  0  0  0  0  0  0  0  0  0  0
   34.1940   29.5690   48.8830 N   0  0  0  0  0  0  0  0  0  0  0  0
   35.0740   30.9840   47.6350 H   0  0  0  0  0  0  0  0  0  0  0  0
   33.5620   28.1560   50.3910 H   0  0  0  0  0  0  0  0  0  0  0  0
   37.4910   30.1180   51.4840 C   0  0  0  0  0  0  0  0  0  0  0  0
   37.2280   29.6790   52.4670 H   0  0  0  0  0  0  0  0  0  0  0  0
   37.8010   31.1840   51.5480 H   0  0  0  0  0  0  0  0  0  0  0  0
   38.3260   29.5170   51.0650 H   0  0  0  0  0  0  0  0  0  0  0  0
   38.0240   30.2360   47.1670 O   0  0  0  0  0  0  0  0  0  0  0  0
   37.3930   30.1150   46.4000 H   0  0  0  0  0  0  0  0  0  0  0  0
   39.9500   32.0280   46.4400 O   0  0  0  0  0  0  0  0  0  0  0  0
   40.0570   30.8310   44.2790 C   0  0  0  0  0  0  0  0  0  0  0  0
   39.5810   31.7750   45.1550 C   0  0  0  0  0  0  0  0  0  0  0  0
   38.5740   32.6280   44.7180 C   0  0  0  0  0  0  0  0  0  0  0  0
   38.0520   32.5280   43.4160 C   0  0  0  0  0  0  0  0  0  0  0  0
   37.1110   33.1740   42.7110 N   0  0  0  0  0  0  0  0  0  0  0  0
   37.0070   32.6660   41.4790 C   0  0  0  0  0  0  0  0  0  0  0  0
   37.9120   31.6670   41.4060 N   0  0  0  0  0  0  0  0  0  0  0  0
   38.5720   31.5570   42.5840 C   0  0  0  0  0  0  0  0  0  0  0  0
   39.5650   30.7110   43.0020 C   0  0  0  0  0  0  0  0  0  0  0  0
   40.8290   30.2030   44.6660 H   0  0  0  0  0  0  0  0  0  0  0  0
   38.1060   33.4160   45.2980 H   0  0  0  0  0  0  0  0  0  0  0  0
   36.5420   33.9660   43.0820 H   0  0  0  0  0  0  0  0  0  0  0  0
   36.3310   32.9880   40.6890 H   0  0  0  0  0  0  0  0  0  0  0  0
   40.0700   29.7090   42.0750 C   0  0  0  0  0  0  0  0  0  0  0  0
   41.1630   29.8840   41.2610 C   0  0  0  0  0  0  0  0  0  0  0  0
   41.7030   30.8190   41.2910 H   0  0  0  0  0  0  0  0  0  0  0  0
   41.6490   28.9400   40.3810 C   0  0  0  0  0  0  0  0  0  0  0  0
   42.5150   29.1110   39.7520 H   0  0  0  0  0  0  0  0  0  0  0  0
   41.0100   27.7220   40.2880 C   0  0  0  0  0  3  0  0  0  0  0  0
   39.9140   27.5560   41.1090 C   0  0  0  0  0  3  0  0  0  0  0  0
   39.4760   28.5060   41.9530 N   0  0  0  0  0  0  0  0  0  0  0  0
  1  2  1  0  0  0  0
  2 11  1  0  0  0  0
  2  3  2  0  0  0  0
  3  7  1  0  0  0  0
  4  3  1  0  0  0  0
  4  8  1  0  0  0  0
  5  4  2  0  0  0  0
  6  1  2  0  0  0  0
  6  5  1  0  0  0  0
  9  5  1  0  0  0  0
 10 15  2  0  0  0  0
 10 11  1  0  0  0  0
 11 12  2  0  0  0  0
 12 13  1  0  0  0  0
 12 18  1  0  0  0  0
 14 17  1  0  0  0  0
 14 13  2  0  0  0  0
 15 14  1  0  0  0  0
 16 10  1  0  0  0  0
 18 20  1  0  0  0  0
 18 19  1  0  0  0  0
 21 18  1  0  0  0  0
 22  1  1  0  0  0  0
 23 22  1  0  0  0  0
 24  6  1  0  0  0  0
 25 34  1  0  0  0  0
 25 26  1  0  0  0  0
 26 24  1  0  0  0  0
 27 26  2  0  0  0  0
 27 35  1  0  0  0  0
 28 27  1  0  0  0  0
 29 36  1  0  0  0  0
 29 28  1  0  0  0  0
 30 29  1  0  0  0  0
 31 30  2  0  0  0  0
 31 32  1  0  0  0  0
 32 33  1  0  0  0  0
 32 28  2  0  0  0  0
 33 25  2  0  0  0  0
 37 30  1  0  0  0  0
 38 33  1  0  0  0  0
 39 40  1  0  0  0  0
 39 38  2  0  0  0  0
 41 39  1  0  0  0  0
 42 41  1  0  0  0  0
 43 41  2  0  0  0  0
 43 44  1  0  0  0  0
 44 45  2  0  0  0  0
 45 38  1  0  0  0  0
M  END
>  <minimizedAffinity>
-7.56029129

>  <minimizedRMSD>
0.889484465

$$$$
