
 OpenBabel03262522053D

 39 42  0  0  1  0  0  0  0  0999 V2000
   34.4990   29.0800   48.7320 C   0  0  2  0  0  0  0  0  0  0  0  0
   35.1340   28.3570   49.8700 C   0  0  0  0  0  0  0  0  0  0  0  0
   36.2730   29.1390   50.3590 N   0  0  0  0  0  0  0  0  0  0  0  0
   37.2230   29.8770   51.1440 C   0  0  0  0  0  0  0  0  0  0  0  0
   37.4340   30.0700   52.3520 O   0  0  0  0  0  0  0  0  0  0  0  0
   37.9450   30.3910   50.0110 C   0  0  1  0  0  0  0  0  0  0  0  0
   37.1190   29.3770   49.2270 C   0  0  2  0  0  0  0  0  0  0  0  0
   35.9080   30.0770   48.0820 S   0  0  0  0  0  0  0  0  0  0  0  0
   35.3970   27.3110   49.6590 H   0  0  0  0  0  0  0  0  0  0  0  0
   34.3890   28.3360   50.6960 H   0  0  0  0  0  0  0  0  0  0  0  0
   39.0200   30.1120   49.8500 H   0  0  0  0  0  0  0  0  0  0  0  0
   37.6690   28.5040   48.8380 H   0  0  0  0  0  0  0  0  0  0  0  0
   33.2940   29.8970   49.0510 C   0  0  0  0  0  0  0  0  0  0  0  0
   32.4910   29.6810   48.3200 H   0  0  0  0  0  0  0  0  0  0  0  0
   33.5000   30.9900   49.1180 H   0  0  0  0  0  0  0  0  0  0  0  0
   32.8990   29.6060   50.0580 H   0  0  0  0  0  0  0  0  0  0  0  0
   34.2150   28.0610   47.6120 C   0  0  0  0  0  0  0  0  0  0  0  0
   33.1970   27.6520   47.8310 H   0  0  0  0  0  0  0  0  0  0  0  0
   34.9540   27.2390   47.6410 H   0  0  0  0  0  0  0  0  0  0  0  0
   34.2340   28.7320   46.3900 O   0  0  0  0  0  0  0  0  0  0  0  0
   35.0430   28.4370   45.9070 H   0  0  0  0  0  0  0  0  0  0  0  0
   37.7280   31.8060   49.6640 C   0  0  0  0  0  0  0  0  0  0  0  0
   36.7220   32.3180   50.2570 O   0  0  0  0  0  0  0  0  0  0  0  0
   38.5510   32.5510   48.7620 C   0  0  0  0  0  0  0  0  0  0  0  0
   39.1340   33.7120   49.2140 C   0  0  0  0  0  0  0  0  0  0  0  0
   39.9450   34.4410   48.3020 C   0  0  0  0  0  0  0  0  0  0  0  0
   40.0940   33.9450   47.0320 N   0  0  0  0  0  0  0  0  0  0  0  0
   39.5140   32.8250   46.6430 C   0  0  0  0  0  0  0  0  0  0  0  0
   38.7430   32.1190   47.4910 N   0  0  0  0  0  0  0  0  0  0  0  0
   39.0080   34.0870   50.2070 H   0  0  0  0  0  0  0  0  0  0  0  0
   40.4300   35.3570   48.5920 H   0  0  0  0  0  0  0  0  0  0  0  0
   39.7330   32.3740   45.2720 C   0  0  0  0  0  0  0  0  0  0  0  0
   40.4160   31.2200   44.9480 C   0  0  0  0  0  0  0  0  0  0  0  0
   40.8140   30.6140   45.7320 H   0  0  0  0  0  0  0  0  0  0  0  0
   40.6260   30.7890   43.6530 C   0  0  0  0  0  0  0  0  0  0  0  0
   41.1510   29.9020   43.3880 H   0  0  0  0  0  0  0  0  0  0  0  0
   40.0930   31.6050   42.6490 C   0  0  0  0  0  0  0  0  0  0  0  0
   39.4060   32.7630   42.9720 C   0  0  0  0  0  0  0  0  0  0  0  0
   39.2430   33.1170   44.2610 N   0  0  0  0  0  0  0  0  0  0  0  0
  1 17  1  6  0  0  0
  1 13  1  0  0  0  0
  1  2  1  0  0  0  0
  2  3  1  0  0  0  0
  2 10  1  0  0  0  0
  3  4  1  0  0  0  0
  4  5  2  0  0  0  0
  6 11  1  1  0  0  0
  6  4  1  0  0  0  0
  7 12  1  6  0  0  0
  7  6  1  0  0  0  0
  7  3  1  0  0  0  0
  8  1  1  0  0  0  0
  8  7  1  0  0  0  0
  9  2  1  0  0  0  0
 13 15  1  0  0  0  0
 13 16  1  0  0  0  0
 14 13  1  0  0  0  0
 17 19  1  0  0  0  0
 17 18  1  0  0  0  0
 20 17  1  0  0  0  0
 21 20  1  0  0  0  0
 22  6  1  0  0  0  0
 22 23  2  0  0  0  0
 24 25  1  0  0  0  0
 24 22  1  0  0  0  0
 25 30  1  0  0  0  0
 26 31  1  0  0  0  0
 26 25  2  0  0  0  0
 27 26  1  0  0  0  0
 28 27  2  0  0  0  0
 28 29  1  0  0  0  0
 29 24  2  0  0  0  0
 32 28  1  0  0  0  0
 33 32  1  0  0  0  0
 33 34  1  0  0  0  0
 35 33  2  0  0  0  0
 36 35  1  0  0  0  0
 37 38  2  0  0  0  0
 37 35  1  0  0  0  0
 38 39  1  0  0  0  0
 39 32  2  0  0  0  0
M  END
>  <minimizedAffinity>
-6.00280142

>  <minimizedRMSD>
0.347134292

$$$$
