
 OpenBabel03272505003D

 27 29  0  0  0  0  0  0  0  0999 V2000
   37.6640   30.3260   46.9650 Cl  0  0  0  0  0  0  0  0  0  0  0  0
   38.2780   31.7180   47.8180 C   0  0  0  0  0  0  0  0  0  0  0  0
   37.9020   31.9090   49.1230 C   0  0  0  0  0  0  0  0  0  0  0  0
   38.4210   33.0340   49.7430 C   0  0  0  0  0  0  0  0  0  0  0  0
   39.2670   33.8990   49.0660 C   0  0  0  0  0  0  0  0  0  0  0  0
   39.6160   33.6700   47.7650 C   0  0  0  0  0  0  0  0  0  0  0  0
   39.1070   32.5570   47.1400 C   0  0  0  0  0  0  0  0  0  0  0  0
   38.1660   33.2420   50.7650 H   0  0  0  0  0  0  0  0  0  0  0  0
   39.6370   34.7600   49.6080 H   0  0  0  0  0  0  0  0  0  0  0  0
   40.2780   34.3810   47.2950 H   0  0  0  0  0  0  0  0  0  0  0  0
   37.4640   30.3080   50.9990 C   0  0  0  0  0  0  0  0  0  0  0  0
   37.0150   31.0150   49.8600 C   0  0  0  0  0  0  0  0  0  0  0  0
   35.6950   30.8250   49.4700 C   0  0  0  0  0  0  0  0  0  0  0  0
   34.9010   29.9880   50.1760 N   0  0  0  0  0  0  0  0  0  0  0  0
   35.3680   29.3270   51.2610 C   0  0  0  0  0  0  0  0  0  0  0  0
   36.6500   29.4840   51.6780 N   0  0  0  0  0  0  0  0  0  0  0  0
   38.4890   30.4430   51.3170 H   0  0  0  0  0  0  0  0  0  0  0  0
   35.3810   31.3780   48.5980 H   0  0  0  0  0  0  0  0  0  0  0  0
   34.6570   28.6810   51.7590 H   0  0  0  0  0  0  0  0  0  0  0  0
   39.4560   32.2770   45.7530 C   0  0  0  0  0  0  0  0  0  0  0  0
   40.4250   31.4160   45.3260 C   0  0  0  0  0  0  0  0  0  0  0  0
   40.9960   30.8820   46.0590 H   0  0  0  0  0  0  0  0  0  0  0  0
   40.7320   31.1720   44.0150 C   0  0  0  0  0  0  0  0  0  0  0  0
   41.5100   30.4790   43.7190 H   0  0  0  0  0  0  0  0  0  0  0  0
   40.0440   31.8170   43.0240 C   0  0  0  0  0  0  0  0  0  0  0  0
   39.0630   32.6900   43.4400 C   0  0  0  0  0  0  0  0  0  0  0  0
   38.7910   32.9020   44.7390 N   0  0  0  0  0  0  0  0  0  0  0  0
  1  2  1  0  0  0  0
  2  3  1  0  0  0  0
  3  4  2  0  0  0  0
  3 12  1  0  0  0  0
  4  8  1  0  0  0  0
  5  9  1  0  0  0  0
  5  4  1  0  0  0  0
  6  5  2  0  0  0  0
  7  6  1  0  0  0  0
  7  2  2  0  0  0  0
 10  6  1  0  0  0  0
 11 17  1  0  0  0  0
 11 16  1  0  0  0  0
 12 11  2  0  0  0  0
 13 12  1  0  0  0  0
 13 14  2  0  0  0  0
 14 15  1  0  0  0  0
 15 16  2  0  0  0  0
 15 19  1  0  0  0  0
 18 13  1  0  0  0  0
 20  7  1  0  0  0  0
 21 20  1  0  0  0  0
 21 22  1  0  0  0  0
 23 21  2  0  0  0  0
 24 23  1  0  0  0  0
 25 26  2  0  0  0  0
 25 23  1  0  0  0  0
 26 27  1  0  0  0  0
 27 20  2  0  0  0  0
M  END
>  <minimizedAffinity>
-6.6229434

>  <minimizedRMSD>
1.06622374

$$$$
