
 OpenBabel03272509213D

 45 49  0  0  0  0  0  0  0  0999 V2000
   37.9820   31.2750   47.7780 C   0  0  0  0  0  0  0  0  0  0  0  0
   37.0630   31.2960   48.8120 C   0  0  0  0  0  0  0  0  0  0  0  0
   37.1800   32.4040   49.6650 C   0  0  0  0  0  0  0  0  0  0  0  0
   38.1510   33.3880   49.4660 C   0  0  0  0  0  0  0  0  0  0  0  0
   39.0460   33.2770   48.3790 C   0  0  0  0  0  0  0  0  0  0  0  0
   38.9370   32.1800   47.5250 C   0  0  0  0  0  0  0  0  0  0  0  0
   36.5120   32.5140   50.5010 H   0  0  0  0  0  0  0  0  0  0  0  0
   38.2240   34.2330   50.1340 H   0  0  0  0  0  0  0  0  0  0  0  0
   39.7900   34.0530   48.2450 H   0  0  0  0  0  0  0  0  0  0  0  0
   34.9060   30.3000   48.2700 C   0  0  0  0  0  0  0  0  0  0  0  0
   36.0730   30.2940   49.0170 C   0  0  0  0  0  0  0  0  0  0  0  0
   36.2310   29.2690   49.9700 C   0  0  0  0  0  0  0  0  0  0  0  0
   35.2470   28.3520   50.1090 N   0  0  0  0  0  0  0  0  0  0  0  0
   34.1180   28.4000   49.3500 C   0  0  0  0  0  0  0  0  0  0  0  0
   33.9490   29.3680   48.4370 N   0  0  0  0  0  0  0  0  0  0  0  0
   34.7530   31.0650   47.5370 H   0  0  0  0  0  0  0  0  0  0  0  0
   33.4140   27.6060   49.5650 H   0  0  0  0  0  0  0  0  0  0  0  0
   37.4610   29.2120   50.7990 C   0  0  0  0  0  0  0  0  0  0  0  0
   37.2700   28.5280   51.6500 H   0  0  0  0  0  0  0  0  0  0  0  0
   37.7980   30.2230   51.1160 H   0  0  0  0  0  0  0  0  0  0  0  0
   38.2460   28.7440   50.1660 H   0  0  0  0  0  0  0  0  0  0  0  0
   37.9500   30.2110   46.8700 O   0  0  0  0  0  0  0  0  0  0  0  0
   37.3600   30.1750   46.0630 H   0  0  0  0  0  0  0  0  0  0  0  0
   39.8470   32.1350   46.4810 O   0  0  0  0  0  0  0  0  0  0  0  0
   40.2420   31.3350   44.1750 C   0  0  0  0  0  0  0  0  0  0  0  0
   39.5490   31.9940   45.1600 C   0  0  0  0  0  0  0  0  0  0  0  0
   38.3620   32.6310   44.8170 C   0  0  0  0  0  0  0  0  0  0  0  0
   37.8790   32.6010   43.4960 C   0  0  0  0  0  0  0  0  0  0  0  0
   36.8070   33.0960   42.8600 N   0  0  0  0  0  0  0  0  0  0  0  0
   36.8290   32.7680   41.5650 C   0  0  0  0  0  0  0  0  0  0  0  0
   37.9520   32.0420   41.3800 N   0  0  0  0  0  0  0  0  0  0  0  0
   38.6210   31.9220   42.5520 C   0  0  0  0  0  0  0  0  0  0  0  0
   39.7920   31.2910   42.8770 C   0  0  0  0  0  0  0  0  0  0  0  0
   41.1450   30.8640   44.4940 H   0  0  0  0  0  0  0  0  0  0  0  0
   37.7160   33.1850   45.4880 H   0  0  0  0  0  0  0  0  0  0  0  0
   36.0600   33.6620   43.3220 H   0  0  0  0  0  0  0  0  0  0  0  0
   36.0930   33.0290   40.8060 H   0  0  0  0  0  0  0  0  0  0  0  0
   40.5270   30.5920   41.8330 C   0  0  0  0  0  0  0  0  0  0  0  0
   41.0770   29.3420   41.9750 C   0  0  0  0  0  0  0  0  0  0  0  0
   40.9730   28.8190   42.9140 H   0  0  0  0  0  0  0  0  0  0  0  0
   41.7750   28.6720   40.9910 C   0  0  0  0  0  0  0  0  0  0  0  0
   42.1970   27.6840   41.1370 H   0  0  0  0  0  0  0  0  0  0  0  0
   41.9480   29.2760   39.7650 C   0  0  0  0  0  3  0  0  0  0  0  0
   41.3910   30.5320   39.6320 C   0  0  0  0  0  3  0  0  0  0  0  0
   40.7180   31.1470   40.6210 N   0  0  0  0  0  0  0  0  0  0  0  0
  1  2  1  0  0  0  0
  2 11  1  0  0  0  0
  2  3  2  0  0  0  0
  3  7  1  0  0  0  0
  4  3  1  0  0  0  0
  4  8  1  0  0  0  0
  5  4  2  0  0  0  0
  6  1  2  0  0  0  0
  6  5  1  0  0  0  0
  9  5  1  0  0  0  0
 10 15  2  0  0  0  0
 10 11  1  0  0  0  0
 11 12  2  0  0  0  0
 12 13  1  0  0  0  0
 12 18  1  0  0  0  0
 14 17  1  0  0  0  0
 14 13  2  0  0  0  0
 15 14  1  0  0  0  0
 16 10  1  0  0  0  0
 18 20  1  0  0  0  0
 18 19  1  0  0  0  0
 21 18  1  0  0  0  0
 22  1  1  0  0  0  0
 23 22  1  0  0  0  0
 24  6  1  0  0  0  0
 25 34  1  0  0  0  0
 25 26  1  0  0  0  0
 26 24  1  0  0  0  0
 27 26  2  0  0  0  0
 27 35  1  0  0  0  0
 28 27  1  0  0  0  0
 29 36  1  0  0  0  0
 29 28  1  0  0  0  0
 30 29  1  0  0  0  0
 31 30  2  0  0  0  0
 31 32  1  0  0  0  0
 32 33  1  0  0  0  0
 32 28  2  0  0  0  0
 33 25  2  0  0  0  0
 37 30  1  0  0  0  0
 38 39  1  0  0  0  0
 38 33  1  0  0  0  0
 39 40  1  0  0  0  0
 41 42  1  0  0  0  0
 41 39  2  0  0  0  0
 43 41  1  0  0  0  0
 44 43  2  0  0  0  0
 44 45  1  0  0  0  0
 45 38  2  0  0  0  0
M  END
>  <minimizedAffinity>
-7.77952433

>  <minimizedRMSD>
0.493739724

$$$$
