
 OpenBabel03272505043D

 44 47  0  0  1  0  0  0  0  0999 V2000
   37.8290   32.5220   43.2500 C   0  0  2  0  0  0  0  0  0  0  0  0
   36.2860   32.6160   43.0490 C   0  0  0  0  0  0  0  0  0  0  0  0
   35.8010   31.3510   42.4070 C   0  0  0  0  0  0  0  0  0  0  0  0
   36.1940   31.3660   40.9550 C   0  0  0  0  0  0  0  0  0  0  0  0
   37.4260   32.1620   40.7820 C   0  0  0  0  0  0  0  0  0  0  0  0
   38.3680   32.0660   41.9410 C   0  0  2  0  0  0  0  0  0  0  0  0
   38.1240   33.5320   43.5970 H   0  0  0  0  0  0  0  0  0  0  0  0
   35.7950   32.7380   44.0340 H   0  0  0  0  0  0  0  0  0  0  0  0
   36.0390   33.4820   42.4430 H   0  0  0  0  0  0  0  0  0  0  0  0
   34.6800   31.3090   42.4910 H   0  0  0  0  0  0  0  0  0  0  0  0
   36.2790   30.4260   42.7140 H   0  0  0  0  0  0  0  0  0  0  0  0
   35.3620   31.9180   40.4250 H   0  0  0  0  0  0  0  0  0  0  0  0
   36.2550   30.3900   40.4690 H   0  0  0  0  0  0  0  0  0  0  0  0
   37.1970   33.2560   40.6300 H   0  0  0  0  0  0  0  0  0  0  0  0
   38.0210   31.8970   39.8760 H   0  0  0  0  0  0  0  0  0  0  0  0
   39.1400   32.8780   41.6770 H   0  0  0  0  0  0  0  0  0  0  0  0
   39.2010   30.8410   41.9750 C   0  0  0  0  0  0  0  0  0  0  0  0
   38.6690   29.6220   41.5370 C   0  0  0  0  0  0  0  0  0  0  0  0
   37.6370   29.5310   41.1620 H   0  0  0  0  0  0  0  0  0  0  0  0
   39.3650   28.4060   41.5260 C   0  0  0  0  0  0  0  0  0  0  0  0
   38.8960   27.4980   41.1750 H   0  0  0  0  0  0  0  0  0  0  0  0
   40.6680   28.3970   41.9740 C   0  0  0  0  0  0  0  0  0  0  0  0
   41.1840   29.5770   42.3970 C   0  0  0  0  0  0  0  0  0  0  0  0
   40.4700   30.6770   42.3780 N   0  0  0  0  0  0  0  0  0  0  0  0
   37.9900   31.5680   44.2090 O   0  0  0  0  0  0  0  0  0  0  0  0
   36.1220   30.0810   45.8630 Cl  0  0  0  0  0  0  0  0  0  0  0  0
   37.3820   31.1100   46.4750 C   0  0  0  0  0  0  0  0  0  0  0  0
   37.5030   31.2320   47.8330 C   0  0  0  0  0  0  0  0  0  0  0  0
   38.5180   32.0640   48.2860 C   0  0  0  0  0  0  0  0  0  0  0  0
   39.3320   32.7120   47.3760 C   0  0  0  0  0  0  0  0  0  0  0  0
   39.1750   32.5620   46.0170 C   0  0  0  0  0  0  0  0  0  0  0  0
   38.1820   31.7460   45.5670 C   0  0  0  0  0  0  0  0  0  0  0  0
   38.6190   32.1640   49.3590 H   0  0  0  0  0  0  0  0  0  0  0  0
   40.1060   33.3490   47.8010 H   0  0  0  0  0  0  0  0  0  0  0  0
   39.8330   33.0860   45.3380 H   0  0  0  0  0  0  0  0  0  0  0  0
   37.1640   29.6280   49.7270 C   0  0  0  0  0  0  0  0  0  0  0  0
   36.6410   30.5480   48.8080 C   0  0  0  0  0  0  0  0  0  0  0  0
   35.2740   30.8000   48.8420 C   0  0  0  0  0  0  0  0  0  0  0  0
   34.5290   30.1370   49.7670 N   0  0  0  0  0  0  0  0  0  0  0  0
   35.0420   29.2760   50.6220 C   0  0  0  0  0  0  0  0  0  0  0  0
   36.3620   29.0080   50.6170 N   0  0  0  0  0  0  0  0  0  0  0  0
   38.2150   29.4110   49.7290 H   0  0  0  0  0  0  0  0  0  0  0  0
   34.8570   31.5070   48.1400 H   0  0  0  0  0  0  0  0  0  0  0  0
   34.3850   28.7920   51.3240 H   0  0  0  0  0  0  0  0  0  0  0  0
  1  7  1  1  0  0  0
  1 25  1  0  0  0  0
  2  1  1  0  0  0  0
  2  8  1  0  0  0  0
  3 10  1  0  0  0  0
  3 11  1  0  0  0  0
  3  2  1  0  0  0  0
  4  3  1  0  0  0  0
  5  4  1  0  0  0  0
  5  6  1  0  0  0  0
  6 16  1  6  0  0  0
  6 17  1  0  0  0  0
  6  1  1  0  0  0  0
  9  2  1  0  0  0  0
 12  4  1  0  0  0  0
 13  4  1  0  0  0  0
 14  5  1  0  0  0  0
 15  5  1  0  0  0  0
 17 24  1  0  0  0  0
 18 17  2  0  0  0  0
 19 18  1  0  0  0  0
 20 18  1  0  0  0  0
 20 22  2  0  0  0  0
 21 20  1  0  0  0  0
 22 23  1  0  0  0  0
 24 23  2  0  0  0  0
 25 32  1  0  0  0  0
 26 27  1  0  0  0  0
 27 28  1  0  0  0  0
 28 29  2  0  0  0  0
 28 37  1  0  0  0  0
 29 33  1  0  0  0  0
 30 34  1  0  0  0  0
 30 29  1  0  0  0  0
 31 30  2  0  0  0  0
 32 31  1  0  0  0  0
 32 27  2  0  0  0  0
 35 31  1  0  0  0  0
 36 42  1  0  0  0  0
 36 41  1  0  0  0  0
 37 38  1  0  0  0  0
 37 36  2  0  0  0  0
 38 39  2  0  0  0  0
 39 40  1  0  0  0  0
 40 44  1  0  0  0  0
 41 40  2  0  0  0  0
 43 38  1  0  0  0  0
M  END
>  <minimizedAffinity>
-5.67190552

>  <minimizedRMSD>
2.4912324

$$$$
