
 OpenBabel03272509213D

 45 49  0  0  0  0  0  0  0  0999 V2000
   37.9810   31.2750   47.7740 C   0  0  0  0  0  0  0  0  0  0  0  0
   37.0640   31.2970   48.8100 C   0  0  0  0  0  0  0  0  0  0  0  0
   37.1860   32.4050   49.6630 C   0  0  0  0  0  0  0  0  0  0  0  0
   38.1580   33.3880   49.4620 C   0  0  0  0  0  0  0  0  0  0  0  0
   39.0490   33.2750   48.3720 C   0  0  0  0  0  0  0  0  0  0  0  0
   38.9360   32.1780   47.5180 C   0  0  0  0  0  0  0  0  0  0  0  0
   36.5200   32.5160   50.5010 H   0  0  0  0  0  0  0  0  0  0  0  0
   38.2340   34.2320   50.1290 H   0  0  0  0  0  0  0  0  0  0  0  0
   39.7940   34.0500   48.2370 H   0  0  0  0  0  0  0  0  0  0  0  0
   34.9050   30.3030   48.2740 C   0  0  0  0  0  0  0  0  0  0  0  0
   36.0730   30.2960   49.0180 C   0  0  0  0  0  0  0  0  0  0  0  0
   36.2320   29.2720   49.9720 C   0  0  0  0  0  0  0  0  0  0  0  0
   35.2460   28.3570   50.1130 N   0  0  0  0  0  0  0  0  0  0  0  0
   34.1160   28.4060   49.3560 C   0  0  0  0  0  0  0  0  0  0  0  0
   33.9460   29.3740   48.4430 N   0  0  0  0  0  0  0  0  0  0  0  0
   34.7520   31.0690   47.5400 H   0  0  0  0  0  0  0  0  0  0  0  0
   33.4110   27.6130   49.5730 H   0  0  0  0  0  0  0  0  0  0  0  0
   37.4630   29.2140   50.7980 C   0  0  0  0  0  0  0  0  0  0  0  0
   37.2730   28.5300   51.6500 H   0  0  0  0  0  0  0  0  0  0  0  0
   37.8020   30.2240   51.1130 H   0  0  0  0  0  0  0  0  0  0  0  0
   38.2460   28.7440   50.1640 H   0  0  0  0  0  0  0  0  0  0  0  0
   37.9440   30.2110   46.8660 O   0  0  0  0  0  0  0  0  0  0  0  0
   37.3520   30.1760   46.0600 H   0  0  0  0  0  0  0  0  0  0  0  0
   39.8430   32.1320   46.4720 O   0  0  0  0  0  0  0  0  0  0  0  0
   40.2250   31.3110   44.1710 C   0  0  0  0  0  0  0  0  0  0  0  0
   39.5420   31.9840   45.1530 C   0  0  0  0  0  0  0  0  0  0  0  0
   38.3620   32.6330   44.8070 C   0  0  0  0  0  0  0  0  0  0  0  0
   37.8760   32.5990   43.4860 C   0  0  0  0  0  0  0  0  0  0  0  0
   36.8090   33.1020   42.8480 N   0  0  0  0  0  0  0  0  0  0  0  0
   36.8260   32.7640   41.5560 C   0  0  0  0  0  0  0  0  0  0  0  0
   37.9400   32.0240   41.3740 N   0  0  0  0  0  0  0  0  0  0  0  0
   38.6090   31.9040   42.5460 C   0  0  0  0  0  0  0  0  0  0  0  0
   39.7730   31.2620   42.8740 C   0  0  0  0  0  0  0  0  0  0  0  0
   41.1240   30.8320   44.4920 H   0  0  0  0  0  0  0  0  0  0  0  0
   37.7230   33.2000   45.4740 H   0  0  0  0  0  0  0  0  0  0  0  0
   36.0700   33.6800   43.3070 H   0  0  0  0  0  0  0  0  0  0  0  0
   36.0910   33.0280   40.7960 H   0  0  0  0  0  0  0  0  0  0  0  0
   40.4980   30.5470   41.8340 C   0  0  0  0  0  0  0  0  0  0  0  0
   40.7270   31.0340   40.5710 C   0  0  0  0  0  0  0  0  0  0  0  0
   40.3540   32.0130   40.3040 H   0  0  0  0  0  0  0  0  0  0  0  0
   41.4120   30.3640   39.5800 C   0  0  0  0  0  0  0  0  0  0  0  0
   41.5750   30.7780   38.5920 H   0  0  0  0  0  0  0  0  0  0  0  0
   41.9160   29.1100   39.8480 C   0  0  0  0  0  3  0  0  0  0  0  0
   41.6820   28.6290   41.1190 C   0  0  0  0  0  3  0  0  0  0  0  0
   41.0070   29.3200   42.0540 N   0  0  0  0  0  0  0  0  0  0  0  0
  1  2  1  0  0  0  0
  2 11  1  0  0  0  0
  2  3  2  0  0  0  0
  3  7  1  0  0  0  0
  4  3  1  0  0  0  0
  4  8  1  0  0  0  0
  5  4  2  0  0  0  0
  6  1  2  0  0  0  0
  6  5  1  0  0  0  0
  9  5  1  0  0  0  0
 10 15  2  0  0  0  0
 10 11  1  0  0  0  0
 11 12  2  0  0  0  0
 12 13  1  0  0  0  0
 12 18  1  0  0  0  0
 14 17  1  0  0  0  0
 14 13  2  0  0  0  0
 15 14  1  0  0  0  0
 16 10  1  0  0  0  0
 18 20  1  0  0  0  0
 18 19  1  0  0  0  0
 21 18  1  0  0  0  0
 22  1  1  0  0  0  0
 23 22  1  0  0  0  0
 24  6  1  0  0  0  0
 25 34  1  0  0  0  0
 25 26  1  0  0  0  0
 26 24  1  0  0  0  0
 27 26  2  0  0  0  0
 27 35  1  0  0  0  0
 28 27  1  0  0  0  0
 29 36  1  0  0  0  0
 29 28  1  0  0  0  0
 30 29  1  0  0  0  0
 31 30  2  0  0  0  0
 31 32  1  0  0  0  0
 32 33  1  0  0  0  0
 32 28  2  0  0  0  0
 33 25  2  0  0  0  0
 37 30  1  0  0  0  0
 38 45  1  0  0  0  0
 38 33  1  0  0  0  0
 39 38  2  0  0  0  0
 40 39  1  0  0  0  0
 41 43  2  0  0  0  0
 41 39  1  0  0  0  0
 42 41  1  0  0  0  0
 43 44  1  0  0  0  0
 44 45  2  0  0  0  0
M  END
>  <minimizedAffinity>
-7.71003866

>  <minimizedRMSD>
0.493935585

$$$$
