
 OpenBabel03272510173D

 27 29  0  0  0  0  0  0  0  0999 V2000
   37.3150   29.3340   51.0490 Br  0  0  0  0  0  0  0  0  0  0  0  0
   35.9590   29.3330   49.6980 C   0  0  0  0  0  0  0  0  0  0  0  0
   35.9850   30.2570   48.6670 C   0  0  0  0  0  0  0  0  0  0  0  0
   34.9660   30.1890   47.7300 C   0  0  0  0  0  0  0  0  0  0  0  0
   33.9550   29.2610   47.7820 C   0  0  0  0  0  0  0  0  0  0  0  0
   33.9600   28.3630   48.8190 C   0  0  0  0  0  0  0  0  0  0  0  0
   34.9610   28.4090   49.7640 C   0  0  0  0  0  0  0  0  0  0  0  0
   35.0220   30.9280   46.9380 H   0  0  0  0  0  0  0  0  0  0  0  0
   33.1740   27.6250   48.8800 H   0  0  0  0  0  0  0  0  0  0  0  0
   34.9260   27.6710   50.5730 H   0  0  0  0  0  0  0  0  0  0  0  0
   37.9930   33.1900   49.4450 C   0  0  0  0  0  0  0  0  0  0  0  0
   39.0210   33.1800   48.4780 C   0  0  0  0  0  0  0  0  0  0  0  0
   39.0030   32.1360   47.5520 C   0  0  0  0  0  0  0  0  0  0  0  0
   38.0130   31.2030   47.6320 N   0  0  0  0  0  0  0  0  0  0  0  0
   37.0430   31.2530   48.5810 C   0  0  0  0  0  0  0  0  0  0  0  0
   37.0350   32.2570   49.4950 N   0  0  0  0  0  0  0  0  0  0  0  0
   38.0110   34.0120   50.1720 H   0  0  0  0  0  0  0  0  0  0  0  0
   39.7690   33.9660   48.4910 H   0  0  0  0  0  0  0  0  0  0  0  0
   39.7620   32.0970   46.8100 H   0  0  0  0  0  0  0  0  0  0  0  0
   32.9470   29.2980   46.7350 C   0  0  0  0  0  0  0  0  0  0  0  0
   31.8660   28.4420   46.6780 C   0  0  0  0  0  0  0  0  0  0  0  0
   31.7410   27.7040   47.4320 H   0  0  0  0  0  0  0  0  0  0  0  0
   30.9170   28.4940   45.6730 C   0  0  0  0  0  0  0  0  0  0  0  0
   30.0960   27.7980   45.6830 H   0  0  0  0  0  0  0  0  0  0  0  0
   31.0860   29.4600   44.6930 C   0  0  0  0  0  3  0  0  0  0  0  0
   32.1730   30.3170   44.7530 C   0  0  0  0  0  3  0  0  0  0  0  0
   33.0560   30.2060   45.7660 N   0  0  0  0  0  0  0  0  0  0  0  0
  2  7  1  0  0  0  0
  2  1  1  0  0  0  0
  3  2  2  0  0  0  0
  4  5  2  0  0  0  0
  4  3  1  0  0  0  0
  5  6  1  0  0  0  0
  6  9  1  0  0  0  0
  6  7  2  0  0  0  0
  7 10  1  0  0  0  0
  8  4  1  0  0  0  0
 11 16  1  0  0  0  0
 11 17  1  0  0  0  0
 12 18  1  0  0  0  0
 12 11  2  0  0  0  0
 13 14  2  0  0  0  0
 13 12  1  0  0  0  0
 14 15  1  0  0  0  0
 15  3  1  0  0  0  0
 15 16  2  0  0  0  0
 19 13  1  0  0  0  0
 20  5  1  0  0  0  0
 21 20  1  0  0  0  0
 21 22  1  0  0  0  0
 23 24  1  0  0  0  0
 23 21  2  0  0  0  0
 25 26  2  0  0  0  0
 25 23  1  0  0  0  0
 26 27  1  0  0  0  0
 27 20  2  0  0  0  0
M  END
>  <minimizedAffinity>
-5.86873579

>  <minimizedRMSD>
0.141738132

$$$$
