
 OpenBabel03262523373D

 33 35  0  0  1  0  0  0  0  0999 V2000
   37.6910   26.2620   33.2030 C   0  0  2  0  0  0  0  0  0  0  0  0
   38.3440   25.2500   34.1100 C   0  0  0  0  0  0  0  0  0  0  0  0
   37.9210   25.4190   35.5380 C   0  0  2  0  0  0  0  0  0  0  0  0
   38.2010   26.8180   36.0450 C   0  0  0  0  0  0  0  0  0  0  0  0
   37.7360   27.8840   35.1050 C   0  0  0  0  0  0  0  0  0  0  0  0
   36.9600   27.3440   33.9230 C   0  0  0  0  0  0  0  0  0  0  0  0
   38.4430   26.7290   32.5220 H   0  0  0  0  0  0  0  0  0  0  0  0
   38.1030   24.2060   33.8210 H   0  0  0  0  0  0  0  0  0  0  0  0
   39.4420   25.3740   34.0130 H   0  0  0  0  0  0  0  0  0  0  0  0
   36.8180   25.2320   35.5650 H   0  0  0  0  0  0  0  0  0  0  0  0
   39.3270   26.8900   36.0720 H   0  0  0  0  0  0  0  0  0  0  0  0
   37.8750   26.9150   37.0800 H   0  0  0  0  0  0  0  0  0  0  0  0
   36.9930   28.5120   35.6790 H   0  0  0  0  0  0  0  0  0  0  0  0
   38.5250   28.6050   34.8150 H   0  0  0  0  0  0  0  0  0  0  0  0
   35.9750   26.9930   34.3030 H   0  0  0  0  0  0  0  0  0  0  0  0
   36.8480   28.2010   33.2260 H   0  0  0  0  0  0  0  0  0  0  0  0
   36.7160   25.5820   32.2960 C   0  0  0  0  0  0  0  0  0  0  0  0
   36.8320   24.1840   32.1900 C   0  0  0  0  0  0  0  0  0  0  0  0
   35.9360   23.5370   31.3420 C   0  0  0  0  0  0  0  0  0  0  0  0
   34.9990   24.2910   30.6630 N   0  0  0  0  0  0  0  0  0  0  0  0
   34.9250   25.6360   30.7950 C   0  0  0  0  0  0  0  0  0  0  0  0
   35.7770   26.2670   31.6040 N   0  0  0  0  0  0  0  0  0  0  0  0
   37.5360   23.5640   32.6910 H   0  0  0  0  0  0  0  0  0  0  0  0
   35.9480   22.4600   31.1970 H   0  0  0  0  0  0  0  0  0  0  0  0
   34.1560   26.1340   30.2200 H   0  0  0  0  0  0  0  0  0  0  0  0
   38.5680   24.4680   36.4360 C   0  0  0  0  0  0  0  0  0  0  0  0
   38.1490   24.2920   37.7240 C   0  0  0  0  0  0  0  0  0  0  0  0
   37.3060   24.8530   38.1500 H   0  0  0  0  0  0  0  0  0  0  0  0
   38.7730   23.3840   38.5710 C   0  0  0  0  0  0  0  0  0  0  0  0
   38.4890   23.1980   39.6040 H   0  0  0  0  0  0  0  0  0  0  0  0
   39.8380   22.6390   38.1130 C   0  0  0  0  0  3  0  0  0  0  0  0
   40.2480   22.8320   36.8100 C   0  0  0  0  0  3  0  0  0  0  0  0
   39.6180   23.7100   36.0470 N   0  0  0  0  0  0  0  0  0  0  0  0
  1  7  1  6  0  0  0
  1  6  1  0  0  0  0
  1  2  1  0  0  0  0
  2  3  1  0  0  0  0
  3 10  1  1  0  0  0
  3  4  1  0  0  0  0
  3 26  1  0  0  0  0
  4 11  1  0  0  0  0
  4 12  1  0  0  0  0
  5 13  1  0  0  0  0
  5  4  1  0  0  0  0
  6 15  1  0  0  0  0
  6  5  1  0  0  0  0
  8  2  1  0  0  0  0
  9  2  1  0  0  0  0
 14  5  1  0  0  0  0
 16  6  1  0  0  0  0
 17  1  1  0  0  0  0
 18 17  1  0  0  0  0
 18 23  1  0  0  0  0
 19 18  2  0  0  0  0
 20 21  2  0  0  0  0
 20 19  1  0  0  0  0
 21 22  1  0  0  0  0
 22 17  2  0  0  0  0
 24 19  1  0  0  0  0
 25 21  1  0  0  0  0
 26 27  1  0  0  0  0
 27 28  1  0  0  0  0
 27 29  2  0  0  0  0
 29 30  1  0  0  0  0
 31 29  1  0  0  0  0
 32 31  2  0  0  0  0
 33 26  2  0  0  0  0
 33 32  1  0  0  0  0
M  END
>  <minimizedAffinity>
-5.47034264

$$$$

 OpenBabel03262523373D

 33 35  0  0  1  0  0  0  0  0999 V2000
   37.7770   26.3370   33.3080 C   0  0  2  0  0  0  0  0  0  0  0  0
   38.5510   25.2910   34.0700 C   0  0  0  0  0  0  0  0  0  0  0  0
   38.2080   25.2910   35.5290 C   0  0  2  0  0  0  0  0  0  0  0  0
   38.4260   26.6520   36.1580 C   0  0  0  0  0  0  0  0  0  0  0  0
   37.8340   27.7670   35.3570 C   0  0  0  0  0  0  0  0  0  0  0  0
   37.0220   27.2890   34.1730 C   0  0  0  0  0  0  0  0  0  0  0  0
   38.4510   26.9200   32.6350 H   0  0  0  0  0  0  0  0  0  0  0  0
   38.3620   24.2660   33.6920 H   0  0  0  0  0  0  0  0  0  0  0  0
   39.6300   25.5040   33.9250 H   0  0  0  0  0  0  0  0  0  0  0  0
   37.1250   25.0240   35.5990 H   0  0  0  0  0  0  0  0  0  0  0  0
   39.5450   26.8020   36.1290 H   0  0  0  0  0  0  0  0  0  0  0  0
   38.1610   26.6250   37.2140 H   0  0  0  0  0  0  0  0  0  0  0  0
   37.0890   28.2810   36.0320 H   0  0  0  0  0  0  0  0  0  0  0  0
   38.5540   28.5670   35.0980 H   0  0  0  0  0  0  0  0  0  0  0  0
   36.0880   26.8320   34.5700 H   0  0  0  0  0  0  0  0  0  0  0  0
   36.8090   28.1990   33.5730 H   0  0  0  0  0  0  0  0  0  0  0  0
   36.7930   25.6780   32.3930 C   0  0  0  0  0  0  0  0  0  0  0  0
   35.9660   26.5350   31.6450 C   0  0  0  0  0  0  0  0  0  0  0  0
   35.0390   25.9350   30.7940 C   0  0  0  0  0  0  0  0  0  0  0  0
   34.9840   24.5570   30.7350 N   0  0  0  0  0  0  0  0  0  0  0  0
   35.8000   23.7720   31.4750 C   0  0  0  0  0  0  0  0  0  0  0  0
   36.6920   24.3330   32.2930 N   0  0  0  0  0  0  0  0  0  0  0  0
   35.9720   27.5980   31.6580 H   0  0  0  0  0  0  0  0  0  0  0  0
   34.3590   26.5150   30.1760 H   0  0  0  0  0  0  0  0  0  0  0  0
   35.6780   22.7040   31.3570 H   0  0  0  0  0  0  0  0  0  0  0  0
   38.9730   24.3080   36.2890 C   0  0  0  0  0  0  0  0  0  0  0  0
   40.1160   23.7450   35.7960 C   0  0  0  0  0  0  0  0  0  0  0  0
   40.5190   24.0020   34.8060 H   0  0  0  0  0  0  0  0  0  0  0  0
   40.8360   22.8080   36.5280 C   0  0  0  0  0  0  0  0  0  0  0  0
   41.7510   22.3250   36.1940 H   0  0  0  0  0  0  0  0  0  0  0  0
   40.3990   22.4320   37.7800 C   0  0  0  0  0  3  0  0  0  0  0  0
   39.2420   23.0100   38.2600 C   0  0  0  0  0  3  0  0  0  0  0  0
   38.5950   23.8970   37.5210 N   0  0  0  0  0  0  0  0  0  0  0  0
  1  7  1  6  0  0  0
  1  2  1  0  0  0  0
  1  6  1  0  0  0  0
  2  3  1  0  0  0  0
  3 10  1  1  0  0  0
  3  4  1  0  0  0  0
  3 26  1  0  0  0  0
  4 12  1  0  0  0  0
  5 13  1  0  0  0  0
  5  4  1  0  0  0  0
  6 15  1  0  0  0  0
  6  5  1  0  0  0  0
  8  2  1  0  0  0  0
  9  2  1  0  0  0  0
 11  4  1  0  0  0  0
 14  5  1  0  0  0  0
 16  6  1  0  0  0  0
 17  1  1  0  0  0  0
 18 23  1  0  0  0  0
 18 17  2  0  0  0  0
 19 18  1  0  0  0  0
 20 19  2  0  0  0  0
 20 21  1  0  0  0  0
 21 22  2  0  0  0  0
 22 17  1  0  0  0  0
 24 19  1  0  0  0  0
 25 21  1  0  0  0  0
 26 33  1  0  0  0  0
 27 26  2  0  0  0  0
 27 29  1  0  0  0  0
 28 27  1  0  0  0  0
 29 31  2  0  0  0  0
 30 29  1  0  0  0  0
 31 32  1  0  0  0  0
 33 32  2  0  0  0  0
M  END
>  <minimizedAffinity>
-5.29017401

$$$$

 OpenBabel03262523373D

 33 35  0  0  1  0  0  0  0  0999 V2000
   39.4070   22.3630   36.6160 C   0  0  2  0  0  0  0  0  0  0  0  0
   38.7880   23.3150   35.6240 C   0  0  0  0  0  0  0  0  0  0  0  0
   38.6850   24.7070   36.1690 C   0  0  2  0  0  0  0  0  0  0  0  0
   37.9100   24.7450   37.4700 C   0  0  0  0  0  0  0  0  0  0  0  0
   38.3540   23.7020   38.4450 C   0  0  0  0  0  0  0  0  0  0  0  0
   39.5720   22.9310   37.9850 C   0  0  0  0  0  0  0  0  0  0  0  0
   38.8130   21.4200   36.6870 H   0  0  0  0  0  0  0  0  0  0  0  0
   39.3670   23.3770   34.6800 H   0  0  0  0  0  0  0  0  0  0  0  0
   37.7820   22.9220   35.3680 H   0  0  0  0  0  0  0  0  0  0  0  0
   39.7320   25.0510   36.3550 H   0  0  0  0  0  0  0  0  0  0  0  0
   36.8530   24.4750   37.1790 H   0  0  0  0  0  0  0  0  0  0  0  0
   37.8590   25.7650   37.8470 H   0  0  0  0  0  0  0  0  0  0  0  0
   38.6920   24.2560   39.3690 H   0  0  0  0  0  0  0  0  0  0  0  0
   37.5370   23.0500   38.8100 H   0  0  0  0  0  0  0  0  0  0  0  0
   40.4450   23.6190   38.0420 H   0  0  0  0  0  0  0  0  0  0  0  0
   39.6720   22.0840   38.6950 H   0  0  0  0  0  0  0  0  0  0  0  0
   40.7570   21.9340   36.1370 C   0  0  0  0  0  0  0  0  0  0  0  0
   41.6550   21.4830   37.1220 C   0  0  0  0  0  0  0  0  0  0  0  0
   42.9200   21.0870   36.6920 C   0  0  0  0  0  0  0  0  0  0  0  0
   43.2180   21.1600   35.3460 N   0  0  0  0  0  0  0  0  0  0  0  0
   42.3230   21.6010   34.4330 C   0  0  0  0  0  0  0  0  0  0  0  0
   41.1080   21.9830   34.8310 N   0  0  0  0  0  0  0  0  0  0  0  0
   41.4700   21.4110   38.1670 H   0  0  0  0  0  0  0  0  0  0  0  0
   43.6790   20.7240   37.3800 H   0  0  0  0  0  0  0  0  0  0  0  0
   42.6540   21.6200   33.4040 H   0  0  0  0  0  0  0  0  0  0  0  0
   38.0570   25.6350   35.2340 C   0  0  0  0  0  0  0  0  0  0  0  0
   37.7770   26.9270   35.5790 C   0  0  0  0  0  0  0  0  0  0  0  0
   38.0100   27.3340   36.5730 H   0  0  0  0  0  0  0  0  0  0  0  0
   37.1790   27.8030   34.6810 C   0  0  0  0  0  0  0  0  0  0  0  0
   36.9310   28.8400   34.8930 H   0  0  0  0  0  0  0  0  0  0  0  0
   36.8560   27.3710   33.4130 C   0  0  0  0  0  3  0  0  0  0  0  0
   37.1450   26.0630   33.0830 C   0  0  0  0  0  3  0  0  0  0  0  0
   37.7150   25.2710   33.9770 N   0  0  0  0  0  0  0  0  0  0  0  0
  1  7  1  1  0  0  0
  1  6  1  0  0  0  0
  2  3  1  0  0  0  0
  2  1  1  0  0  0  0
  3 10  1  1  0  0  0
  3  4  1  0  0  0  0
  4 12  1  0  0  0  0
  4  5  1  0  0  0  0
  5 14  1  0  0  0  0
  5 13  1  0  0  0  0
  6 15  1  0  0  0  0
  6  5  1  0  0  0  0
  6 16  1  0  0  0  0
  8  2  1  0  0  0  0
  9  2  1  0  0  0  0
 11  4  1  0  0  0  0
 17  1  1  0  0  0  0
 17 18  1  0  0  0  0
 18 23  1  0  0  0  0
 19 18  2  0  0  0  0
 19 24  1  0  0  0  0
 20 19  1  0  0  0  0
 21 22  1  0  0  0  0
 21 20  2  0  0  0  0
 22 17  2  0  0  0  0
 25 21  1  0  0  0  0
 26 27  1  0  0  0  0
 26  3  1  0  0  0  0
 27 28  1  0  0  0  0
 29 30  1  0  0  0  0
 29 27  2  0  0  0  0
 31 29  1  0  0  0  0
 32 31  2  0  0  0  0
 32 33  1  0  0  0  0
 33 26  2  0  0  0  0
M  END
>  <minimizedAffinity>
-5.11063147

$$$$

 OpenBabel03262523373D

 33 35  0  0  1  0  0  0  0  0999 V2000
   38.6390   25.1060   35.8840 C   0  0  2  0  0  0  0  0  0  0  0  0
   39.8540   24.2250   35.7380 C   0  0  0  0  0  0  0  0  0  0  0  0
   39.6640   22.8920   36.3960 C   0  0  2  0  0  0  0  0  0  0  0  0
   39.3070   23.0350   37.8610 C   0  0  0  0  0  0  0  0  0  0  0  0
   38.2200   24.0340   38.1020 C   0  0  0  0  0  0  0  0  0  0  0  0
   37.6130   24.5790   36.8280 C   0  0  0  0  0  0  0  0  0  0  0  0
   38.9310   26.1350   36.2070 H   0  0  0  0  0  0  0  0  0  0  0  0
   40.1100   24.0290   34.6760 H   0  0  0  0  0  0  0  0  0  0  0  0
   40.7130   24.7630   36.1900 H   0  0  0  0  0  0  0  0  0  0  0  0
   38.8200   22.3920   35.8600 H   0  0  0  0  0  0  0  0  0  0  0  0
   40.2360   23.4590   38.3410 H   0  0  0  0  0  0  0  0  0  0  0  0
   39.1650   22.0540   38.3120 H   0  0  0  0  0  0  0  0  0  0  0  0
   37.3810   23.4740   38.6090 H   0  0  0  0  0  0  0  0  0  0  0  0
   38.4880   24.8250   38.8300 H   0  0  0  0  0  0  0  0  0  0  0  0
   37.0120   23.7620   36.3680 H   0  0  0  0  0  0  0  0  0  0  0  0
   36.9720   25.4280   37.1440 H   0  0  0  0  0  0  0  0  0  0  0  0
   37.9800   25.2920   34.5540 C   0  0  0  0  0  0  0  0  0  0  0  0
   37.4760   26.5760   34.2800 C   0  0  0  0  0  0  0  0  0  0  0  0
   36.8510   26.7610   33.0490 C   0  0  0  0  0  0  0  0  0  0  0  0
   36.7620   25.6910   32.1800 N   0  0  0  0  0  0  0  0  0  0  0  0
   37.2620   24.4720   32.4860 C   0  0  0  0  0  0  0  0  0  0  0  0
   37.8630   24.2810   33.6620 N   0  0  0  0  0  0  0  0  0  0  0  0
   37.5200   27.4260   34.9170 H   0  0  0  0  0  0  0  0  0  0  0  0
   36.4320   27.7170   32.7480 H   0  0  0  0  0  0  0  0  0  0  0  0
   37.1420   23.7010   31.7370 H   0  0  0  0  0  0  0  0  0  0  0  0
   40.8430   22.0380   36.2940 C   0  0  0  0  0  0  0  0  0  0  0  0
   41.4250   21.4780   37.3960 C   0  0  0  0  0  0  0  0  0  0  0  0
   41.0390   21.6390   38.4120 H   0  0  0  0  0  0  0  0  0  0  0  0
   42.5480   20.6660   37.2870 C   0  0  0  0  0  0  0  0  0  0  0  0
   43.0570   20.1910   38.1220 H   0  0  0  0  0  0  0  0  0  0  0  0
   43.0940   20.4130   36.0480 C   0  0  0  0  0  3  0  0  0  0  0  0
   42.4930   20.9880   34.9470 C   0  0  0  0  0  3  0  0  0  0  0  0
   41.4250   21.7530   35.1080 N   0  0  0  0  0  0  0  0  0  0  0  0
  1  7  1  1  0  0  0
  1  6  1  0  0  0  0
  2  1  1  0  0  0  0
  2  9  1  0  0  0  0
  2  3  1  0  0  0  0
  3 10  1  6  0  0  0
  3  4  1  0  0  0  0
  4  5  1  0  0  0  0
  4 12  1  0  0  0  0
  4 11  1  0  0  0  0
  5 13  1  0  0  0  0
  5 14  1  0  0  0  0
  6 16  1  0  0  0  0
  6  5  1  0  0  0  0
  8  2  1  0  0  0  0
 15  6  1  0  0  0  0
 17  1  1  0  0  0  0
 18 17  1  0  0  0  0
 18 23  1  0  0  0  0
 19 18  2  0  0  0  0
 20 21  2  0  0  0  0
 20 19  1  0  0  0  0
 21 22  1  0  0  0  0
 22 17  2  0  0  0  0
 24 19  1  0  0  0  0
 25 21  1  0  0  0  0
 26  3  1  0  0  0  0
 26 27  1  0  0  0  0
 27 28  1  0  0  0  0
 29 27  2  0  0  0  0
 29 30  1  0  0  0  0
 31 29  1  0  0  0  0
 32 33  1  0  0  0  0
 32 31  2  0  0  0  0
 33 26  2  0  0  0  0
M  END
>  <minimizedAffinity>
-4.98006964

$$$$

 OpenBabel03262523373D

 33 35  0  0  1  0  0  0  0  0999 V2000
   37.4930   26.8590   33.2150 C   0  0  2  0  0  0  0  0  0  0  0  0
   38.9900   26.6970   33.1390 C   0  0  0  0  0  0  0  0  0  0  0  0
   39.5800   26.3010   34.4580 C   0  0  2  0  0  0  0  0  0  0  0  0
   39.2260   27.2870   35.5520 C   0  0  0  0  0  0  0  0  0  0  0  0
   37.7710   27.6350   35.5750 C   0  0  0  0  0  0  0  0  0  0  0  0
   36.9450   26.8230   34.6010 C   0  0  0  0  0  0  0  0  0  0  0  0
   37.1710   27.8100   32.7260 H   0  0  0  0  0  0  0  0  0  0  0  0
   39.2960   25.9260   32.4020 H   0  0  0  0  0  0  0  0  0  0  0  0
   39.4140   27.6650   32.7990 H   0  0  0  0  0  0  0  0  0  0  0  0
   39.1470   25.3010   34.7110 H   0  0  0  0  0  0  0  0  0  0  0  0
   39.7720   28.2330   35.2690 H   0  0  0  0  0  0  0  0  0  0  0  0
   39.6580   26.9690   36.5000 H   0  0  0  0  0  0  0  0  0  0  0  0
   37.3910   27.3400   36.5960 H   0  0  0  0  0  0  0  0  0  0  0  0
   37.5670   28.7220   35.5190 H   0  0  0  0  0  0  0  0  0  0  0  0
   36.8910   25.7830   34.9950 H   0  0  0  0  0  0  0  0  0  0  0  0
   35.9460   27.3060   34.5850 H   0  0  0  0  0  0  0  0  0  0  0  0
   36.8220   25.7750   32.4330 C   0  0  0  0  0  0  0  0  0  0  0  0
   35.7940   26.1780   31.5620 C   0  0  0  0  0  0  0  0  0  0  0  0
   35.1540   25.1780   30.8330 C   0  0  0  0  0  0  0  0  0  0  0  0
   35.5560   23.8680   31.0050 N   0  0  0  0  0  0  0  0  0  0  0  0
   36.5500   23.5260   31.8560 C   0  0  0  0  0  0  0  0  0  0  0  0
   37.1720   24.4740   32.5600 N   0  0  0  0  0  0  0  0  0  0  0  0
   35.4510   27.1710   31.3980 H   0  0  0  0  0  0  0  0  0  0  0  0
   34.3500   25.3930   30.1340 H   0  0  0  0  0  0  0  0  0  0  0  0
   36.7900   22.4730   31.9180 H   0  0  0  0  0  0  0  0  0  0  0  0
   41.0330   26.1720   34.4120 C   0  0  0  0  0  0  0  0  0  0  0  0
   41.8210   27.1040   33.7980 C   0  0  0  0  0  0  0  0  0  0  0  0
   41.4050   27.9960   33.3100 H   0  0  0  0  0  0  0  0  0  0  0  0
   43.2040   26.9710   33.7600 C   0  0  0  0  0  0  0  0  0  0  0  0
   43.8850   27.6760   33.2880 H   0  0  0  0  0  0  0  0  0  0  0  0
   43.8050   25.8810   34.3500 C   0  0  0  0  0  3  0  0  0  0  0  0
   42.9930   24.9500   34.9640 C   0  0  0  0  0  3  0  0  0  0  0  0
   41.6820   25.1250   34.9710 N   0  0  0  0  0  0  0  0  0  0  0  0
  1  7  1  6  0  0  0
  1  6  1  0  0  0  0
  2  1  1  0  0  0  0
  2  3  1  0  0  0  0
  3 10  1  1  0  0  0
  3  4  1  0  0  0  0
  4  5  1  0  0  0  0
  4 12  1  0  0  0  0
  5 13  1  0  0  0  0
  6 15  1  0  0  0  0
  6  5  1  0  0  0  0
  8  2  1  0  0  0  0
  9  2  1  0  0  0  0
 11  4  1  0  0  0  0
 14  5  1  0  0  0  0
 16  6  1  0  0  0  0
 17 22  1  0  0  0  0
 17  1  1  0  0  0  0
 18 17  2  0  0  0  0
 19 20  2  0  0  0  0
 19 18  1  0  0  0  0
 20 21  1  0  0  0  0
 21 25  1  0  0  0  0
 21 22  2  0  0  0  0
 23 18  1  0  0  0  0
 24 19  1  0  0  0  0
 26  3  1  0  0  0  0
 26 33  1  0  0  0  0
 27 26  2  0  0  0  0
 28 27  1  0  0  0  0
 29 27  1  0  0  0  0
 29 31  2  0  0  0  0
 30 29  1  0  0  0  0
 31 32  1  0  0  0  0
 32 33  2  0  0  0  0
M  END
>  <minimizedAffinity>
-4.94148493

$$$$

 OpenBabel03262523373D

 33 35  0  0  1  0  0  0  0  0999 V2000
   37.0340   27.9590   31.9950 C   0  0  2  0  0  0  0  0  0  0  0  0
   36.4780   28.5600   33.2620 C   0  0  0  0  0  0  0  0  0  0  0  0
   35.4400   29.6030   32.9810 C   0  0  2  0  0  0  0  0  0  0  0  0
   35.9740   30.7010   32.0840 C   0  0  0  0  0  0  0  0  0  0  0  0
   36.7000   30.1740   30.8860 C   0  0  0  0  0  0  0  0  0  0  0  0
   36.6210   28.6690   30.7510 C   0  0  0  0  0  0  0  0  0  0  0  0
   38.1490   27.9170   32.0310 H   0  0  0  0  0  0  0  0  0  0  0  0
   36.0060   27.8010   33.9180 H   0  0  0  0  0  0  0  0  0  0  0  0
   37.3290   28.9990   33.8230 H   0  0  0  0  0  0  0  0  0  0  0  0
   34.5990   29.0810   32.4610 H   0  0  0  0  0  0  0  0  0  0  0  0
   36.7470   31.2310   32.7130 H   0  0  0  0  0  0  0  0  0  0  0  0
   35.1970   31.4380   31.8880 H   0  0  0  0  0  0  0  0  0  0  0  0
   36.1550   30.5770   29.9830 H   0  0  0  0  0  0  0  0  0  0  0  0
   37.7290   30.5680   30.7740 H   0  0  0  0  0  0  0  0  0  0  0  0
   35.5770   28.4150   30.4590 H   0  0  0  0  0  0  0  0  0  0  0  0
   37.3440   28.4050   29.9520 H   0  0  0  0  0  0  0  0  0  0  0  0
   36.5960   26.5340   31.8710 C   0  0  0  0  0  0  0  0  0  0  0  0
   35.4430   26.3000   31.1010 C   0  0  0  0  0  0  0  0  0  0  0  0
   35.0180   24.9790   30.9830 C   0  0  0  0  0  0  0  0  0  0  0  0
   35.7400   23.9880   31.6190 N   0  0  0  0  0  0  0  0  0  0  0  0
   36.8450   24.2600   32.3510 C   0  0  0  0  0  0  0  0  0  0  0  0
   37.2630   25.5210   32.4720 N   0  0  0  0  0  0  0  0  0  0  0  0
   34.8560   27.0290   30.5950 H   0  0  0  0  0  0  0  0  0  0  0  0
   34.1390   24.7000   30.4080 H   0  0  0  0  0  0  0  0  0  0  0  0
   37.3390   23.4140   32.8090 H   0  0  0  0  0  0  0  0  0  0  0  0
   34.9150   30.2200   34.1940 C   0  0  0  0  0  0  0  0  0  0  0  0
   35.6930   31.0010   35.0020 C   0  0  0  0  0  0  0  0  0  0  0  0
   36.7490   31.2060   34.7810 H   0  0  0  0  0  0  0  0  0  0  0  0
   35.1820   31.5830   36.1560 C   0  0  0  0  0  0  0  0  0  0  0  0
   35.7470   32.2130   36.8390 H   0  0  0  0  0  0  0  0  0  0  0  0
   33.8650   31.3760   36.5040 C   0  0  0  0  0  3  0  0  0  0  0  0
   33.0960   30.5830   35.6770 C   0  0  0  0  0  3  0  0  0  0  0  0
   33.6330   30.0530   34.5900 N   0  0  0  0  0  0  0  0  0  0  0  0
  1  7  1  1  0  0  0
  1  2  1  0  0  0  0
  2  9  1  0  0  0  0
  2  8  1  0  0  0  0
  3 10  1  6  0  0  0
  3  2  1  0  0  0  0
  3 26  1  0  0  0  0
  4 11  1  0  0  0  0
  4  3  1  0  0  0  0
  5  4  1  0  0  0  0
  6  5  1  0  0  0  0
  6  1  1  0  0  0  0
 12  4  1  0  0  0  0
 13  5  1  0  0  0  0
 14  5  1  0  0  0  0
 15  6  1  0  0  0  0
 16  6  1  0  0  0  0
 17  1  1  0  0  0  0
 17 22  1  0  0  0  0
 18 17  2  0  0  0  0
 19 18  1  0  0  0  0
 19 20  2  0  0  0  0
 20 21  1  0  0  0  0
 21 22  2  0  0  0  0
 21 25  1  0  0  0  0
 23 18  1  0  0  0  0
 24 19  1  0  0  0  0
 26 33  2  0  0  0  0
 26 27  1  0  0  0  0
 27 29  2  0  0  0  0
 28 27  1  0  0  0  0
 29 31  1  0  0  0  0
 29 30  1  0  0  0  0
 32 31  2  0  0  0  0
 33 32  1  0  0  0  0
M  END
>  <minimizedAffinity>
-4.933599

$$$$

 OpenBabel03262523373D

 33 35  0  0  1  0  0  0  0  0999 V2000
   38.2290   26.8380   34.0590 C   0  0  2  0  0  0  0  0  0  0  0  0
   37.4280   27.9210   34.7380 C   0  0  0  0  0  0  0  0  0  0  0  0
   36.2120   28.3000   33.9490 C   0  0  2  0  0  0  0  0  0  0  0  0
   36.5680   28.7310   32.5410 C   0  0  0  0  0  0  0  0  0  0  0  0
   37.5090   27.7880   31.8620 C   0  0  0  0  0  0  0  0  0  0  0  0
   37.7890   26.5370   32.6670 C   0  0  0  0  0  0  0  0  0  0  0  0
   39.3150   27.0950   34.0450 H   0  0  0  0  0  0  0  0  0  0  0  0
   37.0800   27.6190   35.7470 H   0  0  0  0  0  0  0  0  0  0  0  0
   38.0960   28.7970   34.8680 H   0  0  0  0  0  0  0  0  0  0  0  0
   35.5690   27.3870   33.9020 H   0  0  0  0  0  0  0  0  0  0  0  0
   37.1340   29.6990   32.6750 H   0  0  0  0  0  0  0  0  0  0  0  0
   35.6670   28.9910   31.9880 H   0  0  0  0  0  0  0  0  0  0  0  0
   36.9790   27.4240   30.9340 H   0  0  0  0  0  0  0  0  0  0  0  0
   38.4270   28.2700   31.4720 H   0  0  0  0  0  0  0  0  0  0  0  0
   36.8650   25.9170   32.6510 H   0  0  0  0  0  0  0  0  0  0  0  0
   38.6290   26.0320   32.1460 H   0  0  0  0  0  0  0  0  0  0  0  0
   38.1420   25.5690   34.8460 C   0  0  0  0  0  0  0  0  0  0  0  0
   38.0770   25.7040   36.2450 C   0  0  0  0  0  0  0  0  0  0  0  0
   38.0040   24.5310   36.9920 C   0  0  0  0  0  0  0  0  0  0  0  0
   38.0010   23.3190   36.3290 N   0  0  0  0  0  0  0  0  0  0  0  0
   38.0650   23.2360   34.9800 C   0  0  0  0  0  0  0  0  0  0  0  0
   38.1350   24.3530   34.2530 N   0  0  0  0  0  0  0  0  0  0  0  0
   38.0780   26.6130   36.7970 H   0  0  0  0  0  0  0  0  0  0  0  0
   37.9500   24.5360   38.0770 H   0  0  0  0  0  0  0  0  0  0  0  0
   38.0560   22.2410   34.5580 H   0  0  0  0  0  0  0  0  0  0  0  0
   35.4440   29.3710   34.5750 C   0  0  0  0  0  0  0  0  0  0  0  0
   36.0490   30.4100   35.2230 C   0  0  0  0  0  0  0  0  0  0  0  0
   37.1420   30.4960   35.3060 H   0  0  0  0  0  0  0  0  0  0  0  0
   35.3070   31.4250   35.8160 C   0  0  0  0  0  0  0  0  0  0  0  0
   35.7270   32.2770   36.3440 H   0  0  0  0  0  0  0  0  0  0  0  0
   33.9310   31.3930   35.7560 C   0  0  0  0  0  3  0  0  0  0  0  0
   33.3370   30.3350   35.0980 C   0  0  0  0  0  3  0  0  0  0  0  0
   34.0920   29.3950   34.5520 N   0  0  0  0  0  0  0  0  0  0  0  0
  1  7  1  6  0  0  0
  1  2  1  0  0  0  0
  1 17  1  0  0  0  0
  2  9  1  0  0  0  0
  2  8  1  0  0  0  0
  3 10  1  6  0  0  0
  3 26  1  0  0  0  0
  3  2  1  0  0  0  0
  4 11  1  0  0  0  0
  4  3  1  0  0  0  0
  5  4  1  0  0  0  0
  5  6  1  0  0  0  0
  6  1  1  0  0  0  0
 12  4  1  0  0  0  0
 13  5  1  0  0  0  0
 14  5  1  0  0  0  0
 15  6  1  0  0  0  0
 16  6  1  0  0  0  0
 17 18  1  0  0  0  0
 18 23  1  0  0  0  0
 18 19  2  0  0  0  0
 19 24  1  0  0  0  0
 20 19  1  0  0  0  0
 21 20  2  0  0  0  0
 22 17  2  0  0  0  0
 22 21  1  0  0  0  0
 25 21  1  0  0  0  0
 26 27  1  0  0  0  0
 27 28  1  0  0  0  0
 27 29  2  0  0  0  0
 29 30  1  0  0  0  0
 31 29  1  0  0  0  0
 32 31  2  0  0  0  0
 33 26  2  0  0  0  0
 33 32  1  0  0  0  0
M  END
>  <minimizedAffinity>
-4.90077925

$$$$

 OpenBabel03262523373D

 33 35  0  0  1  0  0  0  0  0999 V2000
   38.0340   22.1050   32.5650 C   0  0  2  0  0  0  0  0  0  0  0  0
   38.4030   22.1200   34.0270 C   0  0  0  0  0  0  0  0  0  0  0  0
   37.9540   23.3780   34.7070 C   0  0  2  0  0  0  0  0  0  0  0  0
   38.5060   24.6130   34.0250 C   0  0  0  0  0  0  0  0  0  0  0  0
   38.3340   24.5860   32.5400 C   0  0  0  0  0  0  0  0  0  0  0  0
   37.5210   23.4070   32.0520 C   0  0  0  0  0  0  0  0  0  0  0  0
   38.9040   21.7900   31.9390 H   0  0  0  0  0  0  0  0  0  0  0  0
   37.9550   21.2720   34.5850 H   0  0  0  0  0  0  0  0  0  0  0  0
   39.5050   22.0140   34.0940 H   0  0  0  0  0  0  0  0  0  0  0  0
   36.8380   23.3920   34.6420 H   0  0  0  0  0  0  0  0  0  0  0  0
   39.6180   24.5690   34.2150 H   0  0  0  0  0  0  0  0  0  0  0  0
   38.1570   25.5110   34.5330 H   0  0  0  0  0  0  0  0  0  0  0  0
   37.7180   25.4950   32.2760 H   0  0  0  0  0  0  0  0  0  0  0  0
   39.2760   24.7300   31.9750 H   0  0  0  0  0  0  0  0  0  0  0  0
   36.4640   23.5820   32.3550 H   0  0  0  0  0  0  0  0  0  0  0  0
   37.6340   23.4070   30.9470 H   0  0  0  0  0  0  0  0  0  0  0  0
   36.9820   21.0720   32.3140 C   0  0  0  0  0  0  0  0  0  0  0  0
   35.6480   21.5180   32.3490 C   0  0  0  0  0  0  0  0  0  0  0  0
   34.6570   20.5660   32.1260 C   0  0  0  0  0  0  0  0  0  0  0  0
   35.0310   19.2580   31.8880 N   0  0  0  0  0  0  0  0  0  0  0  0
   36.3280   18.8740   31.8640 C   0  0  0  0  0  0  0  0  0  0  0  0
   37.2870   19.7760   32.0760 N   0  0  0  0  0  0  0  0  0  0  0  0
   35.3130   22.5120   32.5290 H   0  0  0  0  0  0  0  0  0  0  0  0
   33.5990   20.8160   32.1320 H   0  0  0  0  0  0  0  0  0  0  0  0
   36.5160   17.8270   31.6700 H   0  0  0  0  0  0  0  0  0  0  0  0
   38.3320   23.4250   36.1150 C   0  0  0  0  0  0  0  0  0  0  0  0
   37.6050   24.1300   37.0340 C   0  0  0  0  0  0  0  0  0  0  0  0
   36.7030   24.6940   36.7630 H   0  0  0  0  0  0  0  0  0  0  0  0
   37.9750   24.1680   38.3730 C   0  0  0  0  0  0  0  0  0  0  0  0
   37.4410   24.7080   39.1520 H   0  0  0  0  0  0  0  0  0  0  0  0
   39.0940   23.4850   38.7960 C   0  0  0  0  0  3  0  0  0  0  0  0
   39.8150   22.7810   37.8540 C   0  0  0  0  0  3  0  0  0  0  0  0
   39.4190   22.7780   36.5920 N   0  0  0  0  0  0  0  0  0  0  0  0
  1  7  1  6  0  0  0
  1  2  1  0  0  0  0
  2  9  1  0  0  0  0
  2  8  1  0  0  0  0
  2  3  1  0  0  0  0
  3 10  1  6  0  0  0
  3 26  1  0  0  0  0
  4 11  1  0  0  0  0
  4 12  1  0  0  0  0
  4  3  1  0  0  0  0
  5  4  1  0  0  0  0
  6 15  1  0  0  0  0
  6  5  1  0  0  0  0
  6  1  1  0  0  0  0
 13  5  1  0  0  0  0
 14  5  1  0  0  0  0
 16  6  1  0  0  0  0
 17 18  1  0  0  0  0
 17  1  1  0  0  0  0
 18 23  1  0  0  0  0
 19 24  1  0  0  0  0
 19 18  2  0  0  0  0
 20 19  1  0  0  0  0
 21 20  2  0  0  0  0
 21 22  1  0  0  0  0
 22 17  2  0  0  0  0
 25 21  1  0  0  0  0
 26 33  2  0  0  0  0
 26 27  1  0  0  0  0
 27 29  2  0  0  0  0
 28 27  1  0  0  0  0
 29 31  1  0  0  0  0
 29 30  1  0  0  0  0
 32 31  2  0  0  0  0
 33 32  1  0  0  0  0
M  END
>  <minimizedAffinity>
-4.89548922

$$$$

 OpenBabel03262523373D

 33 35  0  0  1  0  0  0  0  0999 V2000
   36.5740   23.5030   30.9170 C   0  0  2  0  0  0  0  0  0  0  0  0
   37.7240   24.0510   31.7240 C   0  0  0  0  0  0  0  0  0  0  0  0
   37.2740   25.0730   32.7230 C   0  0  2  0  0  0  0  0  0  0  0  0
   36.5220   26.2100   32.0630 C   0  0  0  0  0  0  0  0  0  0  0  0
   35.4740   25.7400   31.1060 C   0  0  0  0  0  0  0  0  0  0  0  0
   35.2910   24.2370   31.1090 C   0  0  0  0  0  0  0  0  0  0  0  0
   36.8220   23.4900   29.8280 H   0  0  0  0  0  0  0  0  0  0  0  0
   38.2610   23.2600   32.2870 H   0  0  0  0  0  0  0  0  0  0  0  0
   38.4490   24.4970   31.0110 H   0  0  0  0  0  0  0  0  0  0  0  0
   36.5910   24.5430   33.4310 H   0  0  0  0  0  0  0  0  0  0  0  0
   37.3000   26.7430   31.4430 H   0  0  0  0  0  0  0  0  0  0  0  0
   36.1990   26.9320   32.8120 H   0  0  0  0  0  0  0  0  0  0  0  0
   34.4930   26.1540   31.4810 H   0  0  0  0  0  0  0  0  0  0  0  0
   35.5710   26.1650   30.0880 H   0  0  0  0  0  0  0  0  0  0  0  0
   34.7980   23.9630   32.0680 H   0  0  0  0  0  0  0  0  0  0  0  0
   34.6390   24.0170   30.2370 H   0  0  0  0  0  0  0  0  0  0  0  0
   36.3350   22.0710   31.2760 C   0  0  0  0  0  0  0  0  0  0  0  0
   35.2620   21.8170   32.1500 C   0  0  0  0  0  0  0  0  0  0  0  0
   35.0320   20.4880   32.5000 C   0  0  0  0  0  0  0  0  0  0  0  0
   35.8570   19.5100   31.9800 N   0  0  0  0  0  0  0  0  0  0  0  0
   36.8790   19.8010   31.1430 C   0  0  0  0  0  0  0  0  0  0  0  0
   37.1100   21.0690   30.7990 N   0  0  0  0  0  0  0  0  0  0  0  0
   34.6030   22.5350   32.5750 H   0  0  0  0  0  0  0  0  0  0  0  0
   34.2260   20.1950   33.1680 H   0  0  0  0  0  0  0  0  0  0  0  0
   37.4660   18.9640   30.7910 H   0  0  0  0  0  0  0  0  0  0  0  0
   38.3790   25.6390   33.4900 C   0  0  0  0  0  0  0  0  0  0  0  0
   38.1730   26.5460   34.4900 C   0  0  0  0  0  0  0  0  0  0  0  0
   37.1690   26.8960   34.7690 H   0  0  0  0  0  0  0  0  0  0  0  0
   39.2330   27.0790   35.2140 C   0  0  0  0  0  0  0  0  0  0  0  0
   39.1360   27.8030   36.0200 H   0  0  0  0  0  0  0  0  0  0  0  0
   40.5230   26.6920   34.9270 C   0  0  0  0  0  3  0  0  0  0  0  0
   40.7120   25.7750   33.9130 C   0  0  0  0  0  3  0  0  0  0  0  0
   39.6670   25.3000   33.2550 N   0  0  0  0  0  0  0  0  0  0  0  0
  1  7  1  6  0  0  0
  1  6  1  0  0  0  0
  1 17  1  0  0  0  0
  1  2  1  0  0  0  0
  2  8  1  0  0  0  0
  2  3  1  0  0  0  0
  3 10  1  1  0  0  0
  3 26  1  0  0  0  0
  4  3  1  0  0  0  0
  4 12  1  0  0  0  0
  5  6  1  0  0  0  0
  5 13  1  0  0  0  0
  5  4  1  0  0  0  0
  6 15  1  0  0  0  0
  9  2  1  0  0  0  0
 11  4  1  0  0  0  0
 14  5  1  0  0  0  0
 16  6  1  0  0  0  0
 17 18  1  0  0  0  0
 18 19  2  0  0  0  0
 18 23  1  0  0  0  0
 19 24  1  0  0  0  0
 20 19  1  0  0  0  0
 21 20  2  0  0  0  0
 22 21  1  0  0  0  0
 22 17  2  0  0  0  0
 25 21  1  0  0  0  0
 26 27  1  0  0  0  0
 27 28  1  0  0  0  0
 27 29  2  0  0  0  0
 29 30  1  0  0  0  0
 31 29  1  0  0  0  0
 32 31  2  0  0  0  0
 33 26  2  0  0  0  0
 33 32  1  0  0  0  0
M  END
>  <minimizedAffinity>
-4.83993673

$$$$
