
 OpenBabel03272510163D

 27 29  0  0  0  0  0  0  0  0999 V2000
   37.2920   29.3200   51.0200 Br  0  0  0  0  0  0  0  0  0  0  0  0
   35.9550   29.3310   49.6510 C   0  0  0  0  0  0  0  0  0  0  0  0
   35.9910   30.2680   48.6320 C   0  0  0  0  0  0  0  0  0  0  0  0
   34.9850   30.2080   47.6800 C   0  0  0  0  0  0  0  0  0  0  0  0
   33.9770   29.2760   47.7080 C   0  0  0  0  0  0  0  0  0  0  0  0
   33.9720   28.3640   48.7320 C   0  0  0  0  0  0  0  0  0  0  0  0
   34.9600   28.4020   49.6910 C   0  0  0  0  0  0  0  0  0  0  0  0
   35.0480   30.9570   46.8990 H   0  0  0  0  0  0  0  0  0  0  0  0
   33.1880   27.6220   48.7740 H   0  0  0  0  0  0  0  0  0  0  0  0
   34.9180   27.6540   50.4900 H   0  0  0  0  0  0  0  0  0  0  0  0
   37.9830   33.1920   49.4830 C   0  0  0  0  0  0  0  0  0  0  0  0
   39.0170   33.2060   48.5230 C   0  0  0  0  0  0  0  0  0  0  0  0
   39.0080   32.1810   47.5750 C   0  0  0  0  0  0  0  0  0  0  0  0
   38.0210   31.2430   47.6300 N   0  0  0  0  0  0  0  0  0  0  0  0
   37.0450   31.2690   48.5730 C   0  0  0  0  0  0  0  0  0  0  0  0
   37.0280   32.2540   49.5070 N   0  0  0  0  0  0  0  0  0  0  0  0
   37.9930   33.9990   50.2270 H   0  0  0  0  0  0  0  0  0  0  0  0
   39.7620   33.9930   48.5560 H   0  0  0  0  0  0  0  0  0  0  0  0
   39.7720   32.1600   46.8370 H   0  0  0  0  0  0  0  0  0  0  0  0
   32.9830   29.3220   46.6470 C   0  0  0  0  0  0  0  0  0  0  0  0
   32.3850   28.2030   46.1040 C   0  0  0  0  0  0  0  0  0  0  0  0
   32.6520   27.2390   46.4630 H   0  0  0  0  0  0  0  0  0  0  0  0
   31.4410   28.2690   45.0950 C   0  0  0  0  0  0  0  0  0  0  0  0
   31.0120   27.3590   44.7110 H   0  0  0  0  0  0  0  0  0  0  0  0
   31.0990   29.5300   44.6300 C   0  0  0  0  0  3  0  0  0  0  0  0
   31.7000   30.6510   45.1790 C   0  0  0  0  0  3  0  0  0  0  0  0
   32.6130   30.5070   46.1610 N   0  0  0  0  0  0  0  0  0  0  0  0
  2  7  1  0  0  0  0
  2  1  1  0  0  0  0
  3  2  2  0  0  0  0
  4  5  2  0  0  0  0
  4  3  1  0  0  0  0
  5  6  1  0  0  0  0
  6  9  1  0  0  0  0
  6  7  2  0  0  0  0
  7 10  1  0  0  0  0
  8  4  1  0  0  0  0
 11 16  1  0  0  0  0
 11 17  1  0  0  0  0
 12 18  1  0  0  0  0
 12 11  2  0  0  0  0
 13 14  2  0  0  0  0
 13 12  1  0  0  0  0
 14 15  1  0  0  0  0
 15  3  1  0  0  0  0
 15 16  2  0  0  0  0
 19 13  1  0  0  0  0
 20  5  1  0  0  0  0
 21 22  1  0  0  0  0
 21 20  2  0  0  0  0
 23 21  1  0  0  0  0
 24 23  1  0  0  0  0
 25 23  2  0  0  0  0
 25 26  1  0  0  0  0
 26 27  2  0  0  0  0
 27 20  1  0  0  0  0
M  END
>  <minimizedAffinity>
-5.91144466

>  <minimizedRMSD>
0.144200042

$$$$
