
 OpenBabel03272500483D

 38 42  0  0  1  0  0  0  0  0999 V2000
   34.0730   29.0270   48.5830 C   0  0  1  0  0  0  0  0  0  0  0  0
   33.9130   29.1330   50.1380 C   0  0  0  0  0  0  0  0  0  0  0  0
   35.1530   28.6230   49.5000 C   0  0  2  0  0  0  0  0  0  0  0  0
   34.2000   29.9620   48.0300 H   0  0  0  0  0  0  0  0  0  0  0  0
   33.1800   28.4530   50.6010 H   0  0  0  0  0  0  0  0  0  0  0  0
   33.8760   30.1960   50.4950 H   0  0  0  0  0  0  0  0  0  0  0  0
   35.3370   27.5510   49.5730 H   0  0  0  0  0  0  0  0  0  0  0  0
   31.5580   27.0720   46.8920 C   0  0  0  0  0  0  0  0  0  0  0  0
   32.5270   26.1140   47.0840 C   0  0  0  0  0  0  0  0  0  0  0  0
   33.6120   26.7140   47.7490 C   0  0  0  0  0  0  0  0  0  0  0  0
   33.2710   28.0040   47.9350 N   0  0  0  0  0  0  0  0  0  0  0  0
   32.0770   28.1590   47.4240 N   0  0  0  0  0  0  0  0  0  0  0  0
   32.4900   25.0570   46.7840 H   0  0  0  0  0  0  0  0  0  0  0  0
   34.5160   26.2060   48.0310 H   0  0  0  0  0  0  0  0  0  0  0  0
   29.0960   27.4930   46.6010 C   0  0  0  0  0  0  0  0  0  0  0  0
   30.3010   26.8210   46.2430 C   0  0  0  0  0  0  0  0  0  0  0  0
   30.2200   25.8910   45.2180 C   0  0  0  0  0  0  0  0  0  0  0  0
   29.0220   25.6710   44.6190 N   0  0  0  0  0  0  0  0  0  0  0  0
   27.9070   26.3330   44.9940 C   0  0  0  0  0  0  0  0  0  0  0  0
   27.9370   27.2550   45.9940 N   0  0  0  0  0  0  0  0  0  0  0  0
   29.1490   28.2210   47.4000 H   0  0  0  0  0  0  0  0  0  0  0  0
   31.1030   25.3640   44.9180 H   0  0  0  0  0  0  0  0  0  0  0  0
   26.9320   26.1920   44.5480 H   0  0  0  0  0  0  0  0  0  0  0  0
   36.4030   29.4520   49.5640 C   0  0  0  0  0  0  0  0  0  0  0  0
   37.4450   29.2200   50.4750 C   0  0  0  0  0  0  0  0  0  0  0  0
   38.3990   30.1630   50.2430 N   0  0  0  0  0  0  0  0  0  0  0  0
   37.9690   30.9540   49.2220 C   0  0  0  0  0  0  0  0  0  0  0  0
   36.7550   30.5230   48.8090 N   0  0  0  0  0  0  0  0  0  0  0  0
   37.4890   28.4290   51.2350 H   0  0  0  0  0  0  0  0  0  0  0  0
   39.3100   30.2920   50.7330 H   0  0  0  0  0  0  0  0  0  0  0  0
   38.6830   32.0890   48.6520 C   0  0  0  0  0  0  0  0  0  0  0  0
   38.9160   33.2200   49.3980 C   0  0  0  0  0  0  0  0  0  0  0  0
   38.5500   33.2290   50.4120 H   0  0  0  0  0  0  0  0  0  0  0  0
   39.5850   34.3430   48.9360 C   0  0  0  0  0  0  0  0  0  0  0  0
   39.7470   35.2090   49.5510 H   0  0  0  0  0  0  0  0  0  0  0  0
   40.0210   34.2350   47.6110 C   0  0  0  0  0  0  0  0  0  0  0  0
   39.8010   33.1200   46.8480 C   0  0  0  0  0  0  0  0  0  0  0  0
   39.1340   32.0550   47.3740 N   0  0  0  0  0  0  0  0  0  0  0  0
  1  4  1  6  0  0  0
  1  3  1  0  0  0  0
  1  2  1  0  0  0  0
  2  6  1  0  0  0  0
  2  5  1  0  0  0  0
  3 24  1  0  0  0  0
  3  7  1  1  0  0  0
  3  2  1  0  0  0  0
  8  9  1  0  0  0  0
  8 12  2  0  0  0  0
  9 10  2  0  0  0  0
 10 11  1  0  0  0  0
 10 14  1  0  0  0  0
 11  1  1  0  0  0  0
 12 11  1  0  0  0  0
 13  9  1  0  0  0  0
 15 21  1  0  0  0  0
 16 15  1  0  0  0  0
 16  8  1  0  0  0  0
 17 16  2  0  0  0  0
 18 19  2  0  0  0  0
 18 17  1  0  0  0  0
 19 20  1  0  0  0  0
 20 15  2  0  0  0  0
 22 17  1  0  0  0  0
 23 19  1  0  0  0  0
 24 25  2  0  0  0  0
 25 29  1  0  0  0  0
 26 25  1  0  0  0  0
 26 30  1  0  0  0  0
 27 26  1  0  0  0  0
 28 27  2  0  0  0  0
 28 24  1  0  0  0  0
 31 27  1  0  0  0  0
 31 32  1  0  0  0  0
 32 33  1  0  0  0  0
 34 32  2  0  0  0  0
 34 35  1  0  0  0  0
 36 34  1  0  0  0  0
 37 38  1  0  0  0  0
 37 36  2  0  0  0  0
 38 31  2  0  0  0  0
M  END
>  <minimizedAffinity>
-6.118361

>  <minimizedRMSD>
3.80732083

$$$$
