
 OpenBabel03272507203D

 29 31  0  0  1  0  0  0  0  0999 V2000
   37.3140   27.0890   33.8620 C   0  0  0  0  0  0  0  0  0  0  0  0
   36.6380   28.0710   33.1600 C   0  0  0  0  0  0  0  0  0  0  0  0
   35.9610   27.6020   32.0080 C   0  0  0  0  0  0  0  0  0  0  0  0
   36.0010   26.2810   31.6590 N   0  0  0  0  0  0  0  0  0  0  0  0
   36.6880   25.3670   32.3980 C   0  0  0  0  0  0  0  0  0  0  0  0
   37.3510   25.7750   33.5100 N   0  0  0  0  0  0  0  0  0  0  0  0
   36.6270   29.1070   33.4640 H   0  0  0  0  0  0  0  0  0  0  0  0
   35.4130   28.3240   31.4150 H   0  0  0  0  0  0  0  0  0  0  0  0
   36.7270   23.9560   32.0190 C   0  0  0  0  0  0  0  0  0  0  0  0
   35.5840   23.4060   31.4490 C   0  0  0  0  0  0  0  0  0  0  0  0
   34.6670   23.9500   31.2660 H   0  0  0  0  0  0  0  0  0  0  0  0
   35.7060   22.0500   31.1170 C   0  0  0  0  0  0  0  0  0  0  0  0
   34.8400   21.5850   30.6720 H   0  0  0  0  0  0  0  0  0  0  0  0
   36.8530   21.3120   31.3290 C   0  0  0  0  0  3  0  0  0  0  0  0
   37.9490   21.9250   31.9000 C   0  0  0  0  0  3  0  0  0  0  0  0
   37.8430   23.2280   32.2230 N   0  0  0  0  0  0  0  0  0  0  0  0
   38.0160   27.5510   35.1000 C   0  0  1  0  0  0  0  0  0  0  0  0
   38.3050   26.6430   36.2090 C   0  0  2  0  0  0  0  0  0  0  0  0
   39.4150   26.9150   35.2390 C   0  0  0  0  0  0  0  0  0  0  0  0
   38.0250   28.6620   35.2150 H   0  0  0  0  0  0  0  0  0  0  0  0
   38.2520   27.1570   37.2090 H   0  0  0  0  0  0  0  0  0  0  0  0
   40.2000   27.5910   35.6440 H   0  0  0  0  0  0  0  0  0  0  0  0
   39.7210   26.1410   34.5210 H   0  0  0  0  0  0  0  0  0  0  0  0
   37.6860   25.4000   36.1860 O   0  0  0  0  0  0  0  0  0  0  0  0
   38.1760   24.1840   36.5310 C   0  0  0  0  0  0  0  0  0  0  0  0
   38.4730   23.8940   37.7090 O   0  0  0  0  0  0  0  0  0  0  0  0
   38.2670   23.4050   35.3780 N   0  0  0  0  0  0  0  0  0  0  0  0
   37.5150   22.9330   34.7920 H   0  0  0  0  0  0  0  0  0  0  0  0
   39.2090   23.2020   34.9510 H   0  0  0  0  0  0  0  0  0  0  0  0
  1 17  1  0  0  0  0
  2  7  1  0  0  0  0
  2  1  2  0  0  0  0
  3  2  1  0  0  0  0
  4  3  2  0  0  0  0
  4  5  1  0  0  0  0
  5  6  2  0  0  0  0
  6  1  1  0  0  0  0
  8  3  1  0  0  0  0
  9 16  1  0  0  0  0
  9  5  1  0  0  0  0
 10  9  2  0  0  0  0
 11 10  1  0  0  0  0
 12 14  2  0  0  0  0
 12 10  1  0  0  0  0
 13 12  1  0  0  0  0
 14 15  1  0  0  0  0
 15 16  2  0  0  0  0
 17 20  1  1  0  0  0
 17 19  1  0  0  0  0
 17 18  1  0  0  0  0
 18 21  1  1  0  0  0
 19 22  1  0  0  0  0
 19 18  1  0  0  0  0
 23 19  1  0  0  0  0
 24 18  1  0  0  0  0
 24 25  1  0  0  0  0
 25 26  2  0  0  0  0
 27 25  1  0  0  0  0
 28 27  1  0  0  0  0
 29 27  1  0  0  0  0
M  END
>  <minimizedAffinity>
-4.95705509

$$$$

 OpenBabel03272507203D

 29 31  0  0  1  0  0  0  0  0999 V2000
   39.3010   24.4180   34.7050 C   0  0  0  0  0  0  0  0  0  0  0  0
   40.5520   24.9270   35.0100 C   0  0  0  0  0  0  0  0  0  0  0  0
   40.6700   26.3260   34.8320 C   0  0  0  0  0  0  0  0  0  0  0  0
   39.6100   27.0710   34.3950 N   0  0  0  0  0  0  0  0  0  0  0  0
   38.4060   26.5030   34.1130 C   0  0  0  0  0  0  0  0  0  0  0  0
   38.2500   25.1640   34.2700 N   0  0  0  0  0  0  0  0  0  0  0  0
   41.3680   24.3090   35.3530 H   0  0  0  0  0  0  0  0  0  0  0  0
   41.6260   26.7850   35.0550 H   0  0  0  0  0  0  0  0  0  0  0  0
   37.2770   27.3050   33.6460 C   0  0  0  0  0  0  0  0  0  0  0  0
   36.7540   28.2570   34.5150 C   0  0  0  0  0  0  0  0  0  0  0  0
   37.1240   28.4450   35.5130 H   0  0  0  0  0  0  0  0  0  0  0  0
   35.6750   28.9800   33.9890 C   0  0  0  0  0  0  0  0  0  0  0  0
   35.2400   29.7280   34.6330 H   0  0  0  0  0  0  0  0  0  0  0  0
   35.1650   28.7780   32.7220 C   0  0  0  0  0  3  0  0  0  0  0  0
   35.7350   27.8160   31.9150 C   0  0  0  0  0  3  0  0  0  0  0  0
   36.7730   27.1150   32.4110 N   0  0  0  0  0  0  0  0  0  0  0  0
   39.1390   22.9440   34.9090 C   0  0  1  0  0  0  0  0  0  0  0  0
   38.2170   22.3990   35.9030 C   0  0  2  0  0  0  0  0  0  0  0  0
   37.7380   22.4560   34.4850 C   0  0  0  0  0  0  0  0  0  0  0  0
   39.9680   22.3430   34.4640 H   0  0  0  0  0  0  0  0  0  0  0  0
   38.5980   21.4440   36.3640 H   0  0  0  0  0  0  0  0  0  0  0  0
   37.7200   21.4620   33.9850 H   0  0  0  0  0  0  0  0  0  0  0  0
   36.9840   23.1970   34.1870 H   0  0  0  0  0  0  0  0  0  0  0  0
   37.6840   23.2900   36.8260 O   0  0  0  0  0  0  0  0  0  0  0  0
   38.1710   23.6830   38.0290 C   0  0  0  0  0  0  0  0  0  0  0  0
   38.0500   24.8530   38.4470 O   0  0  0  0  0  0  0  0  0  0  0  0
   38.7830   22.5850   38.6340 N   0  0  0  0  0  0  0  0  0  0  0  0
   38.3700   21.7170   39.0870 H   0  0  0  0  0  0  0  0  0  0  0  0
   39.8340   22.5330   38.6910 H   0  0  0  0  0  0  0  0  0  0  0  0
  1 17  1  0  0  0  0
  1  2  1  0  0  0  0
  2  7  1  0  0  0  0
  3  2  2  0  0  0  0
  3  8  1  0  0  0  0
  4  3  1  0  0  0  0
  5  6  1  0  0  0  0
  5  4  2  0  0  0  0
  6  1  2  0  0  0  0
  9  5  1  0  0  0  0
  9 10  1  0  0  0  0
 10 11  1  0  0  0  0
 12 10  2  0  0  0  0
 12 13  1  0  0  0  0
 14 12  1  0  0  0  0
 15 16  1  0  0  0  0
 15 14  2  0  0  0  0
 16  9  2  0  0  0  0
 17 20  1  6  0  0  0
 17 18  1  0  0  0  0
 18 21  1  1  0  0  0
 18 24  1  0  0  0  0
 19 17  1  0  0  0  0
 19 18  1  0  0  0  0
 22 19  1  0  0  0  0
 23 19  1  0  0  0  0
 24 25  1  0  0  0  0
 25 26  2  0  0  0  0
 25 27  1  0  0  0  0
 27 29  1  0  0  0  0
 27 28  1  0  0  0  0
M  END
>  <minimizedAffinity>
-4.94132233

$$$$

 OpenBabel03272507203D

 29 31  0  0  1  0  0  0  0  0999 V2000
   37.1150   25.7280   32.8210 C   0  0  0  0  0  0  0  0  0  0  0  0
   36.7310   27.0350   33.0670 C   0  0  0  0  0  0  0  0  0  0  0  0
   36.9760   27.4750   34.3900 C   0  0  0  0  0  0  0  0  0  0  0  0
   37.5450   26.6430   35.3130 N   0  0  0  0  0  0  0  0  0  0  0  0
   37.8980   25.3660   35.0020 C   0  0  0  0  0  0  0  0  0  0  0  0
   37.6810   24.9030   33.7440 N   0  0  0  0  0  0  0  0  0  0  0  0
   36.2840   27.6660   32.3140 H   0  0  0  0  0  0  0  0  0  0  0  0
   36.6970   28.4910   34.6450 H   0  0  0  0  0  0  0  0  0  0  0  0
   38.5060   24.4800   35.9940 C   0  0  0  0  0  0  0  0  0  0  0  0
   37.9840   24.4970   37.2830 C   0  0  0  0  0  0  0  0  0  0  0  0
   37.1610   25.1190   37.6040 H   0  0  0  0  0  0  0  0  0  0  0  0
   38.6250   23.6200   38.1700 C   0  0  0  0  0  0  0  0  0  0  0  0
   38.2500   23.6030   39.1810 H   0  0  0  0  0  0  0  0  0  0  0  0
   39.6790   22.8050   37.8100 C   0  0  0  0  0  3  0  0  0  0  0  0
   40.1440   22.8420   36.5120 C   0  0  0  0  0  3  0  0  0  0  0  0
   39.5360   23.6820   35.6510 N   0  0  0  0  0  0  0  0  0  0  0  0
   36.8930   25.2440   31.4230 C   0  0  1  0  0  0  0  0  0  0  0  0
   36.3860   23.9020   31.1410 C   0  0  2  0  0  0  0  0  0  0  0  0
   35.3950   25.0270   31.1200 C   0  0  0  0  0  0  0  0  0  0  0  0
   37.4120   25.8640   30.6530 H   0  0  0  0  0  0  0  0  0  0  0  0
   36.8150   23.4710   30.1930 H   0  0  0  0  0  0  0  0  0  0  0  0
   35.0780   25.3160   30.0940 H   0  0  0  0  0  0  0  0  0  0  0  0
   34.6670   25.1350   31.9360 H   0  0  0  0  0  0  0  0  0  0  0  0
   36.3550   23.0030   32.2000 O   0  0  0  0  0  0  0  0  0  0  0  0
   37.0080   21.8250   32.3510 C   0  0  0  0  0  0  0  0  0  0  0  0
   36.9500   20.9150   31.4990 O   0  0  0  0  0  0  0  0  0  0  0  0
   37.6930   21.8570   33.5660 N   0  0  0  0  0  0  0  0  0  0  0  0
   38.5720   22.3790   33.8590 H   0  0  0  0  0  0  0  0  0  0  0  0
   37.3430   21.2930   34.3850 H   0  0  0  0  0  0  0  0  0  0  0  0
  1  2  2  0  0  0  0
  1  6  1  0  0  0  0
  2  3  1  0  0  0  0
  3  8  1  0  0  0  0
  3  4  2  0  0  0  0
  5  4  1  0  0  0  0
  5  9  1  0  0  0  0
  6  5  2  0  0  0  0
  7  2  1  0  0  0  0
  9 10  1  0  0  0  0
 10 11  1  0  0  0  0
 10 12  2  0  0  0  0
 12 13  1  0  0  0  0
 14 12  1  0  0  0  0
 15 14  2  0  0  0  0
 16  9  2  0  0  0  0
 16 15  1  0  0  0  0
 17 20  1  6  0  0  0
 17  1  1  0  0  0  0
 18 21  1  6  0  0  0
 18 17  1  0  0  0  0
 18 24  1  0  0  0  0
 19 18  1  0  0  0  0
 19 17  1  0  0  0  0
 19 23  1  0  0  0  0
 22 19  1  0  0  0  0
 24 25  1  0  0  0  0
 25 27  1  0  0  0  0
 26 25  2  0  0  0  0
 27 28  1  0  0  0  0
 27 29  1  0  0  0  0
M  END
>  <minimizedAffinity>
-4.84123468

$$$$

 OpenBabel03272507203D

 29 31  0  0  1  0  0  0  0  0999 V2000
   37.1110   25.4990   31.7810 C   0  0  0  0  0  0  0  0  0  0  0  0
   38.1120   25.6320   30.8350 C   0  0  0  0  0  0  0  0  0  0  0  0
   38.5470   24.4080   30.2710 C   0  0  0  0  0  0  0  0  0  0  0  0
   37.9940   23.2200   30.6580 N   0  0  0  0  0  0  0  0  0  0  0  0
   37.0100   23.1620   31.5960 C   0  0  0  0  0  0  0  0  0  0  0  0
   36.5640   24.3120   32.1630 N   0  0  0  0  0  0  0  0  0  0  0  0
   38.5270   26.5870   30.5520 H   0  0  0  0  0  0  0  0  0  0  0  0
   39.3310   24.4470   29.5230 H   0  0  0  0  0  0  0  0  0  0  0  0
   36.4220   21.8880   32.0070 C   0  0  0  0  0  0  0  0  0  0  0  0
   36.0790   20.9820   31.0090 C   0  0  0  0  0  0  0  0  0  0  0  0
   36.2150   21.1540   29.9510 H   0  0  0  0  0  0  0  0  0  0  0  0
   35.5220   19.7880   31.4890 C   0  0  0  0  0  0  0  0  0  0  0  0
   35.2420   19.0580   30.7460 H   0  0  0  0  0  0  0  0  0  0  0  0
   35.3270   19.5200   32.8290 C   0  0  0  0  0  3  0  0  0  0  0  0
   35.6930   20.4670   33.7620 C   0  0  0  0  0  3  0  0  0  0  0  0
   36.2290   21.6190   33.3130 N   0  0  0  0  0  0  0  0  0  0  0  0
   36.6130   26.7780   32.3760 C   0  0  1  0  0  0  0  0  0  0  0  0
   37.2540   27.3910   33.5370 C   0  0  2  0  0  0  0  0  0  0  0  0
   37.6210   27.9310   32.1880 C   0  0  0  0  0  0  0  0  0  0  0  0
   35.5770   27.0420   32.0520 H   0  0  0  0  0  0  0  0  0  0  0  0
   36.5180   27.9170   34.2070 H   0  0  0  0  0  0  0  0  0  0  0  0
   37.1650   28.9220   31.9700 H   0  0  0  0  0  0  0  0  0  0  0  0
   38.6070   27.7100   31.7550 H   0  0  0  0  0  0  0  0  0  0  0  0
   38.1840   26.6220   34.2250 O   0  0  0  0  0  0  0  0  0  0  0  0
   39.1990   27.0120   35.0350 C   0  0  0  0  0  0  0  0  0  0  0  0
   40.3970   26.8310   34.7380 O   0  0  0  0  0  0  0  0  0  0  0  0
   38.6480   27.6050   36.1720 N   0  0  0  0  0  0  0  0  0  0  0  0
   38.1770   28.5480   36.3100 H   0  0  0  0  0  0  0  0  0  0  0  0
   38.6620   27.0930   37.0930 H   0  0  0  0  0  0  0  0  0  0  0  0
  1  6  1  0  0  0  0
  1 17  1  0  0  0  0
  2  1  2  0  0  0  0
  3  4  2  0  0  0  0
  3  2  1  0  0  0  0
  4  5  1  0  0  0  0
  5  9  1  0  0  0  0
  5  6  2  0  0  0  0
  7  2  1  0  0  0  0
  8  3  1  0  0  0  0
  9 16  1  0  0  0  0
 10 12  1  0  0  0  0
 10  9  2  0  0  0  0
 11 10  1  0  0  0  0
 12 14  2  0  0  0  0
 13 12  1  0  0  0  0
 14 15  1  0  0  0  0
 16 15  2  0  0  0  0
 17 20  1  6  0  0  0
 17 18  1  0  0  0  0
 18 21  1  1  0  0  0
 18 24  1  0  0  0  0
 19 17  1  0  0  0  0
 19 18  1  0  0  0  0
 22 19  1  0  0  0  0
 23 19  1  0  0  0  0
 24 25  1  0  0  0  0
 25 27  1  0  0  0  0
 26 25  2  0  0  0  0
 27 28  1  0  0  0  0
 27 29  1  0  0  0  0
M  END
>  <minimizedAffinity>
-4.82076263

$$$$

 OpenBabel03272507203D

 29 31  0  0  1  0  0  0  0  0999 V2000
   37.9850   25.1890   35.9510 C   0  0  0  0  0  0  0  0  0  0  0  0
   38.3490   26.4570   36.3690 C   0  0  0  0  0  0  0  0  0  0  0  0
   38.8700   27.2810   35.3430 C   0  0  0  0  0  0  0  0  0  0  0  0
   38.9840   26.8210   34.0610 N   0  0  0  0  0  0  0  0  0  0  0  0
   38.6060   25.5590   33.7190 C   0  0  0  0  0  0  0  0  0  0  0  0
   38.1010   24.7350   34.6730 N   0  0  0  0  0  0  0  0  0  0  0  0
   38.2450   26.7890   37.3910 H   0  0  0  0  0  0  0  0  0  0  0  0
   39.1730   28.2870   35.6080 H   0  0  0  0  0  0  0  0  0  0  0  0
   38.7300   25.0710   32.3470 C   0  0  0  0  0  0  0  0  0  0  0  0
   39.9510   25.2510   31.7040 C   0  0  0  0  0  0  0  0  0  0  0  0
   40.8140   25.7260   32.1490 H   0  0  0  0  0  0  0  0  0  0  0  0
   39.9840   24.7560   30.3930 C   0  0  0  0  0  0  0  0  0  0  0  0
   40.9140   24.8750   29.8600 H   0  0  0  0  0  0  0  0  0  0  0  0
   38.9110   24.1410   29.7810 C   0  0  0  0  0  3  0  0  0  0  0  0
   37.7310   23.9980   30.4810 C   0  0  0  0  0  3  0  0  0  0  0  0
   37.6870   24.4700   31.7420 N   0  0  0  0  0  0  0  0  0  0  0  0
   37.4060   24.3030   37.0090 C   0  0  1  0  0  0  0  0  0  0  0  0
   38.0670   23.0700   37.4310 C   0  0  2  0  0  0  0  0  0  0  0  0
   38.2760   24.2850   38.2830 C   0  0  0  0  0  0  0  0  0  0  0  0
   36.3280   24.5080   37.2160 H   0  0  0  0  0  0  0  0  0  0  0  0
   37.3330   22.2650   37.7150 H   0  0  0  0  0  0  0  0  0  0  0  0
   37.7080   24.2560   39.2390 H   0  0  0  0  0  0  0  0  0  0  0  0
   39.2440   24.8050   38.2740 H   0  0  0  0  0  0  0  0  0  0  0  0
   39.1190   22.6150   36.6440 O   0  0  0  0  0  0  0  0  0  0  0  0
   40.4490   22.6030   36.9040 C   0  0  0  0  0  0  0  0  0  0  0  0
   41.2490   23.3640   36.3210 O   0  0  0  0  0  0  0  0  0  0  0  0
   40.6970   21.6350   37.8770 N   0  0  0  0  0  0  0  0  0  0  0  0
   40.4950   21.6270   38.9210 H   0  0  0  0  0  0  0  0  0  0  0  0
   41.1610   20.7270   37.6120 H   0  0  0  0  0  0  0  0  0  0  0  0
  1  2  1  0  0  0  0
  1 17  1  0  0  0  0
  2  7  1  0  0  0  0
  3  8  1  0  0  0  0
  3  2  2  0  0  0  0
  4  3  1  0  0  0  0
  5  4  2  0  0  0  0
  5  6  1  0  0  0  0
  6  1  2  0  0  0  0
  9  5  1  0  0  0  0
 10 11  1  0  0  0  0
 10  9  2  0  0  0  0
 12 10  1  0  0  0  0
 13 12  1  0  0  0  0
 14 12  2  0  0  0  0
 14 15  1  0  0  0  0
 15 16  2  0  0  0  0
 16  9  1  0  0  0  0
 17 20  1  1  0  0  0
 17 18  1  0  0  0  0
 17 19  1  0  0  0  0
 18 21  1  1  0  0  0
 18 19  1  0  0  0  0
 19 22  1  0  0  0  0
 23 19  1  0  0  0  0
 24 25  1  0  0  0  0
 24 18  1  0  0  0  0
 25 27  1  0  0  0  0
 26 25  2  0  0  0  0
 27 28  1  0  0  0  0
 29 27  1  0  0  0  0
M  END
>  <minimizedAffinity>
-4.70004272

$$$$

 OpenBabel03272507203D

 29 31  0  0  1  0  0  0  0  0999 V2000
   38.6610   25.7020   32.7270 C   0  0  0  0  0  0  0  0  0  0  0  0
   39.3510   24.9480   31.7930 C   0  0  0  0  0  0  0  0  0  0  0  0
   39.9720   23.7910   32.3230 C   0  0  0  0  0  0  0  0  0  0  0  0
   39.8710   23.4850   33.6510 N   0  0  0  0  0  0  0  0  0  0  0  0
   39.1760   24.2730   34.5150 C   0  0  0  0  0  0  0  0  0  0  0  0
   38.5640   25.3930   34.0490 N   0  0  0  0  0  0  0  0  0  0  0  0
   39.4100   25.2190   30.7500 H   0  0  0  0  0  0  0  0  0  0  0  0
   40.5270   23.1580   31.6400 H   0  0  0  0  0  0  0  0  0  0  0  0
   39.0720   23.9410   35.9350 C   0  0  0  0  0  0  0  0  0  0  0  0
   40.0520   23.1190   36.4810 C   0  0  0  0  0  0  0  0  0  0  0  0
   40.8850   22.7070   35.9290 H   0  0  0  0  0  0  0  0  0  0  0  0
   39.8760   22.8510   37.8460 C   0  0  0  0  0  0  0  0  0  0  0  0
   40.6160   22.2150   38.3080 H   0  0  0  0  0  0  0  0  0  0  0  0
   38.8310   23.3510   38.5950 C   0  0  0  0  0  3  0  0  0  0  0  0
   37.8960   24.1610   37.9850 C   0  0  0  0  0  3  0  0  0  0  0  0
   38.0540   24.4260   36.6740 N   0  0  0  0  0  0  0  0  0  0  0  0
   37.9720   26.9170   32.1910 C   0  0  1  0  0  0  0  0  0  0  0  0
   36.5330   26.9390   31.9340 C   0  0  2  0  0  0  0  0  0  0  0  0
   37.0080   27.5340   33.2250 C   0  0  0  0  0  0  0  0  0  0  0  0
   38.6740   27.6620   31.7440 H   0  0  0  0  0  0  0  0  0  0  0  0
   36.2650   27.5790   31.0480 H   0  0  0  0  0  0  0  0  0  0  0  0
   36.9800   28.6460   33.2340 H   0  0  0  0  0  0  0  0  0  0  0  0
   36.8340   27.0060   34.1730 H   0  0  0  0  0  0  0  0  0  0  0  0
   35.8670   25.7200   31.9650 O   0  0  0  0  0  0  0  0  0  0  0  0
   35.5650   24.8750   30.9480 C   0  0  0  0  0  0  0  0  0  0  0  0
   36.0790   23.7410   30.8480 O   0  0  0  0  0  0  0  0  0  0  0  0
   34.6390   25.5040   30.1160 N   0  0  0  0  0  0  0  0  0  0  0  0
   33.6040   25.7070   30.2520 H   0  0  0  0  0  0  0  0  0  0  0  0
   34.9380   25.8670   29.1740 H   0  0  0  0  0  0  0  0  0  0  0  0
  1  6  1  0  0  0  0
  2  3  1  0  0  0  0
  2  1  2  0  0  0  0
  3  4  2  0  0  0  0
  4  5  1  0  0  0  0
  5  9  1  0  0  0  0
  6  5  2  0  0  0  0
  7  2  1  0  0  0  0
  8  3  1  0  0  0  0
  9 10  2  0  0  0  0
  9 16  1  0  0  0  0
 10 12  1  0  0  0  0
 11 10  1  0  0  0  0
 12 13  1  0  0  0  0
 12 14  2  0  0  0  0
 15 14  1  0  0  0  0
 16 15  2  0  0  0  0
 17 20  1  6  0  0  0
 17  1  1  0  0  0  0
 17 19  1  0  0  0  0
 18 21  1  6  0  0  0
 18 24  1  0  0  0  0
 18 17  1  0  0  0  0
 18 19  1  0  0  0  0
 19 22  1  0  0  0  0
 19 23  1  0  0  0  0
 25 24  1  0  0  0  0
 26 25  2  0  0  0  0
 27 28  1  0  0  0  0
 27 25  1  0  0  0  0
 29 27  1  0  0  0  0
M  END
>  <minimizedAffinity>
-4.69382095

$$$$

 OpenBabel03272507203D

 29 31  0  0  1  0  0  0  0  0999 V2000
   40.1400   23.2240   36.2850 C   0  0  0  0  0  0  0  0  0  0  0  0
   39.6460   22.9050   37.5380 C   0  0  0  0  0  0  0  0  0  0  0  0
   38.4650   23.6010   37.8930 C   0  0  0  0  0  0  0  0  0  0  0  0
   37.8960   24.5020   37.0370 N   0  0  0  0  0  0  0  0  0  0  0  0
   38.4370   24.7680   35.8170 C   0  0  0  0  0  0  0  0  0  0  0  0
   39.5700   24.1230   35.4360 N   0  0  0  0  0  0  0  0  0  0  0  0
   40.1210   22.1880   38.1890 H   0  0  0  0  0  0  0  0  0  0  0  0
   38.0280   23.3940   38.8630 H   0  0  0  0  0  0  0  0  0  0  0  0
   37.8240   25.7330   34.9060 C   0  0  0  0  0  0  0  0  0  0  0  0
   37.5710   27.0120   35.3910 C   0  0  0  0  0  0  0  0  0  0  0  0
   37.7950   27.3420   36.3960 H   0  0  0  0  0  0  0  0  0  0  0  0
   36.9830   27.8730   34.4540 C   0  0  0  0  0  0  0  0  0  0  0  0
   36.7700   28.8750   34.7920 H   0  0  0  0  0  0  0  0  0  0  0  0
   36.6780   27.5000   33.1610 C   0  0  0  0  0  3  0  0  0  0  0  0
   36.9580   26.2140   32.7490 C   0  0  0  0  0  3  0  0  0  0  0  0
   37.5230   25.3780   33.6410 N   0  0  0  0  0  0  0  0  0  0  0  0
   41.3730   22.4850   35.8720 C   0  0  1  0  0  0  0  0  0  0  0  0
   42.4220   23.1170   35.0750 C   0  0  2  0  0  0  0  0  0  0  0  0
   42.6370   23.0460   36.5560 C   0  0  0  0  0  0  0  0  0  0  0  0
   41.2770   21.3760   35.9670 H   0  0  0  0  0  0  0  0  0  0  0  0
   42.9190   22.3950   34.3680 H   0  0  0  0  0  0  0  0  0  0  0  0
   43.3860   22.2810   36.8570 H   0  0  0  0  0  0  0  0  0  0  0  0
   42.5510   23.9540   37.1700 H   0  0  0  0  0  0  0  0  0  0  0  0
   42.1250   24.3470   34.5000 O   0  0  0  0  0  0  0  0  0  0  0  0
   42.6870   25.5610   34.7180 C   0  0  0  0  0  0  0  0  0  0  0  0
   43.9240   25.7270   34.7500 O   0  0  0  0  0  0  0  0  0  0  0  0
   41.6630   26.4940   34.8850 N   0  0  0  0  0  0  0  0  0  0  0  0
   40.9950   26.9310   34.1840 H   0  0  0  0  0  0  0  0  0  0  0  0
   41.4540   26.8800   35.8430 H   0  0  0  0  0  0  0  0  0  0  0  0
  1  2  1  0  0  0  0
  2  3  2  0  0  0  0
  2  7  1  0  0  0  0
  3  8  1  0  0  0  0
  4  3  1  0  0  0  0
  5  4  2  0  0  0  0
  6  5  1  0  0  0  0
  6  1  2  0  0  0  0
  9 10  1  0  0  0  0
  9  5  1  0  0  0  0
 10 11  1  0  0  0  0
 12 13  1  0  0  0  0
 12 10  2  0  0  0  0
 14 12  1  0  0  0  0
 15 14  2  0  0  0  0
 15 16  1  0  0  0  0
 16  9  2  0  0  0  0
 17 20  1  6  0  0  0
 17  1  1  0  0  0  0
 17 19  1  0  0  0  0
 18 21  1  6  0  0  0
 18 17  1  0  0  0  0
 18 19  1  0  0  0  0
 19 22  1  0  0  0  0
 19 23  1  0  0  0  0
 24 25  1  0  0  0  0
 24 18  1  0  0  0  0
 25 26  2  0  0  0  0
 25 27  1  0  0  0  0
 27 29  1  0  0  0  0
 28 27  1  0  0  0  0
M  END
>  <minimizedAffinity>
-4.68168449

$$$$

 OpenBabel03272507203D

 29 31  0  0  1  0  0  0  0  0999 V2000
   36.4060   21.1440   33.4600 C   0  0  0  0  0  0  0  0  0  0  0  0
   35.4930   20.7510   34.4220 C   0  0  0  0  0  0  0  0  0  0  0  0
   35.9080   20.9960   35.7540 C   0  0  0  0  0  0  0  0  0  0  0  0
   37.1180   21.5750   36.0170 N   0  0  0  0  0  0  0  0  0  0  0  0
   37.9690   21.9370   35.0190 C   0  0  0  0  0  0  0  0  0  0  0  0
   37.6100   21.7200   33.7280 N   0  0  0  0  0  0  0  0  0  0  0  0
   34.5450   20.2960   34.1790 H   0  0  0  0  0  0  0  0  0  0  0  0
   35.2350   20.7100   36.5540 H   0  0  0  0  0  0  0  0  0  0  0  0
   39.2620   22.5550   35.3070 C   0  0  0  0  0  0  0  0  0  0  0  0
   39.6720   23.6080   34.4960 C   0  0  0  0  0  0  0  0  0  0  0  0
   39.1010   24.0010   33.6660 H   0  0  0  0  0  0  0  0  0  0  0  0
   40.9210   24.1420   34.8400 C   0  0  0  0  0  0  0  0  0  0  0  0
   41.2760   24.9610   34.2350 H   0  0  0  0  0  0  0  0  0  0  0  0
   41.6880   23.6760   35.8890 C   0  0  0  0  0  3  0  0  0  0  0  0
   41.2170   22.6280   36.6510 C   0  0  0  0  0  3  0  0  0  0  0  0
   40.0170   22.1060   36.3290 N   0  0  0  0  0  0  0  0  0  0  0  0
   35.9830   20.9220   32.0420 C   0  0  1  0  0  0  0  0  0  0  0  0
   35.7300   22.0340   31.1280 C   0  0  2  0  0  0  0  0  0  0  0  0
   37.0690   21.3680   31.0410 C   0  0  0  0  0  0  0  0  0  0  0  0
   35.6060   19.8880   31.8500 H   0  0  0  0  0  0  0  0  0  0  0  0
   34.9050   21.8080   30.3950 H   0  0  0  0  0  0  0  0  0  0  0  0
   37.1800   20.7140   30.1470 H   0  0  0  0  0  0  0  0  0  0  0  0
   37.9650   21.8790   31.4200 H   0  0  0  0  0  0  0  0  0  0  0  0
   35.6490   23.3040   31.6850 O   0  0  0  0  0  0  0  0  0  0  0  0
   35.5860   24.5130   31.0750 C   0  0  0  0  0  0  0  0  0  0  0  0
   34.5240   25.1620   30.9880 O   0  0  0  0  0  0  0  0  0  0  0  0
   36.8610   24.8340   30.6060 N   0  0  0  0  0  0  0  0  0  0  0  0
   37.7380   25.1420   31.1230 H   0  0  0  0  0  0  0  0  0  0  0  0
   37.0710   24.7870   29.5750 H   0  0  0  0  0  0  0  0  0  0  0  0
  1  6  2  0  0  0  0
  1  2  1  0  0  0  0
  2  3  2  0  0  0  0
  3  4  1  0  0  0  0
  3  8  1  0  0  0  0
  5  9  1  0  0  0  0
  5  4  2  0  0  0  0
  6  5  1  0  0  0  0
  7  2  1  0  0  0  0
  9 16  1  0  0  0  0
 10 12  1  0  0  0  0
 10  9  2  0  0  0  0
 11 10  1  0  0  0  0
 12 14  2  0  0  0  0
 13 12  1  0  0  0  0
 14 15  1  0  0  0  0
 16 15  2  0  0  0  0
 17 20  1  6  0  0  0
 17  1  1  0  0  0  0
 18 21  1  6  0  0  0
 18 24  1  0  0  0  0
 18 17  1  0  0  0  0
 19 18  1  0  0  0  0
 19 23  1  0  0  0  0
 19 17  1  0  0  0  0
 22 19  1  0  0  0  0
 25 24  1  0  0  0  0
 26 25  2  0  0  0  0
 27 25  1  0  0  0  0
 27 28  1  0  0  0  0
 29 27  1  0  0  0  0
M  END
>  <minimizedAffinity>
-4.66672802

$$$$

 OpenBabel03272507203D

 29 31  0  0  1  0  0  0  0  0999 V2000
   37.5480   24.5760   32.8300 C   0  0  0  0  0  0  0  0  0  0  0  0
   36.7410   25.5050   32.1960 C   0  0  0  0  0  0  0  0  0  0  0  0
   35.7000   24.9400   31.4210 C   0  0  0  0  0  0  0  0  0  0  0  0
   35.5430   23.5840   31.3360 N   0  0  0  0  0  0  0  0  0  0  0  0
   36.3750   22.7270   31.9880 C   0  0  0  0  0  0  0  0  0  0  0  0
   37.3870   23.2270   32.7420 N   0  0  0  0  0  0  0  0  0  0  0  0
   36.8930   26.5700   32.2840 H   0  0  0  0  0  0  0  0  0  0  0  0
   35.0340   25.6160   30.8990 H   0  0  0  0  0  0  0  0  0  0  0  0
   36.2030   21.2780   31.8930 C   0  0  0  0  0  0  0  0  0  0  0  0
   35.0140   20.7350   32.3700 C   0  0  0  0  0  0  0  0  0  0  0  0
   34.2090   21.3090   32.8060 H   0  0  0  0  0  0  0  0  0  0  0  0
   34.9320   19.3420   32.2420 C   0  0  0  0  0  0  0  0  0  0  0  0
   34.0240   18.8810   32.6010 H   0  0  0  0  0  0  0  0  0  0  0  0
   35.9310   18.5640   31.6930 C   0  0  0  0  0  3  0  0  0  0  0  0
   37.0820   19.1730   31.2410 C   0  0  0  0  0  3  0  0  0  0  0  0
   37.1740   20.5120   31.3590 N   0  0  0  0  0  0  0  0  0  0  0  0
   38.6410   25.1450   33.6780 C   0  0  1  0  0  0  0  0  0  0  0  0
   38.8810   24.6810   35.0430 C   0  0  2  0  0  0  0  0  0  0  0  0
   39.7470   24.1070   33.9630 C   0  0  0  0  0  0  0  0  0  0  0  0
   39.0370   26.1160   33.2950 H   0  0  0  0  0  0  0  0  0  0  0  0
   39.2420   25.5050   35.7200 H   0  0  0  0  0  0  0  0  0  0  0  0
   40.7820   24.5150   33.9660 H   0  0  0  0  0  0  0  0  0  0  0  0
   39.6010   23.0700   33.6320 H   0  0  0  0  0  0  0  0  0  0  0  0
   37.9050   23.8750   35.6170 O   0  0  0  0  0  0  0  0  0  0  0  0
   38.0100   22.9830   36.6330 C   0  0  0  0  0  0  0  0  0  0  0  0
   38.7770   23.1610   37.6010 O   0  0  0  0  0  0  0  0  0  0  0  0
   37.1450   21.9190   36.3720 N   0  0  0  0  0  0  0  0  0  0  0  0
   36.0860   21.8510   36.4240 H   0  0  0  0  0  0  0  0  0  0  0  0
   37.5320   20.9880   36.0660 H   0  0  0  0  0  0  0  0  0  0  0  0
  1 17  1  0  0  0  0
  2  7  1  0  0  0  0
  2  1  2  0  0  0  0
  3  2  1  0  0  0  0
  4  3  2  0  0  0  0
  4  5  1  0  0  0  0
  5  6  2  0  0  0  0
  6  1  1  0  0  0  0
  8  3  1  0  0  0  0
  9  5  1  0  0  0  0
  9 10  1  0  0  0  0
 10 11  1  0  0  0  0
 12 10  2  0  0  0  0
 12 13  1  0  0  0  0
 14 12  1  0  0  0  0
 15 16  1  0  0  0  0
 15 14  2  0  0  0  0
 16  9  2  0  0  0  0
 17 20  1  6  0  0  0
 17 19  1  0  0  0  0
 17 18  1  0  0  0  0
 18 24  1  0  0  0  0
 18 21  1  1  0  0  0
 19 22  1  0  0  0  0
 19 18  1  0  0  0  0
 23 19  1  0  0  0  0
 24 25  1  0  0  0  0
 25 26  2  0  0  0  0
 27 28  1  0  0  0  0
 27 25  1  0  0  0  0
 29 27  1  0  0  0  0
M  END
>  <minimizedAffinity>
-4.61348772

$$$$
