
 OpenBabel03272510163D

 27 29  0  0  0  0  0  0  0  0999 V2000
   37.2410   29.5350   51.2530 Br  0  0  0  0  0  0  0  0  0  0  0  0
   35.9900   29.3620   49.8140 C   0  0  0  0  0  0  0  0  0  0  0  0
   36.0640   30.1900   48.7070 C   0  0  0  0  0  0  0  0  0  0  0  0
   35.1200   30.0000   47.7100 C   0  0  0  0  0  0  0  0  0  0  0  0
   34.1370   29.0440   47.7760 C   0  0  0  0  0  0  0  0  0  0  0  0
   34.0930   28.2430   48.8880 C   0  0  0  0  0  0  0  0  0  0  0  0
   35.0190   28.4100   49.8940 C   0  0  0  0  0  0  0  0  0  0  0  0
   35.2110   30.6660   46.8590 H   0  0  0  0  0  0  0  0  0  0  0  0
   33.3270   27.4840   48.9610 H   0  0  0  0  0  0  0  0  0  0  0  0
   34.9470   27.7480   50.7630 H   0  0  0  0  0  0  0  0  0  0  0  0
   37.9760   33.2020   49.4220 C   0  0  0  0  0  0  0  0  0  0  0  0
   39.0180   33.1930   48.4710 C   0  0  0  0  0  0  0  0  0  0  0  0
   39.0430   32.1220   47.5770 C   0  0  0  0  0  0  0  0  0  0  0  0
   38.0790   31.1630   47.6720 N   0  0  0  0  0  0  0  0  0  0  0  0
   37.0940   31.2130   48.6050 C   0  0  0  0  0  0  0  0  0  0  0  0
   37.0450   32.2430   49.4880 N   0  0  0  0  0  0  0  0  0  0  0  0
   37.9600   34.0460   50.1250 H   0  0  0  0  0  0  0  0  0  0  0  0
   39.7430   34.0000   48.4700 H   0  0  0  0  0  0  0  0  0  0  0  0
   39.8140   32.0820   46.8460 H   0  0  0  0  0  0  0  0  0  0  0  0
   33.2080   28.9490   46.6600 C   0  0  0  0  0  0  0  0  0  0  0  0
   33.5630   29.1610   45.3450 C   0  0  0  0  0  0  0  0  0  0  0  0
   34.5680   29.4100   45.1060 H   0  0  0  0  0  0  0  0  0  0  0  0
   32.6630   29.0650   44.2980 C   0  0  0  0  0  0  0  0  0  0  0  0
   33.0020   29.2430   43.2920 H   0  0  0  0  0  0  0  0  0  0  0  0
   31.3530   28.7400   44.6170 C   0  0  0  0  0  3  0  0  0  0  0  0
   31.0010   28.5280   45.9390 C   0  0  0  0  0  3  0  0  0  0  0  0
   31.9340   28.6390   46.9050 N   0  0  0  0  0  0  0  0  0  0  0  0
  2  7  1  0  0  0  0
  2  1  1  0  0  0  0
  3  2  2  0  0  0  0
  4  5  2  0  0  0  0
  4  3  1  0  0  0  0
  5  6  1  0  0  0  0
  6  9  1  0  0  0  0
  6  7  2  0  0  0  0
  7 10  1  0  0  0  0
  8  4  1  0  0  0  0
 11 16  1  0  0  0  0
 11 17  1  0  0  0  0
 12 11  2  0  0  0  0
 13 14  2  0  0  0  0
 13 12  1  0  0  0  0
 14 15  1  0  0  0  0
 15  3  1  0  0  0  0
 15 16  2  0  0  0  0
 18 12  1  0  0  0  0
 19 13  1  0  0  0  0
 20 27  1  0  0  0  0
 20  5  1  0  0  0  0
 21 20  2  0  0  0  0
 22 21  1  0  0  0  0
 23 25  2  0  0  0  0
 23 21  1  0  0  0  0
 24 23  1  0  0  0  0
 25 26  1  0  0  0  0
 26 27  2  0  0  0  0
M  END
>  <minimizedAffinity>
-5.85642958

>  <minimizedRMSD>
0.343227565

$$$$
