
 OpenBabel03272507453D

 32 34  0  0  0  0  0  0  0  0999 V2000
   33.5560   30.2820   45.3740 N   0  0  0  0  0  0  0  0  0  0  0  0
   33.2640   29.9340   46.7300 C   0  0  0  0  0  0  0  0  0  0  0  0
   34.3250   30.0990   47.7250 C   0  0  0  0  0  0  0  0  0  0  0  0
   35.7240   30.0050   47.2730 C   0  0  0  0  0  0  0  0  0  0  0  0
   35.9360   30.3600   45.8170 C   0  0  0  0  0  0  0  0  0  0  0  0
   34.8290   29.6930   45.0020 C   0  0  0  0  0  0  0  0  0  0  0  0
   32.3610   30.5240   47.0410 H   0  0  0  0  0  0  0  0  0  0  0  0
   32.8990   28.8820   46.7080 H   0  0  0  0  0  0  0  0  0  0  0  0
   34.1850   29.3520   48.5460 H   0  0  0  0  0  0  0  0  0  0  0  0
   34.1930   31.1020   48.2240 H   0  0  0  0  0  0  0  0  0  0  0  0
   36.1140   28.9600   47.3940 H   0  0  0  0  0  0  0  0  0  0  0  0
   36.9090   29.9560   45.5080 H   0  0  0  0  0  0  0  0  0  0  0  0
   35.9160   31.4530   45.6310 H   0  0  0  0  0  0  0  0  0  0  0  0
   35.0070   29.7820   43.9200 H   0  0  0  0  0  0  0  0  0  0  0  0
   34.8690   28.5910   45.2300 H   0  0  0  0  0  0  0  0  0  0  0  0
   32.7360   31.0780   44.5130 C   0  0  0  0  0  0  0  0  0  0  0  0
   32.8630   31.1380   43.1230 C   0  0  0  0  0  0  0  0  0  0  0  0
   31.9800   31.9670   42.4350 C   0  0  0  0  0  0  0  0  0  0  0  0
   31.0520   32.6700   43.1370 N   0  0  0  0  0  0  0  0  0  0  0  0
   30.9730   32.5750   44.4770 C   0  0  0  0  0  0  0  0  0  0  0  0
   31.8110   31.7850   45.1530 N   0  0  0  0  0  0  0  0  0  0  0  0
   33.6490   30.5180   42.7400 H   0  0  0  0  0  0  0  0  0  0  0  0
   32.1210   31.9770   41.3650 H   0  0  0  0  0  0  0  0  0  0  0  0
   30.2000   33.1800   44.8870 H   0  0  0  0  0  0  0  0  0  0  0  0
   36.6190   30.9180   48.0430 C   0  0  0  0  0  0  0  0  0  0  0  0
   36.3440   31.0910   49.3810 C   0  0  0  0  0  0  0  0  0  0  0  0
   35.5150   30.5980   49.8860 H   0  0  0  0  0  0  0  0  0  0  0  0
   37.1730   31.9360   50.0910 C   0  0  0  0  0  0  0  0  0  0  0  0
   37.0300   32.1290   51.1490 H   0  0  0  0  0  0  0  0  0  0  0  0
   38.2090   32.5330   49.3980 C   0  0  0  0  0  0  0  0  0  0  0  0
   38.4800   32.3550   48.0570 C   0  0  0  0  0  0  0  0  0  0  0  0
   37.6410   31.5210   47.4070 N   0  0  0  0  0  0  0  0  0  0  0  0
  1  2  1  0  0  0  0
  2  7  1  0  0  0  0
  2  3  1  0  0  0  0
  3 10  1  0  0  0  0
  3  9  1  0  0  0  0
  4 11  1  0  0  0  0
  4  3  1  0  0  0  0
  4 25  1  0  0  0  0
  5  4  1  0  0  0  0
  6 15  1  0  0  0  0
  6  1  1  0  0  0  0
  6  5  1  0  0  0  0
  8  2  1  0  0  0  0
 12  5  1  0  0  0  0
 13  5  1  0  0  0  0
 14  6  1  0  0  0  0
 16 21  1  0  0  0  0
 16  1  1  0  0  0  0
 17 16  2  0  0  0  0
 18 17  1  0  0  0  0
 18 19  2  0  0  0  0
 19 20  1  0  0  0  0
 20 24  1  0  0  0  0
 20 21  2  0  0  0  0
 22 17  1  0  0  0  0
 23 18  1  0  0  0  0
 25 26  1  0  0  0  0
 26 27  1  0  0  0  0
 26 28  2  0  0  0  0
 28 29  1  0  0  0  0
 30 28  1  0  0  0  0
 31 30  2  0  0  0  0
 32 25  2  0  0  0  0
 32 31  1  0  0  0  0
M  END
>  <minimizedAffinity>
-4.7000742

>  <minimizedRMSD>
4.69003439

$$$$
