
 OpenBabel03272510163D

 27 29  0  0  0  0  0  0  0  0999 V2000
   37.4390   29.1920   50.8570 Br  0  0  0  0  0  0  0  0  0  0  0  0
   36.0250   29.2740   49.5700 C   0  0  0  0  0  0  0  0  0  0  0  0
   36.0050   30.2610   48.5990 C   0  0  0  0  0  0  0  0  0  0  0  0
   34.9460   30.2500   47.7060 C   0  0  0  0  0  0  0  0  0  0  0  0
   33.9370   29.3180   47.7450 C   0  0  0  0  0  0  0  0  0  0  0  0
   33.9880   28.3570   48.7210 C   0  0  0  0  0  0  0  0  0  0  0  0
   35.0300   28.3450   49.6220 C   0  0  0  0  0  0  0  0  0  0  0  0
   34.9670   31.0370   46.9610 H   0  0  0  0  0  0  0  0  0  0  0  0
   33.2050   27.6140   48.7710 H   0  0  0  0  0  0  0  0  0  0  0  0
   35.0310   27.5580   50.3830 H   0  0  0  0  0  0  0  0  0  0  0  0
   38.0090   33.1820   49.4320 C   0  0  0  0  0  0  0  0  0  0  0  0
   39.0300   33.1990   48.4590 C   0  0  0  0  0  0  0  0  0  0  0  0
   39.0080   32.1770   47.5080 C   0  0  0  0  0  0  0  0  0  0  0  0
   38.0230   31.2390   47.5730 N   0  0  0  0  0  0  0  0  0  0  0  0
   37.0590   31.2620   48.5290 C   0  0  0  0  0  0  0  0  0  0  0  0
   37.0550   32.2440   49.4670 N   0  0  0  0  0  0  0  0  0  0  0  0
   38.0290   33.9870   50.1790 H   0  0  0  0  0  0  0  0  0  0  0  0
   39.7750   33.9860   48.4840 H   0  0  0  0  0  0  0  0  0  0  0  0
   39.7630   32.1590   46.7600 H   0  0  0  0  0  0  0  0  0  0  0  0
   32.8840   29.4190   46.7480 C   0  0  0  0  0  0  0  0  0  0  0  0
   32.0620   28.3690   46.3880 C   0  0  0  0  0  0  0  0  0  0  0  0
   32.1870   27.4220   46.8540 H   0  0  0  0  0  0  0  0  0  0  0  0
   31.0640   28.4860   45.4360 C   0  0  0  0  0  0  0  0  0  0  0  0
   30.4570   27.6300   45.2000 H   0  0  0  0  0  0  0  0  0  0  0  0
   30.9080   29.7250   44.8340 C   0  0  0  0  0  3  0  0  0  0  0  0
   31.7340   30.7750   45.1960 C   0  0  0  0  0  3  0  0  0  0  0  0
   32.6850   30.5850   46.1340 N   0  0  0  0  0  0  0  0  0  0  0  0
  2  7  1  0  0  0  0
  2  1  1  0  0  0  0
  3  2  2  0  0  0  0
  4  5  2  0  0  0  0
  4  3  1  0  0  0  0
  5  6  1  0  0  0  0
  6  9  1  0  0  0  0
  6  7  2  0  0  0  0
  7 10  1  0  0  0  0
  8  4  1  0  0  0  0
 11 16  1  0  0  0  0
 11 17  1  0  0  0  0
 12 18  1  0  0  0  0
 12 11  2  0  0  0  0
 13 14  2  0  0  0  0
 13 12  1  0  0  0  0
 14 15  1  0  0  0  0
 15  3  1  0  0  0  0
 15 16  2  0  0  0  0
 19 13  1  0  0  0  0
 20  5  1  0  0  0  0
 21 20  1  0  0  0  0
 21 22  1  0  0  0  0
 23 21  2  0  0  0  0
 24 23  1  0  0  0  0
 25 26  2  0  0  0  0
 25 23  1  0  0  0  0
 26 27  1  0  0  0  0
 27 20  2  0  0  0  0
M  END
>  <minimizedAffinity>
-5.88844109

>  <minimizedRMSD>
0.67870307

$$$$
