
 OpenBabel03272507453D

 32 34  0  0  0  0  0  0  0  0999 V2000
   37.9660   26.8160   32.9780 N   0  0  0  0  0  0  0  0  0  0  0  0
   37.7280   25.4260   32.7380 C   0  0  0  0  0  0  0  0  0  0  0  0
   38.1480   24.4700   33.7640 C   0  0  0  0  0  0  0  0  0  0  0  0
   39.2760   24.8380   34.6390 C   0  0  0  0  0  0  0  0  0  0  0  0
   39.4730   26.3290   34.8110 C   0  0  0  0  0  0  0  0  0  0  0  0
   39.3320   26.9860   33.4380 C   0  0  0  0  0  0  0  0  0  0  0  0
   36.6310   25.3020   32.5360 H   0  0  0  0  0  0  0  0  0  0  0  0
   38.2060   25.1940   31.7590 H   0  0  0  0  0  0  0  0  0  0  0  0
   38.4010   23.4930   33.2820 H   0  0  0  0  0  0  0  0  0  0  0  0
   37.2630   24.2430   34.4250 H   0  0  0  0  0  0  0  0  0  0  0  0
   40.2450   24.4450   34.2290 H   0  0  0  0  0  0  0  0  0  0  0  0
   40.4900   26.4940   35.1900 H   0  0  0  0  0  0  0  0  0  0  0  0
   38.7420   26.7840   35.5090 H   0  0  0  0  0  0  0  0  0  0  0  0
   39.6130   28.0490   33.4630 H   0  0  0  0  0  0  0  0  0  0  0  0
   40.0740   26.4870   32.7550 H   0  0  0  0  0  0  0  0  0  0  0  0
   37.0220   27.8750   32.7970 C   0  0  0  0  0  0  0  0  0  0  0  0
   36.2230   28.4120   33.8100 C   0  0  0  0  0  0  0  0  0  0  0  0
   35.3540   29.4430   33.4620 C   0  0  0  0  0  0  0  0  0  0  0  0
   35.3230   29.8710   32.1720 N   0  0  0  0  0  0  0  0  0  0  0  0
   36.1150   29.3190   31.2340 C   0  0  0  0  0  0  0  0  0  0  0  0
   36.9540   28.3290   31.5510 N   0  0  0  0  0  0  0  0  0  0  0  0
   36.3800   27.9510   34.7650 H   0  0  0  0  0  0  0  0  0  0  0  0
   34.7610   29.8210   34.2800 H   0  0  0  0  0  0  0  0  0  0  0  0
   35.9820   29.7560   30.2740 H   0  0  0  0  0  0  0  0  0  0  0  0
   39.1100   24.2930   36.0170 C   0  0  0  0  0  0  0  0  0  0  0  0
   38.0920   24.8150   36.7850 C   0  0  0  0  0  0  0  0  0  0  0  0
   37.4200   25.5930   36.4290 H   0  0  0  0  0  0  0  0  0  0  0  0
   37.9420   24.3080   38.0600 C   0  0  0  0  0  0  0  0  0  0  0  0
   37.1660   24.6610   38.7320 H   0  0  0  0  0  0  0  0  0  0  0  0
   38.8240   23.3210   38.4560 C   0  0  0  0  0  3  0  0  0  0  0  0
   39.8410   22.8020   37.6820 C   0  0  0  0  0  3  0  0  0  0  0  0
   39.9480   23.3300   36.4450 N   0  0  0  0  0  0  0  0  0  0  0  0
  1  6  1  0  0  0  0
  2  1  1  0  0  0  0
  2  3  1  0  0  0  0
  3 10  1  0  0  0  0
  3  4  1  0  0  0  0
  4  5  1  0  0  0  0
  4 25  1  0  0  0  0
  5 12  1  0  0  0  0
  5 13  1  0  0  0  0
  6 14  1  0  0  0  0
  6  5  1  0  0  0  0
  7  2  1  0  0  0  0
  8  2  1  0  0  0  0
  9  3  1  0  0  0  0
 11  4  1  0  0  0  0
 15  6  1  0  0  0  0
 16  1  1  0  0  0  0
 16 17  1  0  0  0  0
 17 22  1  0  0  0  0
 18 17  2  0  0  0  0
 18 23  1  0  0  0  0
 19 18  1  0  0  0  0
 20 21  1  0  0  0  0
 20 19  2  0  0  0  0
 21 16  2  0  0  0  0
 24 20  1  0  0  0  0
 25 32  2  0  0  0  0
 25 26  1  0  0  0  0
 26 28  2  0  0  0  0
 27 26  1  0  0  0  0
 28 30  1  0  0  0  0
 28 29  1  0  0  0  0
 31 30  2  0  0  0  0
 32 31  1  0  0  0  0
M  END
>  <minimizedAffinity>
-5.12209463

$$$$

 OpenBabel03272507453D

 32 34  0  0  0  0  0  0  0  0999 V2000
   39.0580   24.8390   34.8220 N   0  0  0  0  0  0  0  0  0  0  0  0
   39.9450   25.8800   34.4030 C   0  0  0  0  0  0  0  0  0  0  0  0
   39.4020   26.9500   33.5640 C   0  0  0  0  0  0  0  0  0  0  0  0
   38.2430   26.6410   32.7070 C   0  0  0  0  0  0  0  0  0  0  0  0
   37.3780   25.5060   33.2090 C   0  0  0  0  0  0  0  0  0  0  0  0
   38.2990   24.3790   33.6740 C   0  0  0  0  0  0  0  0  0  0  0  0
   40.4030   26.3230   35.3280 H   0  0  0  0  0  0  0  0  0  0  0  0
   40.8000   25.3750   33.9000 H   0  0  0  0  0  0  0  0  0  0  0  0
   40.2110   27.3530   32.9050 H   0  0  0  0  0  0  0  0  0  0  0  0
   39.1150   27.8140   34.2300 H   0  0  0  0  0  0  0  0  0  0  0  0
   38.5760   26.3410   31.6780 H   0  0  0  0  0  0  0  0  0  0  0  0
   36.7640   25.1520   32.3710 H   0  0  0  0  0  0  0  0  0  0  0  0
   36.7170   25.8050   34.0490 H   0  0  0  0  0  0  0  0  0  0  0  0
   37.7380   23.4630   33.9100 H   0  0  0  0  0  0  0  0  0  0  0  0
   38.9650   24.1170   32.8040 H   0  0  0  0  0  0  0  0  0  0  0  0
   38.9290   24.3260   36.1510 C   0  0  0  0  0  0  0  0  0  0  0  0
   37.9780   24.7510   37.0810 C   0  0  0  0  0  0  0  0  0  0  0  0
   37.9910   24.1440   38.3350 C   0  0  0  0  0  0  0  0  0  0  0  0
   38.9170   23.1820   38.5910 N   0  0  0  0  0  0  0  0  0  0  0  0
   39.8130   22.8090   37.6580 C   0  0  0  0  0  0  0  0  0  0  0  0
   39.8140   23.3810   36.4510 N   0  0  0  0  0  0  0  0  0  0  0  0
   37.3290   25.5180   36.7070 H   0  0  0  0  0  0  0  0  0  0  0  0
   37.2370   24.5090   39.0150 H   0  0  0  0  0  0  0  0  0  0  0  0
   40.4710   22.0480   38.0010 H   0  0  0  0  0  0  0  0  0  0  0  0
   37.3290   27.8120   32.5670 C   0  0  0  0  0  0  0  0  0  0  0  0
   36.5590   28.1460   33.6590 C   0  0  0  0  0  0  0  0  0  0  0  0
   36.5910   27.5980   34.5980 H   0  0  0  0  0  0  0  0  0  0  0  0
   35.7140   29.2300   33.5260 C   0  0  0  0  0  0  0  0  0  0  0  0
   35.0720   29.5620   34.3350 H   0  0  0  0  0  0  0  0  0  0  0  0
   35.7160   29.8860   32.3100 C   0  0  0  0  0  3  0  0  0  0  0  0
   36.4910   29.5480   31.2200 C   0  0  0  0  0  3  0  0  0  0  0  0
   37.2980   28.4820   31.3990 N   0  0  0  0  0  0  0  0  0  0  0  0
  1 16  1  0  0  0  0
  2  1  1  0  0  0  0
  2  7  1  0  0  0  0
  3 10  1  0  0  0  0
  3  2  1  0  0  0  0
  4  5  1  0  0  0  0
  4  3  1  0  0  0  0
  5  6  1  0  0  0  0
  5 13  1  0  0  0  0
  6 14  1  0  0  0  0
  6  1  1  0  0  0  0
  8  2  1  0  0  0  0
  9  3  1  0  0  0  0
 11  4  1  0  0  0  0
 12  5  1  0  0  0  0
 15  6  1  0  0  0  0
 16 21  2  0  0  0  0
 16 17  1  0  0  0  0
 17 18  2  0  0  0  0
 18 19  1  0  0  0  0
 18 23  1  0  0  0  0
 20 24  1  0  0  0  0
 20 19  2  0  0  0  0
 21 20  1  0  0  0  0
 22 17  1  0  0  0  0
 25  4  1  0  0  0  0
 25 26  1  0  0  0  0
 26 27  1  0  0  0  0
 28 26  2  0  0  0  0
 28 29  1  0  0  0  0
 30 28  1  0  0  0  0
 31 32  1  0  0  0  0
 31 30  2  0  0  0  0
 32 25  2  0  0  0  0
M  END
>  <minimizedAffinity>
-5.04096699

$$$$

 OpenBabel03272507453D

 32 34  0  0  0  0  0  0  0  0999 V2000
   37.5810   25.4520   32.2520 N   0  0  0  0  0  0  0  0  0  0  0  0
   36.2120   25.4130   31.8380 C   0  0  0  0  0  0  0  0  0  0  0  0
   35.6540   24.1210   31.4330 C   0  0  0  0  0  0  0  0  0  0  0  0
   36.5730   23.1080   30.8840 C   0  0  0  0  0  0  0  0  0  0  0  0
   38.0060   23.2440   31.3500 C   0  0  0  0  0  0  0  0  0  0  0  0
   38.3850   24.7240   31.2870 C   0  0  0  0  0  0  0  0  0  0  0  0
   35.5970   25.8430   32.6720 H   0  0  0  0  0  0  0  0  0  0  0  0
   36.1140   26.1630   31.0210 H   0  0  0  0  0  0  0  0  0  0  0  0
   34.8440   24.2860   30.6790 H   0  0  0  0  0  0  0  0  0  0  0  0
   35.1310   23.6640   32.3210 H   0  0  0  0  0  0  0  0  0  0  0  0
   36.6070   23.1650   29.7630 H   0  0  0  0  0  0  0  0  0  0  0  0
   38.6430   22.6770   30.6580 H   0  0  0  0  0  0  0  0  0  0  0  0
   38.1630   22.8730   32.3830 H   0  0  0  0  0  0  0  0  0  0  0  0
   39.4580   24.8800   31.4660 H   0  0  0  0  0  0  0  0  0  0  0  0
   38.1950   25.0690   30.2320 H   0  0  0  0  0  0  0  0  0  0  0  0
   38.0890   26.1010   33.4220 C   0  0  0  0  0  0  0  0  0  0  0  0
   39.4220   26.0620   33.8390 C   0  0  0  0  0  0  0  0  0  0  0  0
   39.7480   26.7500   35.0050 C   0  0  0  0  0  0  0  0  0  0  0  0
   38.7690   27.4150   35.6740 N   0  0  0  0  0  0  0  0  0  0  0  0
   37.4990   27.4200   35.2270 C   0  0  0  0  0  0  0  0  0  0  0  0
   37.1690   26.7660   34.1110 N   0  0  0  0  0  0  0  0  0  0  0  0
   40.0550   25.4900   33.1900 H   0  0  0  0  0  0  0  0  0  0  0  0
   40.7890   26.6880   35.2820 H   0  0  0  0  0  0  0  0  0  0  0  0
   36.8460   27.9810   35.8520 H   0  0  0  0  0  0  0  0  0  0  0  0
   36.1590   21.7240   31.2580 C   0  0  0  0  0  0  0  0  0  0  0  0
   35.2600   21.5910   32.2920 C   0  0  0  0  0  0  0  0  0  0  0  0
   34.8500   22.4400   32.8350 H   0  0  0  0  0  0  0  0  0  0  0  0
   34.8790   20.3080   32.6350 C   0  0  0  0  0  0  0  0  0  0  0  0
   34.1750   20.1120   33.4370 H   0  0  0  0  0  0  0  0  0  0  0  0
   35.4330   19.2710   31.9100 C   0  0  0  0  0  3  0  0  0  0  0  0
   36.3330   19.4100   30.8740 C   0  0  0  0  0  3  0  0  0  0  0  0
   36.6740   20.6820   30.5780 N   0  0  0  0  0  0  0  0  0  0  0  0
  1 16  1  0  0  0  0
  2  1  1  0  0  0  0
  2  7  1  0  0  0  0
  3  2  1  0  0  0  0
  3 10  1  0  0  0  0
  4 25  1  0  0  0  0
  4  5  1  0  0  0  0
  4  3  1  0  0  0  0
  5 13  1  0  0  0  0
  6  5  1  0  0  0  0
  6 14  1  0  0  0  0
  6  1  1  0  0  0  0
  8  2  1  0  0  0  0
  9  3  1  0  0  0  0
 11  4  1  0  0  0  0
 12  5  1  0  0  0  0
 15  6  1  0  0  0  0
 16 17  2  0  0  0  0
 16 21  1  0  0  0  0
 17 18  1  0  0  0  0
 18 23  1  0  0  0  0
 18 19  2  0  0  0  0
 20 19  1  0  0  0  0
 20 24  1  0  0  0  0
 21 20  2  0  0  0  0
 22 17  1  0  0  0  0
 25 26  1  0  0  0  0
 26 28  2  0  0  0  0
 26 27  1  0  0  0  0
 28 29  1  0  0  0  0
 30 28  1  0  0  0  0
 31 30  2  0  0  0  0
 32 31  1  0  0  0  0
 32 25  2  0  0  0  0
M  END
>  <minimizedAffinity>
-4.86488008

$$$$

 OpenBabel03272507453D

 32 34  0  0  0  0  0  0  0  0999 V2000
   36.7780   23.1080   31.0230 N   0  0  0  0  0  0  0  0  0  0  0  0
   38.1640   23.4120   30.8370 C   0  0  0  0  0  0  0  0  0  0  0  0
   38.7250   24.5400   31.5820 C   0  0  0  0  0  0  0  0  0  0  0  0
   37.8210   25.6390   31.9680 C   0  0  0  0  0  0  0  0  0  0  0  0
   36.3700   25.2340   32.1110 C   0  0  0  0  0  0  0  0  0  0  0  0
   36.0110   24.3360   30.9280 C   0  0  0  0  0  0  0  0  0  0  0  0
   38.7460   22.4810   31.0700 H   0  0  0  0  0  0  0  0  0  0  0  0
   38.3070   23.5480   29.7420 H   0  0  0  0  0  0  0  0  0  0  0  0
   39.5700   24.9880   31.0010 H   0  0  0  0  0  0  0  0  0  0  0  0
   39.2030   24.1440   32.5240 H   0  0  0  0  0  0  0  0  0  0  0  0
   37.8370   26.4580   31.2010 H   0  0  0  0  0  0  0  0  0  0  0  0
   35.7590   26.1450   32.0740 H   0  0  0  0  0  0  0  0  0  0  0  0
   36.1640   24.6890   33.0550 H   0  0  0  0  0  0  0  0  0  0  0  0
   34.9320   24.1270   30.8850 H   0  0  0  0  0  0  0  0  0  0  0  0
   36.2510   24.9120   29.9910 H   0  0  0  0  0  0  0  0  0  0  0  0
   36.2260   21.8100   31.2650 C   0  0  0  0  0  0  0  0  0  0  0  0
   35.1210   21.5530   32.0800 C   0  0  0  0  0  0  0  0  0  0  0  0
   34.7120   20.2280   32.2060 C   0  0  0  0  0  0  0  0  0  0  0  0
   35.3990   19.2600   31.5420 N   0  0  0  0  0  0  0  0  0  0  0  0
   36.4580   19.5630   30.7690 C   0  0  0  0  0  0  0  0  0  0  0  0
   36.8630   20.8280   30.6370 N   0  0  0  0  0  0  0  0  0  0  0  0
   34.7050   22.4360   32.5240 H   0  0  0  0  0  0  0  0  0  0  0  0
   33.8550   20.0850   32.8460 H   0  0  0  0  0  0  0  0  0  0  0  0
   36.8930   18.7050   30.3130 H   0  0  0  0  0  0  0  0  0  0  0  0
   38.2020   26.2360   33.2810 C   0  0  0  0  0  0  0  0  0  0  0  0
   37.2370   26.9510   33.9540 C   0  0  0  0  0  0  0  0  0  0  0  0
   36.2280   27.0930   33.5710 H   0  0  0  0  0  0  0  0  0  0  0  0
   37.5930   27.5030   35.1690 C   0  0  0  0  0  0  0  0  0  0  0  0
   36.8940   28.0800   35.7660 H   0  0  0  0  0  0  0  0  0  0  0  0
   38.8860   27.2890   35.6040 C   0  0  0  0  0  3  0  0  0  0  0  0
   39.8490   26.5710   34.9260 C   0  0  0  0  0  3  0  0  0  0  0  0
   39.4530   26.0530   33.7440 N   0  0  0  0  0  0  0  0  0  0  0  0
  1 16  1  0  0  0  0
  2  1  1  0  0  0  0
  2  7  1  0  0  0  0
  2  3  1  0  0  0  0
  3  4  1  0  0  0  0
  3 10  1  0  0  0  0
  4  5  1  0  0  0  0
  4 25  1  0  0  0  0
  5 13  1  0  0  0  0
  6  1  1  0  0  0  0
  6  5  1  0  0  0  0
  8  2  1  0  0  0  0
  9  3  1  0  0  0  0
 11  4  1  0  0  0  0
 12  5  1  0  0  0  0
 14  6  1  0  0  0  0
 15  6  1  0  0  0  0
 16 17  1  0  0  0  0
 17 18  2  0  0  0  0
 17 22  1  0  0  0  0
 18 23  1  0  0  0  0
 19 18  1  0  0  0  0
 20 19  2  0  0  0  0
 21 20  1  0  0  0  0
 21 16  2  0  0  0  0
 24 20  1  0  0  0  0
 25 32  2  0  0  0  0
 25 26  1  0  0  0  0
 26 28  2  0  0  0  0
 27 26  1  0  0  0  0
 28 30  1  0  0  0  0
 28 29  1  0  0  0  0
 31 30  2  0  0  0  0
 32 31  1  0  0  0  0
M  END
>  <minimizedAffinity>
-4.83642197

$$$$

 OpenBabel03272507453D

 32 34  0  0  0  0  0  0  0  0999 V2000
   36.4030   26.4710   31.7720 N   0  0  0  0  0  0  0  0  0  0  0  0
   35.4300   25.8580   30.9210 C   0  0  0  0  0  0  0  0  0  0  0  0
   35.3270   24.3970   30.9370 C   0  0  0  0  0  0  0  0  0  0  0  0
   36.5280   23.6190   31.2890 C   0  0  0  0  0  0  0  0  0  0  0  0
   37.5180   24.3570   32.1640 C   0  0  0  0  0  0  0  0  0  0  0  0
   37.6670   25.7760   31.6170 C   0  0  0  0  0  0  0  0  0  0  0  0
   34.4330   26.3070   31.1730 H   0  0  0  0  0  0  0  0  0  0  0  0
   35.6380   26.2310   29.8930 H   0  0  0  0  0  0  0  0  0  0  0  0
   34.9740   24.0380   29.9380 H   0  0  0  0  0  0  0  0  0  0  0  0
   34.5080   24.1050   31.6550 H   0  0  0  0  0  0  0  0  0  0  0  0
   37.0960   23.3210   30.3670 H   0  0  0  0  0  0  0  0  0  0  0  0
   38.4830   23.8380   32.0960 H   0  0  0  0  0  0  0  0  0  0  0  0
   37.2020   24.4090   33.2260 H   0  0  0  0  0  0  0  0  0  0  0  0
   38.4840   26.3220   32.1120 H   0  0  0  0  0  0  0  0  0  0  0  0
   37.9690   25.6830   30.5360 H   0  0  0  0  0  0  0  0  0  0  0  0
   36.1800   27.5880   32.6380 C   0  0  0  0  0  0  0  0  0  0  0  0
   36.7080   27.7170   33.9240 C   0  0  0  0  0  0  0  0  0  0  0  0
   36.3910   28.8720   34.6340 C   0  0  0  0  0  0  0  0  0  0  0  0
   35.5920   29.8060   34.0520 N   0  0  0  0  0  0  0  0  0  0  0  0
   35.1090   29.6320   32.8070 C   0  0  0  0  0  0  0  0  0  0  0  0
   35.4040   28.5300   32.1130 N   0  0  0  0  0  0  0  0  0  0  0  0
   37.3160   26.8850   34.2200 H   0  0  0  0  0  0  0  0  0  0  0  0
   36.8250   28.9220   35.6210 H   0  0  0  0  0  0  0  0  0  0  0  0
   34.5020   30.4430   32.4850 H   0  0  0  0  0  0  0  0  0  0  0  0
   36.1840   22.3730   32.0340 C   0  0  0  0  0  0  0  0  0  0  0  0
   35.2700   21.5220   31.4540 C   0  0  0  0  0  0  0  0  0  0  0  0
   34.7990   21.7220   30.4930 H   0  0  0  0  0  0  0  0  0  0  0  0
   34.9530   20.3700   32.1460 C   0  0  0  0  0  0  0  0  0  0  0  0
   34.2430   19.6440   31.7620 H   0  0  0  0  0  0  0  0  0  0  0  0
   35.5830   20.1700   33.3590 C   0  0  0  0  0  3  0  0  0  0  0  0
   36.4990   21.0260   33.9350 C   0  0  0  0  0  3  0  0  0  0  0  0
   36.7740   22.1370   33.2210 N   0  0  0  0  0  0  0  0  0  0  0  0
  1 16  1  0  0  0  0
  2  3  1  0  0  0  0
  2  7  1  0  0  0  0
  2  1  1  0  0  0  0
  3  4  1  0  0  0  0
  3 10  1  0  0  0  0
  4 25  1  0  0  0  0
  4  5  1  0  0  0  0
  5 13  1  0  0  0  0
  6  1  1  0  0  0  0
  6 14  1  0  0  0  0
  6  5  1  0  0  0  0
  8  2  1  0  0  0  0
  9  3  1  0  0  0  0
 11  4  1  0  0  0  0
 12  5  1  0  0  0  0
 15  6  1  0  0  0  0
 16 17  1  0  0  0  0
 17 22  1  0  0  0  0
 17 18  2  0  0  0  0
 18 23  1  0  0  0  0
 19 18  1  0  0  0  0
 20 19  2  0  0  0  0
 21 16  2  0  0  0  0
 21 20  1  0  0  0  0
 24 20  1  0  0  0  0
 25 32  1  0  0  0  0
 26 25  2  0  0  0  0
 26 28  1  0  0  0  0
 27 26  1  0  0  0  0
 28 30  2  0  0  0  0
 29 28  1  0  0  0  0
 30 31  1  0  0  0  0
 32 31  2  0  0  0  0
M  END
>  <minimizedAffinity>
-4.70567131

$$$$

 OpenBabel03272507453D

 32 34  0  0  0  0  0  0  0  0999 V2000
   38.2450   26.8880   33.2040 N   0  0  0  0  0  0  0  0  0  0  0  0
   38.1790   27.5170   34.4870 C   0  0  0  0  0  0  0  0  0  0  0  0
   38.2600   26.6650   35.6750 C   0  0  0  0  0  0  0  0  0  0  0  0
   37.7990   25.2700   35.5640 C   0  0  0  0  0  0  0  0  0  0  0  0
   37.8750   24.6950   34.1660 C   0  0  0  0  0  0  0  0  0  0  0  0
   37.3460   25.7490   33.1920 C   0  0  0  0  0  0  0  0  0  0  0  0
   38.9900   28.2920   34.5230 H   0  0  0  0  0  0  0  0  0  0  0  0
   37.2400   28.1160   34.4900 H   0  0  0  0  0  0  0  0  0  0  0  0
   37.6940   27.1410   36.5140 H   0  0  0  0  0  0  0  0  0  0  0  0
   39.3320   26.6450   36.0260 H   0  0  0  0  0  0  0  0  0  0  0  0
   36.7250   25.1780   35.8760 H   0  0  0  0  0  0  0  0  0  0  0  0
   37.2280   23.8090   34.1280 H   0  0  0  0  0  0  0  0  0  0  0  0
   38.9050   24.4120   33.8690 H   0  0  0  0  0  0  0  0  0  0  0  0
   37.2300   25.3450   32.1760 H   0  0  0  0  0  0  0  0  0  0  0  0
   36.3100   26.0240   33.5350 H   0  0  0  0  0  0  0  0  0  0  0  0
   39.0600   27.3030   32.1030 C   0  0  0  0  0  0  0  0  0  0  0  0
   38.5710   27.8010   30.8930 C   0  0  0  0  0  0  0  0  0  0  0  0
   39.5050   28.1600   29.9240 C   0  0  0  0  0  0  0  0  0  0  0  0
   40.8280   28.0090   30.1960 N   0  0  0  0  0  0  0  0  0  0  0  0
   41.2460   27.5230   31.3800 C   0  0  0  0  0  0  0  0  0  0  0  0
   40.3640   27.1740   32.3200 N   0  0  0  0  0  0  0  0  0  0  0  0
   37.5010   27.8510   30.8540 H   0  0  0  0  0  0  0  0  0  0  0  0
   39.0750   28.5390   29.0100 H   0  0  0  0  0  0  0  0  0  0  0  0
   42.3060   27.4620   31.4480 H   0  0  0  0  0  0  0  0  0  0  0  0
   38.6030   24.3500   36.4200 C   0  0  0  0  0  0  0  0  0  0  0  0
   38.1610   24.1370   37.7070 C   0  0  0  0  0  0  0  0  0  0  0  0
   37.2670   24.6060   38.1130 H   0  0  0  0  0  0  0  0  0  0  0  0
   38.9070   23.2850   38.4970 C   0  0  0  0  0  0  0  0  0  0  0  0
   38.6320   23.0610   39.5220 H   0  0  0  0  0  0  0  0  0  0  0  0
   40.0310   22.7180   37.9270 C   0  0  0  0  0  3  0  0  0  0  0  0
   40.4680   22.9350   36.6360 C   0  0  0  0  0  3  0  0  0  0  0  0
   39.7070   23.7750   35.9060 N   0  0  0  0  0  0  0  0  0  0  0  0
  1  2  1  0  0  0  0
  2  8  1  0  0  0  0
  2  7  1  0  0  0  0
  2  3  1  0  0  0  0
  3 10  1  0  0  0  0
  3  9  1  0  0  0  0
  4  3  1  0  0  0  0
  4 11  1  0  0  0  0
  4 25  1  0  0  0  0
  5  4  1  0  0  0  0
  6  1  1  0  0  0  0
  6 15  1  0  0  0  0
  6  5  1  0  0  0  0
 12  5  1  0  0  0  0
 13  5  1  0  0  0  0
 14  6  1  0  0  0  0
 16 21  1  0  0  0  0
 16  1  1  0  0  0  0
 17 16  2  0  0  0  0
 18 19  2  0  0  0  0
 18 17  1  0  0  0  0
 19 20  1  0  0  0  0
 20 24  1  0  0  0  0
 20 21  2  0  0  0  0
 22 17  1  0  0  0  0
 23 18  1  0  0  0  0
 25 26  1  0  0  0  0
 26 27  1  0  0  0  0
 26 28  2  0  0  0  0
 28 29  1  0  0  0  0
 30 28  1  0  0  0  0
 31 30  2  0  0  0  0
 32 25  2  0  0  0  0
 32 31  1  0  0  0  0
M  END
>  <minimizedAffinity>
-4.59317923

$$$$

 OpenBabel03272507453D

 32 34  0  0  0  0  0  0  0  0999 V2000
   37.0800   23.1810   32.0130 N   0  0  0  0  0  0  0  0  0  0  0  0
   38.0620   23.7840   32.8610 C   0  0  0  0  0  0  0  0  0  0  0  0
   37.9710   25.2250   33.1000 C   0  0  0  0  0  0  0  0  0  0  0  0
   37.3420   26.0640   32.0640 C   0  0  0  0  0  0  0  0  0  0  0  0
   36.3410   25.3370   31.1930 C   0  0  0  0  0  0  0  0  0  0  0  0
   36.9400   23.9830   30.8120 C   0  0  0  0  0  0  0  0  0  0  0  0
   38.0390   23.2380   33.8420 H   0  0  0  0  0  0  0  0  0  0  0  0
   39.0520   23.5130   32.4300 H   0  0  0  0  0  0  0  0  0  0  0  0
   38.9940   25.6360   33.2910 H   0  0  0  0  0  0  0  0  0  0  0  0
   37.4090   25.3930   34.0630 H   0  0  0  0  0  0  0  0  0  0  0  0
   38.1150   26.4790   31.3620 H   0  0  0  0  0  0  0  0  0  0  0  0
   36.1860   25.9330   30.2840 H   0  0  0  0  0  0  0  0  0  0  0  0
   35.3670   25.1740   31.6970 H   0  0  0  0  0  0  0  0  0  0  0  0
   36.3320   23.4650   30.0570 H   0  0  0  0  0  0  0  0  0  0  0  0
   37.9330   24.1870   30.3220 H   0  0  0  0  0  0  0  0  0  0  0  0
   36.3490   21.9830   32.2910 C   0  0  0  0  0  0  0  0  0  0  0  0
   35.5810   21.2830   31.3570 C   0  0  0  0  0  0  0  0  0  0  0  0
   34.9310   20.1320   31.7950 C   0  0  0  0  0  0  0  0  0  0  0  0
   35.0710   19.7490   33.0920 N   0  0  0  0  0  0  0  0  0  0  0  0
   35.8240   20.4610   33.9520 C   0  0  0  0  0  0  0  0  0  0  0  0
   36.4540   21.5670   33.5480 N   0  0  0  0  0  0  0  0  0  0  0  0
   35.5840   21.7300   30.3820 H   0  0  0  0  0  0  0  0  0  0  0  0
   34.3530   19.6300   31.0350 H   0  0  0  0  0  0  0  0  0  0  0  0
   35.8400   20.0410   34.9290 H   0  0  0  0  0  0  0  0  0  0  0  0
   36.5990   27.2140   32.6560 C   0  0  0  0  0  0  0  0  0  0  0  0
   36.9150   27.5730   33.9470 C   0  0  0  0  0  0  0  0  0  0  0  0
   37.6700   27.0580   34.5390 H   0  0  0  0  0  0  0  0  0  0  0  0
   36.2250   28.6370   34.4930 C   0  0  0  0  0  0  0  0  0  0  0  0
   36.4110   28.9870   35.5030 H   0  0  0  0  0  0  0  0  0  0  0  0
   35.2800   29.2520   33.6950 C   0  0  0  0  0  3  0  0  0  0  0  0
   34.9680   28.8880   32.4010 C   0  0  0  0  0  3  0  0  0  0  0  0
   35.6680   27.8430   31.9140 N   0  0  0  0  0  0  0  0  0  0  0  0
  1 16  1  0  0  0  0
  1  2  1  0  0  0  0
  2  3  1  0  0  0  0
  2  7  1  0  0  0  0
  3  9  1  0  0  0  0
  3 10  1  0  0  0  0
  4 25  1  0  0  0  0
  4  3  1  0  0  0  0
  5 13  1  0  0  0  0
  5  4  1  0  0  0  0
  6  5  1  0  0  0  0
  6  1  1  0  0  0  0
  8  2  1  0  0  0  0
 11  4  1  0  0  0  0
 12  5  1  0  0  0  0
 14  6  1  0  0  0  0
 15  6  1  0  0  0  0
 16 21  1  0  0  0  0
 17 18  1  0  0  0  0
 17 16  2  0  0  0  0
 18 19  2  0  0  0  0
 19 20  1  0  0  0  0
 20 24  1  0  0  0  0
 21 20  2  0  0  0  0
 22 17  1  0  0  0  0
 23 18  1  0  0  0  0
 25 26  1  0  0  0  0
 26 28  2  0  0  0  0
 26 27  1  0  0  0  0
 28 29  1  0  0  0  0
 30 28  1  0  0  0  0
 31 30  2  0  0  0  0
 32 31  1  0  0  0  0
 32 25  2  0  0  0  0
M  END
>  <minimizedAffinity>
-4.58455372

$$$$

 OpenBabel03272507453D

 32 34  0  0  0  0  0  0  0  0999 V2000
   36.8330   26.6390   32.6060 N   0  0  0  0  0  0  0  0  0  0  0  0
   37.2070   27.1630   33.8830 C   0  0  0  0  0  0  0  0  0  0  0  0
   36.4370   28.2890   34.4160 C   0  0  0  0  0  0  0  0  0  0  0  0
   35.7820   29.1980   33.4600 C   0  0  0  0  0  0  0  0  0  0  0  0
   35.4510   28.5690   32.1240 C   0  0  0  0  0  0  0  0  0  0  0  0
   36.6570   27.7420   31.6790 C   0  0  0  0  0  0  0  0  0  0  0  0
   37.1850   26.3120   34.6150 H   0  0  0  0  0  0  0  0  0  0  0  0
   38.2880   27.4200   33.8080 H   0  0  0  0  0  0  0  0  0  0  0  0
   37.0930   28.9100   35.0760 H   0  0  0  0  0  0  0  0  0  0  0  0
   35.6400   27.8820   35.1030 H   0  0  0  0  0  0  0  0  0  0  0  0
   36.4390   30.0790   33.2300 H   0  0  0  0  0  0  0  0  0  0  0  0
   35.2790   29.3780   31.4020 H   0  0  0  0  0  0  0  0  0  0  0  0
   34.5560   27.9150   32.1630 H   0  0  0  0  0  0  0  0  0  0  0  0
   36.5460   27.3790   30.6470 H   0  0  0  0  0  0  0  0  0  0  0  0
   37.5460   28.4330   31.6690 H   0  0  0  0  0  0  0  0  0  0  0  0
   36.6590   25.2570   32.2810 C   0  0  0  0  0  0  0  0  0  0  0  0
   35.7150   24.7640   31.3770 C   0  0  0  0  0  0  0  0  0  0  0  0
   35.6790   23.3860   31.1760 C   0  0  0  0  0  0  0  0  0  0  0  0
   36.5500   22.5970   31.8600 N   0  0  0  0  0  0  0  0  0  0  0  0
   37.4410   23.1250   32.7210 C   0  0  0  0  0  0  0  0  0  0  0  0
   37.4890   24.4440   32.9250 N   0  0  0  0  0  0  0  0  0  0  0  0
   35.1120   25.5300   30.9300 H   0  0  0  0  0  0  0  0  0  0  0  0
   34.9330   23.0580   30.4680 H   0  0  0  0  0  0  0  0  0  0  0  0
   38.0540   22.3880   33.1800 H   0  0  0  0  0  0  0  0  0  0  0  0
   34.4890   29.7210   33.9880 C   0  0  0  0  0  0  0  0  0  0  0  0
   34.5470   30.5850   35.0600 C   0  0  0  0  0  0  0  0  0  0  0  0
   35.4810   30.8910   35.5250 H   0  0  0  0  0  0  0  0  0  0  0  0
   33.3480   31.0670   35.5470 C   0  0  0  0  0  0  0  0  0  0  0  0
   33.3010   31.7520   36.3870 H   0  0  0  0  0  0  0  0  0  0  0  0
   32.1940   30.6440   34.9160 C   0  0  0  0  0  3  0  0  0  0  0  0
   32.1420   29.7790   33.8420 C   0  0  0  0  0  3  0  0  0  0  0  0
   33.3390   29.3350   33.4040 N   0  0  0  0  0  0  0  0  0  0  0  0
  1  2  1  0  0  0  0
  2  3  1  0  0  0  0
  2  7  1  0  0  0  0
  3  9  1  0  0  0  0
  3 10  1  0  0  0  0
  4 25  1  0  0  0  0
  4  3  1  0  0  0  0
  5 13  1  0  0  0  0
  5  4  1  0  0  0  0
  6  5  1  0  0  0  0
  6  1  1  0  0  0  0
  8  2  1  0  0  0  0
 11  4  1  0  0  0  0
 12  5  1  0  0  0  0
 14  6  1  0  0  0  0
 15  6  1  0  0  0  0
 16  1  1  0  0  0  0
 16 21  1  0  0  0  0
 17 16  2  0  0  0  0
 18 17  1  0  0  0  0
 18 19  2  0  0  0  0
 19 20  1  0  0  0  0
 20 21  2  0  0  0  0
 20 24  1  0  0  0  0
 22 17  1  0  0  0  0
 23 18  1  0  0  0  0
 25 26  1  0  0  0  0
 26 27  1  0  0  0  0
 26 28  2  0  0  0  0
 28 29  1  0  0  0  0
 30 28  1  0  0  0  0
 31 30  2  0  0  0  0
 32 31  1  0  0  0  0
 32 25  2  0  0  0  0
M  END
>  <minimizedAffinity>
-4.57661247

$$$$

 OpenBabel03272507453D

 32 34  0  0  0  0  0  0  0  0999 V2000
   37.0820   27.3830   33.9350 N   0  0  0  0  0  0  0  0  0  0  0  0
   37.5940   27.6420   35.2450 C   0  0  0  0  0  0  0  0  0  0  0  0
   38.9420   27.1650   35.5620 C   0  0  0  0  0  0  0  0  0  0  0  0
   39.4510   25.9850   34.8410 C   0  0  0  0  0  0  0  0  0  0  0  0
   38.8310   25.7700   33.4770 C   0  0  0  0  0  0  0  0  0  0  0  0
   37.3240   25.9910   33.6020 C   0  0  0  0  0  0  0  0  0  0  0  0
   37.5380   28.7500   35.4160 H   0  0  0  0  0  0  0  0  0  0  0  0
   36.8470   27.2250   35.9570 H   0  0  0  0  0  0  0  0  0  0  0  0
   39.0120   26.9460   36.6570 H   0  0  0  0  0  0  0  0  0  0  0  0
   39.6690   28.0100   35.3910 H   0  0  0  0  0  0  0  0  0  0  0  0
   39.2500   25.0450   35.4210 H   0  0  0  0  0  0  0  0  0  0  0  0
   39.0220   24.7310   33.1780 H   0  0  0  0  0  0  0  0  0  0  0  0
   39.2350   26.4560   32.7050 H   0  0  0  0  0  0  0  0  0  0  0  0
   36.7900   25.7040   32.6840 H   0  0  0  0  0  0  0  0  0  0  0  0
   36.9530   25.2940   34.4050 H   0  0  0  0  0  0  0  0  0  0  0  0
   36.4350   28.3320   33.0810 C   0  0  0  0  0  0  0  0  0  0  0  0
   35.4870   29.2670   33.5030 C   0  0  0  0  0  0  0  0  0  0  0  0
   34.9540   30.1190   32.5390 C   0  0  0  0  0  0  0  0  0  0  0  0
   35.3740   30.0010   31.2510 N   0  0  0  0  0  0  0  0  0  0  0  0
   36.2920   29.0810   30.8980 C   0  0  0  0  0  0  0  0  0  0  0  0
   36.8120   28.2570   31.8100 N   0  0  0  0  0  0  0  0  0  0  0  0
   35.2770   29.2160   34.5530 H   0  0  0  0  0  0  0  0  0  0  0  0
   34.2280   30.8220   32.9170 H   0  0  0  0  0  0  0  0  0  0  0  0
   36.5210   29.1080   29.8600 H   0  0  0  0  0  0  0  0  0  0  0  0
   40.9210   26.0700   34.6050 C   0  0  0  0  0  0  0  0  0  0  0  0
   41.3800   27.1240   33.8470 C   0  0  0  0  0  0  0  0  0  0  0  0
   40.7220   27.8800   33.4220 H   0  0  0  0  0  0  0  0  0  0  0  0
   42.7410   27.2000   33.6300 C   0  0  0  0  0  0  0  0  0  0  0  0
   43.1880   27.9970   33.0450 H   0  0  0  0  0  0  0  0  0  0  0  0
   43.5260   26.2120   34.1940 C   0  0  0  0  0  3  0  0  0  0  0  0
   43.0610   25.1590   34.9540 C   0  0  0  0  0  3  0  0  0  0  0  0
   41.7240   25.1280   35.1360 N   0  0  0  0  0  0  0  0  0  0  0  0
  1  2  1  0  0  0  0
  2  7  1  0  0  0  0
  2  3  1  0  0  0  0
  2  8  1  0  0  0  0
  3  9  1  0  0  0  0
  4 11  1  0  0  0  0
  4  3  1  0  0  0  0
  5  6  1  0  0  0  0
  5  4  1  0  0  0  0
  6  1  1  0  0  0  0
  6 15  1  0  0  0  0
 10  3  1  0  0  0  0
 12  5  1  0  0  0  0
 13  5  1  0  0  0  0
 14  6  1  0  0  0  0
 16 17  1  0  0  0  0
 16  1  1  0  0  0  0
 17 22  1  0  0  0  0
 18 23  1  0  0  0  0
 18 17  2  0  0  0  0
 19 18  1  0  0  0  0
 20 19  2  0  0  0  0
 20 21  1  0  0  0  0
 21 16  2  0  0  0  0
 24 20  1  0  0  0  0
 25  4  1  0  0  0  0
 25 32  1  0  0  0  0
 26 25  2  0  0  0  0
 27 26  1  0  0  0  0
 28 26  1  0  0  0  0
 28 30  2  0  0  0  0
 29 28  1  0  0  0  0
 30 31  1  0  0  0  0
 31 32  2  0  0  0  0
M  END
>  <minimizedAffinity>
-4.53583479

$$$$
