
 OpenBabel03262521143D

 30 32  0  0  0  0  0  0  0  0999 V2000
   38.3740   26.3660   33.3360 O   0  0  0  0  0  0  0  0  0  0  0  0
   37.4670   25.4880   32.7090 C   0  0  0  0  0  0  0  0  0  0  0  0
   36.3150   25.7880   31.9960 C   0  0  0  0  0  0  0  0  0  0  0  0
   35.7850   24.6360   31.5930 N   0  0  0  0  0  0  0  0  0  0  0  0
   36.5440   23.6010   32.0150 C   0  0  0  0  0  0  0  0  0  0  0  0
   37.5820   24.1290   32.7040 N   0  0  0  0  0  0  0  0  0  0  0  0
   36.0430   26.8360   31.8840 H   0  0  0  0  0  0  0  0  0  0  0  0
   34.9010   24.6580   31.0330 H   0  0  0  0  0  0  0  0  0  0  0  0
   36.2450   22.1980   31.7440 C   0  0  0  0  0  0  0  0  0  0  0  0
   35.1370   21.6020   32.3000 C   0  0  0  0  0  0  0  0  0  0  0  0
   34.4590   22.1310   32.9440 H   0  0  0  0  0  0  0  0  0  0  0  0
   34.9600   20.2590   31.9670 C   0  0  0  0  0  0  0  0  0  0  0  0
   34.1050   19.7050   32.3640 H   0  0  0  0  0  0  0  0  0  0  0  0
   35.8410   19.5740   31.1310 C   0  0  0  0  0  3  0  0  0  0  0  0
   36.9380   20.2300   30.6020 C   0  0  0  0  0  3  0  0  0  0  0  0
   37.0870   21.5300   30.9400 N   0  0  0  0  0  0  0  0  0  0  0  0
   37.0160   27.9660   34.8340 O   0  0  0  0  0  0  0  0  0  0  0  0
   37.9980   26.8210   34.9310 P   0  0  2  0  0  0  0  0  0  0  0  0
   39.4050   27.2570   35.7780 O   0  0  0  0  0  0  0  0  0  0  0  0
   39.7970   28.0410   35.3220 H   0  0  0  0  0  0  0  0  0  0  0  0
   37.3200   25.4750   35.7500 O   0  0  0  0  0  0  0  0  0  0  0  0
   38.0980   24.6120   36.5130 C   0  0  0  0  0  0  0  0  0  0  0  0
   37.8600   24.2600   37.8500 C   0  0  0  0  0  0  0  0  0  0  0  0
   38.7480   23.3810   38.4560 C   0  0  0  0  0  0  0  0  0  0  0  0
   39.7980   22.8970   37.7550 N   0  0  0  0  0  0  0  0  0  0  0  0
   39.9990   23.2610   36.4550 C   0  0  0  0  0  0  0  0  0  0  0  0
   39.1460   24.1190   35.8390 N   0  0  0  0  0  0  0  0  0  0  0  0
   36.9830   24.7170   38.3010 H   0  0  0  0  0  0  0  0  0  0  0  0
   38.5360   23.1300   39.4870 H   0  0  0  0  0  0  0  0  0  0  0  0
   40.8630   22.8460   35.9170 H   0  0  0  0  0  0  0  0  0  0  0  0
  1 18  1  0  0  0  0
  2  1  1  0  0  0  0
  3  2  2  0  0  0  0
  4  3  1  0  0  0  0
  4  5  1  0  0  0  0
  5  6  2  0  0  0  0
  6  2  1  0  0  0  0
  7  3  1  0  0  0  0
  8  4  1  0  0  0  0
  9  5  1  0  0  0  0
  9 10  1  0  0  0  0
 10 11  1  0  0  0  0
 12 10  2  0  0  0  0
 12 13  1  0  0  0  0
 14 12  1  0  0  0  0
 15 16  1  0  0  0  0
 15 14  2  0  0  0  0
 16  9  2  0  0  0  0
 18 17  2  6  0  0  0
 18 21  1  0  0  0  0
 18 19  1  0  0  0  0
 20 19  1  0  0  0  0
 21 22  1  0  0  0  0
 22 23  1  0  0  0  0
 23 28  1  0  0  0  0
 23 24  2  0  0  0  0
 24 29  1  0  0  0  0
 25 24  1  0  0  0  0
 26 25  2  0  0  0  0
 27 26  1  0  0  0  0
 27 22  2  0  0  0  0
 30 26  1  0  0  0  0
M  END
>  <minimizedAffinity>
-5.57961559

$$$$

 OpenBabel03262521143D

 30 32  0  0  0  0  0  0  0  0999 V2000
   39.3010   24.8020   36.0210 O   0  0  0  0  0  0  0  0  0  0  0  0
   38.4920   23.6730   35.7870 C   0  0  0  0  0  0  0  0  0  0  0  0
   37.7850   22.9030   36.7000 C   0  0  0  0  0  0  0  0  0  0  0  0
   37.1670   21.9420   36.0180 N   0  0  0  0  0  0  0  0  0  0  0  0
   37.4420   22.0560   34.7000 C   0  0  0  0  0  0  0  0  0  0  0  0
   38.2610   23.1250   34.5600 N   0  0  0  0  0  0  0  0  0  0  0  0
   37.8400   23.1800   37.7510 H   0  0  0  0  0  0  0  0  0  0  0  0
   36.5770   21.2540   36.5410 H   0  0  0  0  0  0  0  0  0  0  0  0
   36.9230   21.1600   33.6710 C   0  0  0  0  0  0  0  0  0  0  0  0
   35.7080   20.5380   33.8380 C   0  0  0  0  0  0  0  0  0  0  0  0
   35.1010   20.6800   34.7140 H   0  0  0  0  0  0  0  0  0  0  0  0
   35.3200   19.7080   32.7870 C   0  0  0  0  0  0  0  0  0  0  0  0
   34.3680   19.1720   32.8340 H   0  0  0  0  0  0  0  0  0  0  0  0
   36.1080   19.5240   31.6500 C   0  0  0  0  0  3  0  0  0  0  0  0
   37.3220   20.1800   31.5410 C   0  0  0  0  0  3  0  0  0  0  0  0
   37.6730   20.9770   32.5740 N   0  0  0  0  0  0  0  0  0  0  0  0
   39.8580   26.3330   34.0240 O   0  0  0  0  0  0  0  0  0  0  0  0
   38.8840   26.2150   35.1730 P   0  0  2  0  0  0  0  0  0  0  0  0
   38.9380   27.5690   36.1980 O   0  0  0  0  0  0  0  0  0  0  0  0
   39.8700   27.6670   36.5130 H   0  0  0  0  0  0  0  0  0  0  0  0
   37.2660   26.0740   34.6180 O   0  0  0  0  0  0  0  0  0  0  0  0
   36.8790   26.5300   33.3630 C   0  0  0  0  0  0  0  0  0  0  0  0
   36.6970   27.8730   33.0000 C   0  0  0  0  0  0  0  0  0  0  0  0
   36.3050   28.1420   31.6950 C   0  0  0  0  0  0  0  0  0  0  0  0
   36.1120   27.1240   30.8270 N   0  0  0  0  0  0  0  0  0  0  0  0
   36.2980   25.8280   31.2150 C   0  0  0  0  0  0  0  0  0  0  0  0
   36.6820   25.5380   32.4850 N   0  0  0  0  0  0  0  0  0  0  0  0
   36.8830   28.5960   33.7880 H   0  0  0  0  0  0  0  0  0  0  0  0
   36.1730   29.1870   31.4470 H   0  0  0  0  0  0  0  0  0  0  0  0
   36.1330   25.0280   30.4820 H   0  0  0  0  0  0  0  0  0  0  0  0
  2  1  1  0  0  0  0
  2  3  2  0  0  0  0
  3  7  1  0  0  0  0
  4  8  1  0  0  0  0
  4  3  1  0  0  0  0
  5  4  1  0  0  0  0
  6  5  2  0  0  0  0
  6  2  1  0  0  0  0
  9 10  1  0  0  0  0
  9  5  1  0  0  0  0
 10 11  1  0  0  0  0
 12 13  1  0  0  0  0
 12 10  2  0  0  0  0
 14 12  1  0  0  0  0
 15 14  2  0  0  0  0
 15 16  1  0  0  0  0
 16  9  2  0  0  0  0
 18 17  2  6  0  0  0
 18  1  1  0  0  0  0
 18 19  1  0  0  0  0
 19 20  1  0  0  0  0
 21 18  1  0  0  0  0
 22 21  1  0  0  0  0
 23 22  1  0  0  0  0
 23 28  1  0  0  0  0
 24 23  2  0  0  0  0
 25 26  2  0  0  0  0
 25 24  1  0  0  0  0
 26 27  1  0  0  0  0
 27 22  2  0  0  0  0
 29 24  1  0  0  0  0
 30 26  1  0  0  0  0
M  END
>  <minimizedAffinity>
-5.31839657

$$$$

 OpenBabel03262521143D

 30 32  0  0  0  0  0  0  0  0999 V2000
   37.4250   24.7810   36.3650 O   0  0  0  0  0  0  0  0  0  0  0  0
   38.4020   23.9050   36.8770 C   0  0  0  0  0  0  0  0  0  0  0  0
   38.6030   23.4920   38.1870 C   0  0  0  0  0  0  0  0  0  0  0  0
   39.6450   22.6650   38.1880 N   0  0  0  0  0  0  0  0  0  0  0  0
   40.1300   22.5230   36.9360 C   0  0  0  0  0  0  0  0  0  0  0  0
   39.3610   23.2900   36.1280 N   0  0  0  0  0  0  0  0  0  0  0  0
   37.9310   23.8780   38.9510 H   0  0  0  0  0  0  0  0  0  0  0  0
   39.9520   22.2450   39.0970 H   0  0  0  0  0  0  0  0  0  0  0  0
   41.2720   21.6840   36.5860 C   0  0  0  0  0  0  0  0  0  0  0  0
   41.9410   20.9770   37.5570 C   0  0  0  0  0  0  0  0  0  0  0  0
   41.6590   21.0120   38.5940 H   0  0  0  0  0  0  0  0  0  0  0  0
   43.0140   20.2140   37.0980 C   0  0  0  0  0  0  0  0  0  0  0  0
   43.6030   19.6190   37.8020 H   0  0  0  0  0  0  0  0  0  0  0  0
   43.3790   20.1710   35.7530 C   0  0  0  0  0  3  0  0  0  0  0  0
   42.6650   20.9050   34.8220 C   0  0  0  0  0  3  0  0  0  0  0  0
   41.6310   21.6360   35.2930 N   0  0  0  0  0  0  0  0  0  0  0  0
   39.1370   26.6680   35.9760 O   0  0  0  0  0  0  0  0  0  0  0  0
   37.9770   25.9810   35.2940 P   0  0  2  0  0  0  0  0  0  0  0  0
   36.7270   27.0650   34.9110 O   0  0  0  0  0  0  0  0  0  0  0  0
   36.4510   27.5100   35.7490 H   0  0  0  0  0  0  0  0  0  0  0  0
   38.4580   25.2360   33.8250 O   0  0  0  0  0  0  0  0  0  0  0  0
   37.5460   24.5990   32.9920 C   0  0  0  0  0  0  0  0  0  0  0  0
   37.4410   23.2130   32.8000 C   0  0  0  0  0  0  0  0  0  0  0  0
   36.4650   22.7540   31.9250 C   0  0  0  0  0  0  0  0  0  0  0  0
   35.6590   23.6360   31.2930 N   0  0  0  0  0  0  0  0  0  0  0  0
   35.7900   24.9790   31.5030 C   0  0  0  0  0  0  0  0  0  0  0  0
   36.7360   25.4540   32.3540 N   0  0  0  0  0  0  0  0  0  0  0  0
   38.1460   22.6120   33.3660 H   0  0  0  0  0  0  0  0  0  0  0  0
   36.4100   21.6800   31.7990 H   0  0  0  0  0  0  0  0  0  0  0  0
   35.1170   25.6650   30.9720 H   0  0  0  0  0  0  0  0  0  0  0  0
  1  2  1  0  0  0  0
  2  3  2  0  0  0  0
  3  4  1  0  0  0  0
  3  7  1  0  0  0  0
  4  8  1  0  0  0  0
  5  4  1  0  0  0  0
  6  2  1  0  0  0  0
  6  5  2  0  0  0  0
  9  5  1  0  0  0  0
  9 10  1  0  0  0  0
 10 11  1  0  0  0  0
 12 10  2  0  0  0  0
 12 13  1  0  0  0  0
 14 12  1  0  0  0  0
 15 16  1  0  0  0  0
 15 14  2  0  0  0  0
 16  9  2  0  0  0  0
 18 17  2  1  0  0  0
 18  1  1  0  0  0  0
 19 18  1  0  0  0  0
 19 20  1  0  0  0  0
 21 18  1  0  0  0  0
 22 21  1  0  0  0  0
 23 22  1  0  0  0  0
 23 28  1  0  0  0  0
 24 23  2  0  0  0  0
 25 26  2  0  0  0  0
 25 24  1  0  0  0  0
 26 27  1  0  0  0  0
 27 22  2  0  0  0  0
 29 24  1  0  0  0  0
 30 26  1  0  0  0  0
M  END
>  <minimizedAffinity>
-5.18016434

$$$$

 OpenBabel03262521143D

 30 32  0  0  0  0  0  0  0  0999 V2000
   37.6670   25.5060   31.1890 O   0  0  0  0  0  0  0  0  0  0  0  0
   38.4220   25.3650   32.3700 C   0  0  0  0  0  0  0  0  0  0  0  0
   39.7060   25.8140   32.6430 C   0  0  0  0  0  0  0  0  0  0  0  0
   40.0010   25.4470   33.8870 N   0  0  0  0  0  0  0  0  0  0  0  0
   38.9630   24.7770   34.4340 C   0  0  0  0  0  0  0  0  0  0  0  0
   37.9890   24.7270   33.4950 N   0  0  0  0  0  0  0  0  0  0  0  0
   40.2330   26.3560   31.8600 H   0  0  0  0  0  0  0  0  0  0  0  0
   40.9390   25.6990   34.2770 H   0  0  0  0  0  0  0  0  0  0  0  0
   38.9560   24.2340   35.7890 C   0  0  0  0  0  0  0  0  0  0  0  0
   39.9130   23.3260   36.1800 C   0  0  0  0  0  0  0  0  0  0  0  0
   40.6890   22.9850   35.5200 H   0  0  0  0  0  0  0  0  0  0  0  0
   39.8000   22.8810   37.4970 C   0  0  0  0  0  0  0  0  0  0  0  0
   40.5180   22.1580   37.8940 H   0  0  0  0  0  0  0  0  0  0  0  0
   38.7920   23.3260   38.3520 C   0  0  0  0  0  3  0  0  0  0  0  0
   37.8590   24.2410   37.8990 C   0  0  0  0  0  3  0  0  0  0  0  0
   37.9900   24.6550   36.6190 N   0  0  0  0  0  0  0  0  0  0  0  0
   35.1450   25.9920   31.4100 O   0  0  0  0  0  0  0  0  0  0  0  0
   36.4610   26.7060   31.2060 P   0  0  2  0  0  0  0  0  0  0  0  0
   36.4860   27.6020   29.7630 O   0  0  0  0  0  0  0  0  0  0  0  0
   36.2860   26.9800   29.0220 H   0  0  0  0  0  0  0  0  0  0  0  0
   36.7880   27.8050   32.4820 O   0  0  0  0  0  0  0  0  0  0  0  0
   35.8650   28.7670   32.8770 C   0  0  0  0  0  0  0  0  0  0  0  0
   35.5210   29.0770   34.2010 C   0  0  0  0  0  0  0  0  0  0  0  0
   34.5740   30.0710   34.4070 C   0  0  0  0  0  0  0  0  0  0  0  0
   34.0190   30.7010   33.3470 N   0  0  0  0  0  0  0  0  0  0  0  0
   34.3780   30.3730   32.0720 C   0  0  0  0  0  0  0  0  0  0  0  0
   35.3020   29.4050   31.8430 N   0  0  0  0  0  0  0  0  0  0  0  0
   36.0380   28.4990   34.9620 H   0  0  0  0  0  0  0  0  0  0  0  0
   34.3310   30.2860   35.4400 H   0  0  0  0  0  0  0  0  0  0  0  0
   33.9060   30.9080   31.2360 H   0  0  0  0  0  0  0  0  0  0  0  0
  1 18  1  0  0  0  0
  1  2  1  0  0  0  0
  2  3  2  0  0  0  0
  2  6  1  0  0  0  0
  3  4  1  0  0  0  0
  4  8  1  0  0  0  0
  4  5  1  0  0  0  0
  5  9  1  0  0  0  0
  6  5  2  0  0  0  0
  7  3  1  0  0  0  0
  9 10  2  0  0  0  0
  9 16  1  0  0  0  0
 10 12  1  0  0  0  0
 11 10  1  0  0  0  0
 12 13  1  0  0  0  0
 12 14  2  0  0  0  0
 15 14  1  0  0  0  0
 16 15  2  0  0  0  0
 18 17  2  1  0  0  0
 18 21  1  0  0  0  0
 19 18  1  0  0  0  0
 20 19  1  0  0  0  0
 21 22  1  0  0  0  0
 22 23  1  0  0  0  0
 23 24  2  0  0  0  0
 23 28  1  0  0  0  0
 24 29  1  0  0  0  0
 25 24  1  0  0  0  0
 26 25  2  0  0  0  0
 27 26  1  0  0  0  0
 27 22  2  0  0  0  0
 30 26  1  0  0  0  0
M  END
>  <minimizedAffinity>
-5.02560425

$$$$

 OpenBabel03262521143D

 30 32  0  0  0  0  0  0  0  0999 V2000
   37.7760   25.0060   36.6550 O   0  0  0  0  0  0  0  0  0  0  0  0
   38.6520   23.9890   37.0830 C   0  0  0  0  0  0  0  0  0  0  0  0
   38.7330   23.3740   38.3240 C   0  0  0  0  0  0  0  0  0  0  0  0
   39.7120   22.4750   38.2600 N   0  0  0  0  0  0  0  0  0  0  0  0
   40.2700   22.4800   37.0310 C   0  0  0  0  0  0  0  0  0  0  0  0
   39.6140   23.4160   36.3050 N   0  0  0  0  0  0  0  0  0  0  0  0
   38.0390   23.6950   39.0990 H   0  0  0  0  0  0  0  0  0  0  0  0
   39.9260   21.9030   39.1110 H   0  0  0  0  0  0  0  0  0  0  0  0
   41.3720   21.6140   36.6230 C   0  0  0  0  0  0  0  0  0  0  0  0
   42.0490   20.8630   37.5550 C   0  0  0  0  0  0  0  0  0  0  0  0
   41.8020   20.8810   38.6020 H   0  0  0  0  0  0  0  0  0  0  0  0
   43.0810   20.0760   37.0440 C   0  0  0  0  0  0  0  0  0  0  0  0
   43.6730   19.4460   37.7140 H   0  0  0  0  0  0  0  0  0  0  0  0
   43.4000   20.0540   35.6860 C   0  0  0  0  0  3  0  0  0  0  0  0
   42.6810   20.8330   34.7970 C   0  0  0  0  0  3  0  0  0  0  0  0
   41.6870   21.5850   35.3190 N   0  0  0  0  0  0  0  0  0  0  0  0
   36.9740   26.6110   34.8040 O   0  0  0  0  0  0  0  0  0  0  0  0
   38.1690   25.7680   35.1870 P   0  0  2  0  0  0  0  0  0  0  0  0
   38.5470   24.6170   33.9950 O   0  0  0  0  0  0  0  0  0  0  0  0
   37.7410   24.0670   33.8460 H   0  0  0  0  0  0  0  0  0  0  0  0
   39.5720   26.7290   35.4160 O   0  0  0  0  0  0  0  0  0  0  0  0
   40.6930   26.5950   34.6060 C   0  0  0  0  0  0  0  0  0  0  0  0
   41.0210   27.4200   33.5190 C   0  0  0  0  0  0  0  0  0  0  0  0
   42.1860   27.1360   32.8190 C   0  0  0  0  0  0  0  0  0  0  0  0
   42.9580   26.0910   33.1950 N   0  0  0  0  0  0  0  0  0  0  0  0
   42.6080   25.3090   34.2580 C   0  0  0  0  0  0  0  0  0  0  0  0
   41.4740   25.5670   34.9590 N   0  0  0  0  0  0  0  0  0  0  0  0
   40.3190   28.2250   33.3190 H   0  0  0  0  0  0  0  0  0  0  0  0
   42.4100   27.7910   31.9870 H   0  0  0  0  0  0  0  0  0  0  0  0
   43.2610   24.4700   34.5340 H   0  0  0  0  0  0  0  0  0  0  0  0
  1  2  1  0  0  0  0
  2  3  2  0  0  0  0
  3  7  1  0  0  0  0
  4  3  1  0  0  0  0
  4  8  1  0  0  0  0
  5  4  1  0  0  0  0
  6  5  2  0  0  0  0
  6  2  1  0  0  0  0
  9  5  1  0  0  0  0
  9 10  1  0  0  0  0
 10 11  1  0  0  0  0
 12 10  2  0  0  0  0
 12 13  1  0  0  0  0
 14 12  1  0  0  0  0
 15 16  1  0  0  0  0
 15 14  2  0  0  0  0
 16  9  2  0  0  0  0
 18 17  2  6  0  0  0
 18 21  1  0  0  0  0
 18  1  1  0  0  0  0
 19 18  1  0  0  0  0
 20 19  1  0  0  0  0
 22 27  1  0  0  0  0
 22 21  1  0  0  0  0
 23 22  2  0  0  0  0
 24 25  2  0  0  0  0
 24 23  1  0  0  0  0
 25 26  1  0  0  0  0
 26 30  1  0  0  0  0
 26 27  2  0  0  0  0
 28 23  1  0  0  0  0
 29 24  1  0  0  0  0
M  END
>  <minimizedAffinity>
-4.99025059

$$$$

 OpenBabel03262521143D

 30 32  0  0  0  0  0  0  0  0999 V2000
   37.2540   25.9210   33.5320 O   0  0  0  0  0  0  0  0  0  0  0  0
   36.9160   26.5220   32.3030 C   0  0  0  0  0  0  0  0  0  0  0  0
   36.0520   26.0650   31.3180 C   0  0  0  0  0  0  0  0  0  0  0  0
   36.0500   26.9660   30.3400 N   0  0  0  0  0  0  0  0  0  0  0  0
   36.8770   27.9890   30.6470 C   0  0  0  0  0  0  0  0  0  0  0  0
   37.4110   27.7120   31.8600 N   0  0  0  0  0  0  0  0  0  0  0  0
   35.5480   25.1140   31.4840 H   0  0  0  0  0  0  0  0  0  0  0  0
   35.4510   26.7940   29.4990 H   0  0  0  0  0  0  0  0  0  0  0  0
   37.1080   29.1460   29.7880 C   0  0  0  0  0  0  0  0  0  0  0  0
   37.7820   29.0070   28.5970 C   0  0  0  0  0  0  0  0  0  0  0  0
   38.1610   28.0610   28.2550 H   0  0  0  0  0  0  0  0  0  0  0  0
   37.9400   30.1840   27.8670 C   0  0  0  0  0  0  0  0  0  0  0  0
   38.4640   30.1670   26.9070 H   0  0  0  0  0  0  0  0  0  0  0  0
   37.4480   31.4110   28.3120 C   0  0  0  0  0  3  0  0  0  0  0  0
   36.7770   31.4860   29.5200 C   0  0  0  0  0  3  0  0  0  0  0  0
   36.6390   30.3320   30.2080 N   0  0  0  0  0  0  0  0  0  0  0  0
   39.2220   26.9350   34.8540 O   0  0  0  0  0  0  0  0  0  0  0  0
   38.9150   25.8170   33.8850 P   0  0  2  0  0  0  0  0  0  0  0  0
   39.8390   25.9300   32.4640 O   0  0  0  0  0  0  0  0  0  0  0  0
   39.6680   26.8180   32.0680 H   0  0  0  0  0  0  0  0  0  0  0  0
   39.2410   24.2780   34.5720 O   0  0  0  0  0  0  0  0  0  0  0  0
   39.0100   24.0110   35.9160 C   0  0  0  0  0  0  0  0  0  0  0  0
   37.9270   24.4860   36.6710 C   0  0  0  0  0  0  0  0  0  0  0  0
   37.8570   24.1150   38.0080 C   0  0  0  0  0  0  0  0  0  0  0  0
   38.8170   23.3220   38.5360 N   0  0  0  0  0  0  0  0  0  0  0  0
   39.8570   22.8780   37.7710 C   0  0  0  0  0  0  0  0  0  0  0  0
   39.9480   23.2260   36.4620 N   0  0  0  0  0  0  0  0  0  0  0  0
   37.2240   25.1140   36.1310 H   0  0  0  0  0  0  0  0  0  0  0  0
   37.0100   24.4980   38.5610 H   0  0  0  0  0  0  0  0  0  0  0  0
   40.6180   22.2350   38.2350 H   0  0  0  0  0  0  0  0  0  0  0  0
  1 18  1  0  0  0  0
  2  1  1  0  0  0  0
  3  7  1  0  0  0  0
  3  2  2  0  0  0  0
  4  5  1  0  0  0  0
  4  3  1  0  0  0  0
  5  6  2  0  0  0  0
  6  2  1  0  0  0  0
  8  4  1  0  0  0  0
  9 16  1  0  0  0  0
  9  5  1  0  0  0  0
 10  9  2  0  0  0  0
 11 10  1  0  0  0  0
 12 14  2  0  0  0  0
 12 10  1  0  0  0  0
 13 12  1  0  0  0  0
 14 15  1  0  0  0  0
 15 16  2  0  0  0  0
 18 21  1  0  0  0  0
 18 17  2  1  0  0  0
 19 18  1  0  0  0  0
 20 19  1  0  0  0  0
 21 22  1  0  0  0  0
 22 27  2  0  0  0  0
 22 23  1  0  0  0  0
 23 24  2  0  0  0  0
 24 25  1  0  0  0  0
 24 29  1  0  0  0  0
 26 30  1  0  0  0  0
 26 25  2  0  0  0  0
 27 26  1  0  0  0  0
 28 23  1  0  0  0  0
M  END
>  <minimizedAffinity>
-4.98492098

$$$$

 OpenBabel03262521143D

 30 32  0  0  0  0  0  0  0  0999 V2000
   37.1140   26.1560   33.7540 O   0  0  0  0  0  0  0  0  0  0  0  0
   36.6950   27.4810   33.5210 C   0  0  0  0  0  0  0  0  0  0  0  0
   36.6240   28.1740   32.3210 C   0  0  0  0  0  0  0  0  0  0  0  0
   36.1710   29.3950   32.5920 N   0  0  0  0  0  0  0  0  0  0  0  0
   35.9440   29.5250   33.9170 C   0  0  0  0  0  0  0  0  0  0  0  0
   36.2690   28.3410   34.4890 N   0  0  0  0  0  0  0  0  0  0  0  0
   36.9270   27.6550   31.4130 H   0  0  0  0  0  0  0  0  0  0  0  0
   36.0490   30.0730   31.8040 H   0  0  0  0  0  0  0  0  0  0  0  0
   35.4430   30.7400   34.5520 C   0  0  0  0  0  0  0  0  0  0  0  0
   35.9270   31.1370   35.7760 C   0  0  0  0  0  0  0  0  0  0  0  0
   36.6780   30.5810   36.3080 H   0  0  0  0  0  0  0  0  0  0  0  0
   35.3700   32.3130   36.2780 C   0  0  0  0  0  0  0  0  0  0  0  0
   35.6960   32.7030   37.2470 H   0  0  0  0  0  0  0  0  0  0  0  0
   34.3950   33.0320   35.5870 C   0  0  0  0  0  3  0  0  0  0  0  0
   33.9500   32.5810   34.3580 C   0  0  0  0  0  3  0  0  0  0  0  0
   34.5050   31.4390   33.8950 N   0  0  0  0  0  0  0  0  0  0  0  0
   39.2540   26.9640   34.9420 O   0  0  0  0  0  0  0  0  0  0  0  0
   38.7870   25.9210   33.9540 P   0  0  2  0  0  0  0  0  0  0  0  0
   39.5930   26.0460   32.4630 O   0  0  0  0  0  0  0  0  0  0  0  0
   39.4530   26.9640   32.1250 H   0  0  0  0  0  0  0  0  0  0  0  0
   39.0600   24.3310   34.5370 O   0  0  0  0  0  0  0  0  0  0  0  0
   38.9390   24.0130   35.8840 C   0  0  0  0  0  0  0  0  0  0  0  0
   37.9250   24.4610   36.7440 C   0  0  0  0  0  0  0  0  0  0  0  0
   37.9650   24.0400   38.0670 C   0  0  0  0  0  0  0  0  0  0  0  0
   38.9600   23.2250   38.4830 N   0  0  0  0  0  0  0  0  0  0  0  0
   39.9310   22.8080   37.6190 C   0  0  0  0  0  0  0  0  0  0  0  0
   39.9150   23.2060   36.3200 N   0  0  0  0  0  0  0  0  0  0  0  0
   37.1830   25.1110   36.2880 H   0  0  0  0  0  0  0  0  0  0  0  0
   37.1680   24.4030   38.7030 H   0  0  0  0  0  0  0  0  0  0  0  0
   40.7240   22.1460   37.9930 H   0  0  0  0  0  0  0  0  0  0  0  0
  1 18  1  0  0  0  0
  2  1  1  0  0  0  0
  2  6  1  0  0  0  0
  3  4  1  0  0  0  0
  3  2  2  0  0  0  0
  4  5  1  0  0  0  0
  5  6  2  0  0  0  0
  5  9  1  0  0  0  0
  7  3  1  0  0  0  0
  8  4  1  0  0  0  0
  9 10  1  0  0  0  0
 10 12  2  0  0  0  0
 10 11  1  0  0  0  0
 12 13  1  0  0  0  0
 14 12  1  0  0  0  0
 15 14  2  0  0  0  0
 16 15  1  0  0  0  0
 16  9  2  0  0  0  0
 18 21  1  0  0  0  0
 18 17  2  1  0  0  0
 19 18  1  0  0  0  0
 20 19  1  0  0  0  0
 21 22  1  0  0  0  0
 22 27  2  0  0  0  0
 22 23  1  0  0  0  0
 23 24  2  0  0  0  0
 24 25  1  0  0  0  0
 24 29  1  0  0  0  0
 26 30  1  0  0  0  0
 26 25  2  0  0  0  0
 27 26  1  0  0  0  0
 28 23  1  0  0  0  0
M  END
>  <minimizedAffinity>
-4.97628546

$$$$

 OpenBabel03262521143D

 30 32  0  0  0  0  0  0  0  0999 V2000
   36.2880   22.4350   32.2290 O   0  0  0  0  0  0  0  0  0  0  0  0
   36.6890   23.6580   31.6550 C   0  0  0  0  0  0  0  0  0  0  0  0
   37.6000   23.8840   30.6330 C   0  0  0  0  0  0  0  0  0  0  0  0
   37.6540   25.1980   30.4300 N   0  0  0  0  0  0  0  0  0  0  0  0
   36.8160   25.8350   31.2770 C   0  0  0  0  0  0  0  0  0  0  0  0
   36.2210   24.8820   32.0320 N   0  0  0  0  0  0  0  0  0  0  0  0
   38.0930   23.0210   30.1900 H   0  0  0  0  0  0  0  0  0  0  0  0
   38.2940   25.5660   29.6890 H   0  0  0  0  0  0  0  0  0  0  0  0
   36.6320   27.2820   31.3190 C   0  0  0  0  0  0  0  0  0  0  0  0
   36.2550   27.9030   32.4870 C   0  0  0  0  0  0  0  0  0  0  0  0
   36.0820   27.3610   33.3990 H   0  0  0  0  0  0  0  0  0  0  0  0
   36.1120   29.2870   32.4000 C   0  0  0  0  0  0  0  0  0  0  0  0
   35.8150   29.8640   33.2810 H   0  0  0  0  0  0  0  0  0  0  0  0
   36.3370   29.9890   31.2150 C   0  0  0  0  0  3  0  0  0  0  0  0
   36.7150   29.3060   30.0730 C   0  0  0  0  0  3  0  0  0  0  0  0
   36.8460   27.9660   30.1840 N   0  0  0  0  0  0  0  0  0  0  0  0
   38.2050   20.8030   32.7780 O   0  0  0  0  0  0  0  0  0  0  0  0
   37.2970   21.8090   33.4460 P   0  0  2  0  0  0  0  0  0  0  0  0
   36.3750   21.1110   34.6900 O   0  0  0  0  0  0  0  0  0  0  0  0
   35.8670   20.3590   34.2990 H   0  0  0  0  0  0  0  0  0  0  0  0
   38.1880   23.0970   34.1470 O   0  0  0  0  0  0  0  0  0  0  0  0
   38.6320   23.0500   35.4630 C   0  0  0  0  0  0  0  0  0  0  0  0
   39.8800   22.5720   35.8900 C   0  0  0  0  0  0  0  0  0  0  0  0
   40.1540   22.6010   37.2510 C   0  0  0  0  0  0  0  0  0  0  0  0
   39.2270   23.0790   38.1130 N   0  0  0  0  0  0  0  0  0  0  0  0
   38.0230   23.5360   37.6620 C   0  0  0  0  0  0  0  0  0  0  0  0
   37.7310   23.5190   36.3360 N   0  0  0  0  0  0  0  0  0  0  0  0
   40.5350   22.2150   35.1000 H   0  0  0  0  0  0  0  0  0  0  0  0
   41.1240   22.2250   37.5470 H   0  0  0  0  0  0  0  0  0  0  0  0
   37.2960   23.9180   38.3920 H   0  0  0  0  0  0  0  0  0  0  0  0
  1 18  1  0  0  0  0
  2  6  1  0  0  0  0
  2  1  1  0  0  0  0
  3  2  2  0  0  0  0
  4  3  1  0  0  0  0
  4  5  1  0  0  0  0
  5  9  1  0  0  0  0
  5  6  2  0  0  0  0
  7  3  1  0  0  0  0
  8  4  1  0  0  0  0
  9 10  1  0  0  0  0
 10 11  1  0  0  0  0
 12 10  2  0  0  0  0
 12 13  1  0  0  0  0
 14 12  1  0  0  0  0
 15 16  1  0  0  0  0
 15 14  2  0  0  0  0
 16  9  2  0  0  0  0
 18 17  2  6  0  0  0
 18 21  1  0  0  0  0
 18 19  1  0  0  0  0
 20 19  1  0  0  0  0
 21 22  1  0  0  0  0
 22 23  2  0  0  0  0
 22 27  1  0  0  0  0
 23 24  1  0  0  0  0
 24 29  1  0  0  0  0
 24 25  2  0  0  0  0
 26 25  1  0  0  0  0
 26 30  1  0  0  0  0
 27 26  2  0  0  0  0
 28 23  1  0  0  0  0
M  END
>  <minimizedAffinity>
-4.97523546

$$$$

 OpenBabel03262521143D

 30 32  0  0  0  0  0  0  0  0999 V2000
   37.7660   27.4720   32.0650 O   0  0  0  0  0  0  0  0  0  0  0  0
   37.8170   26.9580   33.3760 C   0  0  0  0  0  0  0  0  0  0  0  0
   37.1660   27.4090   34.5150 C   0  0  0  0  0  0  0  0  0  0  0  0
   37.5190   26.6100   35.5190 N   0  0  0  0  0  0  0  0  0  0  0  0
   38.3720   25.6590   35.0800 C   0  0  0  0  0  0  0  0  0  0  0  0
   38.5550   25.8760   33.7560 N   0  0  0  0  0  0  0  0  0  0  0  0
   36.5180   28.2790   34.4210 H   0  0  0  0  0  0  0  0  0  0  0  0
   37.1250   26.7950   36.4710 H   0  0  0  0  0  0  0  0  0  0  0  0
   38.9530   24.6210   35.9260 C   0  0  0  0  0  0  0  0  0  0  0  0
   40.1200   23.9940   35.5570 C   0  0  0  0  0  0  0  0  0  0  0  0
   40.6430   24.2360   34.6500 H   0  0  0  0  0  0  0  0  0  0  0  0
   40.5740   23.0210   36.4460 C   0  0  0  0  0  0  0  0  0  0  0  0
   41.4950   22.4710   36.2330 H   0  0  0  0  0  0  0  0  0  0  0  0
   39.8930   22.7080   37.6230 C   0  0  0  0  0  3  0  0  0  0  0  0
   38.7230   23.3750   37.9390 C   0  0  0  0  0  3  0  0  0  0  0  0
   38.3050   24.3130   37.0600 N   0  0  0  0  0  0  0  0  0  0  0  0
   35.7510   25.9560   31.5350 O   0  0  0  0  0  0  0  0  0  0  0  0
   36.2700   27.3490   31.2660 P   0  0  2  0  0  0  0  0  0  0  0  0
   36.4500   27.6550   29.6050 O   0  0  0  0  0  0  0  0  0  0  0  0
   37.0490   26.9610   29.2370 H   0  0  0  0  0  0  0  0  0  0  0  0
   35.2090   28.5490   31.8830 O   0  0  0  0  0  0  0  0  0  0  0  0
   35.6180   29.8640   32.0670 C   0  0  0  0  0  0  0  0  0  0  0  0
   36.3050   30.6480   31.1280 C   0  0  0  0  0  0  0  0  0  0  0  0
   36.6350   31.9480   31.4870 C   0  0  0  0  0  0  0  0  0  0  0  0
   36.2920   32.4150   32.7090 N   0  0  0  0  0  0  0  0  0  0  0  0
   35.6240   31.6240   33.5990 C   0  0  0  0  0  0  0  0  0  0  0  0
   35.2890   30.3490   33.2710 N   0  0  0  0  0  0  0  0  0  0  0  0
   36.5220   30.1570   30.1830 H   0  0  0  0  0  0  0  0  0  0  0  0
   37.1640   32.5250   30.7410 H   0  0  0  0  0  0  0  0  0  0  0  0
   35.3620   32.0390   34.5810 H   0  0  0  0  0  0  0  0  0  0  0  0
  1  2  1  0  0  0  0
  2  6  1  0  0  0  0
  2  3  2  0  0  0  0
  3  4  1  0  0  0  0
  4  8  1  0  0  0  0
  5  4  1  0  0  0  0
  5  9  1  0  0  0  0
  6  5  2  0  0  0  0
  7  3  1  0  0  0  0
  9 16  1  0  0  0  0
 10  9  2  0  0  0  0
 10 12  1  0  0  0  0
 11 10  1  0  0  0  0
 12 14  2  0  0  0  0
 13 12  1  0  0  0  0
 14 15  1  0  0  0  0
 16 15  2  0  0  0  0
 18 17  2  1  0  0  0
 18 21  1  0  0  0  0
 18  1  1  0  0  0  0
 19 18  1  0  0  0  0
 20 19  1  0  0  0  0
 21 22  1  0  0  0  0
 22 27  1  0  0  0  0
 23 24  1  0  0  0  0
 23 22  2  0  0  0  0
 24 25  2  0  0  0  0
 25 26  1  0  0  0  0
 26 30  1  0  0  0  0
 27 26  2  0  0  0  0
 28 23  1  0  0  0  0
 29 24  1  0  0  0  0
M  END
>  <minimizedAffinity>
-4.94776487

$$$$
