
 OpenBabel03262521123D

 30 32  0  0  0  0  0  0  0  0999 V2000
   33.1130   30.0530   45.7190 O   0  0  0  0  0  0  0  0  0  0  0  0
   31.7940   29.7190   46.0840 C   0  0  0  0  0  0  0  0  0  0  0  0
   30.6000   30.1190   45.5010 C   0  0  0  0  0  0  0  0  0  0  0  0
   29.6110   29.5520   46.1870 N   0  0  0  0  0  0  0  0  0  0  0  0
   30.1120   28.8010   47.1910 C   0  0  0  0  0  0  0  0  0  0  0  0
   31.4600   28.9060   47.1260 N   0  0  0  0  0  0  0  0  0  0  0  0
   30.6510   30.7830   44.6390 H   0  0  0  0  0  0  0  0  0  0  0  0
   28.6240   29.7380   45.8930 H   0  0  0  0  0  0  0  0  0  0  0  0
   29.2990   28.0420   48.1360 C   0  0  0  0  0  0  0  0  0  0  0  0
   28.1060   27.4860   47.7390 C   0  0  0  0  0  0  0  0  0  0  0  0
   27.7280   27.5840   46.7370 H   0  0  0  0  0  0  0  0  0  0  0  0
   27.4200   26.7860   48.7310 C   0  0  0  0  0  0  0  0  0  0  0  0
   26.4620   26.3100   48.5040 H   0  0  0  0  0  0  0  0  0  0  0  0
   27.9110   26.6600   50.0310 C   0  0  0  0  0  0  0  0  0  0  0  0
   29.1190   27.2430   50.3690 C   0  0  0  0  0  0  0  0  0  0  0  0
   29.7620   27.9160   49.3900 N   0  0  0  0  0  0  0  0  0  0  0  0
   35.6500   29.7530   46.0580 O   0  0  0  0  0  0  0  0  0  0  0  0
   34.3400   29.5400   46.7780 P   0  0  2  0  0  0  0  0  0  0  0  0
   34.1100   27.9150   47.2200 O   0  0  0  0  0  0  0  0  0  0  0  0
   34.1710   27.3710   46.3970 H   0  0  0  0  0  0  0  0  0  0  0  0
   34.2530   30.4650   48.2210 O   0  0  0  0  0  0  0  0  0  0  0  0
   35.2180   30.3640   49.2160 C   0  0  0  0  0  0  0  0  0  0  0  0
   35.2100   29.4420   50.2740 C   0  0  0  0  0  0  0  0  0  0  0  0
   36.2610   29.4880   51.1800 C   0  0  0  0  0  0  0  0  0  0  0  0
   37.2450   30.4020   51.0220 N   0  0  0  0  0  0  0  0  0  0  0  0
   37.2210   31.2840   49.9810 C   0  0  0  0  0  0  0  0  0  0  0  0
   36.2040   31.2600   49.0810 N   0  0  0  0  0  0  0  0  0  0  0  0
   34.3640   28.7610   50.2890 H   0  0  0  0  0  0  0  0  0  0  0  0
   36.2250   28.7640   51.9830 H   0  0  0  0  0  0  0  0  0  0  0  0
   38.0380   32.0120   49.8850 H   0  0  0  0  0  0  0  0  0  0  0  0
  1  2  1  0  0  0  0
  1 18  1  0  0  0  0
  2  6  1  0  0  0  0
  3  2  2  0  0  0  0
  3  4  1  0  0  0  0
  4  5  1  0  0  0  0
  5  9  1  0  0  0  0
  6  5  2  0  0  0  0
  7  3  1  0  0  0  0
  8  4  1  0  0  0  0
  9 16  1  0  0  0  0
 10  9  2  0  0  0  0
 10 12  1  0  0  0  0
 11 10  1  0  0  0  0
 12 14  2  0  0  0  0
 13 12  1  0  0  0  0
 14 15  1  0  0  0  0
 16 15  2  0  0  0  0
 18 17  2  6  0  0  0
 18 19  1  0  0  0  0
 18 21  1  0  0  0  0
 20 19  1  0  0  0  0
 21 22  1  0  0  0  0
 22 23  1  0  0  0  0
 23 28  1  0  0  0  0
 23 24  2  0  0  0  0
 24 29  1  0  0  0  0
 25 24  1  0  0  0  0
 26 25  2  0  0  0  0
 27 22  2  0  0  0  0
 27 26  1  0  0  0  0
 30 26  1  0  0  0  0
M  END
>  <minimizedAffinity>
-4.87885809

>  <minimizedRMSD>
1.64643097

$$$$
