
 OpenBabel03272506273D

 41 44  0  0  0  0  0  0  0  0999 V2000
   33.0580   27.7990   44.2310 C   0  0  0  0  0  0  0  0  0  0  0  0
   32.7630   26.6930   43.4570 C   0  0  0  0  0  0  0  0  0  0  0  0
   32.9550   26.6230   42.0770 C   0  0  0  0  0  0  0  0  0  0  0  0
   33.4840   27.7590   41.4220 C   0  0  0  0  0  0  0  0  0  0  0  0
   33.7700   28.8480   42.2130 C   0  0  0  0  0  0  0  0  0  0  0  0
   33.5810   28.9050   43.5610 C   0  0  0  0  0  0  0  0  0  0  0  0
   32.3490   25.7880   43.9320 H   0  0  0  0  0  0  0  0  0  0  0  0
   32.6810   25.6840   41.5680 H   0  0  0  0  0  0  0  0  0  0  0  0
   33.5860   27.5900   40.3750 H   0  0  0  0  0  0  0  0  0  0  0  0
   34.1410   29.5820   41.5430 H   0  0  0  0  0  0  0  0  0  0  0  0
   33.7920   27.0960   46.4260 C   0  0  0  0  0  0  0  0  0  0  0  0
   32.7930   27.6910   45.6390 C   0  0  0  0  0  0  0  0  0  0  0  0
   31.6300   28.1300   46.2770 C   0  0  0  0  0  0  0  0  0  0  0  0
   31.5130   27.9660   47.6200 N   0  0  0  0  0  0  0  0  0  0  0  0
   32.4970   27.3840   48.3640 C   0  0  0  0  0  0  0  0  0  0  0  0
   33.6390   26.9510   47.7580 N   0  0  0  0  0  0  0  0  0  0  0  0
   34.7000   26.7470   45.9720 H   0  0  0  0  0  0  0  0  0  0  0  0
   32.3490   27.2800   49.4350 H   0  0  0  0  0  0  0  0  0  0  0  0
   30.4850   28.7760   45.5730 C   0  0  0  0  0  0  0  0  0  0  0  0
   29.4270   28.9780   46.4820 F   0  0  0  0  0  0  0  0  0  0  0  0
   30.7490   29.9460   44.9600 F   0  0  0  0  0  0  0  0  0  0  0  0
   29.9500   27.8960   44.6430 F   0  0  0  0  0  0  0  0  0  0  0  0
   33.9590   30.3060   44.5500 S   0  0  0  0  0  0  0  0  0  0  0  0
   34.4890   30.3270   47.6130 Cl  0  0  0  0  0  0  0  0  0  0  0  0
   35.8240   30.3450   46.4830 C   0  0  0  0  0  0  0  0  0  0  0  0
   35.6420   30.3600   45.0990 C   0  0  0  0  0  0  0  0  0  0  0  0
   36.7150   30.3970   44.2600 C   0  0  0  0  0  0  0  0  0  0  0  0
   37.9850   30.4160   44.8040 C   0  0  0  0  0  0  0  0  0  0  0  0
   38.1700   30.4000   46.1870 C   0  0  0  0  0  0  0  0  0  0  0  0
   37.0900   30.3660   47.0380 C   0  0  0  0  0  0  0  0  0  0  0  0
   36.6830   30.4470   43.2020 H   0  0  0  0  0  0  0  0  0  0  0  0
   38.8710   30.4430   44.1750 H   0  0  0  0  0  0  0  0  0  0  0  0
   39.1890   30.4170   46.5480 H   0  0  0  0  0  0  0  0  0  0  0  0
   37.2480   30.3490   48.4870 C   0  0  0  0  0  0  0  0  0  0  0  0
   37.8660   31.3420   49.1950 C   0  0  0  0  0  0  0  0  0  0  0  0
   38.2700   32.1970   48.6950 H   0  0  0  0  0  0  0  0  0  0  0  0
   38.0240   31.3400   50.5720 C   0  0  0  0  0  0  0  0  0  0  0  0
   38.5240   32.1560   51.0830 H   0  0  0  0  0  0  0  0  0  0  0  0
   37.5330   30.2750   51.3000 C   0  0  0  0  0  3  0  0  0  0  0  0
   36.9100   29.2770   50.5780 C   0  0  0  0  0  3  0  0  0  0  0  0
   36.7840   29.3310   49.2400 N   0  0  0  0  0  0  0  0  0  0  0  0
  1 12  1  0  0  0  0
  2  7  1  0  0  0  0
  2  1  2  0  0  0  0
  3  2  1  0  0  0  0
  4  3  2  0  0  0  0
  4  5  1  0  0  0  0
  5  6  2  0  0  0  0
  6  1  1  0  0  0  0
  6 23  1  0  0  0  0
  8  3  1  0  0  0  0
  9  4  1  0  0  0  0
 10  5  1  0  0  0  0
 11 16  1  0  0  0  0
 12 13  1  0  0  0  0
 12 11  2  0  0  0  0
 13 14  2  0  0  0  0
 14 15  1  0  0  0  0
 15 18  1  0  0  0  0
 16 15  2  0  0  0  0
 17 11  1  0  0  0  0
 19 13  1  0  0  0  0
 19 20  1  0  0  0  0
 21 19  1  0  0  0  0
 22 19  1  0  0  0  0
 23 26  1  0  0  0  0
 25 30  1  0  0  0  0
 25 24  1  0  0  0  0
 26 25  2  0  0  0  0
 27 28  2  0  0  0  0
 27 26  1  0  0  0  0
 28 29  1  0  0  0  0
 29 33  1  0  0  0  0
 29 30  2  0  0  0  0
 30 34  1  0  0  0  0
 31 27  1  0  0  0  0
 32 28  1  0  0  0  0
 34 35  2  0  0  0  0
 34 41  1  0  0  0  0
 35 37  1  0  0  0  0
 36 35  1  0  0  0  0
 37 38  1  0  0  0  0
 37 39  2  0  0  0  0
 40 39  1  0  0  0  0
 41 40  2  0  0  0  0
M  END
>  <minimizedAffinity>
-4.92854118

>  <minimizedRMSD>
3.21670151

$$$$
