
 OpenBabel03272503543D

 43 46  0  0  1  0  0  0  0  0999 V2000
   38.8120   23.7880   33.5230 C   0  0  1  0  0  0  0  0  0  0  0  0
   38.9400   23.1730   32.1020 C   0  0  0  0  0  0  0  0  0  0  0  0
   37.5310   22.6500   31.7990 C   0  0  0  0  0  0  0  0  0  0  0  0
   37.3100   21.4700   32.6920 C   0  0  0  0  0  0  0  0  0  0  0  0
   37.4080   21.8710   34.1350 C   0  0  0  0  0  0  0  0  0  0  0  0
   38.6980   22.5970   34.4300 C   0  0  2  0  0  0  0  0  0  0  0  0
   37.8820   24.3620   33.4350 H   0  0  0  0  0  0  0  0  0  0  0  0
   39.6830   22.3640   32.1600 H   0  0  0  0  0  0  0  0  0  0  0  0
   39.1750   23.9650   31.3610 H   0  0  0  0  0  0  0  0  0  0  0  0
   37.3880   22.4310   30.7430 H   0  0  0  0  0  0  0  0  0  0  0  0
   36.8120   23.4520   32.1100 H   0  0  0  0  0  0  0  0  0  0  0  0
   36.3790   20.9210   32.5220 H   0  0  0  0  0  0  0  0  0  0  0  0
   38.1590   20.7650   32.5070 H   0  0  0  0  0  0  0  0  0  0  0  0
   36.5700   22.5720   34.4200 H   0  0  0  0  0  0  0  0  0  0  0  0
   37.2930   21.0070   34.8110 H   0  0  0  0  0  0  0  0  0  0  0  0
   39.4970   21.8510   34.2150 H   0  0  0  0  0  0  0  0  0  0  0  0
   39.8810   26.0030   34.0370 C   0  0  0  0  0  0  0  0  0  0  0  0
   41.0080   26.7350   34.3890 C   0  0  0  0  0  0  0  0  0  0  0  0
   42.2490   26.0980   34.5410 C   0  0  0  0  0  0  0  0  0  0  0  0
   42.2930   24.7360   34.3270 C   0  0  0  0  0  0  0  0  0  0  0  0
   41.1880   24.0000   33.9790 C   0  0  0  0  0  0  0  0  0  0  0  0
   39.9510   24.6580   33.8310 C   0  0  0  0  0  0  0  0  0  0  0  0
   40.9690   27.8060   34.5570 H   0  0  0  0  0  0  0  0  0  0  0  0
   43.0990   26.7110   34.8170 H   0  0  0  0  0  0  0  0  0  0  0  0
   43.2800   24.2920   34.4580 H   0  0  0  0  0  0  0  0  0  0  0  0
   41.3380   22.9590   33.8390 H   0  0  0  0  0  0  0  0  0  0  0  0
   36.6900   27.9190   34.6820 C   0  0  0  0  0  0  0  0  0  0  0  0
   37.8450   27.1550   34.9570 C   0  0  0  0  0  0  0  0  0  0  0  0
   38.6640   26.7800   33.8920 C   0  0  0  0  0  0  0  0  0  0  0  0
   38.2820   27.1810   32.6660 N   0  0  0  0  0  0  0  0  0  0  0  0
   37.1800   27.9090   32.4120 C   0  0  0  0  0  0  0  0  0  0  0  0
   36.3940   28.2720   33.4150 N   0  0  0  0  0  0  0  0  0  0  0  0
   36.0520   28.2130   35.4960 H   0  0  0  0  0  0  0  0  0  0  0  0
   38.1200   26.8530   35.9410 H   0  0  0  0  0  0  0  0  0  0  0  0
   36.9420   28.1930   31.4010 H   0  0  0  0  0  0  0  0  0  0  0  0
   38.7230   22.9670   35.8680 C   0  0  0  0  0  0  0  0  0  0  0  0
   37.7780   23.7990   36.4370 C   0  0  0  0  0  0  0  0  0  0  0  0
   36.9790   24.2110   35.8360 H   0  0  0  0  0  0  0  0  0  0  0  0
   37.8690   24.1020   37.8010 C   0  0  0  0  0  0  0  0  0  0  0  0
   37.1480   24.7520   38.2920 H   0  0  0  0  0  0  0  0  0  0  0  0
   38.8770   23.5910   38.5950 C   0  0  0  0  0  3  0  0  0  0  0  0
   39.7990   22.7640   37.9820 C   0  0  0  0  0  3  0  0  0  0  0  0
   39.7150   22.4690   36.6630 N   0  0  0  0  0  0  0  0  0  0  0  0
  1  7  1  1  0  0  0
  1 22  1  0  0  0  0
  1  6  1  0  0  0  0
  2  8  1  0  0  0  0
  2  1  1  0  0  0  0
  3  2  1  0  0  0  0
  3 11  1  0  0  0  0
  3  4  1  0  0  0  0
  4  5  1  0  0  0  0
  5 14  1  0  0  0  0
  5  6  1  0  0  0  0
  5 15  1  0  0  0  0
  6 16  1  6  0  0  0
  6 36  1  0  0  0  0
  9  2  1  0  0  0  0
 10  3  1  0  0  0  0
 12  4  1  0  0  0  0
 13  4  1  0  0  0  0
 17 18  1  0  0  0  0
 18 19  2  0  0  0  0
 18 23  1  0  0  0  0
 19 24  1  0  0  0  0
 20 25  1  0  0  0  0
 20 19  1  0  0  0  0
 21 20  2  0  0  0  0
 22 21  1  0  0  0  0
 22 17  2  0  0  0  0
 26 21  1  0  0  0  0
 27 28  1  0  0  0  0
 27 33  1  0  0  0  0
 28 34  1  0  0  0  0
 29 17  1  0  0  0  0
 29 28  2  0  0  0  0
 30 29  1  0  0  0  0
 31 30  2  0  0  0  0
 31 32  1  0  0  0  0
 32 27  2  0  0  0  0
 35 31  1  0  0  0  0
 36 37  2  0  0  0  0
 36 43  1  0  0  0  0
 37 39  1  0  0  0  0
 38 37  1  0  0  0  0
 39 40  1  0  0  0  0
 39 41  2  0  0  0  0
 42 41  1  0  0  0  0
 43 42  2  0  0  0  0
M  END
>  <minimizedAffinity>
-5.63078547

$$$$

 OpenBabel03272503543D

 43 46  0  0  1  0  0  0  0  0999 V2000
   40.6900   24.8060   34.0120 C   0  0  1  0  0  0  0  0  0  0  0  0
   42.0370   24.3340   33.3970 C   0  0  0  0  0  0  0  0  0  0  0  0
   43.0980   25.0520   34.2410 C   0  0  0  0  0  0  0  0  0  0  0  0
   43.0200   26.5030   33.8840 C   0  0  0  0  0  0  0  0  0  0  0  0
   41.6580   27.0530   34.1960 C   0  0  0  0  0  0  0  0  0  0  0  0
   40.5620   26.2330   33.5620 C   0  0  2  0  0  0  0  0  0  0  0  0
   40.8860   24.7010   35.0850 H   0  0  0  0  0  0  0  0  0  0  0  0
   42.0500   24.6570   32.3460 H   0  0  0  0  0  0  0  0  0  0  0  0
   42.1660   23.2430   33.5480 H   0  0  0  0  0  0  0  0  0  0  0  0
   44.0900   24.6240   34.1120 H   0  0  0  0  0  0  0  0  0  0  0  0
   42.7870   24.9470   35.3130 H   0  0  0  0  0  0  0  0  0  0  0  0
   43.7880   27.1380   34.3340 H   0  0  0  0  0  0  0  0  0  0  0  0
   43.1330   26.5670   32.7730 H   0  0  0  0  0  0  0  0  0  0  0  0
   41.4640   27.0490   35.3090 H   0  0  0  0  0  0  0  0  0  0  0  0
   41.5640   28.1120   33.9000 H   0  0  0  0  0  0  0  0  0  0  0  0
   40.7380   26.3260   32.4670 H   0  0  0  0  0  0  0  0  0  0  0  0
   38.6820   23.3510   34.4140 C   0  0  0  0  0  0  0  0  0  0  0  0
   37.6220   22.6080   33.9100 C   0  0  0  0  0  0  0  0  0  0  0  0
   37.4560   22.4600   32.5240 C   0  0  0  0  0  0  0  0  0  0  0  0
   38.3790   23.0750   31.7060 C   0  0  0  0  0  0  0  0  0  0  0  0
   39.4310   23.8120   32.1890 C   0  0  0  0  0  0  0  0  0  0  0  0
   39.5810   23.9500   33.5830 C   0  0  0  0  0  0  0  0  0  0  0  0
   36.8980   22.1250   34.5570 H   0  0  0  0  0  0  0  0  0  0  0  0
   36.6130   21.8710   32.1790 H   0  0  0  0  0  0  0  0  0  0  0  0
   38.2030   22.9280   30.6390 H   0  0  0  0  0  0  0  0  0  0  0  0
   40.0800   24.2410   31.4680 H   0  0  0  0  0  0  0  0  0  0  0  0
   38.0260   24.0820   38.0620 C   0  0  0  0  0  0  0  0  0  0  0  0
   37.8470   24.1060   36.6610 C   0  0  0  0  0  0  0  0  0  0  0  0
   38.7550   23.4130   35.8620 C   0  0  0  0  0  0  0  0  0  0  0  0
   39.7480   22.7640   36.4980 N   0  0  0  0  0  0  0  0  0  0  0  0
   39.9110   22.7450   37.8330 C   0  0  0  0  0  0  0  0  0  0  0  0
   39.0550   23.4010   38.6040 N   0  0  0  0  0  0  0  0  0  0  0  0
   37.3320   24.6140   38.6870 H   0  0  0  0  0  0  0  0  0  0  0  0
   37.0500   24.6310   36.1880 H   0  0  0  0  0  0  0  0  0  0  0  0
   40.7330   22.2010   38.2680 H   0  0  0  0  0  0  0  0  0  0  0  0
   39.2490   26.8290   33.9180 C   0  0  0  0  0  0  0  0  0  0  0  0
   38.9020   27.1400   35.2190 C   0  0  0  0  0  0  0  0  0  0  0  0
   39.5940   26.9520   36.0280 H   0  0  0  0  0  0  0  0  0  0  0  0
   37.6450   27.7010   35.4740 C   0  0  0  0  0  0  0  0  0  0  0  0
   37.3290   27.9620   36.4820 H   0  0  0  0  0  0  0  0  0  0  0  0
   36.7410   27.9530   34.4610 C   0  0  0  0  0  3  0  0  0  0  0  0
   37.1310   27.6250   33.1770 C   0  0  0  0  0  3  0  0  0  0  0  0
   38.3460   27.0830   32.9260 N   0  0  0  0  0  0  0  0  0  0  0  0
  1  7  1  1  0  0  0
  2  9  1  0  0  0  0
  2  1  1  0  0  0  0
  2  3  1  0  0  0  0
  3 11  1  0  0  0  0
  4  5  1  0  0  0  0
  4  3  1  0  0  0  0
  4 12  1  0  0  0  0
  5 14  1  0  0  0  0
  6 16  1  6  0  0  0
  6 36  1  0  0  0  0
  6  1  1  0  0  0  0
  6  5  1  0  0  0  0
  8  2  1  0  0  0  0
 10  3  1  0  0  0  0
 13  4  1  0  0  0  0
 15  5  1  0  0  0  0
 17 29  1  0  0  0  0
 18 17  1  0  0  0  0
 18 23  1  0  0  0  0
 19 18  2  0  0  0  0
 20 21  2  0  0  0  0
 20 19  1  0  0  0  0
 21 22  1  0  0  0  0
 22  1  1  0  0  0  0
 22 17  2  0  0  0  0
 24 19  1  0  0  0  0
 25 20  1  0  0  0  0
 26 21  1  0  0  0  0
 27 32  1  0  0  0  0
 27 33  1  0  0  0  0
 28 27  2  0  0  0  0
 29 30  2  0  0  0  0
 29 28  1  0  0  0  0
 30 31  1  0  0  0  0
 31 35  1  0  0  0  0
 31 32  2  0  0  0  0
 34 28  1  0  0  0  0
 36 37  1  0  0  0  0
 37 39  2  0  0  0  0
 37 38  1  0  0  0  0
 39 40  1  0  0  0  0
 41 39  1  0  0  0  0
 42 41  2  0  0  0  0
 43 42  1  0  0  0  0
 43 36  2  0  0  0  0
M  END
>  <minimizedAffinity>
-5.60368729

$$$$

 OpenBabel03272503543D

 43 46  0  0  1  0  0  0  0  0999 V2000
   38.2440   26.4930   33.1590 C   0  0  1  0  0  0  0  0  0  0  0  0
   38.3170   25.9750   34.6220 C   0  0  0  0  0  0  0  0  0  0  0  0
   39.2210   26.9930   35.3280 C   0  0  0  0  0  0  0  0  0  0  0  0
   40.6030   26.7810   34.7940 C   0  0  0  0  0  0  0  0  0  0  0  0
   40.6380   27.0070   33.3110 C   0  0  0  0  0  0  0  0  0  0  0  0
   39.5980   26.1810   32.5920 C   0  0  2  0  0  0  0  0  0  0  0  0
   38.0670   27.5640   33.3110 H   0  0  0  0  0  0  0  0  0  0  0  0
   38.7620   24.9690   34.5940 H   0  0  0  0  0  0  0  0  0  0  0  0
   37.3160   26.0250   35.0970 H   0  0  0  0  0  0  0  0  0  0  0  0
   39.1570   26.9230   36.4120 H   0  0  0  0  0  0  0  0  0  0  0  0
   38.8820   28.0100   35.0030 H   0  0  0  0  0  0  0  0  0  0  0  0
   41.3870   27.3710   35.2770 H   0  0  0  0  0  0  0  0  0  0  0  0
   40.8450   25.7000   34.9490 H   0  0  0  0  0  0  0  0  0  0  0  0
   40.4250   28.0870   33.0580 H   0  0  0  0  0  0  0  0  0  0  0  0
   41.6390   26.8130   32.8880 H   0  0  0  0  0  0  0  0  0  0  0  0
   39.8860   25.1260   32.7960 H   0  0  0  0  0  0  0  0  0  0  0  0
   36.1790   26.5330   31.7280 C   0  0  0  0  0  0  0  0  0  0  0  0
   35.2070   25.8490   31.0110 C   0  0  0  0  0  0  0  0  0  0  0  0
   35.1960   24.4450   30.9910 C   0  0  0  0  0  0  0  0  0  0  0  0
   36.1780   23.7940   31.7070 C   0  0  0  0  0  0  0  0  0  0  0  0
   37.1450   24.4560   32.4210 C   0  0  0  0  0  0  0  0  0  0  0  0
   37.1390   25.8660   32.4280 C   0  0  0  0  0  0  0  0  0  0  0  0
   34.4360   26.3650   30.4490 H   0  0  0  0  0  0  0  0  0  0  0  0
   34.4180   23.9560   30.4160 H   0  0  0  0  0  0  0  0  0  0  0  0
   36.1230   22.7060   31.6580 H   0  0  0  0  0  0  0  0  0  0  0  0
   37.8510   23.8540   32.9340 H   0  0  0  0  0  0  0  0  0  0  0  0
   35.5840   30.1640   32.5850 C   0  0  0  0  0  0  0  0  0  0  0  0
   35.6390   28.7630   32.7540 C   0  0  0  0  0  0  0  0  0  0  0  0
   36.0710   27.9800   31.6850 C   0  0  0  0  0  0  0  0  0  0  0  0
   36.4080   28.6300   30.5560 N   0  0  0  0  0  0  0  0  0  0  0  0
   36.3540   29.9660   30.4030 C   0  0  0  0  0  0  0  0  0  0  0  0
   35.9440   30.7210   31.4110 N   0  0  0  0  0  0  0  0  0  0  0  0
   35.2530   30.7780   33.4030 H   0  0  0  0  0  0  0  0  0  0  0  0
   35.3640   28.2790   33.6620 H   0  0  0  0  0  0  0  0  0  0  0  0
   36.6420   30.4130   29.4660 H   0  0  0  0  0  0  0  0  0  0  0  0
   39.6870   26.4600   31.1360 C   0  0  0  0  0  0  0  0  0  0  0  0
   39.6930   27.7430   30.6230 C   0  0  0  0  0  0  0  0  0  0  0  0
   39.6310   28.5960   31.2860 H   0  0  0  0  0  0  0  0  0  0  0  0
   39.7790   27.9240   29.2380 C   0  0  0  0  0  0  0  0  0  0  0  0
   39.7880   28.9150   28.7900 H   0  0  0  0  0  0  0  0  0  0  0  0
   39.8600   26.8550   28.3680 C   0  0  0  0  0  3  0  0  0  0  0  0
   39.8500   25.5910   28.9250 C   0  0  0  0  0  3  0  0  0  0  0  0
   39.7660   25.4110   30.2650 N   0  0  0  0  0  0  0  0  0  0  0  0
  1  7  1  1  0  0  0
  1  2  1  0  0  0  0
  2  9  1  0  0  0  0
  2  3  1  0  0  0  0
  3 10  1  0  0  0  0
  4 13  1  0  0  0  0
  4 12  1  0  0  0  0
  4  3  1  0  0  0  0
  5  4  1  0  0  0  0
  6 16  1  1  0  0  0
  6  1  1  0  0  0  0
  6  5  1  0  0  0  0
  8  2  1  0  0  0  0
 11  3  1  0  0  0  0
 14  5  1  0  0  0  0
 15  5  1  0  0  0  0
 17 22  1  0  0  0  0
 18 17  2  0  0  0  0
 19 18  1  0  0  0  0
 19 20  2  0  0  0  0
 20 21  1  0  0  0  0
 21 22  2  0  0  0  0
 21 26  1  0  0  0  0
 22  1  1  0  0  0  0
 23 18  1  0  0  0  0
 24 19  1  0  0  0  0
 25 20  1  0  0  0  0
 27 28  1  0  0  0  0
 27 33  1  0  0  0  0
 28 34  1  0  0  0  0
 29 17  1  0  0  0  0
 29 28  2  0  0  0  0
 30 29  1  0  0  0  0
 31 30  2  0  0  0  0
 31 32  1  0  0  0  0
 32 27  2  0  0  0  0
 35 31  1  0  0  0  0
 36  6  1  0  0  0  0
 37 36  1  0  0  0  0
 37 38  1  0  0  0  0
 39 37  2  0  0  0  0
 40 39  1  0  0  0  0
 41 42  2  0  0  0  0
 41 39  1  0  0  0  0
 42 43  1  0  0  0  0
 43 36  2  0  0  0  0
M  END
>  <minimizedAffinity>
-5.50760603

$$$$

 OpenBabel03272503543D

 43 46  0  0  1  0  0  0  0  0999 V2000
   40.5340   25.5370   34.1740 C   0  0  1  0  0  0  0  0  0  0  0  0
   41.7630   26.4760   34.3260 C   0  0  0  0  0  0  0  0  0  0  0  0
   42.9440   25.6150   33.8600 C   0  0  0  0  0  0  0  0  0  0  0  0
   43.1500   24.5670   34.9090 C   0  0  0  0  0  0  0  0  0  0  0  0
   41.9210   23.7170   35.0570 C   0  0  0  0  0  0  0  0  0  0  0  0
   40.6860   24.5510   35.2940 C   0  0  2  0  0  0  0  0  0  0  0  0
   40.7060   25.1040   33.1820 H   0  0  0  0  0  0  0  0  0  0  0  0
   41.8390   26.7510   35.3880 H   0  0  0  0  0  0  0  0  0  0  0  0
   41.6770   27.3360   33.6300 H   0  0  0  0  0  0  0  0  0  0  0  0
   43.8340   26.2060   33.6540 H   0  0  0  0  0  0  0  0  0  0  0  0
   42.6190   25.0970   32.9210 H   0  0  0  0  0  0  0  0  0  0  0  0
   44.0270   23.9300   34.7690 H   0  0  0  0  0  0  0  0  0  0  0  0
   43.2720   25.1070   35.8820 H   0  0  0  0  0  0  0  0  0  0  0  0
   41.7300   23.1130   34.1220 H   0  0  0  0  0  0  0  0  0  0  0  0
   42.0350   22.9650   35.8570 H   0  0  0  0  0  0  0  0  0  0  0  0
   40.8760   25.0680   36.2620 H   0  0  0  0  0  0  0  0  0  0  0  0
   38.3070   26.2610   33.2650 C   0  0  0  0  0  0  0  0  0  0  0  0
   37.1190   26.9630   33.4260 C   0  0  0  0  0  0  0  0  0  0  0  0
   36.8970   27.7250   34.5830 C   0  0  0  0  0  0  0  0  0  0  0  0
   37.8970   27.7410   35.5320 C   0  0  0  0  0  0  0  0  0  0  0  0
   39.0750   27.0530   35.3870 C   0  0  0  0  0  0  0  0  0  0  0  0
   39.2790   26.2930   34.2180 C   0  0  0  0  0  0  0  0  0  0  0  0
   36.3350   26.9470   32.6770 H   0  0  0  0  0  0  0  0  0  0  0  0
   35.9540   28.2550   34.6640 H   0  0  0  0  0  0  0  0  0  0  0  0
   37.6730   28.3480   36.4110 H   0  0  0  0  0  0  0  0  0  0  0  0
   39.7740   27.1370   36.1810 H   0  0  0  0  0  0  0  0  0  0  0  0
   39.2740   25.1070   29.8000 C   0  0  0  0  0  0  0  0  0  0  0  0
   39.2460   25.9120   30.9590 C   0  0  0  0  0  0  0  0  0  0  0  0
   38.4230   25.5280   32.0170 C   0  0  0  0  0  0  0  0  0  0  0  0
   37.7080   24.4010   31.8480 N   0  0  0  0  0  0  0  0  0  0  0  0
   37.7410   23.6380   30.7410 C   0  0  0  0  0  0  0  0  0  0  0  0
   38.5180   23.9930   29.7280 N   0  0  0  0  0  0  0  0  0  0  0  0
   39.9040   25.3940   28.9780 H   0  0  0  0  0  0  0  0  0  0  0  0
   39.8240   26.8010   31.0610 H   0  0  0  0  0  0  0  0  0  0  0  0
   37.1380   22.7470   30.6810 H   0  0  0  0  0  0  0  0  0  0  0  0
   39.5150   23.6470   35.4240 C   0  0  0  0  0  0  0  0  0  0  0  0
   38.6880   23.6550   36.5310 C   0  0  0  0  0  0  0  0  0  0  0  0
   38.8780   24.3360   37.3490 H   0  0  0  0  0  0  0  0  0  0  0  0
   37.6030   22.7720   36.5790 C   0  0  0  0  0  0  0  0  0  0  0  0
   36.9260   22.7440   37.4290 H   0  0  0  0  0  0  0  0  0  0  0  0
   37.3340   21.8920   35.5490 C   0  0  0  0  0  3  0  0  0  0  0  0
   38.1880   21.9190   34.4630 C   0  0  0  0  0  3  0  0  0  0  0  0
   39.2390   22.7720   34.4130 N   0  0  0  0  0  0  0  0  0  0  0  0
  1  7  1  6  0  0  0
  1 22  1  0  0  0  0
  1  2  1  0  0  0  0
  1  6  1  0  0  0  0
  2  8  1  0  0  0  0
  3  2  1  0  0  0  0
  3  4  1  0  0  0  0
  4  5  1  0  0  0  0
  4 13  1  0  0  0  0
  5  6  1  0  0  0  0
  5 15  1  0  0  0  0
  6 36  1  0  0  0  0
  6 16  1  1  0  0  0
  9  2  1  0  0  0  0
 10  3  1  0  0  0  0
 11  3  1  0  0  0  0
 12  4  1  0  0  0  0
 14  5  1  0  0  0  0
 17 18  2  0  0  0  0
 17 22  1  0  0  0  0
 18 19  1  0  0  0  0
 19 24  1  0  0  0  0
 19 20  2  0  0  0  0
 20 25  1  0  0  0  0
 21 20  1  0  0  0  0
 21 26  1  0  0  0  0
 22 21  2  0  0  0  0
 23 18  1  0  0  0  0
 27 28  1  0  0  0  0
 28 34  1  0  0  0  0
 28 29  2  0  0  0  0
 29 17  1  0  0  0  0
 30 29  1  0  0  0  0
 31 30  2  0  0  0  0
 32 27  2  0  0  0  0
 32 31  1  0  0  0  0
 33 27  1  0  0  0  0
 35 31  1  0  0  0  0
 36 37  1  0  0  0  0
 37 39  2  0  0  0  0
 37 38  1  0  0  0  0
 39 40  1  0  0  0  0
 41 39  1  0  0  0  0
 42 41  2  0  0  0  0
 43 42  1  0  0  0  0
 43 36  2  0  0  0  0
M  END
>  <minimizedAffinity>
-5.50710106

$$$$

 OpenBabel03272503543D

 43 46  0  0  1  0  0  0  0  0999 V2000
   37.3120   23.7520   32.1780 C   0  0  1  0  0  0  0  0  0  0  0  0
   37.5760   25.1070   31.4650 C   0  0  0  0  0  0  0  0  0  0  0  0
   36.2870   25.9030   31.6990 C   0  0  0  0  0  0  0  0  0  0  0  0
   35.2240   25.2520   30.8710 C   0  0  0  0  0  0  0  0  0  0  0  0
   35.0280   23.8230   31.2880 C   0  0  0  0  0  0  0  0  0  0  0  0
   36.3260   23.0540   31.2880 C   0  0  2  0  0  0  0  0  0  0  0  0
   36.8850   24.0820   33.1320 H   0  0  0  0  0  0  0  0  0  0  0  0
   37.7470   24.8900   30.4000 H   0  0  0  0  0  0  0  0  0  0  0  0
   38.4050   25.6490   31.9650 H   0  0  0  0  0  0  0  0  0  0  0  0
   36.4110   26.9650   31.4930 H   0  0  0  0  0  0  0  0  0  0  0  0
   36.0100   25.7660   32.7770 H   0  0  0  0  0  0  0  0  0  0  0  0
   34.2610   25.7690   30.8530 H   0  0  0  0  0  0  0  0  0  0  0  0
   35.6110   25.2180   29.8210 H   0  0  0  0  0  0  0  0  0  0  0  0
   34.6130   23.7600   32.3370 H   0  0  0  0  0  0  0  0  0  0  0  0
   34.2790   23.3100   30.6600 H   0  0  0  0  0  0  0  0  0  0  0  0
   36.6620   23.0690   30.2270 H   0  0  0  0  0  0  0  0  0  0  0  0
   39.0950   22.6820   33.5880 C   0  0  0  0  0  0  0  0  0  0  0  0
   40.2480   21.9130   33.6790 C   0  0  0  0  0  0  0  0  0  0  0  0
   40.8870   21.4510   32.5170 C   0  0  0  0  0  0  0  0  0  0  0  0
   40.3230   21.7930   31.3070 C   0  0  0  0  0  0  0  0  0  0  0  0
   39.1840   22.5510   31.2010 C   0  0  0  0  0  0  0  0  0  0  0  0
   38.5580   23.0050   32.3790 C   0  0  0  0  0  0  0  0  0  0  0  0
   40.6890   21.6460   34.6340 H   0  0  0  0  0  0  0  0  0  0  0  0
   41.7830   20.8540   32.6390 H   0  0  0  0  0  0  0  0  0  0  0  0
   40.8580   21.4080   30.4370 H   0  0  0  0  0  0  0  0  0  0  0  0
   38.8390   22.7530   30.2190 H   0  0  0  0  0  0  0  0  0  0  0  0
   37.3450   22.8270   36.9330 C   0  0  0  0  0  0  0  0  0  0  0  0
   37.8240   22.2850   35.7200 C   0  0  0  0  0  0  0  0  0  0  0  0
   38.5430   23.1130   34.8590 C   0  0  0  0  0  0  0  0  0  0  0  0
   38.7270   24.3850   35.2580 N   0  0  0  0  0  0  0  0  0  0  0  0
   38.2690   24.8940   36.4160 C   0  0  0  0  0  0  0  0  0  0  0  0
   37.5830   24.1170   37.2420 N   0  0  0  0  0  0  0  0  0  0  0  0
   36.7890   22.1970   37.6040 H   0  0  0  0  0  0  0  0  0  0  0  0
   37.6600   21.2720   35.4330 H   0  0  0  0  0  0  0  0  0  0  0  0
   38.4580   25.9250   36.6640 H   0  0  0  0  0  0  0  0  0  0  0  0
   36.0570   21.6580   31.7150 C   0  0  0  0  0  0  0  0  0  0  0  0
   35.6290   21.3400   32.9900 C   0  0  0  0  0  0  0  0  0  0  0  0
   35.4770   22.1190   33.7250 H   0  0  0  0  0  0  0  0  0  0  0  0
   35.3960   19.9990   33.3170 C   0  0  0  0  0  0  0  0  0  0  0  0
   35.0590   19.7020   34.3080 H   0  0  0  0  0  0  0  0  0  0  0  0
   35.5810   18.9830   32.4000 C   0  0  0  0  0  3  0  0  0  0  0  0
   36.0090   19.3480   31.1380 C   0  0  0  0  0  3  0  0  0  0  0  0
   36.2360   20.6440   30.8180 N   0  0  0  0  0  0  0  0  0  0  0  0
  1 22  1  0  0  0  0
  1  7  1  1  0  0  0
  2  3  1  0  0  0  0
  2  9  1  0  0  0  0
  2  1  1  0  0  0  0
  3 11  1  0  0  0  0
  4  5  1  0  0  0  0
  4  3  1  0  0  0  0
  5  6  1  0  0  0  0
  5 14  1  0  0  0  0
  6 16  1  6  0  0  0
  6 36  1  0  0  0  0
  6  1  1  0  0  0  0
  8  2  1  0  0  0  0
 10  3  1  0  0  0  0
 12  4  1  0  0  0  0
 13  4  1  0  0  0  0
 15  5  1  0  0  0  0
 17 18  1  0  0  0  0
 17 29  1  0  0  0  0
 18 23  1  0  0  0  0
 19 24  1  0  0  0  0
 19 18  2  0  0  0  0
 20 19  1  0  0  0  0
 21 20  2  0  0  0  0
 21 22  1  0  0  0  0
 22 17  2  0  0  0  0
 25 20  1  0  0  0  0
 26 21  1  0  0  0  0
 27 32  1  0  0  0  0
 27 33  1  0  0  0  0
 28 27  2  0  0  0  0
 29 30  2  0  0  0  0
 29 28  1  0  0  0  0
 30 31  1  0  0  0  0
 31 35  1  0  0  0  0
 31 32  2  0  0  0  0
 34 28  1  0  0  0  0
 36 37  1  0  0  0  0
 37 39  2  0  0  0  0
 37 38  1  0  0  0  0
 39 40  1  0  0  0  0
 41 39  1  0  0  0  0
 42 41  2  0  0  0  0
 43 42  1  0  0  0  0
 43 36  2  0  0  0  0
M  END
>  <minimizedAffinity>
-5.47649384

$$$$

 OpenBabel03272503543D

 43 46  0  0  1  0  0  0  0  0999 V2000
   39.1210   26.8610   31.6940 C   0  0  1  0  0  0  0  0  0  0  0  0
   40.5630   27.4090   31.5090 C   0  0  0  0  0  0  0  0  0  0  0  0
   40.6620   27.6820   30.0030 C   0  0  0  0  0  0  0  0  0  0  0  0
   40.6860   26.3480   29.3260 C   0  0  0  0  0  0  0  0  0  0  0  0
   39.4320   25.5790   29.6270 C   0  0  0  0  0  0  0  0  0  0  0  0
   39.1760   25.4790   31.1110 C   0  0  2  0  0  0  0  0  0  0  0  0
   38.5350   27.5670   31.0950 H   0  0  0  0  0  0  0  0  0  0  0  0
   41.2590   26.6240   31.8380 H   0  0  0  0  0  0  0  0  0  0  0  0
   40.6760   28.3790   32.0360 H   0  0  0  0  0  0  0  0  0  0  0  0
   41.5100   28.3150   29.7500 H   0  0  0  0  0  0  0  0  0  0  0  0
   39.7130   28.1990   29.7030 H   0  0  0  0  0  0  0  0  0  0  0  0
   40.8550   26.3730   28.2460 H   0  0  0  0  0  0  0  0  0  0  0  0
   41.5240   25.7690   29.7880 H   0  0  0  0  0  0  0  0  0  0  0  0
   38.5280   26.0820   29.1740 H   0  0  0  0  0  0  0  0  0  0  0  0
   39.4480   24.5730   29.1730 H   0  0  0  0  0  0  0  0  0  0  0  0
   40.0450   24.9090   31.5090 H   0  0  0  0  0  0  0  0  0  0  0  0
   37.6210   27.5320   33.5950 C   0  0  0  0  0  0  0  0  0  0  0  0
   37.2840   27.4490   34.9390 C   0  0  0  0  0  0  0  0  0  0  0  0
   38.0720   26.6970   35.8240 C   0  0  0  0  0  0  0  0  0  0  0  0
   39.1770   26.0590   35.3020 C   0  0  0  0  0  0  0  0  0  0  0  0
   39.5230   26.1310   33.9760 C   0  0  0  0  0  0  0  0  0  0  0  0
   38.7180   26.8910   33.1030 C   0  0  0  0  0  0  0  0  0  0  0  0
   36.4140   27.9530   35.3470 H   0  0  0  0  0  0  0  0  0  0  0  0
   37.7680   26.6620   36.8640 H   0  0  0  0  0  0  0  0  0  0  0  0
   39.7540   25.4890   36.0310 H   0  0  0  0  0  0  0  0  0  0  0  0
   40.3930   25.6000   33.6840 H   0  0  0  0  0  0  0  0  0  0  0  0
   36.1050   29.6160   30.8330 C   0  0  0  0  0  0  0  0  0  0  0  0
   37.0560   28.8290   31.5170 C   0  0  0  0  0  0  0  0  0  0  0  0
   36.7380   28.3550   32.7890 C   0  0  0  0  0  0  0  0  0  0  0  0
   35.5290   28.6900   33.2740 N   0  0  0  0  0  0  0  0  0  0  0  0
   34.6270   29.4400   32.6160 C   0  0  0  0  0  0  0  0  0  0  0  0
   34.9180   29.8980   31.4060 N   0  0  0  0  0  0  0  0  0  0  0  0
   36.3400   29.9870   29.8520 H   0  0  0  0  0  0  0  0  0  0  0  0
   38.0070   28.5810   31.1050 H   0  0  0  0  0  0  0  0  0  0  0  0
   33.6770   29.6660   33.0720 H   0  0  0  0  0  0  0  0  0  0  0  0
   37.9230   24.7140   31.3310 C   0  0  0  0  0  0  0  0  0  0  0  0
   36.6900   25.1650   30.8980 C   0  0  0  0  0  0  0  0  0  0  0  0
   36.6070   26.1090   30.3770 H   0  0  0  0  0  0  0  0  0  0  0  0
   35.5540   24.3860   31.1440 C   0  0  0  0  0  0  0  0  0  0  0  0
   34.5640   24.7020   30.8220 H   0  0  0  0  0  0  0  0  0  0  0  0
   35.6290   23.1770   31.8070 C   0  0  0  0  0  3  0  0  0  0  0  0
   36.8820   22.7670   32.2210 C   0  0  0  0  0  3  0  0  0  0  0  0
   37.9840   23.5180   31.9860 N   0  0  0  0  0  0  0  0  0  0  0  0
  1  7  1  6  0  0  0
  1 22  1  0  0  0  0
  2  1  1  0  0  0  0
  2  8  1  0  0  0  0
  2  9  1  0  0  0  0
  3  2  1  0  0  0  0
  4  5  1  0  0  0  0
  4 13  1  0  0  0  0
  4  3  1  0  0  0  0
  5  6  1  0  0  0  0
  6 36  1  0  0  0  0
  6 16  1  1  0  0  0
  6  1  1  0  0  0  0
 10  3  1  0  0  0  0
 11  3  1  0  0  0  0
 12  4  1  0  0  0  0
 14  5  1  0  0  0  0
 15  5  1  0  0  0  0
 17 18  1  0  0  0  0
 18 23  1  0  0  0  0
 18 19  2  0  0  0  0
 19 24  1  0  0  0  0
 20 19  1  0  0  0  0
 20 25  1  0  0  0  0
 21 20  2  0  0  0  0
 22 17  2  0  0  0  0
 22 21  1  0  0  0  0
 26 21  1  0  0  0  0
 27 32  2  0  0  0  0
 27 28  1  0  0  0  0
 28 29  2  0  0  0  0
 29 30  1  0  0  0  0
 29 17  1  0  0  0  0
 31 35  1  0  0  0  0
 31 30  2  0  0  0  0
 32 31  1  0  0  0  0
 33 27  1  0  0  0  0
 34 28  1  0  0  0  0
 36 43  1  0  0  0  0
 37 39  1  0  0  0  0
 37 36  2  0  0  0  0
 38 37  1  0  0  0  0
 39 41  2  0  0  0  0
 40 39  1  0  0  0  0
 41 42  1  0  0  0  0
 43 42  2  0  0  0  0
M  END
>  <minimizedAffinity>
-5.39623165

$$$$

 OpenBabel03272503543D

 43 46  0  0  1  0  0  0  0  0999 V2000
   37.3160   23.8880   32.0960 C   0  0  1  0  0  0  0  0  0  0  0  0
   37.5410   25.2270   31.3400 C   0  0  0  0  0  0  0  0  0  0  0  0
   36.2570   26.0220   31.6070 C   0  0  0  0  0  0  0  0  0  0  0  0
   35.1670   25.3440   30.8380 C   0  0  0  0  0  0  0  0  0  0  0  0
   34.9970   23.9250   31.2970 C   0  0  0  0  0  0  0  0  0  0  0  0
   36.2990   23.1640   31.2630 C   0  0  2  0  0  0  0  0  0  0  0  0
   36.9250   24.2390   33.0580 H   0  0  0  0  0  0  0  0  0  0  0  0
   37.6700   24.9860   30.2740 H   0  0  0  0  0  0  0  0  0  0  0  0
   38.3860   25.7860   31.7930 H   0  0  0  0  0  0  0  0  0  0  0  0
   36.3660   27.0780   31.3700 H   0  0  0  0  0  0  0  0  0  0  0  0
   36.0250   25.9090   32.6970 H   0  0  0  0  0  0  0  0  0  0  0  0
   34.2000   25.8550   30.8460 H   0  0  0  0  0  0  0  0  0  0  0  0
   35.5110   25.2870   29.7740 H   0  0  0  0  0  0  0  0  0  0  0  0
   34.6250   23.8850   32.3630 H   0  0  0  0  0  0  0  0  0  0  0  0
   34.2270   23.3930   30.7120 H   0  0  0  0  0  0  0  0  0  0  0  0
   36.5920   23.1550   30.1890 H   0  0  0  0  0  0  0  0  0  0  0  0
   39.1450   22.8350   33.4590 C   0  0  0  0  0  0  0  0  0  0  0  0
   40.3070   22.0780   33.5190 C   0  0  0  0  0  0  0  0  0  0  0  0
   40.9200   21.6230   32.3410 C   0  0  0  0  0  0  0  0  0  0  0  0
   40.3220   21.9590   31.1460 C   0  0  0  0  0  0  0  0  0  0  0  0
   39.1730   22.7070   31.0700 C   0  0  0  0  0  0  0  0  0  0  0  0
   38.5730   23.1540   32.2640 C   0  0  0  0  0  0  0  0  0  0  0  0
   40.7750   21.8160   34.4620 H   0  0  0  0  0  0  0  0  0  0  0  0
   41.8250   21.0350   32.4400 H   0  0  0  0  0  0  0  0  0  0  0  0
   40.8380   21.5810   30.2620 H   0  0  0  0  0  0  0  0  0  0  0  0
   38.8010   22.9060   30.0970 H   0  0  0  0  0  0  0  0  0  0  0  0
   38.2150   24.8340   36.5270 C   0  0  0  0  0  0  0  0  0  0  0  0
   38.7810   24.5440   35.2660 C   0  0  0  0  0  0  0  0  0  0  0  0
   38.6210   23.2610   34.7440 C   0  0  0  0  0  0  0  0  0  0  0  0
   37.9290   22.3850   35.4940 N   0  0  0  0  0  0  0  0  0  0  0  0
   37.3920   22.6690   36.6940 C   0  0  0  0  0  0  0  0  0  0  0  0
   37.5380   23.8840   37.2030 N   0  0  0  0  0  0  0  0  0  0  0  0
   38.3330   25.8190   36.9400 H   0  0  0  0  0  0  0  0  0  0  0  0
   39.3250   25.2610   34.6970 H   0  0  0  0  0  0  0  0  0  0  0  0
   36.8500   21.9110   37.2360 H   0  0  0  0  0  0  0  0  0  0  0  0
   36.0560   21.7770   31.7340 C   0  0  0  0  0  0  0  0  0  0  0  0
   36.1730   20.6780   30.9040 C   0  0  0  0  0  0  0  0  0  0  0  0
   36.4500   20.8050   29.8670 H   0  0  0  0  0  0  0  0  0  0  0  0
   35.9280   19.4010   31.4240 C   0  0  0  0  0  0  0  0  0  0  0  0
   36.0080   18.5080   30.8080 H   0  0  0  0  0  0  0  0  0  0  0  0
   35.5730   19.2080   32.7440 C   0  0  0  0  0  3  0  0  0  0  0  0
   35.4680   20.3360   33.5360 C   0  0  0  0  0  3  0  0  0  0  0  0
   35.7040   21.5720   33.0380 N   0  0  0  0  0  0  0  0  0  0  0  0
  1 22  1  0  0  0  0
  1  7  1  1  0  0  0
  2  3  1  0  0  0  0
  2  9  1  0  0  0  0
  2  1  1  0  0  0  0
  3 11  1  0  0  0  0
  4 12  1  0  0  0  0
  4  5  1  0  0  0  0
  4  3  1  0  0  0  0
  5 14  1  0  0  0  0
  6 16  1  6  0  0  0
  6  5  1  0  0  0  0
  6 36  1  0  0  0  0
  6  1  1  0  0  0  0
  8  2  1  0  0  0  0
 10  3  1  0  0  0  0
 13  4  1  0  0  0  0
 15  5  1  0  0  0  0
 17 18  1  0  0  0  0
 17 29  1  0  0  0  0
 18 23  1  0  0  0  0
 19 24  1  0  0  0  0
 19 18  2  0  0  0  0
 20 19  1  0  0  0  0
 21 20  2  0  0  0  0
 21 22  1  0  0  0  0
 22 17  2  0  0  0  0
 25 20  1  0  0  0  0
 26 21  1  0  0  0  0
 27 33  1  0  0  0  0
 27 32  1  0  0  0  0
 28 27  2  0  0  0  0
 29 28  1  0  0  0  0
 29 30  2  0  0  0  0
 30 31  1  0  0  0  0
 31 32  2  0  0  0  0
 31 35  1  0  0  0  0
 34 28  1  0  0  0  0
 36 43  1  0  0  0  0
 37 39  1  0  0  0  0
 37 36  2  0  0  0  0
 38 37  1  0  0  0  0
 39 41  2  0  0  0  0
 40 39  1  0  0  0  0
 41 42  1  0  0  0  0
 43 42  2  0  0  0  0
M  END
>  <minimizedAffinity>
-5.38732719

$$$$

 OpenBabel03272503543D

 43 46  0  0  1  0  0  0  0  0999 V2000
   32.6970   29.8080   35.3010 C   0  0  1  0  0  0  0  0  0  0  0  0
   32.0510   29.1140   36.5320 C   0  0  0  0  0  0  0  0  0  0  0  0
   31.3640   27.8770   35.9390 C   0  0  0  0  0  0  0  0  0  0  0  0
   30.1990   28.3740   35.1430 C   0  0  0  0  0  0  0  0  0  0  0  0
   30.6590   29.2840   34.0410 C   0  0  0  0  0  0  0  0  0  0  0  0
   31.5330   30.3990   34.5600 C   0  0  2  0  0  0  0  0  0  0  0  0
   33.1600   28.9590   34.7850 H   0  0  0  0  0  0  0  0  0  0  0  0
   31.3320   29.8220   36.9690 H   0  0  0  0  0  0  0  0  0  0  0  0
   32.8370   28.7620   37.2310 H   0  0  0  0  0  0  0  0  0  0  0  0
   31.0940   27.1480   36.7000 H   0  0  0  0  0  0  0  0  0  0  0  0
   32.0920   27.4130   35.2240 H   0  0  0  0  0  0  0  0  0  0  0  0
   29.5440   27.5980   34.7350 H   0  0  0  0  0  0  0  0  0  0  0  0
   29.5860   29.0080   35.8330 H   0  0  0  0  0  0  0  0  0  0  0  0
   31.2720   28.7200   33.2780 H   0  0  0  0  0  0  0  0  0  0  0  0
   29.8110   29.6980   33.4680 H   0  0  0  0  0  0  0  0  0  0  0  0
   30.8740   30.9780   35.2440 H   0  0  0  0  0  0  0  0  0  0  0  0
   34.9490   30.9160   35.1860 C   0  0  0  0  0  0  0  0  0  0  0  0
   35.8060   31.9280   35.5960 C   0  0  0  0  0  0  0  0  0  0  0  0
   35.3980   32.8550   36.5680 C   0  0  0  0  0  0  0  0  0  0  0  0
   34.1280   32.7110   37.0850 C   0  0  0  0  0  0  0  0  0  0  0  0
   33.2690   31.7160   36.6900 C   0  0  0  0  0  0  0  0  0  0  0  0
   33.6980   30.7960   35.7130 C   0  0  0  0  0  0  0  0  0  0  0  0
   36.8050   32.0380   35.1870 H   0  0  0  0  0  0  0  0  0  0  0  0
   36.1020   33.6270   36.8550 H   0  0  0  0  0  0  0  0  0  0  0  0
   33.8610   33.4560   37.8360 H   0  0  0  0  0  0  0  0  0  0  0  0
   32.3160   31.7010   37.1550 H   0  0  0  0  0  0  0  0  0  0  0  0
   36.1120   29.3290   31.9610 C   0  0  0  0  0  0  0  0  0  0  0  0
   35.5470   30.2920   32.8260 C   0  0  0  0  0  0  0  0  0  0  0  0
   35.4960   30.0120   34.1910 C   0  0  0  0  0  0  0  0  0  0  0  0
   35.9980   28.8270   34.5840 N   0  0  0  0  0  0  0  0  0  0  0  0
   36.5350   27.9160   33.7540 C   0  0  0  0  0  0  0  0  0  0  0  0
   36.5890   28.1690   32.4550 N   0  0  0  0  0  0  0  0  0  0  0  0
   36.1560   29.5340   30.9070 H   0  0  0  0  0  0  0  0  0  0  0  0
   35.1570   31.2210   32.4820 H   0  0  0  0  0  0  0  0  0  0  0  0
   36.9170   26.9880   34.1470 H   0  0  0  0  0  0  0  0  0  0  0  0
   31.9540   31.2500   33.4190 C   0  0  0  0  0  0  0  0  0  0  0  0
   32.1010   32.6200   33.5270 C   0  0  0  0  0  0  0  0  0  0  0  0
   31.9080   33.1170   34.4680 H   0  0  0  0  0  0  0  0  0  0  0  0
   32.5010   33.3540   32.4040 C   0  0  0  0  0  0  0  0  0  0  0  0
   32.6290   34.4330   32.4430 H   0  0  0  0  0  0  0  0  0  0  0  0
   32.7550   32.7470   31.1900 C   0  0  0  0  0  3  0  0  0  0  0  0
   32.5940   31.3760   31.1290 C   0  0  0  0  0  3  0  0  0  0  0  0
   32.2070   30.6620   32.2120 N   0  0  0  0  0  0  0  0  0  0  0  0
  1  7  1  6  0  0  0
  1 22  1  0  0  0  0
  1  2  1  0  0  0  0
  2  8  1  0  0  0  0
  2  9  1  0  0  0  0
  3  2  1  0  0  0  0
  3 10  1  0  0  0  0
  4 13  1  0  0  0  0
  4  3  1  0  0  0  0
  5  6  1  0  0  0  0
  5  4  1  0  0  0  0
  6 16  1  1  0  0  0
  6  1  1  0  0  0  0
 11  3  1  0  0  0  0
 12  4  1  0  0  0  0
 14  5  1  0  0  0  0
 15  5  1  0  0  0  0
 17 18  2  0  0  0  0
 17 22  1  0  0  0  0
 18 19  1  0  0  0  0
 19 24  1  0  0  0  0
 19 20  2  0  0  0  0
 20 25  1  0  0  0  0
 21 20  1  0  0  0  0
 21 26  1  0  0  0  0
 22 21  2  0  0  0  0
 23 18  1  0  0  0  0
 27 32  2  0  0  0  0
 27 28  1  0  0  0  0
 28 29  2  0  0  0  0
 29 30  1  0  0  0  0
 29 17  1  0  0  0  0
 31 35  1  0  0  0  0
 31 30  2  0  0  0  0
 32 31  1  0  0  0  0
 33 27  1  0  0  0  0
 34 28  1  0  0  0  0
 36 37  1  0  0  0  0
 36  6  1  0  0  0  0
 37 38  1  0  0  0  0
 39 40  1  0  0  0  0
 39 37  2  0  0  0  0
 41 39  1  0  0  0  0
 42 41  2  0  0  0  0
 42 43  1  0  0  0  0
 43 36  2  0  0  0  0
M  END
>  <minimizedAffinity>
-5.32299519

$$$$

 OpenBabel03272503543D

 43 46  0  0  1  0  0  0  0  0999 V2000
   38.4110   22.5860   34.5380 C   0  0  1  0  0  0  0  0  0  0  0  0
   37.2150   21.6190   34.3190 C   0  0  0  0  0  0  0  0  0  0  0  0
   37.3440   21.2010   32.8490 C   0  0  0  0  0  0  0  0  0  0  0  0
   36.9980   22.4040   32.0300 C   0  0  0  0  0  0  0  0  0  0  0  0
   37.9390   23.5360   32.3260 C   0  0  0  0  0  0  0  0  0  0  0  0
   38.0130   23.8330   33.8040 C   0  0  2  0  0  0  0  0  0  0  0  0
   39.2310   22.0380   34.0600 H   0  0  0  0  0  0  0  0  0  0  0  0
   36.2930   22.1850   34.5140 H   0  0  0  0  0  0  0  0  0  0  0  0
   37.3390   20.7080   34.9410 H   0  0  0  0  0  0  0  0  0  0  0  0
   36.7440   20.3250   32.6120 H   0  0  0  0  0  0  0  0  0  0  0  0
   38.4260   20.9670   32.6700 H   0  0  0  0  0  0  0  0  0  0  0  0
   36.9470   22.2380   30.9500 H   0  0  0  0  0  0  0  0  0  0  0  0
   35.9880   22.7450   32.3700 H   0  0  0  0  0  0  0  0  0  0  0  0
   38.9900   23.2880   31.9920 H   0  0  0  0  0  0  0  0  0  0  0  0
   37.6760   24.4490   31.7650 H   0  0  0  0  0  0  0  0  0  0  0  0
   36.9820   24.1500   34.0790 H   0  0  0  0  0  0  0  0  0  0  0  0
   39.9020   22.8440   36.5440 C   0  0  0  0  0  0  0  0  0  0  0  0
   40.0490   23.1160   37.8980 C   0  0  0  0  0  0  0  0  0  0  0  0
   38.9230   23.3510   38.7020 C   0  0  0  0  0  0  0  0  0  0  0  0
   37.6880   23.2980   38.0920 C   0  0  0  0  0  0  0  0  0  0  0  0
   37.5260   23.0310   36.7560 C   0  0  0  0  0  0  0  0  0  0  0  0
   38.6690   22.7980   35.9650 C   0  0  0  0  0  0  0  0  0  0  0  0
   41.0230   23.1560   38.3740 H   0  0  0  0  0  0  0  0  0  0  0  0
   39.0890   23.5590   39.7520 H   0  0  0  0  0  0  0  0  0  0  0  0
   36.8470   23.4880   38.7610 H   0  0  0  0  0  0  0  0  0  0  0  0
   36.5290   23.0150   36.3930 H   0  0  0  0  0  0  0  0  0  0  0  0
   43.3400   23.1580   35.0110 C   0  0  0  0  0  0  0  0  0  0  0  0
   42.1830   23.5210   35.7340 C   0  0  0  0  0  0  0  0  0  0  0  0
   41.1400   22.6000   35.8270 C   0  0  0  0  0  0  0  0  0  0  0  0
   41.3210   21.4170   35.2120 N   0  0  0  0  0  0  0  0  0  0  0  0
   42.4280   21.0790   34.5260 C   0  0  0  0  0  0  0  0  0  0  0  0
   43.4250   21.9450   34.4290 N   0  0  0  0  0  0  0  0  0  0  0  0
   44.1500   23.8610   34.9320 H   0  0  0  0  0  0  0  0  0  0  0  0
   42.0700   24.4680   36.2100 H   0  0  0  0  0  0  0  0  0  0  0  0
   42.4970   20.1100   34.0600 H   0  0  0  0  0  0  0  0  0  0  0  0
   38.9640   24.9530   34.0210 C   0  0  0  0  0  0  0  0  0  0  0  0
   38.7470   25.9400   34.9630 C   0  0  0  0  0  0  0  0  0  0  0  0
   37.8580   25.9210   35.5790 H   0  0  0  0  0  0  0  0  0  0  0  0
   39.6900   26.9640   35.1080 C   0  0  0  0  0  0  0  0  0  0  0  0
   39.5610   27.7620   35.8370 H   0  0  0  0  0  0  0  0  0  0  0  0
   40.8340   27.0150   34.3360 C   0  0  0  0  0  3  0  0  0  0  0  0
   41.0090   26.0070   33.4070 C   0  0  0  0  0  3  0  0  0  0  0  0
   40.0980   25.0150   33.2640 N   0  0  0  0  0  0  0  0  0  0  0  0
  1  7  1  6  0  0  0
  1 22  1  0  0  0  0
  2  8  1  0  0  0  0
  2  1  1  0  0  0  0
  2  9  1  0  0  0  0
  3  2  1  0  0  0  0
  4  5  1  0  0  0  0
  4 13  1  0  0  0  0
  4  3  1  0  0  0  0
  5  6  1  0  0  0  0
  6 36  1  0  0  0  0
  6 16  1  1  0  0  0
  6  1  1  0  0  0  0
 10  3  1  0  0  0  0
 11  3  1  0  0  0  0
 12  4  1  0  0  0  0
 14  5  1  0  0  0  0
 15  5  1  0  0  0  0
 17 18  1  0  0  0  0
 18 23  1  0  0  0  0
 18 19  2  0  0  0  0
 19 24  1  0  0  0  0
 20 19  1  0  0  0  0
 20 25  1  0  0  0  0
 21 20  2  0  0  0  0
 22 17  2  0  0  0  0
 22 21  1  0  0  0  0
 26 21  1  0  0  0  0
 27 28  1  0  0  0  0
 28 29  2  0  0  0  0
 28 34  1  0  0  0  0
 29 17  1  0  0  0  0
 30 29  1  0  0  0  0
 31 30  2  0  0  0  0
 32 31  1  0  0  0  0
 32 27  2  0  0  0  0
 33 27  1  0  0  0  0
 35 31  1  0  0  0  0
 36 37  1  0  0  0  0
 37 39  2  0  0  0  0
 37 38  1  0  0  0  0
 39 40  1  0  0  0  0
 41 39  1  0  0  0  0
 42 41  2  0  0  0  0
 43 42  1  0  0  0  0
 43 36  2  0  0  0  0
M  END
>  <minimizedAffinity>
-5.2932148

$$$$
