
 OpenBabel03272505113D

 38 41  0  0  0  0  0  0  0  0999 V2000
   36.4130   30.8930   45.6870 Cl  0  0  0  0  0  0  0  0  0  0  0  0
   36.6840   30.7700   47.4030 C   0  0  0  0  0  0  0  0  0  0  0  0
   37.9420   31.1080   47.8690 C   0  0  0  0  0  0  0  0  0  0  0  0
   38.1720   31.0150   49.2290 C   0  0  0  0  0  0  0  0  0  0  0  0
   37.1640   30.5970   50.0640 C   0  0  0  0  0  0  0  0  0  0  0  0
   35.9210   30.2720   49.5240 C   0  0  0  0  0  0  0  0  0  0  0  0
   35.6250   30.3400   48.1920 C   0  0  0  0  0  0  0  0  0  0  0  0
   39.1570   31.2830   49.5790 H   0  0  0  0  0  0  0  0  0  0  0  0
   37.3350   30.5200   51.1370 H   0  0  0  0  0  0  0  0  0  0  0  0
   35.1480   29.9450   50.2170 H   0  0  0  0  0  0  0  0  0  0  0  0
   40.2170   33.3270   46.0880 C   0  0  0  0  0  0  0  0  0  0  0  0
   40.9350   32.4740   45.2270 C   0  0  0  0  0  0  0  0  0  0  0  0
   40.6160   31.1050   45.2730 C   0  0  0  0  0  0  0  0  0  0  0  0
   39.6450   30.6870   46.1360 N   0  0  0  0  0  0  0  0  0  0  0  0
   38.9920   31.5520   46.9360 C   0  0  0  0  0  0  0  0  0  0  0  0
   39.2760   32.8510   46.9110 N   0  0  0  0  0  0  0  0  0  0  0  0
   40.4810   34.3600   46.0310 H   0  0  0  0  0  0  0  0  0  0  0  0
   41.7030   32.7770   44.5410 H   0  0  0  0  0  0  0  0  0  0  0  0
   41.0840   30.3370   44.6720 H   0  0  0  0  0  0  0  0  0  0  0  0
   34.0650   29.9360   47.4870 S   0  0  0  0  0  0  0  0  0  0  0  0
   33.9460   29.1350   44.4510 Cl  0  0  0  0  0  0  0  0  0  0  0  0
   33.8940   27.9090   45.7120 C   0  0  0  0  0  0  0  0  0  0  0  0
   33.9410   28.1910   47.0780 C   0  0  0  0  0  0  0  0  0  0  0  0
   33.8930   27.1510   47.9880 C   0  0  0  0  0  0  0  0  0  0  0  0
   33.7990   25.8640   47.5600 C   0  0  0  0  0  0  0  0  0  0  0  0
   33.7490   25.5470   46.2160 C   0  0  0  0  0  0  0  0  0  0  0  0
   33.7980   26.5780   45.3230 C   0  0  0  0  0  0  0  0  0  0  0  0
   33.9380   27.5150   49.0120 H   0  0  0  0  0  0  0  0  0  0  0  0
   33.7650   25.1140   48.3410 H   0  0  0  0  0  0  0  0  0  0  0  0
   33.6770   24.5070   45.9990 H   0  0  0  0  0  0  0  0  0  0  0  0
   33.7490   26.2900   43.8950 C   0  0  0  0  0  0  0  0  0  0  0  0
   32.5780   26.1660   43.1850 C   0  0  0  0  0  0  0  0  0  0  0  0
   31.6220   26.2810   43.6720 H   0  0  0  0  0  0  0  0  0  0  0  0
   32.4970   25.8940   41.8360 C   0  0  0  0  0  0  0  0  0  0  0  0
   31.5600   25.8050   41.3140 H   0  0  0  0  0  0  0  0  0  0  0  0
   33.6680   25.7300   41.1240 C   0  0  0  0  0  3  0  0  0  0  0  0
   34.8210   25.8610   41.8690 C   0  0  0  0  0  3  0  0  0  0  0  0
   34.8520   26.1240   43.1730 N   0  0  0  0  0  0  0  0  0  0  0  0
  1  2  1  0  0  0  0
  2  3  2  0  0  0  0
  2  7  1  0  0  0  0
  3  4  1  0  0  0  0
  4  8  1  0  0  0  0
  4  5  2  0  0  0  0
  5  9  1  0  0  0  0
  6  5  1  0  0  0  0
  6 10  1  0  0  0  0
  7  6  2  0  0  0  0
 11 16  1  0  0  0  0
 12 13  1  0  0  0  0
 12 11  2  0  0  0  0
 13 14  2  0  0  0  0
 14 15  1  0  0  0  0
 15  3  1  0  0  0  0
 16 15  2  0  0  0  0
 17 11  1  0  0  0  0
 18 12  1  0  0  0  0
 19 13  1  0  0  0  0
 20  7  1  0  0  0  0
 21 22  1  0  0  0  0
 22 23  1  0  0  0  0
 23 20  1  0  0  0  0
 23 24  2  0  0  0  0
 24 28  1  0  0  0  0
 25 24  1  0  0  0  0
 25 29  1  0  0  0  0
 26 25  2  0  0  0  0
 27 22  2  0  0  0  0
 27 26  1  0  0  0  0
 30 26  1  0  0  0  0
 31 27  1  0  0  0  0
 32 33  1  0  0  0  0
 32 31  1  0  0  0  0
 34 32  2  0  0  0  0
 35 34  1  0  0  0  0
 36 34  1  0  0  0  0
 36 37  2  0  0  0  0
 37 38  1  0  0  0  0
 38 31  2  0  0  0  0
M  END
>  <minimizedAffinity>
-5.64567232

>  <minimizedRMSD>
0.461137086

$$$$
