
 OpenBabel03272505123D

 38 41  0  0  0  0  0  0  0  0999 V2000
   36.4220   30.9090   45.7210 Cl  0  0  0  0  0  0  0  0  0  0  0  0
   36.7040   30.7970   47.4360 C   0  0  0  0  0  0  0  0  0  0  0  0
   37.9660   31.1370   47.8910 C   0  0  0  0  0  0  0  0  0  0  0  0
   38.2050   31.0530   49.2500 C   0  0  0  0  0  0  0  0  0  0  0  0
   37.2020   30.6430   50.0940 C   0  0  0  0  0  0  0  0  0  0  0  0
   35.9540   30.3170   49.5650 C   0  0  0  0  0  0  0  0  0  0  0  0
   35.6500   30.3760   48.2350 C   0  0  0  0  0  0  0  0  0  0  0  0
   39.1940   31.3210   49.5910 H   0  0  0  0  0  0  0  0  0  0  0  0
   37.3800   30.5740   51.1670 H   0  0  0  0  0  0  0  0  0  0  0  0
   35.1860   29.9970   50.2660 H   0  0  0  0  0  0  0  0  0  0  0  0
   40.2320   33.3370   46.0770 C   0  0  0  0  0  0  0  0  0  0  0  0
   40.9430   32.4760   45.2180 C   0  0  0  0  0  0  0  0  0  0  0  0
   40.6230   31.1080   45.2780 C   0  0  0  0  0  0  0  0  0  0  0  0
   39.6570   30.6980   46.1500 N   0  0  0  0  0  0  0  0  0  0  0  0
   39.0100   31.5710   46.9470 C   0  0  0  0  0  0  0  0  0  0  0  0
   39.2960   32.8700   46.9090 N   0  0  0  0  0  0  0  0  0  0  0  0
   40.4970   34.3690   46.0090 H   0  0  0  0  0  0  0  0  0  0  0  0
   41.7070   32.7730   44.5240 H   0  0  0  0  0  0  0  0  0  0  0  0
   41.0860   30.3350   44.6800 H   0  0  0  0  0  0  0  0  0  0  0  0
   34.0830   29.9700   47.5440 S   0  0  0  0  0  0  0  0  0  0  0  0
   33.9620   29.1790   44.5060 Cl  0  0  0  0  0  0  0  0  0  0  0  0
   33.9130   27.9490   45.7630 C   0  0  0  0  0  0  0  0  0  0  0  0
   33.9610   28.2270   47.1290 C   0  0  0  0  0  0  0  0  0  0  0  0
   33.9130   27.1840   48.0370 C   0  0  0  0  0  0  0  0  0  0  0  0
   33.8200   25.8980   47.6050 C   0  0  0  0  0  0  0  0  0  0  0  0
   33.7690   25.5850   46.2590 C   0  0  0  0  0  0  0  0  0  0  0  0
   33.8160   26.6200   45.3700 C   0  0  0  0  0  0  0  0  0  0  0  0
   33.9600   27.5450   49.0620 H   0  0  0  0  0  0  0  0  0  0  0  0
   33.7880   25.1460   48.3830 H   0  0  0  0  0  0  0  0  0  0  0  0
   33.6970   24.5470   46.0380 H   0  0  0  0  0  0  0  0  0  0  0  0
   33.7660   26.3360   43.9410 C   0  0  0  0  0  0  0  0  0  0  0  0
   34.8830   26.0920   43.1760 C   0  0  0  0  0  0  0  0  0  0  0  0
   35.8680   26.1010   43.6160 H   0  0  0  0  0  0  0  0  0  0  0  0
   34.8700   25.8210   41.8240 C   0  0  0  0  0  0  0  0  0  0  0  0
   35.7670   25.6340   41.2580 H   0  0  0  0  0  0  0  0  0  0  0  0
   33.6560   25.7870   41.1690 C   0  0  0  0  0  3  0  0  0  0  0  0
   32.5600   26.0360   41.9680 C   0  0  0  0  0  3  0  0  0  0  0  0
   32.6190   26.2950   43.2710 N   0  0  0  0  0  0  0  0  0  0  0  0
  1  2  1  0  0  0  0
  2  3  2  0  0  0  0
  2  7  1  0  0  0  0
  3  4  1  0  0  0  0
  4  8  1  0  0  0  0
  4  5  2  0  0  0  0
  5  9  1  0  0  0  0
  6  5  1  0  0  0  0
  6 10  1  0  0  0  0
  7  6  2  0  0  0  0
 11 16  1  0  0  0  0
 12 13  1  0  0  0  0
 12 11  2  0  0  0  0
 13 14  2  0  0  0  0
 14 15  1  0  0  0  0
 15  3  1  0  0  0  0
 16 15  2  0  0  0  0
 17 11  1  0  0  0  0
 18 12  1  0  0  0  0
 19 13  1  0  0  0  0
 20  7  1  0  0  0  0
 21 22  1  0  0  0  0
 22 23  1  0  0  0  0
 23 20  1  0  0  0  0
 23 24  2  0  0  0  0
 24 28  1  0  0  0  0
 25 24  1  0  0  0  0
 25 29  1  0  0  0  0
 26 25  2  0  0  0  0
 27 22  2  0  0  0  0
 27 26  1  0  0  0  0
 30 26  1  0  0  0  0
 31 27  1  0  0  0  0
 32 33  1  0  0  0  0
 32 31  2  0  0  0  0
 34 32  1  0  0  0  0
 35 34  1  0  0  0  0
 36 34  2  0  0  0  0
 36 37  1  0  0  0  0
 37 38  2  0  0  0  0
 38 31  1  0  0  0  0
M  END
>  <minimizedAffinity>
-5.6756587

>  <minimizedRMSD>
0.464039952

$$$$
