
 OpenBabel03272506273D

 41 44  0  0  0  0  0  0  0  0999 V2000
   30.8940   26.7730   46.7820 C   0  0  0  0  0  0  0  0  0  0  0  0
   30.7360   25.4080   46.6330 C   0  0  0  0  0  0  0  0  0  0  0  0
   31.4460   24.6280   45.7210 C   0  0  0  0  0  0  0  0  0  0  0  0
   32.3910   25.2720   44.8900 C   0  0  0  0  0  0  0  0  0  0  0  0
   32.5320   26.6310   45.0570 C   0  0  0  0  0  0  0  0  0  0  0  0
   31.8330   27.3840   45.9520 C   0  0  0  0  0  0  0  0  0  0  0  0
   30.0080   24.8700   47.2630 H   0  0  0  0  0  0  0  0  0  0  0  0
   31.2320   23.5460   45.6940 H   0  0  0  0  0  0  0  0  0  0  0  0
   32.8700   24.5800   44.2370 H   0  0  0  0  0  0  0  0  0  0  0  0
   33.2680   26.9190   44.3480 H   0  0  0  0  0  0  0  0  0  0  0  0
   30.5930   27.4810   49.0750 C   0  0  0  0  0  0  0  0  0  0  0  0
   30.0730   27.4120   47.7720 C   0  0  0  0  0  0  0  0  0  0  0  0
   28.8130   27.9690   47.5390 C   0  0  0  0  0  0  0  0  0  0  0  0
   28.1460   28.5470   48.5710 N   0  0  0  0  0  0  0  0  0  0  0  0
   28.6710   28.6000   49.8290 C   0  0  0  0  0  0  0  0  0  0  0  0
   29.8990   28.0640   50.0740 N   0  0  0  0  0  0  0  0  0  0  0  0
   31.5580   27.0660   49.2930 H   0  0  0  0  0  0  0  0  0  0  0  0
   28.0920   29.0760   50.6160 H   0  0  0  0  0  0  0  0  0  0  0  0
   28.1340   27.9700   46.2110 C   0  0  0  0  0  0  0  0  0  0  0  0
   26.8720   28.5880   46.3280 F   0  0  0  0  0  0  0  0  0  0  0  0
   28.8050   28.5570   45.2010 F   0  0  0  0  0  0  0  0  0  0  0  0
   27.8240   26.6670   45.8430 F   0  0  0  0  0  0  0  0  0  0  0  0
   32.0350   29.1170   46.1500 S   0  0  0  0  0  0  0  0  0  0  0  0
   33.5550   29.3710   48.8500 Cl  0  0  0  0  0  0  0  0  0  0  0  0
   34.3650   29.7260   47.3400 C   0  0  0  0  0  0  0  0  0  0  0  0
   33.7230   29.6500   46.1030 C   0  0  0  0  0  0  0  0  0  0  0  0
   34.3910   29.9590   44.9570 C   0  0  0  0  0  0  0  0  0  0  0  0
   35.7150   30.3450   45.0410 C   0  0  0  0  0  0  0  0  0  0  0  0
   36.3600   30.4210   46.2770 C   0  0  0  0  0  0  0  0  0  0  0  0
   35.6880   30.1120   47.4370 C   0  0  0  0  0  0  0  0  0  0  0  0
   33.9870   29.9680   43.9780 H   0  0  0  0  0  0  0  0  0  0  0  0
   36.2900   30.5990   44.1540 H   0  0  0  0  0  0  0  0  0  0  0  0
   37.3960   30.7300   46.2740 H   0  0  0  0  0  0  0  0  0  0  0  0
   36.3310   30.1820   48.7430 C   0  0  0  0  0  0  0  0  0  0  0  0
   36.6350   31.3530   49.3790 C   0  0  0  0  0  0  0  0  0  0  0  0
   36.4070   32.2940   48.9260 H   0  0  0  0  0  0  0  0  0  0  0  0
   37.2470   31.4340   50.6210 C   0  0  0  0  0  0  0  0  0  0  0  0
   37.4660   32.3920   51.0780 H   0  0  0  0  0  0  0  0  0  0  0  0
   37.5800   30.2680   51.2790 C   0  0  0  0  0  3  0  0  0  0  0  0
   37.2690   29.0900   50.6320 C   0  0  0  0  0  3  0  0  0  0  0  0
   36.6730   29.0700   49.4250 N   0  0  0  0  0  0  0  0  0  0  0  0
  1 12  1  0  0  0  0
  2  1  1  0  0  0  0
  2  7  1  0  0  0  0
  3  2  2  0  0  0  0
  4  5  2  0  0  0  0
  4  3  1  0  0  0  0
  5  6  1  0  0  0  0
  6 23  1  0  0  0  0
  6  1  2  0  0  0  0
  8  3  1  0  0  0  0
  9  4  1  0  0  0  0
 10  5  1  0  0  0  0
 11 17  1  0  0  0  0
 11 16  1  0  0  0  0
 12 11  2  0  0  0  0
 13 12  1  0  0  0  0
 13 14  2  0  0  0  0
 14 15  1  0  0  0  0
 15 16  2  0  0  0  0
 15 18  1  0  0  0  0
 19 20  1  0  0  0  0
 19 13  1  0  0  0  0
 21 19  1  0  0  0  0
 22 19  1  0  0  0  0
 25 30  1  0  0  0  0
 25 24  1  0  0  0  0
 26 23  1  0  0  0  0
 26 25  2  0  0  0  0
 27 28  2  0  0  0  0
 27 26  1  0  0  0  0
 28 29  1  0  0  0  0
 29 30  2  0  0  0  0
 30 34  1  0  0  0  0
 31 27  1  0  0  0  0
 32 28  1  0  0  0  0
 33 29  1  0  0  0  0
 34 35  2  0  0  0  0
 34 41  1  0  0  0  0
 35 37  1  0  0  0  0
 36 35  1  0  0  0  0
 37 38  1  0  0  0  0
 37 39  2  0  0  0  0
 40 39  1  0  0  0  0
 41 40  2  0  0  0  0
M  END
>  <minimizedAffinity>
-5.85258389

>  <minimizedRMSD>
4.06014252

$$$$
