
 OpenBabel03272508563D

 39 42  0  0  1  0  0  0  0  0999 V2000
   38.3810   31.8900   44.5270 C   0  0  0  0  0  0  0  0  0  0  0  0
   37.2560   32.4370   44.4180 O   0  0  0  0  0  0  0  0  0  0  0  0
   38.9560   31.6310   45.8370 N   0  0  0  0  0  0  0  0  0  0  0  0
   39.9430   31.3860   45.9720 H   0  0  0  0  0  0  0  0  0  0  0  0
   39.1550   31.4910   43.3400 C   0  0  0  0  0  0  0  0  0  0  0  0
   40.1410   30.5570   43.4800 C   0  0  0  0  0  0  0  0  0  0  0  0
   40.8600   30.1910   42.3540 C   0  0  0  0  0  0  0  0  0  0  0  0
   40.5320   30.7970   41.1570 C   0  0  0  0  0  0  0  0  0  0  0  0
   39.5290   31.7480   41.0140 C   0  0  0  0  0  0  0  0  0  0  0  0
   38.8730   32.0560   42.1440 N   0  0  0  0  0  0  0  0  0  0  0  0
   40.3950   30.0810   44.4310 H   0  0  0  0  0  0  0  0  0  0  0  0
   41.6380   29.4580   42.4500 H   0  0  0  0  0  0  0  0  0  0  0  0
   41.1250   30.4720   40.3220 H   0  0  0  0  0  0  0  0  0  0  0  0
   39.2360   32.3470   39.7200 C   0  0  0  0  0  0  0  0  0  0  0  0
   38.6860   33.4690   39.6760 O   0  0  0  0  0  0  0  0  0  0  0  0
   39.5590   31.6910   38.4580 C   0  0  0  0  0  0  0  0  0  0  0  0
   38.6890   30.7230   37.9990 C   0  0  0  0  0  0  0  0  0  0  0  0
   37.8010   30.4530   38.5410 H   0  0  0  0  0  0  0  0  0  0  0  0
   38.9340   30.0600   36.8080 C   0  0  0  0  0  0  0  0  0  0  0  0
   38.2710   29.2890   36.4100 H   0  0  0  0  0  0  0  0  0  0  0  0
   40.0780   30.4190   36.1240 C   0  0  0  0  0  3  0  0  0  0  0  0
   40.9640   31.3820   36.5630 C   0  0  0  0  0  3  0  0  0  0  0  0
   40.6570   31.9920   37.7410 N   0  0  0  0  0  0  0  0  0  0  0  0
   38.4370   31.1160   48.2100 C   0  0  2  0  0  0  0  0  0  0  0  0
   38.6740   32.5810   48.1280 C   0  0  0  0  0  0  0  0  0  0  0  0
   38.0770   31.7310   46.9750 C   0  0  1  0  0  0  0  0  0  0  0  0
   39.3570   30.5020   48.3010 H   0  0  0  0  0  0  0  0  0  0  0  0
   37.9970   33.2700   48.6630 H   0  0  0  0  0  0  0  0  0  0  0  0
   39.7010   32.9360   48.0240 H   0  0  0  0  0  0  0  0  0  0  0  0
   37.0080   31.9800   46.7790 H   0  0  0  0  0  0  0  0  0  0  0  0
   35.0630   30.2350   49.5070 C   0  0  0  0  0  0  0  0  0  0  0  0
   35.3940   29.5500   50.7180 C   0  0  0  0  0  0  0  0  0  0  0  0
   36.7910   29.4140   51.0730 C   0  0  0  0  0  0  0  0  0  0  0  0
   37.7530   29.9410   50.2440 N   0  0  0  0  0  0  0  0  0  0  0  0
   37.3460   30.5770   49.1090 C   0  0  0  0  0  0  0  0  0  0  0  0
   36.0250   30.7440   48.7090 N   0  0  0  0  0  0  0  0  0  0  0  0
   34.0400   30.3370   49.2460 H   0  0  0  0  0  0  0  0  0  0  0  0
   34.6450   29.1430   51.3600 H   0  0  0  0  0  0  0  0  0  0  0  0
   37.0310   28.8990   51.9840 H   0  0  0  0  0  0  0  0  0  0  0  0
  1  3  1  0  0  0  0
  2  1  2  0  0  0  0
  3  4  1  0  0  0  0
  3 26  1  0  0  0  0
  5  6  1  0  0  0  0
  5  1  1  0  0  0  0
  6 11  1  0  0  0  0
  7 12  1  0  0  0  0
  7  6  2  0  0  0  0
  8  7  1  0  0  0  0
  9  8  2  0  0  0  0
  9 10  1  0  0  0  0
 10  5  2  0  0  0  0
 13  8  1  0  0  0  0
 14  9  1  0  0  0  0
 15 14  2  0  0  0  0
 16 14  1  0  0  0  0
 17 16  1  0  0  0  0
 17 18  1  0  0  0  0
 19 17  2  0  0  0  0
 20 19  1  0  0  0  0
 21 22  2  0  0  0  0
 21 19  1  0  0  0  0
 22 23  1  0  0  0  0
 23 16  2  0  0  0  0
 24 27  1  6  0  0  0
 24 35  1  0  0  0  0
 25 24  1  0  0  0  0
 25 28  1  0  0  0  0
 26 30  1  6  0  0  0
 26 25  1  0  0  0  0
 26 24  1  0  0  0  0
 29 25  1  0  0  0  0
 31 32  1  0  0  0  0
 32 33  2  0  0  0  0
 32 38  1  0  0  0  0
 33 39  1  0  0  0  0
 34 33  1  0  0  0  0
 35 34  2  0  0  0  0
 36 35  1  0  0  0  0
 36 31  2  0  0  0  0
 37 31  1  0  0  0  0
M  END
>  <minimizedAffinity>
-4.94505548

>  <minimizedRMSD>
0.704800606

$$$$
