
 OpenBabel03272508563D

 39 42  0  0  1  0  0  0  0  0999 V2000
   38.3440   31.8780   44.6100 C   0  0  0  0  0  0  0  0  0  0  0  0
   37.1830   32.3420   44.4890 O   0  0  0  0  0  0  0  0  0  0  0  0
   38.9460   31.7180   45.9230 N   0  0  0  0  0  0  0  0  0  0  0  0
   39.9480   31.5470   46.0580 H   0  0  0  0  0  0  0  0  0  0  0  0
   39.1330   31.4800   43.4320 C   0  0  0  0  0  0  0  0  0  0  0  0
   40.1250   30.5540   43.5870 C   0  0  0  0  0  0  0  0  0  0  0  0
   40.8590   30.1890   42.4710 C   0  0  0  0  0  0  0  0  0  0  0  0
   40.5390   30.7870   41.2680 C   0  0  0  0  0  0  0  0  0  0  0  0
   39.5300   31.7300   41.1100 C   0  0  0  0  0  0  0  0  0  0  0  0
   38.8600   32.0370   42.2310 N   0  0  0  0  0  0  0  0  0  0  0  0
   40.3730   30.0850   44.5430 H   0  0  0  0  0  0  0  0  0  0  0  0
   41.6410   29.4620   42.5780 H   0  0  0  0  0  0  0  0  0  0  0  0
   41.1430   30.4630   40.4400 H   0  0  0  0  0  0  0  0  0  0  0  0
   39.2460   32.3200   39.8090 C   0  0  0  0  0  0  0  0  0  0  0  0
   38.7490   33.4670   39.7540 O   0  0  0  0  0  0  0  0  0  0  0  0
   39.5180   31.6290   38.5550 C   0  0  0  0  0  0  0  0  0  0  0  0
   40.5880   32.0670   37.8010 C   0  0  0  0  0  0  0  0  0  0  0  0
   41.2070   32.8880   38.1150 H   0  0  0  0  0  0  0  0  0  0  0  0
   40.9030   31.4550   36.5980 C   0  0  0  0  0  0  0  0  0  0  0  0
   41.7410   31.7710   35.9720 H   0  0  0  0  0  0  0  0  0  0  0  0
   40.0990   30.4020   36.2100 C   0  0  0  0  0  3  0  0  0  0  0  0
   39.0250   29.9460   36.9460 C   0  0  0  0  0  3  0  0  0  0  0  0
   38.7740   30.5970   38.1160 N   0  0  0  0  0  0  0  0  0  0  0  0
   38.4270   31.1680   48.2880 C   0  0  2  0  0  0  0  0  0  0  0  0
   38.6810   32.6310   48.2300 C   0  0  0  0  0  0  0  0  0  0  0  0
   38.0710   31.8090   47.0650 C   0  0  1  0  0  0  0  0  0  0  0  0
   39.3400   30.5410   48.3660 H   0  0  0  0  0  0  0  0  0  0  0  0
   38.0150   33.3190   48.7800 H   0  0  0  0  0  0  0  0  0  0  0  0
   39.7120   32.9750   48.1300 H   0  0  0  0  0  0  0  0  0  0  0  0
   37.0040   32.0740   46.8770 H   0  0  0  0  0  0  0  0  0  0  0  0
   35.0510   30.2350   49.5440 C   0  0  0  0  0  0  0  0  0  0  0  0
   35.3750   29.5960   50.7820 C   0  0  0  0  0  0  0  0  0  0  0  0
   36.7680   29.5070   51.1680 C   0  0  0  0  0  0  0  0  0  0  0  0
   37.7330   30.0350   50.3430 N   0  0  0  0  0  0  0  0  0  0  0  0
   37.3330   30.6260   49.1820 C   0  0  0  0  0  0  0  0  0  0  0  0
   36.0160   30.7460   48.7500 N   0  0  0  0  0  0  0  0  0  0  0  0
   34.0320   30.3010   49.2600 H   0  0  0  0  0  0  0  0  0  0  0  0
   34.6250   29.1870   51.4200 H   0  0  0  0  0  0  0  0  0  0  0  0
   37.0020   29.0260   52.0990 H   0  0  0  0  0  0  0  0  0  0  0  0
  1  3  1  0  0  0  0
  2  1  2  0  0  0  0
  3  4  1  0  0  0  0
  3 26  1  0  0  0  0
  5  6  1  0  0  0  0
  5  1  1  0  0  0  0
  6 11  1  0  0  0  0
  7 12  1  0  0  0  0
  7  6  2  0  0  0  0
  8  7  1  0  0  0  0
  9  8  2  0  0  0  0
  9 10  1  0  0  0  0
 10  5  2  0  0  0  0
 13  8  1  0  0  0  0
 14  9  1  0  0  0  0
 15 14  2  0  0  0  0
 16 14  1  0  0  0  0
 17 18  1  0  0  0  0
 17 16  2  0  0  0  0
 19 17  1  0  0  0  0
 20 19  1  0  0  0  0
 21 19  2  0  0  0  0
 21 22  1  0  0  0  0
 22 23  2  0  0  0  0
 23 16  1  0  0  0  0
 24 27  1  6  0  0  0
 24 35  1  0  0  0  0
 25 24  1  0  0  0  0
 25 28  1  0  0  0  0
 26 30  1  6  0  0  0
 26 25  1  0  0  0  0
 26 24  1  0  0  0  0
 29 25  1  0  0  0  0
 31 32  1  0  0  0  0
 32 33  2  0  0  0  0
 32 38  1  0  0  0  0
 33 39  1  0  0  0  0
 34 33  1  0  0  0  0
 35 34  2  0  0  0  0
 36 35  1  0  0  0  0
 36 31  2  0  0  0  0
 37 31  1  0  0  0  0
M  END
>  <minimizedAffinity>
-4.94501638

>  <minimizedRMSD>
0.471484512

$$$$
