
 OpenBabel03272500543D

 31 33  0  0  0  0  0  0  0  0999 V2000
   38.8920   31.2800   44.7220 C   0  0  0  0  0  0  0  0  0  0  0  0
   40.1120   31.8320   44.3610 C   0  0  0  0  0  0  0  0  0  0  0  0
   40.7250   32.8310   45.1030 C   0  0  0  0  0  0  0  0  0  0  0  0
   40.0780   33.3100   46.2760 C   0  0  0  0  0  0  0  0  0  0  0  0
   38.8730   32.7380   46.5960 C   0  0  0  0  0  0  0  0  0  0  0  0
   38.2750   31.7570   45.8730 C   0  0  0  0  0  0  0  0  0  0  0  0
   40.6310   31.4850   43.4670 H   0  0  0  0  0  0  0  0  0  0  0  0
   41.6900   33.2020   44.7370 H   0  0  0  0  0  0  0  0  0  0  0  0
   40.6740   34.0810   46.7380 H   0  0  0  0  0  0  0  0  0  0  0  0
   38.5620   33.2800   47.4640 H   0  0  0  0  0  0  0  0  0  0  0  0
   38.9460   29.0180   43.8630 C   0  0  0  0  0  0  0  0  0  0  0  0
   38.3580   30.2930   43.8060 C   0  0  0  0  0  0  0  0  0  0  0  0
   37.3230   30.4700   42.8740 C   0  0  0  0  0  0  0  0  0  0  0  0
   36.9420   29.4500   42.0930 N   0  0  0  0  0  0  0  0  0  0  0  0
   37.5110   28.2410   42.1580 C   0  0  0  0  0  0  0  0  0  0  0  0
   38.5060   28.0370   43.0380 N   0  0  0  0  0  0  0  0  0  0  0  0
   39.7470   28.7880   44.5460 H   0  0  0  0  0  0  0  0  0  0  0  0
   36.8990   31.4780   42.8680 H   0  0  0  0  0  0  0  0  0  0  0  0
   37.1980   27.4270   41.5250 H   0  0  0  0  0  0  0  0  0  0  0  0
   37.1770   30.4800   47.4990 C   0  0  0  0  0  0  0  0  0  0  0  0
   38.3110   30.4500   48.0930 O   0  0  0  0  0  0  0  0  0  0  0  0
   37.0630   31.1620   46.2350 N   0  0  0  0  0  0  0  0  0  0  0  0
   36.2090   31.2060   45.6750 H   0  0  0  0  0  0  0  0  0  0  0  0
   35.9710   29.8370   48.0700 C   0  0  0  0  0  0  0  0  0  0  0  0
   34.8400   29.7920   47.2830 C   0  0  0  0  0  0  0  0  0  0  0  0
   34.7630   30.1870   46.2880 H   0  0  0  0  0  0  0  0  0  0  0  0
   33.7180   29.1910   47.8200 C   0  0  0  0  0  0  0  0  0  0  0  0
   32.7520   29.0820   47.3190 H   0  0  0  0  0  0  0  0  0  0  0  0
   33.7840   28.6670   49.1120 C   0  0  0  0  0  0  0  0  0  0  0  0
   34.9430   28.7280   49.8810 C   0  0  0  0  0  0  0  0  0  0  0  0
   36.0170   29.3210   49.3250 N   0  0  0  0  0  0  0  0  0  0  0  0
  1  6  1  0  0  0  0
  2  1  2  0  0  0  0
  2  3  1  0  0  0  0
  3  4  2  0  0  0  0
  4  5  1  0  0  0  0
  4  9  1  0  0  0  0
  5 10  1  0  0  0  0
  6 22  1  0  0  0  0
  6  5  2  0  0  0  0
  7  2  1  0  0  0  0
  8  3  1  0  0  0  0
 11 17  1  0  0  0  0
 12 11  1  0  0  0  0
 12  1  1  0  0  0  0
 13 12  2  0  0  0  0
 14 15  2  0  0  0  0
 14 13  1  0  0  0  0
 15 16  1  0  0  0  0
 16 11  2  0  0  0  0
 18 13  1  0  0  0  0
 19 15  1  0  0  0  0
 20 24  1  0  0  0  0
 20 21  2  0  0  0  0
 22 20  1  0  0  0  0
 23 22  1  0  0  0  0
 24 31  1  0  0  0  0
 25 27  1  0  0  0  0
 25 24  2  0  0  0  0
 26 25  1  0  0  0  0
 27 29  2  0  0  0  0
 28 27  1  0  0  0  0
 29 30  1  0  0  0  0
 31 30  2  0  0  0  0
M  END
>  <minimizedAffinity>
-5.27467632

>  <minimizedRMSD>
6.41804123

$$$$
