
 OpenBabel03272508563D

 39 42  0  0  1  0  0  0  0  0999 V2000
   38.3700   31.8880   44.5300 C   0  0  0  0  0  0  0  0  0  0  0  0
   37.2340   32.4120   44.4190 O   0  0  0  0  0  0  0  0  0  0  0  0
   38.9560   31.6550   45.8400 N   0  0  0  0  0  0  0  0  0  0  0  0
   39.9480   31.4310   45.9730 H   0  0  0  0  0  0  0  0  0  0  0  0
   39.1460   31.4920   43.3430 C   0  0  0  0  0  0  0  0  0  0  0  0
   40.1340   30.5590   43.4840 C   0  0  0  0  0  0  0  0  0  0  0  0
   40.8560   30.1950   42.3600 C   0  0  0  0  0  0  0  0  0  0  0  0
   40.5290   30.8010   41.1630 C   0  0  0  0  0  0  0  0  0  0  0  0
   39.5240   31.7510   41.0190 C   0  0  0  0  0  0  0  0  0  0  0  0
   38.8660   32.0570   42.1480 N   0  0  0  0  0  0  0  0  0  0  0  0
   40.3870   30.0830   44.4360 H   0  0  0  0  0  0  0  0  0  0  0  0
   41.6340   29.4630   42.4560 H   0  0  0  0  0  0  0  0  0  0  0  0
   41.1230   30.4780   40.3280 H   0  0  0  0  0  0  0  0  0  0  0  0
   39.2330   32.3510   39.7240 C   0  0  0  0  0  0  0  0  0  0  0  0
   38.6840   33.4740   39.6800 O   0  0  0  0  0  0  0  0  0  0  0  0
   39.5550   31.6940   38.4630 C   0  0  0  0  0  0  0  0  0  0  0  0
   38.6850   30.7250   38.0040 C   0  0  0  0  0  0  0  0  0  0  0  0
   37.7980   30.4540   38.5480 H   0  0  0  0  0  0  0  0  0  0  0  0
   38.9300   30.0610   36.8130 C   0  0  0  0  0  0  0  0  0  0  0  0
   38.2670   29.2890   36.4160 H   0  0  0  0  0  0  0  0  0  0  0  0
   40.0740   30.4200   36.1280 C   0  0  0  0  0  3  0  0  0  0  0  0
   40.9590   31.3850   36.5660 C   0  0  0  0  0  3  0  0  0  0  0  0
   40.6510   31.9960   37.7440 N   0  0  0  0  0  0  0  0  0  0  0  0
   38.4400   31.1250   48.2100 C   0  0  2  0  0  0  0  0  0  0  0  0
   38.6820   32.5900   48.1370 C   0  0  0  0  0  0  0  0  0  0  0  0
   38.0800   31.7510   46.9810 C   0  0  1  0  0  0  0  0  0  0  0  0
   39.3580   30.5070   48.2950 H   0  0  0  0  0  0  0  0  0  0  0  0
   38.0090   33.2780   48.6790 H   0  0  0  0  0  0  0  0  0  0  0  0
   39.7100   32.9420   48.0340 H   0  0  0  0  0  0  0  0  0  0  0  0
   37.0110   32.0050   46.7890 H   0  0  0  0  0  0  0  0  0  0  0  0
   35.0660   30.2370   49.5040 C   0  0  0  0  0  0  0  0  0  0  0  0
   35.3970   29.5540   50.7150 C   0  0  0  0  0  0  0  0  0  0  0  0
   36.7940   29.4200   51.0720 C   0  0  0  0  0  0  0  0  0  0  0  0
   37.7570   29.9490   50.2440 N   0  0  0  0  0  0  0  0  0  0  0  0
   37.3490   30.5840   49.1080 C   0  0  0  0  0  0  0  0  0  0  0  0
   36.0280   30.7480   48.7060 N   0  0  0  0  0  0  0  0  0  0  0  0
   34.0430   30.3360   49.2410 H   0  0  0  0  0  0  0  0  0  0  0  0
   34.6490   29.1440   51.3560 H   0  0  0  0  0  0  0  0  0  0  0  0
   37.0340   28.9060   51.9840 H   0  0  0  0  0  0  0  0  0  0  0  0
  1  3  1  0  0  0  0
  2  1  2  0  0  0  0
  3  4  1  0  0  0  0
  3 26  1  0  0  0  0
  5  6  1  0  0  0  0
  5  1  1  0  0  0  0
  6 11  1  0  0  0  0
  7 12  1  0  0  0  0
  7  6  2  0  0  0  0
  8  7  1  0  0  0  0
  9  8  2  0  0  0  0
  9 10  1  0  0  0  0
 10  5  2  0  0  0  0
 13  8  1  0  0  0  0
 14  9  1  0  0  0  0
 15 14  2  0  0  0  0
 16 14  1  0  0  0  0
 17 16  1  0  0  0  0
 17 18  1  0  0  0  0
 19 17  2  0  0  0  0
 20 19  1  0  0  0  0
 21 22  2  0  0  0  0
 21 19  1  0  0  0  0
 22 23  1  0  0  0  0
 23 16  2  0  0  0  0
 24 27  1  6  0  0  0
 24 35  1  0  0  0  0
 25 24  1  0  0  0  0
 25 28  1  0  0  0  0
 26 30  1  6  0  0  0
 26 25  1  0  0  0  0
 26 24  1  0  0  0  0
 29 25  1  0  0  0  0
 31 32  1  0  0  0  0
 32 33  2  0  0  0  0
 32 38  1  0  0  0  0
 33 39  1  0  0  0  0
 34 33  1  0  0  0  0
 35 34  2  0  0  0  0
 36 35  1  0  0  0  0
 36 31  2  0  0  0  0
 37 31  1  0  0  0  0
M  END
>  <minimizedAffinity>
-4.95478439

>  <minimizedRMSD>
0.270385802

$$$$
