
 OpenBabel03272508563D

 39 42  0  0  1  0  0  0  0  0999 V2000
   38.3440   31.8780   44.6110 C   0  0  0  0  0  0  0  0  0  0  0  0
   37.1840   32.3430   44.4900 O   0  0  0  0  0  0  0  0  0  0  0  0
   38.9460   31.7180   45.9240 N   0  0  0  0  0  0  0  0  0  0  0  0
   39.9480   31.5450   46.0590 H   0  0  0  0  0  0  0  0  0  0  0  0
   39.1330   31.4810   43.4340 C   0  0  0  0  0  0  0  0  0  0  0  0
   40.1250   30.5550   43.5880 C   0  0  0  0  0  0  0  0  0  0  0  0
   40.8590   30.1900   42.4720 C   0  0  0  0  0  0  0  0  0  0  0  0
   40.5390   30.7880   41.2690 C   0  0  0  0  0  0  0  0  0  0  0  0
   39.5290   31.7300   41.1110 C   0  0  0  0  0  0  0  0  0  0  0  0
   38.8600   32.0380   42.2320 N   0  0  0  0  0  0  0  0  0  0  0  0
   40.3730   30.0860   44.5450 H   0  0  0  0  0  0  0  0  0  0  0  0
   41.6410   29.4630   42.5790 H   0  0  0  0  0  0  0  0  0  0  0  0
   41.1430   30.4640   40.4410 H   0  0  0  0  0  0  0  0  0  0  0  0
   39.2450   32.3210   39.8100 C   0  0  0  0  0  0  0  0  0  0  0  0
   38.7500   33.4680   39.7550 O   0  0  0  0  0  0  0  0  0  0  0  0
   39.5150   31.6280   38.5560 C   0  0  0  0  0  0  0  0  0  0  0  0
   40.5850   32.0640   37.8010 C   0  0  0  0  0  0  0  0  0  0  0  0
   41.2060   32.8850   38.1140 H   0  0  0  0  0  0  0  0  0  0  0  0
   40.8980   31.4510   36.5980 C   0  0  0  0  0  0  0  0  0  0  0  0
   41.7360   31.7660   35.9710 H   0  0  0  0  0  0  0  0  0  0  0  0
   40.0920   30.4000   36.2120 C   0  0  0  0  0  3  0  0  0  0  0  0
   39.0170   29.9460   36.9490 C   0  0  0  0  0  3  0  0  0  0  0  0
   38.7700   30.5970   38.1190 N   0  0  0  0  0  0  0  0  0  0  0  0
   38.4270   31.1670   48.2890 C   0  0  2  0  0  0  0  0  0  0  0  0
   38.6810   32.6310   48.2320 C   0  0  0  0  0  0  0  0  0  0  0  0
   38.0710   31.8080   47.0670 C   0  0  1  0  0  0  0  0  0  0  0  0
   39.3400   30.5410   48.3680 H   0  0  0  0  0  0  0  0  0  0  0  0
   38.0140   33.3190   48.7810 H   0  0  0  0  0  0  0  0  0  0  0  0
   39.7120   32.9750   48.1310 H   0  0  0  0  0  0  0  0  0  0  0  0
   37.0040   32.0730   46.8780 H   0  0  0  0  0  0  0  0  0  0  0  0
   35.0510   30.2340   49.5450 C   0  0  0  0  0  0  0  0  0  0  0  0
   35.3750   29.5950   50.7830 C   0  0  0  0  0  0  0  0  0  0  0  0
   36.7670   29.5080   51.1700 C   0  0  0  0  0  0  0  0  0  0  0  0
   37.7320   30.0360   50.3450 N   0  0  0  0  0  0  0  0  0  0  0  0
   37.3320   30.6260   49.1830 C   0  0  0  0  0  0  0  0  0  0  0  0
   36.0160   30.7450   48.7510 N   0  0  0  0  0  0  0  0  0  0  0  0
   34.0310   30.3000   49.2610 H   0  0  0  0  0  0  0  0  0  0  0  0
   34.6240   29.1870   51.4220 H   0  0  0  0  0  0  0  0  0  0  0  0
   37.0020   29.0270   52.1010 H   0  0  0  0  0  0  0  0  0  0  0  0
  1  3  1  0  0  0  0
  2  1  2  0  0  0  0
  3  4  1  0  0  0  0
  3 26  1  0  0  0  0
  5  6  1  0  0  0  0
  5  1  1  0  0  0  0
  6 11  1  0  0  0  0
  7 12  1  0  0  0  0
  7  6  2  0  0  0  0
  8  7  1  0  0  0  0
  9  8  2  0  0  0  0
  9 10  1  0  0  0  0
 10  5  2  0  0  0  0
 13  8  1  0  0  0  0
 14  9  1  0  0  0  0
 15 14  2  0  0  0  0
 16 14  1  0  0  0  0
 17 18  1  0  0  0  0
 17 16  2  0  0  0  0
 19 17  1  0  0  0  0
 20 19  1  0  0  0  0
 21 19  2  0  0  0  0
 21 22  1  0  0  0  0
 22 23  2  0  0  0  0
 23 16  1  0  0  0  0
 24 27  1  6  0  0  0
 24 35  1  0  0  0  0
 25 24  1  0  0  0  0
 25 28  1  0  0  0  0
 26 30  1  6  0  0  0
 26 25  1  0  0  0  0
 26 24  1  0  0  0  0
 29 25  1  0  0  0  0
 31 32  1  0  0  0  0
 32 33  2  0  0  0  0
 32 38  1  0  0  0  0
 33 39  1  0  0  0  0
 34 33  1  0  0  0  0
 35 34  2  0  0  0  0
 36 35  1  0  0  0  0
 36 31  2  0  0  0  0
 37 31  1  0  0  0  0
M  END
>  <minimizedAffinity>
-4.94447756

>  <minimizedRMSD>
0.262453616

$$$$
