
 OpenBabel03272508563D

 39 42  0  0  1  0  0  0  0  0999 V2000
   38.3290   31.8840   44.5560 C   0  0  0  0  0  0  0  0  0  0  0  0
   37.1550   32.3170   44.4450 O   0  0  0  0  0  0  0  0  0  0  0  0
   38.9490   31.7520   45.8640 N   0  0  0  0  0  0  0  0  0  0  0  0
   39.9570   31.6070   45.9890 H   0  0  0  0  0  0  0  0  0  0  0  0
   39.1150   31.4980   43.3730 C   0  0  0  0  0  0  0  0  0  0  0  0
   40.1100   30.5730   43.5180 C   0  0  0  0  0  0  0  0  0  0  0  0
   40.8410   30.2180   42.3970 C   0  0  0  0  0  0  0  0  0  0  0  0
   40.5150   30.8230   41.1990 C   0  0  0  0  0  0  0  0  0  0  0  0
   39.5030   31.7640   41.0510 C   0  0  0  0  0  0  0  0  0  0  0  0
   38.8360   32.0620   42.1770 N   0  0  0  0  0  0  0  0  0  0  0  0
   40.3620   30.0970   44.4700 H   0  0  0  0  0  0  0  0  0  0  0  0
   41.6250   29.4920   42.4960 H   0  0  0  0  0  0  0  0  0  0  0  0
   41.1170   30.5070   40.3670 H   0  0  0  0  0  0  0  0  0  0  0  0
   39.2130   32.3640   39.7560 C   0  0  0  0  0  0  0  0  0  0  0  0
   38.6740   33.4910   39.7110 O   0  0  0  0  0  0  0  0  0  0  0  0
   39.5260   31.7010   38.4950 C   0  0  0  0  0  0  0  0  0  0  0  0
   38.6530   30.7300   38.0480 C   0  0  0  0  0  0  0  0  0  0  0  0
   37.7700   30.4610   38.6000 H   0  0  0  0  0  0  0  0  0  0  0  0
   38.8900   30.0610   36.8580 C   0  0  0  0  0  0  0  0  0  0  0  0
   38.2250   29.2850   36.4690 H   0  0  0  0  0  0  0  0  0  0  0  0
   40.0280   30.4180   36.1630 C   0  0  0  0  0  3  0  0  0  0  0  0
   40.9140   31.3850   36.5890 C   0  0  0  0  0  3  0  0  0  0  0  0
   40.6170   32.0000   37.7680 N   0  0  0  0  0  0  0  0  0  0  0  0
   38.4500   31.1700   48.2260 C   0  0  2  0  0  0  0  0  0  0  0  0
   38.7090   32.6330   48.1860 C   0  0  0  0  0  0  0  0  0  0  0  0
   38.0850   31.8290   47.0150 C   0  0  1  0  0  0  0  0  0  0  0  0
   39.3610   30.5390   48.2870 H   0  0  0  0  0  0  0  0  0  0  0  0
   38.0500   33.3150   48.7520 H   0  0  0  0  0  0  0  0  0  0  0  0
   39.7400   32.9750   48.0810 H   0  0  0  0  0  0  0  0  0  0  0  0
   37.0180   32.1010   46.8400 H   0  0  0  0  0  0  0  0  0  0  0  0
   35.0810   30.2470   49.5070 C   0  0  0  0  0  0  0  0  0  0  0  0
   35.4140   29.5740   50.7240 C   0  0  0  0  0  0  0  0  0  0  0  0
   36.8100   29.4600   51.0880 C   0  0  0  0  0  0  0  0  0  0  0  0
   37.7700   29.9970   50.2630 N   0  0  0  0  0  0  0  0  0  0  0  0
   37.3610   30.6200   49.1210 C   0  0  0  0  0  0  0  0  0  0  0  0
   36.0400   30.7660   48.7110 N   0  0  0  0  0  0  0  0  0  0  0  0
   34.0580   30.3320   49.2390 H   0  0  0  0  0  0  0  0  0  0  0  0
   34.6670   29.1590   51.3630 H   0  0  0  0  0  0  0  0  0  0  0  0
   37.0520   28.9540   52.0040 H   0  0  0  0  0  0  0  0  0  0  0  0
  1  3  1  0  0  0  0
  2  1  2  0  0  0  0
  3  4  1  0  0  0  0
  3 26  1  0  0  0  0
  5  6  1  0  0  0  0
  5  1  1  0  0  0  0
  6 11  1  0  0  0  0
  7 12  1  0  0  0  0
  7  6  2  0  0  0  0
  8  7  1  0  0  0  0
  9  8  2  0  0  0  0
  9 10  1  0  0  0  0
 10  5  2  0  0  0  0
 13  8  1  0  0  0  0
 14  9  1  0  0  0  0
 15 14  2  0  0  0  0
 16 14  1  0  0  0  0
 17 16  1  0  0  0  0
 17 18  1  0  0  0  0
 19 17  2  0  0  0  0
 20 19  1  0  0  0  0
 21 22  2  0  0  0  0
 21 19  1  0  0  0  0
 22 23  1  0  0  0  0
 23 16  2  0  0  0  0
 24 27  1  6  0  0  0
 24 35  1  0  0  0  0
 25 24  1  0  0  0  0
 25 28  1  0  0  0  0
 26 30  1  6  0  0  0
 26 25  1  0  0  0  0
 26 24  1  0  0  0  0
 29 25  1  0  0  0  0
 31 32  1  0  0  0  0
 32 33  2  0  0  0  0
 32 38  1  0  0  0  0
 33 39  1  0  0  0  0
 34 33  1  0  0  0  0
 35 34  2  0  0  0  0
 36 35  1  0  0  0  0
 36 31  2  0  0  0  0
 37 31  1  0  0  0  0
M  END
>  <minimizedAffinity>
-4.95026731

>  <minimizedRMSD>
0.358288765

$$$$
