
 OpenBabel03262522093D

 19 20  0  0  0  0  0  0  0  0999 V2000
   38.8510   22.8790   35.9670 C   0  0  0  0  0  0  0  0  0  0  0  0
   39.6040   22.2470   36.7050 O   0  0  0  0  0  0  0  0  0  0  0  0
   37.7360   21.9520   33.9550 C   0  0  0  0  0  0  0  0  0  0  0  0
   37.7530   22.1310   35.3510 C   0  0  0  0  0  0  0  0  0  0  0  0
   36.7170   21.5820   36.0860 C   0  0  0  0  0  0  0  0  0  0  0  0
   35.7290   20.8940   35.4410 N   0  0  0  0  0  0  0  0  0  0  0  0
   35.7450   20.7410   34.0910 C   0  0  0  0  0  0  0  0  0  0  0  0
   36.7290   21.2600   33.3640 N   0  0  0  0  0  0  0  0  0  0  0  0
   38.5280   22.3660   33.3450 H   0  0  0  0  0  0  0  0  0  0  0  0
   36.7180   21.7110   37.1520 H   0  0  0  0  0  0  0  0  0  0  0  0
   34.9270   20.1840   33.6650 H   0  0  0  0  0  0  0  0  0  0  0  0
   39.0510   24.3060   35.7220 C   0  0  0  0  0  0  0  0  0  0  0  0
   38.1260   25.1700   36.2740 C   0  0  0  0  0  0  0  0  0  0  0  0
   37.2870   24.8210   36.8620 H   0  0  0  0  0  0  0  0  0  0  0  0
   38.2480   26.5360   36.0870 C   0  0  0  0  0  0  0  0  0  0  0  0
   37.5320   27.2090   36.5130 H   0  0  0  0  0  0  0  0  0  0  0  0
   39.3440   26.9430   35.3220 C   0  0  0  0  0  3  0  0  0  0  0  0
   40.2610   26.0670   34.7760 C   0  0  0  0  0  3  0  0  0  0  0  0
   40.1110   24.7280   34.9810 N   0  0  0  0  0  0  0  0  0  0  0  0
  1  2  2  0  0  0  0
  3  4  1  0  0  0  0
  4  1  1  0  0  0  0
  4  5  2  0  0  0  0
  5 10  1  0  0  0  0
  6  5  1  0  0  0  0
  7  6  2  0  0  0  0
  8  3  2  0  0  0  0
  8  7  1  0  0  0  0
  9  3  1  0  0  0  0
 11  7  1  0  0  0  0
 12  1  1  0  0  0  0
 12 13  1  0  0  0  0
 13 14  1  0  0  0  0
 15 13  2  0  0  0  0
 15 16  1  0  0  0  0
 17 15  1  0  0  0  0
 18 19  1  0  0  0  0
 18 17  2  0  0  0  0
 19 12  2  0  0  0  0
M  END
>  <minimizedAffinity>
-4.11036825

$$$$

 OpenBabel03262522093D

 19 20  0  0  0  0  0  0  0  0999 V2000
   38.7700   22.8590   36.0850 C   0  0  0  0  0  0  0  0  0  0  0  0
   39.5250   22.3230   36.8930 O   0  0  0  0  0  0  0  0  0  0  0  0
   38.1100   25.2270   36.4160 C   0  0  0  0  0  0  0  0  0  0  0  0
   38.9820   24.2860   35.8350 C   0  0  0  0  0  0  0  0  0  0  0  0
   40.0140   24.7640   35.0450 C   0  0  0  0  0  0  0  0  0  0  0  0
   40.1490   26.1100   34.8610 N   0  0  0  0  0  0  0  0  0  0  0  0
   39.2880   26.9890   35.4380 C   0  0  0  0  0  0  0  0  0  0  0  0
   38.2900   26.5550   36.2000 N   0  0  0  0  0  0  0  0  0  0  0  0
   37.2910   24.8940   37.0400 H   0  0  0  0  0  0  0  0  0  0  0  0
   40.6860   24.0580   34.5960 H   0  0  0  0  0  0  0  0  0  0  0  0
   39.4680   28.0320   35.2400 H   0  0  0  0  0  0  0  0  0  0  0  0
   37.7190   22.1010   35.4110 C   0  0  0  0  0  0  0  0  0  0  0  0
   36.7180   21.5780   36.2060 C   0  0  0  0  0  0  0  0  0  0  0  0
   36.7020   21.7140   37.2800 H   0  0  0  0  0  0  0  0  0  0  0  0
   35.6870   20.8480   35.6420 C   0  0  0  0  0  0  0  0  0  0  0  0
   34.9100   20.4400   36.2550 H   0  0  0  0  0  0  0  0  0  0  0  0
   35.7470   20.6950   34.2540 C   0  0  0  0  0  3  0  0  0  0  0  0
   36.7540   21.2250   33.4710 C   0  0  0  0  0  3  0  0  0  0  0  0
   37.7540   21.9390   34.0610 N   0  0  0  0  0  0  0  0  0  0  0  0
  1  2  2  0  0  0  0
  3  9  1  0  0  0  0
  4  1  1  0  0  0  0
  4  3  2  0  0  0  0
  5  4  1  0  0  0  0
  6  5  2  0  0  0  0
  6  7  1  0  0  0  0
  7  8  2  0  0  0  0
  8  3  1  0  0  0  0
 10  5  1  0  0  0  0
 11  7  1  0  0  0  0
 12  1  1  0  0  0  0
 12 13  1  0  0  0  0
 13 14  1  0  0  0  0
 15 13  2  0  0  0  0
 15 16  1  0  0  0  0
 17 15  1  0  0  0  0
 18 19  1  0  0  0  0
 18 17  2  0  0  0  0
 19 12  2  0  0  0  0
M  END
>  <minimizedAffinity>
-4.0983839

$$$$

 OpenBabel03262522093D

 19 20  0  0  0  0  0  0  0  0999 V2000
   38.2040   23.8240   36.3910 C   0  0  0  0  0  0  0  0  0  0  0  0
   37.2790   23.4100   37.0860 O   0  0  0  0  0  0  0  0  0  0  0  0
   40.0110   22.6400   37.6080 C   0  0  0  0  0  0  0  0  0  0  0  0
   39.4310   23.0250   36.3850 C   0  0  0  0  0  0  0  0  0  0  0  0
   40.0550   22.6210   35.2180 C   0  0  0  0  0  0  0  0  0  0  0  0
   41.1960   21.8730   35.2920 N   0  0  0  0  0  0  0  0  0  0  0  0
   41.7280   21.5200   36.4920 C   0  0  0  0  0  0  0  0  0  0  0  0
   41.1470   21.8960   37.6250 N   0  0  0  0  0  0  0  0  0  0  0  0
   39.5530   22.9360   38.5430 H   0  0  0  0  0  0  0  0  0  0  0  0
   39.6230   22.9070   34.2770 H   0  0  0  0  0  0  0  0  0  0  0  0
   42.6280   20.9290   36.4580 H   0  0  0  0  0  0  0  0  0  0  0  0
   38.0760   25.0540   35.6120 C   0  0  0  0  0  0  0  0  0  0  0  0
   38.3450   26.2400   36.2660 C   0  0  0  0  0  0  0  0  0  0  0  0
   38.6380   26.2720   37.3080 H   0  0  0  0  0  0  0  0  0  0  0  0
   38.2450   27.4460   35.5960 C   0  0  0  0  0  0  0  0  0  0  0  0
   38.4530   28.3670   36.1000 H   0  0  0  0  0  0  0  0  0  0  0  0
   37.8640   27.3590   34.2550 C   0  0  0  0  0  3  0  0  0  0  0  0
   37.5980   26.1660   33.6130 C   0  0  0  0  0  3  0  0  0  0  0  0
   37.7070   24.9960   34.3040 N   0  0  0  0  0  0  0  0  0  0  0  0
  1  2  2  0  0  0  0
  3  8  1  0  0  0  0
  3  9  1  0  0  0  0
  4  1  1  0  0  0  0
  4  3  2  0  0  0  0
  5  6  2  0  0  0  0
  5  4  1  0  0  0  0
  6  7  1  0  0  0  0
  7  8  2  0  0  0  0
 10  5  1  0  0  0  0
 11  7  1  0  0  0  0
 12 13  1  0  0  0  0
 12  1  1  0  0  0  0
 13 14  1  0  0  0  0
 15 16  1  0  0  0  0
 15 13  2  0  0  0  0
 17 15  1  0  0  0  0
 18 17  2  0  0  0  0
 18 19  1  0  0  0  0
 19 12  2  0  0  0  0
M  END
>  <minimizedAffinity>
-4.05349112

$$$$

 OpenBabel03262522093D

 19 20  0  0  0  0  0  0  0  0999 V2000
   39.0560   24.4790   34.3530 C   0  0  0  0  0  0  0  0  0  0  0  0
   40.0050   25.1220   33.9090 O   0  0  0  0  0  0  0  0  0  0  0  0
   37.2610   25.2180   32.8090 C   0  0  0  0  0  0  0  0  0  0  0  0
   37.9770   24.1670   33.4140 C   0  0  0  0  0  0  0  0  0  0  0  0
   37.6210   22.8700   33.0860 C   0  0  0  0  0  0  0  0  0  0  0  0
   36.6040   22.6580   32.1990 N   0  0  0  0  0  0  0  0  0  0  0  0
   35.9360   23.6980   31.6340 C   0  0  0  0  0  0  0  0  0  0  0  0
   36.2590   24.9510   31.9340 N   0  0  0  0  0  0  0  0  0  0  0  0
   37.5090   26.2450   33.0390 H   0  0  0  0  0  0  0  0  0  0  0  0
   38.1580   22.0590   33.5400 H   0  0  0  0  0  0  0  0  0  0  0  0
   35.1490   23.4390   30.9450 H   0  0  0  0  0  0  0  0  0  0  0  0
   39.0170   24.0510   35.7490 C   0  0  0  0  0  0  0  0  0  0  0  0
   38.0110   24.5760   36.5370 C   0  0  0  0  0  0  0  0  0  0  0  0
   37.2790   25.2730   36.1510 H   0  0  0  0  0  0  0  0  0  0  0  0
   37.9090   24.2190   37.8700 C   0  0  0  0  0  0  0  0  0  0  0  0
   37.1300   24.6230   38.4830 H   0  0  0  0  0  0  0  0  0  0  0  0
   38.8740   23.3170   38.3270 C   0  0  0  0  0  3  0  0  0  0  0  0
   39.8740   22.8000   37.5280 C   0  0  0  0  0  3  0  0  0  0  0  0
   39.9450   23.1740   36.2190 N   0  0  0  0  0  0  0  0  0  0  0  0
  1 12  1  0  0  0  0
  2  1  2  0  0  0  0
  3  9  1  0  0  0  0
  3  4  1  0  0  0  0
  4  1  1  0  0  0  0
  5  4  2  0  0  0  0
  5 10  1  0  0  0  0
  6  5  1  0  0  0  0
  7  8  1  0  0  0  0
  7  6  2  0  0  0  0
  8  3  2  0  0  0  0
 11  7  1  0  0  0  0
 12 19  2  0  0  0  0
 12 13  1  0  0  0  0
 13 15  2  0  0  0  0
 14 13  1  0  0  0  0
 15 17  1  0  0  0  0
 15 16  1  0  0  0  0
 18 17  2  0  0  0  0
 19 18  1  0  0  0  0
M  END
>  <minimizedAffinity>
-3.98875356

$$$$

 OpenBabel03262522093D

 19 20  0  0  0  0  0  0  0  0999 V2000
   38.6480   23.2040   34.2150 C   0  0  0  0  0  0  0  0  0  0  0  0
   39.5540   23.7300   33.5720 O   0  0  0  0  0  0  0  0  0  0  0  0
   37.8700   24.0130   36.4270 C   0  0  0  0  0  0  0  0  0  0  0  0
   38.7720   23.2370   35.6730 C   0  0  0  0  0  0  0  0  0  0  0  0
   39.7460   22.5310   36.3580 C   0  0  0  0  0  0  0  0  0  0  0  0
   39.7970   22.6090   37.7210 N   0  0  0  0  0  0  0  0  0  0  0  0
   38.9090   23.3680   38.4150 C   0  0  0  0  0  0  0  0  0  0  0  0
   37.9660   24.0550   37.7800 N   0  0  0  0  0  0  0  0  0  0  0  0
   37.0950   24.5790   35.9280 H   0  0  0  0  0  0  0  0  0  0  0  0
   40.4400   21.9350   35.7960 H   0  0  0  0  0  0  0  0  0  0  0  0
   39.0210   23.3720   39.4870 H   0  0  0  0  0  0  0  0  0  0  0  0
   37.5080   22.5810   33.5470 C   0  0  0  0  0  0  0  0  0  0  0  0
   37.0560   23.1820   32.3890 C   0  0  0  0  0  0  0  0  0  0  0  0
   37.5150   24.0740   31.9830 H   0  0  0  0  0  0  0  0  0  0  0  0
   35.9810   22.6510   31.6990 C   0  0  0  0  0  0  0  0  0  0  0  0
   35.6280   23.1140   30.8010 H   0  0  0  0  0  0  0  0  0  0  0  0
   35.4180   21.4990   32.2570 C   0  0  0  0  0  3  0  0  0  0  0  0
   35.8810   20.9080   33.4160 C   0  0  0  0  0  3  0  0  0  0  0  0
   36.9430   21.4590   34.0690 N   0  0  0  0  0  0  0  0  0  0  0  0
  1  4  1  0  0  0  0
  2  1  2  0  0  0  0
  3  8  1  0  0  0  0
  4  5  1  0  0  0  0
  4  3  2  0  0  0  0
  5  6  2  0  0  0  0
  6  7  1  0  0  0  0
  7 11  1  0  0  0  0
  8  7  2  0  0  0  0
  9  3  1  0  0  0  0
 10  5  1  0  0  0  0
 12 19  1  0  0  0  0
 12  1  1  0  0  0  0
 13 12  2  0  0  0  0
 14 13  1  0  0  0  0
 15 17  2  0  0  0  0
 15 13  1  0  0  0  0
 16 15  1  0  0  0  0
 17 18  1  0  0  0  0
 18 19  2  0  0  0  0
M  END
>  <minimizedAffinity>
-3.91408253

$$$$

 OpenBabel03262522093D

 19 20  0  0  0  0  0  0  0  0999 V2000
   38.3520   24.6560   33.3540 C   0  0  0  0  0  0  0  0  0  0  0  0
   39.4980   24.6980   32.9110 O   0  0  0  0  0  0  0  0  0  0  0  0
   38.1250   22.9810   35.1690 C   0  0  0  0  0  0  0  0  0  0  0  0
   38.2080   24.3300   34.7740 C   0  0  0  0  0  0  0  0  0  0  0  0
   38.1500   25.2970   35.7620 C   0  0  0  0  0  0  0  0  0  0  0  0
   38.0180   24.9160   37.0670 N   0  0  0  0  0  0  0  0  0  0  0  0
   37.9410   23.6030   37.4110 C   0  0  0  0  0  0  0  0  0  0  0  0
   37.9940   22.6570   36.4800 N   0  0  0  0  0  0  0  0  0  0  0  0
   38.1660   22.1950   34.4270 H   0  0  0  0  0  0  0  0  0  0  0  0
   38.2120   26.3300   35.4750 H   0  0  0  0  0  0  0  0  0  0  0  0
   37.8380   23.3920   38.4620 H   0  0  0  0  0  0  0  0  0  0  0  0
   37.1980   24.9190   32.4970 C   0  0  0  0  0  0  0  0  0  0  0  0
   36.5580   23.8220   31.9550 C   0  0  0  0  0  0  0  0  0  0  0  0
   36.8850   22.8090   32.1460 H   0  0  0  0  0  0  0  0  0  0  0  0
   35.4580   23.9910   31.1330 C   0  0  0  0  0  0  0  0  0  0  0  0
   34.9590   23.1430   30.7110 H   0  0  0  0  0  0  0  0  0  0  0  0
   35.0690   25.3150   30.9120 C   0  0  0  0  0  3  0  0  0  0  0  0
   35.7190   26.4030   31.4610 C   0  0  0  0  0  3  0  0  0  0  0  0
   36.7990   26.1990   32.2660 N   0  0  0  0  0  0  0  0  0  0  0  0
  1  4  1  0  0  0  0
  2  1  2  0  0  0  0
  3  8  1  0  0  0  0
  4  3  2  0  0  0  0
  4  5  1  0  0  0  0
  5  6  2  0  0  0  0
  6  7  1  0  0  0  0
  7 11  1  0  0  0  0
  8  7  2  0  0  0  0
  9  3  1  0  0  0  0
 10  5  1  0  0  0  0
 12  1  1  0  0  0  0
 13 14  1  0  0  0  0
 13 12  2  0  0  0  0
 15 13  1  0  0  0  0
 16 15  1  0  0  0  0
 17 15  2  0  0  0  0
 17 18  1  0  0  0  0
 18 19  2  0  0  0  0
 19 12  1  0  0  0  0
M  END
>  <minimizedAffinity>
-3.89646888

$$$$

 OpenBabel03262522093D

 19 20  0  0  0  0  0  0  0  0999 V2000
   38.1790   23.6790   34.5680 C   0  0  0  0  0  0  0  0  0  0  0  0
   37.8670   22.6910   33.9050 O   0  0  0  0  0  0  0  0  0  0  0  0
   37.3240   25.2650   32.8630 C   0  0  0  0  0  0  0  0  0  0  0  0
   38.2820   24.9480   33.8460 C   0  0  0  0  0  0  0  0  0  0  0  0
   39.2870   25.8680   34.0890 C   0  0  0  0  0  0  0  0  0  0  0  0
   39.3160   27.0330   33.3770 N   0  0  0  0  0  0  0  0  0  0  0  0
   38.3750   27.3050   32.4350 C   0  0  0  0  0  0  0  0  0  0  0  0
   37.4000   26.4380   32.1840 N   0  0  0  0  0  0  0  0  0  0  0  0
   36.5230   24.5720   32.6440 H   0  0  0  0  0  0  0  0  0  0  0  0
   40.0240   25.6390   34.8360 H   0  0  0  0  0  0  0  0  0  0  0  0
   38.4730   28.2470   31.9220 H   0  0  0  0  0  0  0  0  0  0  0  0
   38.4310   23.5790   36.0030 C   0  0  0  0  0  0  0  0  0  0  0  0
   39.5590   22.8850   36.3940 C   0  0  0  0  0  0  0  0  0  0  0  0
   40.2340   22.4310   35.6800 H   0  0  0  0  0  0  0  0  0  0  0  0
   39.8650   22.7480   37.7360 C   0  0  0  0  0  0  0  0  0  0  0  0
   40.7400   22.2110   38.0420 H   0  0  0  0  0  0  0  0  0  0  0  0
   38.9680   23.3490   38.6220 C   0  0  0  0  0  3  0  0  0  0  0  0
   37.8440   24.0400   38.2180 C   0  0  0  0  0  3  0  0  0  0  0  0
   37.5730   24.1560   36.8870 N   0  0  0  0  0  0  0  0  0  0  0  0
  1 12  1  0  0  0  0
  2  1  2  0  0  0  0
  3  4  1  0  0  0  0
  4  5  2  0  0  0  0
  4  1  1  0  0  0  0
  5 10  1  0  0  0  0
  6  5  1  0  0  0  0
  7  6  2  0  0  0  0
  8  7  1  0  0  0  0
  8  3  2  0  0  0  0
  9  3  1  0  0  0  0
 11  7  1  0  0  0  0
 12 13  2  0  0  0  0
 12 19  1  0  0  0  0
 13 15  1  0  0  0  0
 14 13  1  0  0  0  0
 15 16  1  0  0  0  0
 15 17  2  0  0  0  0
 18 17  1  0  0  0  0
 19 18  2  0  0  0  0
M  END
>  <minimizedAffinity>
-3.88638854

$$$$

 OpenBabel03262522093D

 19 20  0  0  0  0  0  0  0  0999 V2000
   37.2650   22.6810   31.0440 C   0  0  0  0  0  0  0  0  0  0  0  0
   38.2800   22.4490   30.3910 O   0  0  0  0  0  0  0  0  0  0  0  0
   37.7130   25.1210   30.9940 C   0  0  0  0  0  0  0  0  0  0  0  0
   36.7830   24.0640   31.0380 C   0  0  0  0  0  0  0  0  0  0  0  0
   35.4380   24.3880   31.0710 C   0  0  0  0  0  0  0  0  0  0  0  0
   35.0640   25.7020   31.0600 N   0  0  0  0  0  0  0  0  0  0  0  0
   35.9900   26.6960   31.0180 C   0  0  0  0  0  0  0  0  0  0  0  0
   37.2870   26.4090   30.9850 N   0  0  0  0  0  0  0  0  0  0  0  0
   38.7730   24.9090   30.9670 H   0  0  0  0  0  0  0  0  0  0  0  0
   34.7180   23.5920   31.1040 H   0  0  0  0  0  0  0  0  0  0  0  0
   35.6080   27.7030   31.0110 H   0  0  0  0  0  0  0  0  0  0  0  0
   36.5800   21.6240   31.7840 C   0  0  0  0  0  0  0  0  0  0  0  0
   36.0100   20.6090   31.0410 C   0  0  0  0  0  0  0  0  0  0  0  0
   36.0600   20.5850   29.9600 H   0  0  0  0  0  0  0  0  0  0  0  0
   35.3440   19.5720   31.6700 C   0  0  0  0  0  0  0  0  0  0  0  0
   34.9010   18.7830   31.0970 H   0  0  0  0  0  0  0  0  0  0  0  0
   35.3030   19.6420   33.0650 C   0  0  0  0  0  3  0  0  0  0  0  0
   35.8780   20.6630   33.7950 C   0  0  0  0  0  3  0  0  0  0  0  0
   36.5260   21.6690   33.1420 N   0  0  0  0  0  0  0  0  0  0  0  0
  1 12  1  0  0  0  0
  2  1  2  0  0  0  0
  3  4  1  0  0  0  0
  4  1  1  0  0  0  0
  4  5  2  0  0  0  0
  5 10  1  0  0  0  0
  6  5  1  0  0  0  0
  7  6  2  0  0  0  0
  8  3  2  0  0  0  0
  8  7  1  0  0  0  0
  9  3  1  0  0  0  0
 11  7  1  0  0  0  0
 12 19  1  0  0  0  0
 13 15  1  0  0  0  0
 13 12  2  0  0  0  0
 14 13  1  0  0  0  0
 15 17  2  0  0  0  0
 16 15  1  0  0  0  0
 17 18  1  0  0  0  0
 19 18  2  0  0  0  0
M  END
>  <minimizedAffinity>
-3.87003708

$$$$

 OpenBabel03262522093D

 19 20  0  0  0  0  0  0  0  0999 V2000
   38.5100   24.0310   36.4480 C   0  0  0  0  0  0  0  0  0  0  0  0
   37.5960   23.5400   37.1090 O   0  0  0  0  0  0  0  0  0  0  0  0
   37.7340   25.0960   34.3470 C   0  0  0  0  0  0  0  0  0  0  0  0
   38.1890   25.2310   35.6730 C   0  0  0  0  0  0  0  0  0  0  0  0
   38.3100   26.5090   36.1880 C   0  0  0  0  0  0  0  0  0  0  0  0
   37.9890   27.5810   35.4040 N   0  0  0  0  0  0  0  0  0  0  0  0
   37.5530   27.4130   34.1280 C   0  0  0  0  0  0  0  0  0  0  0  0
   37.4290   26.1950   33.6120 N   0  0  0  0  0  0  0  0  0  0  0  0
   37.6270   24.1140   33.9080 H   0  0  0  0  0  0  0  0  0  0  0  0
   38.6550   26.6260   37.1980 H   0  0  0  0  0  0  0  0  0  0  0  0
   37.3210   28.3120   33.5820 H   0  0  0  0  0  0  0  0  0  0  0  0
   39.8450   23.4390   36.4440 C   0  0  0  0  0  0  0  0  0  0  0  0
   40.0750   22.4070   37.3340 C   0  0  0  0  0  0  0  0  0  0  0  0
   39.3110   22.0450   38.0080 H   0  0  0  0  0  0  0  0  0  0  0  0
   41.3150   21.7960   37.3890 C   0  0  0  0  0  0  0  0  0  0  0  0
   41.4960   20.9960   38.0780 H   0  0  0  0  0  0  0  0  0  0  0  0
   42.2720   22.2940   36.5020 C   0  0  0  0  0  3  0  0  0  0  0  0
   42.0290   23.3260   35.6170 C   0  0  0  0  0  3  0  0  0  0  0  0
   40.7950   23.9060   35.5890 N   0  0  0  0  0  0  0  0  0  0  0  0
  1  2  2  0  0  0  0
  3  4  1  0  0  0  0
  4  5  2  0  0  0  0
  4  1  1  0  0  0  0
  5 10  1  0  0  0  0
  6  5  1  0  0  0  0
  7  6  2  0  0  0  0
  8  7  1  0  0  0  0
  8  3  2  0  0  0  0
  9  3  1  0  0  0  0
 11  7  1  0  0  0  0
 12  1  1  0  0  0  0
 12 13  1  0  0  0  0
 13 15  2  0  0  0  0
 13 14  1  0  0  0  0
 15 16  1  0  0  0  0
 17 15  1  0  0  0  0
 18 17  2  0  0  0  0
 19 18  1  0  0  0  0
 19 12  2  0  0  0  0
M  END
>  <minimizedAffinity>
-3.86811495

$$$$
