
 OpenBabel03272508433D

 19 20  0  0  0  0  0  0  0  0999 V2000
   38.7780   22.8960   36.1110 C   0  0  0  0  0  0  0  0  0  0  0  0
   39.5660   22.3900   36.9500 O   0  0  0  0  0  0  0  0  0  0  0  0
   36.7940   21.3280   33.4960 C   0  0  0  0  0  0  0  0  0  0  0  0
   35.7410   20.7380   34.2030 C   0  0  0  0  0  0  0  0  0  0  0  0
   35.7100   20.8790   35.5970 C   0  0  0  0  0  0  0  0  0  0  0  0
   36.7070   21.5810   36.1730 N   0  0  0  0  0  0  0  0  0  0  0  0
   37.7170   22.1440   35.4660 C   0  0  0  0  0  0  0  0  0  0  0  0
   37.7510   22.0120   34.1360 N   0  0  0  0  0  0  0  0  0  0  0  0
   36.7790   21.1960   32.4280 H   0  0  0  0  0  0  0  0  0  0  0  0
   34.9270   20.1720   33.7950 H   0  0  0  0  0  0  0  0  0  0  0  0
   34.9330   20.4550   36.2180 H   0  0  0  0  0  0  0  0  0  0  0  0
   38.9920   24.3090   35.8160 C   0  0  0  0  0  0  0  0  0  0  0  0
   38.1370   25.2490   36.3520 C   0  0  0  0  0  0  0  0  0  0  0  0
   37.3040   24.9690   36.9900 H   0  0  0  0  0  0  0  0  0  0  0  0
   38.2470   26.6280   36.1390 C   0  0  0  0  0  0  0  0  0  0  0  0
   37.5480   27.3230   36.5840 H   0  0  0  0  0  0  0  0  0  0  0  0
   39.2940   27.0450   35.3300 C   0  0  0  0  0  3  0  0  0  0  0  0
   40.1460   26.0910   34.7990 C   0  0  0  0  0  3  0  0  0  0  0  0
   39.9980   24.7700   35.0350 N   0  0  0  0  0  0  0  0  0  0  0  0
  1  2  2  0  0  0  0
  3  8  2  0  0  0  0
  3  4  1  0  0  0  0
  4  5  2  0  0  0  0
  5  6  1  0  0  0  0
  5 11  1  0  0  0  0
  7  1  1  0  0  0  0
  7  6  2  0  0  0  0
  8  7  1  0  0  0  0
  9  3  1  0  0  0  0
 10  4  1  0  0  0  0
 12  1  1  0  0  0  0
 12 13  1  0  0  0  0
 13 14  1  0  0  0  0
 15 13  2  0  0  0  0
 15 16  1  0  0  0  0
 17 15  1  0  0  0  0
 18 19  1  0  0  0  0
 18 17  2  0  0  0  0
 19 12  2  0  0  0  0
M  END
>  <minimizedAffinity>
-4.32616091

$$$$

 OpenBabel03272508433D

 19 20  0  0  0  0  0  0  0  0999 V2000
   38.8230   22.9200   35.9670 C   0  0  0  0  0  0  0  0  0  0  0  0
   39.5450   22.2600   36.7570 O   0  0  0  0  0  0  0  0  0  0  0  0
   38.2140   26.5050   36.0350 C   0  0  0  0  0  0  0  0  0  0  0  0
   39.2910   27.0280   35.3130 C   0  0  0  0  0  0  0  0  0  0  0  0
   40.2410   26.1380   34.7930 C   0  0  0  0  0  0  0  0  0  0  0  0
   40.0540   24.8230   35.0260 N   0  0  0  0  0  0  0  0  0  0  0  0
   39.0020   24.3400   35.7300 C   0  0  0  0  0  0  0  0  0  0  0  0
   38.0920   25.1860   36.2270 N   0  0  0  0  0  0  0  0  0  0  0  0
   37.5070   27.2230   36.4150 H   0  0  0  0  0  0  0  0  0  0  0  0
   39.4850   28.0600   35.0990 H   0  0  0  0  0  0  0  0  0  0  0  0
   41.1040   26.4580   34.2240 H   0  0  0  0  0  0  0  0  0  0  0  0
   37.7770   22.1640   35.2850 C   0  0  0  0  0  0  0  0  0  0  0  0
   36.7610   21.5980   36.0250 C   0  0  0  0  0  0  0  0  0  0  0  0
   36.7130   21.6970   37.1060 H   0  0  0  0  0  0  0  0  0  0  0  0
   35.7070   20.8550   35.4800 C   0  0  0  0  0  0  0  0  0  0  0  0
   34.9340   20.4320   36.1060 H   0  0  0  0  0  0  0  0  0  0  0  0
   35.7150   20.6940   34.1020 C   0  0  0  0  0  3  0  0  0  0  0  0
   36.7420   21.2680   33.3710 C   0  0  0  0  0  3  0  0  0  0  0  0
   37.7370   21.9780   33.9450 N   0  0  0  0  0  0  0  0  0  0  0  0
  1  2  2  0  0  0  0
  3  8  1  0  0  0  0
  3  9  1  0  0  0  0
  4  3  2  0  0  0  0
  5  6  2  0  0  0  0
  5  4  1  0  0  0  0
  6  7  1  0  0  0  0
  7  1  1  0  0  0  0
  7  8  2  0  0  0  0
 10  4  1  0  0  0  0
 11  5  1  0  0  0  0
 12  1  1  0  0  0  0
 12 13  1  0  0  0  0
 13 14  1  0  0  0  0
 15 13  2  0  0  0  0
 15 16  1  0  0  0  0
 17 15  1  0  0  0  0
 18 19  1  0  0  0  0
 18 17  2  0  0  0  0
 19 12  2  0  0  0  0
M  END
>  <minimizedAffinity>
-4.19515371

$$$$

 OpenBabel03272508433D

 19 20  0  0  0  0  0  0  0  0999 V2000
   38.6820   22.4490   34.2850 C   0  0  0  0  0  0  0  0  0  0  0  0
   39.7930   22.4830   33.6970 O   0  0  0  0  0  0  0  0  0  0  0  0
   35.9490   22.5060   31.8850 C   0  0  0  0  0  0  0  0  0  0  0  0
   35.1190   21.4690   32.3200 C   0  0  0  0  0  0  0  0  0  0  0  0
   35.5000   20.7380   33.4530 C   0  0  0  0  0  0  0  0  0  0  0  0
   36.6550   21.0850   34.0570 N   0  0  0  0  0  0  0  0  0  0  0  0
   37.4440   22.0950   33.6160 C   0  0  0  0  0  0  0  0  0  0  0  0
   37.0830   22.7950   32.5350 N   0  0  0  0  0  0  0  0  0  0  0  0
   35.6190   23.0420   31.0120 H   0  0  0  0  0  0  0  0  0  0  0  0
   34.1940   21.1530   31.8780 H   0  0  0  0  0  0  0  0  0  0  0  0
   34.9160   19.9210   33.8550 H   0  0  0  0  0  0  0  0  0  0  0  0
   38.7070   22.7880   35.7040 C   0  0  0  0  0  0  0  0  0  0  0  0
   39.8080   22.4480   36.4620 C   0  0  0  0  0  0  0  0  0  0  0  0
   40.6620   21.9320   36.0330 H   0  0  0  0  0  0  0  0  0  0  0  0
   39.9410   22.7240   37.8270 C   0  0  0  0  0  0  0  0  0  0  0  0
   40.8280   22.4350   38.3750 H   0  0  0  0  0  0  0  0  0  0  0  0
   38.8800   23.3830   38.4290 C   0  0  0  0  0  3  0  0  0  0  0  0
   37.7810   23.7190   37.6570 C   0  0  0  0  0  3  0  0  0  0  0  0
   37.7000   23.4310   36.3400 N   0  0  0  0  0  0  0  0  0  0  0  0
  1 12  1  0  0  0  0
  2  1  2  0  0  0  0
  3  4  2  0  0  0  0
  3  8  1  0  0  0  0
  4  5  1  0  0  0  0
  5 11  1  0  0  0  0
  5  6  2  0  0  0  0
  7  6  1  0  0  0  0
  7  1  1  0  0  0  0
  8  7  2  0  0  0  0
  9  3  1  0  0  0  0
 10  4  1  0  0  0  0
 12 19  2  0  0  0  0
 12 13  1  0  0  0  0
 13 15  2  0  0  0  0
 14 13  1  0  0  0  0
 15 16  1  0  0  0  0
 15 17  1  0  0  0  0
 18 17  2  0  0  0  0
 19 18  1  0  0  0  0
M  END
>  <minimizedAffinity>
-4.15645218

$$$$

 OpenBabel03272508433D

 19 20  0  0  0  0  0  0  0  0999 V2000
   38.4520   23.9060   36.5000 C   0  0  0  0  0  0  0  0  0  0  0  0
   37.4910   23.4550   37.1740 O   0  0  0  0  0  0  0  0  0  0  0  0
   41.9370   23.2890   35.6620 C   0  0  0  0  0  0  0  0  0  0  0  0
   42.2920   22.2400   36.5160 C   0  0  0  0  0  0  0  0  0  0  0  0
   41.3220   21.7360   37.3930 C   0  0  0  0  0  0  0  0  0  0  0  0
   40.0980   22.2990   37.3570 N   0  0  0  0  0  0  0  0  0  0  0  0
   39.7770   23.3160   36.5200 C   0  0  0  0  0  0  0  0  0  0  0  0
   40.7000   23.8010   35.6810 N   0  0  0  0  0  0  0  0  0  0  0  0
   42.7110   23.6450   35.0040 H   0  0  0  0  0  0  0  0  0  0  0  0
   43.2460   21.7570   36.5840 H   0  0  0  0  0  0  0  0  0  0  0  0
   41.5130   20.9270   38.0860 H   0  0  0  0  0  0  0  0  0  0  0  0
   38.1540   25.0760   35.6800 C   0  0  0  0  0  0  0  0  0  0  0  0
   38.2800   26.3350   36.2280 C   0  0  0  0  0  0  0  0  0  0  0  0
   38.5940   26.4850   37.2560 H   0  0  0  0  0  0  0  0  0  0  0  0
   38.0230   27.5250   35.5370 C   0  0  0  0  0  0  0  0  0  0  0  0
   38.1380   28.4880   36.0140 H   0  0  0  0  0  0  0  0  0  0  0  0
   37.6180   27.3960   34.2160 C   0  0  0  0  0  3  0  0  0  0  0  0
   37.4960   26.1250   33.6790 C   0  0  0  0  0  3  0  0  0  0  0  0
   37.7560   25.0060   34.3880 N   0  0  0  0  0  0  0  0  0  0  0  0
  1  7  1  0  0  0  0
  1  2  2  0  0  0  0
  3  8  2  0  0  0  0
  3  4  1  0  0  0  0
  4 10  1  0  0  0  0
  4  5  2  0  0  0  0
  5 11  1  0  0  0  0
  6  5  1  0  0  0  0
  7  6  2  0  0  0  0
  8  7  1  0  0  0  0
  9  3  1  0  0  0  0
 12 13  1  0  0  0  0
 12  1  1  0  0  0  0
 13 14  1  0  0  0  0
 15 16  1  0  0  0  0
 15 13  2  0  0  0  0
 17 15  1  0  0  0  0
 18 17  2  0  0  0  0
 18 19  1  0  0  0  0
 19 12  2  0  0  0  0
M  END
>  <minimizedAffinity>
-4.11505127

$$$$

 OpenBabel03272508433D

 19 20  0  0  0  0  0  0  0  0999 V2000
   38.5630   22.9160   34.1610 C   0  0  0  0  0  0  0  0  0  0  0  0
   39.4410   23.2960   33.3460 O   0  0  0  0  0  0  0  0  0  0  0  0
   39.9330   22.6230   37.5180 C   0  0  0  0  0  0  0  0  0  0  0  0
   39.0040   23.3100   38.3050 C   0  0  0  0  0  0  0  0  0  0  0  0
   37.8900   23.8830   37.6770 C   0  0  0  0  0  0  0  0  0  0  0  0
   37.7850   23.7330   36.3410 N   0  0  0  0  0  0  0  0  0  0  0  0
   38.6990   23.0630   35.5980 C   0  0  0  0  0  0  0  0  0  0  0  0
   39.7640   22.5140   36.1940 N   0  0  0  0  0  0  0  0  0  0  0  0
   40.7730   22.1980   38.0400 H   0  0  0  0  0  0  0  0  0  0  0  0
   39.0400   23.4570   39.3660 H   0  0  0  0  0  0  0  0  0  0  0  0
   37.1250   24.4300   38.2110 H   0  0  0  0  0  0  0  0  0  0  0  0
   37.3740   22.3080   33.5710 C   0  0  0  0  0  0  0  0  0  0  0  0
   36.8830   22.8010   32.3810 C   0  0  0  0  0  0  0  0  0  0  0  0
   37.3550   23.6320   31.8650 H   0  0  0  0  0  0  0  0  0  0  0  0
   35.7540   22.2980   31.7240 C   0  0  0  0  0  0  0  0  0  0  0  0
   35.4110   22.7220   30.7910 H   0  0  0  0  0  0  0  0  0  0  0  0
   35.1080   21.2340   32.3370 C   0  0  0  0  0  3  0  0  0  0  0  0
   35.6120   20.7480   33.5320 C   0  0  0  0  0  3  0  0  0  0  0  0
   36.7070   21.2690   34.1260 N   0  0  0  0  0  0  0  0  0  0  0  0
  1  7  1  0  0  0  0
  2  1  2  0  0  0  0
  3  9  1  0  0  0  0
  3  4  1  0  0  0  0
  4 10  1  0  0  0  0
  5 11  1  0  0  0  0
  5  4  2  0  0  0  0
  6  5  1  0  0  0  0
  7  8  1  0  0  0  0
  7  6  2  0  0  0  0
  8  3  2  0  0  0  0
 12 19  1  0  0  0  0
 12  1  1  0  0  0  0
 13 12  2  0  0  0  0
 14 13  1  0  0  0  0
 15 17  2  0  0  0  0
 15 13  1  0  0  0  0
 16 15  1  0  0  0  0
 17 18  1  0  0  0  0
 18 19  2  0  0  0  0
M  END
>  <minimizedAffinity>
-4.07938004

$$$$

 OpenBabel03272508433D

 19 20  0  0  0  0  0  0  0  0999 V2000
   38.6810   23.4860   34.2480 C   0  0  0  0  0  0  0  0  0  0  0  0
   39.5800   24.1280   33.6480 O   0  0  0  0  0  0  0  0  0  0  0  0
   36.1580   20.9930   33.4400 C   0  0  0  0  0  0  0  0  0  0  0  0
   35.5420   21.5180   32.3000 C   0  0  0  0  0  0  0  0  0  0  0  0
   35.9970   22.7450   31.8000 C   0  0  0  0  0  0  0  0  0  0  0  0
   37.0100   23.3470   32.4560 N   0  0  0  0  0  0  0  0  0  0  0  0
   37.5920   22.8180   33.5600 C   0  0  0  0  0  0  0  0  0  0  0  0
   37.1600   21.6470   34.0410 N   0  0  0  0  0  0  0  0  0  0  0  0
   35.7790   20.0490   33.7900 H   0  0  0  0  0  0  0  0  0  0  0  0
   34.7370   21.0820   31.7420 H   0  0  0  0  0  0  0  0  0  0  0  0
   35.5760   23.2210   30.9240 H   0  0  0  0  0  0  0  0  0  0  0  0
   38.7970   23.4450   35.7020 C   0  0  0  0  0  0  0  0  0  0  0  0
   37.9040   24.1590   36.4720 C   0  0  0  0  0  0  0  0  0  0  0  0
   37.1120   24.7540   36.0280 H   0  0  0  0  0  0  0  0  0  0  0  0
   37.9190   24.1920   37.8710 C   0  0  0  0  0  0  0  0  0  0  0  0
   37.1930   24.7690   38.4280 H   0  0  0  0  0  0  0  0  0  0  0  0
   38.9110   23.4490   38.4950 C   0  0  0  0  0  3  0  0  0  0  0  0
   39.8010   22.7360   37.7100 C   0  0  0  0  0  3  0  0  0  0  0  0
   39.7450   22.7360   36.3610 N   0  0  0  0  0  0  0  0  0  0  0  0
  1 12  1  0  0  0  0
  2  1  2  0  0  0  0
  3  9  1  0  0  0  0
  3  8  1  0  0  0  0
  4  3  2  0  0  0  0
  5  4  1  0  0  0  0
  5  6  2  0  0  0  0
  6  7  1  0  0  0  0
  7  8  2  0  0  0  0
  7  1  1  0  0  0  0
 10  4  1  0  0  0  0
 11  5  1  0  0  0  0
 12 19  2  0  0  0  0
 12 13  1  0  0  0  0
 13 15  2  0  0  0  0
 14 13  1  0  0  0  0
 15 16  1  0  0  0  0
 15 17  1  0  0  0  0
 18 17  2  0  0  0  0
 19 18  1  0  0  0  0
M  END
>  <minimizedAffinity>
-4.06284904

$$$$

 OpenBabel03272508433D

 19 20  0  0  0  0  0  0  0  0999 V2000
   38.2770   25.0940   33.4510 C   0  0  0  0  0  0  0  0  0  0  0  0
   39.3970   25.5960   33.1780 O   0  0  0  0  0  0  0  0  0  0  0  0
   35.6180   26.4550   31.3760 C   0  0  0  0  0  0  0  0  0  0  0  0
   35.0050   25.3130   30.8500 C   0  0  0  0  0  0  0  0  0  0  0  0
   35.5110   24.0570   31.2110 C   0  0  0  0  0  0  0  0  0  0  0  0
   36.5650   24.0300   32.0510 N   0  0  0  0  0  0  0  0  0  0  0  0
   37.1430   25.1510   32.5480 C   0  0  0  0  0  0  0  0  0  0  0  0
   36.6630   26.3520   32.2050 N   0  0  0  0  0  0  0  0  0  0  0  0
   35.1980   27.3980   31.0730 H   0  0  0  0  0  0  0  0  0  0  0  0
   34.1680   25.2790   30.1820 H   0  0  0  0  0  0  0  0  0  0  0  0
   35.0960   23.1250   30.8500 H   0  0  0  0  0  0  0  0  0  0  0  0
   38.1800   24.4370   34.7500 C   0  0  0  0  0  0  0  0  0  0  0  0
   38.0730   25.2050   35.8900 C   0  0  0  0  0  0  0  0  0  0  0  0
   38.0580   26.2900   35.8520 H   0  0  0  0  0  0  0  0  0  0  0  0
   37.9720   24.6840   37.1860 C   0  0  0  0  0  0  0  0  0  0  0  0
   37.8890   25.3320   38.0470 H   0  0  0  0  0  0  0  0  0  0  0  0
   37.9850   23.3010   37.2970 C   0  0  0  0  0  3  0  0  0  0  0  0
   38.0930   22.5420   36.1440 C   0  0  0  0  0  3  0  0  0  0  0  0
   38.1870   23.0930   34.9150 N   0  0  0  0  0  0  0  0  0  0  0  0
  1 12  1  0  0  0  0
  2  1  2  0  0  0  0
  3  8  1  0  0  0  0
  4  5  1  0  0  0  0
  4  3  2  0  0  0  0
  5  6  2  0  0  0  0
  6  7  1  0  0  0  0
  7  1  1  0  0  0  0
  8  7  2  0  0  0  0
  9  3  1  0  0  0  0
 10  4  1  0  0  0  0
 11  5  1  0  0  0  0
 12 19  2  0  0  0  0
 12 13  1  0  0  0  0
 13 15  2  0  0  0  0
 14 13  1  0  0  0  0
 15 17  1  0  0  0  0
 15 16  1  0  0  0  0
 18 17  2  0  0  0  0
 19 18  1  0  0  0  0
M  END
>  <minimizedAffinity>
-4.04157352

$$$$

 OpenBabel03272508433D

 19 20  0  0  0  0  0  0  0  0999 V2000
   38.8650   24.3860   34.2610 C   0  0  0  0  0  0  0  0  0  0  0  0
   39.8780   25.0380   33.9000 O   0  0  0  0  0  0  0  0  0  0  0  0
   36.1980   24.6040   31.7960 C   0  0  0  0  0  0  0  0  0  0  0  0
   35.8310   23.2690   31.6010 C   0  0  0  0  0  0  0  0  0  0  0  0
   36.5070   22.2780   32.3250 C   0  0  0  0  0  0  0  0  0  0  0  0
   37.4780   22.6790   33.1710 N   0  0  0  0  0  0  0  0  0  0  0  0
   37.8170   23.9800   33.3430 C   0  0  0  0  0  0  0  0  0  0  0  0
   37.1730   24.9290   32.6540 N   0  0  0  0  0  0  0  0  0  0  0  0
   35.6530   25.3330   31.2220 H   0  0  0  0  0  0  0  0  0  0  0  0
   35.0700   22.8980   30.9450 H   0  0  0  0  0  0  0  0  0  0  0  0
   36.2860   21.2230   32.2340 H   0  0  0  0  0  0  0  0  0  0  0  0
   38.8020   24.0510   35.6800 C   0  0  0  0  0  0  0  0  0  0  0  0
   39.7720   23.2380   36.2260 C   0  0  0  0  0  0  0  0  0  0  0  0
   40.5870   22.8360   35.6310 H   0  0  0  0  0  0  0  0  0  0  0  0
   39.8120   22.8530   37.5720 C   0  0  0  0  0  0  0  0  0  0  0  0
   40.5980   22.2130   37.9500 H   0  0  0  0  0  0  0  0  0  0  0  0
   38.7960   23.3370   38.3820 C   0  0  0  0  0  3  0  0  0  0  0  0
   37.8280   24.1530   37.8200 C   0  0  0  0  0  3  0  0  0  0  0  0
   37.8330   24.4960   36.5140 N   0  0  0  0  0  0  0  0  0  0  0  0
  1 12  1  0  0  0  0
  2  1  2  0  0  0  0
  3  8  1  0  0  0  0
  4  3  2  0  0  0  0
  4  5  1  0  0  0  0
  5  6  2  0  0  0  0
  6  7  1  0  0  0  0
  7  1  1  0  0  0  0
  8  7  2  0  0  0  0
  9  3  1  0  0  0  0
 10  4  1  0  0  0  0
 11  5  1  0  0  0  0
 12 13  2  0  0  0  0
 12 19  1  0  0  0  0
 13 15  1  0  0  0  0
 14 13  1  0  0  0  0
 15 16  1  0  0  0  0
 15 17  2  0  0  0  0
 18 17  1  0  0  0  0
 19 18  2  0  0  0  0
M  END
>  <minimizedAffinity>
-4.03287697

$$$$

 OpenBabel03272508433D

 19 20  0  0  0  0  0  0  0  0999 V2000
   38.2080   23.6960   34.4860 C   0  0  0  0  0  0  0  0  0  0  0  0
   37.9140   22.6220   33.9030 O   0  0  0  0  0  0  0  0  0  0  0  0
   37.1670   26.5510   32.4860 C   0  0  0  0  0  0  0  0  0  0  0  0
   38.2880   27.3860   32.5110 C   0  0  0  0  0  0  0  0  0  0  0  0
   39.4190   26.9650   33.2230 C   0  0  0  0  0  0  0  0  0  0  0  0
   39.3530   25.7710   33.8460 N   0  0  0  0  0  0  0  0  0  0  0  0
   38.2540   24.9780   33.8080 C   0  0  0  0  0  0  0  0  0  0  0  0
   37.1720   25.3760   33.1280 N   0  0  0  0  0  0  0  0  0  0  0  0
   36.3210   26.9110   31.9270 H   0  0  0  0  0  0  0  0  0  0  0  0
   38.3920   28.3400   32.0350 H   0  0  0  0  0  0  0  0  0  0  0  0
   40.3260   27.5500   33.2930 H   0  0  0  0  0  0  0  0  0  0  0  0
   38.5040   23.5810   35.9110 C   0  0  0  0  0  0  0  0  0  0  0  0
   37.6910   24.2180   36.8240 C   0  0  0  0  0  0  0  0  0  0  0  0
   36.8320   24.8060   36.5150 H   0  0  0  0  0  0  0  0  0  0  0  0
   37.8780   24.1770   38.2100 C   0  0  0  0  0  0  0  0  0  0  0  0
   37.2090   24.6950   38.8830 H   0  0  0  0  0  0  0  0  0  0  0  0
   38.9610   23.4390   38.6640 C   0  0  0  0  0  3  0  0  0  0  0  0
   39.7700   22.8040   37.7360 C   0  0  0  0  0  3  0  0  0  0  0  0
   39.5470   22.8740   36.4060 N   0  0  0  0  0  0  0  0  0  0  0  0
  1 12  1  0  0  0  0
  2  1  2  0  0  0  0
  3  4  2  0  0  0  0
  3  8  1  0  0  0  0
  4  5  1  0  0  0  0
  5 11  1  0  0  0  0
  5  6  2  0  0  0  0
  7  6  1  0  0  0  0
  7  1  1  0  0  0  0
  8  7  2  0  0  0  0
  9  3  1  0  0  0  0
 10  4  1  0  0  0  0
 12 19  2  0  0  0  0
 12 13  1  0  0  0  0
 13 15  2  0  0  0  0
 14 13  1  0  0  0  0
 15 17  1  0  0  0  0
 15 16  1  0  0  0  0
 18 17  2  0  0  0  0
 19 18  1  0  0  0  0
M  END
>  <minimizedAffinity>
-4.00176954

$$$$
