
 OpenBabel03272509303D

 37 39  0  0  1  0  0  0  0  0999 V2000
   36.4130   30.7600   48.9990 C   0  0  2  0  0  0  0  0  0  0  0  0
   37.4350   31.5880   49.7180 C   0  0  0  0  0  0  0  0  0  0  0  0
   38.3040   30.7730   50.6520 C   0  0  0  0  0  0  0  0  0  0  0  0
   37.4350   30.0420   51.6720 C   0  0  0  0  0  0  0  0  0  0  0  0
   36.1490   29.5030   51.1040 C   0  0  0  0  0  0  0  0  0  0  0  0
   36.2980   29.3850   49.5760 C   0  0  1  0  0  0  0  0  0  0  0  0
   35.3670   31.1880   49.0480 H   0  0  0  0  0  0  0  0  0  0  0  0
   36.8200   32.2330   50.4320 H   0  0  0  0  0  0  0  0  0  0  0  0
   37.9970   32.2920   49.1350 H   0  0  0  0  0  0  0  0  0  0  0  0
   38.9130   31.4920   51.2050 H   0  0  0  0  0  0  0  0  0  0  0  0
   38.9130   30.0120   50.1500 H   0  0  0  0  0  0  0  0  0  0  0  0
   38.0420   29.2130   52.0720 H   0  0  0  0  0  0  0  0  0  0  0  0
   37.2300   30.7320   52.5080 H   0  0  0  0  0  0  0  0  0  0  0  0
   35.3350   30.2250   51.2930 H   0  0  0  0  0  0  0  0  0  0  0  0
   35.9160   28.5040   51.5290 H   0  0  0  0  0  0  0  0  0  0  0  0
   37.2290   28.8740   49.5140 H   0  0  0  0  0  0  0  0  0  0  0  0
   36.7340   30.6420   47.5550 C   0  0  0  0  0  0  0  0  0  0  0  0
   38.0910   30.8140   47.2190 C   0  0  0  0  0  0  0  0  0  0  0  0
   38.4190   30.7030   45.8630 C   0  0  0  0  0  0  0  0  0  0  0  0
   37.4190   30.4390   44.9550 N   0  0  0  0  0  0  0  0  0  0  0  0
   36.1110   30.2790   45.3380 C   0  0  0  0  0  0  0  0  0  0  0  0
   35.7930   30.3850   46.6400 N   0  0  0  0  0  0  0  0  0  0  0  0
   38.9550   31.0120   47.8220 H   0  0  0  0  0  0  0  0  0  0  0  0
   39.4120   30.8110   45.4670 H   0  0  0  0  0  0  0  0  0  0  0  0
   35.3660   30.0720   44.5810 H   0  0  0  0  0  0  0  0  0  0  0  0
   33.9480   28.5000   49.2020 C   0  0  0  0  0  0  0  0  0  0  0  0
   33.2070   29.2190   49.9580 O   0  0  0  0  0  0  0  0  0  0  0  0
   35.3450   28.5470   48.9480 N   0  0  0  0  0  0  0  0  0  0  0  0
   35.6680   27.8610   48.1910 H   0  0  0  0  0  0  0  0  0  0  0  0
   33.1390   27.4640   48.5090 C   0  0  0  0  0  0  0  0  0  0  0  0
   31.7670   27.3940   48.5570 C   0  0  0  0  0  0  0  0  0  0  0  0
   31.2350   28.1460   49.1390 H   0  0  0  0  0  0  0  0  0  0  0  0
   31.0200   26.4420   47.9190 C   0  0  0  0  0  0  0  0  0  0  0  0
   29.9380   26.4420   47.9970 H   0  0  0  0  0  0  0  0  0  0  0  0
   31.6530   25.4840   47.1810 C   0  0  0  0  0  3  0  0  0  0  0  0
   33.0300   25.5320   47.1170 C   0  0  0  0  0  3  0  0  0  0  0  0
   33.7080   26.4960   47.7670 N   0  0  0  0  0  0  0  0  0  0  0  0
  1  7  1  1  0  0  0
  1  6  1  0  0  0  0
  1  2  1  0  0  0  0
  2  8  1  0  0  0  0
  2  3  1  0  0  0  0
  3 10  1  0  0  0  0
  3  4  1  0  0  0  0
  4 12  1  0  0  0  0
  4 13  1  0  0  0  0
  5 14  1  0  0  0  0
  5 15  1  0  0  0  0
  5  4  1  0  0  0  0
  6 16  1  6  0  0  0
  6  5  1  0  0  0  0
  9  2  1  0  0  0  0
 11  3  1  0  0  0  0
 17  1  1  0  0  0  0
 18 17  1  0  0  0  0
 18 23  1  0  0  0  0
 19 18  2  0  0  0  0
 20 21  2  0  0  0  0
 20 19  1  0  0  0  0
 21 22  1  0  0  0  0
 22 17  2  0  0  0  0
 24 19  1  0  0  0  0
 25 21  1  0  0  0  0
 26 27  2  0  0  0  0
 28 26  1  0  0  0  0
 28  6  1  0  0  0  0
 29 28  1  0  0  0  0
 30 31  1  0  0  0  0
 30 26  1  0  0  0  0
 31 32  1  0  0  0  0
 33 34  1  0  0  0  0
 33 31  2  0  0  0  0
 35 33  1  0  0  0  0
 36 35  2  0  0  0  0
 36 37  1  0  0  0  0
 37 30  2  0  0  0  0
M  END
>  <minimizedAffinity>
-5.99844074

>  <minimizedRMSD>
0.474286199

$$$$
