
 OpenBabel03272501293D

 19 20  0  0  0  0  0  0  0  0999 V2000
   38.7260   32.5860   48.3900 C   0  0  0  0  0  0  0  0  0  0  0  0
   39.0810   33.7220   48.8220 O   0  0  0  0  0  0  0  0  0  0  0  0
   37.4580   30.2380   50.9920 C   0  0  0  0  0  0  0  0  0  0  0  0
   38.3120   31.1100   50.2990 C   0  0  0  0  0  0  0  0  0  0  0  0
   37.8630   31.6870   49.1190 C   0  0  0  0  0  0  0  0  0  0  0  0
   36.6010   31.3730   48.6910 N   0  0  0  0  0  0  0  0  0  0  0  0
   35.8110   30.5350   49.3820 C   0  0  0  0  0  0  0  0  0  0  0  0
   36.2280   29.9710   50.5170 N   0  0  0  0  0  0  0  0  0  0  0  0
   37.8430   29.8080   51.9070 H   0  0  0  0  0  0  0  0  0  0  0  0
   39.3100   31.3630   50.6270 H   0  0  0  0  0  0  0  0  0  0  0  0
   34.8510   30.4010   48.9010 H   0  0  0  0  0  0  0  0  0  0  0  0
   39.2560   32.2270   47.0780 C   0  0  0  0  0  0  0  0  0  0  0  0
   39.9160   33.1690   46.3150 C   0  0  0  0  0  0  0  0  0  0  0  0
   40.0510   34.1670   46.6670 H   0  0  0  0  0  0  0  0  0  0  0  0
   40.4470   32.8970   45.0560 C   0  0  0  0  0  0  0  0  0  0  0  0
   40.9620   33.6580   44.4780 H   0  0  0  0  0  0  0  0  0  0  0  0
   40.3090   31.6090   44.5290 C   0  0  0  0  0  0  0  0  0  0  0  0
   39.6380   30.6900   45.3280 C   0  0  0  0  0  0  0  0  0  0  0  0
   39.1320   30.9890   46.5530 N   0  0  0  0  0  0  0  0  0  0  0  0
  1  2  2  0  0  0  0
  1  5  1  0  0  0  0
  3  9  1  0  0  0  0
  4 10  1  0  0  0  0
  4  3  2  0  0  0  0
  5  4  1  0  0  0  0
  6  5  2  0  0  0  0
  6  7  1  0  0  0  0
  7  8  2  0  0  0  0
  8  3  1  0  0  0  0
 11  7  1  0  0  0  0
 12  1  1  0  0  0  0
 13 14  1  0  0  0  0
 13 12  2  0  0  0  0
 15 13  1  0  0  0  0
 16 15  1  0  0  0  0
 17 15  2  0  0  0  0
 17 18  1  0  0  0  0
 18 19  2  0  0  0  0
 19 12  1  0  0  0  0
M  END
>  <minimizedAffinity>
-5.2635932

>  <minimizedRMSD>
2.24982262

$$$$
