
 OpenBabel03272509303D

 37 39  0  0  1  0  0  0  0  0999 V2000
   36.4090   30.7580   48.9990 C   0  0  2  0  0  0  0  0  0  0  0  0
   37.4250   31.5910   49.7190 C   0  0  0  0  0  0  0  0  0  0  0  0
   38.2970   30.7800   50.6550 C   0  0  0  0  0  0  0  0  0  0  0  0
   37.4290   30.0440   51.6730 C   0  0  0  0  0  0  0  0  0  0  0  0
   36.1470   29.4990   51.1030 C   0  0  0  0  0  0  0  0  0  0  0  0
   36.3000   29.3820   49.5750 C   0  0  1  0  0  0  0  0  0  0  0  0
   35.3600   31.1800   49.0450 H   0  0  0  0  0  0  0  0  0  0  0  0
   36.8050   32.2320   50.4330 H   0  0  0  0  0  0  0  0  0  0  0  0
   37.9850   32.2980   49.1380 H   0  0  0  0  0  0  0  0  0  0  0  0
   38.9010   31.5020   51.2100 H   0  0  0  0  0  0  0  0  0  0  0  0
   38.9100   30.0230   50.1540 H   0  0  0  0  0  0  0  0  0  0  0  0
   38.0390   29.2190   52.0740 H   0  0  0  0  0  0  0  0  0  0  0  0
   37.2180   30.7330   52.5090 H   0  0  0  0  0  0  0  0  0  0  0  0
   35.3290   30.2160   51.2900 H   0  0  0  0  0  0  0  0  0  0  0  0
   35.9180   28.4990   51.5270 H   0  0  0  0  0  0  0  0  0  0  0  0
   37.2340   28.8760   49.5140 H   0  0  0  0  0  0  0  0  0  0  0  0
   36.7330   30.6420   47.5550 C   0  0  0  0  0  0  0  0  0  0  0  0
   38.0910   30.8170   47.2230 C   0  0  0  0  0  0  0  0  0  0  0  0
   38.4220   30.7090   45.8670 C   0  0  0  0  0  0  0  0  0  0  0  0
   37.4250   30.4430   44.9560 N   0  0  0  0  0  0  0  0  0  0  0  0
   36.1150   30.2810   45.3360 C   0  0  0  0  0  0  0  0  0  0  0  0
   35.7940   30.3840   46.6380 N   0  0  0  0  0  0  0  0  0  0  0  0
   38.9520   31.0160   47.8270 H   0  0  0  0  0  0  0  0  0  0  0  0
   39.4160   30.8190   45.4730 H   0  0  0  0  0  0  0  0  0  0  0  0
   35.3730   30.0730   44.5770 H   0  0  0  0  0  0  0  0  0  0  0  0
   33.9550   28.4860   49.1950 C   0  0  0  0  0  0  0  0  0  0  0  0
   33.2080   29.2020   49.9490 O   0  0  0  0  0  0  0  0  0  0  0  0
   35.3520   28.5390   48.9440 N   0  0  0  0  0  0  0  0  0  0  0  0
   35.6800   27.8550   48.1890 H   0  0  0  0  0  0  0  0  0  0  0  0
   33.1530   27.4460   48.5000 C   0  0  0  0  0  0  0  0  0  0  0  0
   33.6880   26.4760   47.6840 C   0  0  0  0  0  0  0  0  0  0  0  0
   34.7680   26.4680   47.5370 H   0  0  0  0  0  0  0  0  0  0  0  0
   32.9540   25.5170   47.0410 C   0  0  0  0  0  0  0  0  0  0  0  0
   33.4360   24.7780   46.4110 H   0  0  0  0  0  0  0  0  0  0  0  0
   31.5970   25.4990   47.2040 C   0  0  0  0  0  3  0  0  0  0  0  0
   31.0370   26.4600   48.0170 C   0  0  0  0  0  3  0  0  0  0  0  0
   31.8150   27.3770   48.6220 N   0  0  0  0  0  0  0  0  0  0  0  0
  1  7  1  1  0  0  0
  1  6  1  0  0  0  0
  1  2  1  0  0  0  0
  2  8  1  0  0  0  0
  2  3  1  0  0  0  0
  3 10  1  0  0  0  0
  3  4  1  0  0  0  0
  4 12  1  0  0  0  0
  4 13  1  0  0  0  0
  5 14  1  0  0  0  0
  5 15  1  0  0  0  0
  5  4  1  0  0  0  0
  6 16  1  6  0  0  0
  6  5  1  0  0  0  0
  9  2  1  0  0  0  0
 11  3  1  0  0  0  0
 17  1  1  0  0  0  0
 18 17  1  0  0  0  0
 18 23  1  0  0  0  0
 19 18  2  0  0  0  0
 20 21  2  0  0  0  0
 20 19  1  0  0  0  0
 21 22  1  0  0  0  0
 22 17  2  0  0  0  0
 24 19  1  0  0  0  0
 25 21  1  0  0  0  0
 26 27  2  0  0  0  0
 28 26  1  0  0  0  0
 28  6  1  0  0  0  0
 29 28  1  0  0  0  0
 30 37  1  0  0  0  0
 30 26  1  0  0  0  0
 31 30  2  0  0  0  0
 32 31  1  0  0  0  0
 33 35  2  0  0  0  0
 33 31  1  0  0  0  0
 34 33  1  0  0  0  0
 35 36  1  0  0  0  0
 36 37  2  0  0  0  0
M  END
>  <minimizedAffinity>
-6.07923651

>  <minimizedRMSD>
0.620619297

$$$$
