
 OpenBabel03272508423D

 19 20  0  0  0  0  0  0  0  0999 V2000
   34.9230   28.7490   48.7060 C   0  0  0  0  0  0  0  0  0  0  0  0
   34.5840   27.8040   49.4630 O   0  0  0  0  0  0  0  0  0  0  0  0
   33.0550   30.6110   46.2000 C   0  0  0  0  0  0  0  0  0  0  0  0
   32.9170   29.6920   45.1550 C   0  0  0  0  0  0  0  0  0  0  0  0
   33.4710   28.4150   45.3110 C   0  0  0  0  0  0  0  0  0  0  0  0
   34.1090   28.1510   46.4690 N   0  0  0  0  0  0  0  0  0  0  0  0
   34.2310   29.0580   47.4680 C   0  0  0  0  0  0  0  0  0  0  0  0
   33.7030   30.2790   47.3240 N   0  0  0  0  0  0  0  0  0  0  0  0
   32.6140   31.5790   46.0400 H   0  0  0  0  0  0  0  0  0  0  0  0
   32.4210   29.8500   44.2180 H   0  0  0  0  0  0  0  0  0  0  0  0
   33.4100   27.6460   44.5520 H   0  0  0  0  0  0  0  0  0  0  0  0
   36.0700   29.5340   49.1500 C   0  0  0  0  0  0  0  0  0  0  0  0
   36.2930   29.7020   50.5010 C   0  0  0  0  0  0  0  0  0  0  0  0
   35.6380   29.2650   51.2490 H   0  0  0  0  0  0  0  0  0  0  0  0
   37.3580   30.4320   51.0400 C   0  0  0  0  0  0  0  0  0  0  0  0
   37.4880   30.5310   52.1080 H   0  0  0  0  0  0  0  0  0  0  0  0
   38.2300   31.0130   50.1300 C   0  0  0  0  0  0  0  0  0  0  0  0
   37.9940   30.8370   48.7770 C   0  0  0  0  0  0  0  0  0  0  0  0
   36.9500   30.1220   48.3060 N   0  0  0  0  0  0  0  0  0  0  0  0
  1 12  1  0  0  0  0
  1  2  2  0  0  0  0
  3  8  1  0  0  0  0
  4  5  1  0  0  0  0
  4  3  2  0  0  0  0
  5  6  2  0  0  0  0
  6  7  1  0  0  0  0
  7  1  1  0  0  0  0
  8  7  2  0  0  0  0
  9  3  1  0  0  0  0
 10  4  1  0  0  0  0
 11  5  1  0  0  0  0
 12 13  1  0  0  0  0
 13 15  2  0  0  0  0
 13 14  1  0  0  0  0
 15 16  1  0  0  0  0
 17 15  1  0  0  0  0
 18 17  2  0  0  0  0
 19 18  1  0  0  0  0
 19 12  2  0  0  0  0
M  END
>  <minimizedAffinity>
-4.23397732

>  <minimizedRMSD>
5.11046648

$$$$
