
 OpenBabel03272509293D

 37 39  0  0  1  0  0  0  0  0999 V2000
   36.4140   30.7600   49.0000 C   0  0  2  0  0  0  0  0  0  0  0  0
   37.4360   31.5880   49.7190 C   0  0  0  0  0  0  0  0  0  0  0  0
   38.3040   30.7720   50.6530 C   0  0  0  0  0  0  0  0  0  0  0  0
   37.4340   30.0410   51.6730 C   0  0  0  0  0  0  0  0  0  0  0  0
   36.1490   29.5030   51.1050 C   0  0  0  0  0  0  0  0  0  0  0  0
   36.2980   29.3850   49.5770 C   0  0  1  0  0  0  0  0  0  0  0  0
   35.3680   31.1880   49.0480 H   0  0  0  0  0  0  0  0  0  0  0  0
   36.8210   32.2330   50.4330 H   0  0  0  0  0  0  0  0  0  0  0  0
   37.9980   32.2920   49.1360 H   0  0  0  0  0  0  0  0  0  0  0  0
   38.9130   31.4910   51.2070 H   0  0  0  0  0  0  0  0  0  0  0  0
   38.9130   30.0110   50.1510 H   0  0  0  0  0  0  0  0  0  0  0  0
   38.0410   29.2120   52.0730 H   0  0  0  0  0  0  0  0  0  0  0  0
   37.2290   30.7310   52.5090 H   0  0  0  0  0  0  0  0  0  0  0  0
   35.3350   30.2250   51.2940 H   0  0  0  0  0  0  0  0  0  0  0  0
   35.9150   28.5040   51.5290 H   0  0  0  0  0  0  0  0  0  0  0  0
   37.2290   28.8740   49.5140 H   0  0  0  0  0  0  0  0  0  0  0  0
   36.7350   30.6420   47.5560 C   0  0  0  0  0  0  0  0  0  0  0  0
   38.0920   30.8150   47.2210 C   0  0  0  0  0  0  0  0  0  0  0  0
   38.4200   30.7050   45.8650 C   0  0  0  0  0  0  0  0  0  0  0  0
   37.4210   30.4400   44.9560 N   0  0  0  0  0  0  0  0  0  0  0  0
   36.1120   30.2790   45.3390 C   0  0  0  0  0  0  0  0  0  0  0  0
   35.7940   30.3850   46.6410 N   0  0  0  0  0  0  0  0  0  0  0  0
   38.9550   31.0130   47.8230 H   0  0  0  0  0  0  0  0  0  0  0  0
   39.4130   30.8130   45.4690 H   0  0  0  0  0  0  0  0  0  0  0  0
   35.3680   30.0720   44.5810 H   0  0  0  0  0  0  0  0  0  0  0  0
   33.9480   28.4990   49.2030 C   0  0  0  0  0  0  0  0  0  0  0  0
   33.2070   29.2170   49.9610 O   0  0  0  0  0  0  0  0  0  0  0  0
   35.3450   28.5480   48.9480 N   0  0  0  0  0  0  0  0  0  0  0  0
   35.6670   27.8630   48.1900 H   0  0  0  0  0  0  0  0  0  0  0  0
   33.1400   27.4640   48.5090 C   0  0  0  0  0  0  0  0  0  0  0  0
   31.7670   27.3960   48.5540 C   0  0  0  0  0  0  0  0  0  0  0  0
   31.2350   28.1490   49.1350 H   0  0  0  0  0  0  0  0  0  0  0  0
   31.0190   26.4430   47.9170 C   0  0  0  0  0  0  0  0  0  0  0  0
   29.9390   26.4440   47.9920 H   0  0  0  0  0  0  0  0  0  0  0  0
   31.6550   25.4840   47.1800 C   0  0  0  0  0  3  0  0  0  0  0  0
   33.0310   25.5310   47.1190 C   0  0  0  0  0  3  0  0  0  0  0  0
   33.7080   26.4950   47.7680 N   0  0  0  0  0  0  0  0  0  0  0  0
  1  7  1  1  0  0  0
  1  6  1  0  0  0  0
  1  2  1  0  0  0  0
  2  8  1  0  0  0  0
  2  3  1  0  0  0  0
  3 10  1  0  0  0  0
  3  4  1  0  0  0  0
  4 12  1  0  0  0  0
  4 13  1  0  0  0  0
  5 14  1  0  0  0  0
  5 15  1  0  0  0  0
  5  4  1  0  0  0  0
  6 16  1  6  0  0  0
  6  5  1  0  0  0  0
  9  2  1  0  0  0  0
 11  3  1  0  0  0  0
 17  1  1  0  0  0  0
 18 17  1  0  0  0  0
 18 23  1  0  0  0  0
 19 18  2  0  0  0  0
 20 21  2  0  0  0  0
 20 19  1  0  0  0  0
 21 22  1  0  0  0  0
 22 17  2  0  0  0  0
 24 19  1  0  0  0  0
 25 21  1  0  0  0  0
 26 27  2  0  0  0  0
 28 26  1  0  0  0  0
 28  6  1  0  0  0  0
 29 28  1  0  0  0  0
 30 31  1  0  0  0  0
 30 26  1  0  0  0  0
 31 32  1  0  0  0  0
 33 34  1  0  0  0  0
 33 31  2  0  0  0  0
 35 33  1  0  0  0  0
 36 35  2  0  0  0  0
 36 37  1  0  0  0  0
 37 30  2  0  0  0  0
M  END
>  <minimizedAffinity>
-5.99945211

>  <minimizedRMSD>
0.563068211

$$$$
