
 OpenBabel03272503243D

 31 33  0  0  1  0  0  0  0  0999 V2000
   36.2160   29.8620   49.0870 N   0  0  0  0  0  0  0  0  0  0  0  0
   36.7260   31.1880   49.0960 C   0  0  1  0  0  0  0  0  0  0  0  0
   37.3340   31.3730   50.4630 C   0  0  0  0  0  0  0  0  0  0  0  0
   37.0670   30.0220   51.1710 C   0  0  0  0  0  0  0  0  0  0  0  0
   37.0560   29.1110   49.9760 C   0  0  0  0  0  0  0  0  0  0  0  0
   35.8130   31.9240   49.1360 H   0  0  0  0  0  0  0  0  0  0  0  0
   36.9720   32.2230   51.0330 H   0  0  0  0  0  0  0  0  0  0  0  0
   38.4440   31.3800   50.2990 H   0  0  0  0  0  0  0  0  0  0  0  0
   36.0680   30.0480   51.6040 H   0  0  0  0  0  0  0  0  0  0  0  0
   37.8800   29.7960   51.8750 H   0  0  0  0  0  0  0  0  0  0  0  0
   38.0730   28.9380   49.5640 H   0  0  0  0  0  0  0  0  0  0  0  0
   36.5940   28.1300   50.2550 H   0  0  0  0  0  0  0  0  0  0  0  0
   35.0920   29.3960   48.3470 C   0  0  0  0  0  0  0  0  0  0  0  0
   34.3430   30.3310   47.6140 C   0  0  0  0  0  0  0  0  0  0  0  0
   33.2400   29.8930   46.8800 C   0  0  0  0  0  0  0  0  0  0  0  0
   32.9620   28.5350   46.9330 N   0  0  0  0  0  0  0  0  0  0  0  0
   33.7080   27.6730   47.6510 C   0  0  0  0  0  0  0  0  0  0  0  0
   34.7920   28.0910   48.3730 N   0  0  0  0  0  0  0  0  0  0  0  0
   34.5660   31.3710   47.5820 H   0  0  0  0  0  0  0  0  0  0  0  0
   32.6460   30.5750   46.3100 H   0  0  0  0  0  0  0  0  0  0  0  0
   33.3980   26.6410   47.6180 H   0  0  0  0  0  0  0  0  0  0  0  0
   37.5350   31.6190   47.9810 C   0  0  0  0  0  0  0  0  0  0  0  0
   38.1500   32.6520   48.0580 O   0  0  0  0  0  0  0  0  0  0  0  0
   37.7710   31.0130   46.6490 C   0  0  0  0  0  0  0  0  0  0  0  0
   38.9950   30.5740   46.2060 C   0  0  0  0  0  0  0  0  0  0  0  0
   39.8550   30.6670   46.8770 H   0  0  0  0  0  0  0  0  0  0  0  0
   39.2080   30.0210   44.9660 C   0  0  0  0  0  0  0  0  0  0  0  0
   40.2160   29.7050   44.7110 H   0  0  0  0  0  0  0  0  0  0  0  0
   38.1640   29.8790   44.0830 C   0  0  0  0  0  0  0  0  0  0  0  0
   36.9370   30.3180   44.5220 C   0  0  0  0  0  0  0  0  0  0  0  0
   36.8050   30.8430   45.7360 N   0  0  0  0  0  0  0  0  0  0  0  0
  1  2  1  0  0  0  0
  1  5  1  0  0  0  0
  2  6  1  6  0  0  0
  2  3  1  0  0  0  0
  3  7  1  0  0  0  0
  3  4  1  0  0  0  0
  4  9  1  0  0  0  0
  4 10  1  0  0  0  0
  5 12  1  0  0  0  0
  5  4  1  0  0  0  0
  8  3  1  0  0  0  0
 11  5  1  0  0  0  0
 13 18  1  0  0  0  0
 13  1  1  0  0  0  0
 14 13  2  0  0  0  0
 15 16  2  0  0  0  0
 15 14  1  0  0  0  0
 16 17  1  0  0  0  0
 17 18  2  0  0  0  0
 19 14  1  0  0  0  0
 20 15  1  0  0  0  0
 21 17  1  0  0  0  0
 22 23  2  0  0  0  0
 22  2  1  0  0  0  0
 24 22  1  0  0  0  0
 25 24  1  0  0  0  0
 25 26  1  0  0  0  0
 27 25  2  0  0  0  0
 28 27  1  0  0  0  0
 29 30  2  0  0  0  0
 29 27  1  0  0  0  0
 30 31  1  0  0  0  0
 31 24  2  0  0  0  0
M  END
>  <minimizedAffinity>
-5.15410089

>  <minimizedRMSD>
1.08043122

$$$$
