
 OpenBabel03272505083D

 28 30  0  0  0  0  0  0  0  0999 V2000
   36.2790   30.9070   45.3920 Cl  0  0  0  0  0  0  0  0  0  0  0  0
   36.5010   30.4940   47.0840 C   0  0  0  0  0  0  0  0  0  0  0  0
   37.7390   30.7310   47.6040 C   0  0  0  0  0  0  0  0  0  0  0  0
   37.9420   30.4100   48.9540 C   0  0  0  0  0  0  0  0  0  0  0  0
   36.9240   29.8820   49.6910 C   0  0  0  0  0  0  0  0  0  0  0  0
   35.6980   29.6730   49.0870 C   0  0  0  0  0  0  0  0  0  0  0  0
   35.4280   29.9650   47.7660 C   0  0  0  0  0  0  0  0  0  0  0  0
   38.9230   30.5930   49.3840 H   0  0  0  0  0  0  0  0  0  0  0  0
   37.0970   29.6390   50.7320 H   0  0  0  0  0  0  0  0  0  0  0  0
   34.8920   29.2480   49.6940 H   0  0  0  0  0  0  0  0  0  0  0  0
   40.0600   33.1740   46.1940 C   0  0  0  0  0  0  0  0  0  0  0  0
   40.8320   32.4260   45.2860 C   0  0  0  0  0  0  0  0  0  0  0  0
   40.5380   31.0750   45.1730 C   0  0  0  0  0  0  0  0  0  0  0  0
   39.5350   30.5580   45.9330 N   0  0  0  0  0  0  0  0  0  0  0  0
   38.8170   31.3000   46.7910 C   0  0  0  0  0  0  0  0  0  0  0  0
   39.0860   32.6120   46.9150 N   0  0  0  0  0  0  0  0  0  0  0  0
   40.3180   34.2210   46.2550 H   0  0  0  0  0  0  0  0  0  0  0  0
   41.6240   32.7640   44.6670 H   0  0  0  0  0  0  0  0  0  0  0  0
   41.0090   30.3320   44.5400 H   0  0  0  0  0  0  0  0  0  0  0  0
   33.8650   29.7030   46.9810 S   0  0  0  0  0  0  0  0  0  0  0  0
   33.1930   28.0910   47.3330 C   0  0  0  0  0  0  0  0  0  0  0  0
   33.9320   26.9530   47.1250 C   0  0  0  0  0  0  0  0  0  0  0  0
   34.9430   27.0110   46.7430 H   0  0  0  0  0  0  0  0  0  0  0  0
   33.4210   25.6840   47.3950 C   0  0  0  0  0  0  0  0  0  0  0  0
   33.9860   24.7940   47.2380 H   0  0  0  0  0  0  0  0  0  0  0  0
   32.1250   25.6810   47.8820 C   0  0  0  0  0  3  0  0  0  0  0  0
   31.3940   26.8340   48.0860 C   0  0  0  0  0  3  0  0  0  0  0  0
   31.9350   28.0410   47.8080 N   0  0  0  0  0  0  0  0  0  0  0  0
  1  2  1  0  0  0  0
  2  3  2  0  0  0  0
  2  7  1  0  0  0  0
  3  4  1  0  0  0  0
  4  8  1  0  0  0  0
  4  5  2  0  0  0  0
  5  9  1  0  0  0  0
  6  5  1  0  0  0  0
  6 10  1  0  0  0  0
  7  6  2  0  0  0  0
 11 17  1  0  0  0  0
 11 16  1  0  0  0  0
 12 11  2  0  0  0  0
 13 12  1  0  0  0  0
 13 14  2  0  0  0  0
 14 15  1  0  0  0  0
 15 16  2  0  0  0  0
 15  3  1  0  0  0  0
 18 12  1  0  0  0  0
 19 13  1  0  0  0  0
 20 21  1  0  0  0  0
 20  7  1  0  0  0  0
 21 28  1  0  0  0  0
 22 21  2  0  0  0  0
 22 24  1  0  0  0  0
 23 22  1  0  0  0  0
 24 26  2  0  0  0  0
 25 24  1  0  0  0  0
 26 27  1  0  0  0  0
 28 27  2  0  0  0  0
M  END
>  <minimizedAffinity>
-5.59564114

>  <minimizedRMSD>
1.42785215

$$$$
