
 OpenBabel03272505083D

 28 30  0  0  0  0  0  0  0  0999 V2000
   36.3410   30.8670   45.7600 Cl  0  0  0  0  0  0  0  0  0  0  0  0
   36.6780   30.7110   47.4760 C   0  0  0  0  0  0  0  0  0  0  0  0
   37.9420   31.0360   47.8740 C   0  0  0  0  0  0  0  0  0  0  0  0
   38.2350   30.9200   49.2400 C   0  0  0  0  0  0  0  0  0  0  0  0
   37.2770   30.4970   50.1110 C   0  0  0  0  0  0  0  0  0  0  0  0
   36.0190   30.1870   49.6270 C   0  0  0  0  0  0  0  0  0  0  0  0
   35.6610   30.2780   48.2970 C   0  0  0  0  0  0  0  0  0  0  0  0
   39.2370   31.1740   49.5740 H   0  0  0  0  0  0  0  0  0  0  0  0
   37.5200   30.4120   51.1630 H   0  0  0  0  0  0  0  0  0  0  0  0
   35.2620   29.8490   50.3400 H   0  0  0  0  0  0  0  0  0  0  0  0
   40.1690   33.2580   46.0190 C   0  0  0  0  0  0  0  0  0  0  0  0
   40.8500   32.4000   45.1380 C   0  0  0  0  0  0  0  0  0  0  0  0
   40.5290   31.0520   45.1970 C   0  0  0  0  0  0  0  0  0  0  0  0
   39.5870   30.6420   46.0890 N   0  0  0  0  0  0  0  0  0  0  0  0
   38.9540   31.4880   46.9170 C   0  0  0  0  0  0  0  0  0  0  0  0
   39.2510   32.7990   46.8750 N   0  0  0  0  0  0  0  0  0  0  0  0
   40.4450   34.3000   45.9440 H   0  0  0  0  0  0  0  0  0  0  0  0
   41.5920   32.6510   44.4210 H   0  0  0  0  0  0  0  0  0  0  0  0
   40.9340   30.2350   44.6110 H   0  0  0  0  0  0  0  0  0  0  0  0
   34.0580   29.8850   47.6630 S   0  0  0  0  0  0  0  0  0  0  0  0
   33.9570   28.2100   47.0650 C   0  0  0  0  0  0  0  0  0  0  0  0
   33.8540   27.1510   47.9330 C   0  0  0  0  0  0  0  0  0  0  0  0
   33.8310   27.3130   49.0020 H   0  0  0  0  0  0  0  0  0  0  0  0
   33.7740   25.8350   47.4810 C   0  0  0  0  0  0  0  0  0  0  0  0
   33.6940   25.0050   48.1460 H   0  0  0  0  0  0  0  0  0  0  0  0
   33.8080   25.7000   46.1030 C   0  0  0  0  0  3  0  0  0  0  0  0
   33.9110   26.7740   45.2430 C   0  0  0  0  0  3  0  0  0  0  0  0
   33.9860   28.0330   45.7320 N   0  0  0  0  0  0  0  0  0  0  0  0
  1  2  1  0  0  0  0
  2  3  2  0  0  0  0
  2  7  1  0  0  0  0
  3  4  1  0  0  0  0
  4  8  1  0  0  0  0
  4  5  2  0  0  0  0
  5  9  1  0  0  0  0
  6  5  1  0  0  0  0
  6 10  1  0  0  0  0
  7  6  2  0  0  0  0
 11 16  1  0  0  0  0
 12 13  1  0  0  0  0
 12 11  2  0  0  0  0
 13 14  2  0  0  0  0
 14 15  1  0  0  0  0
 15  3  1  0  0  0  0
 16 15  2  0  0  0  0
 17 11  1  0  0  0  0
 18 12  1  0  0  0  0
 19 13  1  0  0  0  0
 20  7  1  0  0  0  0
 21 20  1  0  0  0  0
 21 22  1  0  0  0  0
 22 23  1  0  0  0  0
 24 22  2  0  0  0  0
 24 25  1  0  0  0  0
 26 24  1  0  0  0  0
 27 28  1  0  0  0  0
 27 26  2  0  0  0  0
 28 21  2  0  0  0  0
M  END
>  <minimizedAffinity>
-5.66016293

>  <minimizedRMSD>
1.0293287

$$$$
