
 OpenBabel03272509443D

 37 39  0  0  1  0  0  0  0  0999 V2000
   39.6040   26.9670   34.3340 C   0  0  0  0  0  0  0  0  0  0  0  0
   40.9890   26.8690   34.1770 C   0  0  0  0  0  0  0  0  0  0  0  0
   41.5980   27.0290   32.9430 C   0  0  0  0  0  0  0  0  0  0  0  0
   40.8060   27.2980   31.8160 C   0  0  0  0  0  0  0  0  0  0  0  0
   39.4600   27.3900   31.9890 C   0  0  0  0  0  0  0  0  0  0  0  0
   38.8800   27.2240   33.2390 C   0  0  0  0  0  0  0  0  0  0  0  0
   41.5610   26.6570   35.0900 H   0  0  0  0  0  0  0  0  0  0  0  0
   42.6730   26.9240   32.9780 H   0  0  0  0  0  0  0  0  0  0  0  0
   41.3600   27.4070   30.9100 H   0  0  0  0  0  0  0  0  0  0  0  0
   38.9800   27.5990   31.0280 H   0  0  0  0  0  0  0  0  0  0  0  0
   38.9680   26.7640   35.6170 C   0  0  2  0  0  0  0  0  0  0  0  0
   39.8370   26.6440   36.3700 H   0  0  0  0  0  0  0  0  0  0  0  0
   38.1200   23.2350   35.4380 C   0  0  0  0  0  0  0  0  0  0  0  0
   37.7470   22.9140   36.7310 C   0  0  0  0  0  0  0  0  0  0  0  0
   37.7230   23.9270   37.6720 C   0  0  0  0  0  0  0  0  0  0  0  0
   38.0680   25.2050   37.2950 N   0  0  0  0  0  0  0  0  0  0  0  0
   38.4160   25.4470   36.0480 C   0  0  0  0  0  0  0  0  0  0  0  0
   38.4430   24.4700   35.1120 N   0  0  0  0  0  0  0  0  0  0  0  0
   38.1390   22.4350   34.6910 H   0  0  0  0  0  0  0  0  0  0  0  0
   37.4790   21.9190   37.0270 H   0  0  0  0  0  0  0  0  0  0  0  0
   37.4440   23.7760   38.7040 H   0  0  0  0  0  0  0  0  0  0  0  0
   38.4890   27.8520   36.1090 O   0  0  0  0  0  0  0  0  0  0  0  0
   37.6960   27.8750   36.6920 H   0  0  0  0  0  0  0  0  0  0  0  0
   37.4400   27.3190   33.2700 C   0  0  0  0  0  3  0  0  0  0  0  0
   36.7440   28.2720   32.6410 C   0  0  0  0  0  3  0  0  0  0  0  0
   35.2750   28.4380   32.5640 C   0  0  0  0  0  0  0  0  0  0  0  0
   34.9420   28.0010   31.6000 H   0  0  0  0  0  0  0  0  0  0  0  0
   34.8200   27.9520   33.4450 H   0  0  0  0  0  0  0  0  0  0  0  0
   34.8670   30.1900   32.5310 S   0  0  0  0  0  0  0  0  0  0  0  0
   34.5810   30.8200   34.1890 C   0  0  0  0  0  0  0  0  0  0  0  0
   35.7900   31.1360   34.8200 C   0  0  0  0  0  0  0  0  0  0  0  0
   36.7780   31.0320   34.4170 H   0  0  0  0  0  0  0  0  0  0  0  0
   35.7350   31.6440   36.1170 C   0  0  0  0  0  0  0  0  0  0  0  0
   36.6360   31.9070   36.6570 H   0  0  0  0  0  0  0  0  0  0  0  0
   34.4900   31.8100   36.7130 C   0  0  0  0  0  3  0  0  0  0  0  0
   33.3460   31.4760   36.0270 C   0  0  0  0  0  3  0  0  0  0  0  0
   33.3950   30.9880   34.7820 N   0  0  0  0  0  0  0  0  0  0  0  0
  1 11  1  0  0  0  0
  2  1  1  0  0  0  0
  2  7  1  0  0  0  0
  3  8  1  0  0  0  0
  3  2  2  0  0  0  0
  4  5  2  0  0  0  0
  4  3  1  0  0  0  0
  5  6  1  0  0  0  0
  6 24  1  0  0  0  0
  6  1  2  0  0  0  0
  9  4  1  0  0  0  0
 10  5  1  0  0  0  0
 11 17  1  0  0  0  0
 11 22  1  0  0  0  0
 11 12  1  1  0  0  0
 13 14  1  0  0  0  0
 14 20  1  0  0  0  0
 14 15  2  0  0  0  0
 15 21  1  0  0  0  0
 16 15  1  0  0  0  0
 17 16  2  0  0  0  0
 18 13  2  0  0  0  0
 18 17  1  0  0  0  0
 19 13  1  0  0  0  0
 22 23  1  0  0  0  0
 25 24  2  0  0  0  0
 26 25  1  0  0  0  0
 26 28  1  0  0  0  0
 27 26  1  0  0  0  0
 29 26  1  0  0  0  0
 29 30  1  0  0  0  0
 30 37  2  0  0  0  0
 30 31  1  0  0  0  0
 31 33  2  0  0  0  0
 32 31  1  0  0  0  0
 33 34  1  0  0  0  0
 33 35  1  0  0  0  0
 36 35  2  0  0  0  0
 37 36  1  0  0  0  0
M  END
>  <minimizedAffinity>
-5.83442307

$$$$

 OpenBabel03272509443D

 37 39  0  0  1  0  0  0  0  0999 V2000
   35.3720   29.9060   31.9980 C   0  0  0  0  0  0  0  0  0  0  0  0
   35.5540   30.8940   31.0260 C   0  0  0  0  0  0  0  0  0  0  0  0
   36.5890   30.8330   30.1070 C   0  0  0  0  0  0  0  0  0  0  0  0
   37.4800   29.7510   30.1470 C   0  0  0  0  0  0  0  0  0  0  0  0
   37.2870   28.7990   31.1000 C   0  0  0  0  0  0  0  0  0  0  0  0
   36.2410   28.8890   32.0070 C   0  0  0  0  0  0  0  0  0  0  0  0
   34.8290   31.7180   31.0390 H   0  0  0  0  0  0  0  0  0  0  0  0
   36.6020   31.6670   29.4200 H   0  0  0  0  0  0  0  0  0  0  0  0
   38.2440   29.7870   29.4010 H   0  0  0  0  0  0  0  0  0  0  0  0
   38.0560   28.0260   31.0080 H   0  0  0  0  0  0  0  0  0  0  0  0
   34.3120   29.9900   32.9790 C   0  0  2  0  0  0  0  0  0  0  0  0
   33.7010   30.9270   32.6840 H   0  0  0  0  0  0  0  0  0  0  0  0
   36.0100   31.6570   35.7260 C   0  0  0  0  0  0  0  0  0  0  0  0
   35.0050   31.8930   36.6470 C   0  0  0  0  0  0  0  0  0  0  0  0
   33.7360   31.4240   36.3600 C   0  0  0  0  0  0  0  0  0  0  0  0
   33.5190   30.7470   35.1820 N   0  0  0  0  0  0  0  0  0  0  0  0
   34.5160   30.5560   34.3430 C   0  0  0  0  0  0  0  0  0  0  0  0
   35.7650   31.0050   34.6070 N   0  0  0  0  0  0  0  0  0  0  0  0
   37.0150   32.0270   35.9510 H   0  0  0  0  0  0  0  0  0  0  0  0
   35.1720   32.4210   37.5650 H   0  0  0  0  0  0  0  0  0  0  0  0
   32.8890   31.5560   37.0160 H   0  0  0  0  0  0  0  0  0  0  0  0
   33.3800   29.1290   32.7740 O   0  0  0  0  0  0  0  0  0  0  0  0
   32.8420   28.7350   33.5000 H   0  0  0  0  0  0  0  0  0  0  0  0
   36.1730   27.8240   32.9810 C   0  0  0  0  0  3  0  0  0  0  0  0
   37.0960   27.6220   33.9270 C   0  0  0  0  0  3  0  0  0  0  0  0
   37.1050   26.6010   34.9980 C   0  0  0  0  0  0  0  0  0  0  0  0
   37.4470   27.0990   35.9280 H   0  0  0  0  0  0  0  0  0  0  0  0
   36.0920   26.1690   35.0810 H   0  0  0  0  0  0  0  0  0  0  0  0
   38.3050   25.3210   34.6010 S   0  0  0  0  0  0  0  0  0  0  0  0
   38.7500   24.3760   36.0640 C   0  0  0  0  0  0  0  0  0  0  0  0
   37.9200   24.7010   37.1420 C   0  0  0  0  0  0  0  0  0  0  0  0
   37.1160   25.4110   37.1510 H   0  0  0  0  0  0  0  0  0  0  0  0
   38.1370   24.0450   38.3530 C   0  0  0  0  0  0  0  0  0  0  0  0
   37.5270   24.2540   39.2230 H   0  0  0  0  0  0  0  0  0  0  0  0
   39.1610   23.1080   38.4260 C   0  0  0  0  0  3  0  0  0  0  0  0
   39.9350   22.8430   37.3210 C   0  0  0  0  0  3  0  0  0  0  0  0
   39.7290   23.4700   36.1570 N   0  0  0  0  0  0  0  0  0  0  0  0
  1  6  1  0  0  0  0
  1 11  1  0  0  0  0
  2  7  1  0  0  0  0
  2  1  2  0  0  0  0
  3  4  2  0  0  0  0
  3  2  1  0  0  0  0
  4  5  1  0  0  0  0
  5  6  2  0  0  0  0
  6 24  1  0  0  0  0
  8  3  1  0  0  0  0
  9  4  1  0  0  0  0
 10  5  1  0  0  0  0
 11 12  1  6  0  0  0
 11 17  1  0  0  0  0
 13 19  1  0  0  0  0
 13 14  1  0  0  0  0
 14 20  1  0  0  0  0
 15 14  2  0  0  0  0
 15 21  1  0  0  0  0
 16 15  1  0  0  0  0
 17 18  1  0  0  0  0
 17 16  2  0  0  0  0
 18 13  2  0  0  0  0
 22 11  1  0  0  0  0
 22 23  1  0  0  0  0
 24 25  2  0  0  0  0
 25 26  1  0  0  0  0
 26 28  1  0  0  0  0
 26 27  1  0  0  0  0
 29 26  1  0  0  0  0
 29 30  1  0  0  0  0
 30 37  2  0  0  0  0
 30 31  1  0  0  0  0
 31 32  1  0  0  0  0
 31 33  2  0  0  0  0
 33 35  1  0  0  0  0
 33 34  1  0  0  0  0
 36 35  2  0  0  0  0
 37 36  1  0  0  0  0
M  END
>  <minimizedAffinity>
-5.662045

$$$$

 OpenBabel03272509443D

 37 39  0  0  1  0  0  0  0  0999 V2000
   36.3570   28.3760   31.9520 C   0  0  0  0  0  0  0  0  0  0  0  0
   35.4580   29.4460   31.9450 C   0  0  0  0  0  0  0  0  0  0  0  0
   34.9810   30.0070   33.1180 C   0  0  0  0  0  0  0  0  0  0  0  0
   35.4100   29.4920   34.3500 C   0  0  0  0  0  0  0  0  0  0  0  0
   36.2850   28.4510   34.3370 C   0  0  0  0  0  0  0  0  0  0  0  0
   36.7450   27.9100   33.1440 C   0  0  0  0  0  0  0  0  0  0  0  0
   35.1560   29.8110   30.9540 H   0  0  0  0  0  0  0  0  0  0  0  0
   34.2940   30.8250   32.9530 H   0  0  0  0  0  0  0  0  0  0  0  0
   34.9910   29.9870   35.1990 H   0  0  0  0  0  0  0  0  0  0  0  0
   36.5240   28.1580   35.3640 H   0  0  0  0  0  0  0  0  0  0  0  0
   36.8270   27.7680   30.7250 C   0  0  2  0  0  0  0  0  0  0  0  0
   37.5900   26.9660   31.0590 H   0  0  0  0  0  0  0  0  0  0  0  0
   40.1420   28.6350   29.5160 C   0  0  0  0  0  0  0  0  0  0  0  0
   39.9100   29.1880   28.2690 C   0  0  0  0  0  0  0  0  0  0  0  0
   38.5980   29.3270   27.8530 C   0  0  0  0  0  0  0  0  0  0  0  0
   37.5800   28.9150   28.6830 N   0  0  0  0  0  0  0  0  0  0  0  0
   37.8660   28.3930   29.8580 C   0  0  0  0  0  0  0  0  0  0  0  0
   39.1420   28.2520   30.2840 N   0  0  0  0  0  0  0  0  0  0  0  0
   41.1790   28.5250   29.8480 H   0  0  0  0  0  0  0  0  0  0  0  0
   40.7000   29.5080   27.6200 H   0  0  0  0  0  0  0  0  0  0  0  0
   38.3160   29.7480   26.8990 H   0  0  0  0  0  0  0  0  0  0  0  0
   35.9670   26.9590   30.2150 O   0  0  0  0  0  0  0  0  0  0  0  0
   35.8880   26.7980   29.2470 H   0  0  0  0  0  0  0  0  0  0  0  0
   37.6470   26.7900   33.2790 C   0  0  0  0  0  3  0  0  0  0  0  0
   38.9270   26.9080   33.6480 C   0  0  0  0  0  3  0  0  0  0  0  0
   39.9220   25.8340   33.8650 C   0  0  0  0  0  0  0  0  0  0  0  0
   40.5020   25.7260   32.9250 H   0  0  0  0  0  0  0  0  0  0  0  0
   40.5460   26.1030   34.7360 H   0  0  0  0  0  0  0  0  0  0  0  0
   39.0740   24.2750   34.1550 S   0  0  0  0  0  0  0  0  0  0  0  0
   39.0790   23.8500   35.9020 C   0  0  0  0  0  0  0  0  0  0  0  0
   38.0240   24.4790   36.5730 C   0  0  0  0  0  0  0  0  0  0  0  0
   37.2880   25.1360   36.1530 H   0  0  0  0  0  0  0  0  0  0  0  0
   37.8900   24.2440   37.9400 C   0  0  0  0  0  0  0  0  0  0  0  0
   37.0930   24.7020   38.5140 H   0  0  0  0  0  0  0  0  0  0  0  0
   38.8040   23.4020   38.5630 C   0  0  0  0  0  3  0  0  0  0  0  0
   39.8150   22.8210   37.8340 C   0  0  0  0  0  3  0  0  0  0  0  0
   39.9470   23.0440   36.5210 N   0  0  0  0  0  0  0  0  0  0  0  0
  1  6  1  0  0  0  0
  2  1  2  0  0  0  0
  2  3  1  0  0  0  0
  3  4  2  0  0  0  0
  4  9  1  0  0  0  0
  5  4  1  0  0  0  0
  5 10  1  0  0  0  0
  6 24  1  0  0  0  0
  6  5  2  0  0  0  0
  7  2  1  0  0  0  0
  8  3  1  0  0  0  0
 11 12  1  1  0  0  0
 11  1  1  0  0  0  0
 13 19  1  0  0  0  0
 13 18  1  0  0  0  0
 14 13  2  0  0  0  0
 15 14  1  0  0  0  0
 15 16  2  0  0  0  0
 16 17  1  0  0  0  0
 17 18  2  0  0  0  0
 17 11  1  0  0  0  0
 20 14  1  0  0  0  0
 21 15  1  0  0  0  0
 22 11  1  0  0  0  0
 23 22  1  0  0  0  0
 24 25  2  0  0  0  0
 25 26  1  0  0  0  0
 26 29  1  0  0  0  0
 26 28  1  0  0  0  0
 27 26  1  0  0  0  0
 29 30  1  0  0  0  0
 30 37  2  0  0  0  0
 30 31  1  0  0  0  0
 31 33  2  0  0  0  0
 32 31  1  0  0  0  0
 33 34  1  0  0  0  0
 33 35  1  0  0  0  0
 36 35  2  0  0  0  0
 37 36  1  0  0  0  0
M  END
>  <minimizedAffinity>
-5.6438818

$$$$

 OpenBabel03272509443D

 37 39  0  0  1  0  0  0  0  0999 V2000
   36.5400   28.5050   32.2860 C   0  0  0  0  0  0  0  0  0  0  0  0
   35.9170   29.5520   31.6030 C   0  0  0  0  0  0  0  0  0  0  0  0
   35.2040   30.5370   32.2670 C   0  0  0  0  0  0  0  0  0  0  0  0
   35.1040   30.4880   33.6650 C   0  0  0  0  0  0  0  0  0  0  0  0
   35.7180   29.4610   34.3130 C   0  0  0  0  0  0  0  0  0  0  0  0
   36.4240   28.4880   33.6190 C   0  0  0  0  0  0  0  0  0  0  0  0
   36.0270   29.5430   30.5100 H   0  0  0  0  0  0  0  0  0  0  0  0
   34.7790   31.2780   31.6050 H   0  0  0  0  0  0  0  0  0  0  0  0
   34.5380   31.2870   34.0900 H   0  0  0  0  0  0  0  0  0  0  0  0
   35.5510   29.5550   35.3910 H   0  0  0  0  0  0  0  0  0  0  0  0
   37.2530   27.4570   31.5880 C   0  0  2  0  0  0  0  0  0  0  0  0
   36.9840   27.6010   30.4720 H   0  0  0  0  0  0  0  0  0  0  0  0
   34.9630   24.7020   30.9810 C   0  0  0  0  0  0  0  0  0  0  0  0
   35.7650   23.5770   31.0550 C   0  0  0  0  0  0  0  0  0  0  0  0
   37.0990   23.7490   31.3770 C   0  0  0  0  0  0  0  0  0  0  0  0
   37.5780   25.0180   31.6100 N   0  0  0  0  0  0  0  0  0  0  0  0
   36.7650   26.0510   31.5220 C   0  0  0  0  0  0  0  0  0  0  0  0
   35.4560   25.9020   31.2110 N   0  0  0  0  0  0  0  0  0  0  0  0
   33.9070   24.5680   30.7270 H   0  0  0  0  0  0  0  0  0  0  0  0
   35.3960   22.5880   30.8730 H   0  0  0  0  0  0  0  0  0  0  0  0
   37.8030   22.9340   31.4610 H   0  0  0  0  0  0  0  0  0  0  0  0
   38.5100   27.7060   31.4750 O   0  0  0  0  0  0  0  0  0  0  0  0
   39.1970   27.0010   31.4460 H   0  0  0  0  0  0  0  0  0  0  0  0
   36.9990   27.4430   34.4320 C   0  0  0  0  0  3  0  0  0  0  0  0
   37.8260   27.6690   35.4580 C   0  0  0  0  0  3  0  0  0  0  0  0
   38.4330   26.6850   36.3830 C   0  0  0  0  0  0  0  0  0  0  0  0
   39.5310   26.8350   36.3510 H   0  0  0  0  0  0  0  0  0  0  0  0
   38.0000   26.8350   37.3890 H   0  0  0  0  0  0  0  0  0  0  0  0
   38.0980   25.0190   35.7950 S   0  0  0  0  0  0  0  0  0  0  0  0
   39.4300   23.8970   36.2390 C   0  0  0  0  0  0  0  0  0  0  0  0
   40.5260   24.0570   35.3840 C   0  0  0  0  0  0  0  0  0  0  0  0
   40.6110   24.7380   34.5590 H   0  0  0  0  0  0  0  0  0  0  0  0
   41.6460   23.2570   35.6030 C   0  0  0  0  0  0  0  0  0  0  0  0
   42.5250   23.3350   34.9750 H   0  0  0  0  0  0  0  0  0  0  0  0
   41.6170   22.3470   36.6530 C   0  0  0  0  0  3  0  0  0  0  0  0
   40.5010   22.2480   37.4510 C   0  0  0  0  0  3  0  0  0  0  0  0
   39.4240   23.0150   37.2440 N   0  0  0  0  0  0  0  0  0  0  0  0
  1  6  1  0  0  0  0
  2  3  1  0  0  0  0
  2  1  2  0  0  0  0
  3  4  2  0  0  0  0
  4  9  1  0  0  0  0
  4  5  1  0  0  0  0
  5 10  1  0  0  0  0
  6  5  2  0  0  0  0
  6 24  1  0  0  0  0
  7  2  1  0  0  0  0
  8  3  1  0  0  0  0
 11 12  1  6  0  0  0
 11  1  1  0  0  0  0
 13 14  2  0  0  0  0
 13 18  1  0  0  0  0
 14 15  1  0  0  0  0
 15 21  1  0  0  0  0
 15 16  2  0  0  0  0
 17 11  1  0  0  0  0
 17 16  1  0  0  0  0
 18 17  2  0  0  0  0
 19 13  1  0  0  0  0
 20 14  1  0  0  0  0
 22 11  1  0  0  0  0
 23 22  1  0  0  0  0
 24 25  2  0  0  0  0
 25 26  1  0  0  0  0
 26 28  1  0  0  0  0
 27 26  1  0  0  0  0
 29 30  1  0  0  0  0
 29 26  1  0  0  0  0
 30 37  1  0  0  0  0
 31 33  1  0  0  0  0
 31 30  2  0  0  0  0
 32 31  1  0  0  0  0
 33 35  2  0  0  0  0
 34 33  1  0  0  0  0
 35 36  1  0  0  0  0
 37 36  2  0  0  0  0
M  END
>  <minimizedAffinity>
-5.62975311

$$$$

 OpenBabel03272509443D

 37 39  0  0  1  0  0  0  0  0999 V2000
   37.8230   27.3010   34.2500 C   0  0  0  0  0  0  0  0  0  0  0  0
   36.6050   27.9770   34.3620 C   0  0  0  0  0  0  0  0  0  0  0  0
   36.0030   28.5840   33.2720 C   0  0  0  0  0  0  0  0  0  0  0  0
   36.6280   28.5200   32.0180 C   0  0  0  0  0  0  0  0  0  0  0  0
   37.8130   27.8580   31.9290 C   0  0  0  0  0  0  0  0  0  0  0  0
   38.3920   27.2600   33.0400 C   0  0  0  0  0  0  0  0  0  0  0  0
   36.1590   27.9970   35.3650 H   0  0  0  0  0  0  0  0  0  0  0  0
   35.0670   29.0680   33.5130 H   0  0  0  0  0  0  0  0  0  0  0  0
   36.0920   29.0140   31.2380 H   0  0  0  0  0  0  0  0  0  0  0  0
   38.1780   27.8950   30.8980 H   0  0  0  0  0  0  0  0  0  0  0  0
   38.4680   26.7000   35.3970 C   0  0  2  0  0  0  0  0  0  0  0  0
   39.4980   26.3410   35.0120 H   0  0  0  0  0  0  0  0  0  0  0  0
   38.0170   23.0980   35.2210 C   0  0  0  0  0  0  0  0  0  0  0  0
   37.9330   22.7060   36.5450 C   0  0  0  0  0  0  0  0  0  0  0  0
   37.9690   23.6880   37.5180 C   0  0  0  0  0  0  0  0  0  0  0  0
   38.0860   25.0070   37.1410 N   0  0  0  0  0  0  0  0  0  0  0  0
   38.1640   25.3170   35.8640 C   0  0  0  0  0  0  0  0  0  0  0  0
   38.1280   24.3710   34.8970 N   0  0  0  0  0  0  0  0  0  0  0  0
   37.9880   22.3230   34.4490 H   0  0  0  0  0  0  0  0  0  0  0  0
   37.8430   21.6800   36.8420 H   0  0  0  0  0  0  0  0  0  0  0  0
   37.9070   23.4820   38.5770 H   0  0  0  0  0  0  0  0  0  0  0  0
   38.9130   27.5740   36.2290 O   0  0  0  0  0  0  0  0  0  0  0  0
   38.9730   27.4130   37.1980 H   0  0  0  0  0  0  0  0  0  0  0  0
   39.6630   26.6180   32.8060 C   0  0  0  0  0  3  0  0  0  0  0  0
   40.7980   27.2820   32.5600 C   0  0  0  0  0  3  0  0  0  0  0  0
   42.1570   26.7330   32.3540 C   0  0  0  0  0  0  0  0  0  0  0  0
   42.0450   25.6590   32.0990 H   0  0  0  0  0  0  0  0  0  0  0  0
   42.6580   27.3200   31.5640 H   0  0  0  0  0  0  0  0  0  0  0  0
   43.0840   26.8270   33.8920 S   0  0  0  0  0  0  0  0  0  0  0  0
   42.7970   25.3750   34.9120 C   0  0  0  0  0  0  0  0  0  0  0  0
   43.8770   25.1440   35.7700 C   0  0  0  0  0  0  0  0  0  0  0  0
   44.7790   25.7190   35.8470 H   0  0  0  0  0  0  0  0  0  0  0  0
   43.8030   24.0510   36.6320 C   0  0  0  0  0  0  0  0  0  0  0  0
   44.6080   23.8210   37.3200 H   0  0  0  0  0  0  0  0  0  0  0  0
   42.6660   23.2530   36.5960 C   0  0  0  0  0  3  0  0  0  0  0  0
   41.6440   23.5460   35.7220 C   0  0  0  0  0  3  0  0  0  0  0  0
   41.7120   24.5940   34.8940 N   0  0  0  0  0  0  0  0  0  0  0  0
  1  2  1  0  0  0  0
  1 11  1  0  0  0  0
  2  7  1  0  0  0  0
  3  8  1  0  0  0  0
  3  2  2  0  0  0  0
  4  3  1  0  0  0  0
  5  4  2  0  0  0  0
  5  6  1  0  0  0  0
  6  1  2  0  0  0  0
  9  4  1  0  0  0  0
 10  5  1  0  0  0  0
 11 12  1  6  0  0  0
 11 17  1  0  0  0  0
 11 22  1  0  0  0  0
 13 14  1  0  0  0  0
 14 20  1  0  0  0  0
 14 15  2  0  0  0  0
 15 21  1  0  0  0  0
 16 15  1  0  0  0  0
 17 16  2  0  0  0  0
 18 13  2  0  0  0  0
 18 17  1  0  0  0  0
 19 13  1  0  0  0  0
 22 23  1  0  0  0  0
 24  6  1  0  0  0  0
 25 24  2  0  0  0  0
 26 25  1  0  0  0  0
 26 29  1  0  0  0  0
 27 26  1  0  0  0  0
 28 26  1  0  0  0  0
 29 30  1  0  0  0  0
 30 31  1  0  0  0  0
 31 32  1  0  0  0  0
 31 33  2  0  0  0  0
 33 34  1  0  0  0  0
 35 33  1  0  0  0  0
 36 35  2  0  0  0  0
 37 30  2  0  0  0  0
 37 36  1  0  0  0  0
M  END
>  <minimizedAffinity>
-5.58860207

$$$$

 OpenBabel03272509443D

 37 39  0  0  1  0  0  0  0  0999 V2000
   35.4800   30.9540   33.2600 C   0  0  0  0  0  0  0  0  0  0  0  0
   35.4970   32.3460   33.3760 C   0  0  0  0  0  0  0  0  0  0  0  0
   35.8100   32.9770   34.5700 C   0  0  0  0  0  0  0  0  0  0  0  0
   36.1200   32.2000   35.6960 C   0  0  0  0  0  0  0  0  0  0  0  0
   36.0980   30.8470   35.5630 C   0  0  0  0  0  0  0  0  0  0  0  0
   35.7800   30.2450   34.3540 C   0  0  0  0  0  0  0  0  0  0  0  0
   35.2470   32.9060   32.4650 H   0  0  0  0  0  0  0  0  0  0  0  0
   35.7810   34.0550   34.5050 H   0  0  0  0  0  0  0  0  0  0  0  0
   36.3490   32.7700   36.5690 H   0  0  0  0  0  0  0  0  0  0  0  0
   36.3560   30.3800   36.5190 H   0  0  0  0  0  0  0  0  0  0  0  0
   35.1170   30.2980   32.0230 C   0  0  2  0  0  0  0  0  0  0  0  0
   35.1240   29.1680   32.2670 H   0  0  0  0  0  0  0  0  0  0  0  0
   37.1310   28.4420   29.6340 C   0  0  0  0  0  0  0  0  0  0  0  0
   37.5920   29.4110   28.7600 C   0  0  0  0  0  0  0  0  0  0  0  0
   37.2640   30.7290   29.0190 C   0  0  0  0  0  0  0  0  0  0  0  0
   36.5000   31.0300   30.1230 N   0  0  0  0  0  0  0  0  0  0  0  0
   36.0890   30.0620   30.9170 C   0  0  0  0  0  0  0  0  0  0  0  0
   36.4010   28.7670   30.6820 N   0  0  0  0  0  0  0  0  0  0  0  0
   37.3900   27.3980   29.4320 H   0  0  0  0  0  0  0  0  0  0  0  0
   38.1860   29.1790   27.8990 H   0  0  0  0  0  0  0  0  0  0  0  0
   37.5780   31.5550   28.3970 H   0  0  0  0  0  0  0  0  0  0  0  0
   33.8610   30.3910   31.7640 O   0  0  0  0  0  0  0  0  0  0  0  0
   33.5010   30.4160   30.8480 H   0  0  0  0  0  0  0  0  0  0  0  0
   35.7670   28.8010   34.3650 C   0  0  0  0  0  3  0  0  0  0  0  0
   36.8660   28.0490   34.4890 C   0  0  0  0  0  3  0  0  0  0  0  0
   36.9660   26.5740   34.5610 C   0  0  0  0  0  0  0  0  0  0  0  0
   36.4300   26.2500   35.4770 H   0  0  0  0  0  0  0  0  0  0  0  0
   36.5450   26.1460   33.6340 H   0  0  0  0  0  0  0  0  0  0  0  0
   38.6890   26.0950   34.7490 S   0  0  0  0  0  0  0  0  0  0  0  0
   38.8780   24.8470   36.0290 C   0  0  0  0  0  0  0  0  0  0  0  0
   37.9980   25.0830   37.0920 C   0  0  0  0  0  0  0  0  0  0  0  0
   37.2910   25.8850   37.1830 H   0  0  0  0  0  0  0  0  0  0  0  0
   38.0210   24.1950   38.1660 C   0  0  0  0  0  0  0  0  0  0  0  0
   37.3630   24.3250   39.0170 H   0  0  0  0  0  0  0  0  0  0  0  0
   38.9090   23.1270   38.1260 C   0  0  0  0  0  3  0  0  0  0  0  0
   39.7430   22.9620   37.0450 C   0  0  0  0  0  3  0  0  0  0  0  0
   39.7240   23.8120   36.0130 N   0  0  0  0  0  0  0  0  0  0  0  0
  1  2  2  0  0  0  0
  1  6  1  0  0  0  0
  2  3  1  0  0  0  0
  3  4  2  0  0  0  0
  4  9  1  0  0  0  0
  5  4  1  0  0  0  0
  5 10  1  0  0  0  0
  6 24  1  0  0  0  0
  6  5  2  0  0  0  0
  7  2  1  0  0  0  0
  8  3  1  0  0  0  0
 11 12  1  1  0  0  0
 11  1  1  0  0  0  0
 13 18  1  0  0  0  0
 14 15  1  0  0  0  0
 14 13  2  0  0  0  0
 15 16  2  0  0  0  0
 16 17  1  0  0  0  0
 17 11  1  0  0  0  0
 18 17  2  0  0  0  0
 19 13  1  0  0  0  0
 20 14  1  0  0  0  0
 21 15  1  0  0  0  0
 22 11  1  0  0  0  0
 23 22  1  0  0  0  0
 24 25  2  0  0  0  0
 25 26  1  0  0  0  0
 26 29  1  0  0  0  0
 26 27  1  0  0  0  0
 28 26  1  0  0  0  0
 29 30  1  0  0  0  0
 30 31  1  0  0  0  0
 31 32  1  0  0  0  0
 31 33  2  0  0  0  0
 33 34  1  0  0  0  0
 35 33  1  0  0  0  0
 36 35  2  0  0  0  0
 37 30  2  0  0  0  0
 37 36  1  0  0  0  0
M  END
>  <minimizedAffinity>
-5.57085466

$$$$

 OpenBabel03272509443D

 37 39  0  0  1  0  0  0  0  0999 V2000
   37.6070   27.3540   34.3880 C   0  0  0  0  0  0  0  0  0  0  0  0
   36.6320   28.2690   34.7930 C   0  0  0  0  0  0  0  0  0  0  0  0
   35.7530   28.8490   33.8930 C   0  0  0  0  0  0  0  0  0  0  0  0
   35.8390   28.5090   32.5350 C   0  0  0  0  0  0  0  0  0  0  0  0
   36.7940   27.6170   32.1580 C   0  0  0  0  0  0  0  0  0  0  0  0
   37.6610   27.0540   33.0850 C   0  0  0  0  0  0  0  0  0  0  0  0
   36.6080   28.4990   35.8670 H   0  0  0  0  0  0  0  0  0  0  0  0
   35.0580   29.5350   34.3540 H   0  0  0  0  0  0  0  0  0  0  0  0
   35.1220   29.0030   31.9160 H   0  0  0  0  0  0  0  0  0  0  0  0
   36.7410   27.4550   31.0770 H   0  0  0  0  0  0  0  0  0  0  0  0
   38.5470   26.7780   35.3240 C   0  0  2  0  0  0  0  0  0  0  0  0
   39.5160   26.6110   34.7160 H   0  0  0  0  0  0  0  0  0  0  0  0
   39.8230   23.4180   35.8610 C   0  0  0  0  0  0  0  0  0  0  0  0
   38.8220   22.7900   36.5800 C   0  0  0  0  0  0  0  0  0  0  0  0
   37.6630   23.4990   36.8370 C   0  0  0  0  0  0  0  0  0  0  0  0
   37.5460   24.7910   36.3750 N   0  0  0  0  0  0  0  0  0  0  0  0
   38.5360   25.3350   35.6980 C   0  0  0  0  0  0  0  0  0  0  0  0
   39.6770   24.6560   35.4340 N   0  0  0  0  0  0  0  0  0  0  0  0
   40.7410   22.8590   35.6560 H   0  0  0  0  0  0  0  0  0  0  0  0
   38.9110   21.7860   36.9420 H   0  0  0  0  0  0  0  0  0  0  0  0
   36.8260   23.0960   37.3870 H   0  0  0  0  0  0  0  0  0  0  0  0
   39.0270   27.6480   36.1400 O   0  0  0  0  0  0  0  0  0  0  0  0
   39.3040   27.4290   37.0590 H   0  0  0  0  0  0  0  0  0  0  0  0
   38.6430   26.1450   32.5420 C   0  0  0  0  0  3  0  0  0  0  0  0
   38.3350   25.0750   31.8010 C   0  0  0  0  0  3  0  0  0  0  0  0
   39.2540   24.1090   31.1570 C   0  0  0  0  0  0  0  0  0  0  0  0
   38.8140   23.8380   30.1760 H   0  0  0  0  0  0  0  0  0  0  0  0
   40.2520   24.5740   31.0750 H   0  0  0  0  0  0  0  0  0  0  0  0
   39.3370   22.6070   32.1430 S   0  0  0  0  0  0  0  0  0  0  0  0
   37.7020   21.9050   32.3930 C   0  0  0  0  0  0  0  0  0  0  0  0
   37.0370   21.7370   31.1730 C   0  0  0  0  0  0  0  0  0  0  0  0
   37.4050   21.9810   30.1950 H   0  0  0  0  0  0  0  0  0  0  0  0
   35.7530   21.1960   31.1990 C   0  0  0  0  0  0  0  0  0  0  0  0
   35.1880   21.0420   30.2880 H   0  0  0  0  0  0  0  0  0  0  0  0
   35.2030   20.8510   32.4280 C   0  0  0  0  0  3  0  0  0  0  0  0
   35.9200   21.0470   33.5850 C   0  0  0  0  0  3  0  0  0  0  0  0
   37.1530   21.5660   33.5640 N   0  0  0  0  0  0  0  0  0  0  0  0
  1  2  1  0  0  0  0
  1 11  1  0  0  0  0
  2  7  1  0  0  0  0
  3  8  1  0  0  0  0
  3  2  2  0  0  0  0
  4  3  1  0  0  0  0
  5  4  2  0  0  0  0
  5  6  1  0  0  0  0
  6  1  2  0  0  0  0
  9  4  1  0  0  0  0
 10  5  1  0  0  0  0
 11 12  1  6  0  0  0
 11 17  1  0  0  0  0
 11 22  1  0  0  0  0
 13 14  1  0  0  0  0
 14 15  2  0  0  0  0
 14 20  1  0  0  0  0
 15 21  1  0  0  0  0
 16 15  1  0  0  0  0
 17 16  2  0  0  0  0
 18 17  1  0  0  0  0
 18 13  2  0  0  0  0
 19 13  1  0  0  0  0
 22 23  1  0  0  0  0
 24  6  1  0  0  0  0
 25 24  2  0  0  0  0
 26 25  1  0  0  0  0
 26 29  1  0  0  0  0
 27 26  1  0  0  0  0
 28 26  1  0  0  0  0
 29 30  1  0  0  0  0
 30 37  1  0  0  0  0
 31 33  1  0  0  0  0
 31 30  2  0  0  0  0
 32 31  1  0  0  0  0
 33 35  2  0  0  0  0
 34 33  1  0  0  0  0
 35 36  1  0  0  0  0
 37 36  2  0  0  0  0
M  END
>  <minimizedAffinity>
-5.46259022

$$$$

 OpenBabel03272509443D

 37 39  0  0  1  0  0  0  0  0999 V2000
   36.4310   26.1840   31.1480 C   0  0  0  0  0  0  0  0  0  0  0  0
   35.2890   25.3970   30.9770 C   0  0  0  0  0  0  0  0  0  0  0  0
   35.3120   24.0250   31.1690 C   0  0  0  0  0  0  0  0  0  0  0  0
   36.5120   23.4040   31.5470 C   0  0  0  0  0  0  0  0  0  0  0  0
   37.6130   24.1870   31.7080 C   0  0  0  0  0  0  0  0  0  0  0  0
   37.5580   25.5600   31.5070 C   0  0  0  0  0  0  0  0  0  0  0  0
   34.3770   25.9330   30.6830 H   0  0  0  0  0  0  0  0  0  0  0  0
   34.3550   23.5520   31.0010 H   0  0  0  0  0  0  0  0  0  0  0  0
   36.4350   22.3470   31.6730 H   0  0  0  0  0  0  0  0  0  0  0  0
   38.4660   23.5670   31.9970 H   0  0  0  0  0  0  0  0  0  0  0  0
   36.4130   27.6110   30.9110 C   0  0  2  0  0  0  0  0  0  0  0  0
   37.4880   27.9690   31.1410 H   0  0  0  0  0  0  0  0  0  0  0  0
   35.7760   29.1350   34.1490 C   0  0  0  0  0  0  0  0  0  0  0  0
   35.2570   30.3780   33.8370 C   0  0  0  0  0  0  0  0  0  0  0  0
   35.0610   30.6870   32.5030 C   0  0  0  0  0  0  0  0  0  0  0  0
   35.3850   29.7560   31.5420 N   0  0  0  0  0  0  0  0  0  0  0  0
   35.8780   28.5890   31.9010 C   0  0  0  0  0  0  0  0  0  0  0  0
   36.0750   28.2680   33.2010 N   0  0  0  0  0  0  0  0  0  0  0  0
   35.9310   28.8880   35.2030 H   0  0  0  0  0  0  0  0  0  0  0  0
   35.0040   31.1050   34.5830 H   0  0  0  0  0  0  0  0  0  0  0  0
   34.6590   31.6290   32.1610 H   0  0  0  0  0  0  0  0  0  0  0  0
   36.4190   27.9050   29.6590 O   0  0  0  0  0  0  0  0  0  0  0  0
   35.9910   28.7130   29.2940 H   0  0  0  0  0  0  0  0  0  0  0  0
   38.8070   26.2620   31.6840 C   0  0  0  0  0  3  0  0  0  0  0  0
   39.9730   25.6540   31.9290 C   0  0  0  0  0  3  0  0  0  0  0  0
   41.3130   26.2640   32.0790 C   0  0  0  0  0  0  0  0  0  0  0  0
   42.0600   25.5000   31.7800 H   0  0  0  0  0  0  0  0  0  0  0  0
   41.3540   27.1800   31.4640 H   0  0  0  0  0  0  0  0  0  0  0  0
   41.6070   26.6550   33.8100 S   0  0  0  0  0  0  0  0  0  0  0  0
   40.2690   26.0510   34.8460 C   0  0  0  0  0  0  0  0  0  0  0  0
   39.4180   27.0960   35.2230 C   0  0  0  0  0  0  0  0  0  0  0  0
   39.5070   28.1330   34.9620 H   0  0  0  0  0  0  0  0  0  0  0  0
   38.3230   26.7870   36.0290 C   0  0  0  0  0  0  0  0  0  0  0  0
   37.6280   27.5520   36.3530 H   0  0  0  0  0  0  0  0  0  0  0  0
   38.1330   25.4640   36.4130 C   0  0  0  0  0  3  0  0  0  0  0  0
   39.0150   24.4930   36.0010 C   0  0  0  0  0  3  0  0  0  0  0  0
   40.0670   24.7860   35.2280 N   0  0  0  0  0  0  0  0  0  0  0  0
  1  6  1  0  0  0  0
  2  1  2  0  0  0  0
  2  3  1  0  0  0  0
  3  4  2  0  0  0  0
  4  9  1  0  0  0  0
  4  5  1  0  0  0  0
  5 10  1  0  0  0  0
  6 24  1  0  0  0  0
  6  5  2  0  0  0  0
  7  2  1  0  0  0  0
  8  3  1  0  0  0  0
 11 12  1  1  0  0  0
 11  1  1  0  0  0  0
 11 17  1  0  0  0  0
 13 19  1  0  0  0  0
 14 13  1  0  0  0  0
 14 20  1  0  0  0  0
 15 14  2  0  0  0  0
 16 17  2  0  0  0  0
 16 15  1  0  0  0  0
 17 18  1  0  0  0  0
 18 13  2  0  0  0  0
 21 15  1  0  0  0  0
 22 11  1  0  0  0  0
 23 22  1  0  0  0  0
 24 25  2  0  0  0  0
 25 26  1  0  0  0  0
 26 29  1  0  0  0  0
 27 26  1  0  0  0  0
 28 26  1  0  0  0  0
 29 30  1  0  0  0  0
 30 31  2  0  0  0  0
 30 37  1  0  0  0  0
 31 33  1  0  0  0  0
 32 31  1  0  0  0  0
 33 34  1  0  0  0  0
 33 35  2  0  0  0  0
 36 35  1  0  0  0  0
 37 36  2  0  0  0  0
M  END
>  <minimizedAffinity>
-5.44556713

$$$$

 OpenBabel03272509443D

 37 39  0  0  1  0  0  0  0  0999 V2000
   36.3080   20.5440   32.9160 C   0  0  0  0  0  0  0  0  0  0  0  0
   36.5400   19.1870   32.6770 C   0  0  0  0  0  0  0  0  0  0  0  0
   36.5260   18.6570   31.3960 C   0  0  0  0  0  0  0  0  0  0  0  0
   36.2730   19.5030   30.3060 C   0  0  0  0  0  0  0  0  0  0  0  0
   36.0480   20.8200   30.5590 C   0  0  0  0  0  0  0  0  0  0  0  0
   36.0690   21.3210   31.8530 C   0  0  0  0  0  0  0  0  0  0  0  0
   36.7340   18.5710   33.5640 H   0  0  0  0  0  0  0  0  0  0  0  0
   36.7220   17.5950   31.3700 H   0  0  0  0  0  0  0  0  0  0  0  0
   36.2820   19.0080   29.3600 H   0  0  0  0  0  0  0  0  0  0  0  0
   35.8640   21.3480   29.6180 H   0  0  0  0  0  0  0  0  0  0  0  0
   36.2870   21.0880   34.2560 C   0  0  2  0  0  0  0  0  0  0  0  0
   35.7410   22.1030   34.1620 H   0  0  0  0  0  0  0  0  0  0  0  0
   39.5750   22.6210   34.4620 C   0  0  0  0  0  0  0  0  0  0  0  0
   39.5690   23.2630   35.6870 C   0  0  0  0  0  0  0  0  0  0  0  0
   38.4510   23.1250   36.4890 C   0  0  0  0  0  0  0  0  0  0  0  0
   37.3950   22.3620   36.0460 N   0  0  0  0  0  0  0  0  0  0  0  0
   37.4590   21.7770   34.8680 C   0  0  0  0  0  0  0  0  0  0  0  0
   38.5450   21.8990   34.0700 N   0  0  0  0  0  0  0  0  0  0  0  0
   40.4590   22.7290   33.8250 H   0  0  0  0  0  0  0  0  0  0  0  0
   40.3900   23.8590   36.0340 H   0  0  0  0  0  0  0  0  0  0  0  0
   38.3540   23.5840   37.4610 H   0  0  0  0  0  0  0  0  0  0  0  0
   35.4150   20.5150   35.0080 O   0  0  0  0  0  0  0  0  0  0  0  0
   35.5270   20.4150   35.9810 H   0  0  0  0  0  0  0  0  0  0  0  0
   35.7850   22.7310   31.9760 C   0  0  0  0  0  3  0  0  0  0  0  0
   36.2990   23.6650   31.1680 C   0  0  0  0  0  3  0  0  0  0  0  0
   36.0420   25.1230   31.1700 C   0  0  0  0  0  0  0  0  0  0  0  0
   35.6120   25.3850   30.1820 H   0  0  0  0  0  0  0  0  0  0  0  0
   35.3730   25.3610   32.0160 H   0  0  0  0  0  0  0  0  0  0  0  0
   37.5990   26.0090   31.3310 S   0  0  0  0  0  0  0  0  0  0  0  0
   37.9760   26.3490   33.0550 C   0  0  0  0  0  0  0  0  0  0  0  0
   39.3270   26.6730   33.2180 C   0  0  0  0  0  0  0  0  0  0  0  0
   40.0790   26.7230   32.4550 H   0  0  0  0  0  0  0  0  0  0  0  0
   39.7760   26.9690   34.5040 C   0  0  0  0  0  0  0  0  0  0  0  0
   40.8110   27.2270   34.6930 H   0  0  0  0  0  0  0  0  0  0  0  0
   38.8640   26.9280   35.5520 C   0  0  0  0  0  3  0  0  0  0  0  0
   37.5500   26.6000   35.3110 C   0  0  0  0  0  3  0  0  0  0  0  0
   37.1160   26.3160   34.0780 N   0  0  0  0  0  0  0  0  0  0  0  0
  1 11  1  0  0  0  0
  2  1  1  0  0  0  0
  2  7  1  0  0  0  0
  3  2  2  0  0  0  0
  4  5  2  0  0  0  0
  4  3  1  0  0  0  0
  5  6  1  0  0  0  0
  6 24  1  0  0  0  0
  6  1  2  0  0  0  0
  8  3  1  0  0  0  0
  9  4  1  0  0  0  0
 10  5  1  0  0  0  0
 11 12  1  6  0  0  0
 11 17  1  0  0  0  0
 11 22  1  0  0  0  0
 13 14  1  0  0  0  0
 14 20  1  0  0  0  0
 14 15  2  0  0  0  0
 15 21  1  0  0  0  0
 16 15  1  0  0  0  0
 17 16  2  0  0  0  0
 18 13  2  0  0  0  0
 18 17  1  0  0  0  0
 19 13  1  0  0  0  0
 22 23  1  0  0  0  0
 25 26  1  0  0  0  0
 25 24  2  0  0  0  0
 26 29  1  0  0  0  0
 26 28  1  0  0  0  0
 27 26  1  0  0  0  0
 29 30  1  0  0  0  0
 30 31  2  0  0  0  0
 30 37  1  0  0  0  0
 31 33  1  0  0  0  0
 32 31  1  0  0  0  0
 33 34  1  0  0  0  0
 33 35  2  0  0  0  0
 36 35  1  0  0  0  0
 37 36  2  0  0  0  0
M  END
>  <minimizedAffinity>
-5.42328024

$$$$
