
 OpenBabel03272509423D

 37 39  0  0  1  0  0  0  0  0999 V2000
   36.9940   30.9280   49.0010 C   0  0  0  0  0  0  0  0  0  0  0  0
   36.6990   31.7880   50.0620 C   0  0  0  0  0  0  0  0  0  0  0  0
   37.2980   33.0310   50.1840 C   0  0  0  0  0  0  0  0  0  0  0  0
   38.2270   33.4430   49.2170 C   0  0  0  0  0  0  0  0  0  0  0  0
   38.5020   32.5930   48.1920 C   0  0  0  0  0  0  0  0  0  0  0  0
   37.8850   31.3530   48.0980 C   0  0  0  0  0  0  0  0  0  0  0  0
   35.9650   31.4170   50.7900 H   0  0  0  0  0  0  0  0  0  0  0  0
   36.9710   33.5820   51.0550 H   0  0  0  0  0  0  0  0  0  0  0  0
   38.6360   34.4140   49.3920 H   0  0  0  0  0  0  0  0  0  0  0  0
   39.2410   33.0470   47.5250 H   0  0  0  0  0  0  0  0  0  0  0  0
   36.3940   29.6160   48.8960 C   0  0  2  0  0  0  0  0  0  0  0  0
   36.9200   29.1140   47.9970 H   0  0  0  0  0  0  0  0  0  0  0  0
   33.5680   30.1770   46.6800 C   0  0  0  0  0  0  0  0  0  0  0  0
   32.8480   28.9990   46.7520 C   0  0  0  0  0  0  0  0  0  0  0  0
   33.2930   28.0140   47.6150 C   0  0  0  0  0  0  0  0  0  0  0  0
   34.4260   28.2380   48.3640 N   0  0  0  0  0  0  0  0  0  0  0  0
   35.0710   29.3800   48.2500 C   0  0  0  0  0  0  0  0  0  0  0  0
   34.6490   30.3560   47.4130 N   0  0  0  0  0  0  0  0  0  0  0  0
   33.2180   30.9580   45.9980 H   0  0  0  0  0  0  0  0  0  0  0  0
   31.9660   28.8220   46.1680 H   0  0  0  0  0  0  0  0  0  0  0  0
   32.7980   27.0630   47.7420 H   0  0  0  0  0  0  0  0  0  0  0  0
   36.8220   28.8030   49.7960 O   0  0  0  0  0  0  0  0  0  0  0  0
   36.2750   28.0730   50.1660 H   0  0  0  0  0  0  0  0  0  0  0  0
   38.2920   30.5420   46.9750 C   0  0  0  0  0  3  0  0  0  0  0  0
   39.0220   31.0010   45.9530 C   0  0  0  0  0  3  0  0  0  0  0  0
   39.5350   30.2550   44.7820 C   0  0  0  0  0  0  0  0  0  0  0  0
   40.4540   29.7240   45.1040 H   0  0  0  0  0  0  0  0  0  0  0  0
   38.7410   29.5760   44.4220 H   0  0  0  0  0  0  0  0  0  0  0  0
   40.0070   31.4120   43.4890 S   0  0  0  0  0  0  0  0  0  0  0  0
   38.5660   32.2340   42.7970 C   0  0  0  0  0  0  0  0  0  0  0  0
   38.9240   33.0460   41.7150 C   0  0  0  0  0  0  0  0  0  0  0  0
   39.9070   33.1960   41.3140 H   0  0  0  0  0  0  0  0  0  0  0  0
   37.9110   33.7490   41.0650 C   0  0  0  0  0  0  0  0  0  0  0  0
   38.1260   34.3930   40.2210 H   0  0  0  0  0  0  0  0  0  0  0  0
   36.6060   33.6090   41.5220 C   0  0  0  0  0  3  0  0  0  0  0  0
   36.3340   32.7910   42.5940 C   0  0  0  0  0  3  0  0  0  0  0  0
   37.3030   32.1140   43.2200 N   0  0  0  0  0  0  0  0  0  0  0  0
  1  2  1  0  0  0  0
  2  3  2  0  0  0  0
  2  7  1  0  0  0  0
  3  8  1  0  0  0  0
  4  9  1  0  0  0  0
  4  3  1  0  0  0  0
  5  4  2  0  0  0  0
  6  5  1  0  0  0  0
  6  1  2  0  0  0  0
 10  5  1  0  0  0  0
 11 12  1  6  0  0  0
 11  1  1  0  0  0  0
 11 22  1  0  0  0  0
 13 14  2  0  0  0  0
 13 18  1  0  0  0  0
 14 15  1  0  0  0  0
 15 21  1  0  0  0  0
 15 16  2  0  0  0  0
 17 16  1  0  0  0  0
 17 11  1  0  0  0  0
 18 17  2  0  0  0  0
 19 13  1  0  0  0  0
 20 14  1  0  0  0  0
 22 23  1  0  0  0  0
 24  6  1  0  0  0  0
 25 24  2  0  0  0  0
 26 27  1  0  0  0  0
 26 25  1  0  0  0  0
 28 26  1  0  0  0  0
 29 26  1  0  0  0  0
 30 37  1  0  0  0  0
 30 29  1  0  0  0  0
 31 30  2  0  0  0  0
 32 31  1  0  0  0  0
 33 35  2  0  0  0  0
 33 31  1  0  0  0  0
 34 33  1  0  0  0  0
 35 36  1  0  0  0  0
 36 37  2  0  0  0  0
M  END
>  <minimizedAffinity>
-5.79759789

>  <minimizedRMSD>
0.99027884

$$$$
