
 OpenBabel03272500243D

 30 32  0  0  0  0  0  0  0  0999 V2000
   37.0610   23.6510   31.2590 C   0  0  0  0  0  0  0  0  0  0  0  0
   36.9710   24.4920   30.5230 H   0  0  0  0  0  0  0  0  0  0  0  0
   37.9580   23.1010   30.9070 H   0  0  0  0  0  0  0  0  0  0  0  0
   37.4860   24.1220   32.5900 C   0  0  0  0  0  0  0  0  0  0  0  0
   37.6660   25.4900   32.8110 C   0  0  0  0  0  0  0  0  0  0  0  0
   38.0720   25.6570   34.1070 C   0  0  0  0  0  0  0  0  0  0  0  0
   38.1360   24.4400   34.6500 N   0  0  0  0  0  0  0  0  0  0  0  0
   37.7890   23.5530   33.7470 N   0  0  0  0  0  0  0  0  0  0  0  0
   37.5410   26.3450   32.1650 H   0  0  0  0  0  0  0  0  0  0  0  0
   38.3340   26.4910   34.7420 H   0  0  0  0  0  0  0  0  0  0  0  0
   38.4970   24.0040   35.9620 C   0  0  0  0  0  0  0  0  0  0  0  0
   39.5880   23.2170   36.2710 C   0  0  0  0  0  0  0  0  0  0  0  0
   40.2080   22.9120   35.4520 H   0  0  0  0  0  0  0  0  0  0  0  0
   39.7980   22.8830   37.5950 C   0  0  0  0  0  0  0  0  0  0  0  0
   40.6580   22.2610   37.8430 H   0  0  0  0  0  0  0  0  0  0  0  0
   38.9520   23.3120   38.6150 C   0  0  0  0  0  3  0  0  0  0  0  0
   37.8760   24.1000   38.2390 C   0  0  0  0  0  3  0  0  0  0  0  0
   37.6760   24.4220   36.9510 N   0  0  0  0  0  0  0  0  0  0  0  0
   35.7730   22.9330   31.2480 C   0  0  0  0  0  0  0  0  0  0  0  0
   35.1220   23.2270   30.3670 H   0  0  0  0  0  0  0  0  0  0  0  0
   35.1730   23.3290   32.1250 H   0  0  0  0  0  0  0  0  0  0  0  0
   35.7640   21.4980   31.3240 C   0  0  0  0  0  0  0  0  0  0  0  0
   34.8490   20.8490   32.1050 C   0  0  0  0  0  0  0  0  0  0  0  0
   34.8360   19.4440   32.1860 C   0  0  0  0  0  0  0  0  0  0  0  0
   35.8010   18.7950   31.4280 N   0  0  0  0  0  0  0  0  0  0  0  0
   36.6960   19.4730   30.6620 C   0  0  0  0  0  0  0  0  0  0  0  0
   36.6650   20.8410   30.6190 N   0  0  0  0  0  0  0  0  0  0  0  0
   34.0550   21.2080   32.7370 H   0  0  0  0  0  0  0  0  0  0  0  0
   34.1790   18.8110   32.7550 H   0  0  0  0  0  0  0  0  0  0  0  0
   37.4210   18.9040   30.0960 H   0  0  0  0  0  0  0  0  0  0  0  0
  1  4  1  0  0  0  0
  2  1  1  0  0  0  0
  3  1  1  0  0  0  0
  4  5  1  0  0  0  0
  4  8  2  0  0  0  0
  5  6  2  0  0  0  0
  6  7  1  0  0  0  0
  6 10  1  0  0  0  0
  7 11  1  0  0  0  0
  8  7  1  0  0  0  0
  9  5  1  0  0  0  0
 11 12  2  0  0  0  0
 11 18  1  0  0  0  0
 12 14  1  0  0  0  0
 13 12  1  0  0  0  0
 14 15  1  0  0  0  0
 14 16  2  0  0  0  0
 17 16  1  0  0  0  0
 18 17  2  0  0  0  0
 19  1  1  0  0  0  0
 19 22  1  0  0  0  0
 19 21  1  0  0  0  0
 20 19  1  0  0  0  0
 22 23  1  0  0  0  0
 23 24  2  0  0  0  0
 23 28  1  0  0  0  0
 24 29  1  0  0  0  0
 25 24  1  0  0  0  0
 26 25  2  0  0  0  0
 27 26  1  0  0  0  0
 27 22  2  0  0  0  0
 30 26  1  0  0  0  0
M  END
>  <minimizedAffinity>
-5.03930569

$$$$

 OpenBabel03272500243D

 30 32  0  0  0  0  0  0  0  0999 V2000
   36.9030   25.8630   31.7480 C   0  0  0  0  0  0  0  0  0  0  0  0
   36.4450   26.8490   31.4700 H   0  0  0  0  0  0  0  0  0  0  0  0
   37.8980   25.8990   31.2590 H   0  0  0  0  0  0  0  0  0  0  0  0
   37.2600   25.8020   33.1770 C   0  0  0  0  0  0  0  0  0  0  0  0
   37.0540   26.9210   33.9870 C   0  0  0  0  0  0  0  0  0  0  0  0
   37.4790   26.6110   35.2500 C   0  0  0  0  0  0  0  0  0  0  0  0
   37.9250   25.3540   35.2090 N   0  0  0  0  0  0  0  0  0  0  0  0
   37.7890   24.8950   33.9860 N   0  0  0  0  0  0  0  0  0  0  0  0
   36.6460   27.8970   33.7750 H   0  0  0  0  0  0  0  0  0  0  0  0
   37.5310   27.1170   36.2040 H   0  0  0  0  0  0  0  0  0  0  0  0
   38.4820   24.5100   36.2190 C   0  0  0  0  0  0  0  0  0  0  0  0
   37.9880   24.3600   37.4970 C   0  0  0  0  0  0  0  0  0  0  0  0
   37.1130   24.9290   37.7460 H   0  0  0  0  0  0  0  0  0  0  0  0
   38.6460   23.5000   38.3550 C   0  0  0  0  0  0  0  0  0  0  0  0
   38.2590   23.3790   39.3670 H   0  0  0  0  0  0  0  0  0  0  0  0
   39.7800   22.7880   37.9720 C   0  0  0  0  0  3  0  0  0  0  0  0
   40.2250   22.9820   36.6740 C   0  0  0  0  0  3  0  0  0  0  0  0
   39.5820   23.8190   35.8440 N   0  0  0  0  0  0  0  0  0  0  0  0
   35.9630   24.8160   31.3080 C   0  0  0  0  0  0  0  0  0  0  0  0
   35.3840   25.1150   30.3800 H   0  0  0  0  0  0  0  0  0  0  0  0
   35.1430   24.7660   32.0900 H   0  0  0  0  0  0  0  0  0  0  0  0
   36.4460   23.4790   31.0960 C   0  0  0  0  0  0  0  0  0  0  0  0
   35.6410   22.4020   31.3400 C   0  0  0  0  0  0  0  0  0  0  0  0
   36.1080   21.0900   31.1360 C   0  0  0  0  0  0  0  0  0  0  0  0
   37.4150   20.9870   30.6790 N   0  0  0  0  0  0  0  0  0  0  0  0
   38.1870   22.0810   30.4460 C   0  0  0  0  0  0  0  0  0  0  0  0
   37.6840   23.3360   30.6620 N   0  0  0  0  0  0  0  0  0  0  0  0
   34.6250   22.3230   31.6900 H   0  0  0  0  0  0  0  0  0  0  0  0
   35.5870   20.1610   31.2870 H   0  0  0  0  0  0  0  0  0  0  0  0
   39.1980   21.9290   30.0910 H   0  0  0  0  0  0  0  0  0  0  0  0
  1  4  1  0  0  0  0
  2  1  1  0  0  0  0
  3  1  1  0  0  0  0
  4  8  2  0  0  0  0
  4  5  1  0  0  0  0
  5  6  2  0  0  0  0
  6 10  1  0  0  0  0
  7  6  1  0  0  0  0
  7 11  1  0  0  0  0
  8  7  1  0  0  0  0
  9  5  1  0  0  0  0
 11 12  1  0  0  0  0
 12 13  1  0  0  0  0
 12 14  2  0  0  0  0
 14 15  1  0  0  0  0
 16 14  1  0  0  0  0
 17 16  2  0  0  0  0
 18 11  2  0  0  0  0
 18 17  1  0  0  0  0
 19  1  1  0  0  0  0
 19 21  1  0  0  0  0
 20 19  1  0  0  0  0
 22 19  1  0  0  0  0
 22 23  1  0  0  0  0
 23 28  1  0  0  0  0
 24 29  1  0  0  0  0
 24 23  2  0  0  0  0
 25 24  1  0  0  0  0
 26 27  1  0  0  0  0
 26 25  2  0  0  0  0
 27 22  2  0  0  0  0
 30 26  1  0  0  0  0
M  END
>  <minimizedAffinity>
-4.97094488

$$$$

 OpenBabel03272500243D

 30 32  0  0  0  0  0  0  0  0999 V2000
   37.3860   26.2420   33.2700 C   0  0  0  0  0  0  0  0  0  0  0  0
   36.6460   25.4020   33.3420 H   0  0  0  0  0  0  0  0  0  0  0  0
   37.6740   26.2350   32.1990 H   0  0  0  0  0  0  0  0  0  0  0  0
   36.7430   27.5610   33.4110 C   0  0  0  0  0  0  0  0  0  0  0  0
   36.5470   28.3570   32.2800 C   0  0  0  0  0  0  0  0  0  0  0  0
   35.9540   29.5220   32.6820 C   0  0  0  0  0  0  0  0  0  0  0  0
   35.7960   29.4370   34.0050 N   0  0  0  0  0  0  0  0  0  0  0  0
   36.2630   28.2820   34.4150 N   0  0  0  0  0  0  0  0  0  0  0  0
   36.7760   28.1940   31.2380 H   0  0  0  0  0  0  0  0  0  0  0  0
   35.6100   30.4290   32.2060 H   0  0  0  0  0  0  0  0  0  0  0  0
   35.2380   30.3480   34.9550 C   0  0  0  0  0  0  0  0  0  0  0  0
   35.9550   31.2500   35.7130 C   0  0  0  0  0  0  0  0  0  0  0  0
   37.0180   31.2600   35.5730 H   0  0  0  0  0  0  0  0  0  0  0  0
   35.2610   32.0630   36.5890 C   0  0  0  0  0  0  0  0  0  0  0  0
   35.8240   32.7770   37.1910 H   0  0  0  0  0  0  0  0  0  0  0  0
   33.8770   32.0000   36.7260 C   0  0  0  0  0  3  0  0  0  0  0  0
   33.2160   31.0740   35.9350 C   0  0  0  0  0  3  0  0  0  0  0  0
   33.8940   30.2860   35.0860 N   0  0  0  0  0  0  0  0  0  0  0  0
   38.4420   25.9680   34.2620 C   0  0  0  0  0  0  0  0  0  0  0  0
   38.7680   26.9020   34.8160 H   0  0  0  0  0  0  0  0  0  0  0  0
   39.3770   25.7040   33.6770 H   0  0  0  0  0  0  0  0  0  0  0  0
   38.2360   24.9400   35.2450 C   0  0  0  0  0  0  0  0  0  0  0  0
   38.0790   25.2610   36.5640 C   0  0  0  0  0  0  0  0  0  0  0  0
   37.8790   24.2600   37.5320 C   0  0  0  0  0  0  0  0  0  0  0  0
   37.8550   22.9590   37.0480 N   0  0  0  0  0  0  0  0  0  0  0  0
   38.0140   22.6760   35.7280 C   0  0  0  0  0  0  0  0  0  0  0  0
   38.2060   23.6890   34.8270 N   0  0  0  0  0  0  0  0  0  0  0  0
   38.0740   26.2050   37.0830 H   0  0  0  0  0  0  0  0  0  0  0  0
   37.7420   24.3700   38.5940 H   0  0  0  0  0  0  0  0  0  0  0  0
   37.9840   21.6400   35.4180 H   0  0  0  0  0  0  0  0  0  0  0  0
  1  2  1  0  0  0  0
  1  4  1  0  0  0  0
  1 19  1  0  0  0  0
  3  1  1  0  0  0  0
  4  8  2  0  0  0  0
  5  6  2  0  0  0  0
  5  4  1  0  0  0  0
  6  7  1  0  0  0  0
  7  8  1  0  0  0  0
  7 11  1  0  0  0  0
  9  5  1  0  0  0  0
 10  6  1  0  0  0  0
 11 18  2  0  0  0  0
 11 12  1  0  0  0  0
 12 14  2  0  0  0  0
 13 12  1  0  0  0  0
 14 16  1  0  0  0  0
 14 15  1  0  0  0  0
 17 16  2  0  0  0  0
 18 17  1  0  0  0  0
 19 20  1  0  0  0  0
 19 22  1  0  0  0  0
 21 19  1  0  0  0  0
 22 23  1  0  0  0  0
 23 28  1  0  0  0  0
 23 24  2  0  0  0  0
 24 29  1  0  0  0  0
 25 24  1  0  0  0  0
 26 25  2  0  0  0  0
 27 22  2  0  0  0  0
 27 26  1  0  0  0  0
 30 26  1  0  0  0  0
M  END
>  <minimizedAffinity>
-4.91676235

$$$$

 OpenBabel03272500243D

 30 32  0  0  0  0  0  0  0  0999 V2000
   38.3230   25.5350   33.9480 C   0  0  0  0  0  0  0  0  0  0  0  0
   39.4270   25.3500   33.8700 H   0  0  0  0  0  0  0  0  0  0  0  0
   38.1810   26.4680   33.3660 H   0  0  0  0  0  0  0  0  0  0  0  0
   37.5420   24.5580   33.1660 C   0  0  0  0  0  0  0  0  0  0  0  0
   36.7020   25.0080   32.1450 C   0  0  0  0  0  0  0  0  0  0  0  0
   36.0860   23.9170   31.5950 C   0  0  0  0  0  0  0  0  0  0  0  0
   36.5360   22.8480   32.2550 N   0  0  0  0  0  0  0  0  0  0  0  0
   37.3880   23.2420   33.1720 N   0  0  0  0  0  0  0  0  0  0  0  0
   36.4930   25.9980   31.7690 H   0  0  0  0  0  0  0  0  0  0  0  0
   35.3720   23.7390   30.8030 H   0  0  0  0  0  0  0  0  0  0  0  0
   36.2450   21.4550   32.1170 C   0  0  0  0  0  0  0  0  0  0  0  0
   35.6330   20.6680   33.0700 C   0  0  0  0  0  0  0  0  0  0  0  0
   35.3570   21.1500   33.9880 H   0  0  0  0  0  0  0  0  0  0  0  0
   35.4230   19.3340   32.7790 C   0  0  0  0  0  0  0  0  0  0  0  0
   34.9400   18.7090   33.5300 H   0  0  0  0  0  0  0  0  0  0  0  0
   35.8050   18.7670   31.5650 C   0  0  0  0  0  3  0  0  0  0  0  0
   36.4140   19.6120   30.6510 C   0  0  0  0  0  3  0  0  0  0  0  0
   36.6160   20.9070   30.9390 N   0  0  0  0  0  0  0  0  0  0  0  0
   37.9950   25.5680   35.3850 C   0  0  0  0  0  0  0  0  0  0  0  0
   36.8770   25.5470   35.5740 H   0  0  0  0  0  0  0  0  0  0  0  0
   38.2760   26.6020   35.7580 H   0  0  0  0  0  0  0  0  0  0  0  0
   38.5950   24.6070   36.2680 C   0  0  0  0  0  0  0  0  0  0  0  0
   38.0490   24.3540   37.4950 C   0  0  0  0  0  0  0  0  0  0  0  0
   38.6330   23.4150   38.3660 C   0  0  0  0  0  0  0  0  0  0  0  0
   39.7730   22.7860   37.8860 N   0  0  0  0  0  0  0  0  0  0  0  0
   40.2890   23.0620   36.6590 C   0  0  0  0  0  0  0  0  0  0  0  0
   39.6820   23.9850   35.8510 N   0  0  0  0  0  0  0  0  0  0  0  0
   37.1840   24.7540   37.9980 H   0  0  0  0  0  0  0  0  0  0  0  0
   38.3110   23.1220   39.3500 H   0  0  0  0  0  0  0  0  0  0  0  0
   41.1810   22.5350   36.3480 H   0  0  0  0  0  0  0  0  0  0  0  0
  1 19  1  0  0  0  0
  2  1  1  0  0  0  0
  3  1  1  0  0  0  0
  4  8  2  0  0  0  0
  4  1  1  0  0  0  0
  5  4  1  0  0  0  0
  6  5  2  0  0  0  0
  6  7  1  0  0  0  0
  7  8  1  0  0  0  0
  9  5  1  0  0  0  0
 10  6  1  0  0  0  0
 11  7  1  0  0  0  0
 11 12  1  0  0  0  0
 12 13  1  0  0  0  0
 14 12  2  0  0  0  0
 14 15  1  0  0  0  0
 16 14  1  0  0  0  0
 17 18  1  0  0  0  0
 17 16  2  0  0  0  0
 18 11  2  0  0  0  0
 19 20  1  0  0  0  0
 19 21  1  0  0  0  0
 19 22  1  0  0  0  0
 22 23  1  0  0  0  0
 23 28  1  0  0  0  0
 23 24  2  0  0  0  0
 24 29  1  0  0  0  0
 25 24  1  0  0  0  0
 26 25  2  0  0  0  0
 27 22  2  0  0  0  0
 27 26  1  0  0  0  0
 30 26  1  0  0  0  0
M  END
>  <minimizedAffinity>
-4.8722496

$$$$

 OpenBabel03272500243D

 30 32  0  0  0  0  0  0  0  0999 V2000
   38.3190   26.0110   30.9010 C   0  0  0  0  0  0  0  0  0  0  0  0
   39.3500   25.6490   31.1550 H   0  0  0  0  0  0  0  0  0  0  0  0
   38.3600   26.1390   29.8000 H   0  0  0  0  0  0  0  0  0  0  0  0
   37.3060   24.9510   31.0540 C   0  0  0  0  0  0  0  0  0  0  0  0
   35.9550   25.2960   31.1360 C   0  0  0  0  0  0  0  0  0  0  0  0
   35.2350   24.1430   31.2900 C   0  0  0  0  0  0  0  0  0  0  0  0
   36.1130   23.1390   31.3020 N   0  0  0  0  0  0  0  0  0  0  0  0
   37.3230   23.6300   31.1630 N   0  0  0  0  0  0  0  0  0  0  0  0
   35.4530   26.2500   31.0970 H   0  0  0  0  0  0  0  0  0  0  0  0
   34.1910   23.8820   31.3970 H   0  0  0  0  0  0  0  0  0  0  0  0
   35.9390   21.7260   31.4340 C   0  0  0  0  0  0  0  0  0  0  0  0
   34.9500   21.1080   32.1700 C   0  0  0  0  0  0  0  0  0  0  0  0
   34.2590   21.7490   32.6830 H   0  0  0  0  0  0  0  0  0  0  0  0
   34.9210   19.7270   32.1940 C   0  0  0  0  0  0  0  0  0  0  0  0
   34.1400   19.2340   32.7740 H   0  0  0  0  0  0  0  0  0  0  0  0
   35.8480   18.9500   31.5050 C   0  0  0  0  0  3  0  0  0  0  0  0
   36.8150   19.6310   30.7840 C   0  0  0  0  0  3  0  0  0  0  0  0
   36.8400   20.9740   30.7640 N   0  0  0  0  0  0  0  0  0  0  0  0
   38.0740   27.2130   31.7190 C   0  0  0  0  0  0  0  0  0  0  0  0
   37.0050   27.5820   31.6360 H   0  0  0  0  0  0  0  0  0  0  0  0
   38.6520   28.0590   31.2350 H   0  0  0  0  0  0  0  0  0  0  0  0
   38.4110   27.1960   33.1160 C   0  0  0  0  0  0  0  0  0  0  0  0
   39.6810   26.8980   33.5210 C   0  0  0  0  0  0  0  0  0  0  0  0
   40.0180   26.8780   34.8870 C   0  0  0  0  0  0  0  0  0  0  0  0
   38.9810   27.1780   35.7610 N   0  0  0  0  0  0  0  0  0  0  0  0
   37.7280   27.4700   35.3220 C   0  0  0  0  0  0  0  0  0  0  0  0
   37.4540   27.4750   33.9810 N   0  0  0  0  0  0  0  0  0  0  0  0
   40.5750   26.6500   32.9740 H   0  0  0  0  0  0  0  0  0  0  0  0
   40.9690   26.6620   35.3420 H   0  0  0  0  0  0  0  0  0  0  0  0
   36.9670   27.6950   36.0580 H   0  0  0  0  0  0  0  0  0  0  0  0
  1  4  1  0  0  0  0
  1  2  1  0  0  0  0
  1 19  1  0  0  0  0
  3  1  1  0  0  0  0
  4  5  1  0  0  0  0
  4  8  2  0  0  0  0
  5  6  2  0  0  0  0
  6  7  1  0  0  0  0
  6 10  1  0  0  0  0
  7 11  1  0  0  0  0
  8  7  1  0  0  0  0
  9  5  1  0  0  0  0
 11 12  1  0  0  0  0
 12 14  2  0  0  0  0
 12 13  1  0  0  0  0
 14 15  1  0  0  0  0
 16 14  1  0  0  0  0
 17 16  2  0  0  0  0
 18 17  1  0  0  0  0
 18 11  2  0  0  0  0
 19 22  1  0  0  0  0
 20 19  1  0  0  0  0
 21 19  1  0  0  0  0
 22 23  2  0  0  0  0
 22 27  1  0  0  0  0
 23 24  1  0  0  0  0
 24 29  1  0  0  0  0
 24 25  2  0  0  0  0
 26 25  1  0  0  0  0
 26 30  1  0  0  0  0
 27 26  2  0  0  0  0
 28 23  1  0  0  0  0
M  END
>  <minimizedAffinity>
-4.79023504

$$$$

 OpenBabel03272500243D

 30 32  0  0  0  0  0  0  0  0999 V2000
   38.0360   23.8540   33.5860 C   0  0  0  0  0  0  0  0  0  0  0  0
   37.3800   23.1580   34.1720 H   0  0  0  0  0  0  0  0  0  0  0  0
   38.4840   23.1920   32.8170 H   0  0  0  0  0  0  0  0  0  0  0  0
   37.2510   24.7970   32.7680 C   0  0  0  0  0  0  0  0  0  0  0  0
   36.3490   24.3030   31.8230 C   0  0  0  0  0  0  0  0  0  0  0  0
   35.7700   25.3720   31.1950 C   0  0  0  0  0  0  0  0  0  0  0  0
   36.2990   26.4700   31.7370 N   0  0  0  0  0  0  0  0  0  0  0  0
   37.1650   26.1150   32.6570 N   0  0  0  0  0  0  0  0  0  0  0  0
   36.0740   23.2960   31.5490 H   0  0  0  0  0  0  0  0  0  0  0  0
   35.0340   25.5160   30.4160 H   0  0  0  0  0  0  0  0  0  0  0  0
   36.0760   27.8580   31.4800 C   0  0  0  0  0  0  0  0  0  0  0  0
   36.7170   28.6050   30.5130 C   0  0  0  0  0  0  0  0  0  0  0  0
   37.4430   28.0930   29.9110 H   0  0  0  0  0  0  0  0  0  0  0  0
   36.3850   29.9410   30.3930 C   0  0  0  0  0  0  0  0  0  0  0  0
   36.8900   30.5350   29.6310 H   0  0  0  0  0  0  0  0  0  0  0  0
   35.4330   30.5480   31.2080 C   0  0  0  0  0  3  0  0  0  0  0  0
   34.8250   29.7430   32.1580 C   0  0  0  0  0  3  0  0  0  0  0  0
   35.1510   28.4460   32.2710 N   0  0  0  0  0  0  0  0  0  0  0  0
   38.9480   24.4960   34.5500 C   0  0  0  0  0  0  0  0  0  0  0  0
   38.8730   25.6270   34.5310 H   0  0  0  0  0  0  0  0  0  0  0  0
   40.0010   24.3240   34.1640 H   0  0  0  0  0  0  0  0  0  0  0  0
   38.9170   24.0900   35.9290 C   0  0  0  0  0  0  0  0  0  0  0  0
   37.9710   24.5900   36.7790 C   0  0  0  0  0  0  0  0  0  0  0  0
   37.9350   24.1980   38.1300 C   0  0  0  0  0  0  0  0  0  0  0  0
   38.9110   23.2890   38.5130 N   0  0  0  0  0  0  0  0  0  0  0  0
   39.8360   22.8120   37.6400 C   0  0  0  0  0  0  0  0  0  0  0  0
   39.8280   23.2260   36.3350 N   0  0  0  0  0  0  0  0  0  0  0  0
   37.1640   25.2880   36.6320 H   0  0  0  0  0  0  0  0  0  0  0  0
   37.2520   24.5100   38.9010 H   0  0  0  0  0  0  0  0  0  0  0  0
   40.5690   22.1050   38.0050 H   0  0  0  0  0  0  0  0  0  0  0  0
  1  2  1  0  0  0  0
  1 19  1  0  0  0  0
  3  1  1  0  0  0  0
  4  1  1  0  0  0  0
  5  4  1  0  0  0  0
  6  7  1  0  0  0  0
  6  5  2  0  0  0  0
  7  8  1  0  0  0  0
  8  4  2  0  0  0  0
  9  5  1  0  0  0  0
 10  6  1  0  0  0  0
 11  7  1  0  0  0  0
 11 18  1  0  0  0  0
 12 11  2  0  0  0  0
 13 12  1  0  0  0  0
 14 12  1  0  0  0  0
 14 16  2  0  0  0  0
 15 14  1  0  0  0  0
 16 17  1  0  0  0  0
 17 18  2  0  0  0  0
 19 22  1  0  0  0  0
 20 19  1  0  0  0  0
 21 19  1  0  0  0  0
 22 27  2  0  0  0  0
 22 23  1  0  0  0  0
 23 24  2  0  0  0  0
 24 25  1  0  0  0  0
 24 29  1  0  0  0  0
 26 30  1  0  0  0  0
 26 25  2  0  0  0  0
 27 26  1  0  0  0  0
 28 23  1  0  0  0  0
M  END
>  <minimizedAffinity>
-4.77816248

$$$$

 OpenBabel03272500243D

 30 32  0  0  0  0  0  0  0  0999 V2000
   36.6060   26.5530   31.8690 C   0  0  0  0  0  0  0  0  0  0  0  0
   37.4290   26.5230   31.1080 H   0  0  0  0  0  0  0  0  0  0  0  0
   36.0560   25.6080   31.6850 H   0  0  0  0  0  0  0  0  0  0  0  0
   37.1120   26.3570   33.2400 C   0  0  0  0  0  0  0  0  0  0  0  0
   37.1290   27.4350   34.1290 C   0  0  0  0  0  0  0  0  0  0  0  0
   37.6540   26.9960   35.3130 C   0  0  0  0  0  0  0  0  0  0  0  0
   37.9450   25.7040   35.1510 N   0  0  0  0  0  0  0  0  0  0  0  0
   37.6210   25.3460   33.9300 N   0  0  0  0  0  0  0  0  0  0  0  0
   36.8150   28.4620   34.0200 H   0  0  0  0  0  0  0  0  0  0  0  0
   37.8710   27.4280   36.2800 H   0  0  0  0  0  0  0  0  0  0  0  0
   38.5100   24.7380   36.0400 C   0  0  0  0  0  0  0  0  0  0  0  0
   39.5990   23.9370   35.7620 C   0  0  0  0  0  0  0  0  0  0  0  0
   40.0500   24.0550   34.7970 H   0  0  0  0  0  0  0  0  0  0  0  0
   40.0220   23.0520   36.7350 C   0  0  0  0  0  0  0  0  0  0  0  0
   40.8820   22.4170   36.5190 H   0  0  0  0  0  0  0  0  0  0  0  0
   39.3920   22.9460   37.9720 C   0  0  0  0  0  3  0  0  0  0  0  0
   38.3060   23.7790   38.1880 C   0  0  0  0  0  3  0  0  0  0  0  0
   37.8980   24.6370   37.2400 N   0  0  0  0  0  0  0  0  0  0  0  0
   35.8780   27.8190   31.6630 C   0  0  0  0  0  0  0  0  0  0  0  0
   35.6910   28.3730   32.6340 H   0  0  0  0  0  0  0  0  0  0  0  0
   34.8260   27.5400   31.3450 H   0  0  0  0  0  0  0  0  0  0  0  0
   36.3820   28.7760   30.7160 C   0  0  0  0  0  0  0  0  0  0  0  0
   36.1420   30.1110   30.8820 C   0  0  0  0  0  0  0  0  0  0  0  0
   36.6310   31.0530   29.9580 C   0  0  0  0  0  0  0  0  0  0  0  0
   37.3550   30.5260   28.8980 N   0  0  0  0  0  0  0  0  0  0  0  0
   37.5750   29.1920   28.7640 C   0  0  0  0  0  0  0  0  0  0  0  0
   37.0760   28.3170   29.6920 N   0  0  0  0  0  0  0  0  0  0  0  0
   35.6080   30.6600   31.6390 H   0  0  0  0  0  0  0  0  0  0  0  0
   36.5170   32.1220   29.9670 H   0  0  0  0  0  0  0  0  0  0  0  0
   38.1480   28.8490   27.9130 H   0  0  0  0  0  0  0  0  0  0  0  0
  1  4  1  0  0  0  0
  2  1  1  0  0  0  0
  3  1  1  0  0  0  0
  4  8  2  0  0  0  0
  4  5  1  0  0  0  0
  5  6  2  0  0  0  0
  6 10  1  0  0  0  0
  7  6  1  0  0  0  0
  7 11  1  0  0  0  0
  8  7  1  0  0  0  0
  9  5  1  0  0  0  0
 11 18  1  0  0  0  0
 12 11  2  0  0  0  0
 12 14  1  0  0  0  0
 13 12  1  0  0  0  0
 14 16  2  0  0  0  0
 15 14  1  0  0  0  0
 16 17  1  0  0  0  0
 18 17  2  0  0  0  0
 19  1  1  0  0  0  0
 19 20  1  0  0  0  0
 21 19  1  0  0  0  0
 22 23  1  0  0  0  0
 22 19  1  0  0  0  0
 23 28  1  0  0  0  0
 24 29  1  0  0  0  0
 24 23  2  0  0  0  0
 25 24  1  0  0  0  0
 26 25  2  0  0  0  0
 26 27  1  0  0  0  0
 27 22  2  0  0  0  0
 30 26  1  0  0  0  0
M  END
>  <minimizedAffinity>
-4.74532604

$$$$

 OpenBabel03272500243D

 30 32  0  0  0  0  0  0  0  0999 V2000
   36.2790   28.4930   34.0420 C   0  0  0  0  0  0  0  0  0  0  0  0
   35.3470   28.6040   34.6550 H   0  0  0  0  0  0  0  0  0  0  0  0
   36.9860   29.1990   34.5250 H   0  0  0  0  0  0  0  0  0  0  0  0
   36.9370   27.1930   34.2630 C   0  0  0  0  0  0  0  0  0  0  0  0
   37.1360   26.3290   33.1840 C   0  0  0  0  0  0  0  0  0  0  0  0
   37.7430   25.1970   33.6560 C   0  0  0  0  0  0  0  0  0  0  0  0
   37.9070   25.3680   34.9690 N   0  0  0  0  0  0  0  0  0  0  0  0
   37.4290   26.5420   35.3080 N   0  0  0  0  0  0  0  0  0  0  0  0
   36.9000   26.4220   32.1350 H   0  0  0  0  0  0  0  0  0  0  0  0
   38.0950   24.2650   33.2360 H   0  0  0  0  0  0  0  0  0  0  0  0
   38.4790   24.5250   35.9720 C   0  0  0  0  0  0  0  0  0  0  0  0
   39.5970   23.7340   35.8100 C   0  0  0  0  0  0  0  0  0  0  0  0
   40.0690   23.7590   34.8470 H   0  0  0  0  0  0  0  0  0  0  0  0
   40.0220   22.9760   36.8840 C   0  0  0  0  0  0  0  0  0  0  0  0
   40.9050   22.3490   36.7590 H   0  0  0  0  0  0  0  0  0  0  0  0
   39.3640   22.9870   38.1110 C   0  0  0  0  0  3  0  0  0  0  0  0
   38.2480   23.8030   38.2090 C   0  0  0  0  0  3  0  0  0  0  0  0
   37.8390   24.5380   37.1630 N   0  0  0  0  0  0  0  0  0  0  0  0
   35.9030   28.7560   32.6400 C   0  0  0  0  0  0  0  0  0  0  0  0
   35.8560   27.8080   32.0200 H   0  0  0  0  0  0  0  0  0  0  0  0
   36.7770   29.3020   32.1670 H   0  0  0  0  0  0  0  0  0  0  0  0
   34.7120   29.5100   32.3590 C   0  0  0  0  0  0  0  0  0  0  0  0
   34.7530   30.5850   31.5160 C   0  0  0  0  0  0  0  0  0  0  0  0
   33.5910   31.3290   31.2380 C   0  0  0  0  0  0  0  0  0  0  0  0
   32.4370   30.8890   31.8710 N   0  0  0  0  0  0  0  0  0  0  0  0
   32.4330   29.8140   32.7030 C   0  0  0  0  0  0  0  0  0  0  0  0
   33.5920   29.1260   32.9400 N   0  0  0  0  0  0  0  0  0  0  0  0
   35.5570   31.0380   30.9610 H   0  0  0  0  0  0  0  0  0  0  0  0
   33.4820   32.1890   30.6010 H   0  0  0  0  0  0  0  0  0  0  0  0
   31.4970   29.5260   33.1630 H   0  0  0  0  0  0  0  0  0  0  0  0
  1  4  1  0  0  0  0
  1  3  1  0  0  0  0
  1  2  1  0  0  0  0
  4  8  2  0  0  0  0
  5  6  2  0  0  0  0
  5  4  1  0  0  0  0
  6  7  1  0  0  0  0
  7  8  1  0  0  0  0
  7 11  1  0  0  0  0
  9  5  1  0  0  0  0
 10  6  1  0  0  0  0
 11 18  1  0  0  0  0
 12 11  2  0  0  0  0
 12 14  1  0  0  0  0
 13 12  1  0  0  0  0
 14 16  2  0  0  0  0
 15 14  1  0  0  0  0
 16 17  1  0  0  0  0
 18 17  2  0  0  0  0
 19  1  1  0  0  0  0
 20 19  1  0  0  0  0
 21 19  1  0  0  0  0
 22 19  1  0  0  0  0
 22 27  1  0  0  0  0
 23 22  2  0  0  0  0
 24 23  1  0  0  0  0
 24 25  2  0  0  0  0
 25 26  1  0  0  0  0
 26 27  2  0  0  0  0
 26 30  1  0  0  0  0
 28 23  1  0  0  0  0
 29 24  1  0  0  0  0
M  END
>  <minimizedAffinity>
-4.73932409

$$$$

 OpenBabel03272500243D

 30 32  0  0  0  0  0  0  0  0999 V2000
   38.0710   24.1730   33.6180 C   0  0  0  0  0  0  0  0  0  0  0  0
   37.4060   23.4460   34.1540 H   0  0  0  0  0  0  0  0  0  0  0  0
   38.4490   23.5850   32.7580 H   0  0  0  0  0  0  0  0  0  0  0  0
   37.3020   25.2410   32.9530 C   0  0  0  0  0  0  0  0  0  0  0  0
   36.4370   24.9160   31.9050 C   0  0  0  0  0  0  0  0  0  0  0  0
   35.8660   26.0750   31.4560 C   0  0  0  0  0  0  0  0  0  0  0  0
   36.3640   27.0640   32.2000 N   0  0  0  0  0  0  0  0  0  0  0  0
   37.2040   26.5570   33.0720 N   0  0  0  0  0  0  0  0  0  0  0  0
   36.1830   23.9710   31.4490 H   0  0  0  0  0  0  0  0  0  0  0  0
   35.1540   26.3500   30.6900 H   0  0  0  0  0  0  0  0  0  0  0  0
   36.1330   28.4740   32.1830 C   0  0  0  0  0  0  0  0  0  0  0  0
   35.7630   29.2370   33.2720 C   0  0  0  0  0  0  0  0  0  0  0  0
   35.6390   28.7190   34.2030 H   0  0  0  0  0  0  0  0  0  0  0  0
   35.5800   30.5940   33.0860 C   0  0  0  0  0  0  0  0  0  0  0  0
   35.2870   31.2000   33.9430 H   0  0  0  0  0  0  0  0  0  0  0  0
   35.7560   31.2070   31.8480 C   0  0  0  0  0  3  0  0  0  0  0  0
   36.1290   30.3860   30.7960 C   0  0  0  0  0  3  0  0  0  0  0  0
   36.3060   29.0680   30.9820 N   0  0  0  0  0  0  0  0  0  0  0  0
   39.0580   24.6550   34.6020 C   0  0  0  0  0  0  0  0  0  0  0  0
   39.1180   25.7870   34.6380 H   0  0  0  0  0  0  0  0  0  0  0  0
   40.0810   24.3790   34.1980 H   0  0  0  0  0  0  0  0  0  0  0  0
   38.9850   24.1900   35.9600 C   0  0  0  0  0  0  0  0  0  0  0  0
   38.0050   24.6420   36.7990 C   0  0  0  0  0  0  0  0  0  0  0  0
   37.9290   24.1920   38.1290 C   0  0  0  0  0  0  0  0  0  0  0  0
   38.9020   23.2770   38.5060 N   0  0  0  0  0  0  0  0  0  0  0  0
   39.8630   22.8480   37.6450 C   0  0  0  0  0  0  0  0  0  0  0  0
   39.8920   23.3180   36.3590 N   0  0  0  0  0  0  0  0  0  0  0  0
   37.1960   25.3380   36.6550 H   0  0  0  0  0  0  0  0  0  0  0  0
   37.2180   24.4630   38.8900 H   0  0  0  0  0  0  0  0  0  0  0  0
   40.5910   22.1330   38.0040 H   0  0  0  0  0  0  0  0  0  0  0  0
  1  2  1  0  0  0  0
  1 19  1  0  0  0  0
  3  1  1  0  0  0  0
  4  8  2  0  0  0  0
  4  1  1  0  0  0  0
  5  4  1  0  0  0  0
  6  5  2  0  0  0  0
  6  7  1  0  0  0  0
  7  8  1  0  0  0  0
  9  5  1  0  0  0  0
 10  6  1  0  0  0  0
 11  7  1  0  0  0  0
 11 12  1  0  0  0  0
 12 13  1  0  0  0  0
 14 12  2  0  0  0  0
 14 15  1  0  0  0  0
 16 14  1  0  0  0  0
 17 18  1  0  0  0  0
 17 16  2  0  0  0  0
 18 11  2  0  0  0  0
 19 20  1  0  0  0  0
 19 22  1  0  0  0  0
 21 19  1  0  0  0  0
 22 27  2  0  0  0  0
 22 23  1  0  0  0  0
 23 24  2  0  0  0  0
 24 25  1  0  0  0  0
 24 29  1  0  0  0  0
 26 30  1  0  0  0  0
 26 25  2  0  0  0  0
 27 26  1  0  0  0  0
 28 23  1  0  0  0  0
M  END
>  <minimizedAffinity>
-4.70373821

$$$$
