
 OpenBabel03272509423D

 37 39  0  0  1  0  0  0  0  0999 V2000
   37.0090   30.9210   49.0180 C   0  0  0  0  0  0  0  0  0  0  0  0
   36.7260   31.8090   50.0590 C   0  0  0  0  0  0  0  0  0  0  0  0
   37.3330   33.0510   50.1450 C   0  0  0  0  0  0  0  0  0  0  0  0
   38.2560   33.4350   49.1610 C   0  0  0  0  0  0  0  0  0  0  0  0
   38.5180   32.5580   48.1550 C   0  0  0  0  0  0  0  0  0  0  0  0
   37.8950   31.3190   48.0970 C   0  0  0  0  0  0  0  0  0  0  0  0
   35.9970   31.4590   50.8010 H   0  0  0  0  0  0  0  0  0  0  0  0
   37.0150   33.6250   51.0040 H   0  0  0  0  0  0  0  0  0  0  0  0
   38.6710   34.4080   49.3080 H   0  0  0  0  0  0  0  0  0  0  0  0
   39.2540   32.9920   47.4710 H   0  0  0  0  0  0  0  0  0  0  0  0
   36.4020   29.6100   48.9500 C   0  0  2  0  0  0  0  0  0  0  0  0
   36.9420   29.0710   48.0800 H   0  0  0  0  0  0  0  0  0  0  0  0
   33.5900   30.1460   46.7100 C   0  0  0  0  0  0  0  0  0  0  0  0
   32.8900   28.9540   46.7610 C   0  0  0  0  0  0  0  0  0  0  0  0
   33.3440   27.9680   47.6180 C   0  0  0  0  0  0  0  0  0  0  0  0
   34.4650   28.2030   48.3820 N   0  0  0  0  0  0  0  0  0  0  0  0
   35.0900   29.3580   48.2870 C   0  0  0  0  0  0  0  0  0  0  0  0
   34.6600   30.3360   47.4570 N   0  0  0  0  0  0  0  0  0  0  0  0
   33.2330   30.9280   46.0340 H   0  0  0  0  0  0  0  0  0  0  0  0
   32.0180   28.7690   46.1660 H   0  0  0  0  0  0  0  0  0  0  0  0
   32.8640   27.0070   47.7290 H   0  0  0  0  0  0  0  0  0  0  0  0
   36.8070   28.8280   49.8880 O   0  0  0  0  0  0  0  0  0  0  0  0
   36.2480   28.1160   50.2740 H   0  0  0  0  0  0  0  0  0  0  0  0
   38.2890   30.4780   46.9910 C   0  0  0  0  0  3  0  0  0  0  0  0
   38.9470   30.9260   45.9160 C   0  0  0  0  0  3  0  0  0  0  0  0
   39.4410   30.1520   44.7550 C   0  0  0  0  0  0  0  0  0  0  0  0
   40.5420   30.0630   44.8600 H   0  0  0  0  0  0  0  0  0  0  0  0
   38.9240   29.1770   44.7350 H   0  0  0  0  0  0  0  0  0  0  0  0
   39.1180   31.0670   43.2400 S   0  0  0  0  0  0  0  0  0  0  0  0
   37.3770   31.4900   43.0980 C   0  0  0  0  0  0  0  0  0  0  0  0
   36.5680   30.3820   43.3740 C   0  0  0  0  0  0  0  0  0  0  0  0
   36.8910   29.3920   43.6340 H   0  0  0  0  0  0  0  0  0  0  0  0
   35.1870   30.5520   43.3090 C   0  0  0  0  0  0  0  0  0  0  0  0
   34.5080   29.7320   43.5120 H   0  0  0  0  0  0  0  0  0  0  0  0
   34.6850   31.8060   42.9770 C   0  0  0  0  0  3  0  0  0  0  0  0
   35.5470   32.8470   42.7200 C   0  0  0  0  0  3  0  0  0  0  0  0
   36.8740   32.6870   42.7800 N   0  0  0  0  0  0  0  0  0  0  0  0
  1  2  1  0  0  0  0
  2  3  2  0  0  0  0
  2  7  1  0  0  0  0
  3  8  1  0  0  0  0
  4  9  1  0  0  0  0
  4  3  1  0  0  0  0
  5  4  2  0  0  0  0
  6  5  1  0  0  0  0
  6  1  2  0  0  0  0
 10  5  1  0  0  0  0
 11 12  1  6  0  0  0
 11  1  1  0  0  0  0
 11 22  1  0  0  0  0
 13 14  2  0  0  0  0
 13 18  1  0  0  0  0
 14 15  1  0  0  0  0
 15 21  1  0  0  0  0
 15 16  2  0  0  0  0
 17 16  1  0  0  0  0
 17 11  1  0  0  0  0
 18 17  2  0  0  0  0
 19 13  1  0  0  0  0
 20 14  1  0  0  0  0
 22 23  1  0  0  0  0
 24  6  1  0  0  0  0
 25 24  2  0  0  0  0
 26 27  1  0  0  0  0
 26 25  1  0  0  0  0
 28 26  1  0  0  0  0
 29 26  1  0  0  0  0
 30 29  1  0  0  0  0
 30 31  1  0  0  0  0
 31 32  1  0  0  0  0
 33 31  2  0  0  0  0
 33 34  1  0  0  0  0
 35 33  1  0  0  0  0
 36 37  1  0  0  0  0
 36 35  2  0  0  0  0
 37 30  2  0  0  0  0
M  END
>  <minimizedAffinity>
-5.58194685

>  <minimizedRMSD>
0.363995433

$$$$
