
 OpenBabel03262521533D

 22 23  0  0  0  0  0  0  0  0999 V2000
   39.3700   23.5600   33.0660 C   0  0  0  0  0  0  0  0  0  0  0  0
   39.2780   23.3730   31.9770 H   0  0  0  0  0  0  0  0  0  0  0  0
   40.4640   23.7050   33.2540 H   0  0  0  0  0  0  0  0  0  0  0  0
   38.4950   25.0590   33.5720 S   0  0  0  0  0  0  0  0  0  0  0  0
   37.1160   25.2900   32.4700 C   0  0  0  0  0  0  0  0  0  0  0  0
   36.5610   24.1110   31.9790 C   0  0  0  0  0  0  0  0  0  0  0  0
   35.4700   24.2090   31.1010 C   0  0  0  0  0  0  0  0  0  0  0  0
   35.0030   25.4710   30.7680 N   0  0  0  0  0  0  0  0  0  0  0  0
   35.6040   26.5720   31.2920 C   0  0  0  0  0  0  0  0  0  0  0  0
   36.6250   26.4790   32.1140 N   0  0  0  0  0  0  0  0  0  0  0  0
   36.8940   23.1060   32.2130 H   0  0  0  0  0  0  0  0  0  0  0  0
   35.0160   23.3110   30.7040 H   0  0  0  0  0  0  0  0  0  0  0  0
   35.1830   27.5240   30.9850 H   0  0  0  0  0  0  0  0  0  0  0  0
   38.8680   22.1090   34.0560 S   0  0  0  0  0  0  0  0  0  0  0  0
   38.9870   22.5340   35.7860 C   0  0  0  0  0  0  0  0  0  0  0  0
   40.0810   22.4370   36.6200 C   0  0  0  0  0  0  0  0  0  0  0  0
   40.9540   22.0530   36.1240 H   0  0  0  0  0  0  0  0  0  0  0  0
   39.9790   22.8160   37.9330 C   0  0  0  0  0  0  0  0  0  0  0  0
   40.8620   22.7240   38.5500 H   0  0  0  0  0  0  0  0  0  0  0  0
   38.7850   23.3050   38.4680 C   0  0  0  0  0  3  0  0  0  0  0  0
   37.7270   23.3800   37.5940 C   0  0  0  0  0  3  0  0  0  0  0  0
   37.8120   23.0100   36.2910 N   0  0  0  0  0  0  0  0  0  0  0  0
  1  3  1  0  0  0  0
  1  4  1  0  0  0  0
  1 14  1  0  0  0  0
  2  1  1  0  0  0  0
  5  4  1  0  0  0  0
  6 11  1  0  0  0  0
  6  5  2  0  0  0  0
  7  6  1  0  0  0  0
  8  7  2  0  0  0  0
  8  9  1  0  0  0  0
  9 10  2  0  0  0  0
 10  5  1  0  0  0  0
 12  7  1  0  0  0  0
 13  9  1  0  0  0  0
 14 15  1  0  0  0  0
 15 22  2  0  0  0  0
 15 16  1  0  0  0  0
 16 18  2  0  0  0  0
 17 16  1  0  0  0  0
 18 20  1  0  0  0  0
 18 19  1  0  0  0  0
 21 20  2  0  0  0  0
 22 21  1  0  0  0  0
M  END
>  <minimizedAffinity>
-4.09625578

$$$$

 OpenBabel03262521533D

 22 23  0  0  0  0  0  0  0  0999 V2000
   35.5430   29.3600   32.1290 C   0  0  0  0  0  0  0  0  0  0  0  0
   35.3900   29.7640   31.1080 H   0  0  0  0  0  0  0  0  0  0  0  0
   36.3540   29.9850   32.5790 H   0  0  0  0  0  0  0  0  0  0  0  0
   34.0590   29.5160   33.1490 S   0  0  0  0  0  0  0  0  0  0  0  0
   34.4820   30.4710   34.5920 C   0  0  0  0  0  0  0  0  0  0  0  0
   33.4200   30.7160   35.4590 C   0  0  0  0  0  0  0  0  0  0  0  0
   33.6720   31.4640   36.6190 C   0  0  0  0  0  0  0  0  0  0  0  0
   34.9630   31.9200   36.8430 N   0  0  0  0  0  0  0  0  0  0  0  0
   35.9420   31.6360   35.9450 C   0  0  0  0  0  0  0  0  0  0  0  0
   35.7050   30.9360   34.8590 N   0  0  0  0  0  0  0  0  0  0  0  0
   32.3980   30.3800   35.3230 H   0  0  0  0  0  0  0  0  0  0  0  0
   32.8680   31.6710   37.3130 H   0  0  0  0  0  0  0  0  0  0  0  0
   36.9250   32.0260   36.1880 H   0  0  0  0  0  0  0  0  0  0  0  0
   36.1730   27.6450   32.0990 S   0  0  0  0  0  0  0  0  0  0  0  0
   37.3360   27.4450   33.4400 C   0  0  0  0  0  0  0  0  0  0  0  0
   37.1170   27.5880   34.7930 C   0  0  0  0  0  0  0  0  0  0  0  0
   36.1020   27.8530   35.0290 H   0  0  0  0  0  0  0  0  0  0  0  0
   38.1430   27.3910   35.6800 C   0  0  0  0  0  0  0  0  0  0  0  0
   37.9260   27.5130   36.7320 H   0  0  0  0  0  0  0  0  0  0  0  0
   39.4280   27.0470   35.2530 C   0  0  0  0  0  3  0  0  0  0  0  0
   39.5920   26.9190   33.8950 C   0  0  0  0  0  3  0  0  0  0  0  0
   38.5840   27.1090   33.0050 N   0  0  0  0  0  0  0  0  0  0  0  0
  1  3  1  0  0  0  0
  1  4  1  0  0  0  0
  2  1  1  0  0  0  0
  4  5  1  0  0  0  0
  5 10  2  0  0  0  0
  5  6  1  0  0  0  0
  6  7  2  0  0  0  0
  7  8  1  0  0  0  0
  7 12  1  0  0  0  0
  9 13  1  0  0  0  0
  9  8  2  0  0  0  0
 10  9  1  0  0  0  0
 11  6  1  0  0  0  0
 14  1  1  0  0  0  0
 14 15  1  0  0  0  0
 15 16  1  0  0  0  0
 16 17  1  0  0  0  0
 16 18  2  0  0  0  0
 18 19  1  0  0  0  0
 20 18  1  0  0  0  0
 21 20  2  0  0  0  0
 22 15  2  0  0  0  0
 22 21  1  0  0  0  0
M  END
>  <minimizedAffinity>
-4.06789398

$$$$

 OpenBabel03262521533D

 22 23  0  0  0  0  0  0  0  0999 V2000
   37.0360   27.4770   34.7800 C   0  0  0  0  0  0  0  0  0  0  0  0
   36.1720   26.8230   35.0100 H   0  0  0  0  0  0  0  0  0  0  0  0
   36.7150   28.5100   35.0680 H   0  0  0  0  0  0  0  0  0  0  0  0
   38.4970   27.0370   35.7500 S   0  0  0  0  0  0  0  0  0  0  0  0
   38.5160   25.2670   35.9430 C   0  0  0  0  0  0  0  0  0  0  0  0
   39.5310   24.6170   35.2440 C   0  0  0  0  0  0  0  0  0  0  0  0
   39.6120   23.2200   35.3440 C   0  0  0  0  0  0  0  0  0  0  0  0
   38.6810   22.5590   36.1310 N   0  0  0  0  0  0  0  0  0  0  0  0
   37.7230   23.2700   36.7800 C   0  0  0  0  0  0  0  0  0  0  0  0
   37.6470   24.5790   36.6860 N   0  0  0  0  0  0  0  0  0  0  0  0
   40.2780   25.0940   34.6190 H   0  0  0  0  0  0  0  0  0  0  0  0
   40.3900   22.6860   34.8130 H   0  0  0  0  0  0  0  0  0  0  0  0
   37.0300   22.6850   37.3770 H   0  0  0  0  0  0  0  0  0  0  0  0
   37.3960   27.5320   32.9900 S   0  0  0  0  0  0  0  0  0  0  0  0
   36.5950   26.1410   32.2080 C   0  0  0  0  0  0  0  0  0  0  0  0
   35.5430   26.1450   31.3180 C   0  0  0  0  0  0  0  0  0  0  0  0
   35.1900   27.1350   31.0910 H   0  0  0  0  0  0  0  0  0  0  0  0
   35.0600   24.9640   30.8190 C   0  0  0  0  0  0  0  0  0  0  0  0
   34.2330   25.0150   30.1230 H   0  0  0  0  0  0  0  0  0  0  0  0
   35.6030   23.7320   31.1890 C   0  0  0  0  0  3  0  0  0  0  0  0
   36.6490   23.7840   32.0790 C   0  0  0  0  0  3  0  0  0  0  0  0
   37.1400   24.9460   32.5800 N   0  0  0  0  0  0  0  0  0  0  0  0
  1  2  1  0  0  0  0
  1  3  1  0  0  0  0
  1  4  1  0  0  0  0
  4  5  1  0  0  0  0
  5 10  1  0  0  0  0
  6  7  1  0  0  0  0
  6  5  2  0  0  0  0
  7  8  2  0  0  0  0
  8  9  1  0  0  0  0
  9 13  1  0  0  0  0
 10  9  2  0  0  0  0
 11  6  1  0  0  0  0
 12  7  1  0  0  0  0
 14  1  1  0  0  0  0
 15 22  1  0  0  0  0
 15 14  1  0  0  0  0
 16 15  2  0  0  0  0
 17 16  1  0  0  0  0
 18 20  2  0  0  0  0
 18 16  1  0  0  0  0
 19 18  1  0  0  0  0
 20 21  1  0  0  0  0
 21 22  2  0  0  0  0
M  END
>  <minimizedAffinity>
-4.0641799

$$$$

 OpenBabel03262521533D

 22 23  0  0  0  0  0  0  0  0999 V2000
   38.8650   22.7420   32.9910 C   0  0  0  0  0  0  0  0  0  0  0  0
   39.9240   22.8160   33.3080 H   0  0  0  0  0  0  0  0  0  0  0  0
   38.8620   22.0450   32.1150 H   0  0  0  0  0  0  0  0  0  0  0  0
   37.8160   22.0420   34.2870 S   0  0  0  0  0  0  0  0  0  0  0  0
   38.5200   22.4830   35.8620 C   0  0  0  0  0  0  0  0  0  0  0  0
   37.7140   23.3000   36.6510 C   0  0  0  0  0  0  0  0  0  0  0  0
   38.2000   23.6930   37.9070 C   0  0  0  0  0  0  0  0  0  0  0  0
   39.4540   23.2490   38.2990 N   0  0  0  0  0  0  0  0  0  0  0  0
   40.1760   22.4540   37.4670 C   0  0  0  0  0  0  0  0  0  0  0  0
   39.7210   22.0860   36.2900 N   0  0  0  0  0  0  0  0  0  0  0  0
   36.7300   23.6690   36.3850 H   0  0  0  0  0  0  0  0  0  0  0  0
   37.5970   24.3270   38.5440 H   0  0  0  0  0  0  0  0  0  0  0  0
   41.1470   22.1470   37.8410 H   0  0  0  0  0  0  0  0  0  0  0  0
   38.2200   24.3380   32.3780 S   0  0  0  0  0  0  0  0  0  0  0  0
   38.3420   25.5400   33.6930 C   0  0  0  0  0  0  0  0  0  0  0  0
   39.4410   25.8670   34.4570 C   0  0  0  0  0  0  0  0  0  0  0  0
   40.3180   25.3030   34.1950 H   0  0  0  0  0  0  0  0  0  0  0  0
   39.3410   26.8270   35.4300 C   0  0  0  0  0  0  0  0  0  0  0  0
   40.2280   27.0520   36.0050 H   0  0  0  0  0  0  0  0  0  0  0  0
   38.1420   27.4980   35.6810 C   0  0  0  0  0  3  0  0  0  0  0  0
   37.0780   27.1340   34.8910 C   0  0  0  0  0  3  0  0  0  0  0  0
   37.1620   26.1860   33.9230 N   0  0  0  0  0  0  0  0  0  0  0  0
  1  2  1  0  0  0  0
  1  4  1  0  0  0  0
  3  1  1  0  0  0  0
  4  5  1  0  0  0  0
  5 10  2  0  0  0  0
  5  6  1  0  0  0  0
  6  7  2  0  0  0  0
  7  8  1  0  0  0  0
  7 12  1  0  0  0  0
  9 13  1  0  0  0  0
  9  8  2  0  0  0  0
 10  9  1  0  0  0  0
 11  6  1  0  0  0  0
 14  1  1  0  0  0  0
 14 15  1  0  0  0  0
 15 22  2  0  0  0  0
 15 16  1  0  0  0  0
 16 18  2  0  0  0  0
 17 16  1  0  0  0  0
 18 20  1  0  0  0  0
 18 19  1  0  0  0  0
 21 20  2  0  0  0  0
 22 21  1  0  0  0  0
M  END
>  <minimizedAffinity>
-4.03650951

$$$$

 OpenBabel03262521533D

 22 23  0  0  0  0  0  0  0  0999 V2000
   35.8420   25.6260   31.3480 C   0  0  0  0  0  0  0  0  0  0  0  0
   35.0460   25.6630   30.5780 H   0  0  0  0  0  0  0  0  0  0  0  0
   35.3190   25.3930   32.3090 H   0  0  0  0  0  0  0  0  0  0  0  0
   37.0470   24.3200   31.0160 S   0  0  0  0  0  0  0  0  0  0  0  0
   36.6750   22.9440   32.0850 C   0  0  0  0  0  0  0  0  0  0  0  0
   35.5280   22.2340   31.7400 C   0  0  0  0  0  0  0  0  0  0  0  0
   35.1660   21.1360   32.5350 C   0  0  0  0  0  0  0  0  0  0  0  0
   35.9670   20.8150   33.6210 N   0  0  0  0  0  0  0  0  0  0  0  0
   37.0700   21.5620   33.8870 C   0  0  0  0  0  0  0  0  0  0  0  0
   37.4080   22.5900   33.1420 N   0  0  0  0  0  0  0  0  0  0  0  0
   34.8740   22.4490   30.9010 H   0  0  0  0  0  0  0  0  0  0  0  0
   34.2810   20.5630   32.2930 H   0  0  0  0  0  0  0  0  0  0  0  0
   37.6470   21.2500   34.7520 H   0  0  0  0  0  0  0  0  0  0  0  0
   36.6440   27.2510   31.5820 S   0  0  0  0  0  0  0  0  0  0  0  0
   37.5180   27.2330   33.1400 C   0  0  0  0  0  0  0  0  0  0  0  0
   37.0120   27.4150   34.4090 C   0  0  0  0  0  0  0  0  0  0  0  0
   35.9510   27.5870   34.4180 H   0  0  0  0  0  0  0  0  0  0  0  0
   37.8470   27.3650   35.4950 C   0  0  0  0  0  0  0  0  0  0  0  0
   37.4070   27.5130   36.4710 H   0  0  0  0  0  0  0  0  0  0  0  0
   39.2170   27.1330   35.3590 C   0  0  0  0  0  3  0  0  0  0  0  0
   39.6690   26.9580   34.0730 C   0  0  0  0  0  3  0  0  0  0  0  0
   38.8540   27.0040   32.9880 N   0  0  0  0  0  0  0  0  0  0  0  0
  1 14  1  0  0  0  0
  1  3  1  0  0  0  0
  2  1  1  0  0  0  0
  4  1  1  0  0  0  0
  4  5  1  0  0  0  0
  5 10  1  0  0  0  0
  6  5  2  0  0  0  0
  6  7  1  0  0  0  0
  7  8  2  0  0  0  0
  8  9  1  0  0  0  0
  9 13  1  0  0  0  0
 10  9  2  0  0  0  0
 11  6  1  0  0  0  0
 12  7  1  0  0  0  0
 14 15  1  0  0  0  0
 15 16  1  0  0  0  0
 16 17  1  0  0  0  0
 16 18  2  0  0  0  0
 18 19  1  0  0  0  0
 20 18  1  0  0  0  0
 21 20  2  0  0  0  0
 22 15  2  0  0  0  0
 22 21  1  0  0  0  0
M  END
>  <minimizedAffinity>
-4.02306747

$$$$

 OpenBabel03262521533D

 22 23  0  0  0  0  0  0  0  0999 V2000
   40.8280   23.3860   34.0010 C   0  0  0  0  0  0  0  0  0  0  0  0
   41.4880   23.0960   33.1580 H   0  0  0  0  0  0  0  0  0  0  0  0
   39.7910   23.3910   33.5800 H   0  0  0  0  0  0  0  0  0  0  0  0
   40.8940   22.1910   35.3560 S   0  0  0  0  0  0  0  0  0  0  0  0
   39.6640   22.6530   36.5570 C   0  0  0  0  0  0  0  0  0  0  0  0
   38.3600   22.6950   36.0680 C   0  0  0  0  0  0  0  0  0  0  0  0
   37.3330   23.0530   36.9540 C   0  0  0  0  0  0  0  0  0  0  0  0
   37.6660   23.3470   38.2680 N   0  0  0  0  0  0  0  0  0  0  0  0
   38.9650   23.2830   38.6630 C   0  0  0  0  0  0  0  0  0  0  0  0
   39.9260   22.9470   37.8330 N   0  0  0  0  0  0  0  0  0  0  0  0
   38.0550   22.4730   35.0510 H   0  0  0  0  0  0  0  0  0  0  0  0
   36.3090   23.0940   36.6050 H   0  0  0  0  0  0  0  0  0  0  0  0
   39.1490   23.5260   39.7050 H   0  0  0  0  0  0  0  0  0  0  0  0
   41.1580   25.0880   34.5750 S   0  0  0  0  0  0  0  0  0  0  0  0
   39.6000   25.9480   34.7250 C   0  0  0  0  0  0  0  0  0  0  0  0
   39.2670   26.9770   35.5800 C   0  0  0  0  0  0  0  0  0  0  0  0
   40.0790   27.2700   36.2210 H   0  0  0  0  0  0  0  0  0  0  0  0
   38.0070   27.5150   35.5490 C   0  0  0  0  0  0  0  0  0  0  0  0
   37.7900   28.3210   36.2370 H   0  0  0  0  0  0  0  0  0  0  0  0
   37.0300   27.0500   34.6670 C   0  0  0  0  0  3  0  0  0  0  0  0
   37.4140   26.0230   33.8380 C   0  0  0  0  0  3  0  0  0  0  0  0
   38.6580   25.4800   33.8560 N   0  0  0  0  0  0  0  0  0  0  0  0
  1 14  1  0  0  0  0
  1  4  1  0  0  0  0
  2  1  1  0  0  0  0
  3  1  1  0  0  0  0
  4  5  1  0  0  0  0
  5 10  1  0  0  0  0
  6  5  2  0  0  0  0
  6  7  1  0  0  0  0
  7  8  2  0  0  0  0
  8  9  1  0  0  0  0
  9 13  1  0  0  0  0
 10  9  2  0  0  0  0
 11  6  1  0  0  0  0
 12  7  1  0  0  0  0
 14 15  1  0  0  0  0
 15 16  1  0  0  0  0
 16 17  1  0  0  0  0
 18 16  2  0  0  0  0
 18 19  1  0  0  0  0
 20 18  1  0  0  0  0
 21 22  1  0  0  0  0
 21 20  2  0  0  0  0
 22 15  2  0  0  0  0
M  END
>  <minimizedAffinity>
-4.02039957

$$$$

 OpenBabel03262521533D

 22 23  0  0  0  0  0  0  0  0999 V2000
   37.0740   27.4570   34.7220 C   0  0  0  0  0  0  0  0  0  0  0  0
   36.2030   26.8270   34.9930 H   0  0  0  0  0  0  0  0  0  0  0  0
   36.7420   28.5130   34.8860 H   0  0  0  0  0  0  0  0  0  0  0  0
   38.5020   27.1320   35.7820 S   0  0  0  0  0  0  0  0  0  0  0  0
   38.7160   25.3670   35.8890 C   0  0  0  0  0  0  0  0  0  0  0  0
   37.7730   24.7140   36.6790 C   0  0  0  0  0  0  0  0  0  0  0  0
   37.8750   23.3210   36.8150 C   0  0  0  0  0  0  0  0  0  0  0  0
   38.9070   22.6670   36.1580 N   0  0  0  0  0  0  0  0  0  0  0  0
   39.7860   23.3820   35.4070 C   0  0  0  0  0  0  0  0  0  0  0  0
   39.6900   24.6860   35.2810 N   0  0  0  0  0  0  0  0  0  0  0  0
   36.9520   25.1840   37.2090 H   0  0  0  0  0  0  0  0  0  0  0  0
   37.1570   22.7840   37.4210 H   0  0  0  0  0  0  0  0  0  0  0  0
   40.5660   22.8020   34.9240 H   0  0  0  0  0  0  0  0  0  0  0  0
   37.4940   27.3200   32.9500 S   0  0  0  0  0  0  0  0  0  0  0  0
   36.8400   25.7790   32.3300 C   0  0  0  0  0  0  0  0  0  0  0  0
   37.2950   24.4990   32.5610 C   0  0  0  0  0  0  0  0  0  0  0  0
   38.1570   24.4690   33.2030 H   0  0  0  0  0  0  0  0  0  0  0  0
   36.6550   23.4290   31.9920 C   0  0  0  0  0  0  0  0  0  0  0  0
   37.0470   22.4420   32.2010 H   0  0  0  0  0  0  0  0  0  0  0  0
   35.5380   23.5910   31.1710 C   0  0  0  0  0  3  0  0  0  0  0  0
   35.1260   24.8870   30.9730 C   0  0  0  0  0  3  0  0  0  0  0  0
   35.7490   25.9570   31.5300 N   0  0  0  0  0  0  0  0  0  0  0  0
  1  3  1  0  0  0  0
  1  2  1  0  0  0  0
  1  4  1  0  0  0  0
  4  5  1  0  0  0  0
  5  6  1  0  0  0  0
  6  7  2  0  0  0  0
  6 11  1  0  0  0  0
  7 12  1  0  0  0  0
  8  7  1  0  0  0  0
  9  8  2  0  0  0  0
 10  9  1  0  0  0  0
 10  5  2  0  0  0  0
 13  9  1  0  0  0  0
 14  1  1  0  0  0  0
 15 16  1  0  0  0  0
 15 14  1  0  0  0  0
 16 17  1  0  0  0  0
 18 19  1  0  0  0  0
 18 16  2  0  0  0  0
 20 18  1  0  0  0  0
 21 20  2  0  0  0  0
 21 22  1  0  0  0  0
 22 15  2  0  0  0  0
M  END
>  <minimizedAffinity>
-3.97220612

$$$$

 OpenBabel03262521533D

 22 23  0  0  0  0  0  0  0  0999 V2000
   37.8020   24.6500   33.4520 C   0  0  0  0  0  0  0  0  0  0  0  0
   37.0070   24.3890   34.1790 H   0  0  0  0  0  0  0  0  0  0  0  0
   37.6280   25.7230   33.1900 H   0  0  0  0  0  0  0  0  0  0  0  0
   39.4540   24.4910   34.1690 S   0  0  0  0  0  0  0  0  0  0  0  0
   39.2710   23.9770   35.8640 C   0  0  0  0  0  0  0  0  0  0  0  0
   38.1960   24.5560   36.5340 C   0  0  0  0  0  0  0  0  0  0  0  0
   37.9850   24.2030   37.8760 C   0  0  0  0  0  0  0  0  0  0  0  0
   38.8560   23.2990   38.4650 N   0  0  0  0  0  0  0  0  0  0  0  0
   39.8820   22.7810   37.7390 C   0  0  0  0  0  0  0  0  0  0  0  0
   40.0780   23.1120   36.4830 N   0  0  0  0  0  0  0  0  0  0  0  0
   37.4920   25.2660   36.1130 H   0  0  0  0  0  0  0  0  0  0  0  0
   37.1580   24.6350   38.4240 H   0  0  0  0  0  0  0  0  0  0  0  0
   40.5210   22.0810   38.2670 H   0  0  0  0  0  0  0  0  0  0  0  0
   37.6400   23.7090   31.8940 S   0  0  0  0  0  0  0  0  0  0  0  0
   36.6520   22.2560   32.2100 C   0  0  0  0  0  0  0  0  0  0  0  0
   35.8450   21.5610   31.3350 C   0  0  0  0  0  0  0  0  0  0  0  0
   35.8400   21.9800   30.3450 H   0  0  0  0  0  0  0  0  0  0  0  0
   35.1560   20.4570   31.7650 C   0  0  0  0  0  0  0  0  0  0  0  0
   34.5360   19.9420   31.0440 H   0  0  0  0  0  0  0  0  0  0  0  0
   35.2420   20.0030   33.0830 C   0  0  0  0  0  3  0  0  0  0  0  0
   36.0590   20.7320   33.9130 C   0  0  0  0  0  3  0  0  0  0  0  0
   36.7490   21.8270   33.5010 N   0  0  0  0  0  0  0  0  0  0  0  0
  1  4  1  0  0  0  0
  1  2  1  0  0  0  0
  3  1  1  0  0  0  0
  4  5  1  0  0  0  0
  5 10  2  0  0  0  0
  5  6  1  0  0  0  0
  6  7  2  0  0  0  0
  7 12  1  0  0  0  0
  7  8  1  0  0  0  0
  9 13  1  0  0  0  0
  9  8  2  0  0  0  0
 10  9  1  0  0  0  0
 11  6  1  0  0  0  0
 14 15  1  0  0  0  0
 14  1  1  0  0  0  0
 15 22  1  0  0  0  0
 16 18  1  0  0  0  0
 16 15  2  0  0  0  0
 17 16  1  0  0  0  0
 18 20  2  0  0  0  0
 19 18  1  0  0  0  0
 20 21  1  0  0  0  0
 22 21  2  0  0  0  0
M  END
>  <minimizedAffinity>
-3.97056222

$$$$

 OpenBabel03262521533D

 22 23  0  0  0  0  0  0  0  0999 V2000
   37.6930   21.9690   35.1400 C   0  0  0  0  0  0  0  0  0  0  0  0
   36.6860   22.3950   35.3240 H   0  0  0  0  0  0  0  0  0  0  0  0
   37.6180   20.8900   35.4260 H   0  0  0  0  0  0  0  0  0  0  0  0
   38.1650   22.0720   33.3980 S   0  0  0  0  0  0  0  0  0  0  0  0
   37.2370   23.3970   32.6540 C   0  0  0  0  0  0  0  0  0  0  0  0
   36.2410   22.9850   31.7710 C   0  0  0  0  0  0  0  0  0  0  0  0
   35.4660   23.9710   31.1420 C   0  0  0  0  0  0  0  0  0  0  0  0
   35.7300   25.3020   31.4290 N   0  0  0  0  0  0  0  0  0  0  0  0
   36.7220   25.6170   32.3030 C   0  0  0  0  0  0  0  0  0  0  0  0
   37.4470   24.6930   32.8920 N   0  0  0  0  0  0  0  0  0  0  0  0
   36.0010   21.9580   31.5190 H   0  0  0  0  0  0  0  0  0  0  0  0
   34.6840   23.6830   30.4520 H   0  0  0  0  0  0  0  0  0  0  0  0
   36.8710   26.6780   32.4770 H   0  0  0  0  0  0  0  0  0  0  0  0
   38.9570   22.7040   36.2350 S   0  0  0  0  0  0  0  0  0  0  0  0
   39.0120   24.4640   35.9360 C   0  0  0  0  0  0  0  0  0  0  0  0
   38.1460   25.4370   36.3860 C   0  0  0  0  0  0  0  0  0  0  0  0
   37.3500   25.0440   36.9930 H   0  0  0  0  0  0  0  0  0  0  0  0
   38.3530   26.7500   36.0500 C   0  0  0  0  0  0  0  0  0  0  0  0
   37.6490   27.4800   36.4250 H   0  0  0  0  0  0  0  0  0  0  0  0
   39.4290   27.1440   35.2510 C   0  0  0  0  0  3  0  0  0  0  0  0
   40.2600   26.1340   34.8300 C   0  0  0  0  0  3  0  0  0  0  0  0
   40.0690   24.8300   35.1560 N   0  0  0  0  0  0  0  0  0  0  0  0
  1  2  1  0  0  0  0
  1  3  1  0  0  0  0
  1 14  1  0  0  0  0
  4  1  1  0  0  0  0
  5 10  1  0  0  0  0
  5  4  1  0  0  0  0
  6  5  2  0  0  0  0
  7  8  2  0  0  0  0
  7  6  1  0  0  0  0
  8  9  1  0  0  0  0
  9 13  1  0  0  0  0
  9 10  2  0  0  0  0
 11  6  1  0  0  0  0
 12  7  1  0  0  0  0
 15 14  1  0  0  0  0
 15 16  1  0  0  0  0
 16 17  1  0  0  0  0
 18 16  2  0  0  0  0
 18 19  1  0  0  0  0
 20 18  1  0  0  0  0
 21 22  1  0  0  0  0
 21 20  2  0  0  0  0
 22 15  2  0  0  0  0
M  END
>  <minimizedAffinity>
-3.96064973

$$$$
