
 OpenBabel03272509423D

 37 39  0  0  1  0  0  0  0  0999 V2000
   37.0280   30.9220   49.0310 C   0  0  0  0  0  0  0  0  0  0  0  0
   36.7360   31.8050   50.0740 C   0  0  0  0  0  0  0  0  0  0  0  0
   37.3230   33.0570   50.1570 C   0  0  0  0  0  0  0  0  0  0  0  0
   38.2350   33.4550   49.1690 C   0  0  0  0  0  0  0  0  0  0  0  0
   38.5070   32.5820   48.1620 C   0  0  0  0  0  0  0  0  0  0  0  0
   37.9020   31.3340   48.1060 C   0  0  0  0  0  0  0  0  0  0  0  0
   36.0160   31.4440   50.8200 H   0  0  0  0  0  0  0  0  0  0  0  0
   37.0010   33.6260   51.0180 H   0  0  0  0  0  0  0  0  0  0  0  0
   38.6360   34.4350   49.3140 H   0  0  0  0  0  0  0  0  0  0  0  0
   39.2320   33.0280   47.4740 H   0  0  0  0  0  0  0  0  0  0  0  0
   36.4410   29.6010   48.9660 C   0  0  2  0  0  0  0  0  0  0  0  0
   36.9640   29.0820   48.0750 H   0  0  0  0  0  0  0  0  0  0  0  0
   33.5750   30.0910   46.7870 C   0  0  0  0  0  0  0  0  0  0  0  0
   32.8790   28.8990   46.8750 C   0  0  0  0  0  0  0  0  0  0  0  0
   33.3570   27.9290   47.7380 C   0  0  0  0  0  0  0  0  0  0  0  0
   34.4950   28.1800   48.4700 N   0  0  0  0  0  0  0  0  0  0  0  0
   35.1150   29.3350   48.3400 C   0  0  0  0  0  0  0  0  0  0  0  0
   34.6610   30.2970   47.5040 N   0  0  0  0  0  0  0  0  0  0  0  0
   33.1980   30.8600   46.1050 H   0  0  0  0  0  0  0  0  0  0  0  0
   31.9940   28.7000   46.3050 H   0  0  0  0  0  0  0  0  0  0  0  0
   32.8830   26.9690   47.8770 H   0  0  0  0  0  0  0  0  0  0  0  0
   36.8880   28.8170   49.8820 O   0  0  0  0  0  0  0  0  0  0  0  0
   36.3520   28.0910   50.2770 H   0  0  0  0  0  0  0  0  0  0  0  0
   38.3050   30.5000   46.9990 C   0  0  0  0  0  3  0  0  0  0  0  0
   39.0120   30.9430   45.9530 C   0  0  0  0  0  3  0  0  0  0  0  0
   39.5180   30.1730   44.7950 C   0  0  0  0  0  0  0  0  0  0  0  0
   40.5700   29.8970   45.0140 H   0  0  0  0  0  0  0  0  0  0  0  0
   38.8600   29.3000   44.6370 H   0  0  0  0  0  0  0  0  0  0  0  0
   39.5320   31.2230   43.3340 S   0  0  0  0  0  0  0  0  0  0  0  0
   37.8790   31.4060   42.6530 C   0  0  0  0  0  0  0  0  0  0  0  0
   37.2650   32.5680   43.1320 C   0  0  0  0  0  0  0  0  0  0  0  0
   37.6780   33.2850   43.8160 H   0  0  0  0  0  0  0  0  0  0  0  0
   35.9750   32.8540   42.6900 C   0  0  0  0  0  0  0  0  0  0  0  0
   35.4480   33.7390   43.0260 H   0  0  0  0  0  0  0  0  0  0  0  0
   35.3670   31.9750   41.8010 C   0  0  0  0  0  3  0  0  0  0  0  0
   36.0370   30.8520   41.3750 C   0  0  0  0  0  3  0  0  0  0  0  0
   37.2750   30.5740   41.7970 N   0  0  0  0  0  0  0  0  0  0  0  0
  1  2  1  0  0  0  0
  2  3  2  0  0  0  0
  2  7  1  0  0  0  0
  3  8  1  0  0  0  0
  4  9  1  0  0  0  0
  4  3  1  0  0  0  0
  5  4  2  0  0  0  0
  6  5  1  0  0  0  0
  6  1  2  0  0  0  0
 10  5  1  0  0  0  0
 11 12  1  6  0  0  0
 11  1  1  0  0  0  0
 11 22  1  0  0  0  0
 13 14  2  0  0  0  0
 13 18  1  0  0  0  0
 14 15  1  0  0  0  0
 15 21  1  0  0  0  0
 15 16  2  0  0  0  0
 17 16  1  0  0  0  0
 17 11  1  0  0  0  0
 18 17  2  0  0  0  0
 19 13  1  0  0  0  0
 20 14  1  0  0  0  0
 22 23  1  0  0  0  0
 24  6  1  0  0  0  0
 25 24  2  0  0  0  0
 26 27  1  0  0  0  0
 26 25  1  0  0  0  0
 28 26  1  0  0  0  0
 29 26  1  0  0  0  0
 30 31  1  0  0  0  0
 30 29  1  0  0  0  0
 31 32  1  0  0  0  0
 33 34  1  0  0  0  0
 33 31  2  0  0  0  0
 35 33  1  0  0  0  0
 36 37  1  0  0  0  0
 36 35  2  0  0  0  0
 37 30  2  0  0  0  0
M  END
>  <minimizedAffinity>
-5.54734325

>  <minimizedRMSD>
0.50665319

$$$$
