
 OpenBabel03272509423D

 37 39  0  0  1  0  0  0  0  0999 V2000
   37.0280   30.9200   49.0360 C   0  0  0  0  0  0  0  0  0  0  0  0
   36.7330   31.8140   50.0680 C   0  0  0  0  0  0  0  0  0  0  0  0
   37.3230   33.0650   50.1430 C   0  0  0  0  0  0  0  0  0  0  0  0
   38.2430   33.4510   49.1570 C   0  0  0  0  0  0  0  0  0  0  0  0
   38.5180   32.5670   48.1600 C   0  0  0  0  0  0  0  0  0  0  0  0
   37.9100   31.3200   48.1130 C   0  0  0  0  0  0  0  0  0  0  0  0
   36.0070   31.4620   50.8130 H   0  0  0  0  0  0  0  0  0  0  0  0
   36.9960   33.6420   50.9960 H   0  0  0  0  0  0  0  0  0  0  0  0
   38.6450   34.4300   49.2950 H   0  0  0  0  0  0  0  0  0  0  0  0
   39.2490   33.0040   47.4730 H   0  0  0  0  0  0  0  0  0  0  0  0
   36.4380   29.6000   48.9790 C   0  0  2  0  0  0  0  0  0  0  0  0
   36.9660   29.0710   48.0960 H   0  0  0  0  0  0  0  0  0  0  0  0
   33.5770   30.0890   46.7930 C   0  0  0  0  0  0  0  0  0  0  0  0
   32.8870   28.8930   46.8720 C   0  0  0  0  0  0  0  0  0  0  0  0
   33.3660   27.9210   47.7310 C   0  0  0  0  0  0  0  0  0  0  0  0
   34.5000   28.1730   48.4690 N   0  0  0  0  0  0  0  0  0  0  0  0
   35.1150   29.3310   48.3470 C   0  0  0  0  0  0  0  0  0  0  0  0
   34.6610   30.2960   47.5150 N   0  0  0  0  0  0  0  0  0  0  0  0
   33.2000   30.8600   46.1140 H   0  0  0  0  0  0  0  0  0  0  0  0
   32.0040   28.6940   46.2980 H   0  0  0  0  0  0  0  0  0  0  0  0
   32.8950   26.9580   47.8640 H   0  0  0  0  0  0  0  0  0  0  0  0
   36.8770   28.8230   49.9060 O   0  0  0  0  0  0  0  0  0  0  0  0
   36.3370   28.1020   50.3040 H   0  0  0  0  0  0  0  0  0  0  0  0
   38.3180   30.4740   47.0160 C   0  0  0  0  0  3  0  0  0  0  0  0
   38.9680   30.9200   45.9350 C   0  0  0  0  0  3  0  0  0  0  0  0
   39.4730   30.1430   44.7820 C   0  0  0  0  0  0  0  0  0  0  0  0
   40.5150   29.8420   45.0160 H   0  0  0  0  0  0  0  0  0  0  0  0
   38.7980   29.2850   44.6120 H   0  0  0  0  0  0  0  0  0  0  0  0
   39.5330   31.1950   43.3240 S   0  0  0  0  0  0  0  0  0  0  0  0
   37.8780   31.6250   42.7690 C   0  0  0  0  0  0  0  0  0  0  0  0
   37.4320   30.7320   41.7880 C   0  0  0  0  0  0  0  0  0  0  0  0
   37.9650   29.8920   41.3850 H   0  0  0  0  0  0  0  0  0  0  0  0
   36.1590   30.9280   41.2570 C   0  0  0  0  0  0  0  0  0  0  0  0
   35.7580   30.2710   40.4950 H   0  0  0  0  0  0  0  0  0  0  0  0
   35.4020   31.9970   41.7270 C   0  0  0  0  0  3  0  0  0  0  0  0
   35.9110   32.8320   42.6940 C   0  0  0  0  0  3  0  0  0  0  0  0
   37.1330   32.6450   43.2050 N   0  0  0  0  0  0  0  0  0  0  0  0
  1  2  1  0  0  0  0
  2  3  2  0  0  0  0
  2  7  1  0  0  0  0
  3  8  1  0  0  0  0
  4  9  1  0  0  0  0
  4  3  1  0  0  0  0
  5  4  2  0  0  0  0
  6  5  1  0  0  0  0
  6  1  2  0  0  0  0
 10  5  1  0  0  0  0
 11 12  1  6  0  0  0
 11  1  1  0  0  0  0
 11 22  1  0  0  0  0
 13 14  2  0  0  0  0
 13 18  1  0  0  0  0
 14 15  1  0  0  0  0
 15 21  1  0  0  0  0
 15 16  2  0  0  0  0
 17 16  1  0  0  0  0
 17 11  1  0  0  0  0
 18 17  2  0  0  0  0
 19 13  1  0  0  0  0
 20 14  1  0  0  0  0
 22 23  1  0  0  0  0
 24  6  1  0  0  0  0
 25 24  2  0  0  0  0
 26 27  1  0  0  0  0
 26 25  1  0  0  0  0
 28 26  1  0  0  0  0
 29 26  1  0  0  0  0
 30 37  1  0  0  0  0
 30 29  1  0  0  0  0
 31 30  2  0  0  0  0
 32 31  1  0  0  0  0
 33 35  2  0  0  0  0
 33 31  1  0  0  0  0
 34 33  1  0  0  0  0
 35 36  1  0  0  0  0
 36 37  2  0  0  0  0
M  END
>  <minimizedAffinity>
-5.5601573

>  <minimizedRMSD>
0.322920442

$$$$
