
 OpenBabel03272509423D

 37 39  0  0  1  0  0  0  0  0999 V2000
   37.0490   30.9190   49.0550 C   0  0  0  0  0  0  0  0  0  0  0  0
   36.7820   31.8110   50.0960 C   0  0  0  0  0  0  0  0  0  0  0  0
   37.3830   33.0570   50.1640 C   0  0  0  0  0  0  0  0  0  0  0  0
   38.2850   33.4400   49.1600 C   0  0  0  0  0  0  0  0  0  0  0  0
   38.5320   32.5580   48.1540 C   0  0  0  0  0  0  0  0  0  0  0  0
   37.9150   31.3160   48.1150 C   0  0  0  0  0  0  0  0  0  0  0  0
   36.0690   31.4610   50.8540 H   0  0  0  0  0  0  0  0  0  0  0  0
   37.0780   33.6340   51.0250 H   0  0  0  0  0  0  0  0  0  0  0  0
   38.6970   34.4160   49.2930 H   0  0  0  0  0  0  0  0  0  0  0  0
   39.2520   32.9930   47.4540 H   0  0  0  0  0  0  0  0  0  0  0  0
   36.4490   29.6030   49.0060 C   0  0  2  0  0  0  0  0  0  0  0  0
   36.9880   29.0570   48.1410 H   0  0  0  0  0  0  0  0  0  0  0  0
   33.5950   30.1320   46.8180 C   0  0  0  0  0  0  0  0  0  0  0  0
   32.9260   28.9210   46.8420 C   0  0  0  0  0  0  0  0  0  0  0  0
   33.4170   27.9230   47.6630 C   0  0  0  0  0  0  0  0  0  0  0  0
   34.5410   28.1640   48.4200 N   0  0  0  0  0  0  0  0  0  0  0  0
   35.1350   29.3370   48.3520 C   0  0  0  0  0  0  0  0  0  0  0  0
   34.6690   30.3280   47.5570 N   0  0  0  0  0  0  0  0  0  0  0  0
   33.2090   30.9240   46.1690 H   0  0  0  0  0  0  0  0  0  0  0  0
   32.0520   28.7300   46.2530 H   0  0  0  0  0  0  0  0  0  0  0  0
   32.9640   26.9460   47.7520 H   0  0  0  0  0  0  0  0  0  0  0  0
   36.8620   28.8360   49.9520 O   0  0  0  0  0  0  0  0  0  0  0  0
   36.3080   28.1260   50.3490 H   0  0  0  0  0  0  0  0  0  0  0  0
   38.2930   30.4710   47.0070 C   0  0  0  0  0  3  0  0  0  0  0  0
   38.9040   30.9200   45.9050 C   0  0  0  0  0  3  0  0  0  0  0  0
   39.3780   30.1450   44.7370 C   0  0  0  0  0  0  0  0  0  0  0  0
   40.4740   30.0140   44.8490 H   0  0  0  0  0  0  0  0  0  0  0  0
   38.8250   29.1890   44.7010 H   0  0  0  0  0  0  0  0  0  0  0  0
   39.1000   31.0900   43.2320 S   0  0  0  0  0  0  0  0  0  0  0  0
   37.3980   30.9370   42.6770 C   0  0  0  0  0  0  0  0  0  0  0  0
   36.5250   30.8070   43.7640 C   0  0  0  0  0  0  0  0  0  0  0  0
   36.7850   30.7910   44.8050 H   0  0  0  0  0  0  0  0  0  0  0  0
   35.1640   30.6830   43.4950 C   0  0  0  0  0  0  0  0  0  0  0  0
   34.4400   30.5790   44.2940 H   0  0  0  0  0  0  0  0  0  0  0  0
   34.7440   30.6940   42.1700 C   0  0  0  0  0  3  0  0  0  0  0  0
   35.6630   30.8260   41.1550 C   0  0  0  0  0  3  0  0  0  0  0  0
   36.9720   30.9450   41.4090 N   0  0  0  0  0  0  0  0  0  0  0  0
  1  2  1  0  0  0  0
  2  3  2  0  0  0  0
  2  7  1  0  0  0  0
  3  8  1  0  0  0  0
  4  9  1  0  0  0  0
  4  3  1  0  0  0  0
  5  4  2  0  0  0  0
  6  5  1  0  0  0  0
  6  1  2  0  0  0  0
 10  5  1  0  0  0  0
 11 12  1  6  0  0  0
 11  1  1  0  0  0  0
 11 22  1  0  0  0  0
 13 14  2  0  0  0  0
 13 18  1  0  0  0  0
 14 15  1  0  0  0  0
 15 21  1  0  0  0  0
 15 16  2  0  0  0  0
 17 16  1  0  0  0  0
 17 11  1  0  0  0  0
 18 17  2  0  0  0  0
 19 13  1  0  0  0  0
 20 14  1  0  0  0  0
 22 23  1  0  0  0  0
 24  6  1  0  0  0  0
 25 24  2  0  0  0  0
 26 27  1  0  0  0  0
 26 25  1  0  0  0  0
 28 26  1  0  0  0  0
 29 26  1  0  0  0  0
 30 29  1  0  0  0  0
 30 31  1  0  0  0  0
 31 32  1  0  0  0  0
 33 31  2  0  0  0  0
 33 34  1  0  0  0  0
 35 33  1  0  0  0  0
 36 37  1  0  0  0  0
 36 35  2  0  0  0  0
 37 30  2  0  0  0  0
M  END
>  <minimizedAffinity>
-5.38917589

>  <minimizedRMSD>
0.44966501

$$$$
