
 OpenBabel03272501563D

 30 32  0  0  0  0  0  0  0  0999 V2000
   34.3760   28.6680   47.8970 C   0  0  0  0  0  0  0  0  0  0  0  0
   34.8020   28.0150   47.1190 H   0  0  0  0  0  0  0  0  0  0  0  0
   34.5310   29.7380   47.6480 H   0  0  0  0  0  0  0  0  0  0  0  0
   32.8960   28.3680   47.8960 C   0  0  0  0  0  0  0  0  0  0  0  0
   32.2410   27.6060   48.8410 C   0  0  0  0  0  0  0  0  0  0  0  0
   30.8940   27.5340   48.5380 C   0  0  0  0  0  0  0  0  0  0  0  0
   30.7800   28.2720   47.3950 N   0  0  0  0  0  0  0  0  0  0  0  0
   31.9540   28.7570   47.0230 N   0  0  0  0  0  0  0  0  0  0  0  0
   32.6340   27.1030   49.7170 H   0  0  0  0  0  0  0  0  0  0  0  0
   30.1160   27.0280   49.0620 H   0  0  0  0  0  0  0  0  0  0  0  0
   29.5690   28.4950   46.6920 C   0  0  0  0  0  0  0  0  0  0  0  0
   28.5670   27.5520   46.6380 C   0  0  0  0  0  0  0  0  0  0  0  0
   28.7580   26.6240   47.1670 H   0  0  0  0  0  0  0  0  0  0  0  0
   27.3570   27.6550   45.9940 C   0  0  0  0  0  0  0  0  0  0  0  0
   26.6430   26.8460   46.0190 H   0  0  0  0  0  0  0  0  0  0  0  0
   27.1700   28.8720   45.3300 C   0  0  0  0  0  0  0  0  0  0  0  0
   28.1590   29.8330   45.3680 C   0  0  0  0  0  0  0  0  0  0  0  0
   29.3340   29.6470   46.0350 N   0  0  0  0  0  0  0  0  0  0  0  0
   34.8950   28.2530   49.2330 C   0  0  0  0  0  0  0  0  0  0  0  0
   35.2280   27.2090   49.2700 H   0  0  0  0  0  0  0  0  0  0  0  0
   34.1010   28.4430   50.0080 H   0  0  0  0  0  0  0  0  0  0  0  0
   37.2830   30.2100   51.2840 C   0  0  0  0  0  0  0  0  0  0  0  0
   38.0810   30.8290   50.3150 C   0  0  0  0  0  0  0  0  0  0  0  0
   37.7860   30.5630   48.9680 C   0  0  0  0  0  0  0  0  0  0  0  0
   36.7610   29.7350   48.6600 N   0  0  0  0  0  0  0  0  0  0  0  0
   36.0150   29.1600   49.6470 C   0  0  0  0  0  0  0  0  0  0  0  0
   36.2800   29.3980   50.9200 N   0  0  0  0  0  0  0  0  0  0  0  0
   37.4380   30.3560   52.3490 H   0  0  0  0  0  0  0  0  0  0  0  0
   38.8590   31.4580   50.6640 H   0  0  0  0  0  0  0  0  0  0  0  0
   38.4010   31.0400   48.2210 H   0  0  0  0  0  0  0  0  0  0  0  0
  1 19  1  0  0  0  0
  2  1  1  0  0  0  0
  3  1  1  0  0  0  0
  4  1  1  0  0  0  0
  4  5  1  0  0  0  0
  5  9  1  0  0  0  0
  6  5  2  0  0  0  0
  6 10  1  0  0  0  0
  7  6  1  0  0  0  0
  8  7  1  0  0  0  0
  8  4  2  0  0  0  0
 11  7  1  0  0  0  0
 12 11  1  0  0  0  0
 12 13  1  0  0  0  0
 14 15  1  0  0  0  0
 14 12  2  0  0  0  0
 16 17  2  0  0  0  0
 16 14  1  0  0  0  0
 17 18  1  0  0  0  0
 18 11  2  0  0  0  0
 19 20  1  0  0  0  0
 19 26  1  0  0  0  0
 19 21  1  0  0  0  0
 22 28  1  0  0  0  0
 23 29  1  0  0  0  0
 23 22  2  0  0  0  0
 24 23  1  0  0  0  0
 25 24  2  0  0  0  0
 25 26  1  0  0  0  0
 26 27  2  0  0  0  0
 27 22  1  0  0  0  0
 30 24  1  0  0  0  0
M  END
>  <minimizedAffinity>
-4.84131956

>  <minimizedRMSD>
0.931112349

$$$$
