
 OpenBabel03272505483D

 39 43  0  0  0  0  0  0  0  0999 V2000
   36.3190   30.3780   46.0780 C   0  0  0  0  0  0  0  0  0  0  0  0
   36.8830   30.7390   47.2550 C   0  0  0  0  0  0  0  0  0  0  0  0
   36.2350   30.4770   48.4570 C   0  0  0  0  0  0  0  0  0  0  0  0
   35.0010   29.8380   48.4050 C   0  0  0  0  0  0  0  0  0  0  0  0
   34.4280   29.4710   47.1980 C   0  0  0  0  0  0  0  0  0  0  0  0
   35.1240   29.7620   46.0730 N   0  0  0  0  0  0  0  0  0  0  0  0
   37.8430   31.2360   47.2980 H   0  0  0  0  0  0  0  0  0  0  0  0
   36.6740   30.7590   49.4010 H   0  0  0  0  0  0  0  0  0  0  0  0
   34.4590   29.6130   49.3190 H   0  0  0  0  0  0  0  0  0  0  0  0
   37.0150   30.6580   44.7610 C   0  0  0  0  0  0  0  0  0  0  0  0
   36.7300   29.7680   43.6130 C   0  0  0  0  0  0  0  0  0  0  0  0
   36.1580   31.1670   43.6330 C   0  0  0  0  0  0  0  0  0  0  0  0
   35.9890   28.9730   43.7610 H   0  0  0  0  0  0  0  0  0  0  0  0
   37.4970   29.6130   42.8390 H   0  0  0  0  0  0  0  0  0  0  0  0
   35.0860   31.3190   43.9000 H   0  0  0  0  0  0  0  0  0  0  0  0
   36.5870   31.9490   42.9820 H   0  0  0  0  0  0  0  0  0  0  0  0
   39.6450   33.2410   45.0070 C   0  0  0  0  0  0  0  0  0  0  0  0
   40.7780   32.4900   45.3380 C   0  0  0  0  0  0  0  0  0  0  0  0
   40.6290   31.0990   45.4750 C   0  0  0  0  0  0  0  0  0  0  0  0
   39.4020   30.5520   45.2810 N   0  0  0  0  0  0  0  0  0  0  0  0
   38.3200   31.3090   44.9600 C   0  0  0  0  0  0  0  0  0  0  0  0
   38.4350   32.6460   44.8220 N   0  0  0  0  0  0  0  0  0  0  0  0
   39.6480   34.3150   44.8780 H   0  0  0  0  0  0  0  0  0  0  0  0
   41.7170   33.0190   45.4740 H   0  0  0  0  0  0  0  0  0  0  0  0
   41.5020   30.5230   45.7300 H   0  0  0  0  0  0  0  0  0  0  0  0
   33.1290   28.7960   47.0850 C   0  0  0  0  0  0  0  0  0  0  0  0
   32.5110   28.2350   46.0110 N   0  0  0  0  0  0  0  0  0  0  0  0
   31.3190   27.7350   46.4220 C   0  0  0  0  0  0  0  0  0  0  0  0
   31.1950   27.9870   47.7610 N   0  0  0  0  0  0  0  0  0  0  0  0
   32.2970   28.6310   48.1580 N   0  0  0  0  0  0  0  0  0  0  0  0
   30.6460   27.2380   45.7330 H   0  0  0  0  0  0  0  0  0  0  0  0
   30.0630   27.6030   48.5330 C   0  0  0  0  0  0  0  0  0  0  0  0
   30.0330   27.6170   49.9320 C   0  0  0  0  0  0  0  0  0  0  0  0
   30.9150   27.9370   50.4450 H   0  0  0  0  0  0  0  0  0  0  0  0
   28.8860   27.2250   50.5970 C   0  0  0  0  0  0  0  0  0  0  0  0
   28.8360   27.2270   51.6800 H   0  0  0  0  0  0  0  0  0  0  0  0
   27.7580   26.8150   49.8870 C   0  0  0  0  0  0  0  0  0  0  0  0
   27.8540   26.8240   48.4960 C   0  0  0  0  0  0  0  0  0  0  0  0
   28.9800   27.2090   47.8410 N   0  0  0  0  0  0  0  0  0  0  0  0
  1  2  1  0  0  0  0
  2  7  1  0  0  0  0
  2  3  2  0  0  0  0
  3  8  1  0  0  0  0
  4  3  1  0  0  0  0
  4  9  1  0  0  0  0
  5  4  2  0  0  0  0
  6  1  2  0  0  0  0
  6  5  1  0  0  0  0
 10 21  1  0  0  0  0
 10  1  1  0  0  0  0
 11 12  1  0  0  0  0
 11 13  1  0  0  0  0
 11 10  1  0  0  0  0
 12 15  1  0  0  0  0
 12 10  1  0  0  0  0
 14 11  1  0  0  0  0
 16 12  1  0  0  0  0
 17 18  1  0  0  0  0
 18 24  1  0  0  0  0
 18 19  2  0  0  0  0
 19 25  1  0  0  0  0
 20 19  1  0  0  0  0
 21 20  2  0  0  0  0
 22 21  1  0  0  0  0
 22 17  2  0  0  0  0
 23 17  1  0  0  0  0
 26  5  1  0  0  0  0
 26 30  2  0  0  0  0
 27 28  2  0  0  0  0
 27 26  1  0  0  0  0
 28 29  1  0  0  0  0
 29 30  1  0  0  0  0
 29 32  1  0  0  0  0
 31 28  1  0  0  0  0
 32 33  1  0  0  0  0
 33 34  1  0  0  0  0
 33 35  2  0  0  0  0
 35 36  1  0  0  0  0
 37 35  1  0  0  0  0
 38 37  2  0  0  0  0
 39 38  1  0  0  0  0
 39 32  2  0  0  0  0
M  END
>  <minimizedAffinity>
-6.09482336

>  <minimizedRMSD>
0.942537487

$$$$
