
 OpenBabel03272509423D

 37 39  0  0  1  0  0  0  0  0999 V2000
   37.0210   30.9260   49.0260 C   0  0  0  0  0  0  0  0  0  0  0  0
   36.7230   31.7980   50.0760 C   0  0  0  0  0  0  0  0  0  0  0  0
   37.3080   33.0500   50.1750 C   0  0  0  0  0  0  0  0  0  0  0  0
   38.2250   33.4590   49.1960 C   0  0  0  0  0  0  0  0  0  0  0  0
   38.5020   32.5970   48.1810 C   0  0  0  0  0  0  0  0  0  0  0  0
   37.8990   31.3480   48.1100 C   0  0  0  0  0  0  0  0  0  0  0  0
   35.9990   31.4290   50.8140 H   0  0  0  0  0  0  0  0  0  0  0  0
   36.9800   33.6090   51.0400 H   0  0  0  0  0  0  0  0  0  0  0  0
   38.6230   34.4370   49.3530 H   0  0  0  0  0  0  0  0  0  0  0  0
   39.2300   33.0510   47.5020 H   0  0  0  0  0  0  0  0  0  0  0  0
   36.4360   29.6050   48.9440 C   0  0  2  0  0  0  0  0  0  0  0  0
   36.9660   29.0950   48.0520 H   0  0  0  0  0  0  0  0  0  0  0  0
   33.5680   30.1320   46.7740 C   0  0  0  0  0  0  0  0  0  0  0  0
   32.8880   28.9280   46.8210 C   0  0  0  0  0  0  0  0  0  0  0  0
   33.3760   27.9370   47.6520 C   0  0  0  0  0  0  0  0  0  0  0  0
   34.5090   28.1770   48.3950 N   0  0  0  0  0  0  0  0  0  0  0  0
   35.1140   29.3430   48.3060 C   0  0  0  0  0  0  0  0  0  0  0  0
   34.6510   30.3270   47.5010 N   0  0  0  0  0  0  0  0  0  0  0  0
   33.1840   30.9190   46.1180 H   0  0  0  0  0  0  0  0  0  0  0  0
   32.0060   28.7380   46.2420 H   0  0  0  0  0  0  0  0  0  0  0  0
   32.9140   26.9660   47.7580 H   0  0  0  0  0  0  0  0  0  0  0  0
   36.8770   28.8130   49.8560 O   0  0  0  0  0  0  0  0  0  0  0  0
   36.3390   28.0820   50.2400 H   0  0  0  0  0  0  0  0  0  0  0  0
   38.3090   30.5260   46.9950 C   0  0  0  0  0  3  0  0  0  0  0  0
   39.0900   30.9590   46.0000 C   0  0  0  0  0  3  0  0  0  0  0  0
   39.6080   30.1970   44.8420 C   0  0  0  0  0  0  0  0  0  0  0  0
   40.6180   29.8260   45.1140 H   0  0  0  0  0  0  0  0  0  0  0  0
   38.8940   29.3890   44.6040 H   0  0  0  0  0  0  0  0  0  0  0  0
   39.8030   31.2990   43.4330 S   0  0  0  0  0  0  0  0  0  0  0  0
   38.2430   31.5310   42.5730 C   0  0  0  0  0  0  0  0  0  0  0  0
   37.4970   32.5620   43.1550 C   0  0  0  0  0  0  0  0  0  0  0  0
   37.7690   33.1600   44.0030 H   0  0  0  0  0  0  0  0  0  0  0  0
   36.2580   32.8670   42.5950 C   0  0  0  0  0  0  0  0  0  0  0  0
   35.6350   33.6540   43.0030 H   0  0  0  0  0  0  0  0  0  0  0  0
   35.8290   32.1370   41.4930 C   0  0  0  0  0  3  0  0  0  0  0  0
   36.6200   31.1380   40.9760 C   0  0  0  0  0  3  0  0  0  0  0  0
   37.8100   30.8410   41.5110 N   0  0  0  0  0  0  0  0  0  0  0  0
  1  2  1  0  0  0  0
  2  3  2  0  0  0  0
  2  7  1  0  0  0  0
  3  8  1  0  0  0  0
  4  9  1  0  0  0  0
  4  3  1  0  0  0  0
  5  4  2  0  0  0  0
  6  5  1  0  0  0  0
  6  1  2  0  0  0  0
 10  5  1  0  0  0  0
 11 12  1  6  0  0  0
 11  1  1  0  0  0  0
 11 22  1  0  0  0  0
 13 14  2  0  0  0  0
 13 18  1  0  0  0  0
 14 15  1  0  0  0  0
 15 21  1  0  0  0  0
 15 16  2  0  0  0  0
 17 16  1  0  0  0  0
 17 11  1  0  0  0  0
 18 17  2  0  0  0  0
 19 13  1  0  0  0  0
 20 14  1  0  0  0  0
 22 23  1  0  0  0  0
 24  6  1  0  0  0  0
 25 24  2  0  0  0  0
 26 27  1  0  0  0  0
 26 25  1  0  0  0  0
 28 26  1  0  0  0  0
 29 26  1  0  0  0  0
 30 31  1  0  0  0  0
 30 29  1  0  0  0  0
 31 32  1  0  0  0  0
 33 34  1  0  0  0  0
 33 31  2  0  0  0  0
 35 33  1  0  0  0  0
 36 35  2  0  0  0  0
 36 37  1  0  0  0  0
 37 30  2  0  0  0  0
M  END
>  <minimizedAffinity>
-5.57355261

>  <minimizedRMSD>
0.598062754

$$$$
