
 OpenBabel03272501593D

 30 32  0  0  0  0  0  0  0  0999 V2000
   37.2310   23.4510   31.1530 C   0  0  0  0  0  0  0  0  0  0  0  0
   37.2910   24.3050   30.4610 H   0  0  0  0  0  0  0  0  0  0  0  0
   37.9880   22.6800   30.9030 H   0  0  0  0  0  0  0  0  0  0  0  0
   37.5420   24.0270   32.5140 C   0  0  0  0  0  0  0  0  0  0  0  0
   37.5370   25.3700   32.8270 C   0  0  0  0  0  0  0  0  0  0  0  0
   37.8660   25.5460   34.1590 C   0  0  0  0  0  0  0  0  0  0  0  0
   38.0620   24.2740   34.6140 N   0  0  0  0  0  0  0  0  0  0  0  0
   37.8720   23.3890   33.6490 N   0  0  0  0  0  0  0  0  0  0  0  0
   37.3220   26.2260   32.1980 H   0  0  0  0  0  0  0  0  0  0  0  0
   37.9490   26.4520   34.7130 H   0  0  0  0  0  0  0  0  0  0  0  0
   38.4220   23.9350   35.9430 C   0  0  0  0  0  0  0  0  0  0  0  0
   37.7250   24.4040   37.0340 C   0  0  0  0  0  0  0  0  0  0  0  0
   36.8810   25.0500   36.8180 H   0  0  0  0  0  0  0  0  0  0  0  0
   37.9770   24.1450   38.3600 C   0  0  0  0  0  0  0  0  0  0  0  0
   37.3600   24.5690   39.1380 H   0  0  0  0  0  0  0  0  0  0  0  0
   39.0770   23.3080   38.5760 C   0  0  0  0  0  3  0  0  0  0  0  0
   39.7930   22.8250   37.4990 C   0  0  0  0  0  3  0  0  0  0  0  0
   39.4710   23.1340   36.2090 N   0  0  0  0  0  0  0  0  0  0  0  0
   35.8260   22.9540   31.2110 C   0  0  0  0  0  0  0  0  0  0  0  0
   35.2460   23.1690   30.3040 H   0  0  0  0  0  0  0  0  0  0  0  0
   35.3200   23.3930   32.1160 H   0  0  0  0  0  0  0  0  0  0  0  0
   36.3010   19.2950   30.8660 C   0  0  0  0  0  0  0  0  0  0  0  0
   35.7650   18.8040   32.0610 C   0  0  0  0  0  0  0  0  0  0  0  0
   35.2470   19.7410   32.9710 C   0  0  0  0  0  0  0  0  0  0  0  0
   35.2830   21.0580   32.6650 N   0  0  0  0  0  0  0  0  0  0  0  0
   35.8180   21.4810   31.4830 C   0  0  0  0  0  0  0  0  0  0  0  0
   36.3110   20.6120   30.6160 N   0  0  0  0  0  0  0  0  0  0  0  0
   36.7240   18.6450   30.1050 H   0  0  0  0  0  0  0  0  0  0  0  0
   35.7860   17.7540   32.2020 H   0  0  0  0  0  0  0  0  0  0  0  0
   34.8340   19.3630   33.8930 H   0  0  0  0  0  0  0  0  0  0  0  0
  1 19  1  0  0  0  0
  1  4  1  0  0  0  0
  2  1  1  0  0  0  0
  3  1  1  0  0  0  0
  4  5  1  0  0  0  0
  4  8  2  0  0  0  0
  5  6  2  0  0  0  0
  6  7  1  0  0  0  0
  6 10  1  0  0  0  0
  7 11  1  0  0  0  0
  8  7  1  0  0  0  0
  9  5  1  0  0  0  0
 11 18  2  0  0  0  0
 11 12  1  0  0  0  0
 12 14  2  0  0  0  0
 13 12  1  0  0  0  0
 14 16  1  0  0  0  0
 14 15  1  0  0  0  0
 17 16  2  0  0  0  0
 18 17  1  0  0  0  0
 19 26  1  0  0  0  0
 19 21  1  0  0  0  0
 20 19  1  0  0  0  0
 22 23  1  0  0  0  0
 23 29  1  0  0  0  0
 23 24  2  0  0  0  0
 24 30  1  0  0  0  0
 25 24  1  0  0  0  0
 26 25  2  0  0  0  0
 27 22  2  0  0  0  0
 27 26  1  0  0  0  0
 28 22  1  0  0  0  0
M  END
>  <minimizedAffinity>
-5.03811073

$$$$

 OpenBabel03272501593D

 30 32  0  0  0  0  0  0  0  0999 V2000
   37.2630   23.4980   31.2080 C   0  0  0  0  0  0  0  0  0  0  0  0
   37.3840   24.3370   30.5060 H   0  0  0  0  0  0  0  0  0  0  0  0
   37.9910   22.6890   30.9930 H   0  0  0  0  0  0  0  0  0  0  0  0
   37.5580   24.0800   32.5700 C   0  0  0  0  0  0  0  0  0  0  0  0
   37.5720   25.4250   32.8710 C   0  0  0  0  0  0  0  0  0  0  0  0
   37.8770   25.6080   34.2080 C   0  0  0  0  0  0  0  0  0  0  0  0
   38.0400   24.3360   34.6770 N   0  0  0  0  0  0  0  0  0  0  0  0
   37.8520   23.4460   33.7170 N   0  0  0  0  0  0  0  0  0  0  0  0
   37.3870   26.2790   32.2300 H   0  0  0  0  0  0  0  0  0  0  0  0
   37.9670   26.5170   34.7550 H   0  0  0  0  0  0  0  0  0  0  0  0
   38.3660   24.0030   36.0170 C   0  0  0  0  0  0  0  0  0  0  0  0
   39.4580   23.2260   36.3350 C   0  0  0  0  0  0  0  0  0  0  0  0
   40.0570   22.8820   35.4990 H   0  0  0  0  0  0  0  0  0  0  0  0
   39.8720   22.8420   37.5880 C   0  0  0  0  0  0  0  0  0  0  0  0
   40.7490   22.2270   37.7200 H   0  0  0  0  0  0  0  0  0  0  0  0
   39.0600   23.3150   38.6240 C   0  0  0  0  0  3  0  0  0  0  0  0
   37.9600   24.0950   38.3320 C   0  0  0  0  0  3  0  0  0  0  0  0
   37.6210   24.4310   37.0540 N   0  0  0  0  0  0  0  0  0  0  0  0
   35.8350   23.0660   31.2280 C   0  0  0  0  0  0  0  0  0  0  0  0
   35.3110   23.2400   30.2800 H   0  0  0  0  0  0  0  0  0  0  0  0
   35.3080   23.5900   32.0740 H   0  0  0  0  0  0  0  0  0  0  0  0
   35.1840   19.9320   33.0950 C   0  0  0  0  0  0  0  0  0  0  0  0
   35.6200   18.9480   32.2010 C   0  0  0  0  0  0  0  0  0  0  0  0
   36.1320   19.3780   30.9650 C   0  0  0  0  0  0  0  0  0  0  0  0
   36.1860   20.7020   30.6890 N   0  0  0  0  0  0  0  0  0  0  0  0
   35.7470   21.6170   31.6010 C   0  0  0  0  0  0  0  0  0  0  0  0
   35.2610   21.2290   32.7680 N   0  0  0  0  0  0  0  0  0  0  0  0
   34.7730   19.6920   34.0720 H   0  0  0  0  0  0  0  0  0  0  0  0
   35.5330   17.9400   32.5150 H   0  0  0  0  0  0  0  0  0  0  0  0
   36.4680   18.6200   30.2760 H   0  0  0  0  0  0  0  0  0  0  0  0
  1 19  1  0  0  0  0
  1  4  1  0  0  0  0
  2  1  1  0  0  0  0
  3  1  1  0  0  0  0
  4  5  1  0  0  0  0
  4  8  2  0  0  0  0
  5  6  2  0  0  0  0
  6  7  1  0  0  0  0
  6 10  1  0  0  0  0
  7 11  1  0  0  0  0
  8  7  1  0  0  0  0
  9  5  1  0  0  0  0
 11 12  2  0  0  0  0
 11 18  1  0  0  0  0
 12 14  1  0  0  0  0
 13 12  1  0  0  0  0
 14 15  1  0  0  0  0
 14 16  2  0  0  0  0
 17 16  1  0  0  0  0
 18 17  2  0  0  0  0
 19 26  1  0  0  0  0
 19 21  1  0  0  0  0
 20 19  1  0  0  0  0
 22 28  1  0  0  0  0
 23 29  1  0  0  0  0
 23 22  2  0  0  0  0
 24 23  1  0  0  0  0
 25 24  2  0  0  0  0
 25 26  1  0  0  0  0
 26 27  2  0  0  0  0
 27 22  1  0  0  0  0
 30 24  1  0  0  0  0
M  END
>  <minimizedAffinity>
-5.0060358

$$$$

 OpenBabel03272501593D

 30 32  0  0  0  0  0  0  0  0999 V2000
   37.0620   25.5130   31.4820 C   0  0  0  0  0  0  0  0  0  0  0  0
   36.9110   26.5550   31.1600 H   0  0  0  0  0  0  0  0  0  0  0  0
   37.9370   25.0600   30.9710 H   0  0  0  0  0  0  0  0  0  0  0  0
   37.3410   25.5950   32.9630 C   0  0  0  0  0  0  0  0  0  0  0  0
   37.0790   26.6890   33.7600 C   0  0  0  0  0  0  0  0  0  0  0  0
   37.4560   26.4250   35.0650 C   0  0  0  0  0  0  0  0  0  0  0  0
   37.9420   25.1510   35.0080 N   0  0  0  0  0  0  0  0  0  0  0  0
   37.8730   24.6690   33.7780 N   0  0  0  0  0  0  0  0  0  0  0  0
   36.6490   27.6490   33.4970 H   0  0  0  0  0  0  0  0  0  0  0  0
   37.3880   27.0560   35.9210 H   0  0  0  0  0  0  0  0  0  0  0  0
   38.4550   24.4300   36.1160 C   0  0  0  0  0  0  0  0  0  0  0  0
   37.8810   24.4990   37.3660 C   0  0  0  0  0  0  0  0  0  0  0  0
   37.0100   25.1390   37.4550 H   0  0  0  0  0  0  0  0  0  0  0  0
   38.2860   23.8490   38.5080 C   0  0  0  0  0  0  0  0  0  0  0  0
   37.7560   23.9780   39.4390 H   0  0  0  0  0  0  0  0  0  0  0  0
   39.4140   23.0400   38.3310 C   0  0  0  0  0  3  0  0  0  0  0  0
   40.0080   22.9550   37.0880 C   0  0  0  0  0  3  0  0  0  0  0  0
   39.5380   23.6370   36.0040 N   0  0  0  0  0  0  0  0  0  0  0  0
   35.7860   24.7550   31.3280 C   0  0  0  0  0  0  0  0  0  0  0  0
   35.2310   25.0100   30.4160 H   0  0  0  0  0  0  0  0  0  0  0  0
   35.1480   24.9260   32.2400 H   0  0  0  0  0  0  0  0  0  0  0  0
   35.4740   21.1150   31.9540 C   0  0  0  0  0  0  0  0  0  0  0  0
   36.6430   20.6060   31.3780 C   0  0  0  0  0  0  0  0  0  0  0  0
   37.5230   21.5240   30.7800 C   0  0  0  0  0  0  0  0  0  0  0  0
   37.2160   22.8420   30.7830 N   0  0  0  0  0  0  0  0  0  0  0  0
   36.0620   23.2830   31.3620 C   0  0  0  0  0  0  0  0  0  0  0  0
   35.2220   22.4320   31.9270 N   0  0  0  0  0  0  0  0  0  0  0  0
   34.7360   20.4810   32.4370 H   0  0  0  0  0  0  0  0  0  0  0  0
   36.7860   19.5580   31.4290 H   0  0  0  0  0  0  0  0  0  0  0  0
   38.4240   21.1310   30.3350 H   0  0  0  0  0  0  0  0  0  0  0  0
  1  4  1  0  0  0  0
  2  1  1  0  0  0  0
  3  1  1  0  0  0  0
  4  5  1  0  0  0  0
  4  8  2  0  0  0  0
  5  6  2  0  0  0  0
  6 10  1  0  0  0  0
  7  6  1  0  0  0  0
  7 11  1  0  0  0  0
  8  7  1  0  0  0  0
  9  5  1  0  0  0  0
 11 12  1  0  0  0  0
 12 13  1  0  0  0  0
 12 14  2  0  0  0  0
 14 15  1  0  0  0  0
 16 14  1  0  0  0  0
 17 16  2  0  0  0  0
 18 11  2  0  0  0  0
 18 17  1  0  0  0  0
 19 26  1  0  0  0  0
 19  1  1  0  0  0  0
 19 21  1  0  0  0  0
 20 19  1  0  0  0  0
 22 28  1  0  0  0  0
 23 29  1  0  0  0  0
 23 22  2  0  0  0  0
 24 25  2  0  0  0  0
 24 23  1  0  0  0  0
 25 26  1  0  0  0  0
 26 27  2  0  0  0  0
 27 22  1  0  0  0  0
 30 24  1  0  0  0  0
M  END
>  <minimizedAffinity>
-4.89822435

$$$$

 OpenBabel03272501593D

 30 32  0  0  0  0  0  0  0  0999 V2000
   38.8800   26.0750   34.2910 C   0  0  0  0  0  0  0  0  0  0  0  0
   39.4870   26.0130   33.3740 H   0  0  0  0  0  0  0  0  0  0  0  0
   39.4930   26.4080   35.1540 H   0  0  0  0  0  0  0  0  0  0  0  0
   37.8290   27.1190   33.9980 C   0  0  0  0  0  0  0  0  0  0  0  0
   37.3390   27.4190   32.7450 C   0  0  0  0  0  0  0  0  0  0  0  0
   36.3900   28.4220   32.8360 C   0  0  0  0  0  0  0  0  0  0  0  0
   36.3400   28.6970   34.1720 N   0  0  0  0  0  0  0  0  0  0  0  0
   37.1830   27.9330   34.8470 N   0  0  0  0  0  0  0  0  0  0  0  0
   37.5930   26.9930   31.7810 H   0  0  0  0  0  0  0  0  0  0  0  0
   35.8230   28.8800   32.0590 H   0  0  0  0  0  0  0  0  0  0  0  0
   35.4980   29.6710   34.7680 C   0  0  0  0  0  0  0  0  0  0  0  0
   35.9980   30.7200   35.5060 C   0  0  0  0  0  0  0  0  0  0  0  0
   37.0770   30.7600   35.6070 H   0  0  0  0  0  0  0  0  0  0  0  0
   35.2850   31.7190   36.1260 C   0  0  0  0  0  0  0  0  0  0  0  0
   35.7860   32.4970   36.6820 H   0  0  0  0  0  0  0  0  0  0  0  0
   33.9000   31.6140   35.9610 C   0  0  0  0  0  3  0  0  0  0  0  0
   33.3740   30.5710   35.2260 C   0  0  0  0  0  3  0  0  0  0  0  0
   34.1580   29.6190   34.6420 N   0  0  0  0  0  0  0  0  0  0  0  0
   38.1570   24.7870   34.4970 C   0  0  0  0  0  0  0  0  0  0  0  0
   38.4110   24.0170   33.7580 H   0  0  0  0  0  0  0  0  0  0  0  0
   37.0490   24.9860   34.4950 H   0  0  0  0  0  0  0  0  0  0  0  0
   37.9210   24.1840   38.1470 C   0  0  0  0  0  0  0  0  0  0  0  0
   38.9660   23.2810   38.3740 C   0  0  0  0  0  0  0  0  0  0  0  0
   39.7370   22.8920   37.2660 C   0  0  0  0  0  0  0  0  0  0  0  0
   39.4500   23.3930   36.0430 N   0  0  0  0  0  0  0  0  0  0  0  0
   38.4190   24.2720   35.8800 C   0  0  0  0  0  0  0  0  0  0  0  0
   37.6820   24.6480   36.9120 N   0  0  0  0  0  0  0  0  0  0  0  0
   37.2720   24.5390   38.9420 H   0  0  0  0  0  0  0  0  0  0  0  0
   39.1050   22.9490   39.3710 H   0  0  0  0  0  0  0  0  0  0  0  0
   40.5420   22.1960   37.4420 H   0  0  0  0  0  0  0  0  0  0  0  0
  1 19  1  0  0  0  0
  1  3  1  0  0  0  0
  2  1  1  0  0  0  0
  4  1  1  0  0  0  0
  4  8  2  0  0  0  0
  5  6  2  0  0  0  0
  5  4  1  0  0  0  0
  6  7  1  0  0  0  0
  7 11  1  0  0  0  0
  7  8  1  0  0  0  0
  9  5  1  0  0  0  0
 10  6  1  0  0  0  0
 11 12  1  0  0  0  0
 12 13  1  0  0  0  0
 12 14  2  0  0  0  0
 14 15  1  0  0  0  0
 16 14  1  0  0  0  0
 17 16  2  0  0  0  0
 18 11  2  0  0  0  0
 18 17  1  0  0  0  0
 19 26  1  0  0  0  0
 20 19  1  0  0  0  0
 21 19  1  0  0  0  0
 22 23  1  0  0  0  0
 22 28  1  0  0  0  0
 23 29  1  0  0  0  0
 24 30  1  0  0  0  0
 24 23  2  0  0  0  0
 25 24  1  0  0  0  0
 26 25  2  0  0  0  0
 26 27  1  0  0  0  0
 27 22  2  0  0  0  0
M  END
>  <minimizedAffinity>
-4.89044523

$$$$

 OpenBabel03272501593D

 30 32  0  0  0  0  0  0  0  0999 V2000
   38.3870   25.9970   30.8640 C   0  0  0  0  0  0  0  0  0  0  0  0
   39.2750   25.6170   31.3930 H   0  0  0  0  0  0  0  0  0  0  0  0
   38.5800   26.0900   29.7760 H   0  0  0  0  0  0  0  0  0  0  0  0
   37.3180   24.9550   31.0920 C   0  0  0  0  0  0  0  0  0  0  0  0
   35.9600   25.1940   31.0670 C   0  0  0  0  0  0  0  0  0  0  0  0
   35.2690   24.0220   31.3140 C   0  0  0  0  0  0  0  0  0  0  0  0
   36.2580   23.0950   31.4830 N   0  0  0  0  0  0  0  0  0  0  0  0
   37.4540   23.6460   31.3520 N   0  0  0  0  0  0  0  0  0  0  0  0
   35.4240   26.1190   30.8910 H   0  0  0  0  0  0  0  0  0  0  0  0
   34.2170   23.8630   31.3640 H   0  0  0  0  0  0  0  0  0  0  0  0
   36.0410   21.7210   31.7610 C   0  0  0  0  0  0  0  0  0  0  0  0
   35.7300   21.2690   33.0240 C   0  0  0  0  0  0  0  0  0  0  0  0
   35.6600   22.0260   33.7970 H   0  0  0  0  0  0  0  0  0  0  0  0
   35.4990   19.9710   33.4120 C   0  0  0  0  0  0  0  0  0  0  0  0
   35.2610   19.7300   34.4370 H   0  0  0  0  0  0  0  0  0  0  0  0
   35.6030   19.0400   32.3720 C   0  0  0  0  0  3  0  0  0  0  0  0
   35.9140   19.4680   31.0970 C   0  0  0  0  0  3  0  0  0  0  0  0
   36.1280   20.7830   30.8000 N   0  0  0  0  0  0  0  0  0  0  0  0
   37.9120   27.2480   31.5250 C   0  0  0  0  0  0  0  0  0  0  0  0
   36.8340   27.4200   31.4160 H   0  0  0  0  0  0  0  0  0  0  0  0
   38.4950   28.1200   31.1160 H   0  0  0  0  0  0  0  0  0  0  0  0
   39.8380   26.9490   34.6780 C   0  0  0  0  0  0  0  0  0  0  0  0
   38.8690   27.2130   35.6520 C   0  0  0  0  0  0  0  0  0  0  0  0
   37.5650   27.4910   35.2100 C   0  0  0  0  0  0  0  0  0  0  0  0
   37.2960   27.4940   33.8840 N   0  0  0  0  0  0  0  0  0  0  0  0
   38.2810   27.2280   32.9770 C   0  0  0  0  0  0  0  0  0  0  0  0
   39.5140   26.9650   33.3770 N   0  0  0  0  0  0  0  0  0  0  0  0
   40.8710   26.7240   34.9270 H   0  0  0  0  0  0  0  0  0  0  0  0
   39.1850   27.1860   36.6630 H   0  0  0  0  0  0  0  0  0  0  0  0
   36.8190   27.6950   35.9610 H   0  0  0  0  0  0  0  0  0  0  0  0
  1  4  1  0  0  0  0
  1  2  1  0  0  0  0
  1 19  1  0  0  0  0
  3  1  1  0  0  0  0
  4  8  2  0  0  0  0
  5  4  1  0  0  0  0
  5  6  2  0  0  0  0
  6 10  1  0  0  0  0
  6  7  1  0  0  0  0
  7 11  1  0  0  0  0
  8  7  1  0  0  0  0
  9  5  1  0  0  0  0
 11 12  1  0  0  0  0
 12 14  2  0  0  0  0
 12 13  1  0  0  0  0
 14 15  1  0  0  0  0
 16 14  1  0  0  0  0
 17 16  2  0  0  0  0
 18 17  1  0  0  0  0
 18 11  2  0  0  0  0
 19 26  1  0  0  0  0
 20 19  1  0  0  0  0
 21 19  1  0  0  0  0
 22 28  1  0  0  0  0
 22 23  1  0  0  0  0
 23 29  1  0  0  0  0
 24 23  2  0  0  0  0
 24 30  1  0  0  0  0
 25 24  1  0  0  0  0
 26 27  1  0  0  0  0
 26 25  2  0  0  0  0
 27 22  2  0  0  0  0
M  END
>  <minimizedAffinity>
-4.86149311

$$$$

 OpenBabel03272501593D

 30 32  0  0  0  0  0  0  0  0999 V2000
   38.2870   25.7910   34.0610 C   0  0  0  0  0  0  0  0  0  0  0  0
   38.6400   26.6210   33.4290 H   0  0  0  0  0  0  0  0  0  0  0  0
   37.6330   26.1620   34.8770 H   0  0  0  0  0  0  0  0  0  0  0  0
   37.4770   24.9120   33.1390 C   0  0  0  0  0  0  0  0  0  0  0  0
   36.5850   25.3660   32.1900 C   0  0  0  0  0  0  0  0  0  0  0  0
   36.0180   24.2950   31.5230 C   0  0  0  0  0  0  0  0  0  0  0  0
   36.6010   23.2070   32.1060 N   0  0  0  0  0  0  0  0  0  0  0  0
   37.4530   23.5720   33.0490 N   0  0  0  0  0  0  0  0  0  0  0  0
   36.3050   26.3810   31.9340 H   0  0  0  0  0  0  0  0  0  0  0  0
   35.2970   24.3020   30.7390 H   0  0  0  0  0  0  0  0  0  0  0  0
   36.3350   21.8600   31.7520 C   0  0  0  0  0  0  0  0  0  0  0  0
   35.2810   21.1540   32.2880 C   0  0  0  0  0  0  0  0  0  0  0  0
   34.6620   21.6910   32.9990 H   0  0  0  0  0  0  0  0  0  0  0  0
   34.9270   19.8530   32.0230 C   0  0  0  0  0  0  0  0  0  0  0  0
   34.0740   19.3990   32.5040 H   0  0  0  0  0  0  0  0  0  0  0  0
   35.7620   19.2140   31.0990 C   0  0  0  0  0  3  0  0  0  0  0  0
   36.8250   19.8990   30.5480 C   0  0  0  0  0  3  0  0  0  0  0  0
   37.1060   21.1950   30.8690 N   0  0  0  0  0  0  0  0  0  0  0  0
   39.4530   24.9780   34.5120 C   0  0  0  0  0  0  0  0  0  0  0  0
   40.4000   25.5320   34.5150 H   0  0  0  0  0  0  0  0  0  0  0  0
   39.5330   24.0630   33.8610 H   0  0  0  0  0  0  0  0  0  0  0  0
   37.9750   24.3760   37.8570 C   0  0  0  0  0  0  0  0  0  0  0  0
   38.7650   23.3350   38.3560 C   0  0  0  0  0  0  0  0  0  0  0  0
   39.7970   22.8530   37.5320 C   0  0  0  0  0  0  0  0  0  0  0  0
   39.9870   23.4020   36.3110 N   0  0  0  0  0  0  0  0  0  0  0  0
   39.1860   24.4180   35.8760 C   0  0  0  0  0  0  0  0  0  0  0  0
   38.2100   24.8820   36.6380 N   0  0  0  0  0  0  0  0  0  0  0  0
   37.1560   24.8110   38.4230 H   0  0  0  0  0  0  0  0  0  0  0  0
   38.5310   22.9770   39.3250 H   0  0  0  0  0  0  0  0  0  0  0  0
   40.4050   22.0500   37.9170 H   0  0  0  0  0  0  0  0  0  0  0  0
  1 19  1  0  0  0  0
  1  3  1  0  0  0  0
  2  1  1  0  0  0  0
  4  1  1  0  0  0  0
  5  4  1  0  0  0  0
  6  7  1  0  0  0  0
  6  5  2  0  0  0  0
  7  8  1  0  0  0  0
  8  4  2  0  0  0  0
  9  5  1  0  0  0  0
 10  6  1  0  0  0  0
 11  7  1  0  0  0  0
 11 12  1  0  0  0  0
 12 13  1  0  0  0  0
 14 12  2  0  0  0  0
 14 15  1  0  0  0  0
 16 14  1  0  0  0  0
 17 18  1  0  0  0  0
 17 16  2  0  0  0  0
 18 11  2  0  0  0  0
 19 20  1  0  0  0  0
 19 26  1  0  0  0  0
 21 19  1  0  0  0  0
 22 23  1  0  0  0  0
 22 28  1  0  0  0  0
 23 29  1  0  0  0  0
 24 30  1  0  0  0  0
 24 23  2  0  0  0  0
 25 24  1  0  0  0  0
 26 25  2  0  0  0  0
 26 27  1  0  0  0  0
 27 22  2  0  0  0  0
M  END
>  <minimizedAffinity>
-4.83262062

$$$$

 OpenBabel03272501593D

 30 32  0  0  0  0  0  0  0  0999 V2000
   36.3450   28.3730   33.7010 C   0  0  0  0  0  0  0  0  0  0  0  0
   35.5750   28.4990   34.4780 H   0  0  0  0  0  0  0  0  0  0  0  0
   37.1140   29.1700   33.7690 H   0  0  0  0  0  0  0  0  0  0  0  0
   36.9880   27.0390   33.9960 C   0  0  0  0  0  0  0  0  0  0  0  0
   37.2600   26.0660   33.0590 C   0  0  0  0  0  0  0  0  0  0  0  0
   37.8490   24.9730   33.6690 C   0  0  0  0  0  0  0  0  0  0  0  0
   37.9120   25.3340   34.9840 N   0  0  0  0  0  0  0  0  0  0  0  0
   37.4080   26.5420   35.1710 N   0  0  0  0  0  0  0  0  0  0  0  0
   37.0790   26.0640   31.9900 H   0  0  0  0  0  0  0  0  0  0  0  0
   38.1800   24.0600   33.2310 H   0  0  0  0  0  0  0  0  0  0  0  0
   38.4480   24.5270   36.0200 C   0  0  0  0  0  0  0  0  0  0  0  0
   37.9120   24.5100   37.2880 C   0  0  0  0  0  0  0  0  0  0  0  0
   37.0520   25.1510   37.4500 H   0  0  0  0  0  0  0  0  0  0  0  0
   38.3410   23.7720   38.3660 C   0  0  0  0  0  0  0  0  0  0  0  0
   37.8400   23.8380   39.3200 H   0  0  0  0  0  0  0  0  0  0  0  0
   39.4520   22.9660   38.0960 C   0  0  0  0  0  3  0  0  0  0  0  0
   40.0080   22.9650   36.8330 C   0  0  0  0  0  3  0  0  0  0  0  0
   39.5150   23.7310   35.8170 N   0  0  0  0  0  0  0  0  0  0  0  0
   35.6900   28.2460   32.3670 C   0  0  0  0  0  0  0  0  0  0  0  0
   34.5970   28.3370   32.4040 H   0  0  0  0  0  0  0  0  0  0  0  0
   35.9900   27.2640   31.9050 H   0  0  0  0  0  0  0  0  0  0  0  0
   36.7860   31.4600   30.8800 C   0  0  0  0  0  0  0  0  0  0  0  0
   37.3050   31.0620   29.6430 C   0  0  0  0  0  0  0  0  0  0  0  0
   37.2700   29.6900   29.3380 C   0  0  0  0  0  0  0  0  0  0  0  0
   36.7470   28.8210   30.2320 N   0  0  0  0  0  0  0  0  0  0  0  0
   36.2540   29.2660   31.4240 C   0  0  0  0  0  0  0  0  0  0  0  0
   36.2800   30.5530   31.7270 N   0  0  0  0  0  0  0  0  0  0  0  0
   36.7710   32.4980   31.2010 H   0  0  0  0  0  0  0  0  0  0  0  0
   37.6910   31.8230   29.0170 H   0  0  0  0  0  0  0  0  0  0  0  0
   37.6710   29.3840   28.3850 H   0  0  0  0  0  0  0  0  0  0  0  0
  1  3  1  0  0  0  0
  1  4  1  0  0  0  0
  1  2  1  0  0  0  0
  4  8  2  0  0  0  0
  5  6  2  0  0  0  0
  5  4  1  0  0  0  0
  6  7  1  0  0  0  0
  7  8  1  0  0  0  0
  7 11  1  0  0  0  0
  9  5  1  0  0  0  0
 10  6  1  0  0  0  0
 11 12  1  0  0  0  0
 12 13  1  0  0  0  0
 12 14  2  0  0  0  0
 14 15  1  0  0  0  0
 16 14  1  0  0  0  0
 17 16  2  0  0  0  0
 18 11  2  0  0  0  0
 18 17  1  0  0  0  0
 19 20  1  0  0  0  0
 19  1  1  0  0  0  0
 21 19  1  0  0  0  0
 22 28  1  0  0  0  0
 22 27  1  0  0  0  0
 23 22  2  0  0  0  0
 24 23  1  0  0  0  0
 24 25  2  0  0  0  0
 25 26  1  0  0  0  0
 26 27  2  0  0  0  0
 26 19  1  0  0  0  0
 29 23  1  0  0  0  0
 30 24  1  0  0  0  0
M  END
>  <minimizedAffinity>
-4.77418661

$$$$

 OpenBabel03272501593D

 30 32  0  0  0  0  0  0  0  0999 V2000
   37.7360   26.4300   35.4750 C   0  0  0  0  0  0  0  0  0  0  0  0
   36.6560   26.2410   35.3780 H   0  0  0  0  0  0  0  0  0  0  0  0
   37.9330   27.2670   36.1760 H   0  0  0  0  0  0  0  0  0  0  0  0
   38.3070   25.1560   36.0520 C   0  0  0  0  0  0  0  0  0  0  0  0
   37.7550   24.4410   37.0940 C   0  0  0  0  0  0  0  0  0  0  0  0
   38.5320   23.3290   37.3670 C   0  0  0  0  0  0  0  0  0  0  0  0
   39.5490   23.4160   36.4600 N   0  0  0  0  0  0  0  0  0  0  0  0
   39.4130   24.4850   35.6930 N   0  0  0  0  0  0  0  0  0  0  0  0
   36.8590   24.6370   37.6700 H   0  0  0  0  0  0  0  0  0  0  0  0
   38.3860   22.5760   38.1070 H   0  0  0  0  0  0  0  0  0  0  0  0
   40.6140   22.4860   36.3460 C   0  0  0  0  0  0  0  0  0  0  0  0
   41.1410   21.8370   37.4400 C   0  0  0  0  0  0  0  0  0  0  0  0
   40.6930   22.0770   38.3980 H   0  0  0  0  0  0  0  0  0  0  0  0
   42.1660   20.9200   37.4530 C   0  0  0  0  0  0  0  0  0  0  0  0
   42.4990   20.4710   38.3760 H   0  0  0  0  0  0  0  0  0  0  0  0
   42.7030   20.6510   36.1890 C   0  0  0  0  0  3  0  0  0  0  0  0
   42.1920   21.2900   35.0770 C   0  0  0  0  0  3  0  0  0  0  0  0
   41.1690   22.1890   35.1560 N   0  0  0  0  0  0  0  0  0  0  0  0
   38.3370   26.5920   34.1200 C   0  0  0  0  0  0  0  0  0  0  0  0
   39.2750   26.0390   33.9860 H   0  0  0  0  0  0  0  0  0  0  0  0
   38.4930   27.6890   33.9190 H   0  0  0  0  0  0  0  0  0  0  0  0
   36.2990   24.5490   31.7940 C   0  0  0  0  0  0  0  0  0  0  0  0
   35.5180   25.5130   31.1460 C   0  0  0  0  0  0  0  0  0  0  0  0
   35.7040   26.8550   31.5210 C   0  0  0  0  0  0  0  0  0  0  0  0
   36.6130   27.1620   32.4750 N   0  0  0  0  0  0  0  0  0  0  0  0
   37.3490   26.1800   33.0720 C   0  0  0  0  0  0  0  0  0  0  0  0
   37.1860   24.9120   32.7320 N   0  0  0  0  0  0  0  0  0  0  0  0
   36.2240   23.4890   31.5690 H   0  0  0  0  0  0  0  0  0  0  0  0
   34.8350   25.1650   30.4150 H   0  0  0  0  0  0  0  0  0  0  0  0
   35.1010   27.5970   31.0230 H   0  0  0  0  0  0  0  0  0  0  0  0
  1  4  1  0  0  0  0
  1  3  1  0  0  0  0
  2  1  1  0  0  0  0
  4  5  1  0  0  0  0
  5  6  2  0  0  0  0
  5  9  1  0  0  0  0
  6 10  1  0  0  0  0
  7  6  1  0  0  0  0
  8  4  2  0  0  0  0
  8  7  1  0  0  0  0
 11  7  1  0  0  0  0
 11 12  1  0  0  0  0
 12 14  2  0  0  0  0
 12 13  1  0  0  0  0
 14 15  1  0  0  0  0
 16 14  1  0  0  0  0
 17 18  1  0  0  0  0
 17 16  2  0  0  0  0
 18 11  2  0  0  0  0
 19  1  1  0  0  0  0
 20 19  1  0  0  0  0
 21 19  1  0  0  0  0
 22 27  1  0  0  0  0
 23 24  1  0  0  0  0
 23 22  2  0  0  0  0
 24 25  2  0  0  0  0
 25 26  1  0  0  0  0
 26 19  1  0  0  0  0
 27 26  2  0  0  0  0
 28 22  1  0  0  0  0
 29 23  1  0  0  0  0
 30 24  1  0  0  0  0
M  END
>  <minimizedAffinity>
-4.77346659

$$$$

 OpenBabel03272501593D

 30 32  0  0  0  0  0  0  0  0999 V2000
   37.9280   23.9320   33.5360 C   0  0  0  0  0  0  0  0  0  0  0  0
   37.2050   23.4030   34.1760 H   0  0  0  0  0  0  0  0  0  0  0  0
   38.4520   23.2270   32.8590 H   0  0  0  0  0  0  0  0  0  0  0  0
   37.0980   24.8860   32.7100 C   0  0  0  0  0  0  0  0  0  0  0  0
   36.2320   24.5170   31.7030 C   0  0  0  0  0  0  0  0  0  0  0  0
   35.6350   25.6390   31.1570 C   0  0  0  0  0  0  0  0  0  0  0  0
   36.1740   26.6700   31.8710 N   0  0  0  0  0  0  0  0  0  0  0  0
   37.0280   26.2250   32.7780 N   0  0  0  0  0  0  0  0  0  0  0  0
   35.9900   23.5290   31.3260 H   0  0  0  0  0  0  0  0  0  0  0  0
   34.9220   25.7000   30.3670 H   0  0  0  0  0  0  0  0  0  0  0  0
   35.8650   28.0400   31.6740 C   0  0  0  0  0  0  0  0  0  0  0  0
   36.5080   28.8090   30.7310 C   0  0  0  0  0  0  0  0  0  0  0  0
   37.2680   28.3060   30.1440 H   0  0  0  0  0  0  0  0  0  0  0  0
   36.2940   30.1380   30.4500 C   0  0  0  0  0  0  0  0  0  0  0  0
   36.8610   30.6430   29.6830 H   0  0  0  0  0  0  0  0  0  0  0  0
   35.3040   30.7320   31.2390 C   0  0  0  0  0  3  0  0  0  0  0  0
   34.6440   29.9830   32.1920 C   0  0  0  0  0  3  0  0  0  0  0  0
   34.9210   28.6640   32.4050 N   0  0  0  0  0  0  0  0  0  0  0  0
   38.8240   24.7700   34.3840 C   0  0  0  0  0  0  0  0  0  0  0  0
   38.5490   25.8320   34.3990 H   0  0  0  0  0  0  0  0  0  0  0  0
   39.8860   24.6410   34.0310 H   0  0  0  0  0  0  0  0  0  0  0  0
   39.7540   22.8440   37.4120 C   0  0  0  0  0  0  0  0  0  0  0  0
   38.8300   23.3010   38.3580 C   0  0  0  0  0  0  0  0  0  0  0  0
   37.8990   24.2670   37.9410 C   0  0  0  0  0  0  0  0  0  0  0  0
   37.9270   24.7130   36.6640 N   0  0  0  0  0  0  0  0  0  0  0  0
   38.8510   24.2310   35.7820 C   0  0  0  0  0  0  0  0  0  0  0  0
   39.7350   23.3220   36.1590 N   0  0  0  0  0  0  0  0  0  0  0  0
   40.5100   22.0990   37.6450 H   0  0  0  0  0  0  0  0  0  0  0  0
   38.8950   22.8870   39.3310 H   0  0  0  0  0  0  0  0  0  0  0  0
   37.1880   24.6190   38.6710 H   0  0  0  0  0  0  0  0  0  0  0  0
  1  2  1  0  0  0  0
  1 19  1  0  0  0  0
  3  1  1  0  0  0  0
  4  8  2  0  0  0  0
  4  1  1  0  0  0  0
  5  4  1  0  0  0  0
  6  5  2  0  0  0  0
  6  7  1  0  0  0  0
  7  8  1  0  0  0  0
  9  5  1  0  0  0  0
 10  6  1  0  0  0  0
 11  7  1  0  0  0  0
 11 18  1  0  0  0  0
 12 11  2  0  0  0  0
 13 12  1  0  0  0  0
 14 12  1  0  0  0  0
 14 16  2  0  0  0  0
 15 14  1  0  0  0  0
 16 17  1  0  0  0  0
 17 18  2  0  0  0  0
 19 20  1  0  0  0  0
 19 26  1  0  0  0  0
 21 19  1  0  0  0  0
 22 28  1  0  0  0  0
 22 23  1  0  0  0  0
 23 29  1  0  0  0  0
 24 23  2  0  0  0  0
 24 30  1  0  0  0  0
 25 24  1  0  0  0  0
 26 27  1  0  0  0  0
 26 25  2  0  0  0  0
 27 22  2  0  0  0  0
M  END
>  <minimizedAffinity>
-4.77055454

$$$$
