
 OpenBabel03272508023D

 27 29  0  0  0  0  0  0  0  0999 V2000
   38.2420   31.3860   45.2480 C   0  0  0  0  0  0  0  0  0  0  0  0
   38.7910   32.6090   44.9450 C   0  0  0  0  0  0  0  0  0  0  0  0
   39.6000   32.4750   43.8030 C   0  0  0  0  0  0  0  0  0  0  0  0
   39.4980   31.1590   43.4670 N   0  0  0  0  0  0  0  0  0  0  0  0
   38.7090   30.5500   44.3160 N   0  0  0  0  0  0  0  0  0  0  0  0
   38.5760   33.4870   45.5520 H   0  0  0  0  0  0  0  0  0  0  0  0
   40.0910   33.3480   43.4520 H   0  0  0  0  0  0  0  0  0  0  0  0
   37.3400   31.0620   46.3510 C   0  0  0  0  0  0  0  0  0  0  0  0
   37.7170   31.4530   47.6550 C   0  0  0  0  0  0  0  0  0  0  0  0
   36.8580   31.1440   48.7150 C   0  0  0  0  0  0  0  0  0  0  0  0
   35.7080   30.4840   48.4170 N   0  0  0  0  0  0  0  0  0  0  0  0
   35.3640   30.1190   47.1700 C   0  0  0  0  0  0  0  0  0  0  0  0
   36.1980   30.4190   46.1490 N   0  0  0  0  0  0  0  0  0  0  0  0
   38.6270   31.9720   47.8580 H   0  0  0  0  0  0  0  0  0  0  0  0
   34.4300   29.5950   47.0150 H   0  0  0  0  0  0  0  0  0  0  0  0
   37.2470   31.5540   50.0920 C   0  0  0  0  0  0  0  0  0  0  0  0
   36.6170   32.7480   50.3260 F   0  0  0  0  0  0  0  0  0  0  0  0
   36.8230   30.6400   51.0470 F   0  0  0  0  0  0  0  0  0  0  0  0
   38.6150   31.7490   50.2120 F   0  0  0  0  0  0  0  0  0  0  0  0
   40.2210   30.7050   42.3280 C   0  0  0  0  0  0  0  0  0  0  0  0
   40.2220   31.2550   41.0660 C   0  0  0  0  0  0  0  0  0  0  0  0
   39.5950   32.1320   40.9550 H   0  0  0  0  0  0  0  0  0  0  0  0
   40.9760   30.6950   40.0730 C   0  0  0  0  0  0  0  0  0  0  0  0
   40.9570   31.1560   39.0790 H   0  0  0  0  0  0  0  0  0  0  0  0
   41.7560   29.5810   40.2740 C   0  0  0  0  0  3  0  0  0  0  0  0
   41.7220   29.0580   41.5700 C   0  0  0  0  0  3  0  0  0  0  0  0
   40.9770   29.6000   42.5780 N   0  0  0  0  0  0  0  0  0  0  0  0
  1  8  1  0  0  0  0
  2  1  1  0  0  0  0
  2  6  1  0  0  0  0
  3  2  2  0  0  0  0
  4  3  1  0  0  0  0
  4  5  1  0  0  0  0
  5  1  2  0  0  0  0
  7  3  1  0  0  0  0
  8  9  1  0  0  0  0
  9 14  1  0  0  0  0
  9 10  2  0  0  0  0
 10 16  1  0  0  0  0
 11 10  1  0  0  0  0
 12 11  2  0  0  0  0
 13  8  2  0  0  0  0
 13 12  1  0  0  0  0
 15 12  1  0  0  0  0
 16 19  1  0  0  0  0
 16 17  1  0  0  0  0
 16 18  1  0  0  0  0
 20 27  1  0  0  0  0
 20  4  1  0  0  0  0
 21 20  2  0  0  0  0
 22 21  1  0  0  0  0
 23 25  2  0  0  0  0
 23 21  1  0  0  0  0
 24 23  1  0  0  0  0
 25 26  1  0  0  0  0
 26 27  2  0  0  0  0
M  END
>  <minimizedAffinity>
-5.95969534

>  <minimizedRMSD>
1.36962676

$$$$
