
 OpenBabel03272510113D

 34 37  0  0  0  0  0  0  0  0999 V2000
   33.4900   28.4730   48.4330 C   0  0  0  0  0  0  0  0  0  0  0  0
   34.3800   28.0220   49.3430 C   0  0  0  0  0  0  0  0  0  0  0  0
   35.5800   28.6350   49.6350 C   0  0  0  0  0  0  0  0  0  0  0  0
   35.9370   29.7790   48.9860 C   0  0  0  0  0  0  0  0  0  0  0  0
   35.0220   30.2560   48.0410 C   0  0  0  0  0  0  0  0  0  0  0  0
   33.8620   29.6210   47.7910 N   0  0  0  0  0  0  0  0  0  0  0  0
   34.1780   27.1210   49.9040 H   0  0  0  0  0  0  0  0  0  0  0  0
   36.2880   28.2650   50.3670 H   0  0  0  0  0  0  0  0  0  0  0  0
   35.2560   31.1610   47.4950 H   0  0  0  0  0  0  0  0  0  0  0  0
   31.2110   27.6650   49.0560 C   0  0  0  0  0  0  0  0  0  0  0  0
   32.2420   27.8450   48.1220 C   0  0  0  0  0  0  0  0  0  0  0  0
   31.9950   27.3750   46.8460 C   0  0  0  0  0  0  0  0  0  0  0  0
   30.8000   26.7760   46.5590 N   0  0  0  0  0  0  0  0  0  0  0  0
   29.8470   26.6360   47.5160 C   0  0  0  0  0  0  0  0  0  0  0  0
   30.0390   27.0790   48.7750 N   0  0  0  0  0  0  0  0  0  0  0  0
   31.3540   28.0140   50.0680 H   0  0  0  0  0  0  0  0  0  0  0  0
   32.7780   27.5050   46.1130 H   0  0  0  0  0  0  0  0  0  0  0  0
   28.9600   26.1470   47.1390 H   0  0  0  0  0  0  0  0  0  0  0  0
   37.1110   30.5210   49.1630 O   0  0  0  0  0  0  0  0  0  0  0  0
   37.8120   31.0250   48.0790 C   0  0  0  0  0  0  0  0  0  0  0  0
   38.5380   32.1850   48.3590 C   0  0  0  0  0  0  0  0  0  0  0  0
   39.1900   32.5770   47.1820 C   0  0  0  0  0  0  0  0  0  0  0  0
   38.8340   31.6540   46.2660 N   0  0  0  0  0  0  0  0  0  0  0  0
   38.0360   30.7510   46.7780 N   0  0  0  0  0  0  0  0  0  0  0  0
   38.6950   32.8070   49.2330 H   0  0  0  0  0  0  0  0  0  0  0  0
   39.8450   33.4080   46.9590 H   0  0  0  0  0  0  0  0  0  0  0  0
   39.2590   31.6400   44.9030 C   0  0  0  0  0  0  0  0  0  0  0  0
   38.9750   32.7440   44.1230 C   0  0  0  0  0  0  0  0  0  0  0  0
   38.4610   33.6100   44.4610 H   0  0  0  0  0  0  0  0  0  0  0  0
   39.3880   32.7270   42.8070 C   0  0  0  0  0  0  0  0  0  0  0  0
   39.2010   33.5630   42.1250 H   0  0  0  0  0  0  0  0  0  0  0  0
   40.0730   31.6610   42.2210 C   0  0  0  0  0  3  0  0  0  0  0  0
   40.3190   30.5890   43.0760 C   0  0  0  0  0  3  0  0  0  0  0  0
   39.9200   30.5920   44.3720 N   0  0  0  0  0  0  0  0  0  0  0  0
  1  2  1  0  0  0  0
  2  3  2  0  0  0  0
  2  7  1  0  0  0  0
  3  8  1  0  0  0  0
  4 19  1  0  0  0  0
  4  3  1  0  0  0  0
  5  4  2  0  0  0  0
  6  5  1  0  0  0  0
  6  1  2  0  0  0  0
  9  5  1  0  0  0  0
 10 16  1  0  0  0  0
 11  1  1  0  0  0  0
 11 10  2  0  0  0  0
 12 11  1  0  0  0  0
 13 12  2  0  0  0  0
 13 14  1  0  0  0  0
 14 15  2  0  0  0  0
 15 10  1  0  0  0  0
 17 12  1  0  0  0  0
 18 14  1  0  0  0  0
 20 21  1  0  0  0  0
 20 19  1  0  0  0  0
 21 25  1  0  0  0  0
 22 21  2  0  0  0  0
 23 24  1  0  0  0  0
 23 22  1  0  0  0  0
 24 20  2  0  0  0  0
 26 22  1  0  0  0  0
 27 23  1  0  0  0  0
 28 29  1  0  0  0  0
 28 27  2  0  0  0  0
 30 28  1  0  0  0  0
 31 30  1  0  0  0  0
 32 30  2  0  0  0  0
 32 33  1  0  0  0  0
 33 34  2  0  0  0  0
 34 27  1  0  0  0  0
M  END
>  <minimizedAffinity>
-5.90771055

>  <minimizedRMSD>
2.36353588

$$$$
