
 OpenBabel03272503313D

 33 35  0  0  1  0  0  0  0  0999 V2000
   37.1840   23.6560   32.2390 C   0  0  0  0  0  0  0  0  0  0  0  0
   36.7420   24.4650   31.1720 C   0  0  0  0  0  0  0  0  0  0  0  0
   36.6970   25.8480   31.3740 C   0  0  0  0  0  0  0  0  0  0  0  0
   37.0910   26.3080   32.6080 N   0  0  0  0  0  0  0  0  0  0  0  0
   37.5020   25.5170   33.5890 C   0  0  0  0  0  0  0  0  0  0  0  0
   37.5540   24.1890   33.4180 N   0  0  0  0  0  0  0  0  0  0  0  0
   36.4470   24.0530   30.2330 H   0  0  0  0  0  0  0  0  0  0  0  0
   36.3730   26.5330   30.6150 H   0  0  0  0  0  0  0  0  0  0  0  0
   37.2180   22.2510   32.0040 N   0  0  0  0  0  0  0  0  0  0  0  0
   37.1640   21.1940   32.9710 C   0  0  0  0  0  0  0  0  0  0  0  0
   36.5060   20.0560   32.1890 C   0  0  2  0  0  0  0  0  0  0  0  0
   36.1540   20.6390   30.8300 C   0  0  0  0  0  0  0  0  0  0  0  0
   37.3130   21.6210   30.7060 C   0  0  0  0  0  0  0  0  0  0  0  0
   36.5360   21.4380   33.8490 H   0  0  0  0  0  0  0  0  0  0  0  0
   38.1910   20.8690   33.2690 H   0  0  0  0  0  0  0  0  0  0  0  0
   37.2170   19.2280   32.0000 H   0  0  0  0  0  0  0  0  0  0  0  0
   36.1630   19.8940   30.0270 H   0  0  0  0  0  0  0  0  0  0  0  0
   35.1900   21.1660   30.8320 H   0  0  0  0  0  0  0  0  0  0  0  0
   37.0620   22.3350   29.9140 H   0  0  0  0  0  0  0  0  0  0  0  0
   38.2490   21.0590   30.5430 H   0  0  0  0  0  0  0  0  0  0  0  0
   35.3240   19.4730   32.9010 C   0  0  0  0  0  0  0  0  0  0  0  0
   34.2200   19.8020   32.1330 F   0  0  0  0  0  0  0  0  0  0  0  0
   35.1830   20.1440   34.0960 F   0  0  0  0  0  0  0  0  0  0  0  0
   35.4130   18.1340   33.1120 F   0  0  0  0  0  0  0  0  0  0  0  0
   37.9940   26.1890   35.1690 S   0  0  0  0  0  0  0  0  0  0  0  0
   38.5180   24.9360   36.2940 C   0  0  0  0  0  0  0  0  0  0  0  0
   37.8370   24.9830   37.5100 C   0  0  0  0  0  0  0  0  0  0  0  0
   37.0530   25.7010   37.7810 H   0  0  0  0  0  0  0  0  0  0  0  0
   38.0960   24.0840   38.5400 C   0  0  0  0  0  0  0  0  0  0  0  0
   37.5860   24.0970   39.4860 H   0  0  0  0  0  0  0  0  0  0  0  0
   39.0600   23.1270   38.3300 C   0  0  0  0  0  3  0  0  0  0  0  0
   39.7030   23.1220   37.1170 C   0  0  0  0  0  3  0  0  0  0  0  0
   39.4600   23.9820   36.1220 N   0  0  0  0  0  0  0  0  0  0  0  0
  1  6  1  0  0  0  0
  2  3  1  0  0  0  0
  2  1  2  0  0  0  0
  3  4  2  0  0  0  0
  4  5  1  0  0  0  0
  5 25  1  0  0  0  0
  6  5  2  0  0  0  0
  7  2  1  0  0  0  0
  8  3  1  0  0  0  0
  9  1  1  0  0  0  0
  9 10  1  0  0  0  0
 10 15  1  0  0  0  0
 10 14  1  0  0  0  0
 11 16  1  6  0  0  0
 11 21  1  0  0  0  0
 11 10  1  0  0  0  0
 12 18  1  0  0  0  0
 12 11  1  0  0  0  0
 13 12  1  0  0  0  0
 13  9  1  0  0  0  0
 17 12  1  0  0  0  0
 19 13  1  0  0  0  0
 20 13  1  0  0  0  0
 21 24  1  0  0  0  0
 21 23  1  0  0  0  0
 22 21  1  0  0  0  0
 25 26  1  0  0  0  0
 26 27  1  0  0  0  0
 27 28  1  0  0  0  0
 27 29  2  0  0  0  0
 29 30  1  0  0  0  0
 31 29  1  0  0  0  0
 32 31  2  0  0  0  0
 33 26  2  0  0  0  0
 33 32  1  0  0  0  0
M  END
>  <minimizedAffinity>
-5.67036676

$$$$

 OpenBabel03272503313D

 33 35  0  0  1  0  0  0  0  0999 V2000
   36.8010   24.4750   31.8510 C   0  0  0  0  0  0  0  0  0  0  0  0
   35.6860   23.7430   31.3940 C   0  0  0  0  0  0  0  0  0  0  0  0
   35.5740   22.4060   31.7880 C   0  0  0  0  0  0  0  0  0  0  0  0
   36.5690   21.9130   32.5970 N   0  0  0  0  0  0  0  0  0  0  0  0
   37.6040   22.6310   33.0090 C   0  0  0  0  0  0  0  0  0  0  0  0
   37.7330   23.9140   32.6430 N   0  0  0  0  0  0  0  0  0  0  0  0
   34.9420   24.1780   30.7660 H   0  0  0  0  0  0  0  0  0  0  0  0
   34.7570   21.7810   31.4850 H   0  0  0  0  0  0  0  0  0  0  0  0
   36.8890   25.8350   31.4310 N   0  0  0  0  0  0  0  0  0  0  0  0
   35.8290   26.7930   31.3250 C   0  0  0  0  0  0  0  0  0  0  0  0
   36.5500   28.1190   31.5730 C   0  0  2  0  0  0  0  0  0  0  0  0
   37.9880   27.7520   31.9000 C   0  0  0  0  0  0  0  0  0  0  0  0
   38.1010   26.5090   31.0250 C   0  0  0  0  0  0  0  0  0  0  0  0
   35.0430   26.6620   32.0930 H   0  0  0  0  0  0  0  0  0  0  0  0
   35.4040   26.8120   30.2910 H   0  0  0  0  0  0  0  0  0  0  0  0
   36.5860   28.7400   30.6560 H   0  0  0  0  0  0  0  0  0  0  0  0
   38.7070   28.5250   31.6070 H   0  0  0  0  0  0  0  0  0  0  0  0
   38.1300   27.5010   32.9610 H   0  0  0  0  0  0  0  0  0  0  0  0
   38.9810   25.9480   31.3560 H   0  0  0  0  0  0  0  0  0  0  0  0
   38.1170   26.8120   29.9640 H   0  0  0  0  0  0  0  0  0  0  0  0
   35.8960   28.9430   32.6410 C   0  0  0  0  0  0  0  0  0  0  0  0
   36.3440   28.4240   33.8440 F   0  0  0  0  0  0  0  0  0  0  0  0
   34.5410   28.6950   32.5890 F   0  0  0  0  0  0  0  0  0  0  0  0
   36.1440   30.2740   32.5400 F   0  0  0  0  0  0  0  0  0  0  0  0
   38.8630   21.9180   34.0560 S   0  0  0  0  0  0  0  0  0  0  0  0
   38.7590   22.4980   35.7180 C   0  0  0  0  0  0  0  0  0  0  0  0
   39.9380   22.2940   36.4360 C   0  0  0  0  0  0  0  0  0  0  0  0
   40.8540   21.8290   36.0500 H   0  0  0  0  0  0  0  0  0  0  0  0
   40.0710   22.6780   37.7670 C   0  0  0  0  0  0  0  0  0  0  0  0
   40.9670   22.5340   38.3430 H   0  0  0  0  0  0  0  0  0  0  0  0
   38.9930   23.2760   38.3740 C   0  0  0  0  0  3  0  0  0  0  0  0
   37.8550   23.4550   37.6250 C   0  0  0  0  0  3  0  0  0  0  0  0
   37.7190   23.0880   36.3460 N   0  0  0  0  0  0  0  0  0  0  0  0
  1  6  1  0  0  0  0
  2  3  1  0  0  0  0
  2  1  2  0  0  0  0
  3  4  2  0  0  0  0
  4  5  1  0  0  0  0
  5 25  1  0  0  0  0
  6  5  2  0  0  0  0
  7  2  1  0  0  0  0
  8  3  1  0  0  0  0
  9  1  1  0  0  0  0
 10  9  1  0  0  0  0
 10 11  1  0  0  0  0
 10 14  1  0  0  0  0
 11 16  1  6  0  0  0
 11 12  1  0  0  0  0
 11 21  1  0  0  0  0
 12 18  1  0  0  0  0
 13 19  1  0  0  0  0
 13  9  1  0  0  0  0
 13 12  1  0  0  0  0
 15 10  1  0  0  0  0
 17 12  1  0  0  0  0
 20 13  1  0  0  0  0
 21 22  1  0  0  0  0
 23 21  1  0  0  0  0
 24 21  1  0  0  0  0
 25 26  1  0  0  0  0
 26 33  2  0  0  0  0
 26 27  1  0  0  0  0
 27 29  2  0  0  0  0
 28 27  1  0  0  0  0
 29 30  1  0  0  0  0
 29 31  1  0  0  0  0
 32 31  2  0  0  0  0
 33 32  1  0  0  0  0
M  END
>  <minimizedAffinity>
-5.54621458

$$$$

 OpenBabel03272503313D

 33 35  0  0  1  0  0  0  0  0999 V2000
   38.1540   24.8830   35.5250 C   0  0  0  0  0  0  0  0  0  0  0  0
   38.2230   26.1800   36.0740 C   0  0  0  0  0  0  0  0  0  0  0  0
   37.9040   27.2590   35.2440 C   0  0  0  0  0  0  0  0  0  0  0  0
   37.5450   26.9630   33.9510 N   0  0  0  0  0  0  0  0  0  0  0  0
   37.4900   25.7300   33.4680 C   0  0  0  0  0  0  0  0  0  0  0  0
   37.7920   24.6790   34.2450 N   0  0  0  0  0  0  0  0  0  0  0  0
   38.5090   26.3520   37.0870 H   0  0  0  0  0  0  0  0  0  0  0  0
   37.9310   28.2760   35.5830 H   0  0  0  0  0  0  0  0  0  0  0  0
   38.4860   23.8030   36.3940 N   0  0  0  0  0  0  0  0  0  0  0  0
   39.1250   22.5650   36.0560 C   0  0  0  0  0  0  0  0  0  0  0  0
   39.8550   22.2000   37.3500 C   0  0  2  0  0  0  0  0  0  0  0  0
   39.6220   23.3650   38.2980 C   0  0  0  0  0  0  0  0  0  0  0  0
   38.2320   23.7640   37.8170 C   0  0  0  0  0  0  0  0  0  0  0  0
   39.8660   22.6650   35.2400 H   0  0  0  0  0  0  0  0  0  0  0  0
   38.3710   21.7680   35.8410 H   0  0  0  0  0  0  0  0  0  0  0  0
   39.4070   21.3080   37.8320 H   0  0  0  0  0  0  0  0  0  0  0  0
   39.6190   23.0670   39.3520 H   0  0  0  0  0  0  0  0  0  0  0  0
   40.3400   24.1820   38.1480 H   0  0  0  0  0  0  0  0  0  0  0  0
   38.0240   24.7700   38.1960 H   0  0  0  0  0  0  0  0  0  0  0  0
   37.5050   22.9930   38.1260 H   0  0  0  0  0  0  0  0  0  0  0  0
   41.3070   21.9030   37.1300 C   0  0  0  0  0  0  0  0  0  0  0  0
   41.9490   23.1290   37.1440 F   0  0  0  0  0  0  0  0  0  0  0  0
   41.4430   21.4050   35.8520 F   0  0  0  0  0  0  0  0  0  0  0  0
   41.8370   21.0430   38.0370 F   0  0  0  0  0  0  0  0  0  0  0  0
   37.0200   25.4230   31.7730 S   0  0  0  0  0  0  0  0  0  0  0  0
   36.9990   23.7030   31.3850 C   0  0  0  0  0  0  0  0  0  0  0  0
   35.7400   23.1270   31.5550 C   0  0  0  0  0  0  0  0  0  0  0  0
   34.8350   23.6470   31.8900 H   0  0  0  0  0  0  0  0  0  0  0  0
   35.5020   21.7790   31.3050 C   0  0  0  0  0  0  0  0  0  0  0  0
   34.5430   21.3100   31.4270 H   0  0  0  0  0  0  0  0  0  0  0  0
   36.5570   21.0080   30.8770 C   0  0  0  0  0  3  0  0  0  0  0  0
   37.7770   21.6220   30.7250 C   0  0  0  0  0  3  0  0  0  0  0  0
   38.0140   22.9160   30.9640 N   0  0  0  0  0  0  0  0  0  0  0  0
  1  2  1  0  0  0  0
  1  9  1  0  0  0  0
  2  7  1  0  0  0  0
  3  8  1  0  0  0  0
  3  2  2  0  0  0  0
  4  3  1  0  0  0  0
  5  4  2  0  0  0  0
  5  6  1  0  0  0  0
  6  1  2  0  0  0  0
  9 13  1  0  0  0  0
 10  9  1  0  0  0  0
 10 11  1  0  0  0  0
 11 16  1  1  0  0  0
 11 12  1  0  0  0  0
 12 17  1  0  0  0  0
 13 20  1  0  0  0  0
 13 19  1  0  0  0  0
 13 12  1  0  0  0  0
 14 10  1  0  0  0  0
 15 10  1  0  0  0  0
 18 12  1  0  0  0  0
 21 22  1  0  0  0  0
 21 11  1  0  0  0  0
 21 24  1  0  0  0  0
 23 21  1  0  0  0  0
 25  5  1  0  0  0  0
 26 27  1  0  0  0  0
 26 25  1  0  0  0  0
 27 28  1  0  0  0  0
 29 30  1  0  0  0  0
 29 27  2  0  0  0  0
 31 29  1  0  0  0  0
 32 31  2  0  0  0  0
 32 33  1  0  0  0  0
 33 26  2  0  0  0  0
M  END
>  <minimizedAffinity>
-5.47117996

$$$$

 OpenBabel03272503313D

 33 35  0  0  1  0  0  0  0  0999 V2000
   37.2940   27.2060   33.0070 C   0  0  0  0  0  0  0  0  0  0  0  0
   38.3820   27.6210   32.2100 C   0  0  0  0  0  0  0  0  0  0  0  0
   39.4350   26.7210   32.0220 C   0  0  0  0  0  0  0  0  0  0  0  0
   39.3220   25.4960   32.6350 N   0  0  0  0  0  0  0  0  0  0  0  0
   38.2830   25.1400   33.3770 C   0  0  0  0  0  0  0  0  0  0  0  0
   37.2610   25.9850   33.5720 N   0  0  0  0  0  0  0  0  0  0  0  0
   38.4170   28.5860   31.7580 H   0  0  0  0  0  0  0  0  0  0  0  0
   40.2980   26.9570   31.4310 H   0  0  0  0  0  0  0  0  0  0  0  0
   36.2360   28.1460   33.1820 N   0  0  0  0  0  0  0  0  0  0  0  0
   35.6820   28.6290   34.4120 C   0  0  0  0  0  0  0  0  0  0  0  0
   35.1990   30.0300   34.0340 C   0  0  2  0  0  0  0  0  0  0  0  0
   35.6320   30.2420   32.5930 C   0  0  0  0  0  0  0  0  0  0  0  0
   35.5120   28.7990   32.1150 C   0  0  0  0  0  0  0  0  0  0  0  0
   36.4300   28.7130   35.2240 H   0  0  0  0  0  0  0  0  0  0  0  0
   34.7960   28.0230   34.7210 H   0  0  0  0  0  0  0  0  0  0  0  0
   34.0930   30.0950   34.0430 H   0  0  0  0  0  0  0  0  0  0  0  0
   34.9660   30.9120   32.0380 H   0  0  0  0  0  0  0  0  0  0  0  0
   36.6670   30.5990   32.5090 H   0  0  0  0  0  0  0  0  0  0  0  0
   36.0610   28.7140   31.1710 H   0  0  0  0  0  0  0  0  0  0  0  0
   34.4450   28.5230   32.0570 H   0  0  0  0  0  0  0  0  0  0  0  0
   35.7130   31.0890   34.9630 C   0  0  0  0  0  0  0  0  0  0  0  0
   36.5730   30.4420   35.8340 F   0  0  0  0  0  0  0  0  0  0  0  0
   34.6500   31.5320   35.7210 F   0  0  0  0  0  0  0  0  0  0  0  0
   36.3170   32.1280   34.3330 F   0  0  0  0  0  0  0  0  0  0  0  0
   38.2090   23.5300   34.1480 S   0  0  0  0  0  0  0  0  0  0  0  0
   38.3630   23.6210   35.9020 C   0  0  0  0  0  0  0  0  0  0  0  0
   39.4180   22.8520   36.3920 C   0  0  0  0  0  0  0  0  0  0  0  0
   40.1040   22.2430   35.7910 H   0  0  0  0  0  0  0  0  0  0  0  0
   39.7160   22.7810   37.7500 C   0  0  0  0  0  0  0  0  0  0  0  0
   40.5230   22.1980   38.1540 H   0  0  0  0  0  0  0  0  0  0  0  0
   38.9300   23.5010   38.6190 C   0  0  0  0  0  3  0  0  0  0  0  0
   37.9030   24.2430   38.0870 C   0  0  0  0  0  3  0  0  0  0  0  0
   37.6100   24.3160   36.7840 N   0  0  0  0  0  0  0  0  0  0  0  0
  1  9  1  0  0  0  0
  1  6  1  0  0  0  0
  2  1  2  0  0  0  0
  3  2  1  0  0  0  0
  3  4  2  0  0  0  0
  4  5  1  0  0  0  0
  5  6  2  0  0  0  0
  5 25  1  0  0  0  0
  7  2  1  0  0  0  0
  8  3  1  0  0  0  0
  9 10  1  0  0  0  0
 10 15  1  0  0  0  0
 10 14  1  0  0  0  0
 11 16  1  1  0  0  0
 11 10  1  0  0  0  0
 11 21  1  0  0  0  0
 12 11  1  0  0  0  0
 13 12  1  0  0  0  0
 13  9  1  0  0  0  0
 17 12  1  0  0  0  0
 18 12  1  0  0  0  0
 19 13  1  0  0  0  0
 20 13  1  0  0  0  0
 21 23  1  0  0  0  0
 21 22  1  0  0  0  0
 24 21  1  0  0  0  0
 25 26  1  0  0  0  0
 26 27  2  0  0  0  0
 26 33  1  0  0  0  0
 27 29  1  0  0  0  0
 28 27  1  0  0  0  0
 29 30  1  0  0  0  0
 29 31  2  0  0  0  0
 32 31  1  0  0  0  0
 33 32  2  0  0  0  0
M  END
>  <minimizedAffinity>
-5.42013788

$$$$

 OpenBabel03272503313D

 33 35  0  0  1  0  0  0  0  0999 V2000
   37.7870   22.9260   35.2760 C   0  0  0  0  0  0  0  0  0  0  0  0
   37.5250   22.5670   36.6140 C   0  0  0  0  0  0  0  0  0  0  0  0
   37.7050   23.5410   37.6000 C   0  0  0  0  0  0  0  0  0  0  0  0
   38.1270   24.7800   37.1790 N   0  0  0  0  0  0  0  0  0  0  0  0
   38.3630   25.0830   35.9110 C   0  0  0  0  0  0  0  0  0  0  0  0
   38.1980   24.1650   34.9480 N   0  0  0  0  0  0  0  0  0  0  0  0
   37.1990   21.5880   36.8840 H   0  0  0  0  0  0  0  0  0  0  0  0
   37.5280   23.3510   38.6400 H   0  0  0  0  0  0  0  0  0  0  0  0
   37.5950   21.9110   34.2930 N   0  0  0  0  0  0  0  0  0  0  0  0
   36.4400   21.0870   34.0920 C   0  0  0  0  0  0  0  0  0  0  0  0
   36.4940   20.7940   32.5920 C   0  0  2  0  0  0  0  0  0  0  0  0
   37.6710   21.5930   32.0570 C   0  0  0  0  0  0  0  0  0  0  0  0
   38.5620   21.5220   33.2910 C   0  0  0  0  0  0  0  0  0  0  0  0
   35.4890   21.6040   34.3240 H   0  0  0  0  0  0  0  0  0  0  0  0
   36.5350   20.1190   34.6430 H   0  0  0  0  0  0  0  0  0  0  0  0
   36.7220   19.7280   32.3940 H   0  0  0  0  0  0  0  0  0  0  0  0
   38.1440   21.1300   31.1850 H   0  0  0  0  0  0  0  0  0  0  0  0
   37.4050   22.6330   31.8230 H   0  0  0  0  0  0  0  0  0  0  0  0
   39.3360   22.2890   33.1880 H   0  0  0  0  0  0  0  0  0  0  0  0
   38.9430   20.4920   33.4060 H   0  0  0  0  0  0  0  0  0  0  0  0
   35.2050   21.1080   31.8950 C   0  0  0  0  0  0  0  0  0  0  0  0
   35.5230   21.2310   30.5520 F   0  0  0  0  0  0  0  0  0  0  0  0
   34.7960   22.3550   32.3150 F   0  0  0  0  0  0  0  0  0  0  0  0
   34.2280   20.1890   32.1020 F   0  0  0  0  0  0  0  0  0  0  0  0
   38.9160   26.7140   35.4400 S   0  0  0  0  0  0  0  0  0  0  0  0
   37.9910   27.3700   34.0890 C   0  0  0  0  0  0  0  0  0  0  0  0
   36.8170   28.0040   34.4950 C   0  0  0  0  0  0  0  0  0  0  0  0
   36.4680   28.1080   35.5300 H   0  0  0  0  0  0  0  0  0  0  0  0
   35.9400   28.5910   33.5890 C   0  0  0  0  0  0  0  0  0  0  0  0
   35.0300   29.0860   33.8740 H   0  0  0  0  0  0  0  0  0  0  0  0
   36.2600   28.5310   32.2530 C   0  0  0  0  0  3  0  0  0  0  0  0
   37.4270   27.8960   31.9030 C   0  0  0  0  0  3  0  0  0  0  0  0
   38.2760   27.3290   32.7680 N   0  0  0  0  0  0  0  0  0  0  0  0
  1  2  1  0  0  0  0
  2  7  1  0  0  0  0
  2  3  2  0  0  0  0
  3  8  1  0  0  0  0
  4  3  1  0  0  0  0
  5  4  2  0  0  0  0
  6  1  2  0  0  0  0
  6  5  1  0  0  0  0
  9  1  1  0  0  0  0
 10  9  1  0  0  0  0
 10 14  1  0  0  0  0
 10 15  1  0  0  0  0
 11 16  1  6  0  0  0
 11 10  1  0  0  0  0
 12 11  1  0  0  0  0
 12 13  1  0  0  0  0
 13 20  1  0  0  0  0
 13  9  1  0  0  0  0
 17 12  1  0  0  0  0
 18 12  1  0  0  0  0
 19 13  1  0  0  0  0
 21 24  1  0  0  0  0
 21 23  1  0  0  0  0
 21 11  1  0  0  0  0
 22 21  1  0  0  0  0
 25  5  1  0  0  0  0
 26 27  1  0  0  0  0
 26 25  1  0  0  0  0
 27 28  1  0  0  0  0
 29 30  1  0  0  0  0
 29 27  2  0  0  0  0
 31 29  1  0  0  0  0
 32 31  2  0  0  0  0
 32 33  1  0  0  0  0
 33 26  2  0  0  0  0
M  END
>  <minimizedAffinity>
-5.41660547

$$$$

 OpenBabel03272503313D

 33 35  0  0  1  0  0  0  0  0999 V2000
   37.7620   25.6290   33.8930 C   0  0  0  0  0  0  0  0  0  0  0  0
   37.6830   27.0170   33.6550 C   0  0  0  0  0  0  0  0  0  0  0  0
   36.9330   27.4510   32.5580 C   0  0  0  0  0  0  0  0  0  0  0  0
   36.3290   26.4790   31.7960 N   0  0  0  0  0  0  0  0  0  0  0  0
   36.4240   25.1820   32.0500 C   0  0  0  0  0  0  0  0  0  0  0  0
   37.1380   24.7420   33.0960 N   0  0  0  0  0  0  0  0  0  0  0  0
   38.1740   27.7280   34.2810 H   0  0  0  0  0  0  0  0  0  0  0  0
   36.8220   28.4870   32.3070 H   0  0  0  0  0  0  0  0  0  0  0  0
   38.5340   25.2170   35.0180 N   0  0  0  0  0  0  0  0  0  0  0  0
   38.2850   25.4870   36.4040 C   0  0  0  0  0  0  0  0  0  0  0  0
   38.9070   24.2740   37.0990 C   0  0  2  0  0  0  0  0  0  0  0  0
   39.3820   23.3570   35.9830 C   0  0  0  0  0  0  0  0  0  0  0  0
   39.7440   24.4270   34.9590 C   0  0  0  0  0  0  0  0  0  0  0  0
   37.2080   25.5310   36.6530 H   0  0  0  0  0  0  0  0  0  0  0  0
   38.8300   26.4030   36.7400 H   0  0  0  0  0  0  0  0  0  0  0  0
   39.8090   24.5550   37.6780 H   0  0  0  0  0  0  0  0  0  0  0  0
   40.2490   22.7510   36.2640 H   0  0  0  0  0  0  0  0  0  0  0  0
   38.5840   22.7040   35.6030 H   0  0  0  0  0  0  0  0  0  0  0  0
   39.8350   23.9390   33.9840 H   0  0  0  0  0  0  0  0  0  0  0  0
   40.6490   24.9610   35.2970 H   0  0  0  0  0  0  0  0  0  0  0  0
   37.9610   23.6030   38.0480 C   0  0  0  0  0  0  0  0  0  0  0  0
   37.4390   24.6140   38.8370 F   0  0  0  0  0  0  0  0  0  0  0  0
   38.7070   22.8010   38.8840 F   0  0  0  0  0  0  0  0  0  0  0  0
   36.9860   22.8830   37.4370 F   0  0  0  0  0  0  0  0  0  0  0  0
   35.6150   23.9770   31.0090 S   0  0  0  0  0  0  0  0  0  0  0  0
   36.0540   22.3230   31.4350 C   0  0  0  0  0  0  0  0  0  0  0  0
   35.1100   21.7080   32.2580 C   0  0  0  0  0  0  0  0  0  0  0  0
   34.1810   22.1640   32.6230 H   0  0  0  0  0  0  0  0  0  0  0  0
   35.2610   20.4020   32.7120 C   0  0  0  0  0  0  0  0  0  0  0  0
   34.5490   19.9040   33.3450 H   0  0  0  0  0  0  0  0  0  0  0  0
   36.3860   19.7130   32.3260 C   0  0  0  0  0  3  0  0  0  0  0  0
   37.2860   20.3610   31.5150 C   0  0  0  0  0  3  0  0  0  0  0  0
   37.1490   21.6170   31.0750 N   0  0  0  0  0  0  0  0  0  0  0  0
  1  9  1  0  0  0  0
  2  1  1  0  0  0  0
  2  7  1  0  0  0  0
  3  2  2  0  0  0  0
  4  5  2  0  0  0  0
  4  3  1  0  0  0  0
  5  6  1  0  0  0  0
  6  1  2  0  0  0  0
  8  3  1  0  0  0  0
  9 10  1  0  0  0  0
 10 14  1  0  0  0  0
 10 15  1  0  0  0  0
 10 11  1  0  0  0  0
 11 16  1  1  0  0  0
 11 21  1  0  0  0  0
 12 17  1  0  0  0  0
 12 11  1  0  0  0  0
 13  9  1  0  0  0  0
 13 20  1  0  0  0  0
 13 12  1  0  0  0  0
 18 12  1  0  0  0  0
 19 13  1  0  0  0  0
 21 22  1  0  0  0  0
 21 23  1  0  0  0  0
 24 21  1  0  0  0  0
 25 26  1  0  0  0  0
 25  5  1  0  0  0  0
 26 27  1  0  0  0  0
 27 28  1  0  0  0  0
 27 29  2  0  0  0  0
 29 30  1  0  0  0  0
 31 29  1  0  0  0  0
 32 31  2  0  0  0  0
 33 26  2  0  0  0  0
 33 32  1  0  0  0  0
M  END
>  <minimizedAffinity>
-5.41037989

$$$$

 OpenBabel03272503313D

 33 35  0  0  1  0  0  0  0  0999 V2000
   37.4380   24.1450   32.9420 C   0  0  0  0  0  0  0  0  0  0  0  0
   36.7100   23.1260   32.2910 C   0  0  0  0  0  0  0  0  0  0  0  0
   35.8390   23.4990   31.2640 C   0  0  0  0  0  0  0  0  0  0  0  0
   35.7640   24.8400   30.9700 N   0  0  0  0  0  0  0  0  0  0  0  0
   36.4650   25.7710   31.6020 C   0  0  0  0  0  0  0  0  0  0  0  0
   37.3060   25.4370   32.5910 N   0  0  0  0  0  0  0  0  0  0  0  0
   36.8080   22.1000   32.5620 H   0  0  0  0  0  0  0  0  0  0  0  0
   35.2500   22.7880   30.7190 H   0  0  0  0  0  0  0  0  0  0  0  0
   38.3170   23.7340   33.9860 N   0  0  0  0  0  0  0  0  0  0  0  0
   38.8100   24.5160   35.0810 C   0  0  0  0  0  0  0  0  0  0  0  0
   39.0260   23.4670   36.1730 C   0  0  2  0  0  0  0  0  0  0  0  0
   38.5240   22.1560   35.5900 C   0  0  0  0  0  0  0  0  0  0  0  0
   38.8850   22.4120   34.1320 C   0  0  0  0  0  0  0  0  0  0  0  0
   38.0820   25.2670   35.4430 H   0  0  0  0  0  0  0  0  0  0  0  0
   39.7980   24.9770   34.8350 H   0  0  0  0  0  0  0  0  0  0  0  0
   40.1030   23.3220   36.3900 H   0  0  0  0  0  0  0  0  0  0  0  0
   39.0450   21.2800   35.9920 H   0  0  0  0  0  0  0  0  0  0  0  0
   37.4400   22.0260   35.7110 H   0  0  0  0  0  0  0  0  0  0  0  0
   38.3350   21.6900   33.5200 H   0  0  0  0  0  0  0  0  0  0  0  0
   39.9820   22.3760   34.0170 H   0  0  0  0  0  0  0  0  0  0  0  0
   38.3580   23.8300   37.4640 C   0  0  0  0  0  0  0  0  0  0  0  0
   37.1230   23.2050   37.4390 F   0  0  0  0  0  0  0  0  0  0  0  0
   38.1110   25.1850   37.4410 F   0  0  0  0  0  0  0  0  0  0  0  0
   39.0730   23.4930   38.5680 F   0  0  0  0  0  0  0  0  0  0  0  0
   36.3100   27.4960   31.1670 S   0  0  0  0  0  0  0  0  0  0  0  0
   35.4420   28.4190   32.3940 C   0  0  0  0  0  0  0  0  0  0  0  0
   36.2450   28.7600   33.4820 C   0  0  0  0  0  0  0  0  0  0  0  0
   37.3050   28.5050   33.6040 H   0  0  0  0  0  0  0  0  0  0  0  0
   35.7590   29.4890   34.5630 C   0  0  0  0  0  0  0  0  0  0  0  0
   36.3550   29.7650   35.4130 H   0  0  0  0  0  0  0  0  0  0  0  0
   34.4400   29.8750   34.5370 C   0  0  0  0  0  3  0  0  0  0  0  0
   33.6900   29.5150   33.4430 C   0  0  0  0  0  3  0  0  0  0  0  0
   34.1490   28.8150   32.4010 N   0  0  0  0  0  0  0  0  0  0  0  0
  1  9  1  0  0  0  0
  2  7  1  0  0  0  0
  2  1  2  0  0  0  0
  3  2  1  0  0  0  0
  4  3  2  0  0  0  0
  4  5  1  0  0  0  0
  5  6  2  0  0  0  0
  6  1  1  0  0  0  0
  8  3  1  0  0  0  0
  9 13  1  0  0  0  0
  9 10  1  0  0  0  0
 10 14  1  0  0  0  0
 10 11  1  0  0  0  0
 11 16  1  1  0  0  0
 11 21  1  0  0  0  0
 12 18  1  0  0  0  0
 12 17  1  0  0  0  0
 12 11  1  0  0  0  0
 13 12  1  0  0  0  0
 15 10  1  0  0  0  0
 19 13  1  0  0  0  0
 20 13  1  0  0  0  0
 21 24  1  0  0  0  0
 22 21  1  0  0  0  0
 23 21  1  0  0  0  0
 25  5  1  0  0  0  0
 25 26  1  0  0  0  0
 26 33  2  0  0  0  0
 26 27  1  0  0  0  0
 27 28  1  0  0  0  0
 27 29  2  0  0  0  0
 29 30  1  0  0  0  0
 31 29  1  0  0  0  0
 32 31  2  0  0  0  0
 33 32  1  0  0  0  0
M  END
>  <minimizedAffinity>
-5.3881526

$$$$

 OpenBabel03272503313D

 33 35  0  0  1  0  0  0  0  0999 V2000
   37.1000   26.9640   33.8140 C   0  0  0  0  0  0  0  0  0  0  0  0
   36.7770   26.6190   32.4850 C   0  0  0  0  0  0  0  0  0  0  0  0
   35.8570   27.4230   31.8060 C   0  0  0  0  0  0  0  0  0  0  0  0
   35.3390   28.4930   32.4960 N   0  0  0  0  0  0  0  0  0  0  0  0
   35.6660   28.7880   33.7460 C   0  0  0  0  0  0  0  0  0  0  0  0
   36.5460   28.0310   34.4180 N   0  0  0  0  0  0  0  0  0  0  0  0
   37.2100   25.7750   31.9980 H   0  0  0  0  0  0  0  0  0  0  0  0
   35.5580   27.2300   30.7940 H   0  0  0  0  0  0  0  0  0  0  0  0
   38.0400   26.1250   34.4810 N   0  0  0  0  0  0  0  0  0  0  0  0
   38.4510   26.1810   35.8530 C   0  0  0  0  0  0  0  0  0  0  0  0
   38.8130   24.7260   36.1550 C   0  0  2  0  0  0  0  0  0  0  0  0
   38.4640   23.9450   34.8980 C   0  0  0  0  0  0  0  0  0  0  0  0
   38.7660   25.0330   33.8740 C   0  0  0  0  0  0  0  0  0  0  0  0
   37.6440   26.5010   36.5380 H   0  0  0  0  0  0  0  0  0  0  0  0
   39.3720   26.8040   35.9720 H   0  0  0  0  0  0  0  0  0  0  0  0
   39.9020   24.6000   36.3100 H   0  0  0  0  0  0  0  0  0  0  0  0
   39.0940   23.0610   34.7520 H   0  0  0  0  0  0  0  0  0  0  0  0
   37.4060   23.6520   34.8610 H   0  0  0  0  0  0  0  0  0  0  0  0
   38.2980   24.7400   32.9290 H   0  0  0  0  0  0  0  0  0  0  0  0
   39.8580   25.1890   33.8210 H   0  0  0  0  0  0  0  0  0  0  0  0
   38.1270   24.2020   37.3800 C   0  0  0  0  0  0  0  0  0  0  0  0
   38.0160   25.2810   38.2400 F   0  0  0  0  0  0  0  0  0  0  0  0
   38.9820   23.3060   37.9860 F   0  0  0  0  0  0  0  0  0  0  0  0
   36.9240   23.6240   37.1340 F   0  0  0  0  0  0  0  0  0  0  0  0
   34.9450   30.1930   34.5810 S   0  0  0  0  0  0  0  0  0  0  0  0
   35.8090   31.6910   34.2350 C   0  0  0  0  0  0  0  0  0  0  0  0
   36.2360   32.3460   35.3900 C   0  0  0  0  0  0  0  0  0  0  0  0
   36.0760   32.0050   36.4200 H   0  0  0  0  0  0  0  0  0  0  0  0
   36.9370   33.5480   35.3440 C   0  0  0  0  0  0  0  0  0  0  0  0
   37.2780   34.0730   36.2180 H   0  0  0  0  0  0  0  0  0  0  0  0
   37.2060   34.0880   34.1100 C   0  0  0  0  0  3  0  0  0  0  0  0
   36.7650   33.4050   33.0020 C   0  0  0  0  0  3  0  0  0  0  0  0
   36.0910   32.2510   33.0380 N   0  0  0  0  0  0  0  0  0  0  0  0
  1  6  1  0  0  0  0
  1  9  1  0  0  0  0
  2  1  2  0  0  0  0
  3  2  1  0  0  0  0
  3  4  2  0  0  0  0
  4  5  1  0  0  0  0
  5  6  2  0  0  0  0
  5 25  1  0  0  0  0
  7  2  1  0  0  0  0
  8  3  1  0  0  0  0
  9 10  1  0  0  0  0
 10 15  1  0  0  0  0
 10 11  1  0  0  0  0
 10 14  1  0  0  0  0
 11 16  1  1  0  0  0
 11 21  1  0  0  0  0
 12 11  1  0  0  0  0
 13  9  1  0  0  0  0
 13 12  1  0  0  0  0
 17 12  1  0  0  0  0
 18 12  1  0  0  0  0
 19 13  1  0  0  0  0
 20 13  1  0  0  0  0
 21 23  1  0  0  0  0
 21 22  1  0  0  0  0
 24 21  1  0  0  0  0
 26 25  1  0  0  0  0
 26 27  1  0  0  0  0
 27 28  1  0  0  0  0
 29 27  2  0  0  0  0
 29 30  1  0  0  0  0
 31 29  1  0  0  0  0
 32 33  1  0  0  0  0
 32 31  2  0  0  0  0
 33 26  2  0  0  0  0
M  END
>  <minimizedAffinity>
-5.32580471

$$$$

 OpenBabel03272503313D

 33 35  0  0  1  0  0  0  0  0999 V2000
   38.1290   25.0600   35.4980 C   0  0  0  0  0  0  0  0  0  0  0  0
   38.3580   26.2880   36.1530 C   0  0  0  0  0  0  0  0  0  0  0  0
   38.0800   27.4650   35.4540 C   0  0  0  0  0  0  0  0  0  0  0  0
   37.6010   27.3270   34.1720 N   0  0  0  0  0  0  0  0  0  0  0  0
   37.3970   26.1560   33.5870 C   0  0  0  0  0  0  0  0  0  0  0  0
   37.6570   25.0130   34.2380 N   0  0  0  0  0  0  0  0  0  0  0  0
   38.7320   26.3350   37.1510 H   0  0  0  0  0  0  0  0  0  0  0  0
   38.2260   28.4380   35.8790 H   0  0  0  0  0  0  0  0  0  0  0  0
   38.4240   23.8770   36.2360 N   0  0  0  0  0  0  0  0  0  0  0  0
   39.1610   22.7280   35.8000 C   0  0  0  0  0  0  0  0  0  0  0  0
   39.7650   22.2030   37.1040 C   0  0  2  0  0  0  0  0  0  0  0  0
   39.3680   23.2050   38.1760 C   0  0  0  0  0  0  0  0  0  0  0  0
   38.0190   23.6180   37.6000 C   0  0  0  0  0  0  0  0  0  0  0  0
   39.9800   22.9750   35.0980 H   0  0  0  0  0  0  0  0  0  0  0  0
   38.4790   21.9440   35.3880 H   0  0  0  0  0  0  0  0  0  0  0  0
   39.3170   21.2330   37.3990 H   0  0  0  0  0  0  0  0  0  0  0  0
   39.2680   22.7540   39.1690 H   0  0  0  0  0  0  0  0  0  0  0  0
   40.0530   24.0620   38.2280 H   0  0  0  0  0  0  0  0  0  0  0  0
   37.7170   24.5480   38.0930 H   0  0  0  0  0  0  0  0  0  0  0  0
   37.3060   22.7830   37.7090 H   0  0  0  0  0  0  0  0  0  0  0  0
   41.2470   21.9960   37.0120 C   0  0  0  0  0  0  0  0  0  0  0  0
   41.8100   23.2570   37.1120 F   0  0  0  0  0  0  0  0  0  0  0  0
   41.5280   21.5420   35.7420 F   0  0  0  0  0  0  0  0  0  0  0  0
   41.7430   21.1450   37.9460 F   0  0  0  0  0  0  0  0  0  0  0  0
   36.7780   26.0560   31.9150 S   0  0  0  0  0  0  0  0  0  0  0  0
   37.2820   27.4310   30.9320 C   0  0  0  0  0  0  0  0  0  0  0  0
   38.6500   27.4260   30.6590 C   0  0  0  0  0  0  0  0  0  0  0  0
   39.3710   26.6720   30.9980 H   0  0  0  0  0  0  0  0  0  0  0  0
   39.2570   28.4210   29.9000 C   0  0  0  0  0  0  0  0  0  0  0  0
   40.3080   28.4420   29.6750 H   0  0  0  0  0  0  0  0  0  0  0  0
   38.4640   29.4320   29.4110 C   0  0  0  0  0  3  0  0  0  0  0  0
   37.1230   29.3910   29.7060 C   0  0  0  0  0  3  0  0  0  0  0  0
   36.5310   28.4390   30.4360 N   0  0  0  0  0  0  0  0  0  0  0  0
  1  2  1  0  0  0  0
  1  9  1  0  0  0  0
  2  7  1  0  0  0  0
  3  8  1  0  0  0  0
  3  2  2  0  0  0  0
  4  3  1  0  0  0  0
  5  4  2  0  0  0  0
  5  6  1  0  0  0  0
  6  1  2  0  0  0  0
  9 13  1  0  0  0  0
 10  9  1  0  0  0  0
 10 11  1  0  0  0  0
 11 16  1  1  0  0  0
 11 12  1  0  0  0  0
 12 18  1  0  0  0  0
 12 17  1  0  0  0  0
 13 20  1  0  0  0  0
 13 19  1  0  0  0  0
 13 12  1  0  0  0  0
 14 10  1  0  0  0  0
 15 10  1  0  0  0  0
 21 11  1  0  0  0  0
 21 22  1  0  0  0  0
 21 24  1  0  0  0  0
 23 21  1  0  0  0  0
 25  5  1  0  0  0  0
 26 25  1  0  0  0  0
 27 26  1  0  0  0  0
 27 28  1  0  0  0  0
 29 27  2  0  0  0  0
 30 29  1  0  0  0  0
 31 32  2  0  0  0  0
 31 29  1  0  0  0  0
 32 33  1  0  0  0  0
 33 26  2  0  0  0  0
M  END
>  <minimizedAffinity>
-5.31723309

$$$$
