
 OpenBabel03272510113D

 34 37  0  0  0  0  0  0  0  0999 V2000
   33.1640   28.3290   49.0630 C   0  0  0  0  0  0  0  0  0  0  0  0
   33.4510   28.9950   50.2010 C   0  0  0  0  0  0  0  0  0  0  0  0
   34.6950   29.4990   50.5210 C   0  0  0  0  0  0  0  0  0  0  0  0
   35.7380   29.3380   49.6600 C   0  0  0  0  0  0  0  0  0  0  0  0
   35.4510   28.6490   48.4760 C   0  0  0  0  0  0  0  0  0  0  0  0
   34.2200   28.1750   48.2080 N   0  0  0  0  0  0  0  0  0  0  0  0
   32.6830   29.1690   50.9420 H   0  0  0  0  0  0  0  0  0  0  0  0
   34.9150   30.0330   51.4380 H   0  0  0  0  0  0  0  0  0  0  0  0
   36.2440   28.4910   47.7550 H   0  0  0  0  0  0  0  0  0  0  0  0
   30.7550   27.8930   49.5560 C   0  0  0  0  0  0  0  0  0  0  0  0
   31.8770   27.8030   48.7200 C   0  0  0  0  0  0  0  0  0  0  0  0
   31.6840   27.1610   47.5110 C   0  0  0  0  0  0  0  0  0  0  0  0
   30.4530   26.6610   47.1930 N   0  0  0  0  0  0  0  0  0  0  0  0
   29.4100   26.7870   48.0540 C   0  0  0  0  0  0  0  0  0  0  0  0
   29.5470   27.4040   49.2440 N   0  0  0  0  0  0  0  0  0  0  0  0
   30.8530   28.3850   50.5130 H   0  0  0  0  0  0  0  0  0  0  0  0
   32.5390   27.0820   46.8540 H   0  0  0  0  0  0  0  0  0  0  0  0
   28.5040   26.3450   47.6640 H   0  0  0  0  0  0  0  0  0  0  0  0
   37.0540   29.7840   49.8310 O   0  0  0  0  0  0  0  0  0  0  0  0
   37.6330   30.6710   48.9380 C   0  0  0  0  0  0  0  0  0  0  0  0
   38.1830   31.8060   49.5390 C   0  0  0  0  0  0  0  0  0  0  0  0
   38.7280   32.6060   48.5250 C   0  0  0  0  0  0  0  0  0  0  0  0
   38.4870   31.9290   47.3840 N   0  0  0  0  0  0  0  0  0  0  0  0
   37.8530   30.8070   47.6150 N   0  0  0  0  0  0  0  0  0  0  0  0
   38.2730   32.1780   50.5530 H   0  0  0  0  0  0  0  0  0  0  0  0
   39.2410   33.5570   48.5500 H   0  0  0  0  0  0  0  0  0  0  0  0
   38.8640   32.3600   46.0760 C   0  0  0  0  0  0  0  0  0  0  0  0
   37.9520   32.2010   45.0520 C   0  0  0  0  0  0  0  0  0  0  0  0
   36.9830   31.7780   45.1620 H   0  0  0  0  0  0  0  0  0  0  0  0
   38.3200   32.6170   43.7900 C   0  0  0  0  0  0  0  0  0  0  0  0
   37.6530   32.5260   42.9260 H   0  0  0  0  0  0  0  0  0  0  0  0
   39.5570   33.1900   43.4900 C   0  0  0  0  0  3  0  0  0  0  0  0
   40.4170   33.3160   44.5790 C   0  0  0  0  0  3  0  0  0  0  0  0
   40.0690   32.9100   45.8250 N   0  0  0  0  0  0  0  0  0  0  0  0
  1  2  1  0  0  0  0
  2  3  2  0  0  0  0
  2  7  1  0  0  0  0
  3  8  1  0  0  0  0
  4 19  1  0  0  0  0
  4  3  1  0  0  0  0
  5  4  2  0  0  0  0
  6  5  1  0  0  0  0
  6  1  2  0  0  0  0
  9  5  1  0  0  0  0
 10 16  1  0  0  0  0
 11  1  1  0  0  0  0
 11 10  2  0  0  0  0
 12 11  1  0  0  0  0
 13 12  2  0  0  0  0
 13 14  1  0  0  0  0
 14 15  2  0  0  0  0
 15 10  1  0  0  0  0
 17 12  1  0  0  0  0
 18 14  1  0  0  0  0
 20 21  1  0  0  0  0
 20 19  1  0  0  0  0
 21 25  1  0  0  0  0
 22 26  1  0  0  0  0
 22 21  2  0  0  0  0
 23 24  1  0  0  0  0
 23 22  1  0  0  0  0
 24 20  2  0  0  0  0
 27 23  1  0  0  0  0
 28 29  1  0  0  0  0
 28 27  2  0  0  0  0
 30 28  1  0  0  0  0
 31 30  1  0  0  0  0
 32 30  2  0  0  0  0
 32 33  1  0  0  0  0
 33 34  2  0  0  0  0
 34 27  1  0  0  0  0
M  END
>  <minimizedAffinity>
-5.76855564

>  <minimizedRMSD>
1.77441812

$$$$
