
 OpenBabel03272510113D

 34 37  0  0  0  0  0  0  0  0999 V2000
   32.9490   28.2840   49.1470 C   0  0  0  0  0  0  0  0  0  0  0  0
   33.2150   29.1070   50.1840 C   0  0  0  0  0  0  0  0  0  0  0  0
   34.4680   29.5930   50.4960 C   0  0  0  0  0  0  0  0  0  0  0  0
   35.5430   29.2460   49.7350 C   0  0  0  0  0  0  0  0  0  0  0  0
   35.2790   28.3940   48.6570 C   0  0  0  0  0  0  0  0  0  0  0  0
   34.0380   27.9450   48.3920 N   0  0  0  0  0  0  0  0  0  0  0  0
   32.4210   29.4330   50.8400 H   0  0  0  0  0  0  0  0  0  0  0  0
   34.6710   30.2530   51.3310 H   0  0  0  0  0  0  0  0  0  0  0  0
   36.0980   28.0860   48.0190 H   0  0  0  0  0  0  0  0  0  0  0  0
   30.5240   27.9360   49.6270 C   0  0  0  0  0  0  0  0  0  0  0  0
   31.6540   27.7740   48.8130 C   0  0  0  0  0  0  0  0  0  0  0  0
   31.4600   27.0770   47.6340 C   0  0  0  0  0  0  0  0  0  0  0  0
   30.2200   26.5940   47.3240 N   0  0  0  0  0  0  0  0  0  0  0  0
   29.1690   26.7890   48.1630 C   0  0  0  0  0  0  0  0  0  0  0  0
   29.3070   27.4620   49.3230 N   0  0  0  0  0  0  0  0  0  0  0  0
   30.6220   28.4730   50.5590 H   0  0  0  0  0  0  0  0  0  0  0  0
   32.3200   26.9430   46.9950 H   0  0  0  0  0  0  0  0  0  0  0  0
   28.2580   26.3520   47.7830 H   0  0  0  0  0  0  0  0  0  0  0  0
   36.8720   29.6490   49.9140 O   0  0  0  0  0  0  0  0  0  0  0  0
   37.4740   30.5460   49.0470 C   0  0  0  0  0  0  0  0  0  0  0  0
   38.0620   31.6440   49.6800 C   0  0  0  0  0  0  0  0  0  0  0  0
   38.6260   32.4580   48.6890 C   0  0  0  0  0  0  0  0  0  0  0  0
   38.3580   31.8260   47.5280 N   0  0  0  0  0  0  0  0  0  0  0  0
   37.6910   30.7170   47.7270 N   0  0  0  0  0  0  0  0  0  0  0  0
   38.1670   31.9800   50.7050 H   0  0  0  0  0  0  0  0  0  0  0  0
   39.1680   33.3920   48.7410 H   0  0  0  0  0  0  0  0  0  0  0  0
   38.7420   32.2870   46.2320 C   0  0  0  0  0  0  0  0  0  0  0  0
   39.9890   32.8630   46.0910 C   0  0  0  0  0  0  0  0  0  0  0  0
   40.6910   32.9900   46.8790 H   0  0  0  0  0  0  0  0  0  0  0  0
   40.3570   33.3060   44.8390 C   0  0  0  0  0  0  0  0  0  0  0  0
   41.3280   33.7740   44.6460 H   0  0  0  0  0  0  0  0  0  0  0  0
   39.5430   33.2070   43.7090 C   0  0  0  0  0  3  0  0  0  0  0  0
   38.3030   32.6150   43.9370 C   0  0  0  0  0  3  0  0  0  0  0  0
   37.9270   32.1740   45.1640 N   0  0  0  0  0  0  0  0  0  0  0  0
  1  2  1  0  0  0  0
  2  3  2  0  0  0  0
  2  7  1  0  0  0  0
  3  8  1  0  0  0  0
  4 19  1  0  0  0  0
  4  3  1  0  0  0  0
  5  4  2  0  0  0  0
  6  5  1  0  0  0  0
  6  1  2  0  0  0  0
  9  5  1  0  0  0  0
 10 16  1  0  0  0  0
 11  1  1  0  0  0  0
 11 10  2  0  0  0  0
 12 11  1  0  0  0  0
 13 12  2  0  0  0  0
 13 14  1  0  0  0  0
 14 15  2  0  0  0  0
 15 10  1  0  0  0  0
 17 12  1  0  0  0  0
 18 14  1  0  0  0  0
 20 21  1  0  0  0  0
 20 19  1  0  0  0  0
 21 25  1  0  0  0  0
 22 26  1  0  0  0  0
 22 21  2  0  0  0  0
 23 24  1  0  0  0  0
 23 22  1  0  0  0  0
 24 20  2  0  0  0  0
 27 23  1  0  0  0  0
 28 27  1  0  0  0  0
 28 29  1  0  0  0  0
 30 28  2  0  0  0  0
 31 30  1  0  0  0  0
 32 33  2  0  0  0  0
 32 30  1  0  0  0  0
 33 34  1  0  0  0  0
 34 27  2  0  0  0  0
M  END
>  <minimizedAffinity>
-5.94532537

>  <minimizedRMSD>
1.89357102

$$$$
