
 OpenBabel03272510113D

 34 37  0  0  0  0  0  0  0  0999 V2000
   32.6770   28.1720   49.1410 C   0  0  0  0  0  0  0  0  0  0  0  0
   33.0090   29.0820   50.0820 C   0  0  0  0  0  0  0  0  0  0  0  0
   34.3000   29.4670   50.3780 C   0  0  0  0  0  0  0  0  0  0  0  0
   35.3470   28.9190   49.7000 C   0  0  0  0  0  0  0  0  0  0  0  0
   35.0150   27.9750   48.7220 C   0  0  0  0  0  0  0  0  0  0  0  0
   33.7390   27.6310   48.4700 N   0  0  0  0  0  0  0  0  0  0  0  0
   32.2410   29.5670   50.6680 H   0  0  0  0  0  0  0  0  0  0  0  0
   34.5560   30.1980   51.1350 H   0  0  0  0  0  0  0  0  0  0  0  0
   35.8090   27.5070   48.1540 H   0  0  0  0  0  0  0  0  0  0  0  0
   30.2690   27.8610   49.7230 C   0  0  0  0  0  0  0  0  0  0  0  0
   31.3420   27.7650   48.8250 C   0  0  0  0  0  0  0  0  0  0  0  0
   31.0470   27.2410   47.5790 C   0  0  0  0  0  0  0  0  0  0  0  0
   29.7690   26.8550   47.2870 N   0  0  0  0  0  0  0  0  0  0  0  0
   28.7790   26.9780   48.2090 C   0  0  0  0  0  0  0  0  0  0  0  0
   29.0160   27.4830   49.4370 N   0  0  0  0  0  0  0  0  0  0  0  0
   30.4460   28.2630   50.7100 H   0  0  0  0  0  0  0  0  0  0  0  0
   31.8620   27.1600   46.8750 H   0  0  0  0  0  0  0  0  0  0  0  0
   27.8270   26.6330   47.8330 H   0  0  0  0  0  0  0  0  0  0  0  0
   36.7080   29.1980   49.8760 O   0  0  0  0  0  0  0  0  0  0  0  0
   37.3430   30.1780   49.1310 C   0  0  0  0  0  0  0  0  0  0  0  0
   37.8740   31.2200   49.8950 C   0  0  0  0  0  0  0  0  0  0  0  0
   38.4800   32.1280   49.0160 C   0  0  0  0  0  0  0  0  0  0  0  0
   38.2910   31.6020   47.7890 N   0  0  0  0  0  0  0  0  0  0  0  0
   37.6330   30.4710   47.8470 N   0  0  0  0  0  0  0  0  0  0  0  0
   37.9150   31.4620   50.9500 H   0  0  0  0  0  0  0  0  0  0  0  0
   39.0020   33.0600   49.1840 H   0  0  0  0  0  0  0  0  0  0  0  0
   38.7400   32.1840   46.5650 C   0  0  0  0  0  0  0  0  0  0  0  0
   37.9610   32.0110   45.4390 C   0  0  0  0  0  0  0  0  0  0  0  0
   37.0450   31.4730   45.4130 H   0  0  0  0  0  0  0  0  0  0  0  0
   38.3970   32.5740   44.2590 C   0  0  0  0  0  0  0  0  0  0  0  0
   37.8370   32.4810   43.3240 H   0  0  0  0  0  0  0  0  0  0  0  0
   39.5800   33.3080   44.1380 C   0  0  0  0  0  3  0  0  0  0  0  0
   40.3070   33.4350   45.3200 C   0  0  0  0  0  3  0  0  0  0  0  0
   39.8880   32.8860   46.4890 N   0  0  0  0  0  0  0  0  0  0  0  0
  1  2  1  0  0  0  0
  2  3  2  0  0  0  0
  2  7  1  0  0  0  0
  3  8  1  0  0  0  0
  4 19  1  0  0  0  0
  4  3  1  0  0  0  0
  5  4  2  0  0  0  0
  6  5  1  0  0  0  0
  6  1  2  0  0  0  0
  9  5  1  0  0  0  0
 10 16  1  0  0  0  0
 11  1  1  0  0  0  0
 11 10  2  0  0  0  0
 12 11  1  0  0  0  0
 13 12  2  0  0  0  0
 13 14  1  0  0  0  0
 14 15  2  0  0  0  0
 15 10  1  0  0  0  0
 17 12  1  0  0  0  0
 18 14  1  0  0  0  0
 20 19  1  0  0  0  0
 20 21  1  0  0  0  0
 21 25  1  0  0  0  0
 22 26  1  0  0  0  0
 22 21  2  0  0  0  0
 23 24  1  0  0  0  0
 23 22  1  0  0  0  0
 24 20  2  0  0  0  0
 27 23  1  0  0  0  0
 28 27  2  0  0  0  0
 29 28  1  0  0  0  0
 30 28  1  0  0  0  0
 31 30  1  0  0  0  0
 32 30  2  0  0  0  0
 32 33  1  0  0  0  0
 33 34  2  0  0  0  0
 34 27  1  0  0  0  0
M  END
>  <minimizedAffinity>
-5.78080034

>  <minimizedRMSD>
1.96291184

$$$$
