
 OpenBabel03262520353D

 41 43  0  0  0  0  0  0  0  0999 V2000
   27.6950   28.7260   48.7490 C   0  0  0  0  0  0  0  0  0  0  0  0
   28.9590   28.2500   49.1280 C   0  0  0  0  0  0  0  0  0  0  0  0
   29.1590   27.6050   50.3340 C   0  0  0  0  0  0  0  0  0  0  0  0
   28.1080   27.4150   51.1960 C   0  0  0  0  0  0  0  0  0  0  0  0
   26.8710   27.8780   50.8320 C   0  0  0  0  0  0  0  0  0  0  0  0
   26.6320   28.5250   49.6440 C   0  0  0  0  0  0  0  0  0  0  0  0
   30.1750   27.2870   50.5080 H   0  0  0  0  0  0  0  0  0  0  0  0
   28.4280   26.8950   52.0930 H   0  0  0  0  0  0  0  0  0  0  0  0
   26.1690   27.6330   51.6450 H   0  0  0  0  0  0  0  0  0  0  0  0
   25.6220   28.7720   49.6760 H   0  0  0  0  0  0  0  0  0  0  0  0
   27.3560   29.5470   47.2820 S   0  0  0  0  0  0  0  0  0  0  0  0
   28.6090   29.7620   46.4730 O   0  0  0  0  0  0  0  0  0  0  0  0
   26.3810   28.6440   46.4510 O   0  0  0  0  0  0  0  0  0  0  0  0
   26.4470   30.9980   47.3790 C   0  0  0  0  0  0  0  0  0  0  0  0
   25.5980   31.6430   48.2090 C   0  0  0  0  0  0  0  0  0  0  0  0
   25.3820   31.1460   49.1240 H   0  0  0  0  0  0  0  0  0  0  0  0
   24.9330   32.8170   48.0180 C   0  0  0  0  0  0  0  0  0  0  0  0
   24.2880   33.1990   48.7850 H   0  0  0  0  0  0  0  0  0  0  0  0
   25.1490   33.4380   46.8120 C   0  0  0  0  0  0  0  0  0  0  0  0
   25.9970   32.8320   45.9300 C   0  0  0  0  0  0  0  0  0  0  0  0
   26.6080   31.6810   46.2020 N   0  0  0  0  0  0  0  0  0  0  0  0
   29.9190   28.4990   48.1890 O   0  0  0  0  0  0  0  0  0  0  0  0
   30.4970   26.0230   47.4900 O   0  0  0  0  0  0  0  0  0  0  0  0
   31.0750   27.4340   47.5880 P   0  0  1  0  0  0  0  0  0  0  0  0
   31.6490   27.9560   46.0820 O   0  0  0  0  0  0  0  0  0  0  0  0
   32.0130   28.8610   46.2420 H   0  0  0  0  0  0  0  0  0  0  0  0
   32.4040   27.2830   48.6340 O   0  0  0  0  0  0  0  0  0  0  0  0
   33.5670   27.1400   47.8590 C   0  0  0  0  0  0  0  0  0  0  0  0
   33.8820   26.0560   47.8770 H   0  0  0  0  0  0  0  0  0  0  0  0
   33.3030   27.3650   46.8150 H   0  0  0  0  0  0  0  0  0  0  0  0
   34.8350   28.3220   49.6090 C   0  0  0  0  0  0  0  0  0  0  0  0
   34.6630   28.0000   48.3590 C   0  0  0  0  0  0  0  0  0  0  0  0
   37.3350   30.2600   51.4550 C   0  0  0  0  0  0  0  0  0  0  0  0
   38.1150   30.7980   50.4250 C   0  0  0  0  0  0  0  0  0  0  0  0
   37.7720   30.4880   49.1080 C   0  0  0  0  0  0  0  0  0  0  0  0
   36.6790   29.6690   48.9490 N   0  0  0  0  0  0  0  0  0  0  0  0
   35.9670   29.1800   49.9440 C   0  0  0  0  0  0  0  0  0  0  0  0
   36.3060   29.4830   51.1970 N   0  0  0  0  0  0  0  0  0  0  0  0
   37.6570   30.5410   52.4570 H   0  0  0  0  0  0  0  0  0  0  0  0
   38.9790   31.4450   50.5110 H   0  0  0  0  0  0  0  0  0  0  0  0
   38.2930   30.8400   48.2160 H   0  0  0  0  0  0  0  0  0  0  0  0
  1  2  2  0  0  0  0
  1  6  1  0  0  0  0
  2  3  1  0  0  0  0
  3  7  1  0  0  0  0
  3  4  2  0  0  0  0
  4  8  1  0  0  0  0
  5  4  1  0  0  0  0
  5  9  1  0  0  0  0
  6 10  1  0  0  0  0
  6  5  2  0  0  0  0
 11 14  1  0  0  0  0
 11  1  1  0  0  0  0
 12 11  2  0  0  0  0
 13 11  2  0  0  0  0
 14 15  1  0  0  0  0
 15 16  1  0  0  0  0
 17 15  2  0  0  0  0
 17 18  1  0  0  0  0
 19 17  1  0  0  0  0
 20 21  1  0  0  0  0
 20 19  2  0  0  0  0
 21 14  2  0  0  0  0
 22  2  1  0  0  0  0
 24 23  2  6  0  0  0
 24 22  1  0  0  0  0
 24 27  1  0  0  0  0
 25 26  1  0  0  0  0
 25 24  1  0  0  0  0
 28 29  1  0  0  0  0
 28 32  1  0  0  0  0
 28 27  1  0  0  0  0
 30 28  1  0  0  0  0
 31 37  1  0  0  0  0
 32 31  2  0  0  0  0
 33 39  1  0  0  0  0
 34 40  1  0  0  0  0
 34 33  2  0  0  0  0
 35 34  1  0  0  0  0
 36 35  2  0  0  0  0
 36 37  1  0  0  0  0
 37 38  2  0  0  0  0
 38 33  1  0  0  0  0
 41 35  1  0  0  0  0
M  END
>  <minimizedAffinity>
-6.96923542

>  <minimizedRMSD>
1.85720813

$$$$
