
 OpenBabel03272510113D

 34 37  0  0  0  0  0  0  0  0999 V2000
   33.1490   28.3240   49.0630 C   0  0  0  0  0  0  0  0  0  0  0  0
   33.4310   28.9940   50.2000 C   0  0  0  0  0  0  0  0  0  0  0  0
   34.6730   29.5040   50.5220 C   0  0  0  0  0  0  0  0  0  0  0  0
   35.7180   29.3440   49.6630 C   0  0  0  0  0  0  0  0  0  0  0  0
   35.4370   28.6510   48.4800 C   0  0  0  0  0  0  0  0  0  0  0  0
   34.2080   28.1720   48.2110 N   0  0  0  0  0  0  0  0  0  0  0  0
   32.6620   29.1660   50.9390 H   0  0  0  0  0  0  0  0  0  0  0  0
   34.8890   30.0400   51.4370 H   0  0  0  0  0  0  0  0  0  0  0  0
   36.2320   28.4950   47.7620 H   0  0  0  0  0  0  0  0  0  0  0  0
   30.7420   27.8770   49.5530 C   0  0  0  0  0  0  0  0  0  0  0  0
   31.8650   27.7920   48.7190 C   0  0  0  0  0  0  0  0  0  0  0  0
   31.6770   27.1490   47.5090 C   0  0  0  0  0  0  0  0  0  0  0  0
   30.4480   26.6440   47.1900 N   0  0  0  0  0  0  0  0  0  0  0  0
   29.4030   26.7640   48.0500 C   0  0  0  0  0  0  0  0  0  0  0  0
   29.5370   27.3820   49.2410 N   0  0  0  0  0  0  0  0  0  0  0  0
   30.8360   28.3690   50.5110 H   0  0  0  0  0  0  0  0  0  0  0  0
   32.5320   27.0730   46.8530 H   0  0  0  0  0  0  0  0  0  0  0  0
   28.5000   26.3180   47.6590 H   0  0  0  0  0  0  0  0  0  0  0  0
   37.0320   29.7950   49.8360 O   0  0  0  0  0  0  0  0  0  0  0  0
   37.6120   30.6790   48.9390 C   0  0  0  0  0  0  0  0  0  0  0  0
   38.1880   31.8020   49.5380 C   0  0  0  0  0  0  0  0  0  0  0  0
   38.7300   32.5990   48.5210 C   0  0  0  0  0  0  0  0  0  0  0  0
   38.4610   31.9320   47.3790 N   0  0  0  0  0  0  0  0  0  0  0  0
   37.8140   30.8190   47.6140 N   0  0  0  0  0  0  0  0  0  0  0  0
   38.2980   32.1660   50.5530 H   0  0  0  0  0  0  0  0  0  0  0  0
   39.2580   33.5420   48.5430 H   0  0  0  0  0  0  0  0  0  0  0  0
   38.8250   32.3650   46.0680 C   0  0  0  0  0  0  0  0  0  0  0  0
   40.0730   32.9300   45.8940 C   0  0  0  0  0  0  0  0  0  0  0  0
   40.7900   33.0680   46.6670 H   0  0  0  0  0  0  0  0  0  0  0  0
   40.4220   33.3470   44.6280 C   0  0  0  0  0  0  0  0  0  0  0  0
   41.3920   33.8040   44.4080 H   0  0  0  0  0  0  0  0  0  0  0  0
   39.5880   33.2300   43.5130 C   0  0  0  0  0  0  0  0  0  0  0  0
   38.3480   32.6510   43.7750 C   0  0  0  0  0  0  0  0  0  0  0  0
   37.9910   32.2370   45.0170 N   0  0  0  0  0  0  0  0  0  0  0  0
  1  2  1  0  0  0  0
  2  3  2  0  0  0  0
  2  7  1  0  0  0  0
  3  8  1  0  0  0  0
  4 19  1  0  0  0  0
  4  3  1  0  0  0  0
  5  4  2  0  0  0  0
  6  5  1  0  0  0  0
  6  1  2  0  0  0  0
  9  5  1  0  0  0  0
 10 16  1  0  0  0  0
 11  1  1  0  0  0  0
 11 10  2  0  0  0  0
 12 11  1  0  0  0  0
 13 12  2  0  0  0  0
 13 14  1  0  0  0  0
 14 15  2  0  0  0  0
 15 10  1  0  0  0  0
 17 12  1  0  0  0  0
 18 14  1  0  0  0  0
 20 21  1  0  0  0  0
 20 19  1  0  0  0  0
 21 25  1  0  0  0  0
 22 26  1  0  0  0  0
 22 21  2  0  0  0  0
 23 24  1  0  0  0  0
 23 22  1  0  0  0  0
 24 20  2  0  0  0  0
 27 23  1  0  0  0  0
 28 27  1  0  0  0  0
 28 29  1  0  0  0  0
 30 28  2  0  0  0  0
 31 30  1  0  0  0  0
 32 33  2  0  0  0  0
 32 30  1  0  0  0  0
 33 34  1  0  0  0  0
 34 27  2  0  0  0  0
M  END
>  <minimizedAffinity>
-5.96717072

>  <minimizedRMSD>
1.78596699

$$$$
