
 OpenBabel03272500453D

 24 26  0  0  0  0  0  0  0  0999 V2000
   37.2860   26.2380   33.2600 C   0  0  0  0  0  0  0  0  0  0  0  0
   37.5820   25.0350   32.6130 C   0  0  0  0  0  0  0  0  0  0  0  0
   38.0340   24.1350   33.5890 C   0  0  0  0  0  0  0  0  0  0  0  0
   37.9990   24.8050   34.7600 N   0  0  0  0  0  0  0  0  0  0  0  0
   37.5590   26.0260   34.5360 N   0  0  0  0  0  0  0  0  0  0  0  0
   37.4750   24.8470   31.5490 H   0  0  0  0  0  0  0  0  0  0  0  0
   38.3400   23.1100   33.3830 H   0  0  0  0  0  0  0  0  0  0  0  0
   36.8430   27.5210   31.1470 C   0  0  0  0  0  0  0  0  0  0  0  0
   36.7890   27.4010   32.5530 C   0  0  0  0  0  0  0  0  0  0  0  0
   36.2310   28.4510   33.2780 C   0  0  0  0  0  0  0  0  0  0  0  0
   35.7700   29.5350   32.5920 N   0  0  0  0  0  0  0  0  0  0  0  0
   35.8360   29.6210   31.2500 C   0  0  0  0  0  0  0  0  0  0  0  0
   36.3700   28.6180   30.5310 N   0  0  0  0  0  0  0  0  0  0  0  0
   37.2740   26.7100   30.5760 H   0  0  0  0  0  0  0  0  0  0  0  0
   36.1890   28.3600   34.3530 H   0  0  0  0  0  0  0  0  0  0  0  0
   35.4170   30.5530   30.9230 H   0  0  0  0  0  0  0  0  0  0  0  0
   38.3760   24.2660   36.0190 C   0  0  0  0  0  0  0  0  0  0  0  0
   37.7520   24.6610   37.1760 C   0  0  0  0  0  0  0  0  0  0  0  0
   36.9620   25.4020   37.0580 H   0  0  0  0  0  0  0  0  0  0  0  0
   38.0350   24.2090   38.4430 C   0  0  0  0  0  0  0  0  0  0  0  0
   37.5070   24.5580   39.3200 H   0  0  0  0  0  0  0  0  0  0  0  0
   39.0630   23.2630   38.4700 C   0  0  0  0  0  3  0  0  0  0  0  0
   39.6960   22.8590   37.3230 C   0  0  0  0  0  3  0  0  0  0  0  0
   39.3580   23.3530   36.1140 N   0  0  0  0  0  0  0  0  0  0  0  0
  1  5  2  0  0  0  0
  2  1  1  0  0  0  0
  2  3  2  0  0  0  0
  3  4  1  0  0  0  0
  4 17  1  0  0  0  0
  5  4  1  0  0  0  0
  6  2  1  0  0  0  0
  7  3  1  0  0  0  0
  8  9  1  0  0  0  0
  9  1  1  0  0  0  0
  9 10  2  0  0  0  0
 10 15  1  0  0  0  0
 11 10  1  0  0  0  0
 12 11  2  0  0  0  0
 13  8  2  0  0  0  0
 13 12  1  0  0  0  0
 14  8  1  0  0  0  0
 16 12  1  0  0  0  0
 17 24  2  0  0  0  0
 17 18  1  0  0  0  0
 18 20  2  0  0  0  0
 19 18  1  0  0  0  0
 20 22  1  0  0  0  0
 20 21  1  0  0  0  0
 23 22  2  0  0  0  0
 24 23  1  0  0  0  0
M  END
>  <minimizedAffinity>
-4.81016302

$$$$

 OpenBabel03272500453D

 24 26  0  0  0  0  0  0  0  0999 V2000
   37.1050   26.9090   33.8010 C   0  0  0  0  0  0  0  0  0  0  0  0
   37.3220   25.8470   32.9190 C   0  0  0  0  0  0  0  0  0  0  0  0
   37.8540   24.7850   33.6640 C   0  0  0  0  0  0  0  0  0  0  0  0
   37.9390   25.2280   34.9360 N   0  0  0  0  0  0  0  0  0  0  0  0
   37.4950   26.4670   34.9850 N   0  0  0  0  0  0  0  0  0  0  0  0
   37.1110   25.8580   31.8540 H   0  0  0  0  0  0  0  0  0  0  0  0
   38.1270   23.8170   33.2450 H   0  0  0  0  0  0  0  0  0  0  0  0
   35.8190   29.0220   34.2310 C   0  0  0  0  0  0  0  0  0  0  0  0
   36.5560   28.1800   33.3710 C   0  0  0  0  0  0  0  0  0  0  0  0
   36.7580   28.5990   32.0580 C   0  0  0  0  0  0  0  0  0  0  0  0
   36.2330   29.7970   31.6760 N   0  0  0  0  0  0  0  0  0  0  0  0
   35.5320   30.5790   32.5190 C   0  0  0  0  0  0  0  0  0  0  0  0
   35.3270   30.1930   33.7910 N   0  0  0  0  0  0  0  0  0  0  0  0
   35.6570   28.7050   35.2520 H   0  0  0  0  0  0  0  0  0  0  0  0
   37.3220   27.9540   31.4010 H   0  0  0  0  0  0  0  0  0  0  0  0
   35.2160   31.4700   32.0110 H   0  0  0  0  0  0  0  0  0  0  0  0
   38.4290   24.4690   36.0330 C   0  0  0  0  0  0  0  0  0  0  0  0
   37.8390   24.5470   37.2710 C   0  0  0  0  0  0  0  0  0  0  0  0
   36.9870   25.2200   37.3460 H   0  0  0  0  0  0  0  0  0  0  0  0
   38.2280   23.8620   38.3970 C   0  0  0  0  0  0  0  0  0  0  0  0
   37.7230   23.9640   39.3470 H   0  0  0  0  0  0  0  0  0  0  0  0
   39.3300   23.0300   38.1790 C   0  0  0  0  0  3  0  0  0  0  0  0
   39.9300   22.9420   36.9490 C   0  0  0  0  0  3  0  0  0  0  0  0
   39.4860   23.6510   35.8900 N   0  0  0  0  0  0  0  0  0  0  0  0
  1  5  2  0  0  0  0
  2  3  2  0  0  0  0
  2  1  1  0  0  0  0
  3  4  1  0  0  0  0
  4  5  1  0  0  0  0
  4 17  1  0  0  0  0
  6  2  1  0  0  0  0
  7  3  1  0  0  0  0
  8 14  1  0  0  0  0
  9  1  1  0  0  0  0
  9  8  2  0  0  0  0
 10  9  1  0  0  0  0
 11 10  2  0  0  0  0
 11 12  1  0  0  0  0
 12 13  2  0  0  0  0
 13  8  1  0  0  0  0
 15 10  1  0  0  0  0
 16 12  1  0  0  0  0
 17 18  1  0  0  0  0
 18 19  1  0  0  0  0
 18 20  2  0  0  0  0
 20 21  1  0  0  0  0
 22 20  1  0  0  0  0
 23 22  2  0  0  0  0
 24 17  2  0  0  0  0
 24 23  1  0  0  0  0
M  END
>  <minimizedAffinity>
-4.75884104

$$$$

 OpenBabel03272500453D

 24 26  0  0  0  0  0  0  0  0999 V2000
   37.0900   26.8680   33.8270 C   0  0  0  0  0  0  0  0  0  0  0  0
   37.4520   25.8290   32.9650 C   0  0  0  0  0  0  0  0  0  0  0  0
   37.9810   24.7960   33.7530 C   0  0  0  0  0  0  0  0  0  0  0  0
   37.9230   25.2330   35.0280 N   0  0  0  0  0  0  0  0  0  0  0  0
   37.4000   26.4420   35.0400 N   0  0  0  0  0  0  0  0  0  0  0  0
   37.3370   25.8350   31.8860 H   0  0  0  0  0  0  0  0  0  0  0  0
   38.3500   23.8510   33.3570 H   0  0  0  0  0  0  0  0  0  0  0  0
   36.5800   28.5190   32.0050 C   0  0  0  0  0  0  0  0  0  0  0  0
   36.5040   28.1050   33.3520 C   0  0  0  0  0  0  0  0  0  0  0  0
   35.8340   28.9310   34.2530 C   0  0  0  0  0  0  0  0  0  0  0  0
   35.2910   30.0890   33.7850 N   0  0  0  0  0  0  0  0  0  0  0  0
   35.3800   30.4570   32.4920 C   0  0  0  0  0  0  0  0  0  0  0  0
   36.0230   29.6750   31.6070 N   0  0  0  0  0  0  0  0  0  0  0  0
   37.0980   27.8850   31.2990 H   0  0  0  0  0  0  0  0  0  0  0  0
   35.7750   28.6140   35.2840 H   0  0  0  0  0  0  0  0  0  0  0  0
   34.8850   31.3980   32.3460 H   0  0  0  0  0  0  0  0  0  0  0  0
   38.3590   24.4970   36.1620 C   0  0  0  0  0  0  0  0  0  0  0  0
   39.4350   23.6460   36.0870 C   0  0  0  0  0  0  0  0  0  0  0  0
   39.9170   23.5800   35.1120 H   0  0  0  0  0  0  0  0  0  0  0  0
   39.9400   22.8880   37.1150 C   0  0  0  0  0  0  0  0  0  0  0  0
   40.7930   22.2340   36.9950 H   0  0  0  0  0  0  0  0  0  0  0  0
   39.2420   23.0560   38.3140 C   0  0  0  0  0  3  0  0  0  0  0  0
   38.1660   23.9020   38.4050 C   0  0  0  0  0  3  0  0  0  0  0  0
   37.7310   24.6130   37.3450 N   0  0  0  0  0  0  0  0  0  0  0  0
  1  5  2  0  0  0  0
  2  3  2  0  0  0  0
  2  1  1  0  0  0  0
  3  4  1  0  0  0  0
  4  5  1  0  0  0  0
  4 17  1  0  0  0  0
  6  2  1  0  0  0  0
  7  3  1  0  0  0  0
  8  9  1  0  0  0  0
  9  1  1  0  0  0  0
  9 10  2  0  0  0  0
 10 15  1  0  0  0  0
 11 10  1  0  0  0  0
 12 11  2  0  0  0  0
 13  8  2  0  0  0  0
 13 12  1  0  0  0  0
 14  8  1  0  0  0  0
 16 12  1  0  0  0  0
 17 24  1  0  0  0  0
 18 17  2  0  0  0  0
 18 20  1  0  0  0  0
 19 18  1  0  0  0  0
 20 22  2  0  0  0  0
 21 20  1  0  0  0  0
 22 23  1  0  0  0  0
 24 23  2  0  0  0  0
M  END
>  <minimizedAffinity>
-4.65445328

$$$$

 OpenBabel03272500453D

 24 26  0  0  0  0  0  0  0  0999 V2000
   37.9710   25.2800   34.9180 C   0  0  0  0  0  0  0  0  0  0  0  0
   37.7990   24.8230   33.6080 C   0  0  0  0  0  0  0  0  0  0  0  0
   37.2320   25.8700   32.8690 C   0  0  0  0  0  0  0  0  0  0  0  0
   37.0850   26.8980   33.7300 N   0  0  0  0  0  0  0  0  0  0  0  0
   37.5240   26.5250   34.9150 N   0  0  0  0  0  0  0  0  0  0  0  0
   38.0610   23.8330   33.2460 H   0  0  0  0  0  0  0  0  0  0  0  0
   36.9830   25.8090   31.8100 H   0  0  0  0  0  0  0  0  0  0  0  0
   37.9240   24.2900   37.2240 C   0  0  0  0  0  0  0  0  0  0  0  0
   38.5380   24.4540   35.9640 C   0  0  0  0  0  0  0  0  0  0  0  0
   39.7390   23.7880   35.7300 C   0  0  0  0  0  0  0  0  0  0  0  0
   40.2530   23.0160   36.7280 N   0  0  0  0  0  0  0  0  0  0  0  0
   39.6440   22.8800   37.9220 C   0  0  0  0  0  0  0  0  0  0  0  0
   38.4840   23.5150   38.1680 N   0  0  0  0  0  0  0  0  0  0  0  0
   36.9920   24.8040   37.4150 H   0  0  0  0  0  0  0  0  0  0  0  0
   40.2090   23.9120   34.7660 H   0  0  0  0  0  0  0  0  0  0  0  0
   40.2200   22.2310   38.5530 H   0  0  0  0  0  0  0  0  0  0  0  0
   36.5430   28.1690   33.3990 C   0  0  0  0  0  0  0  0  0  0  0  0
   35.9230   28.9460   34.3460 C   0  0  0  0  0  0  0  0  0  0  0  0
   35.8790   28.5230   35.3490 H   0  0  0  0  0  0  0  0  0  0  0  0
   35.3650   30.1850   34.1380 C   0  0  0  0  0  0  0  0  0  0  0  0
   34.8890   30.7510   34.9260 H   0  0  0  0  0  0  0  0  0  0  0  0
   35.4820   30.6230   32.8160 C   0  0  0  0  0  3  0  0  0  0  0  0
   36.0990   29.8580   31.8590 C   0  0  0  0  0  3  0  0  0  0  0  0
   36.6220   28.6490   32.1460 N   0  0  0  0  0  0  0  0  0  0  0  0
  1  9  1  0  0  0  0
  2  1  1  0  0  0  0
  3  2  2  0  0  0  0
  3  4  1  0  0  0  0
  4  5  1  0  0  0  0
  5  1  2  0  0  0  0
  6  2  1  0  0  0  0
  7  3  1  0  0  0  0
  8 14  1  0  0  0  0
  8 13  1  0  0  0  0
  9  8  2  0  0  0  0
 10  9  1  0  0  0  0
 10 11  2  0  0  0  0
 11 12  1  0  0  0  0
 12 13  2  0  0  0  0
 12 16  1  0  0  0  0
 15 10  1  0  0  0  0
 17  4  1  0  0  0  0
 17 18  1  0  0  0  0
 18 19  1  0  0  0  0
 20 18  2  0  0  0  0
 20 21  1  0  0  0  0
 22 20  1  0  0  0  0
 23 24  1  0  0  0  0
 23 22  2  0  0  0  0
 24 17  2  0  0  0  0
M  END
>  <minimizedAffinity>
-4.61459589

$$$$

 OpenBabel03272500453D

 24 26  0  0  0  0  0  0  0  0999 V2000
   37.9360   25.3090   34.9280 C   0  0  0  0  0  0  0  0  0  0  0  0
   37.7940   24.8810   33.6060 C   0  0  0  0  0  0  0  0  0  0  0  0
   37.2110   25.9310   32.8840 C   0  0  0  0  0  0  0  0  0  0  0  0
   37.0250   26.9330   33.7680 N   0  0  0  0  0  0  0  0  0  0  0  0
   37.4560   26.5420   34.9500 N   0  0  0  0  0  0  0  0  0  0  0  0
   38.0880   23.9070   33.2230 H   0  0  0  0  0  0  0  0  0  0  0  0
   36.9780   25.8900   31.8200 H   0  0  0  0  0  0  0  0  0  0  0  0
   39.7210   23.7700   35.7900 C   0  0  0  0  0  0  0  0  0  0  0  0
   38.5100   24.4720   35.9620 C   0  0  0  0  0  0  0  0  0  0  0  0
   37.8480   24.3470   37.1810 C   0  0  0  0  0  0  0  0  0  0  0  0
   38.4050   23.5540   38.1390 N   0  0  0  0  0  0  0  0  0  0  0  0
   39.5640   22.8950   37.9450 C   0  0  0  0  0  0  0  0  0  0  0  0
   40.2180   23.0020   36.7760 N   0  0  0  0  0  0  0  0  0  0  0  0
   40.2420   23.8610   34.8470 H   0  0  0  0  0  0  0  0  0  0  0  0
   36.9210   24.8840   37.3130 H   0  0  0  0  0  0  0  0  0  0  0  0
   39.8160   22.3340   38.8260 H   0  0  0  0  0  0  0  0  0  0  0  0
   36.4550   28.1970   33.4600 C   0  0  0  0  0  0  0  0  0  0  0  0
   36.4250   28.6680   32.1700 C   0  0  0  0  0  0  0  0  0  0  0  0
   36.8620   28.0130   31.4180 H   0  0  0  0  0  0  0  0  0  0  0  0
   35.9020   29.8710   31.7600 C   0  0  0  0  0  0  0  0  0  0  0  0
   35.9070   30.1880   30.7260 H   0  0  0  0  0  0  0  0  0  0  0  0
   35.3710   30.6240   32.8100 C   0  0  0  0  0  3  0  0  0  0  0  0
   35.3930   30.1680   34.1030 C   0  0  0  0  0  3  0  0  0  0  0  0
   35.9270   28.9720   34.4240 N   0  0  0  0  0  0  0  0  0  0  0  0
  1  5  2  0  0  0  0
  1  9  1  0  0  0  0
  2  1  1  0  0  0  0
  3  2  2  0  0  0  0
  3  4  1  0  0  0  0
  4  5  1  0  0  0  0
  6  2  1  0  0  0  0
  7  3  1  0  0  0  0
  8  9  2  0  0  0  0
  8 13  1  0  0  0  0
  9 10  1  0  0  0  0
 10 15  1  0  0  0  0
 10 11  2  0  0  0  0
 12 11  1  0  0  0  0
 12 16  1  0  0  0  0
 13 12  2  0  0  0  0
 14  8  1  0  0  0  0
 17  4  1  0  0  0  0
 17 24  1  0  0  0  0
 18 17  2  0  0  0  0
 19 18  1  0  0  0  0
 20 18  1  0  0  0  0
 20 22  2  0  0  0  0
 21 20  1  0  0  0  0
 22 23  1  0  0  0  0
 23 24  2  0  0  0  0
M  END
>  <minimizedAffinity>
-4.55804443

$$$$

 OpenBabel03272500453D

 24 26  0  0  0  0  0  0  0  0999 V2000
   39.7520   23.5320   36.1170 C   0  0  0  0  0  0  0  0  0  0  0  0
   38.7440   23.6320   37.0790 C   0  0  0  0  0  0  0  0  0  0  0  0
   37.8170   24.5790   36.6210 C   0  0  0  0  0  0  0  0  0  0  0  0
   38.2820   25.0090   35.4290 N   0  0  0  0  0  0  0  0  0  0  0  0
   39.4090   24.3810   35.1620 N   0  0  0  0  0  0  0  0  0  0  0  0
   38.7000   23.0710   38.0080 H   0  0  0  0  0  0  0  0  0  0  0  0
   36.9180   24.8700   37.1630 H   0  0  0  0  0  0  0  0  0  0  0  0
   41.8980   22.5270   35.2870 C   0  0  0  0  0  0  0  0  0  0  0  0
   40.8830   22.6380   36.2620 C   0  0  0  0  0  0  0  0  0  0  0  0
   40.9850   21.8500   37.4060 C   0  0  0  0  0  0  0  0  0  0  0  0
   42.0570   21.0170   37.5210 N   0  0  0  0  0  0  0  0  0  0  0  0
   43.0100   20.9320   36.5730 C   0  0  0  0  0  0  0  0  0  0  0  0
   42.9300   21.6840   35.4610 N   0  0  0  0  0  0  0  0  0  0  0  0
   41.8260   23.1350   34.3960 H   0  0  0  0  0  0  0  0  0  0  0  0
   40.2090   21.9350   38.1520 H   0  0  0  0  0  0  0  0  0  0  0  0
   43.7550   20.2190   36.8690 H   0  0  0  0  0  0  0  0  0  0  0  0
   37.6480   25.9800   34.6090 C   0  0  0  0  0  0  0  0  0  0  0  0
   37.2740   27.2010   35.1130 C   0  0  0  0  0  0  0  0  0  0  0  0
   37.4960   27.3650   36.1660 H   0  0  0  0  0  0  0  0  0  0  0  0
   36.6570   28.2100   34.4130 C   0  0  0  0  0  0  0  0  0  0  0  0
   36.3860   29.1540   34.8660 H   0  0  0  0  0  0  0  0  0  0  0  0
   36.4240   27.8860   33.0740 C   0  0  0  0  0  3  0  0  0  0  0  0
   36.7920   26.6700   32.5560 C   0  0  0  0  0  3  0  0  0  0  0  0
   37.3950   25.7300   33.3120 N   0  0  0  0  0  0  0  0  0  0  0  0
  1  9  1  0  0  0  0
  1  2  1  0  0  0  0
  2  6  1  0  0  0  0
  3  2  2  0  0  0  0
  3  7  1  0  0  0  0
  4  3  1  0  0  0  0
  5  4  1  0  0  0  0
  5  1  2  0  0  0  0
  8 13  2  0  0  0  0
  8  9  1  0  0  0  0
  9 10  2  0  0  0  0
 10 11  1  0  0  0  0
 10 15  1  0  0  0  0
 12 16  1  0  0  0  0
 12 11  2  0  0  0  0
 13 12  1  0  0  0  0
 14  8  1  0  0  0  0
 17 18  1  0  0  0  0
 17  4  1  0  0  0  0
 18 19  1  0  0  0  0
 20 21  1  0  0  0  0
 20 18  2  0  0  0  0
 22 20  1  0  0  0  0
 23 22  2  0  0  0  0
 23 24  1  0  0  0  0
 24 17  2  0  0  0  0
M  END
>  <minimizedAffinity>
-4.47604418

$$$$

 OpenBabel03272500453D

 24 26  0  0  0  0  0  0  0  0999 V2000
   36.2820   29.7180   32.0330 C   0  0  0  0  0  0  0  0  0  0  0  0
   36.3620   28.5280   32.7620 C   0  0  0  0  0  0  0  0  0  0  0  0
   35.7900   28.7670   34.0190 C   0  0  0  0  0  0  0  0  0  0  0  0
   35.3940   30.0570   34.0100 N   0  0  0  0  0  0  0  0  0  0  0  0
   35.6930   30.5850   32.8400 N   0  0  0  0  0  0  0  0  0  0  0  0
   36.7910   27.5970   32.4050 H   0  0  0  0  0  0  0  0  0  0  0  0
   35.7090   28.0210   34.8090 H   0  0  0  0  0  0  0  0  0  0  0  0
   36.9290   31.0790   30.0250 C   0  0  0  0  0  0  0  0  0  0  0  0
   36.7800   29.8370   30.6780 C   0  0  0  0  0  0  0  0  0  0  0  0
   37.1310   28.6850   29.9780 C   0  0  0  0  0  0  0  0  0  0  0  0
   37.5970   28.8200   28.7050 N   0  0  0  0  0  0  0  0  0  0  0  0
   37.7270   30.0210   28.1080 C   0  0  0  0  0  0  0  0  0  0  0  0
   37.3940   31.1450   28.7660 N   0  0  0  0  0  0  0  0  0  0  0  0
   36.6580   31.9790   30.5610 H   0  0  0  0  0  0  0  0  0  0  0  0
   37.0180   27.7340   30.4770 H   0  0  0  0  0  0  0  0  0  0  0  0
   38.1100   29.8940   27.1140 H   0  0  0  0  0  0  0  0  0  0  0  0
   34.7600   30.7240   35.0920 C   0  0  0  0  0  0  0  0  0  0  0  0
   35.4500   31.6050   35.8870 C   0  0  0  0  0  0  0  0  0  0  0  0
   36.4980   31.7520   35.6300 H   0  0  0  0  0  0  0  0  0  0  0  0
   34.9390   32.3020   36.9560 C   0  0  0  0  0  0  0  0  0  0  0  0
   35.5340   32.9850   37.5470 H   0  0  0  0  0  0  0  0  0  0  0  0
   33.5880   32.0340   37.1890 C   0  0  0  0  0  3  0  0  0  0  0  0
   32.8850   31.1560   36.4050 C   0  0  0  0  0  3  0  0  0  0  0  0
   33.4620   30.5090   35.3710 N   0  0  0  0  0  0  0  0  0  0  0  0
  1  2  1  0  0  0  0
  1  5  2  0  0  0  0
  2  3  2  0  0  0  0
  3  7  1  0  0  0  0
  4  3  1  0  0  0  0
  4 17  1  0  0  0  0
  5  4  1  0  0  0  0
  6  2  1  0  0  0  0
  8 14  1  0  0  0  0
  8  9  1  0  0  0  0
  9  1  1  0  0  0  0
 10 15  1  0  0  0  0
 10  9  2  0  0  0  0
 11 10  1  0  0  0  0
 12 11  2  0  0  0  0
 12 13  1  0  0  0  0
 13  8  2  0  0  0  0
 16 12  1  0  0  0  0
 17 24  2  0  0  0  0
 17 18  1  0  0  0  0
 18 20  2  0  0  0  0
 19 18  1  0  0  0  0
 20 22  1  0  0  0  0
 20 21  1  0  0  0  0
 23 22  2  0  0  0  0
 24 23  1  0  0  0  0
M  END
>  <minimizedAffinity>
-4.45122194

$$$$

 OpenBabel03272500453D

 24 26  0  0  0  0  0  0  0  0999 V2000
   37.7920   27.0130   33.0980 C   0  0  0  0  0  0  0  0  0  0  0  0
   37.0150   27.5640   34.1210 C   0  0  0  0  0  0  0  0  0  0  0  0
   37.2430   26.8040   35.2770 C   0  0  0  0  0  0  0  0  0  0  0  0
   38.1260   25.8460   34.9250 N   0  0  0  0  0  0  0  0  0  0  0  0
   38.4270   25.9930   33.6510 N   0  0  0  0  0  0  0  0  0  0  0  0
   36.3590   28.4230   34.0220 H   0  0  0  0  0  0  0  0  0  0  0  0
   36.7720   26.9960   36.2400 H   0  0  0  0  0  0  0  0  0  0  0  0
   38.9140   27.4230   30.8900 C   0  0  0  0  0  0  0  0  0  0  0  0
   37.8050   27.5520   31.7530 C   0  0  0  0  0  0  0  0  0  0  0  0
   36.6820   28.2260   31.2790 C   0  0  0  0  0  0  0  0  0  0  0  0
   36.7160   28.7240   30.0110 N   0  0  0  0  0  0  0  0  0  0  0  0
   37.7910   28.5860   29.2110 C   0  0  0  0  0  0  0  0  0  0  0  0
   38.8850   27.9390   29.6490 N   0  0  0  0  0  0  0  0  0  0  0  0
   39.7910   26.9020   31.2500 H   0  0  0  0  0  0  0  0  0  0  0  0
   35.8330   28.3240   31.9390 H   0  0  0  0  0  0  0  0  0  0  0  0
   37.6010   29.0510   28.2620 H   0  0  0  0  0  0  0  0  0  0  0  0
   38.6380   24.8490   35.7970 C   0  0  0  0  0  0  0  0  0  0  0  0
   38.0350   24.5810   37.0020 C   0  0  0  0  0  0  0  0  0  0  0  0
   37.1540   25.1780   37.2320 H   0  0  0  0  0  0  0  0  0  0  0  0
   38.4430   23.6430   37.9200 C   0  0  0  0  0  0  0  0  0  0  0  0
   37.9260   23.4770   38.8550 H   0  0  0  0  0  0  0  0  0  0  0  0
   39.5810   22.9400   37.5160 C   0  0  0  0  0  3  0  0  0  0  0  0
   40.1950   23.1960   36.3170 C   0  0  0  0  0  3  0  0  0  0  0  0
   39.7300   24.1370   35.4690 N   0  0  0  0  0  0  0  0  0  0  0  0
  1  5  2  0  0  0  0
  1  2  1  0  0  0  0
  2  3  2  0  0  0  0
  3  7  1  0  0  0  0
  4  3  1  0  0  0  0
  4 17  1  0  0  0  0
  5  4  1  0  0  0  0
  6  2  1  0  0  0  0
  8 14  1  0  0  0  0
  8  9  1  0  0  0  0
  9  1  1  0  0  0  0
 10  9  2  0  0  0  0
 10 15  1  0  0  0  0
 11 10  1  0  0  0  0
 12 13  1  0  0  0  0
 12 11  2  0  0  0  0
 13  8  2  0  0  0  0
 16 12  1  0  0  0  0
 17 18  1  0  0  0  0
 18 19  1  0  0  0  0
 18 20  2  0  0  0  0
 20 21  1  0  0  0  0
 22 20  1  0  0  0  0
 23 22  2  0  0  0  0
 24 17  2  0  0  0  0
 24 23  1  0  0  0  0
M  END
>  <minimizedAffinity>
-4.44599724

$$$$

 OpenBabel03272500453D

 24 26  0  0  0  0  0  0  0  0999 V2000
   36.2200   28.0970   32.4450 C   0  0  0  0  0  0  0  0  0  0  0  0
   36.2630   29.2560   31.6650 C   0  0  0  0  0  0  0  0  0  0  0  0
   35.7940   30.3130   32.4570 C   0  0  0  0  0  0  0  0  0  0  0  0
   35.4900   29.7740   33.6570 N   0  0  0  0  0  0  0  0  0  0  0  0
   35.7490   28.4830   33.6190 N   0  0  0  0  0  0  0  0  0  0  0  0
   36.6020   29.3110   30.6350 H   0  0  0  0  0  0  0  0  0  0  0  0
   35.7120   31.3450   32.1180 H   0  0  0  0  0  0  0  0  0  0  0  0
   37.9680   26.3440   32.0320 C   0  0  0  0  0  0  0  0  0  0  0  0
   36.6370   26.8040   31.9440 C   0  0  0  0  0  0  0  0  0  0  0  0
   35.6950   25.9690   31.3470 C   0  0  0  0  0  0  0  0  0  0  0  0
   36.1090   24.7570   30.8830 N   0  0  0  0  0  0  0  0  0  0  0  0
   37.3880   24.3460   30.9810 C   0  0  0  0  0  0  0  0  0  0  0  0
   38.3130   25.1370   31.5530 N   0  0  0  0  0  0  0  0  0  0  0  0
   38.7070   26.9860   32.4930 H   0  0  0  0  0  0  0  0  0  0  0  0
   34.6760   26.3200   31.2800 H   0  0  0  0  0  0  0  0  0  0  0  0
   37.4900   23.3670   30.5530 H   0  0  0  0  0  0  0  0  0  0  0  0
   34.9770   30.4950   34.7680 C   0  0  0  0  0  0  0  0  0  0  0  0
   35.7790   31.3330   35.5030 C   0  0  0  0  0  0  0  0  0  0  0  0
   36.8160   31.4010   35.1770 H   0  0  0  0  0  0  0  0  0  0  0  0
   35.3900   32.0750   36.5930 C   0  0  0  0  0  0  0  0  0  0  0  0
   36.0700   32.7200   37.1330 H   0  0  0  0  0  0  0  0  0  0  0  0
   34.0420   31.9070   36.9170 C   0  0  0  0  0  3  0  0  0  0  0  0
   33.2280   31.0740   36.1930 C   0  0  0  0  0  3  0  0  0  0  0  0
   33.6890   30.3770   35.1330 N   0  0  0  0  0  0  0  0  0  0  0  0
  1  5  2  0  0  0  0
  2  1  1  0  0  0  0
  2  3  2  0  0  0  0
  3  4  1  0  0  0  0
  4 17  1  0  0  0  0
  5  4  1  0  0  0  0
  6  2  1  0  0  0  0
  7  3  1  0  0  0  0
  8 14  1  0  0  0  0
  9  8  1  0  0  0  0
  9  1  1  0  0  0  0
 10  9  2  0  0  0  0
 11 12  2  0  0  0  0
 11 10  1  0  0  0  0
 12 13  1  0  0  0  0
 13  8  2  0  0  0  0
 15 10  1  0  0  0  0
 16 12  1  0  0  0  0
 17 24  2  0  0  0  0
 17 18  1  0  0  0  0
 18 20  2  0  0  0  0
 19 18  1  0  0  0  0
 20 22  1  0  0  0  0
 20 21  1  0  0  0  0
 23 22  2  0  0  0  0
 24 23  1  0  0  0  0
M  END
>  <minimizedAffinity>
-4.40662766

$$$$
