
 OpenBabel03262520363D

 41 43  0  0  0  0  0  0  0  0999 V2000
   37.4290   24.6020   33.1800 C   0  0  0  0  0  0  0  0  0  0  0  0
   36.6930   25.2210   32.1590 C   0  0  0  0  0  0  0  0  0  0  0  0
   36.1020   24.4880   31.1460 C   0  0  0  0  0  0  0  0  0  0  0  0
   36.2270   23.1220   31.1200 C   0  0  0  0  0  0  0  0  0  0  0  0
   36.9460   22.5120   32.1160 C   0  0  0  0  0  0  0  0  0  0  0  0
   37.5480   23.2040   33.1380 C   0  0  0  0  0  0  0  0  0  0  0  0
   35.5640   25.0800   30.4210 H   0  0  0  0  0  0  0  0  0  0  0  0
   35.7090   22.6980   30.2680 H   0  0  0  0  0  0  0  0  0  0  0  0
   36.9310   21.4270   31.9230 H   0  0  0  0  0  0  0  0  0  0  0  0
   38.0310   22.4760   33.7020 H   0  0  0  0  0  0  0  0  0  0  0  0
   38.2050   25.4300   34.4670 S   0  0  0  0  0  0  0  0  0  0  0  0
   39.3350   26.2890   33.9620 O   0  0  0  0  0  0  0  0  0  0  0  0
   37.1380   26.3610   35.1390 O   0  0  0  0  0  0  0  0  0  0  0  0
   38.7140   24.4980   35.8140 C   0  0  0  0  0  0  0  0  0  0  0  0
   39.6300   23.5630   36.1490 C   0  0  0  0  0  0  0  0  0  0  0  0
   40.2890   23.2630   35.3690 H   0  0  0  0  0  0  0  0  0  0  0  0
   39.7980   22.9060   37.3300 C   0  0  0  0  0  0  0  0  0  0  0  0
   40.5840   22.1840   37.4370 H   0  0  0  0  0  0  0  0  0  0  0  0
   38.9120   23.2340   38.3280 C   0  0  0  0  0  3  0  0  0  0  0  0
   37.9610   24.1730   38.0480 C   0  0  0  0  0  3  0  0  0  0  0  0
   37.8720   24.7670   36.8610 N   0  0  0  0  0  0  0  0  0  0  0  0
   36.6410   26.5790   32.2940 O   0  0  0  0  0  0  0  0  0  0  0  0
   38.6680   27.6880   31.0230 O   0  0  0  0  0  0  0  0  0  0  0  0
   37.1500   27.7450   31.1920 P   0  0  1  0  0  0  0  0  0  0  0  0
   36.3700   27.5450   29.7020 O   0  0  0  0  0  0  0  0  0  0  0  0
   35.4040   27.6090   29.9040 H   0  0  0  0  0  0  0  0  0  0  0  0
   36.8370   29.3200   31.7430 O   0  0  0  0  0  0  0  0  0  0  0  0
   35.4500   29.5390   31.7010 C   0  0  0  0  0  0  0  0  0  0  0  0
   35.2060   30.1330   30.7720 H   0  0  0  0  0  0  0  0  0  0  0  0
   34.9610   28.5610   31.5770 H   0  0  0  0  0  0  0  0  0  0  0  0
   35.2500   29.9030   34.1290 C   0  0  0  0  0  3  0  0  0  0  0  0
   34.9760   30.2560   32.9050 C   0  0  0  0  0  3  0  0  0  0  0  0
   34.9320   32.1980   36.9650 C   0  0  0  0  0  0  0  0  0  0  0  0
   33.5520   32.1900   37.2020 C   0  0  0  0  0  0  0  0  0  0  0  0
   32.7480   31.3940   36.3850 C   0  0  0  0  0  0  0  0  0  0  0  0
   33.4040   30.6830   35.4070 N   0  0  0  0  0  0  0  0  0  0  0  0
   34.7060   30.7160   35.2120 C   0  0  0  0  0  0  0  0  0  0  0  0
   35.4630   31.4800   36.0000 N   0  0  0  0  0  0  0  0  0  0  0  0
   35.5000   32.8400   37.6380 H   0  0  0  0  0  0  0  0  0  0  0  0
   33.0030   32.7340   37.9600 H   0  0  0  0  0  0  0  0  0  0  0  0
   31.6640   31.2960   36.4610 H   0  0  0  0  0  0  0  0  0  0  0  0
  1 11  1  0  0  0  0
  2 22  1  0  0  0  0
  2  1  2  0  0  0  0
  3  2  1  0  0  0  0
  4  3  2  0  0  0  0
  4  5  1  0  0  0  0
  5  6  2  0  0  0  0
  6  1  1  0  0  0  0
  6 10  1  0  0  0  0
  7  3  1  0  0  0  0
  8  4  1  0  0  0  0
  9  5  1  0  0  0  0
 11 13  2  0  0  0  0
 11 14  1  0  0  0  0
 12 11  2  0  0  0  0
 14 15  2  0  0  0  0
 14 21  1  0  0  0  0
 15 17  1  0  0  0  0
 16 15  1  0  0  0  0
 17 18  1  0  0  0  0
 17 19  2  0  0  0  0
 20 19  1  0  0  0  0
 21 20  2  0  0  0  0
 24 23  2  6  0  0  0
 24 27  1  0  0  0  0
 24 22  1  0  0  0  0
 25 26  1  0  0  0  0
 25 24  1  0  0  0  0
 28 27  1  0  0  0  0
 28 32  1  0  0  0  0
 29 28  1  0  0  0  0
 30 28  1  0  0  0  0
 31 37  1  0  0  0  0
 32 31  2  0  0  0  0
 33 34  1  0  0  0  0
 33 39  1  0  0  0  0
 34 40  1  0  0  0  0
 35 41  1  0  0  0  0
 35 34  2  0  0  0  0
 36 35  1  0  0  0  0
 37 36  2  0  0  0  0
 37 38  1  0  0  0  0
 38 33  2  0  0  0  0
M  END
>  <minimizedAffinity>
-6.2340169

$$$$

 OpenBabel03262520363D

 41 43  0  0  0  0  0  0  0  0999 V2000
   37.3570   22.2890   33.6720 C   0  0  0  0  0  0  0  0  0  0  0  0
   36.9080   22.8270   32.4570 C   0  0  0  0  0  0  0  0  0  0  0  0
   35.8010   22.3160   31.8050 C   0  0  0  0  0  0  0  0  0  0  0  0
   35.1110   21.2590   32.3410 C   0  0  0  0  0  0  0  0  0  0  0  0
   35.5460   20.7290   33.5290 C   0  0  0  0  0  0  0  0  0  0  0  0
   36.6400   21.2070   34.2060 C   0  0  0  0  0  0  0  0  0  0  0  0
   35.5570   22.8170   30.8800 H   0  0  0  0  0  0  0  0  0  0  0  0
   34.2720   20.9810   31.7130 H   0  0  0  0  0  0  0  0  0  0  0  0
   34.8700   19.9000   33.7920 H   0  0  0  0  0  0  0  0  0  0  0  0
   36.7270   20.5880   35.0380 H   0  0  0  0  0  0  0  0  0  0  0  0
   38.7250   22.8470   34.5440 S   0  0  0  0  0  0  0  0  0  0  0  0
   39.0730   21.9120   35.6730 O   0  0  0  0  0  0  0  0  0  0  0  0
   39.9340   22.8890   33.5470 O   0  0  0  0  0  0  0  0  0  0  0  0
   38.7050   24.4710   35.0930 C   0  0  0  0  0  0  0  0  0  0  0  0
   38.0180   25.2810   35.9300 C   0  0  0  0  0  0  0  0  0  0  0  0
   37.2150   24.8240   36.4580 H   0  0  0  0  0  0  0  0  0  0  0  0
   38.1720   26.6160   36.1540 C   0  0  0  0  0  0  0  0  0  0  0  0
   37.5390   27.1180   36.8600 H   0  0  0  0  0  0  0  0  0  0  0  0
   39.1610   27.2350   35.4300 C   0  0  0  0  0  3  0  0  0  0  0  0
   39.8890   26.4680   34.5660 C   0  0  0  0  0  3  0  0  0  0  0  0
   39.6700   25.1650   34.4110 N   0  0  0  0  0  0  0  0  0  0  0  0
   37.6760   23.8710   32.0270 O   0  0  0  0  0  0  0  0  0  0  0  0
   38.3280   26.2130   31.0050 O   0  0  0  0  0  0  0  0  0  0  0  0
   37.1670   25.4180   31.5990 P   0  0  1  0  0  0  0  0  0  0  0  0
   35.8690   25.3430   30.5120 O   0  0  0  0  0  0  0  0  0  0  0  0
   35.1670   24.8280   30.9810 H   0  0  0  0  0  0  0  0  0  0  0  0
   36.6710   26.3190   32.9490 O   0  0  0  0  0  0  0  0  0  0  0  0
   36.6350   27.6770   32.5890 C   0  0  0  0  0  0  0  0  0  0  0  0
   37.6900   28.0270   32.3920 H   0  0  0  0  0  0  0  0  0  0  0  0
   36.1030   27.7540   31.6300 H   0  0  0  0  0  0  0  0  0  0  0  0
   35.8410   29.7930   33.5700 C   0  0  0  0  0  3  0  0  0  0  0  0
   36.0110   28.5030   33.6470 C   0  0  0  0  0  3  0  0  0  0  0  0
   35.2590   31.8620   36.5350 C   0  0  0  0  0  0  0  0  0  0  0  0
   33.8930   31.6670   36.7710 C   0  0  0  0  0  0  0  0  0  0  0  0
   33.1890   30.8250   35.9080 C   0  0  0  0  0  0  0  0  0  0  0  0
   33.9210   30.2590   34.8910 N   0  0  0  0  0  0  0  0  0  0  0  0
   35.2080   30.4670   34.6980 C   0  0  0  0  0  0  0  0  0  0  0  0
   35.8680   31.2730   35.5290 N   0  0  0  0  0  0  0  0  0  0  0  0
   35.7470   32.5300   37.2440 H   0  0  0  0  0  0  0  0  0  0  0  0
   33.2850   32.0930   37.5580 H   0  0  0  0  0  0  0  0  0  0  0  0
   32.1260   30.5880   35.9790 H   0  0  0  0  0  0  0  0  0  0  0  0
  1  6  1  0  0  0  0
  1 11  1  0  0  0  0
  2  1  2  0  0  0  0
  3  4  2  0  0  0  0
  3  2  1  0  0  0  0
  4  5  1  0  0  0  0
  5  9  1  0  0  0  0
  5  6  2  0  0  0  0
  6 10  1  0  0  0  0
  7  3  1  0  0  0  0
  8  4  1  0  0  0  0
 11 14  1  0  0  0  0
 11 12  2  0  0  0  0
 13 11  2  0  0  0  0
 14 15  1  0  0  0  0
 15 17  2  0  0  0  0
 15 16  1  0  0  0  0
 17 18  1  0  0  0  0
 19 17  1  0  0  0  0
 20 19  2  0  0  0  0
 21 20  1  0  0  0  0
 21 14  2  0  0  0  0
 22  2  1  0  0  0  0
 24 23  2  6  0  0  0
 24 22  1  0  0  0  0
 24 27  1  0  0  0  0
 25 26  1  0  0  0  0
 25 24  1  0  0  0  0
 28 27  1  0  0  0  0
 28 32  1  0  0  0  0
 29 28  1  0  0  0  0
 30 28  1  0  0  0  0
 31 32  2  0  0  0  0
 31 37  1  0  0  0  0
 33 34  1  0  0  0  0
 33 39  1  0  0  0  0
 34 40  1  0  0  0  0
 35 41  1  0  0  0  0
 35 34  2  0  0  0  0
 36 35  1  0  0  0  0
 37 36  2  0  0  0  0
 37 38  1  0  0  0  0
 38 33  2  0  0  0  0
M  END
>  <minimizedAffinity>
-6.09886456

$$$$

 OpenBabel03262520363D

 41 43  0  0  0  0  0  0  0  0999 V2000
   38.5530   24.6770   34.5730 C   0  0  0  0  0  0  0  0  0  0  0  0
   38.4600   25.8820   33.8600 C   0  0  0  0  0  0  0  0  0  0  0  0
   38.2920   27.0930   34.5050 C   0  0  0  0  0  0  0  0  0  0  0  0
   38.2110   27.1400   35.8740 C   0  0  0  0  0  0  0  0  0  0  0  0
   38.3000   25.9650   36.5750 C   0  0  0  0  0  0  0  0  0  0  0  0
   38.4660   24.7430   35.9720 C   0  0  0  0  0  0  0  0  0  0  0  0
   38.2360   27.9460   33.8460 H   0  0  0  0  0  0  0  0  0  0  0  0
   38.0810   28.1580   36.2230 H   0  0  0  0  0  0  0  0  0  0  0  0
   38.2140   26.2080   37.6470 H   0  0  0  0  0  0  0  0  0  0  0  0
   38.4670   24.0590   36.7570 H   0  0  0  0  0  0  0  0  0  0  0  0
   38.7490   23.1290   33.8590 S   0  0  0  0  0  0  0  0  0  0  0  0
   39.6200   23.1990   32.6320 O   0  0  0  0  0  0  0  0  0  0  0  0
   39.4540   22.2100   34.9150 O   0  0  0  0  0  0  0  0  0  0  0  0
   37.3300   22.2210   33.5380 C   0  0  0  0  0  0  0  0  0  0  0  0
   36.6270   21.1760   34.0290 C   0  0  0  0  0  0  0  0  0  0  0  0
   37.0260   20.7240   34.9060 H   0  0  0  0  0  0  0  0  0  0  0  0
   35.5070   20.5810   33.5310 C   0  0  0  0  0  0  0  0  0  0  0  0
   35.0650   19.7520   34.0480 H   0  0  0  0  0  0  0  0  0  0  0  0
   35.0180   21.1110   32.3620 C   0  0  0  0  0  3  0  0  0  0  0  0
   35.6870   22.1680   31.8160 C   0  0  0  0  0  3  0  0  0  0  0  0
   36.7780   22.6880   32.3740 N   0  0  0  0  0  0  0  0  0  0  0  0
   38.5550   25.7040   32.5090 O   0  0  0  0  0  0  0  0  0  0  0  0
   38.1210   27.3860   30.5250 O   0  0  0  0  0  0  0  0  0  0  0  0
   37.4910   26.2440   31.3220 P   0  0  1  0  0  0  0  0  0  0  0  0
   37.0390   24.9730   30.2980 O   0  0  0  0  0  0  0  0  0  0  0  0
   36.6330   24.2930   30.8900 H   0  0  0  0  0  0  0  0  0  0  0  0
   36.0800   26.9110   31.9880 O   0  0  0  0  0  0  0  0  0  0  0  0
   35.9930   28.2560   31.5950 C   0  0  0  0  0  0  0  0  0  0  0  0
   36.9370   28.5310   31.0390 H   0  0  0  0  0  0  0  0  0  0  0  0
   35.1730   28.3390   30.8660 H   0  0  0  0  0  0  0  0  0  0  0  0
   34.7240   29.2000   33.4840 C   0  0  0  0  0  3  0  0  0  0  0  0
   35.8050   29.1520   32.7570 C   0  0  0  0  0  3  0  0  0  0  0  0
   33.5930   31.2900   36.2700 C   0  0  0  0  0  0  0  0  0  0  0  0
   34.7800   31.9150   36.6740 C   0  0  0  0  0  0  0  0  0  0  0  0
   35.9530   31.6110   35.9820 C   0  0  0  0  0  0  0  0  0  0  0  0
   35.8260   30.7090   34.9520 N   0  0  0  0  0  0  0  0  0  0  0  0
   34.6920   30.1390   34.5990 C   0  0  0  0  0  0  0  0  0  0  0  0
   33.5780   30.4380   35.2690 N   0  0  0  0  0  0  0  0  0  0  0  0
   32.7160   31.5710   36.8520 H   0  0  0  0  0  0  0  0  0  0  0  0
   34.9170   32.6280   37.4770 H   0  0  0  0  0  0  0  0  0  0  0  0
   36.9400   32.0260   36.1930 H   0  0  0  0  0  0  0  0  0  0  0  0
  1  6  1  0  0  0  0
  2  3  1  0  0  0  0
  2  1  2  0  0  0  0
  3  4  2  0  0  0  0
  4  8  1  0  0  0  0
  4  5  1  0  0  0  0
  5  9  1  0  0  0  0
  6  5  2  0  0  0  0
  6 10  1  0  0  0  0
  7  3  1  0  0  0  0
 11  1  1  0  0  0  0
 11 13  2  0  0  0  0
 12 11  2  0  0  0  0
 14 11  1  0  0  0  0
 14 15  1  0  0  0  0
 15 16  1  0  0  0  0
 17 15  2  0  0  0  0
 17 18  1  0  0  0  0
 19 17  1  0  0  0  0
 20 19  2  0  0  0  0
 20 21  1  0  0  0  0
 21 14  2  0  0  0  0
 22  2  1  0  0  0  0
 24 23  2  6  0  0  0
 24 27  1  0  0  0  0
 24 22  1  0  0  0  0
 25 26  1  0  0  0  0
 25 24  1  0  0  0  0
 28 27  1  0  0  0  0
 28 32  1  0  0  0  0
 29 28  1  0  0  0  0
 30 28  1  0  0  0  0
 31 37  1  0  0  0  0
 32 31  2  0  0  0  0
 33 34  1  0  0  0  0
 33 39  1  0  0  0  0
 34 40  1  0  0  0  0
 35 41  1  0  0  0  0
 35 34  2  0  0  0  0
 36 35  1  0  0  0  0
 37 36  2  0  0  0  0
 37 38  1  0  0  0  0
 38 33  2  0  0  0  0
M  END
>  <minimizedAffinity>
-5.88973808

$$$$

 OpenBabel03262520363D

 41 43  0  0  0  0  0  0  0  0999 V2000
   38.5060   25.1950   33.7380 C   0  0  0  0  0  0  0  0  0  0  0  0
   37.4900   26.1610   33.6820 C   0  0  0  0  0  0  0  0  0  0  0  0
   37.4660   27.2370   34.5490 C   0  0  0  0  0  0  0  0  0  0  0  0
   38.4490   27.3830   35.4950 C   0  0  0  0  0  0  0  0  0  0  0  0
   39.4440   26.4420   35.5550 C   0  0  0  0  0  0  0  0  0  0  0  0
   39.5030   25.3590   34.7130 C   0  0  0  0  0  0  0  0  0  0  0  0
   36.6340   27.9090   34.4040 H   0  0  0  0  0  0  0  0  0  0  0  0
   38.2880   28.2740   36.0920 H   0  0  0  0  0  0  0  0  0  0  0  0
   40.1290   26.7310   36.3680 H   0  0  0  0  0  0  0  0  0  0  0  0
   40.3410   24.8270   35.0240 H   0  0  0  0  0  0  0  0  0  0  0  0
   38.6100   23.8230   32.7140 S   0  0  0  0  0  0  0  0  0  0  0  0
   38.8050   24.2260   31.2760 O   0  0  0  0  0  0  0  0  0  0  0  0
   39.8600   22.9910   33.1680 O   0  0  0  0  0  0  0  0  0  0  0  0
   37.3730   22.6420   32.8450 C   0  0  0  0  0  0  0  0  0  0  0  0
   36.9580   21.6540   33.6670 C   0  0  0  0  0  0  0  0  0  0  0  0
   37.5420   21.5090   34.5450 H   0  0  0  0  0  0  0  0  0  0  0  0
   35.9270   20.7770   33.5080 C   0  0  0  0  0  0  0  0  0  0  0  0
   35.7250   20.0430   34.2630 H   0  0  0  0  0  0  0  0  0  0  0  0
   35.2040   20.9080   32.3470 C   0  0  0  0  0  3  0  0  0  0  0  0
   35.5780   21.8890   31.4750 C   0  0  0  0  0  3  0  0  0  0  0  0
   36.6020   22.7050   31.7140 N   0  0  0  0  0  0  0  0  0  0  0  0
   36.5730   25.9060   32.7020 O   0  0  0  0  0  0  0  0  0  0  0  0
   37.3940   27.5820   30.8380 O   0  0  0  0  0  0  0  0  0  0  0  0
   36.1540   26.8880   31.4010 P   0  0  1  0  0  0  0  0  0  0  0  0
   35.3690   25.9890   30.1990 O   0  0  0  0  0  0  0  0  0  0  0  0
   34.5800   25.5920   30.6440 H   0  0  0  0  0  0  0  0  0  0  0  0
   35.1250   28.1550   31.8670 O   0  0  0  0  0  0  0  0  0  0  0  0
   35.8860   29.3310   31.9750 C   0  0  0  0  0  0  0  0  0  0  0  0
   36.9800   29.0520   32.0010 H   0  0  0  0  0  0  0  0  0  0  0  0
   35.7410   29.9090   31.0500 H   0  0  0  0  0  0  0  0  0  0  0  0
   34.6090   29.7490   34.0390 C   0  0  0  0  0  3  0  0  0  0  0  0
   35.5260   30.1030   33.1840 C   0  0  0  0  0  3  0  0  0  0  0  0
   35.0560   32.1700   36.7510 C   0  0  0  0  0  0  0  0  0  0  0  0
   33.7810   32.2060   37.3310 C   0  0  0  0  0  0  0  0  0  0  0  0
   32.7850   31.3970   36.7830 C   0  0  0  0  0  0  0  0  0  0  0  0
   33.1600   30.6280   35.7060 N   0  0  0  0  0  0  0  0  0  0  0  0
   34.3710   30.6200   35.1850 C   0  0  0  0  0  0  0  0  0  0  0  0
   35.3130   31.3990   35.7180 N   0  0  0  0  0  0  0  0  0  0  0  0
   35.7850   32.8260   37.2260 H   0  0  0  0  0  0  0  0  0  0  0  0
   33.4510   32.7960   38.1760 H   0  0  0  0  0  0  0  0  0  0  0  0
   31.7550   31.3290   37.1380 H   0  0  0  0  0  0  0  0  0  0  0  0
  1  6  1  0  0  0  0
  2  1  2  0  0  0  0
  2  3  1  0  0  0  0
  3  4  2  0  0  0  0
  4  5  1  0  0  0  0
  4  8  1  0  0  0  0
  5  9  1  0  0  0  0
  6 10  1  0  0  0  0
  6  5  2  0  0  0  0
  7  3  1  0  0  0  0
 11 14  1  0  0  0  0
 11 13  2  0  0  0  0
 11  1  1  0  0  0  0
 12 11  2  0  0  0  0
 14 15  1  0  0  0  0
 15 16  1  0  0  0  0
 17 15  2  0  0  0  0
 17 18  1  0  0  0  0
 19 17  1  0  0  0  0
 20 21  1  0  0  0  0
 20 19  2  0  0  0  0
 21 14  2  0  0  0  0
 22  2  1  0  0  0  0
 24 23  2  6  0  0  0
 24 27  1  0  0  0  0
 24 22  1  0  0  0  0
 25 26  1  0  0  0  0
 25 24  1  0  0  0  0
 27 28  1  0  0  0  0
 28 29  1  0  0  0  0
 28 32  1  0  0  0  0
 30 28  1  0  0  0  0
 31 37  1  0  0  0  0
 32 31  2  0  0  0  0
 33 39  1  0  0  0  0
 33 34  1  0  0  0  0
 34 40  1  0  0  0  0
 35 41  1  0  0  0  0
 35 34  2  0  0  0  0
 36 35  1  0  0  0  0
 37 36  2  0  0  0  0
 37 38  1  0  0  0  0
 38 33  2  0  0  0  0
M  END
>  <minimizedAffinity>
-5.88860178

$$$$

 OpenBabel03262520363D

 41 43  0  0  0  0  0  0  0  0999 V2000
   39.0020   25.2080   32.6500 C   0  0  0  0  0  0  0  0  0  0  0  0
   38.7570   25.9130   31.4620 C   0  0  0  0  0  0  0  0  0  0  0  0
   39.0210   25.3580   30.2240 C   0  0  0  0  0  0  0  0  0  0  0  0
   39.5340   24.0890   30.1320 C   0  0  0  0  0  0  0  0  0  0  0  0
   39.7760   23.3950   31.2900 C   0  0  0  0  0  0  0  0  0  0  0  0
   39.5290   23.9120   32.5380 C   0  0  0  0  0  0  0  0  0  0  0  0
   38.7890   26.0000   29.3880 H   0  0  0  0  0  0  0  0  0  0  0  0
   39.6810   23.8010   29.0970 H   0  0  0  0  0  0  0  0  0  0  0  0
   40.1810   22.4090   31.0110 H   0  0  0  0  0  0  0  0  0  0  0  0
   39.8390   23.1690   33.1970 H   0  0  0  0  0  0  0  0  0  0  0  0
   38.7190   25.8200   34.2280 S   0  0  0  0  0  0  0  0  0  0  0  0
   39.4300   27.1300   34.4420 O   0  0  0  0  0  0  0  0  0  0  0  0
   37.1770   26.0650   34.3680 O   0  0  0  0  0  0  0  0  0  0  0  0
   38.9980   24.7620   35.5480 C   0  0  0  0  0  0  0  0  0  0  0  0
   39.8230   23.7600   35.9260 C   0  0  0  0  0  0  0  0  0  0  0  0
   40.5740   23.4910   35.2220 H   0  0  0  0  0  0  0  0  0  0  0  0
   39.7970   23.0050   37.0600 C   0  0  0  0  0  0  0  0  0  0  0  0
   40.5330   22.2400   37.2120 H   0  0  0  0  0  0  0  0  0  0  0  0
   38.7910   23.2950   37.9490 C   0  0  0  0  0  3  0  0  0  0  0  0
   37.9240   24.2970   37.6210 C   0  0  0  0  0  3  0  0  0  0  0  0
   38.0260   24.9860   36.4880 N   0  0  0  0  0  0  0  0  0  0  0  0
   38.2490   27.1610   31.6850 O   0  0  0  0  0  0  0  0  0  0  0  0
   36.5280   29.1570   31.7800 O   0  0  0  0  0  0  0  0  0  0  0  0
   36.7750   27.7820   31.1600 P   0  0  1  0  0  0  0  0  0  0  0  0
   36.7280   27.8670   29.4680 O   0  0  0  0  0  0  0  0  0  0  0  0
   36.8820   26.9410   29.1570 H   0  0  0  0  0  0  0  0  0  0  0  0
   35.4650   26.8340   31.6760 O   0  0  0  0  0  0  0  0  0  0  0  0
   35.3000   25.7720   30.7720 C   0  0  0  0  0  0  0  0  0  0  0  0
   34.3290   25.9200   30.2140 H   0  0  0  0  0  0  0  0  0  0  0  0
   36.0990   25.8460   30.0190 H   0  0  0  0  0  0  0  0  0  0  0  0
   35.9620   23.4170   31.0620 C   0  0  0  0  0  3  0  0  0  0  0  0
   35.2980   24.4640   31.4630 C   0  0  0  0  0  3  0  0  0  0  0  0
   36.4030   20.8920   33.6770 C   0  0  0  0  0  0  0  0  0  0  0  0
   35.5630   19.8600   33.2400 C   0  0  0  0  0  0  0  0  0  0  0  0
   34.8560   20.0460   32.0510 C   0  0  0  0  0  0  0  0  0  0  0  0
   35.0590   21.2470   31.4130 N   0  0  0  0  0  0  0  0  0  0  0  0
   35.8580   22.1970   31.8550 C   0  0  0  0  0  0  0  0  0  0  0  0
   36.5270   22.0070   32.9920 N   0  0  0  0  0  0  0  0  0  0  0  0
   36.9240   20.6830   34.6110 H   0  0  0  0  0  0  0  0  0  0  0  0
   35.3800   18.9040   33.7140 H   0  0  0  0  0  0  0  0  0  0  0  0
   34.1720   19.3250   31.6000 H   0  0  0  0  0  0  0  0  0  0  0  0
  1 11  1  0  0  0  0
  2 22  1  0  0  0  0
  2  1  2  0  0  0  0
  3  2  1  0  0  0  0
  4  3  2  0  0  0  0
  4  5  1  0  0  0  0
  5  6  2  0  0  0  0
  6  1  1  0  0  0  0
  6 10  1  0  0  0  0
  7  3  1  0  0  0  0
  8  4  1  0  0  0  0
  9  5  1  0  0  0  0
 11 13  2  0  0  0  0
 11 12  2  0  0  0  0
 11 14  1  0  0  0  0
 14 15  2  0  0  0  0
 14 21  1  0  0  0  0
 15 17  1  0  0  0  0
 16 15  1  0  0  0  0
 17 18  1  0  0  0  0
 17 19  2  0  0  0  0
 20 19  1  0  0  0  0
 21 20  2  0  0  0  0
 24 27  1  0  0  0  0
 24 22  1  0  0  0  0
 24 23  2  1  0  0  0
 25 24  1  0  0  0  0
 26 25  1  0  0  0  0
 28 32  1  0  0  0  0
 28 27  1  0  0  0  0
 29 28  1  0  0  0  0
 30 28  1  0  0  0  0
 31 32  2  0  0  0  0
 31 37  1  0  0  0  0
 33 39  1  0  0  0  0
 34 33  1  0  0  0  0
 34 40  1  0  0  0  0
 35 34  2  0  0  0  0
 36 37  2  0  0  0  0
 36 35  1  0  0  0  0
 37 38  1  0  0  0  0
 38 33  2  0  0  0  0
 41 35  1  0  0  0  0
M  END
>  <minimizedAffinity>
-5.79293346

$$$$

 OpenBabel03262520363D

 41 43  0  0  0  0  0  0  0  0999 V2000
   38.9020   23.5550   35.8580 C   0  0  0  0  0  0  0  0  0  0  0  0
   38.1000   24.6130   36.3110 C   0  0  0  0  0  0  0  0  0  0  0  0
   37.8980   24.8420   37.6590 C   0  0  0  0  0  0  0  0  0  0  0  0
   38.4870   24.0280   38.5930 C   0  0  0  0  0  0  0  0  0  0  0  0
   39.2720   22.9920   38.1560 C   0  0  0  0  0  0  0  0  0  0  0  0
   39.4950   22.7300   36.8270 C   0  0  0  0  0  0  0  0  0  0  0  0
   37.2620   25.6860   37.8790 H   0  0  0  0  0  0  0  0  0  0  0  0
   38.2330   24.3400   39.6000 H   0  0  0  0  0  0  0  0  0  0  0  0
   39.6500   22.4610   39.0440 H   0  0  0  0  0  0  0  0  0  0  0  0
   40.0950   21.8800   36.8220 H   0  0  0  0  0  0  0  0  0  0  0  0
   39.1970   23.1870   34.2090 S   0  0  0  0  0  0  0  0  0  0  0  0
   40.0050   24.2690   33.5430 O   0  0  0  0  0  0  0  0  0  0  0  0
   40.0240   21.8550   34.1650 O   0  0  0  0  0  0  0  0  0  0  0  0
   37.8490   22.7600   33.2390 C   0  0  0  0  0  0  0  0  0  0  0  0
   36.9110   21.7940   33.1240 C   0  0  0  0  0  0  0  0  0  0  0  0
   36.9650   21.0110   33.8430 H   0  0  0  0  0  0  0  0  0  0  0  0
   35.9360   21.6480   32.1840 C   0  0  0  0  0  0  0  0  0  0  0  0
   35.2610   20.8150   32.2350 H   0  0  0  0  0  0  0  0  0  0  0  0
   35.8940   22.6150   31.2100 C   0  0  0  0  0  3  0  0  0  0  0  0
   36.8190   23.6180   31.2720 C   0  0  0  0  0  3  0  0  0  0  0  0
   37.7390   23.6820   32.2320 N   0  0  0  0  0  0  0  0  0  0  0  0
   37.5710   25.3490   35.2890 O   0  0  0  0  0  0  0  0  0  0  0  0
   36.5050   27.7310   34.9120 O   0  0  0  0  0  0  0  0  0  0  0  0
   37.8330   26.9760   34.9470 P   0  0  1  0  0  0  0  0  0  0  0  0
   38.8880   27.6650   36.0800 O   0  0  0  0  0  0  0  0  0  0  0  0
   39.7160   27.1270   36.0250 H   0  0  0  0  0  0  0  0  0  0  0  0
   38.4990   27.2010   33.4030 O   0  0  0  0  0  0  0  0  0  0  0  0
   37.4550   27.2000   32.4630 C   0  0  0  0  0  0  0  0  0  0  0  0
   37.5000   26.2370   31.8740 H   0  0  0  0  0  0  0  0  0  0  0  0
   36.5060   27.1750   33.0180 H   0  0  0  0  0  0  0  0  0  0  0  0
   36.6050   28.7190   30.7200 C   0  0  0  0  0  3  0  0  0  0  0  0
   37.5430   28.3620   31.5500 C   0  0  0  0  0  3  0  0  0  0  0  0
   37.6390   30.9120   27.9750 C   0  0  0  0  0  0  0  0  0  0  0  0
   37.2190   32.1710   28.4250 C   0  0  0  0  0  0  0  0  0  0  0  0
   36.5870   32.2490   29.6660 C   0  0  0  0  0  0  0  0  0  0  0  0
   36.4360   31.0590   30.3400 N   0  0  0  0  0  0  0  0  0  0  0  0
   36.8430   29.8920   29.8850 C   0  0  0  0  0  0  0  0  0  0  0  0
   37.4450   29.8310   28.6970 N   0  0  0  0  0  0  0  0  0  0  0  0
   38.1240   30.9220   26.9990 H   0  0  0  0  0  0  0  0  0  0  0  0
   37.3210   33.1250   27.9250 H   0  0  0  0  0  0  0  0  0  0  0  0
   36.2130   33.1620   30.1330 H   0  0  0  0  0  0  0  0  0  0  0  0
  1  2  2  0  0  0  0
  1  6  1  0  0  0  0
  2  3  1  0  0  0  0
  3  7  1  0  0  0  0
  3  4  2  0  0  0  0
  4  8  1  0  0  0  0
  5  4  1  0  0  0  0
  5  9  1  0  0  0  0
  6  5  2  0  0  0  0
 10  6  1  0  0  0  0
 11  1  1  0  0  0  0
 12 11  2  0  0  0  0
 13 11  2  0  0  0  0
 14 11  1  0  0  0  0
 15 14  1  0  0  0  0
 15 16  1  0  0  0  0
 17 18  1  0  0  0  0
 17 15  2  0  0  0  0
 19 20  2  0  0  0  0
 19 17  1  0  0  0  0
 20 21  1  0  0  0  0
 21 14  2  0  0  0  0
 22  2  1  0  0  0  0
 24 23  2  1  0  0  0
 24 22  1  0  0  0  0
 24 25  1  0  0  0  0
 26 25  1  0  0  0  0
 27 24  1  0  0  0  0
 28 30  1  0  0  0  0
 28 27  1  0  0  0  0
 29 28  1  0  0  0  0
 31 32  2  0  0  0  0
 32 28  1  0  0  0  0
 33 34  2  0  0  0  0
 33 38  1  0  0  0  0
 34 35  1  0  0  0  0
 35 41  1  0  0  0  0
 35 36  2  0  0  0  0
 37 36  1  0  0  0  0
 37 31  1  0  0  0  0
 38 37  2  0  0  0  0
 39 33  1  0  0  0  0
 40 34  1  0  0  0  0
M  END
>  <minimizedAffinity>
-5.66644001

$$$$

 OpenBabel03262520363D

 41 43  0  0  0  0  0  0  0  0999 V2000
   37.5010   27.4160   33.1700 C   0  0  0  0  0  0  0  0  0  0  0  0
   38.8550   27.0710   33.0440 C   0  0  0  0  0  0  0  0  0  0  0  0
   39.6760   26.9450   34.1490 C   0  0  0  0  0  0  0  0  0  0  0  0
   39.1750   27.1580   35.4080 C   0  0  0  0  0  0  0  0  0  0  0  0
   37.8530   27.4960   35.5370 C   0  0  0  0  0  0  0  0  0  0  0  0
   37.0060   27.6320   34.4660 C   0  0  0  0  0  0  0  0  0  0  0  0
   40.6960   26.6750   33.9190 H   0  0  0  0  0  0  0  0  0  0  0  0
   39.9420   27.0190   36.1620 H   0  0  0  0  0  0  0  0  0  0  0  0
   37.6440   27.6230   36.6120 H   0  0  0  0  0  0  0  0  0  0  0  0
   36.0960   27.9180   34.8820 H   0  0  0  0  0  0  0  0  0  0  0  0
   36.4130   27.6080   31.8580 S   0  0  0  0  0  0  0  0  0  0  0  0
   36.0060   26.2750   31.2860 O   0  0  0  0  0  0  0  0  0  0  0  0
   35.1310   28.3210   32.4110 O   0  0  0  0  0  0  0  0  0  0  0  0
   36.8660   28.6870   30.6050 C   0  0  0  0  0  0  0  0  0  0  0  0
   37.3870   28.6780   29.3580 C   0  0  0  0  0  0  0  0  0  0  0  0
   37.6070   27.7160   28.9580 H   0  0  0  0  0  0  0  0  0  0  0  0
   37.7220   29.7270   28.5570 C   0  0  0  0  0  0  0  0  0  0  0  0
   38.1290   29.5490   27.5800 H   0  0  0  0  0  0  0  0  0  0  0  0
   37.5060   30.9760   29.0850 C   0  0  0  0  0  3  0  0  0  0  0  0
   36.9820   31.0500   30.3440 C   0  0  0  0  0  3  0  0  0  0  0  0
   36.6820   29.9680   31.0570 N   0  0  0  0  0  0  0  0  0  0  0  0
   39.2330   26.8860   31.7440 O   0  0  0  0  0  0  0  0  0  0  0  0
   39.2210   25.4910   29.5060 O   0  0  0  0  0  0  0  0  0  0  0  0
   39.6220   25.4380   30.9800 P   0  0  1  0  0  0  0  0  0  0  0  0
   41.2730   25.0970   31.1430 O   0  0  0  0  0  0  0  0  0  0  0  0
   41.4380   25.0680   32.1180 H   0  0  0  0  0  0  0  0  0  0  0  0
   38.7490   24.1290   31.6170 O   0  0  0  0  0  0  0  0  0  0  0  0
   39.6550   23.2370   32.2140 C   0  0  0  0  0  0  0  0  0  0  0  0
   39.4260   22.1920   31.8520 H   0  0  0  0  0  0  0  0  0  0  0  0
   40.6600   23.4790   31.8370 H   0  0  0  0  0  0  0  0  0  0  0  0
   38.4740   23.4030   34.3700 C   0  0  0  0  0  3  0  0  0  0  0  0
   39.5810   23.2930   33.6910 C   0  0  0  0  0  3  0  0  0  0  0  0
   37.7780   24.0580   37.9050 C   0  0  0  0  0  0  0  0  0  0  0  0
   38.8650   23.4430   38.5410 C   0  0  0  0  0  0  0  0  0  0  0  0
   39.8230   22.8130   37.7460 C   0  0  0  0  0  0  0  0  0  0  0  0
   39.6020   22.8580   36.3900 N   0  0  0  0  0  0  0  0  0  0  0  0
   38.5660   23.4450   35.8250 C   0  0  0  0  0  0  0  0  0  0  0  0
   37.6580   24.0430   36.5960 N   0  0  0  0  0  0  0  0  0  0  0  0
   37.0680   24.5300   38.5830 H   0  0  0  0  0  0  0  0  0  0  0  0
   39.0710   23.3890   39.6020 H   0  0  0  0  0  0  0  0  0  0  0  0
   40.7140   22.3000   38.1120 H   0  0  0  0  0  0  0  0  0  0  0  0
  1  6  1  0  0  0  0
  2  1  2  0  0  0  0
  2  3  1  0  0  0  0
  3  4  2  0  0  0  0
  4  5  1  0  0  0  0
  4  8  1  0  0  0  0
  5  9  1  0  0  0  0
  6 10  1  0  0  0  0
  6  5  2  0  0  0  0
  7  3  1  0  0  0  0
 11 13  2  0  0  0  0
 11  1  1  0  0  0  0
 12 11  2  0  0  0  0
 14 21  1  0  0  0  0
 14 11  1  0  0  0  0
 15 14  2  0  0  0  0
 16 15  1  0  0  0  0
 17 19  2  0  0  0  0
 17 15  1  0  0  0  0
 18 17  1  0  0  0  0
 19 20  1  0  0  0  0
 20 21  2  0  0  0  0
 22  2  1  0  0  0  0
 24 23  2  6  0  0  0
 24 25  1  0  0  0  0
 24 27  1  0  0  0  0
 24 22  1  0  0  0  0
 25 26  1  0  0  0  0
 27 28  1  0  0  0  0
 28 32  1  0  0  0  0
 29 28  1  0  0  0  0
 30 28  1  0  0  0  0
 31 37  1  0  0  0  0
 32 31  2  0  0  0  0
 33 34  1  0  0  0  0
 33 39  1  0  0  0  0
 34 40  1  0  0  0  0
 35 41  1  0  0  0  0
 35 34  2  0  0  0  0
 36 35  1  0  0  0  0
 37 36  2  0  0  0  0
 37 38  1  0  0  0  0
 38 33  2  0  0  0  0
M  END
>  <minimizedAffinity>
-5.60415649

$$$$

 OpenBabel03262520363D

 41 43  0  0  0  0  0  0  0  0999 V2000
   37.5830   22.1180   35.5000 C   0  0  0  0  0  0  0  0  0  0  0  0
   37.5480   21.9350   34.1090 C   0  0  0  0  0  0  0  0  0  0  0  0
   36.5670   21.1710   33.5040 C   0  0  0  0  0  0  0  0  0  0  0  0
   35.5950   20.5710   34.2630 C   0  0  0  0  0  0  0  0  0  0  0  0
   35.6240   20.7460   35.6220 C   0  0  0  0  0  0  0  0  0  0  0  0
   36.5810   21.4950   36.2610 C   0  0  0  0  0  0  0  0  0  0  0  0
   36.6500   21.1070   32.4300 H   0  0  0  0  0  0  0  0  0  0  0  0
   34.9030   20.0130   33.6420 H   0  0  0  0  0  0  0  0  0  0  0  0
   34.7720   20.1930   36.0500 H   0  0  0  0  0  0  0  0  0  0  0  0
   36.3510   21.4120   37.2720 H   0  0  0  0  0  0  0  0  0  0  0  0
   38.7660   23.0350   36.3380 S   0  0  0  0  0  0  0  0  0  0  0  0
   38.6390   22.8610   37.8290 O   0  0  0  0  0  0  0  0  0  0  0  0
   40.1730   22.5030   35.8960 O   0  0  0  0  0  0  0  0  0  0  0  0
   38.9100   24.6960   35.9370 C   0  0  0  0  0  0  0  0  0  0  0  0
   38.2500   25.8660   36.0850 C   0  0  0  0  0  0  0  0  0  0  0  0
   37.3330   25.8130   36.6220 H   0  0  0  0  0  0  0  0  0  0  0  0
   38.5630   27.0990   35.5970 C   0  0  0  0  0  0  0  0  0  0  0  0
   37.9270   27.9370   35.8080 H   0  0  0  0  0  0  0  0  0  0  0  0
   39.7100   27.1720   34.8450 C   0  0  0  0  0  3  0  0  0  0  0  0
   40.4200   26.0210   34.6580 C   0  0  0  0  0  3  0  0  0  0  0  0
   40.0390   24.8550   35.1760 N   0  0  0  0  0  0  0  0  0  0  0  0
   38.5660   22.5800   33.4670 O   0  0  0  0  0  0  0  0  0  0  0  0
   39.7370   24.1930   31.7400 O   0  0  0  0  0  0  0  0  0  0  0  0
   38.5510   23.2460   31.9210 P   0  0  1  0  0  0  0  0  0  0  0  0
   38.5670   22.0280   30.7430 O   0  0  0  0  0  0  0  0  0  0  0  0
   37.7670   21.4780   30.9270 H   0  0  0  0  0  0  0  0  0  0  0  0
   37.1820   24.2140   31.6590 O   0  0  0  0  0  0  0  0  0  0  0  0
   37.1710   25.2390   32.6180 C   0  0  0  0  0  0  0  0  0  0  0  0
   36.2920   25.0780   33.3090 H   0  0  0  0  0  0  0  0  0  0  0  0
   38.0720   25.1260   33.2390 H   0  0  0  0  0  0  0  0  0  0  0  0
   36.5130   27.6120   32.5280 C   0  0  0  0  0  3  0  0  0  0  0  0
   37.0870   26.5750   31.9860 C   0  0  0  0  0  3  0  0  0  0  0  0
   36.9130   30.1010   29.8720 C   0  0  0  0  0  0  0  0  0  0  0  0
   36.4540   31.2720   30.4890 C   0  0  0  0  0  0  0  0  0  0  0  0
   36.0140   31.1900   31.8110 C   0  0  0  0  0  0  0  0  0  0  0  0
   36.0750   29.9440   32.3890 N   0  0  0  0  0  0  0  0  0  0  0  0
   36.5130   28.8620   31.7770 C   0  0  0  0  0  0  0  0  0  0  0  0
   36.9300   28.9540   30.5140 N   0  0  0  0  0  0  0  0  0  0  0  0
   37.2410   30.2350   28.8420 H   0  0  0  0  0  0  0  0  0  0  0  0
   36.3920   32.2670   30.0680 H   0  0  0  0  0  0  0  0  0  0  0  0
   35.6340   32.0220   32.4070 H   0  0  0  0  0  0  0  0  0  0  0  0
  1  6  1  0  0  0  0
  1 11  1  0  0  0  0
  2  1  2  0  0  0  0
  3  2  1  0  0  0  0
  3  4  2  0  0  0  0
  4  5  1  0  0  0  0
  5  9  1  0  0  0  0
  5  6  2  0  0  0  0
  6 10  1  0  0  0  0
  7  3  1  0  0  0  0
  8  4  1  0  0  0  0
 11 12  2  0  0  0  0
 13 11  2  0  0  0  0
 14 15  1  0  0  0  0
 14 11  1  0  0  0  0
 15 16  1  0  0  0  0
 17 18  1  0  0  0  0
 17 15  2  0  0  0  0
 19 17  1  0  0  0  0
 20 19  2  0  0  0  0
 20 21  1  0  0  0  0
 21 14  2  0  0  0  0
 22  2  1  0  0  0  0
 24 23  2  6  0  0  0
 24 22  1  0  0  0  0
 25 26  1  0  0  0  0
 25 24  1  0  0  0  0
 27 24  1  0  0  0  0
 27 28  1  0  0  0  0
 28 30  1  0  0  0  0
 28 29  1  0  0  0  0
 32 31  2  0  0  0  0
 32 28  1  0  0  0  0
 33 34  2  0  0  0  0
 33 38  1  0  0  0  0
 34 35  1  0  0  0  0
 35 36  2  0  0  0  0
 35 41  1  0  0  0  0
 37 36  1  0  0  0  0
 37 31  1  0  0  0  0
 38 37  2  0  0  0  0
 39 33  1  0  0  0  0
 40 34  1  0  0  0  0
M  END
>  <minimizedAffinity>
-5.4807744

$$$$

 OpenBabel03262520363D

 41 43  0  0  0  0  0  0  0  0999 V2000
   39.5490   23.6580   36.3190 C   0  0  0  0  0  0  0  0  0  0  0  0
   38.4260   24.4980   36.3210 C   0  0  0  0  0  0  0  0  0  0  0  0
   37.6280   24.6380   37.4410 C   0  0  0  0  0  0  0  0  0  0  0  0
   37.9250   23.9480   38.5900 C   0  0  0  0  0  0  0  0  0  0  0  0
   39.0210   23.1250   38.5940 C   0  0  0  0  0  0  0  0  0  0  0  0
   39.8370   22.9580   37.5020 C   0  0  0  0  0  0  0  0  0  0  0  0
   36.7950   25.3130   37.3150 H   0  0  0  0  0  0  0  0  0  0  0  0
   37.2080   24.1670   39.3730 H   0  0  0  0  0  0  0  0  0  0  0  0
   39.0910   22.6660   39.5930 H   0  0  0  0  0  0  0  0  0  0  0  0
   40.5480   22.2630   37.8070 H   0  0  0  0  0  0  0  0  0  0  0  0
   40.5870   23.4120   34.9760 S   0  0  0  0  0  0  0  0  0  0  0  0
   39.8190   22.9300   33.7720 O   0  0  0  0  0  0  0  0  0  0  0  0
   41.2380   24.7950   34.6250 O   0  0  0  0  0  0  0  0  0  0  0  0
   41.9850   22.4510   35.2210 C   0  0  0  0  0  0  0  0  0  0  0  0
   43.1500   22.4600   35.9060 C   0  0  0  0  0  0  0  0  0  0  0  0
   43.3170   23.3130   36.5200 H   0  0  0  0  0  0  0  0  0  0  0  0
   44.1700   21.5570   35.8830 C   0  0  0  0  0  0  0  0  0  0  0  0
   45.0370   21.7100   36.4950 H   0  0  0  0  0  0  0  0  0  0  0  0
   43.9990   20.4820   35.0440 C   0  0  0  0  0  3  0  0  0  0  0  0
   42.8410   20.4190   34.3230 C   0  0  0  0  0  3  0  0  0  0  0  0
   41.8940   21.3500   34.4100 N   0  0  0  0  0  0  0  0  0  0  0  0
   38.2360   25.1270   35.1230 O   0  0  0  0  0  0  0  0  0  0  0  0
   36.6640   27.2140   34.7640 O   0  0  0  0  0  0  0  0  0  0  0  0
   38.1280   26.7820   34.8340 P   0  0  1  0  0  0  0  0  0  0  0  0
   38.9580   27.6550   36.0250 O   0  0  0  0  0  0  0  0  0  0  0  0
   39.8890   27.3240   35.9890 H   0  0  0  0  0  0  0  0  0  0  0  0
   38.7750   27.2060   33.3230 O   0  0  0  0  0  0  0  0  0  0  0  0
   37.8050   26.9600   32.3380 C   0  0  0  0  0  0  0  0  0  0  0  0
   36.8070   27.3320   32.7130 H   0  0  0  0  0  0  0  0  0  0  0  0
   38.0530   27.5800   31.4630 H   0  0  0  0  0  0  0  0  0  0  0  0
   36.6290   24.9100   31.6430 C   0  0  0  0  0  3  0  0  0  0  0  0
   37.7220   25.5220   32.0020 C   0  0  0  0  0  3  0  0  0  0  0  0
   37.8640   21.5970   30.6930 C   0  0  0  0  0  0  0  0  0  0  0  0
   36.7170   20.8030   30.8200 C   0  0  0  0  0  0  0  0  0  0  0  0
   35.5330   21.4180   31.2300 C   0  0  0  0  0  0  0  0  0  0  0  0
   35.6110   22.7690   31.4730 N   0  0  0  0  0  0  0  0  0  0  0  0
   36.7100   23.4850   31.3440 C   0  0  0  0  0  0  0  0  0  0  0  0
   37.8340   22.8850   30.9520 N   0  0  0  0  0  0  0  0  0  0  0  0
   38.7530   21.0540   30.3710 H   0  0  0  0  0  0  0  0  0  0  0  0
   36.6180   19.7410   30.6370 H   0  0  0  0  0  0  0  0  0  0  0  0
   34.5730   20.9180   31.3670 H   0  0  0  0  0  0  0  0  0  0  0  0
  1  2  2  0  0  0  0
  1  6  1  0  0  0  0
  2  3  1  0  0  0  0
  3  4  2  0  0  0  0
  4  5  1  0  0  0  0
  4  8  1  0  0  0  0
  5  9  1  0  0  0  0
  6 10  1  0  0  0  0
  6  5  2  0  0  0  0
  7  3  1  0  0  0  0
 11 14  1  0  0  0  0
 11  1  1  0  0  0  0
 12 11  2  0  0  0  0
 13 11  2  0  0  0  0
 14 15  1  0  0  0  0
 15 16  1  0  0  0  0
 17 15  2  0  0  0  0
 17 18  1  0  0  0  0
 19 17  1  0  0  0  0
 20 21  1  0  0  0  0
 20 19  2  0  0  0  0
 21 14  2  0  0  0  0
 22  2  1  0  0  0  0
 24 23  2  1  0  0  0
 24 22  1  0  0  0  0
 24 25  1  0  0  0  0
 26 25  1  0  0  0  0
 27 24  1  0  0  0  0
 28 29  1  0  0  0  0
 28 27  1  0  0  0  0
 30 28  1  0  0  0  0
 31 32  2  0  0  0  0
 32 28  1  0  0  0  0
 33 34  2  0  0  0  0
 33 38  1  0  0  0  0
 34 35  1  0  0  0  0
 35 41  1  0  0  0  0
 35 36  2  0  0  0  0
 37 36  1  0  0  0  0
 37 31  1  0  0  0  0
 38 37  2  0  0  0  0
 39 33  1  0  0  0  0
 40 34  1  0  0  0  0
M  END
>  <minimizedAffinity>
-5.46382523

$$$$
