
 OpenBabel03272508033D

 27 29  0  0  0  0  0  0  0  0999 V2000
   37.4150   26.4030   34.2910 C   0  0  0  0  0  0  0  0  0  0  0  0
   37.4070   26.7120   32.9520 C   0  0  0  0  0  0  0  0  0  0  0  0
   36.6930   27.9080   32.7650 C   0  0  0  0  0  0  0  0  0  0  0  0
   36.3000   28.2690   34.0180 N   0  0  0  0  0  0  0  0  0  0  0  0
   36.7280   27.3850   34.8830 N   0  0  0  0  0  0  0  0  0  0  0  0
   37.9020   26.0700   32.2250 H   0  0  0  0  0  0  0  0  0  0  0  0
   36.6050   28.2700   31.7710 H   0  0  0  0  0  0  0  0  0  0  0  0
   38.0390   25.2500   34.9370 C   0  0  0  0  0  0  0  0  0  0  0  0
   37.8720   25.0980   36.3320 C   0  0  0  0  0  0  0  0  0  0  0  0
   38.4670   23.9970   36.9550 C   0  0  0  0  0  0  0  0  0  0  0  0
   39.1720   23.1390   36.1710 N   0  0  0  0  0  0  0  0  0  0  0  0
   39.3220   23.2980   34.8450 C   0  0  0  0  0  0  0  0  0  0  0  0
   38.7460   24.3640   34.2470 N   0  0  0  0  0  0  0  0  0  0  0  0
   37.3110   25.7890   36.9210 H   0  0  0  0  0  0  0  0  0  0  0  0
   39.9000   22.5700   34.2910 H   0  0  0  0  0  0  0  0  0  0  0  0
   38.2950   23.8290   38.4240 C   0  0  0  0  0  0  0  0  0  0  0  0
   39.5040   23.3960   38.9020 F   0  0  0  0  0  0  0  0  0  0  0  0
   37.9790   25.0260   39.0520 F   0  0  0  0  0  0  0  0  0  0  0  0
   37.3350   22.8770   38.7310 F   0  0  0  0  0  0  0  0  0  0  0  0
   35.5420   29.4660   34.1590 C   0  0  0  0  0  0  0  0  0  0  0  0
   35.7770   30.5050   35.0310 C   0  0  0  0  0  0  0  0  0  0  0  0
   36.6410   30.3730   35.6690 H   0  0  0  0  0  0  0  0  0  0  0  0
   34.9490   31.5930   35.0420 C   0  0  0  0  0  0  0  0  0  0  0  0
   35.1610   32.4040   35.7470 H   0  0  0  0  0  0  0  0  0  0  0  0
   33.8630   31.7060   34.2060 C   0  0  0  0  0  3  0  0  0  0  0  0
   33.6650   30.6260   33.3390 C   0  0  0  0  0  3  0  0  0  0  0  0
   34.4790   29.5300   33.3090 N   0  0  0  0  0  0  0  0  0  0  0  0
  1  5  2  0  0  0  0
  1  8  1  0  0  0  0
  2  1  1  0  0  0  0
  3  2  2  0  0  0  0
  3  4  1  0  0  0  0
  4 20  1  0  0  0  0
  4  5  1  0  0  0  0
  6  2  1  0  0  0  0
  7  3  1  0  0  0  0
  8  9  1  0  0  0  0
  9 14  1  0  0  0  0
  9 10  2  0  0  0  0
 10 16  1  0  0  0  0
 11 10  1  0  0  0  0
 12 11  2  0  0  0  0
 13 12  1  0  0  0  0
 13  8  2  0  0  0  0
 15 12  1  0  0  0  0
 16 19  1  0  0  0  0
 16 17  1  0  0  0  0
 16 18  1  0  0  0  0
 20 21  1  0  0  0  0
 21 23  2  0  0  0  0
 21 22  1  0  0  0  0
 23 24  1  0  0  0  0
 25 23  1  0  0  0  0
 26 25  2  0  0  0  0
 27 26  1  0  0  0  0
 27 20  2  0  0  0  0
M  END
>  <minimizedAffinity>
-5.8175106

$$$$

 OpenBabel03272508033D

 27 29  0  0  0  0  0  0  0  0999 V2000
   37.7240   25.9890   34.1040 C   0  0  0  0  0  0  0  0  0  0  0  0
   36.9920   27.0610   34.5560 C   0  0  0  0  0  0  0  0  0  0  0  0
   36.8530   27.9900   33.5110 C   0  0  0  0  0  0  0  0  0  0  0  0
   37.5160   27.4260   32.4630 N   0  0  0  0  0  0  0  0  0  0  0  0
   38.0110   26.2710   32.8300 N   0  0  0  0  0  0  0  0  0  0  0  0
   36.6210   27.0960   35.5790 H   0  0  0  0  0  0  0  0  0  0  0  0
   36.3050   28.8760   33.7190 H   0  0  0  0  0  0  0  0  0  0  0  0
   38.1090   24.7930   34.8510 C   0  0  0  0  0  0  0  0  0  0  0  0
   38.0000   24.8250   36.2590 C   0  0  0  0  0  0  0  0  0  0  0  0
   38.3680   23.6830   36.9780 C   0  0  0  0  0  0  0  0  0  0  0  0
   38.8080   22.6110   36.2690 N   0  0  0  0  0  0  0  0  0  0  0  0
   38.9060   22.5970   34.9290 C   0  0  0  0  0  0  0  0  0  0  0  0
   38.5500   23.7020   34.2380 N   0  0  0  0  0  0  0  0  0  0  0  0
   37.6500   25.6820   36.7880 H   0  0  0  0  0  0  0  0  0  0  0  0
   39.2670   21.7030   34.4370 H   0  0  0  0  0  0  0  0  0  0  0  0
   38.2560   23.7080   38.4620 C   0  0  0  0  0  0  0  0  0  0  0  0
   39.5070   23.4230   38.9440 F   0  0  0  0  0  0  0  0  0  0  0  0
   37.8790   24.9580   38.9360 F   0  0  0  0  0  0  0  0  0  0  0  0
   37.3740   22.7480   38.9350 F   0  0  0  0  0  0  0  0  0  0  0  0
   37.5540   28.1440   31.2350 C   0  0  0  0  0  0  0  0  0  0  0  0
   36.8320   29.2690   30.9030 C   0  0  0  0  0  0  0  0  0  0  0  0
   36.1700   29.6270   31.6810 H   0  0  0  0  0  0  0  0  0  0  0  0
   36.9840   29.8430   29.6720 C   0  0  0  0  0  0  0  0  0  0  0  0
   36.3960   30.7370   29.4370 H   0  0  0  0  0  0  0  0  0  0  0  0
   37.8420   29.3440   28.7210 C   0  0  0  0  0  3  0  0  0  0  0  0
   38.5530   28.2010   29.1040 C   0  0  0  0  0  3  0  0  0  0  0  0
   38.4190   27.6100   30.3280 N   0  0  0  0  0  0  0  0  0  0  0  0
  1  2  1  0  0  0  0
  1  8  1  0  0  0  0
  2  6  1  0  0  0  0
  3  7  1  0  0  0  0
  3  2  2  0  0  0  0
  4  5  1  0  0  0  0
  4  3  1  0  0  0  0
  5  1  2  0  0  0  0
  8  9  1  0  0  0  0
  9 14  1  0  0  0  0
  9 10  2  0  0  0  0
 10 16  1  0  0  0  0
 11 10  1  0  0  0  0
 12 11  2  0  0  0  0
 13  8  2  0  0  0  0
 13 12  1  0  0  0  0
 15 12  1  0  0  0  0
 16 19  1  0  0  0  0
 16 18  1  0  0  0  0
 16 17  1  0  0  0  0
 20  4  1  0  0  0  0
 21 20  1  0  0  0  0
 21 22  1  0  0  0  0
 23 21  2  0  0  0  0
 24 23  1  0  0  0  0
 25 26  2  0  0  0  0
 25 23  1  0  0  0  0
 26 27  1  0  0  0  0
 27 20  2  0  0  0  0
M  END
>  <minimizedAffinity>
-5.74372339

$$$$

 OpenBabel03272508033D

 27 29  0  0  0  0  0  0  0  0999 V2000
   37.0210   26.8040   33.8700 C   0  0  0  0  0  0  0  0  0  0  0  0
   37.3740   25.7710   33.0360 C   0  0  0  0  0  0  0  0  0  0  0  0
   37.9880   24.7610   33.7980 C   0  0  0  0  0  0  0  0  0  0  0  0
   37.9750   25.2410   35.0730 N   0  0  0  0  0  0  0  0  0  0  0  0
   37.4120   26.4220   35.0900 N   0  0  0  0  0  0  0  0  0  0  0  0
   37.1710   25.8160   31.9680 H   0  0  0  0  0  0  0  0  0  0  0  0
   38.3160   23.8940   33.2790 H   0  0  0  0  0  0  0  0  0  0  0  0
   36.3590   28.0560   33.5090 C   0  0  0  0  0  0  0  0  0  0  0  0
   36.1310   29.0060   34.5290 C   0  0  0  0  0  0  0  0  0  0  0  0
   35.4980   30.2060   34.1880 C   0  0  0  0  0  0  0  0  0  0  0  0
   35.1420   30.3790   32.8880 N   0  0  0  0  0  0  0  0  0  0  0  0
   35.3660   29.4650   31.9290 C   0  0  0  0  0  0  0  0  0  0  0  0
   35.9780   28.3070   32.2630 N   0  0  0  0  0  0  0  0  0  0  0  0
   36.4230   28.8420   35.5420 H   0  0  0  0  0  0  0  0  0  0  0  0
   35.0520   29.6780   30.9160 H   0  0  0  0  0  0  0  0  0  0  0  0
   35.2550   31.2130   35.2570 C   0  0  0  0  0  0  0  0  0  0  0  0
   35.1050   32.4170   34.6190 F   0  0  0  0  0  0  0  0  0  0  0  0
   34.0930   30.9480   35.9690 F   0  0  0  0  0  0  0  0  0  0  0  0
   36.3240   31.3110   36.1350 F   0  0  0  0  0  0  0  0  0  0  0  0
   38.5390   24.4270   36.0960 C   0  0  0  0  0  0  0  0  0  0  0  0
   38.0660   24.2500   37.3770 C   0  0  0  0  0  0  0  0  0  0  0  0
   37.1650   24.8030   37.6060 H   0  0  0  0  0  0  0  0  0  0  0  0
   38.7300   23.4280   38.2450 C   0  0  0  0  0  0  0  0  0  0  0  0
   38.3300   23.3080   39.2580 H   0  0  0  0  0  0  0  0  0  0  0  0
   39.8750   22.7500   37.8980 C   0  0  0  0  0  3  0  0  0  0  0  0
   40.3150   22.9620   36.5860 C   0  0  0  0  0  3  0  0  0  0  0  0
   39.6700   23.7770   35.7010 N   0  0  0  0  0  0  0  0  0  0  0  0
  1  5  2  0  0  0  0
  2  3  2  0  0  0  0
  2  1  1  0  0  0  0
  3  4  1  0  0  0  0
  4  5  1  0  0  0  0
  4 20  1  0  0  0  0
  6  2  1  0  0  0  0
  7  3  1  0  0  0  0
  8  1  1  0  0  0  0
  8  9  1  0  0  0  0
  9 14  1  0  0  0  0
 10  9  2  0  0  0  0
 10 16  1  0  0  0  0
 11 10  1  0  0  0  0
 12 13  1  0  0  0  0
 12 11  2  0  0  0  0
 13  8  2  0  0  0  0
 15 12  1  0  0  0  0
 16 18  1  0  0  0  0
 16 19  1  0  0  0  0
 17 16  1  0  0  0  0
 20 21  1  0  0  0  0
 21 22  1  0  0  0  0
 21 23  2  0  0  0  0
 23 24  1  0  0  0  0
 25 23  1  0  0  0  0
 26 25  2  0  0  0  0
 27 20  2  0  0  0  0
 27 26  1  0  0  0  0
M  END
>  <minimizedAffinity>
-5.61326456

$$$$

 OpenBabel03272508033D

 27 29  0  0  0  0  0  0  0  0999 V2000
   37.7650   25.7570   33.9490 C   0  0  0  0  0  0  0  0  0  0  0  0
   38.1090   26.0010   32.6410 C   0  0  0  0  0  0  0  0  0  0  0  0
   37.5350   27.2200   32.2390 C   0  0  0  0  0  0  0  0  0  0  0  0
   36.8620   27.6590   33.3390 N   0  0  0  0  0  0  0  0  0  0  0  0
   37.0090   26.7980   34.3140 N   0  0  0  0  0  0  0  0  0  0  0  0
   38.7320   25.3030   32.0850 H   0  0  0  0  0  0  0  0  0  0  0  0
   37.7200   27.5370   31.2420 H   0  0  0  0  0  0  0  0  0  0  0  0
   38.1400   24.6090   34.7720 C   0  0  0  0  0  0  0  0  0  0  0  0
   38.0390   24.7350   36.1750 C   0  0  0  0  0  0  0  0  0  0  0  0
   38.3970   23.6390   36.9660 C   0  0  0  0  0  0  0  0  0  0  0  0
   38.8210   22.5170   36.3280 N   0  0  0  0  0  0  0  0  0  0  0  0
   38.9120   22.4140   34.9910 C   0  0  0  0  0  0  0  0  0  0  0  0
   38.5650   23.4750   34.2300 N   0  0  0  0  0  0  0  0  0  0  0  0
   37.7010   25.6300   36.6480 H   0  0  0  0  0  0  0  0  0  0  0  0
   39.2600   21.4840   34.5580 H   0  0  0  0  0  0  0  0  0  0  0  0
   38.2920   23.7630   38.4460 C   0  0  0  0  0  0  0  0  0  0  0  0
   37.3430   22.8550   38.8380 F   0  0  0  0  0  0  0  0  0  0  0  0
   39.4860   23.4500   39.0820 F   0  0  0  0  0  0  0  0  0  0  0  0
   37.8770   25.0270   38.8360 F   0  0  0  0  0  0  0  0  0  0  0  0
   36.1630   28.8950   33.2420 C   0  0  0  0  0  0  0  0  0  0  0  0
   35.8940   29.6140   32.0990 C   0  0  0  0  0  0  0  0  0  0  0  0
   36.2660   29.1680   31.1860 H   0  0  0  0  0  0  0  0  0  0  0  0
   35.2060   30.7930   32.1770 C   0  0  0  0  0  0  0  0  0  0  0  0
   35.0060   31.3430   31.2500 H   0  0  0  0  0  0  0  0  0  0  0  0
   34.7560   31.3130   33.3680 C   0  0  0  0  0  3  0  0  0  0  0  0
   35.0530   30.5460   34.5000 C   0  0  0  0  0  3  0  0  0  0  0  0
   35.7380   29.3660   34.4480 N   0  0  0  0  0  0  0  0  0  0  0  0
  1  5  2  0  0  0  0
  1  8  1  0  0  0  0
  2  1  1  0  0  0  0
  3  2  2  0  0  0  0
  3  4  1  0  0  0  0
  4  5  1  0  0  0  0
  6  2  1  0  0  0  0
  7  3  1  0  0  0  0
  8  9  1  0  0  0  0
  9 14  1  0  0  0  0
  9 10  2  0  0  0  0
 10 16  1  0  0  0  0
 11 10  1  0  0  0  0
 12 11  2  0  0  0  0
 13  8  2  0  0  0  0
 13 12  1  0  0  0  0
 15 12  1  0  0  0  0
 16 19  1  0  0  0  0
 16 17  1  0  0  0  0
 16 18  1  0  0  0  0
 20  4  1  0  0  0  0
 20 27  1  0  0  0  0
 21 23  1  0  0  0  0
 21 20  2  0  0  0  0
 22 21  1  0  0  0  0
 23 25  2  0  0  0  0
 24 23  1  0  0  0  0
 25 26  1  0  0  0  0
 27 26  2  0  0  0  0
M  END
>  <minimizedAffinity>
-5.60700178

$$$$

 OpenBabel03272508033D

 27 29  0  0  0  0  0  0  0  0999 V2000
   37.8980   25.3030   35.1130 C   0  0  0  0  0  0  0  0  0  0  0  0
   37.8660   24.9480   33.7850 C   0  0  0  0  0  0  0  0  0  0  0  0
   37.3230   26.0110   33.0430 C   0  0  0  0  0  0  0  0  0  0  0  0
   37.0510   26.9710   33.9700 N   0  0  0  0  0  0  0  0  0  0  0  0
   37.3910   26.5390   35.1590 N   0  0  0  0  0  0  0  0  0  0  0  0
   38.2240   23.9750   33.4560 H   0  0  0  0  0  0  0  0  0  0  0  0
   37.2380   25.8750   31.9930 H   0  0  0  0  0  0  0  0  0  0  0  0
   38.3820   24.5070   36.2380 C   0  0  0  0  0  0  0  0  0  0  0  0
   39.5560   23.7430   36.0560 C   0  0  0  0  0  0  0  0  0  0  0  0
   40.0230   22.9790   37.1300 C   0  0  0  0  0  0  0  0  0  0  0  0
   39.3100   23.0220   38.2860 N   0  0  0  0  0  0  0  0  0  0  0  0
   38.1940   23.7530   38.4430 C   0  0  0  0  0  0  0  0  0  0  0  0
   37.7460   24.4900   37.4020 N   0  0  0  0  0  0  0  0  0  0  0  0
   40.0950   23.7300   35.1360 H   0  0  0  0  0  0  0  0  0  0  0  0
   37.6820   23.7340   39.3960 H   0  0  0  0  0  0  0  0  0  0  0  0
   41.2610   22.1720   36.9470 C   0  0  0  0  0  0  0  0  0  0  0  0
   42.3040   23.0610   36.9890 F   0  0  0  0  0  0  0  0  0  0  0  0
   41.4350   21.2460   37.9660 F   0  0  0  0  0  0  0  0  0  0  0  0
   41.2860   21.5240   35.7220 F   0  0  0  0  0  0  0  0  0  0  0  0
   36.4820   28.1940   33.5160 C   0  0  0  0  0  0  0  0  0  0  0  0
   35.8210   29.1370   34.2700 C   0  0  0  0  0  0  0  0  0  0  0  0
   35.7380   28.8990   35.3220 H   0  0  0  0  0  0  0  0  0  0  0  0
   35.3290   30.2680   33.6770 C   0  0  0  0  0  0  0  0  0  0  0  0
   34.8080   31.0000   34.3030 H   0  0  0  0  0  0  0  0  0  0  0  0
   35.4640   30.5180   32.3310 C   0  0  0  0  0  3  0  0  0  0  0  0
   36.1430   29.5310   31.6090 C   0  0  0  0  0  3  0  0  0  0  0  0
   36.6430   28.3950   32.1780 N   0  0  0  0  0  0  0  0  0  0  0  0
  1  5  2  0  0  0  0
  1  8  1  0  0  0  0
  2  1  1  0  0  0  0
  3  2  2  0  0  0  0
  3  4  1  0  0  0  0
  4  5  1  0  0  0  0
  6  2  1  0  0  0  0
  7  3  1  0  0  0  0
  8 13  1  0  0  0  0
  9  8  2  0  0  0  0
  9 10  1  0  0  0  0
 10 11  2  0  0  0  0
 11 12  1  0  0  0  0
 12 15  1  0  0  0  0
 13 12  2  0  0  0  0
 14  9  1  0  0  0  0
 16 17  1  0  0  0  0
 16 10  1  0  0  0  0
 16 18  1  0  0  0  0
 19 16  1  0  0  0  0
 20  4  1  0  0  0  0
 20 21  1  0  0  0  0
 21 22  1  0  0  0  0
 23 21  2  0  0  0  0
 23 24  1  0  0  0  0
 25 23  1  0  0  0  0
 26 27  1  0  0  0  0
 26 25  2  0  0  0  0
 27 20  2  0  0  0  0
M  END
>  <minimizedAffinity>
-5.58636141

$$$$

 OpenBabel03272508033D

 27 29  0  0  0  0  0  0  0  0999 V2000
   38.1220   25.2450   35.2240 C   0  0  0  0  0  0  0  0  0  0  0  0
   37.7140   24.8720   36.4820 C   0  0  0  0  0  0  0  0  0  0  0  0
   38.6610   23.9840   37.0230 C   0  0  0  0  0  0  0  0  0  0  0  0
   39.6080   23.8640   36.0510 N   0  0  0  0  0  0  0  0  0  0  0  0
   39.2750   24.6000   35.0220 N   0  0  0  0  0  0  0  0  0  0  0  0
   36.7890   25.2540   36.9090 H   0  0  0  0  0  0  0  0  0  0  0  0
   38.4730   23.6120   37.9990 H   0  0  0  0  0  0  0  0  0  0  0  0
   37.4450   26.1520   34.2990 C   0  0  0  0  0  0  0  0  0  0  0  0
   36.9520   27.3740   34.8070 C   0  0  0  0  0  0  0  0  0  0  0  0
   36.3030   28.2450   33.9260 C   0  0  0  0  0  0  0  0  0  0  0  0
   36.1890   27.8550   32.6300 N   0  0  0  0  0  0  0  0  0  0  0  0
   36.6640   26.6880   32.1620 C   0  0  0  0  0  0  0  0  0  0  0  0
   37.2890   25.8490   33.0170 N   0  0  0  0  0  0  0  0  0  0  0  0
   37.0580   27.6530   35.8310 H   0  0  0  0  0  0  0  0  0  0  0  0
   36.5330   26.4490   31.1140 H   0  0  0  0  0  0  0  0  0  0  0  0
   35.7820   29.5360   34.4540 C   0  0  0  0  0  0  0  0  0  0  0  0
   35.9130   30.4440   33.4350 F   0  0  0  0  0  0  0  0  0  0  0  0
   34.4400   29.4550   34.7980 F   0  0  0  0  0  0  0  0  0  0  0  0
   36.5130   29.9890   35.5410 F   0  0  0  0  0  0  0  0  0  0  0  0
   40.7200   23.0140   36.3080 C   0  0  0  0  0  0  0  0  0  0  0  0
   40.7740   21.9520   37.1830 C   0  0  0  0  0  0  0  0  0  0  0  0
   39.8570   21.7650   37.7240 H   0  0  0  0  0  0  0  0  0  0  0  0
   41.9280   21.2300   37.3150 C   0  0  0  0  0  0  0  0  0  0  0  0
   41.9410   20.3910   38.0200 H   0  0  0  0  0  0  0  0  0  0  0  0
   43.0680   21.5150   36.6000 C   0  0  0  0  0  3  0  0  0  0  0  0
   42.9630   22.6010   35.7240 C   0  0  0  0  0  3  0  0  0  0  0  0
   41.8220   23.3370   35.5760 N   0  0  0  0  0  0  0  0  0  0  0  0
  1  2  1  0  0  0  0
  2  6  1  0  0  0  0
  2  3  2  0  0  0  0
  3  7  1  0  0  0  0
  4 20  1  0  0  0  0
  4  3  1  0  0  0  0
  5  1  2  0  0  0  0
  5  4  1  0  0  0  0
  8  9  1  0  0  0  0
  8  1  1  0  0  0  0
  9 14  1  0  0  0  0
 10 16  1  0  0  0  0
 10  9  2  0  0  0  0
 11 10  1  0  0  0  0
 12 11  2  0  0  0  0
 12 13  1  0  0  0  0
 13  8  2  0  0  0  0
 15 12  1  0  0  0  0
 16 18  1  0  0  0  0
 16 19  1  0  0  0  0
 17 16  1  0  0  0  0
 20 21  1  0  0  0  0
 21 23  2  0  0  0  0
 21 22  1  0  0  0  0
 23 24  1  0  0  0  0
 25 23  1  0  0  0  0
 26 25  2  0  0  0  0
 27 26  1  0  0  0  0
 27 20  2  0  0  0  0
M  END
>  <minimizedAffinity>
-5.34129572

$$$$

 OpenBabel03272508033D

 27 29  0  0  0  0  0  0  0  0999 V2000
   37.6230   26.5820   33.9890 C   0  0  0  0  0  0  0  0  0  0  0  0
   36.7540   27.5190   34.4930 C   0  0  0  0  0  0  0  0  0  0  0  0
   36.4970   28.4830   33.5020 C   0  0  0  0  0  0  0  0  0  0  0  0
   37.2340   28.0750   32.4320 N   0  0  0  0  0  0  0  0  0  0  0  0
   37.8770   26.9760   32.7370 N   0  0  0  0  0  0  0  0  0  0  0  0
   36.3770   27.4440   35.5120 H   0  0  0  0  0  0  0  0  0  0  0  0
   35.8350   29.2740   33.7550 H   0  0  0  0  0  0  0  0  0  0  0  0
   38.1610   25.4060   34.6690 C   0  0  0  0  0  0  0  0  0  0  0  0
   37.9730   25.3020   36.0650 C   0  0  0  0  0  0  0  0  0  0  0  0
   38.4860   24.1780   36.7210 C   0  0  0  0  0  0  0  0  0  0  0  0
   39.1360   23.2540   35.9660 N   0  0  0  0  0  0  0  0  0  0  0  0
   39.3070   23.3690   34.6370 C   0  0  0  0  0  0  0  0  0  0  0  0
   38.8100   24.4570   34.0080 N   0  0  0  0  0  0  0  0  0  0  0  0
   37.4570   26.0440   36.6320 H   0  0  0  0  0  0  0  0  0  0  0  0
   39.8370   22.5890   34.1060 H   0  0  0  0  0  0  0  0  0  0  0  0
   38.2910   24.0600   38.1920 C   0  0  0  0  0  0  0  0  0  0  0  0
   37.9490   25.3120   38.6330 F   0  0  0  0  0  0  0  0  0  0  0  0
   37.2600   23.1870   38.5130 F   0  0  0  0  0  0  0  0  0  0  0  0
   39.4500   23.6660   38.8430 F   0  0  0  0  0  0  0  0  0  0  0  0
   37.1810   28.8630   31.2480 C   0  0  0  0  0  0  0  0  0  0  0  0
   36.6540   30.1280   31.1110 C   0  0  0  0  0  0  0  0  0  0  0  0
   36.2390   30.5460   32.0180 H   0  0  0  0  0  0  0  0  0  0  0  0
   36.6810   30.7540   29.8950 C   0  0  0  0  0  0  0  0  0  0  0  0
   36.2530   31.7600   29.8170 H   0  0  0  0  0  0  0  0  0  0  0  0
   37.2220   30.1720   28.7730 C   0  0  0  0  0  3  0  0  0  0  0  0
   37.7450   28.8890   28.9630 C   0  0  0  0  0  3  0  0  0  0  0  0
   37.7300   28.2440   30.1660 N   0  0  0  0  0  0  0  0  0  0  0  0
  1  2  1  0  0  0  0
  1  8  1  0  0  0  0
  2  6  1  0  0  0  0
  3  7  1  0  0  0  0
  3  2  2  0  0  0  0
  4  5  1  0  0  0  0
  4  3  1  0  0  0  0
  5  1  2  0  0  0  0
  8  9  1  0  0  0  0
  9 14  1  0  0  0  0
  9 10  2  0  0  0  0
 10 16  1  0  0  0  0
 11 10  1  0  0  0  0
 12 11  2  0  0  0  0
 13 12  1  0  0  0  0
 13  8  2  0  0  0  0
 15 12  1  0  0  0  0
 16 18  1  0  0  0  0
 16 17  1  0  0  0  0
 16 19  1  0  0  0  0
 20  4  1  0  0  0  0
 21 20  1  0  0  0  0
 21 22  1  0  0  0  0
 23 21  2  0  0  0  0
 24 23  1  0  0  0  0
 25 26  2  0  0  0  0
 25 23  1  0  0  0  0
 26 27  1  0  0  0  0
 27 20  2  0  0  0  0
M  END
>  <minimizedAffinity>
-5.32438087

$$$$

 OpenBabel03272508033D

 27 29  0  0  0  0  0  0  0  0999 V2000
   37.4410   25.8840   33.0730 C   0  0  0  0  0  0  0  0  0  0  0  0
   37.6390   24.5980   32.6300 C   0  0  0  0  0  0  0  0  0  0  0  0
   38.0490   23.8010   33.7130 C   0  0  0  0  0  0  0  0  0  0  0  0
   38.0790   24.6560   34.7730 N   0  0  0  0  0  0  0  0  0  0  0  0
   37.7250   25.8530   34.3790 N   0  0  0  0  0  0  0  0  0  0  0  0
   37.4780   24.3330   31.5870 H   0  0  0  0  0  0  0  0  0  0  0  0
   38.2390   22.7750   33.5150 H   0  0  0  0  0  0  0  0  0  0  0  0
   37.0130   27.0420   32.2910 C   0  0  0  0  0  0  0  0  0  0  0  0
   36.5350   28.1740   32.9870 C   0  0  0  0  0  0  0  0  0  0  0  0
   36.1240   29.2850   32.2430 C   0  0  0  0  0  0  0  0  0  0  0  0
   36.2130   29.2000   30.8900 N   0  0  0  0  0  0  0  0  0  0  0  0
   36.6710   28.1140   30.2430 C   0  0  0  0  0  0  0  0  0  0  0  0
   37.0660   27.0430   30.9650 N   0  0  0  0  0  0  0  0  0  0  0  0
   36.4770   28.2110   34.0510 H   0  0  0  0  0  0  0  0  0  0  0  0
   36.7110   28.1250   29.1610 H   0  0  0  0  0  0  0  0  0  0  0  0
   35.6200   30.4820   32.9690 C   0  0  0  0  0  0  0  0  0  0  0  0
   36.3070   31.5530   32.4590 F   0  0  0  0  0  0  0  0  0  0  0  0
   34.2640   30.6900   32.7540 F   0  0  0  0  0  0  0  0  0  0  0  0
   35.8670   30.4110   34.3310 F   0  0  0  0  0  0  0  0  0  0  0  0
   38.4660   24.1330   36.0390 C   0  0  0  0  0  0  0  0  0  0  0  0
   39.5130   23.2800   36.3040 C   0  0  0  0  0  0  0  0  0  0  0  0
   40.0900   22.9880   35.4370 H   0  0  0  0  0  0  0  0  0  0  0  0
   39.7530   22.8670   37.5860 C   0  0  0  0  0  0  0  0  0  0  0  0
   40.5940   22.1870   37.7660 H   0  0  0  0  0  0  0  0  0  0  0  0
   38.9840   23.2700   38.6520 C   0  0  0  0  0  3  0  0  0  0  0  0
   37.9340   24.1380   38.3320 C   0  0  0  0  0  3  0  0  0  0  0  0
   37.6740   24.5630   37.0610 N   0  0  0  0  0  0  0  0  0  0  0  0
  1  5  2  0  0  0  0
  2  1  1  0  0  0  0
  2  3  2  0  0  0  0
  3  4  1  0  0  0  0
  4 20  1  0  0  0  0
  5  4  1  0  0  0  0
  6  2  1  0  0  0  0
  7  3  1  0  0  0  0
  8  9  1  0  0  0  0
  8  1  1  0  0  0  0
  9 14  1  0  0  0  0
 10 16  1  0  0  0  0
 10  9  2  0  0  0  0
 11 10  1  0  0  0  0
 12 11  2  0  0  0  0
 12 13  1  0  0  0  0
 13  8  2  0  0  0  0
 15 12  1  0  0  0  0
 16 19  1  0  0  0  0
 17 16  1  0  0  0  0
 18 16  1  0  0  0  0
 20 21  2  0  0  0  0
 20 27  1  0  0  0  0
 21 23  1  0  0  0  0
 22 21  1  0  0  0  0
 23 24  1  0  0  0  0
 23 25  2  0  0  0  0
 26 25  1  0  0  0  0
 27 26  2  0  0  0  0
M  END
>  <minimizedAffinity>
-5.30635643

$$$$

 OpenBabel03272508033D

 27 29  0  0  0  0  0  0  0  0999 V2000
   36.6790   27.5120   33.6240 C   0  0  0  0  0  0  0  0  0  0  0  0
   36.3960   28.2900   32.5270 C   0  0  0  0  0  0  0  0  0  0  0  0
   35.8470   29.5080   32.9620 C   0  0  0  0  0  0  0  0  0  0  0  0
   35.8260   29.4070   34.3200 N   0  0  0  0  0  0  0  0  0  0  0  0
   36.3100   28.2450   34.6790 N   0  0  0  0  0  0  0  0  0  0  0  0
   36.5990   27.9330   31.5180 H   0  0  0  0  0  0  0  0  0  0  0  0
   35.5790   30.2130   32.2140 H   0  0  0  0  0  0  0  0  0  0  0  0
   37.2590   26.1710   33.6410 C   0  0  0  0  0  0  0  0  0  0  0  0
   37.7630   25.6800   34.8660 C   0  0  0  0  0  0  0  0  0  0  0  0
   38.3190   24.3970   34.8890 C   0  0  0  0  0  0  0  0  0  0  0  0
   38.3370   23.7020   33.7210 N   0  0  0  0  0  0  0  0  0  0  0  0
   37.8530   24.1830   32.5630 C   0  0  0  0  0  0  0  0  0  0  0  0
   37.3170   25.4240   32.5470 N   0  0  0  0  0  0  0  0  0  0  0  0
   37.7340   26.2500   35.7680 H   0  0  0  0  0  0  0  0  0  0  0  0
   37.9040   23.5670   31.6750 H   0  0  0  0  0  0  0  0  0  0  0  0
   38.8520   23.8730   36.1760 C   0  0  0  0  0  0  0  0  0  0  0  0
   40.2170   23.9600   36.0870 F   0  0  0  0  0  0  0  0  0  0  0  0
   38.4350   24.6320   37.2610 F   0  0  0  0  0  0  0  0  0  0  0  0
   38.5090   22.5450   36.3800 F   0  0  0  0  0  0  0  0  0  0  0  0
   35.3130   30.5080   35.0620 C   0  0  0  0  0  0  0  0  0  0  0  0
   36.0330   31.4440   35.7700 C   0  0  0  0  0  0  0  0  0  0  0  0
   37.1050   31.3040   35.7450 H   0  0  0  0  0  0  0  0  0  0  0  0
   35.3850   32.4480   36.4350 C   0  0  0  0  0  0  0  0  0  0  0  0
   35.9840   33.1780   36.9900 H   0  0  0  0  0  0  0  0  0  0  0  0
   34.0160   32.5760   36.4330 C   0  0  0  0  0  3  0  0  0  0  0  0
   33.3290   31.6020   35.6990 C   0  0  0  0  0  3  0  0  0  0  0  0
   33.9540   30.5910   35.0280 N   0  0  0  0  0  0  0  0  0  0  0  0
  1  8  1  0  0  0  0
  1  5  2  0  0  0  0
  2  3  2  0  0  0  0
  2  1  1  0  0  0  0
  3  4  1  0  0  0  0
  4  5  1  0  0  0  0
  4 20  1  0  0  0  0
  6  2  1  0  0  0  0
  7  3  1  0  0  0  0
  8  9  1  0  0  0  0
  9 10  2  0  0  0  0
  9 14  1  0  0  0  0
 10 16  1  0  0  0  0
 11 10  1  0  0  0  0
 12 11  2  0  0  0  0
 13 12  1  0  0  0  0
 13  8  2  0  0  0  0
 15 12  1  0  0  0  0
 16 19  1  0  0  0  0
 16 18  1  0  0  0  0
 17 16  1  0  0  0  0
 20 21  1  0  0  0  0
 21 23  2  0  0  0  0
 22 21  1  0  0  0  0
 23 24  1  0  0  0  0
 25 23  1  0  0  0  0
 26 25  2  0  0  0  0
 27 20  2  0  0  0  0
 27 26  1  0  0  0  0
M  END
>  <minimizedAffinity>
-5.22351074

$$$$
