
 OpenBabel03272507163D

 25 27  0  0  1  0  0  0  0  0999 V2000
   36.9090   30.9340   50.5670 C   0  0  1  0  0  0  0  0  0  0  0  0
   36.1550   29.7030   50.5020 C   0  0  2  0  0  0  0  0  0  0  0  0
   37.4990   29.6720   51.1990 C   0  0  0  0  0  0  0  0  0  0  0  0
   36.6010   31.7330   51.2900 H   0  0  0  0  0  0  0  0  0  0  0  0
   35.2300   29.5980   51.1060 H   0  0  0  0  0  0  0  0  0  0  0  0
   37.4100   29.6510   52.3000 H   0  0  0  0  0  0  0  0  0  0  0  0
   38.3510   29.1900   50.7280 H   0  0  0  0  0  0  0  0  0  0  0  0
   37.7240   31.4160   49.3950 C   0  0  0  0  0  0  0  0  0  0  0  0
   38.2200   32.7160   49.4860 C   0  0  0  0  0  0  0  0  0  0  0  0
   38.9500   33.1520   48.3710 C   0  0  0  0  0  0  0  0  0  0  0  0
   39.1420   32.3250   47.2830 N   0  0  0  0  0  0  0  0  0  0  0  0
   38.6310   31.0670   47.2600 C   0  0  0  0  0  0  0  0  0  0  0  0
   37.9170   30.6150   48.3290 N   0  0  0  0  0  0  0  0  0  0  0  0
   38.0640   33.3540   50.3420 H   0  0  0  0  0  0  0  0  0  0  0  0
   39.3690   34.1630   48.3720 H   0  0  0  0  0  0  0  0  0  0  0  0
   38.8210   30.4770   46.3750 H   0  0  0  0  0  0  0  0  0  0  0  0
   36.1000   28.9970   49.2880 O   0  0  0  0  0  0  0  0  0  0  0  0
   34.9540   28.8830   48.5190 C   0  0  0  0  0  0  0  0  0  0  0  0
   34.0320   27.9960   49.0660 C   0  0  0  0  0  0  0  0  0  0  0  0
   34.1690   27.4350   49.9970 H   0  0  0  0  0  0  0  0  0  0  0  0
   32.8290   27.7850   48.3920 C   0  0  0  0  0  0  0  0  0  0  0  0
   32.0350   27.1100   48.7320 H   0  0  0  0  0  0  0  0  0  0  0  0
   32.5570   28.4320   47.2230 C   0  0  0  0  0  3  0  0  0  0  0  0
   33.5060   29.2980   46.7320 C   0  0  0  0  0  3  0  0  0  0  0  0
   34.6750   29.5190   47.3630 N   0  0  0  0  0  0  0  0  0  0  0  0
  1  3  1  0  0  0  0
  1  4  1  1  0  0  0
  2  1  1  0  0  0  0
  2  5  1  1  0  0  0
  2  3  1  0  0  0  0
  3  6  1  0  0  0  0
  7  3  1  0  0  0  0
  8  9  1  0  0  0  0
  8  1  1  0  0  0  0
  9 14  1  0  0  0  0
 10 15  1  0  0  0  0
 10  9  2  0  0  0  0
 11 10  1  0  0  0  0
 12 11  2  0  0  0  0
 12 13  1  0  0  0  0
 13  8  2  0  0  0  0
 16 12  1  0  0  0  0
 17  2  1  0  0  0  0
 18 19  1  0  0  0  0
 18 17  1  0  0  0  0
 19 20  1  0  0  0  0
 21 22  1  0  0  0  0
 21 19  2  0  0  0  0
 23 21  1  0  0  0  0
 24 23  2  0  0  0  0
 24 25  1  0  0  0  0
 25 18  2  0  0  0  0
M  END
>  <minimizedAffinity>
-5.35107279

>  <minimizedRMSD>
1.6892966

$$$$
