
 OpenBabel03272508083D

 23 24  0  0  0  0  0  0  0  0999 V2000
   39.2680   32.7440   48.1530 O   0  0  0  0  0  0  0  0  0  0  0  0
   38.7260   31.8310   47.0900 P   0  0  2  0  0  0  0  0  0  0  0  0
   37.8240   32.7640   45.9840 O   0  0  0  0  0  0  0  0  0  0  0  0
   38.0900   33.7110   46.0790 H   0  0  0  0  0  0  0  0  0  0  0  0
   37.8320   30.5370   47.6770 O   0  0  0  0  0  0  0  0  0  0  0  0
   37.3750   30.3000   51.3350 C   0  0  0  0  0  0  0  0  0  0  0  0
   38.0120   30.6590   50.1450 C   0  0  0  0  0  0  0  0  0  0  0  0
   37.4070   30.3020   48.9370 C   0  0  0  0  0  0  0  0  0  0  0  0
   36.2240   29.6220   48.9870 N   0  0  0  0  0  0  0  0  0  0  0  0
   35.6440   29.2960   50.1650 C   0  0  0  0  0  0  0  0  0  0  0  0
   36.2120   29.6310   51.3330 N   0  0  0  0  0  0  0  0  0  0  0  0
   37.9550   30.6400   52.1860 H   0  0  0  0  0  0  0  0  0  0  0  0
   38.9240   31.1830   50.0040 H   0  0  0  0  0  0  0  0  0  0  0  0
   34.7000   28.7520   50.2120 H   0  0  0  0  0  0  0  0  0  0  0  0
   40.0740   31.2370   46.2380 O   0  0  0  0  0  0  0  0  0  0  0  0
   39.8670   30.6970   44.9760 C   0  0  0  0  0  0  0  0  0  0  0  0
   39.0100   29.7000   44.6110 C   0  0  0  0  0  0  0  0  0  0  0  0
   38.4350   29.3020   45.4300 H   0  0  0  0  0  0  0  0  0  0  0  0
   38.9230   29.2720   43.3000 C   0  0  0  0  0  0  0  0  0  0  0  0
   38.2290   28.4780   43.0590 H   0  0  0  0  0  0  0  0  0  0  0  0
   39.7490   29.9100   42.3930 C   0  0  0  0  0  3  0  0  0  0  0  0
   40.6170   30.9190   42.7520 C   0  0  0  0  0  3  0  0  0  0  0  0
   40.6670   31.3030   44.0490 N   0  0  0  0  0  0  0  0  0  0  0  0
  2  5  1  0  0  0  0
  2  1  2  1  0  0  0
  3  4  1  0  0  0  0
  3  2  1  0  0  0  0
  5  8  1  0  0  0  0
  6 12  1  0  0  0  0
  7  6  2  0  0  0  0
  8  9  2  0  0  0  0
  8  7  1  0  0  0  0
  9 10  1  0  0  0  0
 10 14  1  0  0  0  0
 10 11  2  0  0  0  0
 11  6  1  0  0  0  0
 13  7  1  0  0  0  0
 15  2  1  0  0  0  0
 16 15  1  0  0  0  0
 17 16  1  0  0  0  0
 17 18  1  0  0  0  0
 19 17  2  0  0  0  0
 20 19  1  0  0  0  0
 21 22  2  0  0  0  0
 21 19  1  0  0  0  0
 22 23  1  0  0  0  0
 23 16  2  0  0  0  0
M  END
>  <minimizedAffinity>
-5.07690287

>  <minimizedRMSD>
0.903384566

$$$$
