
 OpenBabel03272508083D

 23 24  0  0  0  0  0  0  0  0999 V2000
   39.0240   32.7500   48.1080 O   0  0  0  0  0  0  0  0  0  0  0  0
   38.6360   31.7040   47.1010 P   0  0  2  0  0  0  0  0  0  0  0  0
   37.5880   32.4160   45.9580 O   0  0  0  0  0  0  0  0  0  0  0  0
   37.6970   33.3980   45.9990 H   0  0  0  0  0  0  0  0  0  0  0  0
   37.9670   30.3150   47.7660 O   0  0  0  0  0  0  0  0  0  0  0  0
   37.3200   30.2000   51.4020 C   0  0  0  0  0  0  0  0  0  0  0  0
   38.0190   30.5200   50.2350 C   0  0  0  0  0  0  0  0  0  0  0  0
   37.4770   30.1220   49.0100 C   0  0  0  0  0  0  0  0  0  0  0  0
   36.2940   29.4410   49.0200 N   0  0  0  0  0  0  0  0  0  0  0  0
   35.6530   29.1540   50.1770 C   0  0  0  0  0  0  0  0  0  0  0  0
   36.1590   29.5290   51.3610 N   0  0  0  0  0  0  0  0  0  0  0  0
   37.8550   30.5700   52.2690 H   0  0  0  0  0  0  0  0  0  0  0  0
   38.9360   31.0410   50.1240 H   0  0  0  0  0  0  0  0  0  0  0  0
   34.7070   28.6100   50.1940 H   0  0  0  0  0  0  0  0  0  0  0  0
   40.0600   31.2940   46.2650 O   0  0  0  0  0  0  0  0  0  0  0  0
   39.9500   30.8860   44.9420 C   0  0  0  0  0  0  0  0  0  0  0  0
   40.5710   31.4040   43.8430 C   0  0  0  0  0  0  0  0  0  0  0  0
   41.2210   32.2340   44.0630 H   0  0  0  0  0  0  0  0  0  0  0  0
   40.3550   30.8790   42.5830 C   0  0  0  0  0  0  0  0  0  0  0  0
   40.8690   31.3230   41.7410 H   0  0  0  0  0  0  0  0  0  0  0  0
   39.4820   29.8110   42.5070 C   0  0  0  0  0  3  0  0  0  0  0  0
   38.8500   29.2820   43.6130 C   0  0  0  0  0  3  0  0  0  0  0  0
   39.0940   29.8290   44.8280 N   0  0  0  0  0  0  0  0  0  0  0  0
  2  5  1  0  0  0  0
  2  1  2  1  0  0  0
  3  4  1  0  0  0  0
  3  2  1  0  0  0  0
  5  8  1  0  0  0  0
  6 12  1  0  0  0  0
  7  6  2  0  0  0  0
  8  9  2  0  0  0  0
  8  7  1  0  0  0  0
  9 10  1  0  0  0  0
 10 14  1  0  0  0  0
 10 11  2  0  0  0  0
 11  6  1  0  0  0  0
 13  7  1  0  0  0  0
 15  2  1  0  0  0  0
 16 15  1  0  0  0  0
 17 18  1  0  0  0  0
 17 16  2  0  0  0  0
 19 17  1  0  0  0  0
 20 19  1  0  0  0  0
 21 19  2  0  0  0  0
 21 22  1  0  0  0  0
 22 23  2  0  0  0  0
 23 16  1  0  0  0  0
M  END
>  <minimizedAffinity>
-5.30133343

>  <minimizedRMSD>
1.0481168

$$$$
