
 OpenBabel03272500423D

 47 50  0  0  1  0  0  0  0  0999 V2000
   37.1960   31.4930   47.6200 C   0  0  0  0  0  0  0  0  0  0  0  0
   37.8220   32.1950   48.6380 C   0  0  0  0  0  0  0  0  0  0  0  0
   38.9900   32.8470   48.3080 C   0  0  0  0  0  0  0  0  0  0  0  0
   39.4610   32.7730   47.0270 N   0  0  0  0  0  0  0  0  0  0  0  0
   38.8300   32.0760   46.0340 C   0  0  0  0  0  0  0  0  0  0  0  0
   37.6850   31.4360   46.3570 N   0  0  0  0  0  0  0  0  0  0  0  0
   39.3590   32.0310   44.7150 N   0  0  0  0  0  0  0  0  0  0  0  0
   37.3790   32.1970   49.6120 H   0  0  0  0  0  0  0  0  0  0  0  0
   39.5190   33.4060   49.0550 H   0  0  0  0  0  0  0  0  0  0  0  0
   39.6910   32.9840   44.4190 H   0  0  0  0  0  0  0  0  0  0  0  0
   35.8960   30.7820   47.9620 C   0  0  1  0  0  0  0  0  0  0  0  0
   35.2620   29.9170   47.0330 C   0  0  0  0  0  0  0  0  0  0  0  0
   36.0760   29.3100   48.1310 C   0  0  2  0  0  0  0  0  0  0  0  0
   35.3470   31.2680   48.8100 H   0  0  0  0  0  0  0  0  0  0  0  0
   35.8010   29.8550   46.0340 H   0  0  0  0  0  0  0  0  0  0  0  0
   34.2170   29.7420   46.8460 H   0  0  0  0  0  0  0  0  0  0  0  0
   37.0630   28.8490   47.9200 H   0  0  0  0  0  0  0  0  0  0  0  0
   36.0390   28.6330   50.5030 C   0  0  2  0  0  0  0  0  0  0  0  0
   35.3450   28.5780   49.2220 C   0  0  1  0  0  0  0  0  0  0  0  0
   34.0420   29.1750   49.4710 C   0  0  0  0  0  0  0  0  0  0  0  0
   34.1470   30.0340   50.5820 O   0  0  0  0  0  0  0  0  0  0  0  0
   34.8450   29.2480   51.4260 C   0  0  0  0  0  0  0  0  0  0  0  0
   36.3370   27.7140   51.0050 H   0  0  0  0  0  0  0  0  0  0  0  0
   35.2030   27.5260   48.8580 H   0  0  0  0  0  0  0  0  0  0  0  0
   33.5060   29.7410   48.7420 H   0  0  0  0  0  0  0  0  0  0  0  0
   33.3360   28.3670   49.8270 H   0  0  0  0  0  0  0  0  0  0  0  0
   35.3170   29.7030   52.2930 H   0  0  0  0  0  0  0  0  0  0  0  0
   34.2850   28.3070   51.6850 H   0  0  0  0  0  0  0  0  0  0  0  0
   36.9300   29.6870   50.5770 O   0  0  0  0  0  0  0  0  0  0  0  0
   37.4120   30.0420   51.7150 C   0  0  0  0  0  0  0  0  0  0  0  0
   38.0060   29.2880   52.3100 H   0  0  0  0  0  0  0  0  0  0  0  0
   38.0890   30.9130   51.5920 H   0  0  0  0  0  0  0  0  0  0  0  0
   36.6260   30.3700   52.4330 H   0  0  0  0  0  0  0  0  0  0  0  0
   39.4020   30.5810   43.8180 S   0  0  0  0  0  0  0  0  0  0  0  0
   38.2370   30.4320   42.8960 O   0  0  0  0  0  0  0  0  0  0  0  0
   37.3490   30.0830   43.1000 H   0  0  0  0  0  0  0  0  0  0  0  0
   39.3760   29.4290   44.7760 O   0  0  0  0  0  0  0  0  0  0  0  0
   38.6070   28.8610   45.0140 H   0  0  0  0  0  0  0  0  0  0  0  0
   40.8340   30.4490   42.9420 O   0  0  0  0  0  0  0  0  0  0  0  0
   40.8540   29.4640   41.9670 C   0  0  0  0  0  0  0  0  0  0  0  0
   41.6230   29.7380   40.8810 C   0  0  0  0  0  0  0  0  0  0  0  0
   42.1930   30.6710   40.7750 H   0  0  0  0  0  0  0  0  0  0  0  0
   41.7730   28.8870   39.8090 C   0  0  0  0  0  0  0  0  0  0  0  0
   42.3530   29.0060   38.9080 H   0  0  0  0  0  0  0  0  0  0  0  0
   41.0830   27.6890   39.8730 C   0  0  0  0  0  0  0  0  0  0  0  0
   40.3080   27.4060   40.9580 C   0  0  0  0  0  0  0  0  0  0  0  0
   40.1980   28.2700   41.9740 N   0  0  0  0  0  0  0  0  0  0  0  0
  1 11  1  0  0  0  0
  1  2  1  0  0  0  0
  2  8  1  0  0  0  0
  3  2  2  0  0  0  0
  3  9  1  0  0  0  0
  4  3  1  0  0  0  0
  5  6  1  0  0  0  0
  5  4  2  0  0  0  0
  6  1  2  0  0  0  0
  7  5  1  0  0  0  0
 10  7  1  0  0  0  0
 11 13  1  0  0  0  0
 11 14  1  1  0  0  0
 12 11  1  0  0  0  0
 12 13  1  0  0  0  0
 13 17  1  6  0  0  0
 13 19  1  0  0  0  0
 15 12  1  0  0  0  0
 16 12  1  0  0  0  0
 18 29  1  0  0  0  0
 18 23  1  1  0  0  0
 18 22  1  0  0  0  0
 19 24  1  6  0  0  0
 19 20  1  0  0  0  0
 19 18  1  0  0  0  0
 20 26  1  0  0  0  0
 20 21  1  0  0  0  0
 21 22  1  0  0  0  0
 22 28  1  0  0  0  0
 22 27  1  0  0  0  0
 25 20  1  0  0  0  0
 29 30  1  0  0  0  0
 30 31  1  0  0  0  0
 30 33  1  0  0  0  0
 32 30  1  0  0  0  0
 34  7  1  0  0  0  0
 34 37  1  0  0  0  0
 35 36  1  0  0  0  0
 35 34  1  0  0  0  0
 37 38  1  0  0  0  0
 39 34  1  0  0  0  0
 40 47  1  0  0  0  0
 40 39  1  0  0  0  0
 41 40  2  0  0  0  0
 42 41  1  0  0  0  0
 43 45  2  0  0  0  0
 43 41  1  0  0  0  0
 44 43  1  0  0  0  0
 45 46  1  0  0  0  0
 46 47  2  0  0  0  0
M  END
>  <minimizedAffinity>
-5.45913744

>  <minimizedRMSD>
2.44090199

$$$$
