
 OpenBabel03272508083D

 23 24  0  0  0  0  0  0  0  0999 V2000
   39.0650   32.7370   48.1080 O   0  0  0  0  0  0  0  0  0  0  0  0
   38.6500   31.6950   47.1070 P   0  0  2  0  0  0  0  0  0  0  0  0
   37.5670   32.4100   46.0000 O   0  0  0  0  0  0  0  0  0  0  0  0
   37.6730   33.3910   46.0440 H   0  0  0  0  0  0  0  0  0  0  0  0
   38.0070   30.3000   47.7840 O   0  0  0  0  0  0  0  0  0  0  0  0
   37.3120   30.2100   51.4120 C   0  0  0  0  0  0  0  0  0  0  0  0
   38.0250   30.5240   50.2520 C   0  0  0  0  0  0  0  0  0  0  0  0
   37.5020   30.1140   49.0230 C   0  0  0  0  0  0  0  0  0  0  0  0
   36.3210   29.4280   49.0230 N   0  0  0  0  0  0  0  0  0  0  0  0
   35.6660   29.1470   50.1740 C   0  0  0  0  0  0  0  0  0  0  0  0
   36.1550   29.5340   51.3620 N   0  0  0  0  0  0  0  0  0  0  0  0
   37.8340   30.5880   52.2840 H   0  0  0  0  0  0  0  0  0  0  0  0
   38.9420   31.0480   50.1490 H   0  0  0  0  0  0  0  0  0  0  0  0
   34.7230   28.6000   50.1820 H   0  0  0  0  0  0  0  0  0  0  0  0
   40.0500   31.2940   46.2270 O   0  0  0  0  0  0  0  0  0  0  0  0
   39.9100   30.9600   44.8870 C   0  0  0  0  0  0  0  0  0  0  0  0
   40.4320   31.5930   43.7960 C   0  0  0  0  0  0  0  0  0  0  0  0
   41.0220   32.4590   44.0400 H   0  0  0  0  0  0  0  0  0  0  0  0
   40.1970   31.1290   42.5170 C   0  0  0  0  0  0  0  0  0  0  0  0
   40.6310   31.6640   41.6830 H   0  0  0  0  0  0  0  0  0  0  0  0
   39.4100   29.9970   42.4120 C   0  0  0  0  0  3  0  0  0  0  0  0
   38.8800   29.3500   43.5070 C   0  0  0  0  0  3  0  0  0  0  0  0
   39.1370   29.8430   44.7420 N   0  0  0  0  0  0  0  0  0  0  0  0
  2  5  1  0  0  0  0
  2  1  2  1  0  0  0
  3  4  1  0  0  0  0
  3  2  1  0  0  0  0
  5  8  1  0  0  0  0
  6 12  1  0  0  0  0
  7  6  2  0  0  0  0
  8  7  1  0  0  0  0
  9  8  2  0  0  0  0
  9 10  1  0  0  0  0
 10 14  1  0  0  0  0
 10 11  2  0  0  0  0
 11  6  1  0  0  0  0
 13  7  1  0  0  0  0
 15  2  1  0  0  0  0
 16 15  1  0  0  0  0
 17 18  1  0  0  0  0
 17 16  2  0  0  0  0
 19 17  1  0  0  0  0
 20 19  1  0  0  0  0
 21 19  2  0  0  0  0
 21 22  1  0  0  0  0
 22 23  2  0  0  0  0
 23 16  1  0  0  0  0
M  END
>  <minimizedAffinity>
-5.27111197

>  <minimizedRMSD>
1.26144683

$$$$
