
 OpenBabel03272508193D

 30 32  0  0  0  0  0  0  0  0999 V2000
   33.7530   28.1150   46.9400 C   0  0  0  0  0  0  0  0  0  0  0  0
   34.4570   29.2270   47.4240 C   0  0  0  0  0  0  0  0  0  0  0  0
   34.7940   30.1170   46.4360 C   0  0  0  0  0  0  0  0  0  0  0  0
   34.4730   29.9300   45.1260 N   0  0  0  0  0  0  0  0  0  0  0  0
   33.7990   28.8510   44.7070 C   0  0  0  0  0  0  0  0  0  0  0  0
   33.4380   27.9380   45.6110 N   0  0  0  0  0  0  0  0  0  0  0  0
   35.3440   31.0230   46.6460 H   0  0  0  0  0  0  0  0  0  0  0  0
   33.4990   28.6080   43.7020 H   0  0  0  0  0  0  0  0  0  0  0  0
   33.2610   27.1290   47.9940 C   0  0  0  0  0  0  0  0  0  0  0  0
   32.2830   26.1520   47.7120 C   0  0  0  0  0  0  0  0  0  0  0  0
   33.7190   25.6900   47.5740 C   0  0  0  0  0  0  0  0  0  0  0  0
   33.6560   27.3430   49.0290 H   0  0  0  0  0  0  0  0  0  0  0  0
   31.7060   25.6710   48.5080 H   0  0  0  0  0  0  0  0  0  0  0  0
   31.7470   26.1960   46.7220 H   0  0  0  0  0  0  0  0  0  0  0  0
   34.1810   25.1210   48.3890 H   0  0  0  0  0  0  0  0  0  0  0  0
   34.1380   25.5380   46.5880 H   0  0  0  0  0  0  0  0  0  0  0  0
   34.8200   29.3950   48.8170 C   0  0  0  0  0  0  0  0  0  0  0  0
   34.2630   28.6790   49.4420 H   0  0  0  0  0  0  0  0  0  0  0  0
   34.4970   30.4270   49.1540 H   0  0  0  0  0  0  0  0  0  0  0  0
   36.2760   29.3260   49.1560 C   0  0  0  0  0  0  0  0  0  0  0  0
   36.3800   28.9280   50.1860 H   0  0  0  0  0  0  0  0  0  0  0  0
   36.8510   28.6460   48.4990 H   0  0  0  0  0  0  0  0  0  0  0  0
   36.9590   30.6430   49.1430 C   0  0  0  0  0  0  0  0  0  0  0  0
   37.9610   30.6700   48.1660 C   0  0  0  0  0  0  0  0  0  0  0  0
   38.2310   29.8490   47.4860 H   0  0  0  0  0  0  0  0  0  0  0  0
   38.7420   31.7920   47.9600 C   0  0  0  0  0  0  0  0  0  0  0  0
   39.5260   31.8500   47.2140 H   0  0  0  0  0  0  0  0  0  0  0  0
   38.5510   32.9280   48.7200 C   0  0  0  0  0  3  0  0  0  0  0  0
   37.5550   32.8600   49.6700 C   0  0  0  0  0  3  0  0  0  0  0  0
   36.7890   31.7780   49.8820 N   0  0  0  0  0  0  0  0  0  0  0  0
  1  2  1  0  0  0  0
  1  9  1  0  0  0  0
  2 17  1  0  0  0  0
  3  7  1  0  0  0  0
  3  2  2  0  0  0  0
  4  3  1  0  0  0  0
  5  4  2  0  0  0  0
  5  6  1  0  0  0  0
  6  1  2  0  0  0  0
  8  5  1  0  0  0  0
  9 12  1  0  0  0  0
 10  9  1  0  0  0  0
 10 13  1  0  0  0  0
 11 10  1  0  0  0  0
 11  9  1  0  0  0  0
 11 15  1  0  0  0  0
 14 10  1  0  0  0  0
 16 11  1  0  0  0  0
 17 19  1  0  0  0  0
 17 20  1  0  0  0  0
 17 18  1  0  0  0  0
 20 21  1  0  0  0  0
 22 20  1  0  0  0  0
 23 20  1  0  0  0  0
 23 30  1  0  0  0  0
 24 23  2  0  0  0  0
 25 24  1  0  0  0  0
 26 24  1  0  0  0  0
 26 28  2  0  0  0  0
 27 26  1  0  0  0  0
 28 29  1  0  0  0  0
 29 30  2  0  0  0  0
M  END
>  <minimizedAffinity>
-4.60323858

>  <minimizedRMSD>
5.00543165

$$$$
