
 OpenBabel03272504243D

 38 41  0  0  0  0  0  0  0  0999 V2000
   34.2320   28.5180   46.0590 C   0  0  0  0  0  0  0  0  0  0  0  0
   34.7040   28.5460   44.7470 C   0  0  0  0  0  0  0  0  0  0  0  0
   34.5930   27.4940   43.8630 C   0  0  0  0  0  0  0  0  0  0  0  0
   33.9810   26.3140   44.2440 C   0  0  0  0  0  0  0  0  0  0  0  0
   33.4780   26.2000   45.5310 C   0  0  0  0  0  0  0  0  0  0  0  0
   33.6360   27.2910   46.3350 C   0  0  0  0  0  0  0  0  0  0  0  0
   34.9970   27.6030   42.8460 H   0  0  0  0  0  0  0  0  0  0  0  0
   33.9040   25.5050   43.5420 H   0  0  0  0  0  0  0  0  0  0  0  0
   32.9880   25.3050   45.8860 H   0  0  0  0  0  0  0  0  0  0  0  0
   33.2280   27.1790   47.3560 H   0  0  0  0  0  0  0  0  0  0  0  0
   36.9870   31.3790   44.2070 C   0  0  0  0  0  0  0  0  0  0  0  0
   36.2710   32.0690   43.3200 C   0  0  0  0  0  0  0  0  0  0  0  0
   35.0810   31.6550   42.8840 C   0  0  0  0  0  0  0  0  0  0  0  0
   34.6020   30.4960   43.3720 N   0  0  0  0  0  0  0  0  0  0  0  0
   35.2950   29.7860   44.2680 C   0  0  0  0  0  0  0  0  0  0  0  0
   36.4900   30.2180   44.6910 N   0  0  0  0  0  0  0  0  0  0  0  0
   36.6910   32.9900   42.9650 H   0  0  0  0  0  0  0  0  0  0  0  0
   34.6000   32.3080   42.1530 H   0  0  0  0  0  0  0  0  0  0  0  0
   40.3190   31.1820   45.7690 C   0  0  0  0  0  0  0  0  0  0  0  0
   40.8740   32.4420   45.4180 C   0  0  0  0  0  0  0  0  0  0  0  0
   40.0810   33.3250   44.6440 C   0  0  0  0  0  0  0  0  0  0  0  0
   38.8240   32.9300   44.2700 N   0  0  0  0  0  0  0  0  0  0  0  0
   38.3410   31.7460   44.6170 C   0  0  0  0  0  0  0  0  0  0  0  0
   39.0890   30.8660   45.3700 N   0  0  0  0  0  0  0  0  0  0  0  0
   40.9120   30.5220   46.3480 H   0  0  0  0  0  0  0  0  0  0  0  0
   41.8560   32.7690   45.7030 H   0  0  0  0  0  0  0  0  0  0  0  0
   40.4090   34.2880   44.3330 H   0  0  0  0  0  0  0  0  0  0  0  0
   34.3510   29.7780   47.1610 S   0  0  0  0  0  0  0  0  0  0  0  0
   33.8750   29.1470   48.3910 O   0  0  0  0  0  0  0  0  0  0  0  0
   33.2950   30.8280   46.9920 O   0  0  0  0  0  0  0  0  0  0  0  0
   35.6620   30.1740   48.2030 C   0  0  0  0  0  0  0  0  0  0  0  0
   35.8050   29.1790   49.2010 C   0  0  0  0  0  0  0  0  0  0  0  0
   35.1510   28.2990   49.3490 H   0  0  0  0  0  0  0  0  0  0  0  0
   36.8030   29.1760   50.1390 C   0  0  0  0  0  0  0  0  0  0  0  0
   36.9540   28.4460   50.9140 H   0  0  0  0  0  0  0  0  0  0  0  0
   37.7000   30.2010   50.0910 C   0  0  0  0  0  0  0  0  0  0  0  0
   37.6160   31.1930   49.1480 C   0  0  0  0  0  0  0  0  0  0  0  0
   36.5980   31.0860   48.2870 N   0  0  0  0  0  0  0  0  0  0  0  0
  1  6  1  0  0  0  0
  1 28  1  0  0  0  0
  2  1  2  0  0  0  0
  3  4  2  0  0  0  0
  3  2  1  0  0  0  0
  4  5  1  0  0  0  0
  5  9  1  0  0  0  0
  5  6  2  0  0  0  0
  6 10  1  0  0  0  0
  7  3  1  0  0  0  0
  8  4  1  0  0  0  0
 11 23  1  0  0  0  0
 11 16  1  0  0  0  0
 12 11  2  0  0  0  0
 13 12  1  0  0  0  0
 13 14  2  0  0  0  0
 14 15  1  0  0  0  0
 15 16  2  0  0  0  0
 15  2  1  0  0  0  0
 17 12  1  0  0  0  0
 18 13  1  0  0  0  0
 19 25  1  0  0  0  0
 20 26  1  0  0  0  0
 20 19  1  0  0  0  0
 21 20  2  0  0  0  0
 22 23  2  0  0  0  0
 22 21  1  0  0  0  0
 23 24  1  0  0  0  0
 24 19  2  0  0  0  0
 27 21  1  0  0  0  0
 28 31  1  0  0  0  0
 28 29  2  0  0  0  0
 30 28  2  0  0  0  0
 31 38  2  0  0  0  0
 31 32  1  0  0  0  0
 32 33  1  0  0  0  0
 32 34  2  0  0  0  0
 34 35  1  0  0  0  0
 36 34  1  0  0  0  0
 37 36  2  0  0  0  0
 38 37  1  0  0  0  0
M  END
>  <minimizedAffinity>
-6.05530214

>  <minimizedRMSD>
4.83458233

$$$$
