
 OpenBabel03272508193D

 30 32  0  0  0  0  0  0  0  0999 V2000
   37.1440   26.6270   33.7200 C   0  0  0  0  0  0  0  0  0  0  0  0
   36.4330   27.5110   32.8950 C   0  0  0  0  0  0  0  0  0  0  0  0
   36.0570   26.9430   31.7040 C   0  0  0  0  0  0  0  0  0  0  0  0
   36.3480   25.6570   31.3690 N   0  0  0  0  0  0  0  0  0  0  0  0
   37.0310   24.8460   32.1890 C   0  0  0  0  0  0  0  0  0  0  0  0
   37.4330   25.3270   33.3670 N   0  0  0  0  0  0  0  0  0  0  0  0
   35.5070   27.4960   30.9560 H   0  0  0  0  0  0  0  0  0  0  0  0
   37.3120   23.8200   32.0210 H   0  0  0  0  0  0  0  0  0  0  0  0
   37.5110   27.1570   35.1020 C   0  0  0  0  0  0  0  0  0  0  0  0
   38.1970   26.3710   36.0510 C   0  0  0  0  0  0  0  0  0  0  0  0
   39.0730   27.2570   35.1900 C   0  0  0  0  0  0  0  0  0  0  0  0
   37.0750   28.1730   35.3240 H   0  0  0  0  0  0  0  0  0  0  0  0
   38.1810   26.6150   37.1180 H   0  0  0  0  0  0  0  0  0  0  0  0
   38.3490   25.2750   35.8360 H   0  0  0  0  0  0  0  0  0  0  0  0
   39.4310   28.2130   35.5920 H   0  0  0  0  0  0  0  0  0  0  0  0
   39.6740   26.8140   34.4070 H   0  0  0  0  0  0  0  0  0  0  0  0
   36.1610   28.8880   33.2520 C   0  0  0  0  0  0  0  0  0  0  0  0
   36.5860   29.5670   32.4960 H   0  0  0  0  0  0  0  0  0  0  0  0
   36.6960   29.1230   34.2240 H   0  0  0  0  0  0  0  0  0  0  0  0
   34.7340   29.2590   33.5090 C   0  0  0  0  0  0  0  0  0  0  0  0
   34.3410   29.7880   32.6180 H   0  0  0  0  0  0  0  0  0  0  0  0
   34.0730   28.3850   33.6700 H   0  0  0  0  0  0  0  0  0  0  0  0
   34.5490   30.1770   34.6600 C   0  0  0  0  0  0  0  0  0  0  0  0
   35.7630   30.7750   35.0160 C   0  0  0  0  0  0  0  0  0  0  0  0
   36.7370   30.6110   34.5330 H   0  0  0  0  0  0  0  0  0  0  0  0
   35.8470   31.6730   36.0640 C   0  0  0  0  0  0  0  0  0  0  0  0
   36.7680   32.1560   36.3680 H   0  0  0  0  0  0  0  0  0  0  0  0
   34.7250   32.0070   36.7940 C   0  0  0  0  0  3  0  0  0  0  0  0
   33.5500   31.3970   36.4110 C   0  0  0  0  0  3  0  0  0  0  0  0
   33.4530   30.5220   35.3960 N   0  0  0  0  0  0  0  0  0  0  0  0
  1  9  1  0  0  0  0
  2 17  1  0  0  0  0
  2  1  2  0  0  0  0
  3  2  1  0  0  0  0
  4  3  2  0  0  0  0
  4  5  1  0  0  0  0
  5  6  2  0  0  0  0
  6  1  1  0  0  0  0
  7  3  1  0  0  0  0
  8  5  1  0  0  0  0
  9 11  1  0  0  0  0
  9 12  1  0  0  0  0
  9 10  1  0  0  0  0
 10 13  1  0  0  0  0
 11 15  1  0  0  0  0
 11 10  1  0  0  0  0
 14 10  1  0  0  0  0
 16 11  1  0  0  0  0
 17 20  1  0  0  0  0
 17 19  1  0  0  0  0
 18 17  1  0  0  0  0
 20 22  1  0  0  0  0
 20 23  1  0  0  0  0
 21 20  1  0  0  0  0
 23 24  2  0  0  0  0
 23 30  1  0  0  0  0
 24 26  1  0  0  0  0
 25 24  1  0  0  0  0
 26 27  1  0  0  0  0
 26 28  2  0  0  0  0
 29 28  1  0  0  0  0
 30 29  2  0  0  0  0
M  END
>  <minimizedAffinity>
-4.77819538

$$$$

 OpenBabel03272508193D

 30 32  0  0  0  0  0  0  0  0999 V2000
   36.2240   23.6930   31.9300 C   0  0  0  0  0  0  0  0  0  0  0  0
   37.1580   24.4600   32.6430 C   0  0  0  0  0  0  0  0  0  0  0  0
   37.0240   25.8060   32.4200 C   0  0  0  0  0  0  0  0  0  0  0  0
   36.0810   26.3340   31.5920 N   0  0  0  0  0  0  0  0  0  0  0  0
   35.2080   25.5630   30.9290 C   0  0  0  0  0  0  0  0  0  0  0  0
   35.2760   24.2410   31.0930 N   0  0  0  0  0  0  0  0  0  0  0  0
   37.6730   26.5310   32.8910 H   0  0  0  0  0  0  0  0  0  0  0  0
   34.4290   25.8770   30.2550 H   0  0  0  0  0  0  0  0  0  0  0  0
   36.2490   22.1940   32.2010 C   0  0  0  0  0  0  0  0  0  0  0  0
   35.4860   21.2790   31.4440 C   0  0  0  0  0  0  0  0  0  0  0  0
   36.9110   21.4820   30.9710 C   0  0  0  0  0  0  0  0  0  0  0  0
   36.8260   21.9140   33.1300 H   0  0  0  0  0  0  0  0  0  0  0  0
   35.2510   20.2790   31.8200 H   0  0  0  0  0  0  0  0  0  0  0  0
   34.7290   21.6830   30.7140 H   0  0  0  0  0  0  0  0  0  0  0  0
   37.6790   20.7490   31.2480 H   0  0  0  0  0  0  0  0  0  0  0  0
   37.0980   22.0530   30.0710 H   0  0  0  0  0  0  0  0  0  0  0  0
   38.1780   23.8810   33.4930 C   0  0  0  0  0  0  0  0  0  0  0  0
   38.9550   23.4000   32.8780 H   0  0  0  0  0  0  0  0  0  0  0  0
   37.7090   23.0560   34.1120 H   0  0  0  0  0  0  0  0  0  0  0  0
   38.8240   24.7840   34.4970 C   0  0  0  0  0  0  0  0  0  0  0  0
   39.8490   25.0230   34.1480 H   0  0  0  0  0  0  0  0  0  0  0  0
   38.3020   25.7530   34.6190 H   0  0  0  0  0  0  0  0  0  0  0  0
   38.9670   24.1800   35.8440 C   0  0  0  0  0  0  0  0  0  0  0  0
   38.0050   24.6940   36.7210 C   0  0  0  0  0  0  0  0  0  0  0  0
   37.2350   25.4420   36.4790 H   0  0  0  0  0  0  0  0  0  0  0  0
   37.9350   24.2840   38.0400 C   0  0  0  0  0  0  0  0  0  0  0  0
   37.2050   24.6590   38.7470 H   0  0  0  0  0  0  0  0  0  0  0  0
   38.8200   23.3480   38.5310 C   0  0  0  0  0  3  0  0  0  0  0  0
   39.7520   22.8670   37.6360 C   0  0  0  0  0  3  0  0  0  0  0  0
   39.8330   23.2560   36.3530 N   0  0  0  0  0  0  0  0  0  0  0  0
  1  9  1  0  0  0  0
  1  2  1  0  0  0  0
  2 17  1  0  0  0  0
  3  2  2  0  0  0  0
  3  7  1  0  0  0  0
  4  3  1  0  0  0  0
  5  6  1  0  0  0  0
  5  4  2  0  0  0  0
  6  1  2  0  0  0  0
  8  5  1  0  0  0  0
  9 12  1  0  0  0  0
 10 13  1  0  0  0  0
 10  9  1  0  0  0  0
 11 15  1  0  0  0  0
 11 10  1  0  0  0  0
 11  9  1  0  0  0  0
 14 10  1  0  0  0  0
 16 11  1  0  0  0  0
 17 19  1  0  0  0  0
 17 20  1  0  0  0  0
 18 17  1  0  0  0  0
 20 22  1  0  0  0  0
 20 23  1  0  0  0  0
 21 20  1  0  0  0  0
 23 30  2  0  0  0  0
 23 24  1  0  0  0  0
 24 26  2  0  0  0  0
 25 24  1  0  0  0  0
 26 28  1  0  0  0  0
 26 27  1  0  0  0  0
 29 28  2  0  0  0  0
 30 29  1  0  0  0  0
M  END
>  <minimizedAffinity>
-4.76501036

$$$$

 OpenBabel03272508193D

 30 32  0  0  0  0  0  0  0  0999 V2000
   36.5080   26.6180   32.1810 C   0  0  0  0  0  0  0  0  0  0  0  0
   37.1850   25.5580   32.8040 C   0  0  0  0  0  0  0  0  0  0  0  0
   36.7550   24.3280   32.3780 C   0  0  0  0  0  0  0  0  0  0  0  0
   35.7750   24.1620   31.4480 N   0  0  0  0  0  0  0  0  0  0  0  0
   35.1540   25.2040   30.8780 C   0  0  0  0  0  0  0  0  0  0  0  0
   35.5160   26.4350   31.2430 N   0  0  0  0  0  0  0  0  0  0  0  0
   37.1730   23.4100   32.7670 H   0  0  0  0  0  0  0  0  0  0  0  0
   34.3720   25.1830   30.1390 H   0  0  0  0  0  0  0  0  0  0  0  0
   36.9980   28.0180   32.5330 C   0  0  0  0  0  0  0  0  0  0  0  0
   36.3040   29.1800   32.1350 C   0  0  0  0  0  0  0  0  0  0  0  0
   35.9670   28.6660   33.5200 C   0  0  0  0  0  0  0  0  0  0  0  0
   38.0160   28.0290   33.0200 H   0  0  0  0  0  0  0  0  0  0  0  0
   36.7940   30.1580   32.1000 H   0  0  0  0  0  0  0  0  0  0  0  0
   35.4440   29.0740   31.4150 H   0  0  0  0  0  0  0  0  0  0  0  0
   36.4320   29.1360   34.3950 H   0  0  0  0  0  0  0  0  0  0  0  0
   35.0190   28.1730   33.6890 H   0  0  0  0  0  0  0  0  0  0  0  0
   38.2020   25.7510   33.8170 C   0  0  0  0  0  0  0  0  0  0  0  0
   38.7010   26.7220   33.6740 H   0  0  0  0  0  0  0  0  0  0  0  0
   39.0040   24.9610   33.6800 H   0  0  0  0  0  0  0  0  0  0  0  0
   37.7790   25.6140   35.2460 C   0  0  0  0  0  0  0  0  0  0  0  0
   37.9220   26.5900   35.7520 H   0  0  0  0  0  0  0  0  0  0  0  0
   36.7090   25.3540   35.3660 H   0  0  0  0  0  0  0  0  0  0  0  0
   38.5670   24.6200   36.0140 C   0  0  0  0  0  0  0  0  0  0  0  0
   38.0280   24.4440   37.2940 C   0  0  0  0  0  0  0  0  0  0  0  0
   37.1450   24.9530   37.7050 H   0  0  0  0  0  0  0  0  0  0  0  0
   38.5910   23.5650   38.2020 C   0  0  0  0  0  0  0  0  0  0  0  0
   38.2020   23.4020   39.1990 H   0  0  0  0  0  0  0  0  0  0  0  0
   39.7090   22.8310   37.8660 C   0  0  0  0  0  3  0  0  0  0  0  0
   40.2090   23.0330   36.5980 C   0  0  0  0  0  3  0  0  0  0  0  0
   39.6740   23.8840   35.7050 N   0  0  0  0  0  0  0  0  0  0  0  0
  1  9  1  0  0  0  0
  1  2  1  0  0  0  0
  2 17  1  0  0  0  0
  3  7  1  0  0  0  0
  3  2  2  0  0  0  0
  4  3  1  0  0  0  0
  5  6  1  0  0  0  0
  5  4  2  0  0  0  0
  6  1  2  0  0  0  0
  8  5  1  0  0  0  0
  9 12  1  0  0  0  0
  9 11  1  0  0  0  0
 10  9  1  0  0  0  0
 10 11  1  0  0  0  0
 11 16  1  0  0  0  0
 11 15  1  0  0  0  0
 13 10  1  0  0  0  0
 14 10  1  0  0  0  0
 17 20  1  0  0  0  0
 18 17  1  0  0  0  0
 19 17  1  0  0  0  0
 20 22  1  0  0  0  0
 20 21  1  0  0  0  0
 20 23  1  0  0  0  0
 23 24  1  0  0  0  0
 24 25  1  0  0  0  0
 24 26  2  0  0  0  0
 26 27  1  0  0  0  0
 28 26  1  0  0  0  0
 29 28  2  0  0  0  0
 30 23  2  0  0  0  0
 30 29  1  0  0  0  0
M  END
>  <minimizedAffinity>
-4.75176191

$$$$

 OpenBabel03272508193D

 30 32  0  0  0  0  0  0  0  0999 V2000
   39.8790   22.5730   36.7690 C   0  0  0  0  0  0  0  0  0  0  0  0
   38.7180   22.5280   35.9830 C   0  0  0  0  0  0  0  0  0  0  0  0
   37.6020   22.9540   36.6570 C   0  0  0  0  0  0  0  0  0  0  0  0
   37.6290   23.3740   37.9510 N   0  0  0  0  0  0  0  0  0  0  0  0
   38.7620   23.4000   38.6660 C   0  0  0  0  0  0  0  0  0  0  0  0
   39.8910   22.9980   38.0790 N   0  0  0  0  0  0  0  0  0  0  0  0
   36.6260   22.9740   36.1910 H   0  0  0  0  0  0  0  0  0  0  0  0
   38.8920   23.7100   39.6880 H   0  0  0  0  0  0  0  0  0  0  0  0
   41.1770   22.2060   36.0580 C   0  0  0  0  0  0  0  0  0  0  0  0
   42.4440   22.5210   36.5940 C   0  0  0  0  0  0  0  0  0  0  0  0
   41.9270   21.1360   36.9250 C   0  0  0  0  0  0  0  0  0  0  0  0
   41.0200   21.7820   35.0240 H   0  0  0  0  0  0  0  0  0  0  0  0
   43.3400   22.5540   35.9680 H   0  0  0  0  0  0  0  0  0  0  0  0
   42.4950   23.1890   37.5000 H   0  0  0  0  0  0  0  0  0  0  0  0
   42.2860   20.2760   36.3480 H   0  0  0  0  0  0  0  0  0  0  0  0
   41.5700   20.9240   37.9240 H   0  0  0  0  0  0  0  0  0  0  0  0
   38.7000   22.0460   34.6170 C   0  0  0  0  0  0  0  0  0  0  0  0
   38.3730   20.9940   34.5910 H   0  0  0  0  0  0  0  0  0  0  0  0
   39.7590   22.0580   34.2140 H   0  0  0  0  0  0  0  0  0  0  0  0
   37.9100   22.8380   33.6230 C   0  0  0  0  0  0  0  0  0  0  0  0
   37.3400   23.6190   34.1660 H   0  0  0  0  0  0  0  0  0  0  0  0
   38.5390   23.3700   32.8820 H   0  0  0  0  0  0  0  0  0  0  0  0
   36.9150   22.0370   32.8700 C   0  0  0  0  0  0  0  0  0  0  0  0
   36.3470   21.0550   33.6900 C   0  0  0  0  0  0  0  0  0  0  0  0
   36.5820   20.8750   34.7490 H   0  0  0  0  0  0  0  0  0  0  0  0
   35.3890   20.1790   33.2130 C   0  0  0  0  0  0  0  0  0  0  0  0
   34.9270   19.4080   33.8170 H   0  0  0  0  0  0  0  0  0  0  0  0
   34.9630   20.2510   31.9030 C   0  0  0  0  0  3  0  0  0  0  0  0
   35.5470   21.2300   31.1290 C   0  0  0  0  0  3  0  0  0  0  0  0
   36.4790   22.0880   31.5770 N   0  0  0  0  0  0  0  0  0  0  0  0
  1  6  1  0  0  0  0
  2  3  1  0  0  0  0
  2  1  2  0  0  0  0
  3  4  2  0  0  0  0
  4  5  1  0  0  0  0
  5  8  1  0  0  0  0
  6  5  2  0  0  0  0
  7  3  1  0  0  0  0
  9 10  1  0  0  0  0
  9  1  1  0  0  0  0
  9 11  1  0  0  0  0
 10 11  1  0  0  0  0
 10 14  1  0  0  0  0
 11 16  1  0  0  0  0
 12  9  1  0  0  0  0
 13 10  1  0  0  0  0
 15 11  1  0  0  0  0
 17  2  1  0  0  0  0
 18 17  1  0  0  0  0
 19 17  1  0  0  0  0
 20 21  1  0  0  0  0
 20 17  1  0  0  0  0
 22 20  1  0  0  0  0
 23 20  1  0  0  0  0
 23 24  1  0  0  0  0
 24 25  1  0  0  0  0
 26 24  2  0  0  0  0
 26 27  1  0  0  0  0
 28 26  1  0  0  0  0
 29 30  1  0  0  0  0
 29 28  2  0  0  0  0
 30 23  2  0  0  0  0
M  END
>  <minimizedAffinity>
-4.67549038

$$$$

 OpenBabel03272508193D

 30 32  0  0  0  0  0  0  0  0999 V2000
   37.9570   25.4570   33.4930 C   0  0  0  0  0  0  0  0  0  0  0  0
   37.7910   24.1240   33.0910 C   0  0  0  0  0  0  0  0  0  0  0  0
   36.8200   23.9720   32.1340 C   0  0  0  0  0  0  0  0  0  0  0  0
   36.1000   25.0130   31.6340 N   0  0  0  0  0  0  0  0  0  0  0  0
   36.2920   26.2730   32.0470 C   0  0  0  0  0  0  0  0  0  0  0  0
   37.2190   26.5010   32.9790 N   0  0  0  0  0  0  0  0  0  0  0  0
   36.5670   23.0040   31.7250 H   0  0  0  0  0  0  0  0  0  0  0  0
   35.7790   27.1620   31.7200 H   0  0  0  0  0  0  0  0  0  0  0  0
   39.0860   25.7170   34.4840 C   0  0  0  0  0  0  0  0  0  0  0  0
   39.3930   27.0120   34.9530 C   0  0  0  0  0  0  0  0  0  0  0  0
   38.4530   26.2110   35.8310 C   0  0  0  0  0  0  0  0  0  0  0  0
   39.7160   24.8060   34.6980 H   0  0  0  0  0  0  0  0  0  0  0  0
   40.3660   27.2470   35.3940 H   0  0  0  0  0  0  0  0  0  0  0  0
   38.8840   27.8940   34.4710 H   0  0  0  0  0  0  0  0  0  0  0  0
   38.8500   25.7000   36.7170 H   0  0  0  0  0  0  0  0  0  0  0  0
   37.4020   26.4630   35.8570 H   0  0  0  0  0  0  0  0  0  0  0  0
   38.5420   23.0220   33.6580 C   0  0  0  0  0  0  0  0  0  0  0  0
   39.4920   23.3890   34.0780 H   0  0  0  0  0  0  0  0  0  0  0  0
   38.8200   22.3060   32.8250 H   0  0  0  0  0  0  0  0  0  0  0  0
   37.8450   22.1700   34.6710 C   0  0  0  0  0  0  0  0  0  0  0  0
   36.7520   22.2360   34.4970 H   0  0  0  0  0  0  0  0  0  0  0  0
   38.1080   21.0960   34.6010 H   0  0  0  0  0  0  0  0  0  0  0  0
   38.0750   22.5930   36.0740 C   0  0  0  0  0  0  0  0  0  0  0  0
   39.4360   22.5280   36.3940 C   0  0  0  0  0  0  0  0  0  0  0  0
   40.2490   22.2110   35.7250 H   0  0  0  0  0  0  0  0  0  0  0  0
   39.9010   22.8740   37.6500 C   0  0  0  0  0  0  0  0  0  0  0  0
   40.9460   22.8360   37.9340 H   0  0  0  0  0  0  0  0  0  0  0  0
   39.0280   23.2990   38.6290 C   0  0  0  0  0  3  0  0  0  0  0  0
   37.6970   23.3500   38.2740 C   0  0  0  0  0  3  0  0  0  0  0  0
   37.2290   23.0150   37.0590 N   0  0  0  0  0  0  0  0  0  0  0  0
  1  9  1  0  0  0  0
  2  1  1  0  0  0  0
  2 17  1  0  0  0  0
  3  2  2  0  0  0  0
  4  5  2  0  0  0  0
  4  3  1  0  0  0  0
  5  6  1  0  0  0  0
  6  1  2  0  0  0  0
  7  3  1  0  0  0  0
  8  5  1  0  0  0  0
  9 12  1  0  0  0  0
  9 10  1  0  0  0  0
  9 11  1  0  0  0  0
 10 13  1  0  0  0  0
 10 11  1  0  0  0  0
 11 16  1  0  0  0  0
 11 15  1  0  0  0  0
 14 10  1  0  0  0  0
 17 18  1  0  0  0  0
 17 20  1  0  0  0  0
 19 17  1  0  0  0  0
 20 23  1  0  0  0  0
 21 20  1  0  0  0  0
 22 20  1  0  0  0  0
 23 24  2  0  0  0  0
 23 30  1  0  0  0  0
 24 26  1  0  0  0  0
 25 24  1  0  0  0  0
 26 27  1  0  0  0  0
 26 28  2  0  0  0  0
 29 28  1  0  0  0  0
 30 29  2  0  0  0  0
M  END
>  <minimizedAffinity>
-4.53339434

$$$$

 OpenBabel03272508193D

 30 32  0  0  0  0  0  0  0  0999 V2000
   37.2740   27.2380   33.6440 C   0  0  0  0  0  0  0  0  0  0  0  0
   37.0700   26.5720   32.4260 C   0  0  0  0  0  0  0  0  0  0  0  0
   36.0410   27.1050   31.6920 C   0  0  0  0  0  0  0  0  0  0  0  0
   35.3030   28.1700   32.1100 N   0  0  0  0  0  0  0  0  0  0  0  0
   35.5320   28.7770   33.2820 C   0  0  0  0  0  0  0  0  0  0  0  0
   36.5170   28.3130   34.0550 N   0  0  0  0  0  0  0  0  0  0  0  0
   35.7540   26.7000   30.7320 H   0  0  0  0  0  0  0  0  0  0  0  0
   35.0100   29.6190   33.7040 H   0  0  0  0  0  0  0  0  0  0  0  0
   38.4630   26.7630   34.4710 C   0  0  0  0  0  0  0  0  0  0  0  0
   38.7130   27.2420   35.7740 C   0  0  0  0  0  0  0  0  0  0  0  0
   37.9160   25.9560   35.6990 C   0  0  0  0  0  0  0  0  0  0  0  0
   39.1750   26.1020   33.8960 H   0  0  0  0  0  0  0  0  0  0  0  0
   39.7010   27.1600   36.2360 H   0  0  0  0  0  0  0  0  0  0  0  0
   38.1000   28.1060   36.1570 H   0  0  0  0  0  0  0  0  0  0  0  0
   38.4260   24.9980   35.8570 H   0  0  0  0  0  0  0  0  0  0  0  0
   36.8550   25.9720   35.9090 H   0  0  0  0  0  0  0  0  0  0  0  0
   37.8420   25.4190   32.0110 C   0  0  0  0  0  0  0  0  0  0  0  0
   38.3720   24.9870   32.8750 H   0  0  0  0  0  0  0  0  0  0  0  0
   38.6450   25.7610   31.2870 H   0  0  0  0  0  0  0  0  0  0  0  0
   37.1140   24.3350   31.2810 C   0  0  0  0  0  0  0  0  0  0  0  0
   36.1440   24.7380   30.9270 H   0  0  0  0  0  0  0  0  0  0  0  0
   37.6480   23.9730   30.3810 H   0  0  0  0  0  0  0  0  0  0  0  0
   36.7980   23.1520   32.1180 C   0  0  0  0  0  0  0  0  0  0  0  0
   35.6180   22.5390   31.6830 C   0  0  0  0  0  0  0  0  0  0  0  0
   34.9870   22.8610   30.8420 H   0  0  0  0  0  0  0  0  0  0  0  0
   35.1150   21.4120   32.3090 C   0  0  0  0  0  0  0  0  0  0  0  0
   34.2060   20.9100   32.0000 H   0  0  0  0  0  0  0  0  0  0  0  0
   35.7710   20.8570   33.3880 C   0  0  0  0  0  3  0  0  0  0  0  0
   36.9290   21.4900   33.7840 C   0  0  0  0  0  3  0  0  0  0  0  0
   37.4290   22.5860   33.1880 N   0  0  0  0  0  0  0  0  0  0  0  0
  1  6  1  0  0  0  0
  1  9  1  0  0  0  0
  2  1  2  0  0  0  0
  3  4  2  0  0  0  0
  3  2  1  0  0  0  0
  4  5  1  0  0  0  0
  5  8  1  0  0  0  0
  5  6  2  0  0  0  0
  7  3  1  0  0  0  0
  9 11  1  0  0  0  0
  9 10  1  0  0  0  0
 10 14  1  0  0  0  0
 10 13  1  0  0  0  0
 11 10  1  0  0  0  0
 11 15  1  0  0  0  0
 11 16  1  0  0  0  0
 12  9  1  0  0  0  0
 17  2  1  0  0  0  0
 17 18  1  0  0  0  0
 19 17  1  0  0  0  0
 20 17  1  0  0  0  0
 20 23  1  0  0  0  0
 21 20  1  0  0  0  0
 22 20  1  0  0  0  0
 23 30  1  0  0  0  0
 24 23  2  0  0  0  0
 24 26  1  0  0  0  0
 25 24  1  0  0  0  0
 26 28  2  0  0  0  0
 27 26  1  0  0  0  0
 28 29  1  0  0  0  0
 30 29  2  0  0  0  0
M  END
>  <minimizedAffinity>
-4.492805

$$$$

 OpenBabel03272508193D

 30 32  0  0  0  0  0  0  0  0999 V2000
   39.0710   24.8790   35.9490 C   0  0  0  0  0  0  0  0  0  0  0  0
   39.1670   26.1950   35.4730 C   0  0  0  0  0  0  0  0  0  0  0  0
   40.3420   26.4380   34.8090 C   0  0  0  0  0  0  0  0  0  0  0  0
   41.3070   25.4940   34.6340 N   0  0  0  0  0  0  0  0  0  0  0  0
   41.1740   24.2460   35.1060 C   0  0  0  0  0  0  0  0  0  0  0  0
   40.0570   23.9340   35.7660 N   0  0  0  0  0  0  0  0  0  0  0  0
   40.5710   27.4070   34.3880 H   0  0  0  0  0  0  0  0  0  0  0  0
   41.8710   23.4300   35.0240 H   0  0  0  0  0  0  0  0  0  0  0  0
   37.7510   24.5060   36.6140 C   0  0  0  0  0  0  0  0  0  0  0  0
   37.5450   23.2550   37.2310 C   0  0  0  0  0  0  0  0  0  0  0  0
   38.0000   24.3650   38.1550 C   0  0  0  0  0  0  0  0  0  0  0  0
   36.9350   25.2690   36.4520 H   0  0  0  0  0  0  0  0  0  0  0  0
   36.5410   22.8650   37.4180 H   0  0  0  0  0  0  0  0  0  0  0  0
   38.3290   22.4550   37.1020 H   0  0  0  0  0  0  0  0  0  0  0  0
   37.2580   24.8900   38.7700 H   0  0  0  0  0  0  0  0  0  0  0  0
   39.0160   24.3690   38.5270 H   0  0  0  0  0  0  0  0  0  0  0  0
   38.1460   27.1980   35.6980 C   0  0  0  0  0  0  0  0  0  0  0  0
   38.5760   28.2070   35.5880 H   0  0  0  0  0  0  0  0  0  0  0  0
   37.7920   27.1210   36.7710 H   0  0  0  0  0  0  0  0  0  0  0  0
   36.8970   27.0970   34.8810 C   0  0  0  0  0  0  0  0  0  0  0  0
   36.2640   26.2890   35.3020 H   0  0  0  0  0  0  0  0  0  0  0  0
   36.2810   28.0170   34.8980 H   0  0  0  0  0  0  0  0  0  0  0  0
   37.1350   26.7470   33.4590 C   0  0  0  0  0  0  0  0  0  0  0  0
   37.5150   27.8790   32.7280 C   0  0  0  0  0  0  0  0  0  0  0  0
   37.6320   28.8990   33.1210 H   0  0  0  0  0  0  0  0  0  0  0  0
   37.7920   27.8070   31.3750 C   0  0  0  0  0  0  0  0  0  0  0  0
   38.0900   28.6600   30.7780 H   0  0  0  0  0  0  0  0  0  0  0  0
   37.7020   26.6060   30.7030 C   0  0  0  0  0  3  0  0  0  0  0  0
   37.3240   25.5160   31.4580 C   0  0  0  0  0  3  0  0  0  0  0  0
   37.0500   25.5700   32.7730 N   0  0  0  0  0  0  0  0  0  0  0  0
  1  9  1  0  0  0  0
  2 17  1  0  0  0  0
  2  1  2  0  0  0  0
  3  2  1  0  0  0  0
  4  3  2  0  0  0  0
  4  5  1  0  0  0  0
  5  6  2  0  0  0  0
  6  1  1  0  0  0  0
  7  3  1  0  0  0  0
  8  5  1  0  0  0  0
  9 10  1  0  0  0  0
  9 11  1  0  0  0  0
 10 13  1  0  0  0  0
 10 11  1  0  0  0  0
 11 16  1  0  0  0  0
 11 15  1  0  0  0  0
 12  9  1  0  0  0  0
 14 10  1  0  0  0  0
 17 19  1  0  0  0  0
 18 17  1  0  0  0  0
 20 22  1  0  0  0  0
 20 21  1  0  0  0  0
 20 17  1  0  0  0  0
 23 20  1  0  0  0  0
 24 25  1  0  0  0  0
 24 23  2  0  0  0  0
 26 24  1  0  0  0  0
 27 26  1  0  0  0  0
 28 26  2  0  0  0  0
 28 29  1  0  0  0  0
 29 30  2  0  0  0  0
 30 23  1  0  0  0  0
M  END
>  <minimizedAffinity>
-4.46377325

$$$$

 OpenBabel03272508193D

 30 32  0  0  0  0  0  0  0  0999 V2000
   38.1900   24.8830   35.4190 C   0  0  0  0  0  0  0  0  0  0  0  0
   38.1610   23.8650   34.4540 C   0  0  0  0  0  0  0  0  0  0  0  0
   38.0320   22.6140   35.0010 C   0  0  0  0  0  0  0  0  0  0  0  0
   37.9420   22.3940   36.3410 N   0  0  0  0  0  0  0  0  0  0  0  0
   37.9740   23.3980   37.2290 C   0  0  0  0  0  0  0  0  0  0  0  0
   38.1000   24.6450   36.7730 N   0  0  0  0  0  0  0  0  0  0  0  0
   38.0000   21.7230   34.3900 H   0  0  0  0  0  0  0  0  0  0  0  0
   37.9120   23.3330   38.3020 H   0  0  0  0  0  0  0  0  0  0  0  0
   38.2350   26.3080   34.8810 C   0  0  0  0  0  0  0  0  0  0  0  0
   38.4430   27.4230   35.7200 C   0  0  0  0  0  0  0  0  0  0  0  0
   39.6900   26.8600   35.0710 C   0  0  0  0  0  0  0  0  0  0  0  0
   37.9630   26.3860   33.7880 H   0  0  0  0  0  0  0  0  0  0  0  0
   38.1650   28.4350   35.4100 H   0  0  0  0  0  0  0  0  0  0  0  0
   38.4310   27.2680   36.8360 H   0  0  0  0  0  0  0  0  0  0  0  0
   40.0970   27.3460   34.1750 H   0  0  0  0  0  0  0  0  0  0  0  0
   40.3940   26.2940   35.6670 H   0  0  0  0  0  0  0  0  0  0  0  0
   38.2930   24.1130   33.0320 C   0  0  0  0  0  0  0  0  0  0  0  0
   39.0140   23.4070   32.5900 H   0  0  0  0  0  0  0  0  0  0  0  0
   38.7320   25.1480   32.8840 H   0  0  0  0  0  0  0  0  0  0  0  0
   37.0370   24.1160   32.2200 C   0  0  0  0  0  0  0  0  0  0  0  0
   36.2320   24.5920   32.8160 H   0  0  0  0  0  0  0  0  0  0  0  0
   37.1180   24.7020   31.2830 H   0  0  0  0  0  0  0  0  0  0  0  0
   36.5510   22.7630   31.8580 C   0  0  0  0  0  0  0  0  0  0  0  0
   37.5140   22.0730   31.1130 C   0  0  0  0  0  0  0  0  0  0  0  0
   38.5040   22.4520   30.8180 H   0  0  0  0  0  0  0  0  0  0  0  0
   37.2920   20.7860   30.6570 C   0  0  0  0  0  0  0  0  0  0  0  0
   38.0140   20.2220   30.0790 H   0  0  0  0  0  0  0  0  0  0  0  0
   36.1040   20.1410   30.9290 C   0  0  0  0  0  3  0  0  0  0  0  0
   35.1820   20.8530   31.6650 C   0  0  0  0  0  3  0  0  0  0  0  0
   35.3820   22.1040   32.1140 N   0  0  0  0  0  0  0  0  0  0  0  0
  1  6  1  0  0  0  0
  2  3  1  0  0  0  0
  2  1  2  0  0  0  0
  3  4  2  0  0  0  0
  4  5  1  0  0  0  0
  5  8  1  0  0  0  0
  6  5  2  0  0  0  0
  7  3  1  0  0  0  0
  9 11  1  0  0  0  0
  9  1  1  0  0  0  0
  9 10  1  0  0  0  0
 10 14  1  0  0  0  0
 11 16  1  0  0  0  0
 11 10  1  0  0  0  0
 12  9  1  0  0  0  0
 13 10  1  0  0  0  0
 15 11  1  0  0  0  0
 17  2  1  0  0  0  0
 18 17  1  0  0  0  0
 19 17  1  0  0  0  0
 20 21  1  0  0  0  0
 20 17  1  0  0  0  0
 22 20  1  0  0  0  0
 23 30  1  0  0  0  0
 23 20  1  0  0  0  0
 24 23  2  0  0  0  0
 25 24  1  0  0  0  0
 26 28  2  0  0  0  0
 26 24  1  0  0  0  0
 27 26  1  0  0  0  0
 28 29  1  0  0  0  0
 29 30  2  0  0  0  0
M  END
>  <minimizedAffinity>
-4.43847179

$$$$

 OpenBabel03272508193D

 30 32  0  0  0  0  0  0  0  0999 V2000
   39.3450   22.6450   36.5150 C   0  0  0  0  0  0  0  0  0  0  0  0
   39.4720   22.5270   35.1230 C   0  0  0  0  0  0  0  0  0  0  0  0
   40.6920   22.0320   34.7390 C   0  0  0  0  0  0  0  0  0  0  0  0
   41.6700   21.6930   35.6230 N   0  0  0  0  0  0  0  0  0  0  0  0
   41.5060   21.8230   36.9470 C   0  0  0  0  0  0  0  0  0  0  0  0
   40.3450   22.3010   37.3990 N   0  0  0  0  0  0  0  0  0  0  0  0
   40.9480   21.8870   33.6990 H   0  0  0  0  0  0  0  0  0  0  0  0
   42.2110   21.5880   37.7260 H   0  0  0  0  0  0  0  0  0  0  0  0
   37.9810   23.0990   37.0230 C   0  0  0  0  0  0  0  0  0  0  0  0
   37.7760   23.5240   38.3520 C   0  0  0  0  0  0  0  0  0  0  0  0
   38.0640   24.6280   37.3570 C   0  0  0  0  0  0  0  0  0  0  0  0
   37.1490   22.9390   36.2780 H   0  0  0  0  0  0  0  0  0  0  0  0
   36.7790   23.5410   38.8030 H   0  0  0  0  0  0  0  0  0  0  0  0
   38.6110   23.3870   39.0970 H   0  0  0  0  0  0  0  0  0  0  0  0
   37.2310   25.2130   36.9470 H   0  0  0  0  0  0  0  0  0  0  0  0
   39.0310   25.1140   37.3630 H   0  0  0  0  0  0  0  0  0  0  0  0
   38.4340   22.9240   34.1940 C   0  0  0  0  0  0  0  0  0  0  0  0
   37.4460   22.8460   34.6750 H   0  0  0  0  0  0  0  0  0  0  0  0
   38.4230   22.1910   33.3290 H   0  0  0  0  0  0  0  0  0  0  0  0
   38.5710   24.2660   33.5480 C   0  0  0  0  0  0  0  0  0  0  0  0
   38.6230   25.0370   34.3440 H   0  0  0  0  0  0  0  0  0  0  0  0
   39.4950   24.3750   32.9480 H   0  0  0  0  0  0  0  0  0  0  0  0
   37.4280   24.6350   32.6780 C   0  0  0  0  0  0  0  0  0  0  0  0
   36.7920   23.4900   32.1840 C   0  0  0  0  0  0  0  0  0  0  0  0
   37.0740   22.4480   32.3910 H   0  0  0  0  0  0  0  0  0  0  0  0
   35.6950   23.5760   31.3460 C   0  0  0  0  0  0  0  0  0  0  0  0
   35.1780   22.7130   30.9450 H   0  0  0  0  0  0  0  0  0  0  0  0
   35.1920   24.8040   30.9730 C   0  0  0  0  0  3  0  0  0  0  0  0
   35.8450   25.9070   31.4810 C   0  0  0  0  0  3  0  0  0  0  0  0
   36.9130   25.8400   32.2940 N   0  0  0  0  0  0  0  0  0  0  0  0
  1  9  1  0  0  0  0
  1  6  1  0  0  0  0
  2  1  2  0  0  0  0
  3  2  1  0  0  0  0
  3  4  2  0  0  0  0
  4  5  1  0  0  0  0
  5  6  2  0  0  0  0
  5  8  1  0  0  0  0
  7  3  1  0  0  0  0
  9 11  1  0  0  0  0
  9 10  1  0  0  0  0
 10 13  1  0  0  0  0
 10 14  1  0  0  0  0
 11 16  1  0  0  0  0
 11 10  1  0  0  0  0
 12  9  1  0  0  0  0
 15 11  1  0  0  0  0
 17 18  1  0  0  0  0
 17  2  1  0  0  0  0
 19 17  1  0  0  0  0
 20 17  1  0  0  0  0
 20 21  1  0  0  0  0
 22 20  1  0  0  0  0
 23 20  1  0  0  0  0
 24 25  1  0  0  0  0
 24 23  2  0  0  0  0
 26 24  1  0  0  0  0
 27 26  1  0  0  0  0
 28 26  2  0  0  0  0
 28 29  1  0  0  0  0
 29 30  2  0  0  0  0
 30 23  1  0  0  0  0
M  END
>  <minimizedAffinity>
-4.39460897

$$$$
