
 OpenBabel03272505243D

 27 29  0  0  0  0  0  0  0  0999 V2000
   36.2880   29.2850   51.0550 C   0  0  0  0  0  0  0  0  0  0  0  0
   36.6250   29.5340   49.6980 C   0  0  0  0  0  0  0  0  0  0  0  0
   35.5960   29.8140   48.7930 C   0  0  0  0  0  0  0  0  0  0  0  0
   34.3350   29.8330   49.2640 N   0  0  0  0  0  0  0  0  0  0  0  0
   34.0120   29.5960   50.5540 C   0  0  0  0  0  0  0  0  0  0  0  0
   35.0020   29.3230   51.4440 N   0  0  0  0  0  0  0  0  0  0  0  0
   35.8690   30.0730   47.4350 N   0  0  0  0  0  0  0  0  0  0  0  0
   35.0110   29.7170   46.4590 C   0  0  0  0  0  0  0  0  0  0  0  0
   35.2890   29.9690   45.1210 C   0  0  0  0  0  0  0  0  0  0  0  0
   36.5020   30.6130   44.8140 C   0  0  0  0  0  0  0  0  0  0  0  0
   36.7990   30.8610   43.6260 O   0  0  0  0  0  0  0  0  0  0  0  0
   37.3630   30.9680   45.8170 N   0  0  0  0  0  0  0  0  0  0  0  0
   36.9890   30.6760   47.0660 C   0  0  0  0  0  0  0  0  0  0  0  0
   37.8110   31.0250   47.9520 O   0  0  0  0  0  0  0  0  0  0  0  0
   37.0250   29.0620   51.8120 H   0  0  0  0  0  0  0  0  0  0  0  0
   37.6730   29.4620   49.5080 H   0  0  0  0  0  0  0  0  0  0  0  0
   32.9520   29.6480   50.7660 H   0  0  0  0  0  0  0  0  0  0  0  0
   34.0920   29.2300   46.6930 H   0  0  0  0  0  0  0  0  0  0  0  0
   34.6120   29.6910   44.3240 H   0  0  0  0  0  0  0  0  0  0  0  0
   38.5930   31.6200   45.5080 C   0  0  0  0  0  0  0  0  0  0  0  0
   39.7000   30.7760   45.5970 C   0  0  0  0  0  0  0  0  0  0  0  0
   39.6390   29.7350   45.8700 H   0  0  0  0  0  0  0  0  0  0  0  0
   40.9510   31.2940   45.3200 C   0  0  0  0  0  0  0  0  0  0  0  0
   41.8440   30.6750   45.3760 H   0  0  0  0  0  0  0  0  0  0  0  0
   41.0000   32.6220   44.9750 C   0  0  0  0  0  3  0  0  0  0  0  0
   39.9080   33.4620   44.8850 C   0  0  0  0  0  3  0  0  0  0  0  0
   38.6890   32.9180   45.1650 N   0  0  0  0  0  0  0  0  0  0  0  0
  1  6  1  0  0  0  0
  1 15  1  0  0  0  0
  2  1  2  0  0  0  0
  3  4  2  0  0  0  0
  3  2  1  0  0  0  0
  4  5  1  0  0  0  0
  5 17  1  0  0  0  0
  5  6  2  0  0  0  0
  7  3  1  0  0  0  0
  8 18  1  0  0  0  0
  8  7  1  0  0  0  0
  9  8  2  0  0  0  0
 10  9  1  0  0  0  0
 10 12  1  0  0  0  0
 11 10  2  0  0  0  0
 12 13  1  0  0  0  0
 13  7  1  0  0  0  0
 13 14  2  0  0  0  0
 16  2  1  0  0  0  0
 19  9  1  0  0  0  0
 20 21  1  0  0  0  0
 20 12  1  0  0  0  0
 21 22  1  0  0  0  0
 23 24  1  0  0  0  0
 23 21  2  0  0  0  0
 25 23  1  0  0  0  0
 26 25  2  0  0  0  0
 26 27  1  0  0  0  0
 27 20  2  0  0  0  0
M  END
>  <minimizedAffinity>
-5.75574732

>  <minimizedRMSD>
3.6584115

$$$$
