
 OpenBabel03272508083D

 23 24  0  0  0  0  0  0  0  0999 V2000
   39.0680   32.7360   48.1080 O   0  0  0  0  0  0  0  0  0  0  0  0
   38.6520   31.6950   47.1080 P   0  0  2  0  0  0  0  0  0  0  0  0
   37.5680   32.4100   46.0020 O   0  0  0  0  0  0  0  0  0  0  0  0
   37.6740   33.3920   46.0460 H   0  0  0  0  0  0  0  0  0  0  0  0
   38.0090   30.3000   47.7850 O   0  0  0  0  0  0  0  0  0  0  0  0
   37.3120   30.2100   51.4120 C   0  0  0  0  0  0  0  0  0  0  0  0
   38.0250   30.5240   50.2520 C   0  0  0  0  0  0  0  0  0  0  0  0
   37.5030   30.1140   49.0240 C   0  0  0  0  0  0  0  0  0  0  0  0
   36.3220   29.4280   49.0230 N   0  0  0  0  0  0  0  0  0  0  0  0
   35.6660   29.1470   50.1730 C   0  0  0  0  0  0  0  0  0  0  0  0
   36.1540   29.5340   51.3610 N   0  0  0  0  0  0  0  0  0  0  0  0
   37.8330   30.5880   52.2840 H   0  0  0  0  0  0  0  0  0  0  0  0
   38.9420   31.0480   50.1500 H   0  0  0  0  0  0  0  0  0  0  0  0
   34.7230   28.6000   50.1810 H   0  0  0  0  0  0  0  0  0  0  0  0
   40.0510   31.2940   46.2270 O   0  0  0  0  0  0  0  0  0  0  0  0
   39.9090   30.9590   44.8860 C   0  0  0  0  0  0  0  0  0  0  0  0
   40.4300   31.5940   43.7950 C   0  0  0  0  0  0  0  0  0  0  0  0
   41.0210   32.4600   44.0390 H   0  0  0  0  0  0  0  0  0  0  0  0
   40.1960   31.1290   42.5160 C   0  0  0  0  0  0  0  0  0  0  0  0
   40.6300   31.6650   41.6820 H   0  0  0  0  0  0  0  0  0  0  0  0
   39.4090   29.9970   42.4110 C   0  0  0  0  0  3  0  0  0  0  0  0
   38.8780   29.3510   43.5070 C   0  0  0  0  0  3  0  0  0  0  0  0
   39.1370   29.8430   44.7420 N   0  0  0  0  0  0  0  0  0  0  0  0
  2  5  1  0  0  0  0
  2  1  2  1  0  0  0
  3  4  1  0  0  0  0
  3  2  1  0  0  0  0
  5  8  1  0  0  0  0
  6 12  1  0  0  0  0
  7  6  2  0  0  0  0
  8  7  1  0  0  0  0
  9  8  2  0  0  0  0
  9 10  1  0  0  0  0
 10 14  1  0  0  0  0
 10 11  2  0  0  0  0
 11  6  1  0  0  0  0
 13  7  1  0  0  0  0
 15  2  1  0  0  0  0
 16 15  1  0  0  0  0
 17 18  1  0  0  0  0
 17 16  2  0  0  0  0
 19 17  1  0  0  0  0
 20 19  1  0  0  0  0
 21 19  2  0  0  0  0
 21 22  1  0  0  0  0
 22 23  2  0  0  0  0
 23 16  1  0  0  0  0
M  END
>  <minimizedAffinity>
-5.27079344

>  <minimizedRMSD>
1.14072812

$$$$
