
 OpenBabel03272508083D

 23 24  0  0  0  0  0  0  0  0999 V2000
   39.1350   32.6410   48.0410 O   0  0  0  0  0  0  0  0  0  0  0  0
   38.6320   31.6520   47.0270 P   0  0  2  0  0  0  0  0  0  0  0  0
   37.6040   32.4690   45.9390 O   0  0  0  0  0  0  0  0  0  0  0  0
   37.7890   33.4390   45.9970 H   0  0  0  0  0  0  0  0  0  0  0  0
   37.8820   30.3030   47.6860 O   0  0  0  0  0  0  0  0  0  0  0  0
   37.3470   30.1980   51.3400 C   0  0  0  0  0  0  0  0  0  0  0  0
   38.0110   30.5120   50.1510 C   0  0  0  0  0  0  0  0  0  0  0  0
   37.4300   30.1140   48.9450 C   0  0  0  0  0  0  0  0  0  0  0  0
   36.2440   29.4390   48.9940 N   0  0  0  0  0  0  0  0  0  0  0  0
   35.6380   29.1580   50.1710 C   0  0  0  0  0  0  0  0  0  0  0  0
   36.1830   29.5330   51.3380 N   0  0  0  0  0  0  0  0  0  0  0  0
   37.9110   30.5670   52.1900 H   0  0  0  0  0  0  0  0  0  0  0  0
   38.9270   31.0290   50.0110 H   0  0  0  0  0  0  0  0  0  0  0  0
   34.6910   28.6190   50.2180 H   0  0  0  0  0  0  0  0  0  0  0  0
   39.9900   31.1540   46.1310 O   0  0  0  0  0  0  0  0  0  0  0  0
   39.7990   30.7640   44.8110 C   0  0  0  0  0  0  0  0  0  0  0  0
   39.3150   29.5780   44.3410 C   0  0  0  0  0  0  0  0  0  0  0  0
   39.0580   28.8780   45.1150 H   0  0  0  0  0  0  0  0  0  0  0  0
   39.1860   29.3440   42.9850 C   0  0  0  0  0  0  0  0  0  0  0  0
   38.7970   28.3870   42.6590 H   0  0  0  0  0  0  0  0  0  0  0  0
   39.5730   30.3720   42.1480 C   0  0  0  0  0  3  0  0  0  0  0  0
   40.0630   31.5740   42.6140 C   0  0  0  0  0  3  0  0  0  0  0  0
   40.1720   31.7580   43.9510 N   0  0  0  0  0  0  0  0  0  0  0  0
  2  5  1  0  0  0  0
  2  1  2  1  0  0  0
  3  4  1  0  0  0  0
  3  2  1  0  0  0  0
  5  8  1  0  0  0  0
  6 12  1  0  0  0  0
  7  6  2  0  0  0  0
  8  9  2  0  0  0  0
  8  7  1  0  0  0  0
  9 10  1  0  0  0  0
 10 14  1  0  0  0  0
 10 11  2  0  0  0  0
 11  6  1  0  0  0  0
 13  7  1  0  0  0  0
 15  2  1  0  0  0  0
 16 15  1  0  0  0  0
 17 16  1  0  0  0  0
 17 18  1  0  0  0  0
 19 17  2  0  0  0  0
 20 19  1  0  0  0  0
 21 22  2  0  0  0  0
 21 19  1  0  0  0  0
 22 23  1  0  0  0  0
 23 16  2  0  0  0  0
M  END
>  <minimizedAffinity>
-5.18078566

>  <minimizedRMSD>
1.13764143

$$$$
