
 OpenBabel03272505023D

 28 30  0  0  0  0  0  0  0  0999 V2000
   36.1090   30.0950   45.9330 Cl  0  0  0  0  0  0  0  0  0  0  0  0
   37.3840   31.1280   46.5480 C   0  0  0  0  0  0  0  0  0  0  0  0
   37.5120   31.2350   47.9000 C   0  0  0  0  0  0  0  0  0  0  0  0
   38.5450   32.0720   48.3210 C   0  0  0  0  0  0  0  0  0  0  0  0
   39.3560   32.7260   47.4120 C   0  0  0  0  0  0  0  0  0  0  0  0
   39.1680   32.5700   46.0610 C   0  0  0  0  0  0  0  0  0  0  0  0
   38.1560   31.7500   45.6250 C   0  0  0  0  0  0  0  0  0  0  0  0
   38.7410   32.2330   49.3720 H   0  0  0  0  0  0  0  0  0  0  0  0
   40.1510   33.3690   47.7630 H   0  0  0  0  0  0  0  0  0  0  0  0
   39.8320   33.1070   45.3910 H   0  0  0  0  0  0  0  0  0  0  0  0
   37.2280   29.7030   49.8430 C   0  0  0  0  0  0  0  0  0  0  0  0
   36.6760   30.5620   48.8870 C   0  0  0  0  0  0  0  0  0  0  0  0
   35.2910   30.7690   48.8910 C   0  0  0  0  0  0  0  0  0  0  0  0
   34.5630   30.1170   49.8330 N   0  0  0  0  0  0  0  0  0  0  0  0
   35.1150   29.2960   50.7400 C   0  0  0  0  0  0  0  0  0  0  0  0
   36.4430   29.0860   50.7510 N   0  0  0  0  0  0  0  0  0  0  0  0
   38.2900   29.5300   49.8580 H   0  0  0  0  0  0  0  0  0  0  0  0
   34.8710   31.4360   48.1480 H   0  0  0  0  0  0  0  0  0  0  0  0
   34.3690   28.8810   51.3920 H   0  0  0  0  0  0  0  0  0  0  0  0
   37.9810   31.6070   44.2530 O   0  0  0  0  0  0  0  0  0  0  0  0
   38.7290   30.6200   43.6290 C   0  0  0  0  0  0  0  0  0  0  0  0
   39.7240   31.2010   42.8380 C   0  0  0  0  0  0  0  0  0  0  0  0
   39.9250   32.2670   42.6980 H   0  0  0  0  0  0  0  0  0  0  0  0
   40.6090   30.4050   42.1060 C   0  0  0  0  0  0  0  0  0  0  0  0
   41.3880   30.8010   41.4850 H   0  0  0  0  0  0  0  0  0  0  0  0
   40.4730   29.0180   42.1880 C   0  0  0  0  0  0  0  0  0  0  0  0
   39.4690   28.5120   42.9880 C   0  0  0  0  0  0  0  0  0  0  0  0
   38.6270   29.2930   43.6830 N   0  0  0  0  0  0  0  0  0  0  0  0
  1  2  1  0  0  0  0
  2  3  1  0  0  0  0
  3  4  2  0  0  0  0
  3 12  1  0  0  0  0
  4  8  1  0  0  0  0
  5  9  1  0  0  0  0
  5  4  1  0  0  0  0
  6  5  2  0  0  0  0
  7  6  1  0  0  0  0
  7  2  2  0  0  0  0
 10  6  1  0  0  0  0
 11 17  1  0  0  0  0
 11 16  1  0  0  0  0
 12 13  1  0  0  0  0
 12 11  2  0  0  0  0
 13 14  2  0  0  0  0
 14 15  1  0  0  0  0
 15 16  2  0  0  0  0
 15 19  1  0  0  0  0
 18 13  1  0  0  0  0
 20  7  1  0  0  0  0
 21 28  1  0  0  0  0
 21 20  1  0  0  0  0
 22 21  2  0  0  0  0
 23 22  1  0  0  0  0
 24 26  2  0  0  0  0
 24 22  1  0  0  0  0
 25 24  1  0  0  0  0
 26 27  1  0  0  0  0
 27 28  2  0  0  0  0
M  END
>  <minimizedAffinity>
-5.29045963

>  <minimizedRMSD>
2.45432162

$$$$
