
 OpenBabel03272508083D

 23 24  0  0  0  0  0  0  0  0999 V2000
   39.1270   32.7240   48.0390 O   0  0  0  0  0  0  0  0  0  0  0  0
   38.6620   31.7020   47.0400 P   0  0  2  0  0  0  0  0  0  0  0  0
   37.5580   32.4490   45.9760 O   0  0  0  0  0  0  0  0  0  0  0  0
   37.6840   33.4280   46.0270 H   0  0  0  0  0  0  0  0  0  0  0  0
   38.0140   30.3110   47.7210 O   0  0  0  0  0  0  0  0  0  0  0  0
   37.3390   30.2340   51.3530 C   0  0  0  0  0  0  0  0  0  0  0  0
   38.0440   30.5470   50.1870 C   0  0  0  0  0  0  0  0  0  0  0  0
   37.5160   30.1270   48.9640 C   0  0  0  0  0  0  0  0  0  0  0  0
   36.3400   29.4340   48.9730 N   0  0  0  0  0  0  0  0  0  0  0  0
   35.6940   29.1540   50.1290 C   0  0  0  0  0  0  0  0  0  0  0  0
   36.1860   29.5490   51.3120 N   0  0  0  0  0  0  0  0  0  0  0  0
   37.8630   30.6200   52.2200 H   0  0  0  0  0  0  0  0  0  0  0  0
   38.9560   31.0760   50.0770 H   0  0  0  0  0  0  0  0  0  0  0  0
   34.7540   28.6000   50.1440 H   0  0  0  0  0  0  0  0  0  0  0  0
   40.0260   31.2860   46.1130 O   0  0  0  0  0  0  0  0  0  0  0  0
   39.8220   30.7750   44.8370 C   0  0  0  0  0  0  0  0  0  0  0  0
   39.1740   29.6300   44.4760 C   0  0  0  0  0  0  0  0  0  0  0  0
   38.7810   29.0750   45.3100 H   0  0  0  0  0  0  0  0  0  0  0  0
   39.0570   29.2600   43.1510 C   0  0  0  0  0  0  0  0  0  0  0  0
   38.5330   28.3430   42.9130 H   0  0  0  0  0  0  0  0  0  0  0  0
   39.6310   30.1100   42.2250 C   0  0  0  0  0  3  0  0  0  0  0  0
   40.2880   31.2690   42.5810 C   0  0  0  0  0  3  0  0  0  0  0  0
   40.3770   31.5910   43.8920 N   0  0  0  0  0  0  0  0  0  0  0  0
  2  5  1  0  0  0  0
  2  1  2  1  0  0  0
  3  4  1  0  0  0  0
  3  2  1  0  0  0  0
  5  8  1  0  0  0  0
  6 12  1  0  0  0  0
  7  6  2  0  0  0  0
  8  9  2  0  0  0  0
  8  7  1  0  0  0  0
  9 10  1  0  0  0  0
 10 14  1  0  0  0  0
 10 11  2  0  0  0  0
 11  6  1  0  0  0  0
 13  7  1  0  0  0  0
 15  2  1  0  0  0  0
 16 15  1  0  0  0  0
 17 16  1  0  0  0  0
 17 18  1  0  0  0  0
 19 17  2  0  0  0  0
 20 19  1  0  0  0  0
 21 22  2  0  0  0  0
 21 19  1  0  0  0  0
 22 23  1  0  0  0  0
 23 16  2  0  0  0  0
M  END
>  <minimizedAffinity>
-5.20914316

>  <minimizedRMSD>
1.19974196

$$$$
