
 OpenBabel03272504013D

 30 32  0  0  0  0  0  0  0  0999 V2000
   36.3550   21.2860   31.6190 C   0  0  0  0  0  0  0  0  0  0  0  0
   37.3360   21.3150   31.0760 H   0  0  0  0  0  0  0  0  0  0  0  0
   36.0130   20.2410   31.4690 H   0  0  0  0  0  0  0  0  0  0  0  0
   36.5300   21.3490   33.0820 C   0  0  0  0  0  0  0  0  0  0  0  0
   35.6350   20.6690   33.9120 C   0  0  0  0  0  0  0  0  0  0  0  0
   36.0050   20.9010   35.2090 C   0  0  0  0  0  0  0  0  0  0  0  0
   37.0810   21.6890   35.1680 N   0  0  0  0  0  0  0  0  0  0  0  0
   37.3740   21.9420   33.9140 N   0  0  0  0  0  0  0  0  0  0  0  0
   34.7800   20.0490   33.6920 H   0  0  0  0  0  0  0  0  0  0  0  0
   35.6480   20.6100   36.1870 H   0  0  0  0  0  0  0  0  0  0  0  0
   37.8880   22.2490   36.2060 C   0  0  0  0  0  0  0  0  0  0  0  0
   39.2660   22.2150   36.2540 C   0  0  0  0  0  0  0  0  0  0  0  0
   39.7640   21.7230   35.4410 H   0  0  0  0  0  0  0  0  0  0  0  0
   39.8970   22.8060   37.3310 C   0  0  0  0  0  0  0  0  0  0  0  0
   40.9860   22.7810   37.3730 H   0  0  0  0  0  0  0  0  0  0  0  0
   39.1910   23.4300   38.3570 C   0  0  0  0  0  3  0  0  0  0  0  0
   37.8100   23.4320   38.2490 C   0  0  0  0  0  3  0  0  0  0  0  0
   37.2010   22.8550   37.2000 N   0  0  0  0  0  0  0  0  0  0  0  0
   35.5220   22.3650   31.0570 C   0  0  0  0  0  0  0  0  0  0  0  0
   34.4880   22.4000   31.5210 H   0  0  0  0  0  0  0  0  0  0  0  0
   35.2890   22.0710   29.9870 H   0  0  0  0  0  0  0  0  0  0  0  0
   36.0280   23.7100   31.0410 C   0  0  0  0  0  0  0  0  0  0  0  0
   35.1840   24.7720   31.2120 C   0  0  0  0  0  0  0  0  0  0  0  0
   35.6720   26.0920   31.1960 C   0  0  0  0  0  0  0  0  0  0  0  0
   37.0400   26.2190   30.9980 N   0  0  0  0  0  0  0  0  0  0  0  0
   37.8500   25.1400   30.8320 C   0  0  0  0  0  0  0  0  0  0  0  0
   37.3240   23.8760   30.8560 N   0  0  0  0  0  0  0  0  0  0  0  0
   34.1210   24.8320   31.3730 H   0  0  0  0  0  0  0  0  0  0  0  0
   35.1260   27.0110   31.3160 H   0  0  0  0  0  0  0  0  0  0  0  0
   38.9080   25.3110   30.6820 H   0  0  0  0  0  0  0  0  0  0  0  0
  1  4  1  0  0  0  0
  2  1  1  0  0  0  0
  3  1  1  0  0  0  0
  4  5  1  0  0  0  0
  4  8  2  0  0  0  0
  5  6  2  0  0  0  0
  6 10  1  0  0  0  0
  7  6  1  0  0  0  0
  7 11  1  0  0  0  0
  8  7  1  0  0  0  0
  9  5  1  0  0  0  0
 11 12  2  0  0  0  0
 11 18  1  0  0  0  0
 12 14  1  0  0  0  0
 13 12  1  0  0  0  0
 14 15  1  0  0  0  0
 14 16  2  0  0  0  0
 17 16  1  0  0  0  0
 18 17  2  0  0  0  0
 19 20  1  0  0  0  0
 19  1  1  0  0  0  0
 21 19  1  0  0  0  0
 22 19  1  0  0  0  0
 22 23  1  0  0  0  0
 23 28  1  0  0  0  0
 24 23  2  0  0  0  0
 24 29  1  0  0  0  0
 25 24  1  0  0  0  0
 26 27  1  0  0  0  0
 26 25  2  0  0  0  0
 27 22  2  0  0  0  0
 30 26  1  0  0  0  0
M  END
>  <minimizedAffinity>
-5.22651148

$$$$

 OpenBabel03272504013D

 30 32  0  0  0  0  0  0  0  0999 V2000
   37.0450   23.7000   31.2920 C   0  0  0  0  0  0  0  0  0  0  0  0
   36.9250   24.5520   30.5720 H   0  0  0  0  0  0  0  0  0  0  0  0
   37.9760   23.2060   30.9460 H   0  0  0  0  0  0  0  0  0  0  0  0
   37.4200   24.1640   32.6400 C   0  0  0  0  0  0  0  0  0  0  0  0
   37.4500   25.5340   32.9140 C   0  0  0  0  0  0  0  0  0  0  0  0
   37.8400   25.6940   34.2150 C   0  0  0  0  0  0  0  0  0  0  0  0
   38.0380   24.4720   34.7120 N   0  0  0  0  0  0  0  0  0  0  0  0
   37.7880   23.5870   33.7750 N   0  0  0  0  0  0  0  0  0  0  0  0
   37.2290   26.3940   32.3010 H   0  0  0  0  0  0  0  0  0  0  0  0
   38.0110   26.5270   34.8830 H   0  0  0  0  0  0  0  0  0  0  0  0
   38.4510   24.0280   36.0060 C   0  0  0  0  0  0  0  0  0  0  0  0
   39.5270   23.2050   36.2640 C   0  0  0  0  0  0  0  0  0  0  0  0
   40.0950   22.8750   35.4160 H   0  0  0  0  0  0  0  0  0  0  0  0
   39.7920   22.8690   37.5780 C   0  0  0  0  0  0  0  0  0  0  0  0
   40.6420   22.2180   37.7860 H   0  0  0  0  0  0  0  0  0  0  0  0
   39.0140   23.3310   38.6370 C   0  0  0  0  0  3  0  0  0  0  0  0
   37.9490   24.1540   38.3110 C   0  0  0  0  0  3  0  0  0  0  0  0
   37.6950   24.4780   37.0330 N   0  0  0  0  0  0  0  0  0  0  0  0
   35.7960   22.9180   31.2410 C   0  0  0  0  0  0  0  0  0  0  0  0
   35.2740   23.0000   30.2380 H   0  0  0  0  0  0  0  0  0  0  0  0
   35.0600   23.4350   31.9310 H   0  0  0  0  0  0  0  0  0  0  0  0
   35.8220   21.5240   31.5940 C   0  0  0  0  0  0  0  0  0  0  0  0
   36.2930   20.5930   30.7120 C   0  0  0  0  0  0  0  0  0  0  0  0
   36.3200   19.2270   31.0510 C   0  0  0  0  0  0  0  0  0  0  0  0
   35.8430   18.9180   32.3170 N   0  0  0  0  0  0  0  0  0  0  0  0
   35.3830   19.8710   33.1690 C   0  0  0  0  0  0  0  0  0  0  0  0
   35.3780   21.1870   32.7890 N   0  0  0  0  0  0  0  0  0  0  0  0
   36.6890   20.6770   29.7140 H   0  0  0  0  0  0  0  0  0  0  0  0
   36.6610   18.3960   30.4590 H   0  0  0  0  0  0  0  0  0  0  0  0
   35.0250   19.5610   34.1410 H   0  0  0  0  0  0  0  0  0  0  0  0
  1  4  1  0  0  0  0
  2  1  1  0  0  0  0
  3  1  1  0  0  0  0
  4  5  1  0  0  0  0
  4  8  2  0  0  0  0
  5  6  2  0  0  0  0
  6  7  1  0  0  0  0
  6 10  1  0  0  0  0
  7 11  1  0  0  0  0
  8  7  1  0  0  0  0
  9  5  1  0  0  0  0
 11 12  2  0  0  0  0
 11 18  1  0  0  0  0
 12 14  1  0  0  0  0
 13 12  1  0  0  0  0
 14 15  1  0  0  0  0
 14 16  2  0  0  0  0
 17 16  1  0  0  0  0
 18 17  2  0  0  0  0
 19  1  1  0  0  0  0
 19 22  1  0  0  0  0
 19 21  1  0  0  0  0
 20 19  1  0  0  0  0
 22 27  1  0  0  0  0
 23 24  1  0  0  0  0
 23 22  2  0  0  0  0
 24 25  2  0  0  0  0
 25 26  1  0  0  0  0
 26 30  1  0  0  0  0
 27 26  2  0  0  0  0
 28 23  1  0  0  0  0
 29 24  1  0  0  0  0
M  END
>  <minimizedAffinity>
-4.99227571

$$$$

 OpenBabel03272504013D

 30 32  0  0  0  0  0  0  0  0999 V2000
   36.4180   28.3560   33.4370 C   0  0  0  0  0  0  0  0  0  0  0  0
   37.1940   29.0940   33.1010 H   0  0  0  0  0  0  0  0  0  0  0  0
   35.9100   28.0750   32.4920 H   0  0  0  0  0  0  0  0  0  0  0  0
   37.0170   27.0770   33.8600 C   0  0  0  0  0  0  0  0  0  0  0  0
   37.3050   26.1010   32.9030 C   0  0  0  0  0  0  0  0  0  0  0  0
   37.8320   25.0180   33.5520 C   0  0  0  0  0  0  0  0  0  0  0  0
   37.8620   25.3240   34.8510 N   0  0  0  0  0  0  0  0  0  0  0  0
   37.3810   26.5340   35.0130 N   0  0  0  0  0  0  0  0  0  0  0  0
   37.1820   26.0870   31.8310 H   0  0  0  0  0  0  0  0  0  0  0  0
   38.2020   24.0420   33.2710 H   0  0  0  0  0  0  0  0  0  0  0  0
   38.3050   24.5840   35.9900 C   0  0  0  0  0  0  0  0  0  0  0  0
   37.7320   24.6290   37.2440 C   0  0  0  0  0  0  0  0  0  0  0  0
   36.8860   25.2770   37.3650 H   0  0  0  0  0  0  0  0  0  0  0  0
   38.2840   23.8480   38.2420 C   0  0  0  0  0  0  0  0  0  0  0  0
   37.8340   23.8810   39.2350 H   0  0  0  0  0  0  0  0  0  0  0  0
   39.3860   23.0260   38.0220 C   0  0  0  0  0  3  0  0  0  0  0  0
   39.9140   23.0260   36.7410 C   0  0  0  0  0  3  0  0  0  0  0  0
   39.3750   23.7860   35.7750 N   0  0  0  0  0  0  0  0  0  0  0  0
   35.6120   29.0260   34.4740 C   0  0  0  0  0  0  0  0  0  0  0  0
   35.8310   28.6320   35.5140 H   0  0  0  0  0  0  0  0  0  0  0  0
   34.5400   28.6900   34.3180 H   0  0  0  0  0  0  0  0  0  0  0  0
   35.6140   30.4610   34.5520 C   0  0  0  0  0  0  0  0  0  0  0  0
   35.9970   31.0940   35.7010 C   0  0  0  0  0  0  0  0  0  0  0  0
   36.0000   32.4980   35.7840 C   0  0  0  0  0  0  0  0  0  0  0  0
   35.5950   33.1650   34.6360 N   0  0  0  0  0  0  0  0  0  0  0  0
   35.2210   32.5020   33.5100 C   0  0  0  0  0  0  0  0  0  0  0  0
   35.2360   31.1340   33.4810 N   0  0  0  0  0  0  0  0  0  0  0  0
   36.3310   30.7210   36.6550 H   0  0  0  0  0  0  0  0  0  0  0  0
   36.2750   33.1200   36.6180 H   0  0  0  0  0  0  0  0  0  0  0  0
   34.9160   33.0840   32.6500 H   0  0  0  0  0  0  0  0  0  0  0  0
  1  4  1  0  0  0  0
  1 19  1  0  0  0  0
  2  1  1  0  0  0  0
  3  1  1  0  0  0  0
  4  8  2  0  0  0  0
  5  6  2  0  0  0  0
  5  4  1  0  0  0  0
  6  7  1  0  0  0  0
  7  8  1  0  0  0  0
  7 11  1  0  0  0  0
  9  5  1  0  0  0  0
 10  6  1  0  0  0  0
 11 12  1  0  0  0  0
 12 13  1  0  0  0  0
 12 14  2  0  0  0  0
 14 15  1  0  0  0  0
 16 14  1  0  0  0  0
 17 16  2  0  0  0  0
 18 11  2  0  0  0  0
 18 17  1  0  0  0  0
 19 22  1  0  0  0  0
 19 20  1  0  0  0  0
 21 19  1  0  0  0  0
 22 23  1  0  0  0  0
 23 24  2  0  0  0  0
 23 28  1  0  0  0  0
 24 29  1  0  0  0  0
 25 24  1  0  0  0  0
 26 25  2  0  0  0  0
 27 26  1  0  0  0  0
 27 22  2  0  0  0  0
 30 26  1  0  0  0  0
M  END
>  <minimizedAffinity>
-4.90497541

$$$$

 OpenBabel03272504013D

 30 32  0  0  0  0  0  0  0  0999 V2000
   37.9050   26.3430   33.5080 C   0  0  0  0  0  0  0  0  0  0  0  0
   37.3040   25.4250   33.2760 H   0  0  0  0  0  0  0  0  0  0  0  0
   38.4830   26.5100   32.5760 H   0  0  0  0  0  0  0  0  0  0  0  0
   37.0650   27.5520   33.5750 C   0  0  0  0  0  0  0  0  0  0  0  0
   36.5980   28.1330   32.3930 C   0  0  0  0  0  0  0  0  0  0  0  0
   35.8660   29.2390   32.7290 C   0  0  0  0  0  0  0  0  0  0  0  0
   35.8870   29.3260   34.0600 N   0  0  0  0  0  0  0  0  0  0  0  0
   36.5940   28.3300   34.5400 N   0  0  0  0  0  0  0  0  0  0  0  0
   36.7230   27.8560   31.3580 H   0  0  0  0  0  0  0  0  0  0  0  0
   35.3140   30.0020   32.1970 H   0  0  0  0  0  0  0  0  0  0  0  0
   35.3000   30.2690   34.9600 C   0  0  0  0  0  0  0  0  0  0  0  0
   35.9940   31.1800   35.7270 C   0  0  0  0  0  0  0  0  0  0  0  0
   37.0630   31.1720   35.6360 H   0  0  0  0  0  0  0  0  0  0  0  0
   35.2740   32.0260   36.5490 C   0  0  0  0  0  0  0  0  0  0  0  0
   35.8190   32.7470   37.1570 H   0  0  0  0  0  0  0  0  0  0  0  0
   33.8840   31.9860   36.6230 C   0  0  0  0  0  3  0  0  0  0  0  0
   33.2460   31.0490   35.8260 C   0  0  0  0  0  3  0  0  0  0  0  0
   33.9510   30.2290   35.0300 N   0  0  0  0  0  0  0  0  0  0  0  0
   38.6640   26.0570   34.7400 C   0  0  0  0  0  0  0  0  0  0  0  0
   38.7160   26.9520   35.4330 H   0  0  0  0  0  0  0  0  0  0  0  0
   39.7490   25.9350   34.4320 H   0  0  0  0  0  0  0  0  0  0  0  0
   38.3060   24.9180   35.5400 C   0  0  0  0  0  0  0  0  0  0  0  0
   38.0690   25.0570   36.8790 C   0  0  0  0  0  0  0  0  0  0  0  0
   37.7200   23.9460   37.6690 C   0  0  0  0  0  0  0  0  0  0  0  0
   37.6380   22.7360   36.9930 N   0  0  0  0  0  0  0  0  0  0  0  0
   37.8800   22.6360   35.6600 C   0  0  0  0  0  0  0  0  0  0  0  0
   38.2170   23.7480   34.9370 N   0  0  0  0  0  0  0  0  0  0  0  0
   38.0920   25.9130   37.5320 H   0  0  0  0  0  0  0  0  0  0  0  0
   37.5080   23.9120   38.7230 H   0  0  0  0  0  0  0  0  0  0  0  0
   37.7990   21.6610   35.1960 H   0  0  0  0  0  0  0  0  0  0  0  0
  1  4  1  0  0  0  0
  1 19  1  0  0  0  0
  2  1  1  0  0  0  0
  3  1  1  0  0  0  0
  4  8  2  0  0  0  0
  5  6  2  0  0  0  0
  5  4  1  0  0  0  0
  6  7  1  0  0  0  0
  7  8  1  0  0  0  0
  7 11  1  0  0  0  0
  9  5  1  0  0  0  0
 10  6  1  0  0  0  0
 11 18  2  0  0  0  0
 11 12  1  0  0  0  0
 12 14  2  0  0  0  0
 13 12  1  0  0  0  0
 14 16  1  0  0  0  0
 14 15  1  0  0  0  0
 17 16  2  0  0  0  0
 18 17  1  0  0  0  0
 19 20  1  0  0  0  0
 19 22  1  0  0  0  0
 21 19  1  0  0  0  0
 22 23  1  0  0  0  0
 23 28  1  0  0  0  0
 23 24  2  0  0  0  0
 24 29  1  0  0  0  0
 25 24  1  0  0  0  0
 26 25  2  0  0  0  0
 27 22  2  0  0  0  0
 27 26  1  0  0  0  0
 30 26  1  0  0  0  0
M  END
>  <minimizedAffinity>
-4.86966372

$$$$

 OpenBabel03272504013D

 30 32  0  0  0  0  0  0  0  0999 V2000
   36.8650   25.9190   31.6130 C   0  0  0  0  0  0  0  0  0  0  0  0
   36.3920   26.8980   31.3370 H   0  0  0  0  0  0  0  0  0  0  0  0
   37.8620   25.9740   31.1300 H   0  0  0  0  0  0  0  0  0  0  0  0
   37.2140   25.8560   33.0440 C   0  0  0  0  0  0  0  0  0  0  0  0
   36.9870   26.9680   33.8580 C   0  0  0  0  0  0  0  0  0  0  0  0
   37.4090   26.6580   35.1220 C   0  0  0  0  0  0  0  0  0  0  0  0
   37.8720   25.4080   35.0780 N   0  0  0  0  0  0  0  0  0  0  0  0
   37.7510   24.9530   33.8520 N   0  0  0  0  0  0  0  0  0  0  0  0
   36.5670   27.9400   33.6470 H   0  0  0  0  0  0  0  0  0  0  0  0
   37.4470   27.1600   36.0790 H   0  0  0  0  0  0  0  0  0  0  0  0
   38.4350   24.5670   36.0870 C   0  0  0  0  0  0  0  0  0  0  0  0
   39.5740   23.8020   35.9470 C   0  0  0  0  0  0  0  0  0  0  0  0
   40.0710   23.8470   34.9980 H   0  0  0  0  0  0  0  0  0  0  0  0
   39.9860   23.0410   37.0250 C   0  0  0  0  0  0  0  0  0  0  0  0
   40.8860   22.4350   36.9180 H   0  0  0  0  0  0  0  0  0  0  0  0
   39.2950   23.0250   38.2330 C   0  0  0  0  0  3  0  0  0  0  0  0
   38.1600   23.8160   38.3100 C   0  0  0  0  0  3  0  0  0  0  0  0
   37.7630   24.5530   37.2600 N   0  0  0  0  0  0  0  0  0  0  0  0
   35.9460   24.8580   31.1620 C   0  0  0  0  0  0  0  0  0  0  0  0
   35.4670   25.0960   30.1620 H   0  0  0  0  0  0  0  0  0  0  0  0
   35.0530   24.8820   31.8610 H   0  0  0  0  0  0  0  0  0  0  0  0
   36.4130   23.5000   31.0970 C   0  0  0  0  0  0  0  0  0  0  0  0
   35.6240   22.4720   31.5290 C   0  0  0  0  0  0  0  0  0  0  0  0
   36.0760   21.1410   31.4700 C   0  0  0  0  0  0  0  0  0  0  0  0
   37.3510   20.9670   30.9500 N   0  0  0  0  0  0  0  0  0  0  0  0
   38.1090   22.0140   30.5290 C   0  0  0  0  0  0  0  0  0  0  0  0
   37.6210   23.2900   30.6090 N   0  0  0  0  0  0  0  0  0  0  0  0
   34.6320   22.4490   31.9480 H   0  0  0  0  0  0  0  0  0  0  0  0
   35.5640   20.2440   31.7730 H   0  0  0  0  0  0  0  0  0  0  0  0
   39.0950   21.8070   30.1340 H   0  0  0  0  0  0  0  0  0  0  0  0
  1  4  1  0  0  0  0
  2  1  1  0  0  0  0
  3  1  1  0  0  0  0
  4  8  2  0  0  0  0
  4  5  1  0  0  0  0
  5  6  2  0  0  0  0
  6 10  1  0  0  0  0
  7  6  1  0  0  0  0
  7 11  1  0  0  0  0
  8  7  1  0  0  0  0
  9  5  1  0  0  0  0
 11 18  1  0  0  0  0
 12 11  2  0  0  0  0
 12 14  1  0  0  0  0
 13 12  1  0  0  0  0
 14 16  2  0  0  0  0
 15 14  1  0  0  0  0
 16 17  1  0  0  0  0
 18 17  2  0  0  0  0
 19  1  1  0  0  0  0
 19 21  1  0  0  0  0
 20 19  1  0  0  0  0
 22 19  1  0  0  0  0
 22 23  1  0  0  0  0
 23 28  1  0  0  0  0
 24 23  2  0  0  0  0
 24 29  1  0  0  0  0
 25 24  1  0  0  0  0
 26 27  1  0  0  0  0
 26 25  2  0  0  0  0
 27 22  2  0  0  0  0
 30 26  1  0  0  0  0
M  END
>  <minimizedAffinity>
-4.84129238

$$$$

 OpenBabel03272504013D

 30 32  0  0  0  0  0  0  0  0999 V2000
   37.5380   26.4980   33.1540 C   0  0  0  0  0  0  0  0  0  0  0  0
   36.9070   25.5830   33.0020 H   0  0  0  0  0  0  0  0  0  0  0  0
   37.9820   26.6690   32.1520 H   0  0  0  0  0  0  0  0  0  0  0  0
   36.7210   27.7100   33.3440 C   0  0  0  0  0  0  0  0  0  0  0  0
   36.1630   28.3460   32.2330 C   0  0  0  0  0  0  0  0  0  0  0  0
   35.4730   29.4410   32.6760 C   0  0  0  0  0  0  0  0  0  0  0  0
   35.6070   29.4690   34.0040 N   0  0  0  0  0  0  0  0  0  0  0  0
   36.3410   28.4470   34.3780 N   0  0  0  0  0  0  0  0  0  0  0  0
   36.1970   28.1140   31.1790 H   0  0  0  0  0  0  0  0  0  0  0  0
   34.8880   30.2310   32.2270 H   0  0  0  0  0  0  0  0  0  0  0  0
   35.1090   30.3760   34.9900 C   0  0  0  0  0  0  0  0  0  0  0  0
   35.8750   31.2520   35.7300 C   0  0  0  0  0  0  0  0  0  0  0  0
   36.9310   31.2440   35.5450 H   0  0  0  0  0  0  0  0  0  0  0  0
   35.2350   32.0640   36.6470 C   0  0  0  0  0  0  0  0  0  0  0  0
   35.8370   32.7580   37.2340 H   0  0  0  0  0  0  0  0  0  0  0  0
   33.8570   32.0270   36.8420 C   0  0  0  0  0  3  0  0  0  0  0  0
   33.1450   31.1260   36.0660 C   0  0  0  0  0  3  0  0  0  0  0  0
   33.7710   30.3380   35.1770 N   0  0  0  0  0  0  0  0  0  0  0  0
   38.4600   26.2020   34.2670 C   0  0  0  0  0  0  0  0  0  0  0  0
   38.5960   27.0870   34.9620 H   0  0  0  0  0  0  0  0  0  0  0  0
   39.4940   26.0990   33.8130 H   0  0  0  0  0  0  0  0  0  0  0  0
   38.2250   25.0460   35.0880 C   0  0  0  0  0  0  0  0  0  0  0  0
   38.2430   23.7920   34.5450 C   0  0  0  0  0  0  0  0  0  0  0  0
   38.0130   22.6570   35.3430 C   0  0  0  0  0  0  0  0  0  0  0  0
   37.7750   22.9110   36.6870 N   0  0  0  0  0  0  0  0  0  0  0  0
   37.7660   24.1720   37.1930 C   0  0  0  0  0  0  0  0  0  0  0  0
   37.9950   25.2430   36.3720 N   0  0  0  0  0  0  0  0  0  0  0  0
   38.4100   23.4420   33.5400 H   0  0  0  0  0  0  0  0  0  0  0  0
   37.9980   21.6220   35.0500 H   0  0  0  0  0  0  0  0  0  0  0  0
   37.5740   24.2990   38.2500 H   0  0  0  0  0  0  0  0  0  0  0  0
  1  4  1  0  0  0  0
  1 19  1  0  0  0  0
  2  1  1  0  0  0  0
  3  1  1  0  0  0  0
  4  8  2  0  0  0  0
  5  6  2  0  0  0  0
  5  4  1  0  0  0  0
  6  7  1  0  0  0  0
  7  8  1  0  0  0  0
  7 11  1  0  0  0  0
  9  5  1  0  0  0  0
 10  6  1  0  0  0  0
 11 18  2  0  0  0  0
 11 12  1  0  0  0  0
 12 14  2  0  0  0  0
 13 12  1  0  0  0  0
 14 16  1  0  0  0  0
 14 15  1  0  0  0  0
 17 16  2  0  0  0  0
 18 17  1  0  0  0  0
 19 20  1  0  0  0  0
 19 22  1  0  0  0  0
 21 19  1  0  0  0  0
 22 27  1  0  0  0  0
 23 22  2  0  0  0  0
 23 24  1  0  0  0  0
 24 25  2  0  0  0  0
 25 26  1  0  0  0  0
 26 30  1  0  0  0  0
 27 26  2  0  0  0  0
 28 23  1  0  0  0  0
 29 24  1  0  0  0  0
M  END
>  <minimizedAffinity>
-4.82150555

$$$$

 OpenBabel03272504013D

 30 32  0  0  0  0  0  0  0  0999 V2000
   36.4630   27.1210   32.5620 C   0  0  0  0  0  0  0  0  0  0  0  0
   35.3730   26.8580   32.5700 H   0  0  0  0  0  0  0  0  0  0  0  0
   36.4580   28.2300   32.5820 H   0  0  0  0  0  0  0  0  0  0  0  0
   37.1220   26.7890   33.8380 C   0  0  0  0  0  0  0  0  0  0  0  0
   37.4870   27.8160   34.7120 C   0  0  0  0  0  0  0  0  0  0  0  0
   38.0890   27.2480   35.8020 C   0  0  0  0  0  0  0  0  0  0  0  0
   38.0880   25.9290   35.5980 N   0  0  0  0  0  0  0  0  0  0  0  0
   37.5180   25.6780   34.4420 N   0  0  0  0  0  0  0  0  0  0  0  0
   37.3720   28.8870   34.6510 H   0  0  0  0  0  0  0  0  0  0  0  0
   38.5310   27.6000   36.7230 H   0  0  0  0  0  0  0  0  0  0  0  0
   38.5790   24.8450   36.3900 C   0  0  0  0  0  0  0  0  0  0  0  0
   38.0650   24.4480   37.6070 C   0  0  0  0  0  0  0  0  0  0  0  0
   37.2300   25.0060   37.9830 H   0  0  0  0  0  0  0  0  0  0  0  0
   38.6580   23.3770   38.2480 C   0  0  0  0  0  0  0  0  0  0  0  0
   38.2550   23.0600   39.2100 H   0  0  0  0  0  0  0  0  0  0  0  0
   39.7430   22.6930   37.7070 C   0  0  0  0  0  3  0  0  0  0  0  0
   40.2110   23.1400   36.4810 C   0  0  0  0  0  3  0  0  0  0  0  0
   39.6320   24.1830   35.8630 N   0  0  0  0  0  0  0  0  0  0  0  0
   37.0530   26.4620   31.3810 C   0  0  0  0  0  0  0  0  0  0  0  0
   38.1400   26.7440   31.2270 H   0  0  0  0  0  0  0  0  0  0  0  0
   36.5600   26.9250   30.4710 H   0  0  0  0  0  0  0  0  0  0  0  0
   36.9600   25.0340   31.2510 C   0  0  0  0  0  0  0  0  0  0  0  0
   38.0390   24.3010   30.8410 C   0  0  0  0  0  0  0  0  0  0  0  0
   37.9540   22.9030   30.7100 C   0  0  0  0  0  0  0  0  0  0  0  0
   36.7210   22.3490   31.0230 N   0  0  0  0  0  0  0  0  0  0  0  0
   35.6690   23.1080   31.4280 C   0  0  0  0  0  0  0  0  0  0  0  0
   35.8040   24.4660   31.5390 N   0  0  0  0  0  0  0  0  0  0  0  0
   39.0420   24.5830   30.5680 H   0  0  0  0  0  0  0  0  0  0  0  0
   38.7170   22.2110   30.4010 H   0  0  0  0  0  0  0  0  0  0  0  0
   34.7350   22.6110   31.6560 H   0  0  0  0  0  0  0  0  0  0  0  0
  1  2  1  0  0  0  0
  1  3  1  0  0  0  0
  1  4  1  0  0  0  0
  4  8  2  0  0  0  0
  4  5  1  0  0  0  0
  5  6  2  0  0  0  0
  6 10  1  0  0  0  0
  7  6  1  0  0  0  0
  7 11  1  0  0  0  0
  8  7  1  0  0  0  0
  9  5  1  0  0  0  0
 11 12  1  0  0  0  0
 12 13  1  0  0  0  0
 12 14  2  0  0  0  0
 14 15  1  0  0  0  0
 16 14  1  0  0  0  0
 17 16  2  0  0  0  0
 18 11  2  0  0  0  0
 18 17  1  0  0  0  0
 19  1  1  0  0  0  0
 20 19  1  0  0  0  0
 21 19  1  0  0  0  0
 22 19  1  0  0  0  0
 22 27  1  0  0  0  0
 23 22  2  0  0  0  0
 24 23  1  0  0  0  0
 24 25  2  0  0  0  0
 25 26  1  0  0  0  0
 26 27  2  0  0  0  0
 26 30  1  0  0  0  0
 28 23  1  0  0  0  0
 29 24  1  0  0  0  0
M  END
>  <minimizedAffinity>
-4.82136011

$$$$

 OpenBabel03272504013D

 30 32  0  0  0  0  0  0  0  0999 V2000
   38.2130   26.0220   33.5450 C   0  0  0  0  0  0  0  0  0  0  0  0
   39.3070   25.8350   33.3790 H   0  0  0  0  0  0  0  0  0  0  0  0
   38.0300   26.9650   32.9890 H   0  0  0  0  0  0  0  0  0  0  0  0
   37.3690   25.0600   32.8130 C   0  0  0  0  0  0  0  0  0  0  0  0
   36.3730   25.5310   31.9550 C   0  0  0  0  0  0  0  0  0  0  0  0
   35.7310   24.4480   31.4200 C   0  0  0  0  0  0  0  0  0  0  0  0
   36.3140   23.3620   31.9330 N   0  0  0  0  0  0  0  0  0  0  0  0
   37.2720   23.7400   32.7480 N   0  0  0  0  0  0  0  0  0  0  0  0
   36.0710   26.5310   31.6840 H   0  0  0  0  0  0  0  0  0  0  0  0
   34.9180   24.2840   30.7270 H   0  0  0  0  0  0  0  0  0  0  0  0
   36.0650   21.9690   31.7390 C   0  0  0  0  0  0  0  0  0  0  0  0
   35.0280   21.2560   32.3040 C   0  0  0  0  0  0  0  0  0  0  0  0
   34.3600   21.8010   32.9410 H   0  0  0  0  0  0  0  0  0  0  0  0
   34.9270   19.9090   32.0130 C   0  0  0  0  0  0  0  0  0  0  0  0
   34.1090   19.3420   32.4580 H   0  0  0  0  0  0  0  0  0  0  0  0
   35.8290   19.2580   31.1760 C   0  0  0  0  0  3  0  0  0  0  0  0
   36.8470   20.0300   30.6400 C   0  0  0  0  0  3  0  0  0  0  0  0
   36.9410   21.3390   30.9250 N   0  0  0  0  0  0  0  0  0  0  0  0
   37.9980   26.0370   35.0040 C   0  0  0  0  0  0  0  0  0  0  0  0
   36.9080   26.1810   35.2790 H   0  0  0  0  0  0  0  0  0  0  0  0
   38.4660   26.9950   35.3910 H   0  0  0  0  0  0  0  0  0  0  0  0
   38.5000   24.9520   35.8020 C   0  0  0  0  0  0  0  0  0  0  0  0
   37.7820   24.4830   36.8660 C   0  0  0  0  0  0  0  0  0  0  0  0
   38.2680   23.4220   37.6520 C   0  0  0  0  0  0  0  0  0  0  0  0
   39.4980   22.9080   37.2650 N   0  0  0  0  0  0  0  0  0  0  0  0
   40.1840   23.3990   36.2000 C   0  0  0  0  0  0  0  0  0  0  0  0
   39.6660   24.4330   35.4680 N   0  0  0  0  0  0  0  0  0  0  0  0
   36.8320   24.7730   37.2810 H   0  0  0  0  0  0  0  0  0  0  0  0
   37.8120   22.9590   38.5100 H   0  0  0  0  0  0  0  0  0  0  0  0
   41.1370   22.9510   35.9530 H   0  0  0  0  0  0  0  0  0  0  0  0
  1 19  1  0  0  0  0
  2  1  1  0  0  0  0
  3  1  1  0  0  0  0
  4  1  1  0  0  0  0
  5  4  1  0  0  0  0
  6  7  1  0  0  0  0
  6  5  2  0  0  0  0
  7  8  1  0  0  0  0
  8  4  2  0  0  0  0
  9  5  1  0  0  0  0
 10  6  1  0  0  0  0
 11  7  1  0  0  0  0
 11 12  1  0  0  0  0
 12 13  1  0  0  0  0
 14 12  2  0  0  0  0
 14 15  1  0  0  0  0
 16 14  1  0  0  0  0
 17 18  1  0  0  0  0
 17 16  2  0  0  0  0
 18 11  2  0  0  0  0
 19 20  1  0  0  0  0
 19 21  1  0  0  0  0
 19 22  1  0  0  0  0
 22 23  1  0  0  0  0
 23 28  1  0  0  0  0
 23 24  2  0  0  0  0
 24 29  1  0  0  0  0
 25 24  1  0  0  0  0
 26 25  2  0  0  0  0
 27 22  2  0  0  0  0
 27 26  1  0  0  0  0
 30 26  1  0  0  0  0
M  END
>  <minimizedAffinity>
-4.78431892

$$$$

 OpenBabel03272504013D

 30 32  0  0  0  0  0  0  0  0999 V2000
   36.6060   26.6870   32.3080 C   0  0  0  0  0  0  0  0  0  0  0  0
   36.9800   25.9460   31.5530 H   0  0  0  0  0  0  0  0  0  0  0  0
   35.5460   26.3940   32.4470 H   0  0  0  0  0  0  0  0  0  0  0  0
   37.1740   26.4470   33.6480 C   0  0  0  0  0  0  0  0  0  0  0  0
   37.3330   27.5180   34.5300 C   0  0  0  0  0  0  0  0  0  0  0  0
   37.8880   27.0350   35.6830 C   0  0  0  0  0  0  0  0  0  0  0  0
   38.0590   25.7230   35.5080 N   0  0  0  0  0  0  0  0  0  0  0  0
   37.6350   25.3950   34.3100 N   0  0  0  0  0  0  0  0  0  0  0  0
   37.1010   28.5680   34.4360 H   0  0  0  0  0  0  0  0  0  0  0  0
   38.1970   27.4460   36.6340 H   0  0  0  0  0  0  0  0  0  0  0  0
   38.5930   24.7120   36.3660 C   0  0  0  0  0  0  0  0  0  0  0  0
   38.1160   24.3930   37.6200 C   0  0  0  0  0  0  0  0  0  0  0  0
   37.2750   24.9580   37.9730 H   0  0  0  0  0  0  0  0  0  0  0  0
   38.7470   23.3850   38.3220 C   0  0  0  0  0  0  0  0  0  0  0  0
   38.3730   23.1310   39.3140 H   0  0  0  0  0  0  0  0  0  0  0  0
   39.8380   22.6890   37.8080 C   0  0  0  0  0  3  0  0  0  0  0  0
   40.2680   23.0560   36.5430 C   0  0  0  0  0  3  0  0  0  0  0  0
   39.6510   24.0360   35.8640 N   0  0  0  0  0  0  0  0  0  0  0  0
   36.8780   28.0290   31.7620 C   0  0  0  0  0  0  0  0  0  0  0  0
   37.3820   28.7090   32.5160 H   0  0  0  0  0  0  0  0  0  0  0  0
   35.8720   28.5340   31.6250 H   0  0  0  0  0  0  0  0  0  0  0  0
   37.6010   28.1540   30.5260 C   0  0  0  0  0  0  0  0  0  0  0  0
   38.7390   27.4290   30.3090 C   0  0  0  0  0  0  0  0  0  0  0  0
   39.4520   27.5480   29.1020 C   0  0  0  0  0  0  0  0  0  0  0  0
   38.9180   28.4360   28.1790 N   0  0  0  0  0  0  0  0  0  0  0  0
   37.7830   29.1410   28.4280 C   0  0  0  0  0  0  0  0  0  0  0  0
   37.1270   28.9890   29.6200 N   0  0  0  0  0  0  0  0  0  0  0  0
   39.2660   26.7130   30.9170 H   0  0  0  0  0  0  0  0  0  0  0  0
   40.3530   27.0420   28.8020 H   0  0  0  0  0  0  0  0  0  0  0  0
   37.4220   29.8170   27.6640 H   0  0  0  0  0  0  0  0  0  0  0  0
  1  3  1  0  0  0  0
  1  4  1  0  0  0  0
  2  1  1  0  0  0  0
  4  8  2  0  0  0  0
  4  5  1  0  0  0  0
  5  6  2  0  0  0  0
  6 10  1  0  0  0  0
  7  6  1  0  0  0  0
  7 11  1  0  0  0  0
  8  7  1  0  0  0  0
  9  5  1  0  0  0  0
 11 12  1  0  0  0  0
 12 13  1  0  0  0  0
 12 14  2  0  0  0  0
 14 15  1  0  0  0  0
 16 14  1  0  0  0  0
 17 16  2  0  0  0  0
 18 11  2  0  0  0  0
 18 17  1  0  0  0  0
 19  1  1  0  0  0  0
 19 20  1  0  0  0  0
 21 19  1  0  0  0  0
 22 19  1  0  0  0  0
 23 22  1  0  0  0  0
 23 28  1  0  0  0  0
 24 23  2  0  0  0  0
 25 26  2  0  0  0  0
 25 24  1  0  0  0  0
 26 27  1  0  0  0  0
 27 22  2  0  0  0  0
 29 24  1  0  0  0  0
 30 26  1  0  0  0  0
M  END
>  <minimizedAffinity>
-4.7701335

$$$$
