
 OpenBabel03272505023D

 28 30  0  0  0  0  0  0  0  0999 V2000
   37.4740   31.2320   46.2940 Cl  0  0  0  0  0  0  0  0  0  0  0  0
   38.3440   32.3050   47.3720 C   0  0  0  0  0  0  0  0  0  0  0  0
   38.1750   32.1270   48.7120 C   0  0  0  0  0  0  0  0  0  0  0  0
   38.8950   33.0140   49.5110 C   0  0  0  0  0  0  0  0  0  0  0  0
   39.7070   33.9850   48.9550 C   0  0  0  0  0  0  0  0  0  0  0  0
   39.8300   34.1060   47.5940 C   0  0  0  0  0  0  0  0  0  0  0  0
   39.1290   33.2420   46.7880 C   0  0  0  0  0  0  0  0  0  0  0  0
   38.8390   32.9660   50.5900 H   0  0  0  0  0  0  0  0  0  0  0  0
   40.2570   34.6600   49.5970 H   0  0  0  0  0  0  0  0  0  0  0  0
   40.4800   34.8850   47.2100 H   0  0  0  0  0  0  0  0  0  0  0  0
   37.8770   30.0050   49.9830 C   0  0  0  0  0  0  0  0  0  0  0  0
   37.3270   31.1150   49.3330 C   0  0  0  0  0  0  0  0  0  0  0  0
   35.9330   31.2430   49.2850 C   0  0  0  0  0  0  0  0  0  0  0  0
   35.1950   30.2710   49.8800 N   0  0  0  0  0  0  0  0  0  0  0  0
   35.7440   29.2150   50.4980 C   0  0  0  0  0  0  0  0  0  0  0  0
   37.0810   29.0770   50.5530 N   0  0  0  0  0  0  0  0  0  0  0  0
   38.9450   29.8880   50.0320 H   0  0  0  0  0  0  0  0  0  0  0  0
   35.5160   32.1060   48.7790 H   0  0  0  0  0  0  0  0  0  0  0  0
   34.9900   28.5660   50.9010 H   0  0  0  0  0  0  0  0  0  0  0  0
   39.2660   33.3820   45.4110 O   0  0  0  0  0  0  0  0  0  0  0  0
   39.8200   32.3110   44.7280 C   0  0  0  0  0  0  0  0  0  0  0  0
   39.3400   32.2790   43.4150 C   0  0  0  0  0  0  0  0  0  0  0  0
   38.6330   32.9710   42.9500 H   0  0  0  0  0  0  0  0  0  0  0  0
   39.7570   31.2850   42.5270 C   0  0  0  0  0  0  0  0  0  0  0  0
   39.4190   31.2160   41.5120 H   0  0  0  0  0  0  0  0  0  0  0  0
   40.6640   30.3280   42.9850 C   0  0  0  0  0  3  0  0  0  0  0  0
   41.0980   30.4170   44.2920 C   0  0  0  0  0  3  0  0  0  0  0  0
   40.6850   31.3820   45.1320 N   0  0  0  0  0  0  0  0  0  0  0  0
  1  2  1  0  0  0  0
  2  3  1  0  0  0  0
  3 12  1  0  0  0  0
  3  4  2  0  0  0  0
  4  8  1  0  0  0  0
  5  4  1  0  0  0  0
  5  9  1  0  0  0  0
  6  5  2  0  0  0  0
  7  2  2  0  0  0  0
  7  6  1  0  0  0  0
 10  6  1  0  0  0  0
 11 17  1  0  0  0  0
 11 16  1  0  0  0  0
 12 11  2  0  0  0  0
 13 12  1  0  0  0  0
 13 14  2  0  0  0  0
 14 15  1  0  0  0  0
 15 16  2  0  0  0  0
 15 19  1  0  0  0  0
 18 13  1  0  0  0  0
 20  7  1  0  0  0  0
 21 28  1  0  0  0  0
 21 20  1  0  0  0  0
 22 21  2  0  0  0  0
 23 22  1  0  0  0  0
 24 26  2  0  0  0  0
 24 22  1  0  0  0  0
 25 24  1  0  0  0  0
 26 27  1  0  0  0  0
 27 28  2  0  0  0  0
M  END
>  <minimizedAffinity>
-4.7701869

>  <minimizedRMSD>
1.42792094

$$$$
