
 OpenBabel03272508083D

 23 24  0  0  0  0  0  0  0  0999 V2000
   39.0230   32.7510   48.1080 O   0  0  0  0  0  0  0  0  0  0  0  0
   38.6360   31.7050   47.1020 P   0  0  2  0  0  0  0  0  0  0  0  0
   37.5870   32.4150   45.9600 O   0  0  0  0  0  0  0  0  0  0  0  0
   37.6940   33.3970   46.0010 H   0  0  0  0  0  0  0  0  0  0  0  0
   37.9690   30.3150   47.7670 O   0  0  0  0  0  0  0  0  0  0  0  0
   37.3190   30.1990   51.4020 C   0  0  0  0  0  0  0  0  0  0  0  0
   38.0190   30.5190   50.2360 C   0  0  0  0  0  0  0  0  0  0  0  0
   37.4780   30.1210   49.0110 C   0  0  0  0  0  0  0  0  0  0  0  0
   36.2940   29.4410   49.0200 N   0  0  0  0  0  0  0  0  0  0  0  0
   35.6530   29.1540   50.1770 C   0  0  0  0  0  0  0  0  0  0  0  0
   36.1580   29.5290   51.3610 N   0  0  0  0  0  0  0  0  0  0  0  0
   37.8530   30.5690   52.2710 H   0  0  0  0  0  0  0  0  0  0  0  0
   38.9360   31.0400   50.1260 H   0  0  0  0  0  0  0  0  0  0  0  0
   34.7070   28.6110   50.1920 H   0  0  0  0  0  0  0  0  0  0  0  0
   40.0600   31.2960   46.2660 O   0  0  0  0  0  0  0  0  0  0  0  0
   39.9500   30.8870   44.9430 C   0  0  0  0  0  0  0  0  0  0  0  0
   40.5710   31.4050   43.8420 C   0  0  0  0  0  0  0  0  0  0  0  0
   41.2210   32.2350   44.0620 H   0  0  0  0  0  0  0  0  0  0  0  0
   40.3550   30.8790   42.5840 C   0  0  0  0  0  0  0  0  0  0  0  0
   40.8690   31.3240   41.7410 H   0  0  0  0  0  0  0  0  0  0  0  0
   39.4810   29.8110   42.5100 C   0  0  0  0  0  3  0  0  0  0  0  0
   38.8500   29.2810   43.6160 C   0  0  0  0  0  3  0  0  0  0  0  0
   39.0940   29.8300   44.8290 N   0  0  0  0  0  0  0  0  0  0  0  0
  2  5  1  0  0  0  0
  2  1  2  1  0  0  0
  3  4  1  0  0  0  0
  3  2  1  0  0  0  0
  5  8  1  0  0  0  0
  6 12  1  0  0  0  0
  7  6  2  0  0  0  0
  8  9  2  0  0  0  0
  8  7  1  0  0  0  0
  9 10  1  0  0  0  0
 10 14  1  0  0  0  0
 10 11  2  0  0  0  0
 11  6  1  0  0  0  0
 13  7  1  0  0  0  0
 15  2  1  0  0  0  0
 16 15  1  0  0  0  0
 17 18  1  0  0  0  0
 17 16  2  0  0  0  0
 19 17  1  0  0  0  0
 20 19  1  0  0  0  0
 21 19  2  0  0  0  0
 21 22  1  0  0  0  0
 22 23  2  0  0  0  0
 23 16  1  0  0  0  0
M  END
>  <minimizedAffinity>
-5.30070114

>  <minimizedRMSD>
1.08289421

$$$$
