
 OpenBabel03272507283D

 40 42  0  0  1  0  0  0  0  0999 V2000
   34.4790   29.5650   46.4720 C   0  0  0  0  0  0  0  0  0  0  0  0
   35.4290   30.3390   45.7760 C   0  0  0  0  0  0  0  0  0  0  0  0
   35.8190   29.8770   44.5180 C   0  0  0  0  0  0  0  0  0  0  0  0
   35.2810   28.7400   44.0410 N   0  0  0  0  0  0  0  0  0  0  0  0
   34.3750   28.0260   44.7390 C   0  0  0  0  0  0  0  0  0  0  0  0
   33.9800   28.4360   45.9390 N   0  0  0  0  0  0  0  0  0  0  0  0
   36.7570   30.5760   43.7660 N   0  0  0  0  0  0  0  0  0  0  0  0
   36.9520   32.0510   43.7770 C   0  0  0  0  0  0  0  0  0  0  0  0
   37.8410   32.4000   42.6450 C   0  0  0  0  0  0  0  0  0  0  0  0
   37.8060   31.2160   41.7960 C   0  0  0  0  0  0  0  0  0  0  0  0
   37.7280   30.1420   42.8140 C   0  0  2  0  0  0  0  0  0  0  0  0
   34.2510   30.0220   47.4410 H   0  0  0  0  0  0  0  0  0  0  0  0
   35.8690   31.2540   46.1450 H   0  0  0  0  0  0  0  0  0  0  0  0
   33.9210   27.1210   44.4040 H   0  0  0  0  0  0  0  0  0  0  0  0
   35.8630   32.3690   43.5320 H   0  0  0  0  0  0  0  0  0  0  0  0
   37.0990   32.5010   44.7330 H   0  0  0  0  0  0  0  0  0  0  0  0
   37.1530   33.1430   42.0190 H   0  0  0  0  0  0  0  0  0  0  0  0
   38.6790   33.0360   42.7470 H   0  0  0  0  0  0  0  0  0  0  0  0
   37.0060   31.1630   41.0330 H   0  0  0  0  0  0  0  0  0  0  0  0
   38.7590   31.1030   41.2340 H   0  0  0  0  0  0  0  0  0  0  0  0
   37.4000   28.8070   42.1390 C   0  0  0  0  0  0  0  0  0  0  0  0
   36.0870   28.8470   41.7240 F   0  0  0  0  0  0  0  0  0  0  0  0
   37.5290   27.7050   42.9300 F   0  0  0  0  0  0  0  0  0  0  0  0
   38.1710   28.7430   40.9990 F   0  0  0  0  0  0  0  0  0  0  0  0
   38.9650   29.9350   43.5130 C   0  0  2  0  0  0  0  0  0  0  0  0
   38.9850   29.0130   44.0500 H   0  0  0  0  0  0  0  0  0  0  0  0
   39.2890   30.8610   44.7620 C   0  0  0  0  0  0  0  0  0  0  0  0
   40.0390   32.0440   44.5690 C   0  0  0  0  0  0  0  0  0  0  0  0
   40.4210   32.1800   43.5440 H   0  0  0  0  0  0  0  0  0  0  0  0
   40.3230   32.9900   45.4940 C   0  0  0  0  0  0  0  0  0  0  0  0
   40.9100   33.8580   45.2320 H   0  0  0  0  0  0  0  0  0  0  0  0
   39.8060   32.7320   46.7410 C   0  0  0  0  0  0  0  0  0  0  0  0
   39.0730   31.5900   46.9550 C   0  0  0  0  0  0  0  0  0  0  0  0
   38.8190   30.6850   46.0100 N   0  0  0  0  0  0  0  0  0  0  0  0
   39.9070   30.2590   42.7430 O   0  0  0  0  0  0  0  0  0  0  0  0
   40.9960   29.7230   42.1710 C   0  0  0  0  0  0  0  0  0  0  0  0
   41.2010   30.1870   41.0480 O   0  0  0  0  0  0  0  0  0  0  0  0
   42.0910   28.8230   42.2570 N   0  0  0  0  0  0  0  0  0  0  0  0
   42.0590   27.8380   41.9160 H   0  0  0  0  0  0  0  0  0  0  0  0
   42.9650   29.2020   42.6910 H   0  0  0  0  0  0  0  0  0  0  0  0
  1 12  1  0  0  0  0
  2 13  1  0  0  0  0
  2  1  2  0  0  0  0
  3  2  1  0  0  0  0
  4  3  2  0  0  0  0
  4  5  1  0  0  0  0
  5  6  2  0  0  0  0
  6  1  1  0  0  0  0
  7  8  1  0  0  0  0
  7  3  1  0  0  0  0
  8 16  1  0  0  0  0
  9 18  1  0  0  0  0
  9  8  1  0  0  0  0
 10  9  1  0  0  0  0
 10 11  1  0  0  0  0
 11 21  1  6  0  0  0
 11 25  1  0  0  0  0
 11  7  1  0  0  0  0
 14  5  1  0  0  0  0
 15  8  1  0  0  0  0
 17  9  1  0  0  0  0
 19 10  1  0  0  0  0
 20 10  1  0  0  0  0
 21 23  1  0  0  0  0
 22 21  1  0  0  0  0
 24 21  1  0  0  0  0
 25 26  1  1  0  0  0
 25 27  1  0  0  0  0
 27 34  1  0  0  0  0
 28 27  2  0  0  0  0
 28 30  1  0  0  0  0
 29 28  1  0  0  0  0
 30 32  2  0  0  0  0
 31 30  1  0  0  0  0
 32 33  1  0  0  0  0
 34 33  2  0  0  0  0
 35 25  1  0  0  0  0
 36 38  1  0  0  0  0
 36 35  1  0  0  0  0
 37 36  2  0  0  0  0
 38 40  1  0  0  0  0
 39 38  1  0  0  0  0
M  END
>  <minimizedAffinity>
-4.8243885

>  <minimizedRMSD>
2.91051531

$$$$
