
 OpenBabel03272504223D

 38 40  0  0  1  0  0  0  0  0999 V2000
   38.8270   32.3930   47.8330 C   0  0  2  0  0  0  0  0  0  0  0  0
   38.1890   31.3670   48.7340 C   0  0  1  0  0  0  0  0  0  0  0  0
   38.7290   31.9010   50.0690 C   0  0  0  0  0  0  0  0  0  0  0  0
   38.4060   33.2410   49.9790 O   0  0  0  0  0  0  0  0  0  0  0  0
   38.6370   33.6560   48.6910 C   0  0  0  0  0  0  0  0  0  0  0  0
   39.9030   32.2210   47.6600 H   0  0  0  0  0  0  0  0  0  0  0  0
   38.4970   30.3400   48.5460 H   0  0  0  0  0  0  0  0  0  0  0  0
   39.8050   31.7190   50.1340 H   0  0  0  0  0  0  0  0  0  0  0  0
   38.2480   31.4280   50.9330 H   0  0  0  0  0  0  0  0  0  0  0  0
   37.8140   34.2810   48.2870 H   0  0  0  0  0  0  0  0  0  0  0  0
   39.5420   34.2900   48.6800 H   0  0  0  0  0  0  0  0  0  0  0  0
   36.8250   31.5820   48.6870 O   0  0  0  0  0  0  0  0  0  0  0  0
   35.8600   29.8540   47.0020 O   0  0  0  0  0  0  0  0  0  0  0  0
   35.9460   30.1670   48.4720 P   0  0  1  0  0  0  0  0  0  0  0  0
   36.7440   28.8650   49.2450 O   0  0  0  0  0  0  0  0  0  0  0  0
   37.1090   29.2700   50.0780 H   0  0  0  0  0  0  0  0  0  0  0  0
   34.3880   30.3370   49.1340 O   0  0  0  0  0  0  0  0  0  0  0  0
   34.1220   29.1820   49.8440 C   0  0  0  0  0  0  0  0  0  0  0  0
   33.5550   29.5130   50.7600 H   0  0  0  0  0  0  0  0  0  0  0  0
   35.0400   28.6520   50.1670 H   0  0  0  0  0  0  0  0  0  0  0  0
   33.2570   28.2280   49.1140 C   0  0  0  0  0  0  0  0  0  0  0  0
   33.8860   27.3380   48.2770 C   0  0  0  0  0  0  0  0  0  0  0  0
   33.1260   26.4100   47.5590 C   0  0  0  0  0  0  0  0  0  0  0  0
   31.7740   26.4500   47.7380 N   0  0  0  0  0  0  0  0  0  0  0  0
   31.1750   27.3360   48.5650 C   0  0  0  0  0  0  0  0  0  0  0  0
   31.9200   28.2270   49.2540 N   0  0  0  0  0  0  0  0  0  0  0  0
   34.9370   27.2290   48.0710 H   0  0  0  0  0  0  0  0  0  0  0  0
   33.5360   25.6730   46.8790 H   0  0  0  0  0  0  0  0  0  0  0  0
   30.1080   27.3640   48.7040 H   0  0  0  0  0  0  0  0  0  0  0  0
   38.0980   32.4430   46.6500 O   0  0  0  0  0  0  0  0  0  0  0  0
   38.5940   32.0620   45.4020 C   0  0  0  0  0  0  0  0  0  0  0  0
   39.3730   33.0050   44.7640 C   0  0  0  0  0  0  0  0  0  0  0  0
   39.5870   33.9800   45.2010 H   0  0  0  0  0  0  0  0  0  0  0  0
   39.9010   32.7040   43.5260 C   0  0  0  0  0  0  0  0  0  0  0  0
   40.5240   33.3850   42.9500 H   0  0  0  0  0  0  0  0  0  0  0  0
   39.6270   31.4710   42.9780 C   0  0  0  0  0  3  0  0  0  0  0  0
   38.8370   30.5170   43.6280 C   0  0  0  0  0  3  0  0  0  0  0  0
   38.3370   30.8500   44.8400 N   0  0  0  0  0  0  0  0  0  0  0  0
  1  6  1  6  0  0  0
  1  5  1  0  0  0  0
  1  2  1  0  0  0  0
  2  7  1  6  0  0  0
  2  3  1  0  0  0  0
  3  8  1  0  0  0  0
  3  9  1  0  0  0  0
  4  3  1  0  0  0  0
  5  4  1  0  0  0  0
 10  5  1  0  0  0  0
 11  5  1  0  0  0  0
 12  2  1  0  0  0  0
 14 13  2  6  0  0  0
 14 12  1  0  0  0  0
 14 17  1  0  0  0  0
 14 15  1  0  0  0  0
 15 16  1  0  0  0  0
 17 18  1  0  0  0  0
 18 20  1  0  0  0  0
 18 19  1  0  0  0  0
 21 26  1  0  0  0  0
 21 18  1  0  0  0  0
 22 21  2  0  0  0  0
 23 24  2  0  0  0  0
 23 22  1  0  0  0  0
 24 25  1  0  0  0  0
 25 29  1  0  0  0  0
 25 26  2  0  0  0  0
 27 22  1  0  0  0  0
 28 23  1  0  0  0  0
 30  1  1  0  0  0  0
 31 30  1  0  0  0  0
 32 33  1  0  0  0  0
 32 31  2  0  0  0  0
 34 32  1  0  0  0  0
 35 34  1  0  0  0  0
 36 34  2  0  0  0  0
 36 37  1  0  0  0  0
 37 38  2  0  0  0  0
 38 31  1  0  0  0  0
M  END
>  <minimizedAffinity>
-4.70173168

>  <minimizedRMSD>
0.287395447

$$$$
