
 OpenBabel03272506403D

 18 19  0  0  0  0  0  0  0  0999 V2000
   36.8400   30.2390   50.7170 C   0  0  0  0  0  0  0  0  0  0  0  0
   38.0490   30.6750   50.1800 C   0  0  0  0  0  0  0  0  0  0  0  0
   38.0870   31.0060   48.8140 C   0  0  0  0  0  0  0  0  0  0  0  0
   36.9330   30.8810   48.0910 N   0  0  0  0  0  0  0  0  0  0  0  0
   35.7950   30.4580   48.6490 C   0  0  0  0  0  0  0  0  0  0  0  0
   35.7350   30.1370   49.9500 N   0  0  0  0  0  0  0  0  0  0  0  0
   36.8500   29.9940   51.7700 H   0  0  0  0  0  0  0  0  0  0  0  0
   38.9780   30.7950   50.6840 H   0  0  0  0  0  0  0  0  0  0  0  0
   38.9190   31.3570   48.2300 H   0  0  0  0  0  0  0  0  0  0  0  0
   34.2810   30.2910   47.7080 S   0  0  0  0  0  0  0  0  0  0  0  0
   34.0690   28.5720   47.2150 C   0  0  0  0  0  0  0  0  0  0  0  0
   33.9460   27.5490   48.1330 C   0  0  0  0  0  0  0  0  0  0  0  0
   33.9740   27.7690   49.1850 H   0  0  0  0  0  0  0  0  0  0  0  0
   33.7870   26.2670   47.6080 C   0  0  0  0  0  0  0  0  0  0  0  0
   33.6870   25.4490   48.3110 H   0  0  0  0  0  0  0  0  0  0  0  0
   33.7640   26.1020   46.2200 C   0  0  0  0  0  3  0  0  0  0  0  0
   33.8910   27.1550   45.3430 C   0  0  0  0  0  3  0  0  0  0  0  0
   34.0450   28.4070   45.8640 N   0  0  0  0  0  0  0  0  0  0  0  0
  1  7  1  0  0  0  0
  2  8  1  0  0  0  0
  2  1  1  0  0  0  0
  3  2  2  0  0  0  0
  4  5  2  0  0  0  0
  4  3  1  0  0  0  0
  5  6  1  0  0  0  0
  6  1  2  0  0  0  0
  9  3  1  0  0  0  0
 10  5  1  0  0  0  0
 11 10  1  0  0  0  0
 11 12  1  0  0  0  0
 12 13  1  0  0  0  0
 14 12  2  0  0  0  0
 14 15  1  0  0  0  0
 16 14  1  0  0  0  0
 17 18  1  0  0  0  0
 17 16  2  0  0  0  0
 18 11  2  0  0  0  0
M  END
>  <minimizedAffinity>
-3.75319123

>  <minimizedRMSD>
2.55061364

$$$$
