
 OpenBabel03272504213D

 38 40  0  0  1  0  0  0  0  0999 V2000
   38.8010   32.3990   47.8400 C   0  0  2  0  0  0  0  0  0  0  0  0
   38.1850   31.3680   48.7510 C   0  0  1  0  0  0  0  0  0  0  0  0
   38.7490   31.9010   50.0770 C   0  0  0  0  0  0  0  0  0  0  0  0
   38.4180   33.2400   49.9960 O   0  0  0  0  0  0  0  0  0  0  0  0
   38.6220   33.6590   48.7060 C   0  0  0  0  0  0  0  0  0  0  0  0
   39.8740   32.2320   47.6460 H   0  0  0  0  0  0  0  0  0  0  0  0
   38.4950   30.3420   48.5540 H   0  0  0  0  0  0  0  0  0  0  0  0
   39.8270   31.7240   50.1200 H   0  0  0  0  0  0  0  0  0  0  0  0
   38.2880   31.4240   50.9490 H   0  0  0  0  0  0  0  0  0  0  0  0
   37.7880   34.2810   48.3200 H   0  0  0  0  0  0  0  0  0  0  0  0
   39.5240   34.2980   48.6780 H   0  0  0  0  0  0  0  0  0  0  0  0
   36.8200   31.5770   48.7320 O   0  0  0  0  0  0  0  0  0  0  0  0
   35.8780   29.8600   47.0220 O   0  0  0  0  0  0  0  0  0  0  0  0
   35.9440   30.1620   48.4960 P   0  0  1  0  0  0  0  0  0  0  0  0
   36.7340   28.8560   49.2690 O   0  0  0  0  0  0  0  0  0  0  0  0
   37.0880   29.2550   50.1100 H   0  0  0  0  0  0  0  0  0  0  0  0
   34.3780   30.3270   49.1390 O   0  0  0  0  0  0  0  0  0  0  0  0
   34.1080   29.1720   49.8470 C   0  0  0  0  0  0  0  0  0  0  0  0
   33.5360   29.5020   50.7600 H   0  0  0  0  0  0  0  0  0  0  0  0
   35.0240   28.6420   50.1740 H   0  0  0  0  0  0  0  0  0  0  0  0
   33.2470   28.2180   49.1100 C   0  0  0  0  0  0  0  0  0  0  0  0
   33.8800   27.3360   48.2690 C   0  0  0  0  0  0  0  0  0  0  0  0
   33.1240   26.4090   47.5450 C   0  0  0  0  0  0  0  0  0  0  0  0
   31.7710   26.4420   47.7250 N   0  0  0  0  0  0  0  0  0  0  0  0
   31.1690   27.3200   48.5570 C   0  0  0  0  0  0  0  0  0  0  0  0
   31.9100   28.2100   49.2510 N   0  0  0  0  0  0  0  0  0  0  0  0
   34.9310   27.2320   48.0610 H   0  0  0  0  0  0  0  0  0  0  0  0
   33.5370   25.6770   46.8600 H   0  0  0  0  0  0  0  0  0  0  0  0
   30.1020   27.3430   48.6960 H   0  0  0  0  0  0  0  0  0  0  0  0
   38.0480   32.4480   46.6730 O   0  0  0  0  0  0  0  0  0  0  0  0
   38.5510   32.1770   45.3990 C   0  0  0  0  0  0  0  0  0  0  0  0
   39.6000   32.9770   44.9960 C   0  0  0  0  0  0  0  0  0  0  0  0
   40.0080   33.7680   45.6260 H   0  0  0  0  0  0  0  0  0  0  0  0
   40.1530   32.7720   43.7500 C   0  0  0  0  0  0  0  0  0  0  0  0
   40.9820   33.3540   43.3490 H   0  0  0  0  0  0  0  0  0  0  0  0
   39.6340   31.7720   42.9580 C   0  0  0  0  0  3  0  0  0  0  0  0
   38.5710   30.9610   43.3710 C   0  0  0  0  0  3  0  0  0  0  0  0
   38.0560   31.1950   44.5990 N   0  0  0  0  0  0  0  0  0  0  0  0
  1  6  1  6  0  0  0
  1  5  1  0  0  0  0
  1  2  1  0  0  0  0
  2  7  1  6  0  0  0
  2  3  1  0  0  0  0
  3  8  1  0  0  0  0
  3  9  1  0  0  0  0
  4  3  1  0  0  0  0
  5  4  1  0  0  0  0
 10  5  1  0  0  0  0
 11  5  1  0  0  0  0
 12  2  1  0  0  0  0
 14 13  2  6  0  0  0
 14 12  1  0  0  0  0
 14 17  1  0  0  0  0
 14 15  1  0  0  0  0
 15 16  1  0  0  0  0
 17 18  1  0  0  0  0
 18 20  1  0  0  0  0
 18 19  1  0  0  0  0
 21 26  1  0  0  0  0
 21 18  1  0  0  0  0
 22 21  2  0  0  0  0
 23 24  2  0  0  0  0
 23 22  1  0  0  0  0
 24 25  1  0  0  0  0
 25 29  1  0  0  0  0
 25 26  2  0  0  0  0
 27 22  1  0  0  0  0
 28 23  1  0  0  0  0
 30  1  1  0  0  0  0
 31 30  1  0  0  0  0
 32 31  1  0  0  0  0
 32 33  1  0  0  0  0
 34 32  2  0  0  0  0
 35 34  1  0  0  0  0
 36 37  2  0  0  0  0
 36 34  1  0  0  0  0
 37 38  1  0  0  0  0
 38 31  2  0  0  0  0
M  END
>  <minimizedAffinity>
-4.68959904

>  <minimizedRMSD>
0.188786685

$$$$
