
 OpenBabel03272507283D

 40 42  0  0  1  0  0  0  0  0999 V2000
   37.0490   29.9480   49.0580 C   0  0  0  0  0  0  0  0  0  0  0  0
   37.6450   30.5190   47.9160 C   0  0  0  0  0  0  0  0  0  0  0  0
   36.8560   30.6010   46.7670 C   0  0  0  0  0  0  0  0  0  0  0  0
   35.5930   30.1410   46.8050 N   0  0  0  0  0  0  0  0  0  0  0  0
   35.0580   29.6000   47.9190 C   0  0  0  0  0  0  0  0  0  0  0  0
   35.7790   29.5060   49.0300 N   0  0  0  0  0  0  0  0  0  0  0  0
   37.3680   31.1430   45.5930 N   0  0  0  0  0  0  0  0  0  0  0  0
   38.3870   32.2250   45.5100 C   0  0  0  0  0  0  0  0  0  0  0  0
   38.4400   32.6920   44.1060 C   0  0  0  0  0  0  0  0  0  0  0  0
   37.2100   32.1750   43.5190 C   0  0  0  0  0  0  0  0  0  0  0  0
   37.0890   30.8740   44.2200 C   0  0  2  0  0  0  0  0  0  0  0  0
   37.7570   29.9370   49.8930 H   0  0  0  0  0  0  0  0  0  0  0  0
   38.6570   30.8930   47.8710 H   0  0  0  0  0  0  0  0  0  0  0  0
   34.0640   29.2220   47.9970 H   0  0  0  0  0  0  0  0  0  0  0  0
   37.8480   33.0180   46.1660 H   0  0  0  0  0  0  0  0  0  0  0  0
   39.2880   32.0680   46.0580 H   0  0  0  0  0  0  0  0  0  0  0  0
   38.1630   33.8430   44.2240 H   0  0  0  0  0  0  0  0  0  0  0  0
   39.3460   32.8170   43.5770 H   0  0  0  0  0  0  0  0  0  0  0  0
   36.3060   32.8090   43.6010 H   0  0  0  0  0  0  0  0  0  0  0  0
   37.3400   31.9810   42.4320 H   0  0  0  0  0  0  0  0  0  0  0  0
   35.7050   30.2710   43.9620 C   0  0  0  0  0  0  0  0  0  0  0  0
   34.7570   31.1620   44.4160 F   0  0  0  0  0  0  0  0  0  0  0  0
   35.4600   29.0840   44.5850 F   0  0  0  0  0  0  0  0  0  0  0  0
   35.5560   30.2010   42.5940 F   0  0  0  0  0  0  0  0  0  0  0  0
   38.0350   29.8970   43.7630 C   0  0  2  0  0  0  0  0  0  0  0  0
   38.8900   29.8240   44.3980 H   0  0  0  0  0  0  0  0  0  0  0  0
   38.8440   30.1970   42.4290 C   0  0  0  0  0  0  0  0  0  0  0  0
   40.2570   30.2040   42.4650 C   0  0  0  0  0  0  0  0  0  0  0  0
   40.6890   30.0770   43.4730 H   0  0  0  0  0  0  0  0  0  0  0  0
   41.1000   30.3440   41.4170 C   0  0  0  0  0  0  0  0  0  0  0  0
   42.1700   30.3340   41.5630 H   0  0  0  0  0  0  0  0  0  0  0  0
   40.4700   30.4940   40.2040 C   0  0  0  0  0  3  0  0  0  0  0  0
   39.0980   30.4910   40.1410 C   0  0  0  0  0  3  0  0  0  0  0  0
   38.3080   30.3500   41.2050 N   0  0  0  0  0  0  0  0  0  0  0  0
   37.3980   28.8700   43.4120 O   0  0  0  0  0  0  0  0  0  0  0  0
   37.5920   27.7140   42.7590 C   0  0  0  0  0  0  0  0  0  0  0  0
   36.6960   26.8990   42.9890 O   0  0  0  0  0  0  0  0  0  0  0  0
   38.3870   26.9430   41.8700 N   0  0  0  0  0  0  0  0  0  0  0  0
   39.1450   26.2990   42.1830 H   0  0  0  0  0  0  0  0  0  0  0  0
   38.1740   27.0510   40.8510 H   0  0  0  0  0  0  0  0  0  0  0  0
  1 12  1  0  0  0  0
  2  1  2  0  0  0  0
  3  4  2  0  0  0  0
  3  2  1  0  0  0  0
  4  5  1  0  0  0  0
  5 14  1  0  0  0  0
  5  6  2  0  0  0  0
  6  1  1  0  0  0  0
  7  3  1  0  0  0  0
  8  7  1  0  0  0  0
  8 16  1  0  0  0  0
  8 15  1  0  0  0  0
  9 17  1  0  0  0  0
  9  8  1  0  0  0  0
 10 19  1  0  0  0  0
 10  9  1  0  0  0  0
 10 11  1  0  0  0  0
 11 21  1  6  0  0  0
 11  7  1  0  0  0  0
 13  2  1  0  0  0  0
 18  9  1  0  0  0  0
 20 10  1  0  0  0  0
 21 22  1  0  0  0  0
 21 23  1  0  0  0  0
 24 21  1  0  0  0  0
 25 11  1  0  0  0  0
 25 26  1  1  0  0  0
 27 28  1  0  0  0  0
 27 25  1  0  0  0  0
 28 29  1  0  0  0  0
 30 31  1  0  0  0  0
 30 28  2  0  0  0  0
 32 30  1  0  0  0  0
 33 32  2  0  0  0  0
 33 34  1  0  0  0  0
 34 27  2  0  0  0  0
 35 25  1  0  0  0  0
 36 37  2  0  0  0  0
 36 35  1  0  0  0  0
 38 39  1  0  0  0  0
 38 36  1  0  0  0  0
 40 38  1  0  0  0  0
M  END
>  <minimizedAffinity>
-4.23941994

>  <minimizedRMSD>
3.6546669

$$$$
