
 OpenBabel03272504213D

 38 40  0  0  1  0  0  0  0  0999 V2000
   38.8640   32.3940   47.8600 C   0  0  2  0  0  0  0  0  0  0  0  0
   38.2020   31.3760   48.7530 C   0  0  1  0  0  0  0  0  0  0  0  0
   38.7000   31.9240   50.0980 C   0  0  0  0  0  0  0  0  0  0  0  0
   38.3770   33.2630   49.9840 O   0  0  0  0  0  0  0  0  0  0  0  0
   38.6460   33.6650   48.7000 C   0  0  0  0  0  0  0  0  0  0  0  0
   39.9460   32.2230   47.7220 H   0  0  0  0  0  0  0  0  0  0  0  0
   38.5180   30.3470   48.5840 H   0  0  0  0  0  0  0  0  0  0  0  0
   39.7740   31.7460   50.1970 H   0  0  0  0  0  0  0  0  0  0  0  0
   38.1950   31.4600   50.9520 H   0  0  0  0  0  0  0  0  0  0  0  0
   37.8340   34.2850   48.2650 H   0  0  0  0  0  0  0  0  0  0  0  0
   39.5500   34.3020   48.7100 H   0  0  0  0  0  0  0  0  0  0  0  0
   36.8400   31.5870   48.6620 O   0  0  0  0  0  0  0  0  0  0  0  0
   35.9300   29.8500   46.9570 O   0  0  0  0  0  0  0  0  0  0  0  0
   35.9710   30.1680   48.4280 P   0  0  1  0  0  0  0  0  0  0  0  0
   36.7500   28.8720   49.2290 O   0  0  0  0  0  0  0  0  0  0  0  0
   37.0880   29.2820   50.0710 H   0  0  0  0  0  0  0  0  0  0  0  0
   34.3940   30.3370   49.0420 O   0  0  0  0  0  0  0  0  0  0  0  0
   34.1250   29.2030   49.7840 C   0  0  0  0  0  0  0  0  0  0  0  0
   33.5530   29.5590   50.6870 H   0  0  0  0  0  0  0  0  0  0  0  0
   35.0420   28.6850   50.1280 H   0  0  0  0  0  0  0  0  0  0  0  0
   33.2660   28.2270   49.0760 C   0  0  0  0  0  0  0  0  0  0  0  0
   33.8980   27.3400   48.2390 C   0  0  0  0  0  0  0  0  0  0  0  0
   33.1430   26.3920   47.5410 C   0  0  0  0  0  0  0  0  0  0  0  0
   31.7930   26.4090   47.7420 N   0  0  0  0  0  0  0  0  0  0  0  0
   31.1920   27.2920   48.5700 C   0  0  0  0  0  0  0  0  0  0  0  0
   31.9320   28.2030   49.2390 N   0  0  0  0  0  0  0  0  0  0  0  0
   34.9470   27.2470   48.0160 H   0  0  0  0  0  0  0  0  0  0  0  0
   33.5550   25.6550   46.8620 H   0  0  0  0  0  0  0  0  0  0  0  0
   30.1270   27.3030   48.7260 H   0  0  0  0  0  0  0  0  0  0  0  0
   38.1710   32.4300   46.6560 O   0  0  0  0  0  0  0  0  0  0  0  0
   38.7460   32.1850   45.4080 C   0  0  0  0  0  0  0  0  0  0  0  0
   37.9540   32.4960   44.3220 C   0  0  0  0  0  0  0  0  0  0  0  0
   36.9480   32.9050   44.4280 H   0  0  0  0  0  0  0  0  0  0  0  0
   38.4500   32.2820   43.0530 C   0  0  0  0  0  0  0  0  0  0  0  0
   37.8980   32.4970   42.1400 H   0  0  0  0  0  0  0  0  0  0  0  0
   39.7190   31.7640   42.9240 C   0  0  0  0  0  3  0  0  0  0  0  0
   40.5200   31.4500   44.0270 C   0  0  0  0  0  3  0  0  0  0  0  0
   39.9970   31.6740   45.2540 N   0  0  0  0  0  0  0  0  0  0  0  0
  1  6  1  6  0  0  0
  1  5  1  0  0  0  0
  1  2  1  0  0  0  0
  2  7  1  6  0  0  0
  2  3  1  0  0  0  0
  3  8  1  0  0  0  0
  3  9  1  0  0  0  0
  4  3  1  0  0  0  0
  5 11  1  0  0  0  0
  5  4  1  0  0  0  0
 10  5  1  0  0  0  0
 12  2  1  0  0  0  0
 14 13  2  6  0  0  0
 14 12  1  0  0  0  0
 14 17  1  0  0  0  0
 14 15  1  0  0  0  0
 15 16  1  0  0  0  0
 17 18  1  0  0  0  0
 18 20  1  0  0  0  0
 18 19  1  0  0  0  0
 21 26  1  0  0  0  0
 21 18  1  0  0  0  0
 22 21  2  0  0  0  0
 23 24  2  0  0  0  0
 23 22  1  0  0  0  0
 24 25  1  0  0  0  0
 25 29  1  0  0  0  0
 25 26  2  0  0  0  0
 27 22  1  0  0  0  0
 28 23  1  0  0  0  0
 30  1  1  0  0  0  0
 31 30  1  0  0  0  0
 32 33  1  0  0  0  0
 32 31  2  0  0  0  0
 34 32  1  0  0  0  0
 35 34  1  0  0  0  0
 36 34  2  0  0  0  0
 36 37  1  0  0  0  0
 37 38  2  0  0  0  0
 38 31  1  0  0  0  0
M  END
>  <minimizedAffinity>
-4.76817751

>  <minimizedRMSD>
0.306832612

$$$$
