
 OpenBabel03272506403D

 18 19  0  0  0  0  0  0  0  0999 V2000
   36.7660   30.1470   50.7000 C   0  0  0  0  0  0  0  0  0  0  0  0
   37.9880   30.5320   50.1540 C   0  0  0  0  0  0  0  0  0  0  0  0
   38.0330   30.8500   48.7860 C   0  0  0  0  0  0  0  0  0  0  0  0
   36.8720   30.7630   48.0690 N   0  0  0  0  0  0  0  0  0  0  0  0
   35.7210   30.3890   48.6340 C   0  0  0  0  0  0  0  0  0  0  0  0
   35.6540   30.0810   49.9390 N   0  0  0  0  0  0  0  0  0  0  0  0
   36.7720   29.9100   51.7550 H   0  0  0  0  0  0  0  0  0  0  0  0
   38.9240   30.6200   50.6540 H   0  0  0  0  0  0  0  0  0  0  0  0
   38.8750   31.1630   48.1950 H   0  0  0  0  0  0  0  0  0  0  0  0
   34.1970   30.2730   47.7020 S   0  0  0  0  0  0  0  0  0  0  0  0
   34.0440   28.6180   47.0080 C   0  0  0  0  0  0  0  0  0  0  0  0
   34.0480   28.3820   45.6490 C   0  0  0  0  0  0  0  0  0  0  0  0
   34.1460   29.2060   44.9650 H   0  0  0  0  0  0  0  0  0  0  0  0
   33.9220   27.0510   45.2550 C   0  0  0  0  0  0  0  0  0  0  0  0
   33.9220   26.8430   44.1920 H   0  0  0  0  0  0  0  0  0  0  0  0
   33.8020   26.0630   46.2360 C   0  0  0  0  0  3  0  0  0  0  0  0
   33.8020   26.3470   47.5830 C   0  0  0  0  0  3  0  0  0  0  0  0
   33.9270   27.6520   47.9600 N   0  0  0  0  0  0  0  0  0  0  0  0
  1  7  1  0  0  0  0
  2  8  1  0  0  0  0
  2  1  1  0  0  0  0
  3  2  2  0  0  0  0
  4  5  2  0  0  0  0
  4  3  1  0  0  0  0
  5  6  1  0  0  0  0
  6  1  2  0  0  0  0
  9  3  1  0  0  0  0
 10  5  1  0  0  0  0
 11 10  1  0  0  0  0
 11 18  1  0  0  0  0
 12 11  2  0  0  0  0
 13 12  1  0  0  0  0
 14 12  1  0  0  0  0
 14 16  2  0  0  0  0
 15 14  1  0  0  0  0
 16 17  1  0  0  0  0
 17 18  2  0  0  0  0
M  END
>  <minimizedAffinity>
-3.50615931

>  <minimizedRMSD>
2.71493983

$$$$
