
 OpenBabel03272501183D

 29 31  0  0  0  0  0  0  0  0999 V2000
   38.7880   31.8790   47.8300 C   0  0  0  0  0  0  0  0  0  0  0  0
   38.3100   32.1050   49.0970 C   0  0  0  0  0  0  0  0  0  0  0  0
   38.6610   33.3430   49.6320 C   0  0  0  0  0  0  0  0  0  0  0  0
   39.4330   34.2660   48.9300 C   0  0  0  0  0  0  0  0  0  0  0  0
   39.8730   33.9390   47.6420 C   0  0  0  0  0  0  0  0  0  0  0  0
   39.5410   32.7150   47.0800 C   0  0  0  0  0  0  0  0  0  0  0  0
   38.3110   33.5780   50.6310 H   0  0  0  0  0  0  0  0  0  0  0  0
   39.6980   35.2250   49.3610 H   0  0  0  0  0  0  0  0  0  0  0  0
   40.4710   34.6850   47.1300 H   0  0  0  0  0  0  0  0  0  0  0  0
   36.1790   30.9510   49.4840 C   0  0  0  0  0  0  0  0  0  0  0  0
   37.5130   31.1650   49.8350 C   0  0  0  0  0  0  0  0  0  0  0  0
   38.0150   30.4380   50.9090 C   0  0  0  0  0  0  0  0  0  0  0  0
   37.1850   29.5680   51.5510 N   0  0  0  0  0  0  0  0  0  0  0  0
   35.8980   29.3940   51.1750 C   0  0  0  0  0  0  0  0  0  0  0  0
   35.3830   30.0930   50.1260 N   0  0  0  0  0  0  0  0  0  0  0  0
   35.7720   31.5090   48.6490 H   0  0  0  0  0  0  0  0  0  0  0  0
   39.0500   30.5890   51.1990 H   0  0  0  0  0  0  0  0  0  0  0  0
   35.2740   28.6870   51.7180 H   0  0  0  0  0  0  0  0  0  0  0  0
   38.4890   30.6550   47.1990 O   0  0  0  0  0  0  0  0  0  0  0  0
   38.1700   29.8700   47.7520 H   0  0  0  0  0  0  0  0  0  0  0  0
   40.0020   32.4520   45.8120 O   0  0  0  0  0  0  0  0  0  0  0  0
   39.1890   32.5680   44.7020 C   0  0  0  0  0  0  0  0  0  0  0  0
   39.8510   32.9380   43.5250 C   0  0  0  0  0  0  0  0  0  0  0  0
   40.9160   33.1200   43.4820 H   0  0  0  0  0  0  0  0  0  0  0  0
   39.1580   33.0950   42.3220 C   0  0  0  0  0  0  0  0  0  0  0  0
   39.6970   33.3820   41.4290 H   0  0  0  0  0  0  0  0  0  0  0  0
   37.7830   32.8810   42.2840 C   0  0  0  0  0  0  0  0  0  0  0  0
   37.1750   32.5130   43.4900 C   0  0  0  0  0  0  0  0  0  0  0  0
   37.8600   32.3680   44.6380 N   0  0  0  0  0  0  0  0  0  0  0  0
  1  2  1  0  0  0  0
  2  3  2  0  0  0  0
  2 11  1  0  0  0  0
  3  7  1  0  0  0  0
  4  8  1  0  0  0  0
  4  3  1  0  0  0  0
  5  4  2  0  0  0  0
  6  5  1  0  0  0  0
  6  1  2  0  0  0  0
  9  5  1  0  0  0  0
 10 11  2  0  0  0  0
 10 15  1  0  0  0  0
 11 12  1  0  0  0  0
 12 17  1  0  0  0  0
 12 13  2  0  0  0  0
 14 13  1  0  0  0  0
 14 18  1  0  0  0  0
 15 14  2  0  0  0  0
 16 10  1  0  0  0  0
 19 20  1  0  0  0  0
 19  1  1  0  0  0  0
 21  6  1  0  0  0  0
 22 21  1  0  0  0  0
 23 22  2  0  0  0  0
 24 23  1  0  0  0  0
 25 23  1  0  0  0  0
 26 25  1  0  0  0  0
 27 25  2  0  0  0  0
 27 28  1  0  0  0  0
 28 29  2  0  0  0  0
 29 22  1  0  0  0  0
M  END
>  <minimizedAffinity>
-6.29469204

>  <minimizedRMSD>
0.500157058

$$$$
