
 OpenBabel03272506403D

 18 19  0  0  0  0  0  0  0  0999 V2000
   31.7540   28.6440   46.6210 C   0  0  0  0  0  0  0  0  0  0  0  0
   32.0380   29.8470   45.9790 C   0  0  0  0  0  0  0  0  0  0  0  0
   33.1800   30.5610   46.3820 C   0  0  0  0  0  0  0  0  0  0  0  0
   33.9470   30.0320   47.3820 N   0  0  0  0  0  0  0  0  0  0  0  0
   33.6370   28.8740   47.9700 C   0  0  0  0  0  0  0  0  0  0  0  0
   32.5520   28.1750   47.6030 N   0  0  0  0  0  0  0  0  0  0  0  0
   30.8680   28.1250   46.2840 H   0  0  0  0  0  0  0  0  0  0  0  0
   31.4850   30.3130   45.1970 H   0  0  0  0  0  0  0  0  0  0  0  0
   33.5560   31.4970   46.0070 H   0  0  0  0  0  0  0  0  0  0  0  0
   34.6370   28.1750   49.2810 S   0  0  0  0  0  0  0  0  0  0  0  0
   36.0350   29.2620   49.6110 C   0  0  0  0  0  0  0  0  0  0  0  0
   36.8090   29.7980   48.6040 C   0  0  0  0  0  0  0  0  0  0  0  0
   36.5840   29.5700   47.5770 H   0  0  0  0  0  0  0  0  0  0  0  0
   37.8590   30.6240   49.0060 C   0  0  0  0  0  0  0  0  0  0  0  0
   38.4800   31.0550   48.2310 H   0  0  0  0  0  0  0  0  0  0  0  0
   38.0560   30.8500   50.3710 C   0  0  0  0  0  0  0  0  0  0  0  0
   37.2550   30.2920   51.3420 C   0  0  0  0  0  0  0  0  0  0  0  0
   36.2310   29.4850   50.9400 N   0  0  0  0  0  0  0  0  0  0  0  0
  1  6  1  0  0  0  0
  2  3  1  0  0  0  0
  2  1  2  0  0  0  0
  3  4  2  0  0  0  0
  4  5  1  0  0  0  0
  5 10  1  0  0  0  0
  6  5  2  0  0  0  0
  7  1  1  0  0  0  0
  8  2  1  0  0  0  0
  9  3  1  0  0  0  0
 10 11  1  0  0  0  0
 11 18  1  0  0  0  0
 12 14  1  0  0  0  0
 12 11  2  0  0  0  0
 13 12  1  0  0  0  0
 14 16  2  0  0  0  0
 15 14  1  0  0  0  0
 16 17  1  0  0  0  0
 18 17  2  0  0  0  0
M  END
>  <minimizedAffinity>
-4.22391653

>  <minimizedRMSD>
5.4557519

$$$$
