
 OpenBabel03262522203D

 18 19  0  0  0  0  0  0  0  0999 V2000
   37.5690   30.6660   50.8000 C   0  0  0  0  0  0  0  0  0  0  0  0
   36.8940   31.3040   49.7450 C   0  0  0  0  0  0  0  0  0  0  0  0
   35.6210   30.8550   49.4340 C   0  0  0  0  0  0  0  0  0  0  0  0
   35.0980   29.8330   50.1540 N   0  0  0  0  0  0  0  0  0  0  0  0
   35.7650   29.2460   51.1520 C   0  0  0  0  0  0  0  0  0  0  0  0
   37.0170   29.6510   51.4950 N   0  0  0  0  0  0  0  0  0  0  0  0
   38.5680   30.8990   51.1650 H   0  0  0  0  0  0  0  0  0  0  0  0
   35.1470   31.3790   48.6160 H   0  0  0  0  0  0  0  0  0  0  0  0
   35.2290   28.4460   51.6400 H   0  0  0  0  0  0  0  0  0  0  0  0
   37.6080   32.3170   49.1480 O   0  0  0  0  0  0  0  0  0  0  0  0
   38.3150   31.9780   47.9780 C   0  0  0  0  0  0  0  0  0  0  0  0
   38.2640   30.8200   47.2530 C   0  0  0  0  0  0  0  0  0  0  0  0
   37.5720   30.0870   47.6690 H   0  0  0  0  0  0  0  0  0  0  0  0
   39.0350   30.6840   46.1360 C   0  0  0  0  0  0  0  0  0  0  0  0
   38.9650   29.7600   45.5970 H   0  0  0  0  0  0  0  0  0  0  0  0
   39.8530   31.7300   45.7680 C   0  0  0  0  0  0  0  0  0  0  0  0
   39.8990   32.8970   46.5060 C   0  0  0  0  0  0  0  0  0  0  0  0
   39.1140   32.9780   47.6040 N   0  0  0  0  0  0  0  0  0  0  0  0
  1  7  1  0  0  0  0
  1  6  1  0  0  0  0
  2  1  2  0  0  0  0
  3  2  1  0  0  0  0
  3  4  2  0  0  0  0
  4  5  1  0  0  0  0
  5  6  2  0  0  0  0
  5  9  1  0  0  0  0
  8  3  1  0  0  0  0
 10  2  1  0  0  0  0
 11 10  1  0  0  0  0
 12 13  1  0  0  0  0
 12 11  2  0  0  0  0
 14 12  1  0  0  0  0
 15 14  1  0  0  0  0
 16 14  2  0  0  0  0
 16 17  1  0  0  0  0
 17 18  2  0  0  0  0
 18 11  1  0  0  0  0
M  END
>  <minimizedAffinity>
-4.51780844

>  <minimizedRMSD>
3.29529762

$$$$
