
 OpenBabel03272501193D

 29 31  0  0  0  0  0  0  0  0999 V2000
   37.6020   22.6820   33.1780 C   0  0  0  0  0  0  0  0  0  0  0  0
   36.6220   22.2150   32.3370 C   0  0  0  0  0  0  0  0  0  0  0  0
   35.9060   23.2130   31.6780 C   0  0  0  0  0  0  0  0  0  0  0  0
   36.1700   24.5680   31.8660 C   0  0  0  0  0  0  0  0  0  0  0  0
   37.1910   24.9410   32.7480 C   0  0  0  0  0  0  0  0  0  0  0  0
   37.9240   23.9730   33.4200 C   0  0  0  0  0  0  0  0  0  0  0  0
   35.1190   22.9030   30.9990 H   0  0  0  0  0  0  0  0  0  0  0  0
   35.6030   25.3320   31.3460 H   0  0  0  0  0  0  0  0  0  0  0  0
   37.3640   26.0050   32.8650 H   0  0  0  0  0  0  0  0  0  0  0  0
   35.6520   20.0970   33.1070 C   0  0  0  0  0  0  0  0  0  0  0  0
   36.3370   20.8230   32.1310 C   0  0  0  0  0  0  0  0  0  0  0  0
   36.7170   20.1430   30.9780 C   0  0  0  0  0  0  0  0  0  0  0  0
   36.4030   18.8210   30.8700 N   0  0  0  0  0  0  0  0  0  0  0  0
   35.7380   18.1590   31.8420 C   0  0  0  0  0  0  0  0  0  0  0  0
   35.3540   18.8020   32.9800 N   0  0  0  0  0  0  0  0  0  0  0  0
   35.3490   20.6110   34.0110 H   0  0  0  0  0  0  0  0  0  0  0  0
   37.2510   20.6880   30.2060 H   0  0  0  0  0  0  0  0  0  0  0  0
   35.5100   17.1030   31.7100 H   0  0  0  0  0  0  0  0  0  0  0  0
   38.3840   21.7540   33.8930 O   0  0  0  0  0  0  0  0  0  0  0  0
   38.0640   20.7990   33.9930 H   0  0  0  0  0  0  0  0  0  0  0  0
   38.9130   24.4030   34.2720 O   0  0  0  0  0  0  0  0  0  0  0  0
   38.9530   24.0160   35.5970 C   0  0  0  0  0  0  0  0  0  0  0  0
   37.9780   24.6050   36.4100 C   0  0  0  0  0  0  0  0  0  0  0  0
   37.2470   25.3080   36.0370 H   0  0  0  0  0  0  0  0  0  0  0  0
   37.8960   24.3090   37.7730 C   0  0  0  0  0  0  0  0  0  0  0  0
   37.1320   24.7810   38.3770 H   0  0  0  0  0  0  0  0  0  0  0  0
   38.7980   23.4140   38.3410 C   0  0  0  0  0  3  0  0  0  0  0  0
   39.7500   22.8560   37.4810 C   0  0  0  0  0  3  0  0  0  0  0  0
   39.8130   23.1540   36.1710 N   0  0  0  0  0  0  0  0  0  0  0  0
  1  6  1  0  0  0  0
  1 19  1  0  0  0  0
  2  1  2  0  0  0  0
  3  4  2  0  0  0  0
  3  2  1  0  0  0  0
  4  5  1  0  0  0  0
  5  9  1  0  0  0  0
  5  6  2  0  0  0  0
  6 21  1  0  0  0  0
  7  3  1  0  0  0  0
  8  4  1  0  0  0  0
 10 16  1  0  0  0  0
 11  2  1  0  0  0  0
 11 10  2  0  0  0  0
 12 11  1  0  0  0  0
 13 12  2  0  0  0  0
 13 14  1  0  0  0  0
 14 15  2  0  0  0  0
 15 10  1  0  0  0  0
 17 12  1  0  0  0  0
 18 14  1  0  0  0  0
 19 20  1  0  0  0  0
 21 22  1  0  0  0  0
 22 29  2  0  0  0  0
 22 23  1  0  0  0  0
 23 25  2  0  0  0  0
 24 23  1  0  0  0  0
 25 27  1  0  0  0  0
 25 26  1  0  0  0  0
 28 27  2  0  0  0  0
 29 28  1  0  0  0  0
M  END
>  <minimizedAffinity>
-5.27161026

$$$$

 OpenBabel03272501193D

 29 31  0  0  0  0  0  0  0  0999 V2000
   39.5860   24.8550   34.8000 C   0  0  0  0  0  0  0  0  0  0  0  0
   39.7480   26.2020   34.5910 C   0  0  0  0  0  0  0  0  0  0  0  0
   39.0280   27.0120   35.4680 C   0  0  0  0  0  0  0  0  0  0  0  0
   38.2160   26.4860   36.4710 C   0  0  0  0  0  0  0  0  0  0  0  0
   38.1180   25.0960   36.6010 C   0  0  0  0  0  0  0  0  0  0  0  0
   38.8200   24.2620   35.7440 C   0  0  0  0  0  0  0  0  0  0  0  0
   39.1180   28.0860   35.3510 H   0  0  0  0  0  0  0  0  0  0  0  0
   37.6620   27.1300   37.1450 H   0  0  0  0  0  0  0  0  0  0  0  0
   37.4750   24.7280   37.3940 H   0  0  0  0  0  0  0  0  0  0  0  0
   40.0550   27.0140   32.2960 C   0  0  0  0  0  0  0  0  0  0  0  0
   40.5810   26.7610   33.5630 C   0  0  0  0  0  0  0  0  0  0  0  0
   41.9210   27.0730   33.7720 C   0  0  0  0  0  0  0  0  0  0  0  0
   42.6350   27.5990   32.7380 N   0  0  0  0  0  0  0  0  0  0  0  0
   42.0820   27.8270   31.5260 C   0  0  0  0  0  0  0  0  0  0  0  0
   40.7720   27.5320   31.2960 N   0  0  0  0  0  0  0  0  0  0  0  0
   39.0130   26.7770   32.1160 H   0  0  0  0  0  0  0  0  0  0  0  0
   42.3510   26.8840   34.7510 H   0  0  0  0  0  0  0  0  0  0  0  0
   42.6930   28.2500   30.7310 H   0  0  0  0  0  0  0  0  0  0  0  0
   40.2700   23.9500   33.9660 O   0  0  0  0  0  0  0  0  0  0  0  0
   40.6470   24.2690   33.0830 H   0  0  0  0  0  0  0  0  0  0  0  0
   38.6830   22.9060   35.9230 O   0  0  0  0  0  0  0  0  0  0  0  0
   37.7400   22.1710   35.2320 C   0  0  0  0  0  0  0  0  0  0  0  0
   36.7260   21.6220   36.0260 C   0  0  0  0  0  0  0  0  0  0  0  0
   36.6790   21.7590   37.0970 H   0  0  0  0  0  0  0  0  0  0  0  0
   35.7030   20.8530   35.4650 C   0  0  0  0  0  0  0  0  0  0  0  0
   34.9320   20.4410   36.1050 H   0  0  0  0  0  0  0  0  0  0  0  0
   35.6830   20.6240   34.0930 C   0  0  0  0  0  3  0  0  0  0  0  0
   36.7210   21.1970   33.3490 C   0  0  0  0  0  3  0  0  0  0  0  0
   37.6980   21.9340   33.9080 N   0  0  0  0  0  0  0  0  0  0  0  0
  1  6  1  0  0  0  0
  2  1  2  0  0  0  0
  2  3  1  0  0  0  0
  3  4  2  0  0  0  0
  4  5  1  0  0  0  0
  4  8  1  0  0  0  0
  5  9  1  0  0  0  0
  6 21  1  0  0  0  0
  6  5  2  0  0  0  0
  7  3  1  0  0  0  0
 10 11  1  0  0  0  0
 11 12  2  0  0  0  0
 11  2  1  0  0  0  0
 12 17  1  0  0  0  0
 13 12  1  0  0  0  0
 14 13  2  0  0  0  0
 15 14  1  0  0  0  0
 15 10  2  0  0  0  0
 16 10  1  0  0  0  0
 18 14  1  0  0  0  0
 19  1  1  0  0  0  0
 20 19  1  0  0  0  0
 22 21  1  0  0  0  0
 22 23  1  0  0  0  0
 23 24  1  0  0  0  0
 25 23  2  0  0  0  0
 25 26  1  0  0  0  0
 27 25  1  0  0  0  0
 28 29  1  0  0  0  0
 28 27  2  0  0  0  0
 29 22  2  0  0  0  0
M  END
>  <minimizedAffinity>
-5.07277918

$$$$

 OpenBabel03272501193D

 29 31  0  0  0  0  0  0  0  0999 V2000
   38.0200   25.4690   33.8140 C   0  0  0  0  0  0  0  0  0  0  0  0
   37.7460   26.8140   33.8560 C   0  0  0  0  0  0  0  0  0  0  0  0
   37.9050   27.3940   35.1140 C   0  0  0  0  0  0  0  0  0  0  0  0
   38.3090   26.6600   36.2270 C   0  0  0  0  0  0  0  0  0  0  0  0
   38.5630   25.2920   36.0790 C   0  0  0  0  0  0  0  0  0  0  0  0
   38.4150   24.6830   34.8410 C   0  0  0  0  0  0  0  0  0  0  0  0
   37.7030   28.4540   35.2080 H   0  0  0  0  0  0  0  0  0  0  0  0
   38.4270   27.1270   37.1990 H   0  0  0  0  0  0  0  0  0  0  0  0
   38.8760   24.7580   36.9700 H   0  0  0  0  0  0  0  0  0  0  0  0
   38.2270   27.8460   31.6830 C   0  0  0  0  0  0  0  0  0  0  0  0
   37.3290   27.5850   32.7190 C   0  0  0  0  0  0  0  0  0  0  0  0
   36.0420   28.0980   32.5930 C   0  0  0  0  0  0  0  0  0  0  0  0
   35.7360   28.8200   31.4780 N   0  0  0  0  0  0  0  0  0  0  0  0
   36.6400   29.0470   30.4990 C   0  0  0  0  0  0  0  0  0  0  0  0
   37.9060   28.5550   30.5980 N   0  0  0  0  0  0  0  0  0  0  0  0
   39.2340   27.4540   31.7650 H   0  0  0  0  0  0  0  0  0  0  0  0
   35.3280   27.9070   33.3880 H   0  0  0  0  0  0  0  0  0  0  0  0
   36.3480   29.6290   29.6270 H   0  0  0  0  0  0  0  0  0  0  0  0
   37.8900   24.7860   32.5880 O   0  0  0  0  0  0  0  0  0  0  0  0
   37.3580   25.2040   31.8360 H   0  0  0  0  0  0  0  0  0  0  0  0
   38.6810   23.3370   34.7590 O   0  0  0  0  0  0  0  0  0  0  0  0
   37.6780   22.4060   34.5710 C   0  0  0  0  0  0  0  0  0  0  0  0
   37.1150   21.9020   35.7500 C   0  0  0  0  0  0  0  0  0  0  0  0
   37.4350   22.2140   36.7340 H   0  0  0  0  0  0  0  0  0  0  0  0
   36.0910   20.9530   35.7150 C   0  0  0  0  0  0  0  0  0  0  0  0
   35.6750   20.5820   36.6430 H   0  0  0  0  0  0  0  0  0  0  0  0
   35.6150   20.4930   34.4900 C   0  0  0  0  0  3  0  0  0  0  0  0
   36.2150   21.0310   33.3460 C   0  0  0  0  0  3  0  0  0  0  0  0
   37.2010   21.9440   33.4000 N   0  0  0  0  0  0  0  0  0  0  0  0
  1  2  2  0  0  0  0
  1  6  1  0  0  0  0
  2  3  1  0  0  0  0
  3  7  1  0  0  0  0
  3  4  2  0  0  0  0
  4  8  1  0  0  0  0
  5  4  1  0  0  0  0
  5  9  1  0  0  0  0
  6  5  2  0  0  0  0
 10 16  1  0  0  0  0
 10 11  1  0  0  0  0
 11  2  1  0  0  0  0
 12 11  2  0  0  0  0
 12 17  1  0  0  0  0
 13 12  1  0  0  0  0
 14 15  1  0  0  0  0
 14 13  2  0  0  0  0
 15 10  2  0  0  0  0
 18 14  1  0  0  0  0
 19  1  1  0  0  0  0
 20 19  1  0  0  0  0
 21  6  1  0  0  0  0
 22 21  1  0  0  0  0
 22 23  1  0  0  0  0
 23 24  1  0  0  0  0
 25 23  2  0  0  0  0
 25 26  1  0  0  0  0
 27 25  1  0  0  0  0
 28 29  1  0  0  0  0
 28 27  2  0  0  0  0
 29 22  2  0  0  0  0
M  END
>  <minimizedAffinity>
-5.05874157

$$$$

 OpenBabel03272501193D

 29 31  0  0  0  0  0  0  0  0999 V2000
   37.8200   25.6700   32.8670 C   0  0  0  0  0  0  0  0  0  0  0  0
   36.8190   25.9930   31.9840 C   0  0  0  0  0  0  0  0  0  0  0  0
   36.0880   24.9010   31.5200 C   0  0  0  0  0  0  0  0  0  0  0  0
   36.3570   23.5960   31.9250 C   0  0  0  0  0  0  0  0  0  0  0  0
   37.4010   23.3720   32.8310 C   0  0  0  0  0  0  0  0  0  0  0  0
   38.1500   24.4360   33.3120 C   0  0  0  0  0  0  0  0  0  0  0  0
   35.2830   25.0950   30.8190 H   0  0  0  0  0  0  0  0  0  0  0  0
   35.7780   22.7580   31.5550 H   0  0  0  0  0  0  0  0  0  0  0  0
   37.5780   22.3420   33.1210 H   0  0  0  0  0  0  0  0  0  0  0  0
   35.6520   28.1280   32.2950 C   0  0  0  0  0  0  0  0  0  0  0  0
   36.5270   27.3320   31.5550 C   0  0  0  0  0  0  0  0  0  0  0  0
   37.0880   27.8910   30.4110 C   0  0  0  0  0  0  0  0  0  0  0  0
   36.7520   29.1700   30.0810 N   0  0  0  0  0  0  0  0  0  0  0  0
   35.8990   29.9040   30.8290 C   0  0  0  0  0  0  0  0  0  0  0  0
   35.3370   29.3800   31.9540 N   0  0  0  0  0  0  0  0  0  0  0  0
   35.2070   27.7090   33.1890 H   0  0  0  0  0  0  0  0  0  0  0  0
   37.7710   27.2880   29.8210 H   0  0  0  0  0  0  0  0  0  0  0  0
   35.6610   30.9220   30.5240 H   0  0  0  0  0  0  0  0  0  0  0  0
   38.6200   26.7020   33.3960 O   0  0  0  0  0  0  0  0  0  0  0  0
   38.6380   27.6050   32.9410 H   0  0  0  0  0  0  0  0  0  0  0  0
   39.1610   24.1520   34.1990 O   0  0  0  0  0  0  0  0  0  0  0  0
   38.9180   23.9560   35.5440 C   0  0  0  0  0  0  0  0  0  0  0  0
   39.8460   23.1370   36.1970 C   0  0  0  0  0  0  0  0  0  0  0  0
   40.6910   22.6890   35.6920 H   0  0  0  0  0  0  0  0  0  0  0  0
   39.7290   22.8500   37.5590 C   0  0  0  0  0  0  0  0  0  0  0  0
   40.4620   22.2130   38.0350 H   0  0  0  0  0  0  0  0  0  0  0  0
   38.6710   23.3840   38.2890 C   0  0  0  0  0  3  0  0  0  0  0  0
   37.7740   24.1960   37.5850 C   0  0  0  0  0  3  0  0  0  0  0  0
   37.9040   24.4600   36.2730 N   0  0  0  0  0  0  0  0  0  0  0  0
  1  6  1  0  0  0  0
  1 19  1  0  0  0  0
  2  1  2  0  0  0  0
  3  4  2  0  0  0  0
  3  2  1  0  0  0  0
  4  5  1  0  0  0  0
  5  9  1  0  0  0  0
  5  6  2  0  0  0  0
  6 21  1  0  0  0  0
  7  3  1  0  0  0  0
  8  4  1  0  0  0  0
 10 16  1  0  0  0  0
 11  2  1  0  0  0  0
 11 10  2  0  0  0  0
 12 11  1  0  0  0  0
 13 12  2  0  0  0  0
 13 14  1  0  0  0  0
 14 15  2  0  0  0  0
 15 10  1  0  0  0  0
 17 12  1  0  0  0  0
 18 14  1  0  0  0  0
 20 19  1  0  0  0  0
 21 22  1  0  0  0  0
 22 23  2  0  0  0  0
 22 29  1  0  0  0  0
 23 25  1  0  0  0  0
 24 23  1  0  0  0  0
 25 26  1  0  0  0  0
 25 27  2  0  0  0  0
 28 27  1  0  0  0  0
 29 28  2  0  0  0  0
M  END
>  <minimizedAffinity>
-4.9889946

$$$$

 OpenBabel03272501193D

 29 31  0  0  0  0  0  0  0  0999 V2000
   37.9970   25.3580   34.1590 C   0  0  0  0  0  0  0  0  0  0  0  0
   38.5560   25.4400   35.4090 C   0  0  0  0  0  0  0  0  0  0  0  0
   38.3820   26.6730   36.0370 C   0  0  0  0  0  0  0  0  0  0  0  0
   37.6950   27.7250   35.4360 C   0  0  0  0  0  0  0  0  0  0  0  0
   37.1620   27.5390   34.1550 C   0  0  0  0  0  0  0  0  0  0  0  0
   37.3170   26.3260   33.5020 C   0  0  0  0  0  0  0  0  0  0  0  0
   38.8020   26.7970   37.0290 H   0  0  0  0  0  0  0  0  0  0  0  0
   37.5690   28.6780   35.9370 H   0  0  0  0  0  0  0  0  0  0  0  0
   36.6350   28.3830   33.7230 H   0  0  0  0  0  0  0  0  0  0  0  0
   38.7160   23.7220   37.1540 C   0  0  0  0  0  0  0  0  0  0  0  0
   39.2670   24.3660   36.0450 C   0  0  0  0  0  0  0  0  0  0  0  0
   40.5070   23.9220   35.5990 C   0  0  0  0  0  0  0  0  0  0  0  0
   41.1080   22.8960   36.2640 N   0  0  0  0  0  0  0  0  0  0  0  0
   40.5370   22.3020   37.3350 C   0  0  0  0  0  0  0  0  0  0  0  0
   39.3220   22.7180   37.7910 N   0  0  0  0  0  0  0  0  0  0  0  0
   37.7510   24.0550   37.5140 H   0  0  0  0  0  0  0  0  0  0  0  0
   40.9540   24.4090   34.7370 H   0  0  0  0  0  0  0  0  0  0  0  0
   41.0560   21.4860   37.8340 H   0  0  0  0  0  0  0  0  0  0  0  0
   38.1170   24.1530   33.4380 O   0  0  0  0  0  0  0  0  0  0  0  0
   38.8140   23.4730   33.7110 H   0  0  0  0  0  0  0  0  0  0  0  0
   36.7700   26.2050   32.2470 O   0  0  0  0  0  0  0  0  0  0  0  0
   37.2070   26.9710   31.1840 C   0  0  0  0  0  0  0  0  0  0  0  0
   38.4880   26.6550   30.7170 C   0  0  0  0  0  0  0  0  0  0  0  0
   39.0940   25.8720   31.1510 H   0  0  0  0  0  0  0  0  0  0  0  0
   39.0610   27.3460   29.6470 C   0  0  0  0  0  0  0  0  0  0  0  0
   40.0540   27.0790   29.3090 H   0  0  0  0  0  0  0  0  0  0  0  0
   38.3510   28.3710   29.0270 C   0  0  0  0  0  3  0  0  0  0  0  0
   37.0760   28.6430   29.5350 C   0  0  0  0  0  3  0  0  0  0  0  0
   36.5420   27.9660   30.5670 N   0  0  0  0  0  0  0  0  0  0  0  0
  1  2  1  0  0  0  0
  2  3  2  0  0  0  0
  2 11  1  0  0  0  0
  3  7  1  0  0  0  0
  4  8  1  0  0  0  0
  4  3  1  0  0  0  0
  5  4  2  0  0  0  0
  6  5  1  0  0  0  0
  6  1  2  0  0  0  0
  9  5  1  0  0  0  0
 10 16  1  0  0  0  0
 10 15  1  0  0  0  0
 11 10  2  0  0  0  0
 12 11  1  0  0  0  0
 12 13  2  0  0  0  0
 13 14  1  0  0  0  0
 14 15  2  0  0  0  0
 14 18  1  0  0  0  0
 17 12  1  0  0  0  0
 19 20  1  0  0  0  0
 19  1  1  0  0  0  0
 21  6  1  0  0  0  0
 22 21  1  0  0  0  0
 23 24  1  0  0  0  0
 23 22  1  0  0  0  0
 25 23  2  0  0  0  0
 26 25  1  0  0  0  0
 27 28  2  0  0  0  0
 27 25  1  0  0  0  0
 28 29  1  0  0  0  0
 29 22  2  0  0  0  0
M  END
>  <minimizedAffinity>
-4.98736

$$$$

 OpenBabel03272501193D

 29 31  0  0  0  0  0  0  0  0999 V2000
   37.1430   23.0810   32.3100 C   0  0  0  0  0  0  0  0  0  0  0  0
   36.1100   22.3520   31.7740 C   0  0  0  0  0  0  0  0  0  0  0  0
   35.1640   23.1130   31.0890 C   0  0  0  0  0  0  0  0  0  0  0  0
   35.2700   24.4970   30.9640 C   0  0  0  0  0  0  0  0  0  0  0  0
   36.3630   25.1470   31.5480 C   0  0  0  0  0  0  0  0  0  0  0  0
   37.3230   24.4200   32.2370 C   0  0  0  0  0  0  0  0  0  0  0  0
   34.3250   22.5920   30.6440 H   0  0  0  0  0  0  0  0  0  0  0  0
   34.5250   25.0740   30.4270 H   0  0  0  0  0  0  0  0  0  0  0  0
   36.4070   26.2240   31.4270 H   0  0  0  0  0  0  0  0  0  0  0  0
   36.3940   20.0990   30.8470 C   0  0  0  0  0  0  0  0  0  0  0  0
   35.9860   20.9270   31.8930 C   0  0  0  0  0  0  0  0  0  0  0  0
   35.4670   20.3120   33.0280 C   0  0  0  0  0  0  0  0  0  0  0  0
   35.3870   18.9520   33.0520 N   0  0  0  0  0  0  0  0  0  0  0  0
   35.7950   18.1900   32.0130 C   0  0  0  0  0  0  0  0  0  0  0  0
   36.3070   18.7670   30.8910 N   0  0  0  0  0  0  0  0  0  0  0  0
   36.8010   20.5610   29.9550 H   0  0  0  0  0  0  0  0  0  0  0  0
   35.1430   20.9380   33.8550 H   0  0  0  0  0  0  0  0  0  0  0  0
   35.7110   17.1070   32.0790 H   0  0  0  0  0  0  0  0  0  0  0  0
   38.1530   22.4060   33.0240 O   0  0  0  0  0  0  0  0  0  0  0  0
   37.9870   21.4670   33.3610 H   0  0  0  0  0  0  0  0  0  0  0  0
   38.3730   25.1150   32.7880 O   0  0  0  0  0  0  0  0  0  0  0  0
   38.3510   25.5530   34.0980 C   0  0  0  0  0  0  0  0  0  0  0  0
   38.4830   26.9370   34.2570 C   0  0  0  0  0  0  0  0  0  0  0  0
   38.5930   27.6170   33.4230 H   0  0  0  0  0  0  0  0  0  0  0  0
   38.4790   27.5240   35.5240 C   0  0  0  0  0  0  0  0  0  0  0  0
   38.5830   28.5980   35.6160 H   0  0  0  0  0  0  0  0  0  0  0  0
   38.3420   26.7250   36.6560 C   0  0  0  0  0  3  0  0  0  0  0  0
   38.2150   25.3490   36.4370 C   0  0  0  0  0  3  0  0  0  0  0  0
   38.2210   24.8030   35.2080 N   0  0  0  0  0  0  0  0  0  0  0  0
  1 19  1  0  0  0  0
  2 11  1  0  0  0  0
  2  1  2  0  0  0  0
  3  2  1  0  0  0  0
  4  3  2  0  0  0  0
  4  5  1  0  0  0  0
  5  6  2  0  0  0  0
  6  1  1  0  0  0  0
  6 21  1  0  0  0  0
  7  3  1  0  0  0  0
  8  4  1  0  0  0  0
  9  5  1  0  0  0  0
 10 15  2  0  0  0  0
 10 11  1  0  0  0  0
 11 12  2  0  0  0  0
 12 13  1  0  0  0  0
 12 17  1  0  0  0  0
 14 18  1  0  0  0  0
 14 13  2  0  0  0  0
 15 14  1  0  0  0  0
 16 10  1  0  0  0  0
 19 20  1  0  0  0  0
 21 22  1  0  0  0  0
 22 23  2  0  0  0  0
 22 29  1  0  0  0  0
 23 25  1  0  0  0  0
 24 23  1  0  0  0  0
 25 26  1  0  0  0  0
 25 27  2  0  0  0  0
 28 27  1  0  0  0  0
 29 28  2  0  0  0  0
M  END
>  <minimizedAffinity>
-4.974751

$$$$

 OpenBabel03272501193D

 29 31  0  0  0  0  0  0  0  0999 V2000
   37.9860   25.2860   34.3400 C   0  0  0  0  0  0  0  0  0  0  0  0
   37.8840   26.6110   33.9950 C   0  0  0  0  0  0  0  0  0  0  0  0
   38.0350   27.4970   35.0610 C   0  0  0  0  0  0  0  0  0  0  0  0
   38.2690   27.0620   36.3640 C   0  0  0  0  0  0  0  0  0  0  0  0
   38.3560   25.6870   36.6120 C   0  0  0  0  0  0  0  0  0  0  0  0
   38.2100   24.7780   35.5740 C   0  0  0  0  0  0  0  0  0  0  0  0
   37.9650   28.5570   34.8490 H   0  0  0  0  0  0  0  0  0  0  0  0
   38.3840   27.7640   37.1820 H   0  0  0  0  0  0  0  0  0  0  0  0
   38.5400   25.3910   37.6390 H   0  0  0  0  0  0  0  0  0  0  0  0
   38.7150   27.4100   31.8290 C   0  0  0  0  0  0  0  0  0  0  0  0
   37.6430   27.0770   32.6580 C   0  0  0  0  0  0  0  0  0  0  0  0
   36.3620   27.2160   32.1330 C   0  0  0  0  0  0  0  0  0  0  0  0
   36.2300   27.6670   30.8540 N   0  0  0  0  0  0  0  0  0  0  0  0
   37.2980   27.9770   30.0870 C   0  0  0  0  0  0  0  0  0  0  0  0
   38.5620   27.8490   30.5770 N   0  0  0  0  0  0  0  0  0  0  0  0
   39.7190   27.3070   32.2220 H   0  0  0  0  0  0  0  0  0  0  0  0
   35.5140   26.9630   32.7610 H   0  0  0  0  0  0  0  0  0  0  0  0
   37.1410   28.3330   29.0710 H   0  0  0  0  0  0  0  0  0  0  0  0
   37.8480   24.3090   33.3350 O   0  0  0  0  0  0  0  0  0  0  0  0
   37.4230   24.5560   32.4510 H   0  0  0  0  0  0  0  0  0  0  0  0
   38.3060   23.4420   35.8800 O   0  0  0  0  0  0  0  0  0  0  0  0
   39.5190   22.7830   35.8990 C   0  0  0  0  0  0  0  0  0  0  0  0
   39.9850   22.4430   37.1740 C   0  0  0  0  0  0  0  0  0  0  0  0
   39.4410   22.6770   38.0790 H   0  0  0  0  0  0  0  0  0  0  0  0
   41.1980   21.7740   37.3480 C   0  0  0  0  0  0  0  0  0  0  0  0
   41.5330   21.5250   38.3480 H   0  0  0  0  0  0  0  0  0  0  0  0
   41.9660   21.4330   36.2380 C   0  0  0  0  0  3  0  0  0  0  0  0
   41.4510   21.7970   34.9880 C   0  0  0  0  0  3  0  0  0  0  0  0
   40.2800   22.4420   34.8420 N   0  0  0  0  0  0  0  0  0  0  0  0
  1  6  1  0  0  0  0
  2  1  2  0  0  0  0
  2  3  1  0  0  0  0
  3  4  2  0  0  0  0
  4  5  1  0  0  0  0
  4  8  1  0  0  0  0
  5  9  1  0  0  0  0
  6 21  1  0  0  0  0
  6  5  2  0  0  0  0
  7  3  1  0  0  0  0
 10 16  1  0  0  0  0
 10 11  1  0  0  0  0
 11  2  1  0  0  0  0
 12 11  2  0  0  0  0
 12 17  1  0  0  0  0
 13 12  1  0  0  0  0
 14 15  1  0  0  0  0
 14 13  2  0  0  0  0
 15 10  2  0  0  0  0
 18 14  1  0  0  0  0
 19  1  1  0  0  0  0
 20 19  1  0  0  0  0
 21 22  1  0  0  0  0
 22 23  1  0  0  0  0
 23 25  2  0  0  0  0
 23 24  1  0  0  0  0
 25 26  1  0  0  0  0
 27 25  1  0  0  0  0
 28 27  2  0  0  0  0
 29 28  1  0  0  0  0
 29 22  2  0  0  0  0
M  END
>  <minimizedAffinity>
-4.93505764

$$$$

 OpenBabel03272501193D

 29 31  0  0  0  0  0  0  0  0999 V2000
   36.5040   26.3120   31.1410 C   0  0  0  0  0  0  0  0  0  0  0  0
   37.3530   27.3840   31.2540 C   0  0  0  0  0  0  0  0  0  0  0  0
   38.2550   27.2940   32.3130 C   0  0  0  0  0  0  0  0  0  0  0  0
   38.2820   26.2020   33.1780 C   0  0  0  0  0  0  0  0  0  0  0  0
   37.3710   25.1580   32.9770 C   0  0  0  0  0  0  0  0  0  0  0  0
   36.4600   25.2160   31.9330 C   0  0  0  0  0  0  0  0  0  0  0  0
   38.9520   28.1120   32.4520 H   0  0  0  0  0  0  0  0  0  0  0  0
   38.9890   26.1470   33.9980 H   0  0  0  0  0  0  0  0  0  0  0  0
   37.4260   24.3270   33.6730 H   0  0  0  0  0  0  0  0  0  0  0  0
   36.6860   29.6900   30.7500 C   0  0  0  0  0  0  0  0  0  0  0  0
   37.3400   28.5170   30.3720 C   0  0  0  0  0  0  0  0  0  0  0  0
   37.9610   28.5050   29.1270 C   0  0  0  0  0  0  0  0  0  0  0  0
   37.8960   29.6270   28.3570 N   0  0  0  0  0  0  0  0  0  0  0  0
   37.2510   30.7420   28.7650 C   0  0  0  0  0  0  0  0  0  0  0  0
   36.6350   30.7800   29.9790 N   0  0  0  0  0  0  0  0  0  0  0  0
   36.1970   29.7170   31.7160 H   0  0  0  0  0  0  0  0  0  0  0  0
   38.4750   27.6010   28.8130 H   0  0  0  0  0  0  0  0  0  0  0  0
   37.2260   31.6140   28.1140 H   0  0  0  0  0  0  0  0  0  0  0  0
   35.5520   26.3050   30.1010 O   0  0  0  0  0  0  0  0  0  0  0  0
   35.3210   27.1680   29.6270 H   0  0  0  0  0  0  0  0  0  0  0  0
   35.5920   24.1600   31.7870 O   0  0  0  0  0  0  0  0  0  0  0  0
   36.0400   22.8700   31.5810 C   0  0  0  0  0  0  0  0  0  0  0  0
   35.2270   21.8710   32.1280 C   0  0  0  0  0  0  0  0  0  0  0  0
   34.3170   22.0860   32.6710 H   0  0  0  0  0  0  0  0  0  0  0  0
   35.5540   20.5190   32.0000 C   0  0  0  0  0  0  0  0  0  0  0  0
   34.9060   19.7690   32.4340 H   0  0  0  0  0  0  0  0  0  0  0  0
   36.7090   20.1500   31.3170 C   0  0  0  0  0  3  0  0  0  0  0  0
   37.4840   21.1900   30.7910 C   0  0  0  0  0  3  0  0  0  0  0  0
   37.1510   22.4860   30.9260 N   0  0  0  0  0  0  0  0  0  0  0  0
  1  2  2  0  0  0  0
  1  6  1  0  0  0  0
  2  3  1  0  0  0  0
  3  7  1  0  0  0  0
  3  4  2  0  0  0  0
  4  8  1  0  0  0  0
  5  4  1  0  0  0  0
  5  9  1  0  0  0  0
  6  5  2  0  0  0  0
 10 16  1  0  0  0  0
 11 10  1  0  0  0  0
 11  2  1  0  0  0  0
 12 11  2  0  0  0  0
 13 14  2  0  0  0  0
 13 12  1  0  0  0  0
 14 15  1  0  0  0  0
 15 10  2  0  0  0  0
 17 12  1  0  0  0  0
 18 14  1  0  0  0  0
 19  1  1  0  0  0  0
 20 19  1  0  0  0  0
 21  6  1  0  0  0  0
 22 21  1  0  0  0  0
 22 23  1  0  0  0  0
 23 24  1  0  0  0  0
 25 23  2  0  0  0  0
 25 26  1  0  0  0  0
 27 25  1  0  0  0  0
 28 29  1  0  0  0  0
 28 27  2  0  0  0  0
 29 22  2  0  0  0  0
M  END
>  <minimizedAffinity>
-4.8705411

$$$$

 OpenBabel03272501193D

 29 31  0  0  0  0  0  0  0  0999 V2000
   36.9950   24.3740   32.5650 C   0  0  0  0  0  0  0  0  0  0  0  0
   36.1510   23.6790   31.7350 C   0  0  0  0  0  0  0  0  0  0  0  0
   35.3210   24.4830   30.9550 C   0  0  0  0  0  0  0  0  0  0  0  0
   35.3550   25.8740   31.0200 C   0  0  0  0  0  0  0  0  0  0  0  0
   36.2530   26.4870   31.9010 C   0  0  0  0  0  0  0  0  0  0  0  0
   37.0930   25.7170   32.6930 C   0  0  0  0  0  0  0  0  0  0  0  0
   34.6330   23.9890   30.2780 H   0  0  0  0  0  0  0  0  0  0  0  0
   34.7030   26.4850   30.4060 H   0  0  0  0  0  0  0  0  0  0  0  0
   36.2480   27.5720   31.9210 H   0  0  0  0  0  0  0  0  0  0  0  0
   35.1250   21.5380   32.3550 C   0  0  0  0  0  0  0  0  0  0  0  0
   36.1030   22.2460   31.6550 C   0  0  0  0  0  0  0  0  0  0  0  0
   37.0040   21.5080   30.8940 C   0  0  0  0  0  0  0  0  0  0  0  0
   36.8830   20.1510   30.8780 N   0  0  0  0  0  0  0  0  0  0  0  0
   35.9180   19.5080   31.5730 C   0  0  0  0  0  0  0  0  0  0  0  0
   35.0240   20.2070   32.3250 N   0  0  0  0  0  0  0  0  0  0  0  0
   34.4150   22.0970   32.9520 H   0  0  0  0  0  0  0  0  0  0  0  0
   37.7730   22.0390   30.3420 H   0  0  0  0  0  0  0  0  0  0  0  0
   35.8610   18.4220   31.5290 H   0  0  0  0  0  0  0  0  0  0  0  0
   37.8750   23.6550   33.3980 O   0  0  0  0  0  0  0  0  0  0  0  0
   37.7060   22.6740   33.5780 H   0  0  0  0  0  0  0  0  0  0  0  0
   37.9530   26.3780   33.5370 O   0  0  0  0  0  0  0  0  0  0  0  0
   39.2230   26.7490   33.1410 C   0  0  0  0  0  0  0  0  0  0  0  0
   40.1550   26.8550   34.1800 C   0  0  0  0  0  0  0  0  0  0  0  0
   39.9070   26.6620   35.2150 H   0  0  0  0  0  0  0  0  0  0  0  0
   41.4790   27.2220   33.9310 C   0  0  0  0  0  0  0  0  0  0  0  0
   42.1780   27.2960   34.7550 H   0  0  0  0  0  0  0  0  0  0  0  0
   41.8880   27.4900   32.6270 C   0  0  0  0  0  3  0  0  0  0  0  0
   40.9150   27.3680   31.6300 C   0  0  0  0  0  3  0  0  0  0  0  0
   39.6440   27.0140   31.8910 N   0  0  0  0  0  0  0  0  0  0  0  0
  1  6  1  0  0  0  0
  1 19  1  0  0  0  0
  2  1  2  0  0  0  0
  3  4  2  0  0  0  0
  3  2  1  0  0  0  0
  4  5  1  0  0  0  0
  5  9  1  0  0  0  0
  5  6  2  0  0  0  0
  6 21  1  0  0  0  0
  7  3  1  0  0  0  0
  8  4  1  0  0  0  0
 10 16  1  0  0  0  0
 11  2  1  0  0  0  0
 11 10  2  0  0  0  0
 12 11  1  0  0  0  0
 13 12  2  0  0  0  0
 13 14  1  0  0  0  0
 14 15  2  0  0  0  0
 15 10  1  0  0  0  0
 17 12  1  0  0  0  0
 18 14  1  0  0  0  0
 19 20  1  0  0  0  0
 22 21  1  0  0  0  0
 22 23  1  0  0  0  0
 23 24  1  0  0  0  0
 25 23  2  0  0  0  0
 25 26  1  0  0  0  0
 27 25  1  0  0  0  0
 28 29  1  0  0  0  0
 28 27  2  0  0  0  0
 29 22  2  0  0  0  0
M  END
>  <minimizedAffinity>
-4.86487198

$$$$
