
 OpenBabel03272507163D

 39 43  0  0  1  0  0  0  0  0999 V2000
   34.8950   29.1770   48.5040 C   0  0  0  0  0  0  0  0  0  0  0  0
   34.3780   27.9420   48.9140 C   0  0  0  0  0  0  0  0  0  0  0  0
   34.9080   27.3510   49.6740 H   0  0  0  0  0  0  0  0  0  0  0  0
   33.2050   27.4760   48.3600 C   0  0  0  0  0  0  0  0  0  0  0  0
   32.8630   26.5120   48.7250 H   0  0  0  0  0  0  0  0  0  0  0  0
   32.4790   28.1500   47.4050 C   0  0  0  0  0  0  0  0  0  0  0  0
   33.0080   29.3530   47.0240 C   0  0  0  0  0  0  0  0  0  0  0  0
   34.1510   29.8380   47.5440 C   0  0  0  0  0  0  0  0  0  0  0  0
   34.5500   30.7980   47.2230 H   0  0  0  0  0  0  0  0  0  0  0  0
   32.1580   30.3200   45.7920 S   0  0  0  0  0  0  0  0  0  0  0  0
   30.7160   29.3710   45.3500 C   0  0  0  0  0  0  0  0  0  0  0  0
   29.8800   29.8880   44.4150 C   0  0  0  0  0  0  0  0  0  0  0  0
   30.0900   30.8550   43.9530 H   0  0  0  0  0  0  0  0  0  0  0  0
   28.7390   29.2270   44.0080 C   0  0  0  0  0  0  0  0  0  0  0  0
   28.0730   29.6360   43.2650 H   0  0  0  0  0  0  0  0  0  0  0  0
   28.4620   28.0050   44.5840 C   0  0  0  0  0  0  0  0  0  0  0  0
   27.5800   27.4440   44.3010 H   0  0  0  0  0  0  0  0  0  0  0  0
   29.3480   27.5280   45.5300 C   0  0  0  0  0  0  0  0  0  0  0  0
   29.0790   26.5520   45.9550 H   0  0  0  0  0  0  0  0  0  0  0  0
   30.4940   28.1610   45.9580 C   0  0  0  0  0  0  0  0  0  0  0  0
   31.3020   27.5630   46.9240 N   0  0  0  0  0  0  0  0  0  0  0  0
   31.0050   26.6370   47.2980 H   0  0  0  0  0  0  0  0  0  0  0  0
   36.0620   29.5910   49.0880 O   0  0  0  0  0  0  0  0  0  0  0  0
   36.9700   31.6750   50.0170 C   0  0  1  0  0  0  0  0  0  0  0  0
   36.2100   30.4560   50.1780 C   0  0  2  0  0  0  0  0  0  0  0  0
   37.5960   30.5080   50.7900 C   0  0  0  0  0  0  0  0  0  0  0  0
   36.8910   32.5720   50.6780 H   0  0  0  0  0  0  0  0  0  0  0  0
   35.3430   30.4690   50.8580 H   0  0  0  0  0  0  0  0  0  0  0  0
   37.6020   30.5300   51.8900 H   0  0  0  0  0  0  0  0  0  0  0  0
   38.4120   29.9290   50.3090 H   0  0  0  0  0  0  0  0  0  0  0  0
   37.7110   31.9690   48.7270 C   0  0  0  0  0  0  0  0  0  0  0  0
   38.7670   32.8830   48.8160 C   0  0  0  0  0  0  0  0  0  0  0  0
   39.4180   33.1500   47.6280 C   0  0  0  0  0  0  0  0  0  0  0  0
   39.0390   32.5510   46.4560 N   0  0  0  0  0  0  0  0  0  0  0  0
   38.0000   31.6640   46.4220 C   0  0  0  0  0  0  0  0  0  0  0  0
   37.3290   31.3700   47.5670 N   0  0  0  0  0  0  0  0  0  0  0  0
   39.0290   33.3280   49.7640 H   0  0  0  0  0  0  0  0  0  0  0  0
   40.2460   33.8510   47.6400 H   0  0  0  0  0  0  0  0  0  0  0  0
   37.7080   31.1980   45.4930 H   0  0  0  0  0  0  0  0  0  0  0  0
  1  2  1  0  0  0  0
  1 23  1  0  0  0  0
  2  3  1  0  0  0  0
  4  5  1  0  0  0  0
  4  2  2  0  0  0  0
  6  4  1  0  0  0  0
  7  6  2  0  0  0  0
  7  8  1  0  0  0  0
  8  1  2  0  0  0  0
  9  8  1  0  0  0  0
 10  7  1  0  0  0  0
 11 10  1  0  0  0  0
 11 20  1  0  0  0  0
 12 11  2  0  0  0  0
 13 12  1  0  0  0  0
 14 12  1  0  0  0  0
 14 16  2  0  0  0  0
 15 14  1  0  0  0  0
 16 18  1  0  0  0  0
 17 16  1  0  0  0  0
 18 19  1  0  0  0  0
 18 20  2  0  0  0  0
 20 21  1  0  0  0  0
 21 22  1  0  0  0  0
 21  6  1  0  0  0  0
 23 25  1  0  0  0  0
 24 25  1  0  0  0  0
 24 27  1  1  0  0  0
 24 26  1  0  0  0  0
 25 26  1  0  0  0  0
 25 28  1  1  0  0  0
 26 29  1  0  0  0  0
 30 26  1  0  0  0  0
 31 32  1  0  0  0  0
 31 24  1  0  0  0  0
 32 37  1  0  0  0  0
 33 38  1  0  0  0  0
 33 32  2  0  0  0  0
 34 33  1  0  0  0  0
 35 34  2  0  0  0  0
 35 36  1  0  0  0  0
 36 31  2  0  0  0  0
 39 35  1  0  0  0  0
M  END
>  <minimizedAffinity>
-5.96666718

>  <minimizedRMSD>
4.20356464

$$$$
