
 OpenBabel03272503303D

 47 51  0  0  1  0  0  0  0  0999 V2000
   35.5020   29.6520   47.9740 C   0  0  0  0  0  0  0  0  0  0  0  0
   35.4450   30.0830   46.6500 C   0  0  0  0  0  0  0  0  0  0  0  0
   34.3200   29.7450   45.9130 C   0  0  0  0  0  0  0  0  0  0  0  0
   33.3440   29.0120   46.5430 N   0  0  0  0  0  0  0  0  0  0  0  0
   33.4310   28.6140   47.8210 C   0  0  0  0  0  0  0  0  0  0  0  0
   34.5160   28.9370   48.5390 N   0  0  0  0  0  0  0  0  0  0  0  0
   36.2020   30.6540   46.1530 H   0  0  0  0  0  0  0  0  0  0  0  0
   34.1900   30.0390   44.8730 H   0  0  0  0  0  0  0  0  0  0  0  0
   36.6780   30.0120   48.7230 N   0  0  0  0  0  0  0  0  0  0  0  0
   37.7990   30.7620   48.2610 C   0  0  0  0  0  0  0  0  0  0  0  0
   38.3010   31.4400   49.5370 C   0  0  2  0  0  0  0  0  0  0  0  0
   37.3140   31.0660   50.6160 C   0  0  0  0  0  0  0  0  0  0  0  0
   36.9460   29.6760   50.0990 C   0  0  0  0  0  0  0  0  0  0  0  0
   38.5720   30.0400   47.9420 H   0  0  0  0  0  0  0  0  0  0  0  0
   37.5540   31.5250   47.4900 H   0  0  0  0  0  0  0  0  0  0  0  0
   39.2820   30.9990   49.8590 H   0  0  0  0  0  0  0  0  0  0  0  0
   36.4090   31.6840   50.5300 H   0  0  0  0  0  0  0  0  0  0  0  0
   37.7500   31.0470   51.6210 H   0  0  0  0  0  0  0  0  0  0  0  0
   36.0120   29.3580   50.5910 H   0  0  0  0  0  0  0  0  0  0  0  0
   37.7850   28.9670   50.2330 H   0  0  0  0  0  0  0  0  0  0  0  0
   38.4750   32.9210   49.3820 C   0  0  0  0  0  0  0  0  0  0  0  0
   37.2560   33.4860   49.7030 F   0  0  0  0  0  0  0  0  0  0  0  0
   38.7010   33.1640   48.0490 F   0  0  0  0  0  0  0  0  0  0  0  0
   39.4870   33.4340   50.1350 F   0  0  0  0  0  0  0  0  0  0  0  0
   32.1400   27.6630   48.6000 S   0  0  0  0  0  0  0  0  0  0  0  0
   31.0600   26.9420   47.3800 C   0  0  0  0  0  0  0  0  0  0  0  0
   31.3080   25.6990   46.8050 C   0  0  0  0  0  0  0  0  0  0  0  0
   32.1750   25.1530   47.0980 H   0  0  0  0  0  0  0  0  0  0  0  0
   30.4150   25.2120   45.8620 C   0  0  0  0  0  0  0  0  0  0  0  0
   30.6750   24.2360   45.4570 H   0  0  0  0  0  0  0  0  0  0  0  0
   29.2790   25.8800   45.4470 C   0  0  0  0  0  0  0  0  0  0  0  0
   29.0710   27.0980   46.0360 C   0  0  0  0  0  0  0  0  0  0  0  0
   29.9260   27.5960   46.9590 C   0  0  0  0  0  0  0  0  0  0  0  0
   29.7080   28.5770   47.3970 H   0  0  0  0  0  0  0  0  0  0  0  0
   27.6350   28.0170   45.5580 S   0  0  0  0  0  0  0  0  0  0  0  0
   26.7820   27.0370   44.3450 C   0  0  0  0  0  0  0  0  0  0  0  0
   25.6290   27.5340   43.8150 C   0  0  0  0  0  0  0  0  0  0  0  0
   25.2150   28.5020   44.1030 H   0  0  0  0  0  0  0  0  0  0  0  0
   24.9110   26.8280   42.8660 C   0  0  0  0  0  0  0  0  0  0  0  0
   24.0050   27.2280   42.4540 H   0  0  0  0  0  0  0  0  0  0  0  0
   25.3970   25.6000   42.4700 C   0  0  0  0  0  0  0  0  0  0  0  0
   24.8640   25.0280   41.7380 H   0  0  0  0  0  0  0  0  0  0  0  0
   26.5680   25.1570   43.0470 C   0  0  0  0  0  0  0  0  0  0  0  0
   26.8960   24.1710   42.6860 H   0  0  0  0  0  0  0  0  0  0  0  0
   27.3160   25.8240   43.9940 C   0  0  0  0  0  0  0  0  0  0  0  0
   28.4930   25.2400   44.4900 N   0  0  0  0  0  0  0  0  0  0  0  0
   28.7560   24.3050   44.1100 H   0  0  0  0  0  0  0  0  0  0  0  0
  1  6  1  0  0  0  0
  1  9  1  0  0  0  0
  2  1  2  0  0  0  0
  3  4  2  0  0  0  0
  3  2  1  0  0  0  0
  4  5  1  0  0  0  0
  5  6  2  0  0  0  0
  5 25  1  0  0  0  0
  7  2  1  0  0  0  0
  8  3  1  0  0  0  0
  9 13  1  0  0  0  0
 10  9  1  0  0  0  0
 10 11  1  0  0  0  0
 11 16  1  1  0  0  0
 11 12  1  0  0  0  0
 12 18  1  0  0  0  0
 13 20  1  0  0  0  0
 13 19  1  0  0  0  0
 13 12  1  0  0  0  0
 14 10  1  0  0  0  0
 15 10  1  0  0  0  0
 17 12  1  0  0  0  0
 21 11  1  0  0  0  0
 21 22  1  0  0  0  0
 21 24  1  0  0  0  0
 23 21  1  0  0  0  0
 26 25  1  0  0  0  0
 27 28  1  0  0  0  0
 27 26  2  0  0  0  0
 29 27  1  0  0  0  0
 30 29  1  0  0  0  0
 31 29  2  0  0  0  0
 31 32  1  0  0  0  0
 32 33  2  0  0  0  0
 33 26  1  0  0  0  0
 33 34  1  0  0  0  0
 35 32  1  0  0  0  0
 36 35  1  0  0  0  0
 37 38  1  0  0  0  0
 37 36  2  0  0  0  0
 39 37  1  0  0  0  0
 40 39  1  0  0  0  0
 41 39  2  0  0  0  0
 41 43  1  0  0  0  0
 42 41  1  0  0  0  0
 43 45  2  0  0  0  0
 44 43  1  0  0  0  0
 45 36  1  0  0  0  0
 45 46  1  0  0  0  0
 46 31  1  0  0  0  0
 47 46  1  0  0  0  0
M  END
>  <minimizedAffinity>
-6.8819356

>  <minimizedRMSD>
1.31128871

$$$$
