
 OpenBabel03272507173D

 39 43  0  0  1  0  0  0  0  0999 V2000
   37.2660   27.3100   34.3620 C   0  0  0  0  0  0  0  0  0  0  0  0
   38.3810   27.4190   33.5200 C   0  0  0  0  0  0  0  0  0  0  0  0
   38.4010   28.1840   32.7330 H   0  0  0  0  0  0  0  0  0  0  0  0
   39.4490   26.5620   33.6880 C   0  0  0  0  0  0  0  0  0  0  0  0
   40.2770   26.7030   33.0020 H   0  0  0  0  0  0  0  0  0  0  0  0
   39.5050   25.5770   34.6480 C   0  0  0  0  0  0  0  0  0  0  0  0
   38.4040   25.4930   35.4540 C   0  0  0  0  0  0  0  0  0  0  0  0
   37.3450   26.3140   35.3170 C   0  0  0  0  0  0  0  0  0  0  0  0
   36.4800   26.2270   35.9720 H   0  0  0  0  0  0  0  0  0  0  0  0
   38.3600   24.2560   36.7340 S   0  0  0  0  0  0  0  0  0  0  0  0
   39.9070   23.3810   36.6070 C   0  0  0  0  0  0  0  0  0  0  0  0
   40.1350   22.3690   37.4800 C   0  0  0  0  0  0  0  0  0  0  0  0
   39.3910   22.1050   38.2350 H   0  0  0  0  0  0  0  0  0  0  0  0
   41.3030   21.6330   37.4590 C   0  0  0  0  0  0  0  0  0  0  0  0
   41.4870   20.8280   38.1520 H   0  0  0  0  0  0  0  0  0  0  0  0
   42.2510   21.9560   36.5110 C   0  0  0  0  0  0  0  0  0  0  0  0
   43.1850   21.4120   36.4500 H   0  0  0  0  0  0  0  0  0  0  0  0
   41.9650   22.9960   35.6470 C   0  0  0  0  0  0  0  0  0  0  0  0
   42.7530   23.2090   34.9140 H   0  0  0  0  0  0  0  0  0  0  0  0
   40.8100   23.7490   35.6420 C   0  0  0  0  0  0  0  0  0  0  0  0
   40.6500   24.7720   34.7100 N   0  0  0  0  0  0  0  0  0  0  0  0
   41.4260   24.9380   34.0340 H   0  0  0  0  0  0  0  0  0  0  0  0
   36.2370   28.1860   34.1500 O   0  0  0  0  0  0  0  0  0  0  0  0
   35.3690   30.2480   33.1360 C   0  0  1  0  0  0  0  0  0  0  0  0
   35.9880   28.9480   33.0020 C   0  0  2  0  0  0  0  0  0  0  0  0
   34.5300   29.0790   32.6050 C   0  0  0  0  0  0  0  0  0  0  0  0
   35.4150   31.0610   32.3720 H   0  0  0  0  0  0  0  0  0  0  0  0
   36.7320   28.8050   32.2020 H   0  0  0  0  0  0  0  0  0  0  0  0
   34.3490   28.9900   31.5230 H   0  0  0  0  0  0  0  0  0  0  0  0
   33.7580   28.6360   33.2670 H   0  0  0  0  0  0  0  0  0  0  0  0
   34.8730   30.7430   34.4800 C   0  0  0  0  0  0  0  0  0  0  0  0
   35.8060   31.4250   35.2680 C   0  0  0  0  0  0  0  0  0  0  0  0
   35.3400   31.8530   36.4970 C   0  0  0  0  0  0  0  0  0  0  0  0
   34.0520   31.6130   36.8930 N   0  0  0  0  0  0  0  0  0  0  0  0
   33.1780   30.9420   36.0860 C   0  0  0  0  0  0  0  0  0  0  0  0
   33.5920   30.5020   34.8680 N   0  0  0  0  0  0  0  0  0  0  0  0
   36.8110   31.5910   34.9110 H   0  0  0  0  0  0  0  0  0  0  0  0
   36.0220   32.3890   37.1480 H   0  0  0  0  0  0  0  0  0  0  0  0
   32.1650   30.7570   36.4090 H   0  0  0  0  0  0  0  0  0  0  0  0
  1  8  1  0  0  0  0
  2  4  1  0  0  0  0
  2  1  2  0  0  0  0
  3  2  1  0  0  0  0
  4  6  2  0  0  0  0
  5  4  1  0  0  0  0
  6 21  1  0  0  0  0
  6  7  1  0  0  0  0
  7 10  1  0  0  0  0
  8  7  2  0  0  0  0
  8  9  1  0  0  0  0
 11 10  1  0  0  0  0
 11 12  1  0  0  0  0
 12 13  1  0  0  0  0
 14 12  2  0  0  0  0
 14 15  1  0  0  0  0
 16 14  1  0  0  0  0
 17 16  1  0  0  0  0
 18 16  2  0  0  0  0
 19 18  1  0  0  0  0
 20 18  1  0  0  0  0
 20 11  2  0  0  0  0
 21 20  1  0  0  0  0
 22 21  1  0  0  0  0
 23  1  1  0  0  0  0
 24 27  1  6  0  0  0
 24 31  1  0  0  0  0
 25 28  1  6  0  0  0
 25 24  1  0  0  0  0
 25 23  1  0  0  0  0
 26 25  1  0  0  0  0
 26 24  1  0  0  0  0
 26 30  1  0  0  0  0
 29 26  1  0  0  0  0
 31 36  2  0  0  0  0
 31 32  1  0  0  0  0
 32 33  2  0  0  0  0
 33 34  1  0  0  0  0
 33 38  1  0  0  0  0
 35 39  1  0  0  0  0
 35 34  2  0  0  0  0
 36 35  1  0  0  0  0
 37 32  1  0  0  0  0
M  END
>  <minimizedAffinity>
-5.88104773

$$$$

 OpenBabel03272507173D

 39 43  0  0  1  0  0  0  0  0999 V2000
   38.3840   24.4220   36.1590 C   0  0  0  0  0  0  0  0  0  0  0  0
   38.3470   23.9950   37.4930 C   0  0  0  0  0  0  0  0  0  0  0  0
   37.6040   24.4170   38.1830 H   0  0  0  0  0  0  0  0  0  0  0  0
   39.2450   23.0430   37.9300 C   0  0  0  0  0  0  0  0  0  0  0  0
   39.1590   22.7600   38.9730 H   0  0  0  0  0  0  0  0  0  0  0  0
   40.2060   22.4640   37.1320 C   0  0  0  0  0  0  0  0  0  0  0  0
   40.2190   22.9000   35.8360 C   0  0  0  0  0  0  0  0  0  0  0  0
   39.3560   23.8280   35.3770 C   0  0  0  0  0  0  0  0  0  0  0  0
   39.3870   24.1580   34.3410 H   0  0  0  0  0  0  0  0  0  0  0  0
   41.4180   22.2240   34.7070 S   0  0  0  0  0  0  0  0  0  0  0  0
   42.3640   21.0520   35.6590 C   0  0  0  0  0  0  0  0  0  0  0  0
   43.3610   20.3830   35.0300 C   0  0  0  0  0  0  0  0  0  0  0  0
   43.5720   20.5600   33.9730 H   0  0  0  0  0  0  0  0  0  0  0  0
   44.1480   19.4560   35.6840 C   0  0  0  0  0  0  0  0  0  0  0  0
   44.9420   18.9220   35.1860 H   0  0  0  0  0  0  0  0  0  0  0  0
   43.8930   19.2220   37.0190 C   0  0  0  0  0  0  0  0  0  0  0  0
   44.4790   18.5060   37.5800 H   0  0  0  0  0  0  0  0  0  0  0  0
   42.8650   19.9330   37.6090 C   0  0  0  0  0  0  0  0  0  0  0  0
   42.7060   19.7070   38.6700 H   0  0  0  0  0  0  0  0  0  0  0  0
   42.0620   20.8630   36.9840 C   0  0  0  0  0  0  0  0  0  0  0  0
   41.0580   21.5100   37.7020 N   0  0  0  0  0  0  0  0  0  0  0  0
   40.9450   21.2630   38.7080 H   0  0  0  0  0  0  0  0  0  0  0  0
   37.4690   25.3670   35.7810 O   0  0  0  0  0  0  0  0  0  0  0  0
   37.8630   27.3720   34.4170 C   0  0  1  0  0  0  0  0  0  0  0  0
   37.6550   26.7530   35.7070 C   0  0  2  0  0  0  0  0  0  0  0  0
   39.0600   27.2080   35.3620 C   0  0  0  0  0  0  0  0  0  0  0  0
   37.7000   28.4530   34.1910 H   0  0  0  0  0  0  0  0  0  0  0  0
   37.1000   27.3190   36.4730 H   0  0  0  0  0  0  0  0  0  0  0  0
   39.4090   28.0720   35.9470 H   0  0  0  0  0  0  0  0  0  0  0  0
   39.8240   26.4400   35.1230 H   0  0  0  0  0  0  0  0  0  0  0  0
   38.0060   26.5330   33.1630 C   0  0  0  0  0  0  0  0  0  0  0  0
   36.8220   26.0090   32.6320 C   0  0  0  0  0  0  0  0  0  0  0  0
   36.9750   25.2330   31.4990 C   0  0  0  0  0  0  0  0  0  0  0  0
   38.2100   25.0070   30.9520 N   0  0  0  0  0  0  0  0  0  0  0  0
   39.3370   25.5430   31.5080 C   0  0  0  0  0  0  0  0  0  0  0  0
   39.2350   26.3130   32.6240 N   0  0  0  0  0  0  0  0  0  0  0  0
   35.8720   26.2160   33.1000 H   0  0  0  0  0  0  0  0  0  0  0  0
   36.0890   24.8020   31.0460 H   0  0  0  0  0  0  0  0  0  0  0  0
   40.3060   25.3570   31.0690 H   0  0  0  0  0  0  0  0  0  0  0  0
  1  2  1  0  0  0  0
  2  4  2  0  0  0  0
  2  3  1  0  0  0  0
  4  5  1  0  0  0  0
  6 21  1  0  0  0  0
  6  4  1  0  0  0  0
  7  6  2  0  0  0  0
  8  7  1  0  0  0  0
  8  1  2  0  0  0  0
  9  8  1  0  0  0  0
 10 11  1  0  0  0  0
 10  7  1  0  0  0  0
 11 20  1  0  0  0  0
 12 11  2  0  0  0  0
 12 14  1  0  0  0  0
 13 12  1  0  0  0  0
 14 16  2  0  0  0  0
 15 14  1  0  0  0  0
 16 17  1  0  0  0  0
 16 18  1  0  0  0  0
 18 19  1  0  0  0  0
 20 18  2  0  0  0  0
 20 21  1  0  0  0  0
 21 22  1  0  0  0  0
 23  1  1  0  0  0  0
 24 27  1  6  0  0  0
 24 26  1  0  0  0  0
 24 25  1  0  0  0  0
 25 23  1  0  0  0  0
 25 28  1  1  0  0  0
 26 25  1  0  0  0  0
 26 29  1  0  0  0  0
 30 26  1  0  0  0  0
 31 24  1  0  0  0  0
 32 37  1  0  0  0  0
 32 31  1  0  0  0  0
 33 32  2  0  0  0  0
 34 33  1  0  0  0  0
 34 35  2  0  0  0  0
 35 36  1  0  0  0  0
 36 31  2  0  0  0  0
 38 33  1  0  0  0  0
 39 35  1  0  0  0  0
M  END
>  <minimizedAffinity>
-5.66574955

$$$$

 OpenBabel03272507173D

 39 43  0  0  1  0  0  0  0  0999 V2000
   38.3210   25.4980   33.9510 C   0  0  0  0  0  0  0  0  0  0  0  0
   38.4970   26.1410   35.1840 C   0  0  0  0  0  0  0  0  0  0  0  0
   39.1590   25.7010   35.9410 H   0  0  0  0  0  0  0  0  0  0  0  0
   37.8360   27.3250   35.4350 C   0  0  0  0  0  0  0  0  0  0  0  0
   38.0200   27.7670   36.4090 H   0  0  0  0  0  0  0  0  0  0  0  0
   36.9910   27.9430   34.5420 C   0  0  0  0  0  0  0  0  0  0  0  0
   36.8380   27.2940   33.3490 C   0  0  0  0  0  0  0  0  0  0  0  0
   37.4680   26.1360   33.0710 C   0  0  0  0  0  0  0  0  0  0  0  0
   37.3290   25.6390   32.1130 H   0  0  0  0  0  0  0  0  0  0  0  0
   35.7660   27.9970   32.1120 S   0  0  0  0  0  0  0  0  0  0  0  0
   35.1250   29.4960   32.8300 C   0  0  0  0  0  0  0  0  0  0  0  0
   34.2690   30.2380   32.0870 C   0  0  0  0  0  0  0  0  0  0  0  0
   33.9860   29.9230   31.0800 H   0  0  0  0  0  0  0  0  0  0  0  0
   33.7200   31.4140   32.5570 C   0  0  0  0  0  0  0  0  0  0  0  0
   33.0380   32.0070   31.9670 H   0  0  0  0  0  0  0  0  0  0  0  0
   34.0680   31.8250   33.8270 C   0  0  0  0  0  0  0  0  0  0  0  0
   33.6670   32.7390   34.2460 H   0  0  0  0  0  0  0  0  0  0  0  0
   34.9450   31.0290   34.5400 C   0  0  0  0  0  0  0  0  0  0  0  0
   35.1870   31.4030   35.5420 H   0  0  0  0  0  0  0  0  0  0  0  0
   35.5090   29.8510   34.0980 C   0  0  0  0  0  0  0  0  0  0  0  0
   36.3810   29.1450   34.9250 N   0  0  0  0  0  0  0  0  0  0  0  0
   36.5810   29.5390   35.8690 H   0  0  0  0  0  0  0  0  0  0  0  0
   39.0020   24.3270   33.7550 O   0  0  0  0  0  0  0  0  0  0  0  0
   38.1840   22.1610   34.5760 C   0  0  1  0  0  0  0  0  0  0  0  0
   38.4640   23.0640   33.4820 C   0  0  2  0  0  0  0  0  0  0  0  0
   39.4040   21.8920   33.6860 C   0  0  0  0  0  0  0  0  0  0  0  0
   37.4800   21.2960   34.5290 H   0  0  0  0  0  0  0  0  0  0  0  0
   37.7940   23.0440   32.6060 H   0  0  0  0  0  0  0  0  0  0  0  0
   39.3420   21.1230   32.9010 H   0  0  0  0  0  0  0  0  0  0  0  0
   40.4150   22.0890   34.0980 H   0  0  0  0  0  0  0  0  0  0  0  0
   38.5800   22.5110   35.9970 C   0  0  0  0  0  0  0  0  0  0  0  0
   37.5760   23.0700   36.7960 C   0  0  0  0  0  0  0  0  0  0  0  0
   37.9600   23.3970   38.0820 C   0  0  0  0  0  0  0  0  0  0  0  0
   39.2390   23.1810   38.5210 N   0  0  0  0  0  0  0  0  0  0  0  0
   40.1830   22.6310   37.7010 C   0  0  0  0  0  0  0  0  0  0  0  0
   39.8510   22.2920   36.4270 N   0  0  0  0  0  0  0  0  0  0  0  0
   36.5820   23.2210   36.4050 H   0  0  0  0  0  0  0  0  0  0  0  0
   37.2220   23.8340   38.7460 H   0  0  0  0  0  0  0  0  0  0  0  0
   41.1890   22.4650   38.0570 H   0  0  0  0  0  0  0  0  0  0  0  0
  1  2  1  0  0  0  0
  2  4  2  0  0  0  0
  2  3  1  0  0  0  0
  4  5  1  0  0  0  0
  6 21  1  0  0  0  0
  6  4  1  0  0  0  0
  7  6  2  0  0  0  0
  8  7  1  0  0  0  0
  8  1  2  0  0  0  0
  9  8  1  0  0  0  0
 10 11  1  0  0  0  0
 10  7  1  0  0  0  0
 11 20  1  0  0  0  0
 12 14  1  0  0  0  0
 12 11  2  0  0  0  0
 13 12  1  0  0  0  0
 14 16  2  0  0  0  0
 15 14  1  0  0  0  0
 16 17  1  0  0  0  0
 16 18  1  0  0  0  0
 18 19  1  0  0  0  0
 20 18  2  0  0  0  0
 20 21  1  0  0  0  0
 21 22  1  0  0  0  0
 23  1  1  0  0  0  0
 24 27  1  6  0  0  0
 24 31  1  0  0  0  0
 25 28  1  6  0  0  0
 25 26  1  0  0  0  0
 25 23  1  0  0  0  0
 25 24  1  0  0  0  0
 26 30  1  0  0  0  0
 26 24  1  0  0  0  0
 29 26  1  0  0  0  0
 31 36  2  0  0  0  0
 31 32  1  0  0  0  0
 32 33  2  0  0  0  0
 33 34  1  0  0  0  0
 33 38  1  0  0  0  0
 35 39  1  0  0  0  0
 35 34  2  0  0  0  0
 36 35  1  0  0  0  0
 37 32  1  0  0  0  0
M  END
>  <minimizedAffinity>
-5.58773184

$$$$

 OpenBabel03272507173D

 39 43  0  0  1  0  0  0  0  0999 V2000
   40.7030   25.2580   34.6310 C   0  0  0  0  0  0  0  0  0  0  0  0
   40.9460   25.3060   33.2520 C   0  0  0  0  0  0  0  0  0  0  0  0
   41.8030   24.7660   32.8280 H   0  0  0  0  0  0  0  0  0  0  0  0
   40.1050   26.0340   32.4360 C   0  0  0  0  0  0  0  0  0  0  0  0
   40.3540   26.0270   31.3810 H   0  0  0  0  0  0  0  0  0  0  0  0
   39.0120   26.7390   32.8860 C   0  0  0  0  0  0  0  0  0  0  0  0
   38.7990   26.6740   34.2350 C   0  0  0  0  0  0  0  0  0  0  0  0
   39.6000   25.9720   35.0600 C   0  0  0  0  0  0  0  0  0  0  0  0
   39.4090   25.9370   36.1300 H   0  0  0  0  0  0  0  0  0  0  0  0
   37.4130   27.5470   34.9360 S   0  0  0  0  0  0  0  0  0  0  0  0
   36.6040   28.3410   33.5610 C   0  0  0  0  0  0  0  0  0  0  0  0
   35.5000   29.0840   33.8200 C   0  0  0  0  0  0  0  0  0  0  0  0
   35.1240   29.1880   34.8410 H   0  0  0  0  0  0  0  0  0  0  0  0
   34.8060   29.7370   32.8220 C   0  0  0  0  0  0  0  0  0  0  0  0
   33.9280   30.3300   33.0260 H   0  0  0  0  0  0  0  0  0  0  0  0
   35.2700   29.6160   31.5300 C   0  0  0  0  0  0  0  0  0  0  0  0
   34.7640   30.1070   30.7080 H   0  0  0  0  0  0  0  0  0  0  0  0
   36.3990   28.8460   31.3240 C   0  0  0  0  0  0  0  0  0  0  0  0
   36.7230   28.7840   30.2780 H   0  0  0  0  0  0  0  0  0  0  0  0
   37.1140   28.1820   32.2980 C   0  0  0  0  0  0  0  0  0  0  0  0
   38.2400   27.4380   31.9500 N   0  0  0  0  0  0  0  0  0  0  0  0
   38.5090   27.4080   30.9430 H   0  0  0  0  0  0  0  0  0  0  0  0
   41.5690   24.5200   35.3920 O   0  0  0  0  0  0  0  0  0  0  0  0
   41.0060   22.1610   35.7790 C   0  0  1  0  0  0  0  0  0  0  0  0
   41.8950   23.1670   35.2430 C   0  0  2  0  0  0  0  0  0  0  0  0
   42.3220   22.4520   36.5100 C   0  0  0  0  0  0  0  0  0  0  0  0
   40.9780   21.0920   35.4550 H   0  0  0  0  0  0  0  0  0  0  0  0
   42.4380   22.9390   34.3110 H   0  0  0  0  0  0  0  0  0  0  0  0
   43.1770   21.7720   36.3770 H   0  0  0  0  0  0  0  0  0  0  0  0
   42.2840   23.0050   37.4710 H   0  0  0  0  0  0  0  0  0  0  0  0
   39.7950   22.5480   36.6050 C   0  0  0  0  0  0  0  0  0  0  0  0
   38.5600   22.5020   35.9480 C   0  0  0  0  0  0  0  0  0  0  0  0
   37.4710   22.8740   36.7120 C   0  0  0  0  0  0  0  0  0  0  0  0
   37.6150   23.2590   38.0190 N   0  0  0  0  0  0  0  0  0  0  0  0
   38.8450   23.2870   38.6150 C   0  0  0  0  0  0  0  0  0  0  0  0
   39.9450   22.9290   37.9020 N   0  0  0  0  0  0  0  0  0  0  0  0
   38.4980   22.1900   34.9170 H   0  0  0  0  0  0  0  0  0  0  0  0
   36.4890   22.8560   36.2530 H   0  0  0  0  0  0  0  0  0  0  0  0
   38.9470   23.5930   39.6450 H   0  0  0  0  0  0  0  0  0  0  0  0
  1  8  1  0  0  0  0
  1 23  1  0  0  0  0
  2  1  2  0  0  0  0
  3  2  1  0  0  0  0
  4  6  2  0  0  0  0
  4  2  1  0  0  0  0
  5  4  1  0  0  0  0
  6  7  1  0  0  0  0
  7 10  1  0  0  0  0
  7  8  2  0  0  0  0
  8  9  1  0  0  0  0
 11 12  1  0  0  0  0
 11 10  1  0  0  0  0
 12 13  1  0  0  0  0
 14 15  1  0  0  0  0
 14 12  2  0  0  0  0
 16 14  1  0  0  0  0
 17 16  1  0  0  0  0
 18 16  2  0  0  0  0
 18 20  1  0  0  0  0
 19 18  1  0  0  0  0
 20 11  2  0  0  0  0
 21 20  1  0  0  0  0
 21  6  1  0  0  0  0
 22 21  1  0  0  0  0
 24 27  1  6  0  0  0
 24 26  1  0  0  0  0
 24 31  1  0  0  0  0
 25 28  1  6  0  0  0
 25 23  1  0  0  0  0
 25 24  1  0  0  0  0
 25 26  1  0  0  0  0
 26 30  1  0  0  0  0
 29 26  1  0  0  0  0
 31 36  1  0  0  0  0
 32 31  2  0  0  0  0
 32 33  1  0  0  0  0
 33 34  2  0  0  0  0
 34 35  1  0  0  0  0
 35 39  1  0  0  0  0
 36 35  2  0  0  0  0
 37 32  1  0  0  0  0
 38 33  1  0  0  0  0
M  END
>  <minimizedAffinity>
-5.53134394

$$$$

 OpenBabel03272507173D

 39 43  0  0  1  0  0  0  0  0999 V2000
   38.1970   27.3000   31.9180 C   0  0  0  0  0  0  0  0  0  0  0  0
   37.1630   27.7410   32.7550 C   0  0  0  0  0  0  0  0  0  0  0  0
   36.4720   28.5210   32.4080 H   0  0  0  0  0  0  0  0  0  0  0  0
   37.0200   27.1890   34.0110 C   0  0  0  0  0  0  0  0  0  0  0  0
   36.1980   27.5780   34.6030 H   0  0  0  0  0  0  0  0  0  0  0  0
   37.8400   26.2090   34.5220 C   0  0  0  0  0  0  0  0  0  0  0  0
   38.8400   25.7990   33.6840 C   0  0  0  0  0  0  0  0  0  0  0  0
   39.0080   26.3170   32.4520 C   0  0  0  0  0  0  0  0  0  0  0  0
   39.8120   25.9730   31.8050 H   0  0  0  0  0  0  0  0  0  0  0  0
   39.9670   24.5350   34.2360 S   0  0  0  0  0  0  0  0  0  0  0  0
   39.4370   24.1060   35.8810 C   0  0  0  0  0  0  0  0  0  0  0  0
   40.1350   23.1510   36.5430 C   0  0  0  0  0  0  0  0  0  0  0  0
   40.9940   22.6640   36.0760 H   0  0  0  0  0  0  0  0  0  0  0  0
   39.8010   22.7520   37.8210 C   0  0  0  0  0  0  0  0  0  0  0  0
   40.3560   21.9920   38.3500 H   0  0  0  0  0  0  0  0  0  0  0  0
   38.7200   23.3590   38.4240 C   0  0  0  0  0  0  0  0  0  0  0  0
   38.4130   23.0840   39.4250 H   0  0  0  0  0  0  0  0  0  0  0  0
   38.0440   24.3260   37.7030 C   0  0  0  0  0  0  0  0  0  0  0  0
   37.1930   24.7750   38.2300 H   0  0  0  0  0  0  0  0  0  0  0  0
   38.3520   24.7460   36.4270 C   0  0  0  0  0  0  0  0  0  0  0  0
   37.5850   25.7350   35.8150 N   0  0  0  0  0  0  0  0  0  0  0  0
   36.7860   26.1320   36.3540 H   0  0  0  0  0  0  0  0  0  0  0  0
   38.2910   27.8820   30.6830 O   0  0  0  0  0  0  0  0  0  0  0  0
   37.5780   29.1090   28.6780 C   0  0  1  0  0  0  0  0  0  0  0  0
   37.2640   28.4750   29.9390 C   0  0  2  0  0  0  0  0  0  0  0  0
   37.2760   29.9900   29.8950 C   0  0  0  0  0  0  0  0  0  0  0  0
   36.8420   29.3160   27.8640 H   0  0  0  0  0  0  0  0  0  0  0  0
   36.2910   27.9670   30.0390 H   0  0  0  0  0  0  0  0  0  0  0  0
   36.2820   30.4510   29.9960 H   0  0  0  0  0  0  0  0  0  0  0  0
   38.1150   30.5290   30.3820 H   0  0  0  0  0  0  0  0  0  0  0  0
   39.0130   29.2510   28.2110 C   0  0  0  0  0  0  0  0  0  0  0  0
   39.5330   28.1780   27.4780 C   0  0  0  0  0  0  0  0  0  0  0  0
   40.8470   28.3190   27.0760 C   0  0  0  0  0  0  0  0  0  0  0  0
   41.5710   29.4390   27.3860 N   0  0  0  0  0  0  0  0  0  0  0  0
   41.0170   30.4610   28.1050 C   0  0  0  0  0  0  0  0  0  0  0  0
   39.7260   30.3660   28.5220 N   0  0  0  0  0  0  0  0  0  0  0  0
   38.9210   27.3160   27.2570 H   0  0  0  0  0  0  0  0  0  0  0  0
   41.3000   27.5170   26.5030 H   0  0  0  0  0  0  0  0  0  0  0  0
   41.5970   31.3390   28.3450 H   0  0  0  0  0  0  0  0  0  0  0  0
  1  8  2  0  0  0  0
  1  2  1  0  0  0  0
  2  4  2  0  0  0  0
  3  2  1  0  0  0  0
  4  6  1  0  0  0  0
  4  5  1  0  0  0  0
  6 21  1  0  0  0  0
  7 10  1  0  0  0  0
  7  6  2  0  0  0  0
  8  7  1  0  0  0  0
  9  8  1  0  0  0  0
 10 11  1  0  0  0  0
 11 20  2  0  0  0  0
 11 12  1  0  0  0  0
 12 14  2  0  0  0  0
 13 12  1  0  0  0  0
 14 15  1  0  0  0  0
 14 16  1  0  0  0  0
 16 17  1  0  0  0  0
 18 19  1  0  0  0  0
 18 16  2  0  0  0  0
 20 18  1  0  0  0  0
 21 22  1  0  0  0  0
 21 20  1  0  0  0  0
 23  1  1  0  0  0  0
 24 27  1  6  0  0  0
 24 26  1  0  0  0  0
 24 25  1  0  0  0  0
 25 28  1  1  0  0  0
 25 23  1  0  0  0  0
 26 25  1  0  0  0  0
 26 29  1  0  0  0  0
 26 30  1  0  0  0  0
 31 36  1  0  0  0  0
 31 24  1  0  0  0  0
 32 31  2  0  0  0  0
 33 34  2  0  0  0  0
 33 32  1  0  0  0  0
 34 35  1  0  0  0  0
 35 39  1  0  0  0  0
 35 36  2  0  0  0  0
 37 32  1  0  0  0  0
 38 33  1  0  0  0  0
M  END
>  <minimizedAffinity>
-5.52501202

$$$$

 OpenBabel03272507173D

 39 43  0  0  1  0  0  0  0  0999 V2000
   38.0470   25.6660   33.2550 C   0  0  0  0  0  0  0  0  0  0  0  0
   37.2180   26.5650   33.9380 C   0  0  0  0  0  0  0  0  0  0  0  0
   36.8640   26.3240   34.9490 H   0  0  0  0  0  0  0  0  0  0  0  0
   36.8540   27.7500   33.3340 C   0  0  0  0  0  0  0  0  0  0  0  0
   36.2110   28.3980   33.9210 H   0  0  0  0  0  0  0  0  0  0  0  0
   37.2530   28.1290   32.0720 C   0  0  0  0  0  0  0  0  0  0  0  0
   38.0600   27.2320   31.4290 C   0  0  0  0  0  0  0  0  0  0  0  0
   38.4350   26.0660   31.9900 C   0  0  0  0  0  0  0  0  0  0  0  0
   39.0780   25.3700   31.4570 H   0  0  0  0  0  0  0  0  0  0  0  0
   38.6410   27.6110   29.7890 S   0  0  0  0  0  0  0  0  0  0  0  0
   37.9490   29.2050   29.3930 C   0  0  0  0  0  0  0  0  0  0  0  0
   38.2390   29.7380   28.1810 C   0  0  0  0  0  0  0  0  0  0  0  0
   38.8770   29.2020   27.4740 H   0  0  0  0  0  0  0  0  0  0  0  0
   37.7500   30.9660   27.7840 C   0  0  0  0  0  0  0  0  0  0  0  0
   37.9790   31.3910   26.8190 H   0  0  0  0  0  0  0  0  0  0  0  0
   36.9430   31.6530   28.6660 C   0  0  0  0  0  0  0  0  0  0  0  0
   36.5320   32.6210   28.4060 H   0  0  0  0  0  0  0  0  0  0  0  0
   36.6810   31.0630   29.8870 C   0  0  0  0  0  0  0  0  0  0  0  0
   36.0350   31.6530   30.5490 H   0  0  0  0  0  0  0  0  0  0  0  0
   37.1540   29.8400   30.3130 C   0  0  0  0  0  0  0  0  0  0  0  0
   36.8090   29.3610   31.5760 N   0  0  0  0  0  0  0  0  0  0  0  0
   36.1920   29.9570   32.1690 H   0  0  0  0  0  0  0  0  0  0  0  0
   38.3770   24.5060   33.9020 O   0  0  0  0  0  0  0  0  0  0  0  0
   37.8510   22.2430   34.7000 C   0  0  1  0  0  0  0  0  0  0  0  0
   37.9090   23.2150   33.6310 C   0  0  2  0  0  0  0  0  0  0  0  0
   38.9580   22.1200   33.6460 C   0  0  0  0  0  0  0  0  0  0  0  0
   37.2170   21.3240   34.6970 H   0  0  0  0  0  0  0  0  0  0  0  0
   37.1320   23.1770   32.8500 H   0  0  0  0  0  0  0  0  0  0  0  0
   38.8520   21.3840   32.8350 H   0  0  0  0  0  0  0  0  0  0  0  0
   39.9960   22.3830   33.9340 H   0  0  0  0  0  0  0  0  0  0  0  0
   38.4040   22.5610   36.0750 C   0  0  0  0  0  0  0  0  0  0  0  0
   37.5290   23.2040   36.9590 C   0  0  0  0  0  0  0  0  0  0  0  0
   38.0570   23.5000   38.2000 C   0  0  0  0  0  0  0  0  0  0  0  0
   39.3490   23.1790   38.5210 N   0  0  0  0  0  0  0  0  0  0  0  0
   40.1630   22.5510   37.6220 C   0  0  0  0  0  0  0  0  0  0  0  0
   39.6880   22.2390   36.3880 N   0  0  0  0  0  0  0  0  0  0  0  0
   36.5180   23.4360   36.6590 H   0  0  0  0  0  0  0  0  0  0  0  0
   37.4210   23.9980   38.9250 H   0  0  0  0  0  0  0  0  0  0  0  0
   41.1810   22.3030   37.8860 H   0  0  0  0  0  0  0  0  0  0  0  0
  1 23  1  0  0  0  0
  1  2  1  0  0  0  0
  2  3  1  0  0  0  0
  4  5  1  0  0  0  0
  4  2  2  0  0  0  0
  6  4  1  0  0  0  0
  7  8  1  0  0  0  0
  7  6  2  0  0  0  0
  8  1  2  0  0  0  0
  9  8  1  0  0  0  0
 10  7  1  0  0  0  0
 11 10  1  0  0  0  0
 11 20  1  0  0  0  0
 12 11  2  0  0  0  0
 13 12  1  0  0  0  0
 14 12  1  0  0  0  0
 14 16  2  0  0  0  0
 15 14  1  0  0  0  0
 16 18  1  0  0  0  0
 17 16  1  0  0  0  0
 18 20  2  0  0  0  0
 18 19  1  0  0  0  0
 20 21  1  0  0  0  0
 21  6  1  0  0  0  0
 21 22  1  0  0  0  0
 24 27  1  6  0  0  0
 24 31  1  0  0  0  0
 25 28  1  6  0  0  0
 25 26  1  0  0  0  0
 25 23  1  0  0  0  0
 25 24  1  0  0  0  0
 26 30  1  0  0  0  0
 26 24  1  0  0  0  0
 29 26  1  0  0  0  0
 31 36  2  0  0  0  0
 31 32  1  0  0  0  0
 32 33  2  0  0  0  0
 33 34  1  0  0  0  0
 33 38  1  0  0  0  0
 35 39  1  0  0  0  0
 35 34  2  0  0  0  0
 36 35  1  0  0  0  0
 37 32  1  0  0  0  0
M  END
>  <minimizedAffinity>
-5.46783543

$$$$

 OpenBabel03272507173D

 39 43  0  0  1  0  0  0  0  0999 V2000
   35.4520   30.0970   34.0350 C   0  0  0  0  0  0  0  0  0  0  0  0
   35.1350   30.0920   32.6700 C   0  0  0  0  0  0  0  0  0  0  0  0
   34.6180   30.9520   32.2240 H   0  0  0  0  0  0  0  0  0  0  0  0
   35.4790   29.0040   31.8950 C   0  0  0  0  0  0  0  0  0  0  0  0
   35.2030   29.0680   30.8480 H   0  0  0  0  0  0  0  0  0  0  0  0
   36.1270   27.8880   32.3730 C   0  0  0  0  0  0  0  0  0  0  0  0
   36.4230   27.9210   33.7080 C   0  0  0  0  0  0  0  0  0  0  0  0
   36.1020   28.9670   34.4930 C   0  0  0  0  0  0  0  0  0  0  0  0
   36.3490   28.9680   35.5530 H   0  0  0  0  0  0  0  0  0  0  0  0
   37.2610   26.5320   34.4430 S   0  0  0  0  0  0  0  0  0  0  0  0
   37.5130   25.3690   33.1170 C   0  0  0  0  0  0  0  0  0  0  0  0
   38.1410   24.2030   33.4080 C   0  0  0  0  0  0  0  0  0  0  0  0
   38.4810   23.9910   34.4250 H   0  0  0  0  0  0  0  0  0  0  0  0
   38.3810   23.2410   32.4490 C   0  0  0  0  0  0  0  0  0  0  0  0
   38.8800   22.3120   32.6780 H   0  0  0  0  0  0  0  0  0  0  0  0
   37.9570   23.4950   31.1610 C   0  0  0  0  0  0  0  0  0  0  0  0
   38.1200   22.7740   30.3690 H   0  0  0  0  0  0  0  0  0  0  0  0
   37.3230   24.6990   30.9220 C   0  0  0  0  0  0  0  0  0  0  0  0
   37.0080   24.8490   29.8820 H   0  0  0  0  0  0  0  0  0  0  0  0
   37.0690   25.6800   31.8570 C   0  0  0  0  0  0  0  0  0  0  0  0
   36.4160   26.8510   31.4770 N   0  0  0  0  0  0  0  0  0  0  0  0
   36.1360   26.9480   30.4780 H   0  0  0  0  0  0  0  0  0  0  0  0
   35.0880   31.2020   34.7560 O   0  0  0  0  0  0  0  0  0  0  0  0
   34.8340   32.0920   37.0310 C   0  0  1  0  0  0  0  0  0  0  0  0
   35.6780   31.6870   35.9290 C   0  0  2  0  0  0  0  0  0  0  0  0
   35.5110   33.1730   36.1810 C   0  0  0  0  0  0  0  0  0  0  0  0
   35.1650   32.1780   38.0940 H   0  0  0  0  0  0  0  0  0  0  0  0
   36.6530   31.2280   36.1610 H   0  0  0  0  0  0  0  0  0  0  0  0
   36.4180   33.6690   36.5600 H   0  0  0  0  0  0  0  0  0  0  0  0
   34.8880   33.7650   35.4790 H   0  0  0  0  0  0  0  0  0  0  0  0
   33.3240   32.1170   36.8910 C   0  0  0  0  0  0  0  0  0  0  0  0
   32.6920   30.8710   36.8050 C   0  0  0  0  0  0  0  0  0  0  0  0
   31.3190   30.9160   36.6600 C   0  0  0  0  0  0  0  0  0  0  0  0
   30.6460   32.1070   36.6070 N   0  0  0  0  0  0  0  0  0  0  0  0
   31.3100   33.2970   36.6950 C   0  0  0  0  0  0  0  0  0  0  0  0
   32.6620   33.3030   36.8380 N   0  0  0  0  0  0  0  0  0  0  0  0
   33.2670   29.9590   36.8530 H   0  0  0  0  0  0  0  0  0  0  0  0
   30.7780   29.9780   36.5900 H   0  0  0  0  0  0  0  0  0  0  0  0
   30.7690   34.2310   36.6510 H   0  0  0  0  0  0  0  0  0  0  0  0
  1  8  1  0  0  0  0
  1 23  1  0  0  0  0
  2  1  2  0  0  0  0
  3  2  1  0  0  0  0
  4  6  2  0  0  0  0
  4  2  1  0  0  0  0
  5  4  1  0  0  0  0
  6  7  1  0  0  0  0
  7 10  1  0  0  0  0
  7  8  2  0  0  0  0
  8  9  1  0  0  0  0
 11 12  1  0  0  0  0
 11 10  1  0  0  0  0
 12 13  1  0  0  0  0
 14 15  1  0  0  0  0
 14 12  2  0  0  0  0
 16 14  1  0  0  0  0
 17 16  1  0  0  0  0
 18 16  2  0  0  0  0
 18 20  1  0  0  0  0
 19 18  1  0  0  0  0
 20 11  2  0  0  0  0
 21 20  1  0  0  0  0
 21  6  1  0  0  0  0
 22 21  1  0  0  0  0
 23 25  1  0  0  0  0
 24 27  1  1  0  0  0
 25 28  1  1  0  0  0
 25 26  1  0  0  0  0
 25 24  1  0  0  0  0
 26 29  1  0  0  0  0
 26 24  1  0  0  0  0
 30 26  1  0  0  0  0
 31 24  1  0  0  0  0
 32 37  1  0  0  0  0
 32 31  2  0  0  0  0
 33 32  1  0  0  0  0
 34 33  2  0  0  0  0
 34 35  1  0  0  0  0
 35 36  2  0  0  0  0
 36 31  1  0  0  0  0
 38 33  1  0  0  0  0
 39 35  1  0  0  0  0
M  END
>  <minimizedAffinity>
-5.46160603

$$$$

 OpenBabel03272507173D

 39 43  0  0  1  0  0  0  0  0999 V2000
   37.7700   26.9930   33.6300 C   0  0  0  0  0  0  0  0  0  0  0  0
   37.0990   26.7620   34.8390 C   0  0  0  0  0  0  0  0  0  0  0  0
   36.1990   27.3400   35.0850 H   0  0  0  0  0  0  0  0  0  0  0  0
   37.5780   25.8070   35.7110 C   0  0  0  0  0  0  0  0  0  0  0  0
   37.0090   25.6810   36.6270 H   0  0  0  0  0  0  0  0  0  0  0  0
   38.6970   25.0400   35.4800 C   0  0  0  0  0  0  0  0  0  0  0  0
   39.3310   25.2880   34.2940 C   0  0  0  0  0  0  0  0  0  0  0  0
   38.8910   26.2130   33.4190 C   0  0  0  0  0  0  0  0  0  0  0  0
   39.4140   26.3900   32.4820 H   0  0  0  0  0  0  0  0  0  0  0  0
   40.7930   24.3580   33.8830 S   0  0  0  0  0  0  0  0  0  0  0  0
   41.0590   23.2540   35.2560 C   0  0  0  0  0  0  0  0  0  0  0  0
   42.1250   22.4180   35.2000 C   0  0  0  0  0  0  0  0  0  0  0  0
   42.7960   22.4270   34.3370 H   0  0  0  0  0  0  0  0  0  0  0  0
   42.4130   21.5280   36.2140 C   0  0  0  0  0  0  0  0  0  0  0  0
   43.2620   20.8630   36.1710 H   0  0  0  0  0  0  0  0  0  0  0  0
   41.5760   21.5070   37.3090 C   0  0  0  0  0  0  0  0  0  0  0  0
   41.7550   20.8280   38.1340 H   0  0  0  0  0  0  0  0  0  0  0  0
   40.5050   22.3790   37.3140 C   0  0  0  0  0  0  0  0  0  0  0  0
   39.8720   22.3200   38.2080 H   0  0  0  0  0  0  0  0  0  0  0  0
   40.1900   23.2790   36.3180 C   0  0  0  0  0  0  0  0  0  0  0  0
   39.0760   24.1050   36.4520 N   0  0  0  0  0  0  0  0  0  0  0  0
   38.5050   24.0120   37.3190 H   0  0  0  0  0  0  0  0  0  0  0  0
   37.2510   27.9520   32.8020 O   0  0  0  0  0  0  0  0  0  0  0  0
   35.4700   29.2190   31.6820 C   0  0  1  0  0  0  0  0  0  0  0  0
   35.9640   28.5020   32.8360 C   0  0  2  0  0  0  0  0  0  0  0  0
   35.9000   30.0150   32.9200 C   0  0  0  0  0  0  0  0  0  0  0  0
   34.3920   29.4110   31.4610 H   0  0  0  0  0  0  0  0  0  0  0  0
   35.2450   27.9190   33.4350 H   0  0  0  0  0  0  0  0  0  0  0  0
   35.1340   30.3950   33.6120 H   0  0  0  0  0  0  0  0  0  0  0  0
   36.8480   30.5900   32.8780 H   0  0  0  0  0  0  0  0  0  0  0  0
   36.3640   29.4900   30.4890 C   0  0  0  0  0  0  0  0  0  0  0  0
   36.5600   30.8360   30.1580 C   0  0  0  0  0  0  0  0  0  0  0  0
   37.3640   31.0620   29.0580 C   0  0  0  0  0  0  0  0  0  0  0  0
   37.9200   30.0260   28.3550 N   0  0  0  0  0  0  0  0  0  0  0  0
   37.6980   28.7280   28.7200 C   0  0  0  0  0  0  0  0  0  0  0  0
   36.9130   28.4560   29.7960 N   0  0  0  0  0  0  0  0  0  0  0  0
   36.1010   31.6180   30.7430 H   0  0  0  0  0  0  0  0  0  0  0  0
   37.5500   32.0870   28.7570 H   0  0  0  0  0  0  0  0  0  0  0  0
   38.1400   27.9180   28.1590 H   0  0  0  0  0  0  0  0  0  0  0  0
  1  2  1  0  0  0  0
  2  3  1  0  0  0  0
  2  4  2  0  0  0  0
  4  5  1  0  0  0  0
  6  4  1  0  0  0  0
  6 21  1  0  0  0  0
  7  6  2  0  0  0  0
  8  1  2  0  0  0  0
  8  7  1  0  0  0  0
  9  8  1  0  0  0  0
 10  7  1  0  0  0  0
 10 11  1  0  0  0  0
 11 20  1  0  0  0  0
 12 11  2  0  0  0  0
 12 14  1  0  0  0  0
 13 12  1  0  0  0  0
 14 16  2  0  0  0  0
 15 14  1  0  0  0  0
 16 18  1  0  0  0  0
 16 17  1  0  0  0  0
 18 19  1  0  0  0  0
 20 21  1  0  0  0  0
 20 18  2  0  0  0  0
 21 22  1  0  0  0  0
 23 25  1  0  0  0  0
 23  1  1  0  0  0  0
 24 27  1  6  0  0  0
 24 25  1  0  0  0  0
 24 26  1  0  0  0  0
 25 26  1  0  0  0  0
 25 28  1  1  0  0  0
 26 29  1  0  0  0  0
 30 26  1  0  0  0  0
 31 24  1  0  0  0  0
 32 31  1  0  0  0  0
 32 37  1  0  0  0  0
 33 32  2  0  0  0  0
 34 35  2  0  0  0  0
 34 33  1  0  0  0  0
 35 36  1  0  0  0  0
 36 31  2  0  0  0  0
 38 33  1  0  0  0  0
 39 35  1  0  0  0  0
M  END
>  <minimizedAffinity>
-5.44834709

$$$$

 OpenBabel03272507173D

 39 43  0  0  1  0  0  0  0  0999 V2000
   37.5950   25.8660   34.8040 C   0  0  0  0  0  0  0  0  0  0  0  0
   38.3550   25.6190   33.6530 C   0  0  0  0  0  0  0  0  0  0  0  0
   38.9930   24.7280   33.5990 H   0  0  0  0  0  0  0  0  0  0  0  0
   38.2930   26.5010   32.5940 C   0  0  0  0  0  0  0  0  0  0  0  0
   38.9080   26.2480   31.7360 H   0  0  0  0  0  0  0  0  0  0  0  0
   37.5210   27.6400   32.5800 C   0  0  0  0  0  0  0  0  0  0  0  0
   36.7910   27.8550   33.7160 C   0  0  0  0  0  0  0  0  0  0  0  0
   36.8270   27.0140   34.7680 C   0  0  0  0  0  0  0  0  0  0  0  0
   36.2360   27.2090   35.6610 H   0  0  0  0  0  0  0  0  0  0  0  0
   35.7520   29.2980   33.8170 S   0  0  0  0  0  0  0  0  0  0  0  0
   35.9630   30.1490   32.2660 C   0  0  0  0  0  0  0  0  0  0  0  0
   35.2730   31.3010   32.0770 C   0  0  0  0  0  0  0  0  0  0  0  0
   34.6090   31.6880   32.8540 H   0  0  0  0  0  0  0  0  0  0  0  0
   35.3720   32.0310   30.9090 C   0  0  0  0  0  0  0  0  0  0  0  0
   34.8240   32.9470   30.7560 H   0  0  0  0  0  0  0  0  0  0  0  0
   36.2070   31.5540   29.9210 C   0  0  0  0  0  0  0  0  0  0  0  0
   36.3220   32.0870   28.9850 H   0  0  0  0  0  0  0  0  0  0  0  0
   36.8850   30.3760   30.1680 C   0  0  0  0  0  0  0  0  0  0  0  0
   37.5340   30.0440   29.3480 H   0  0  0  0  0  0  0  0  0  0  0  0
   36.8080   29.6250   31.3210 C   0  0  0  0  0  0  0  0  0  0  0  0
   37.5510   28.4520   31.4390 N   0  0  0  0  0  0  0  0  0  0  0  0
   38.1530   28.1760   30.6340 H   0  0  0  0  0  0  0  0  0  0  0  0
   37.6930   24.9580   35.8230 O   0  0  0  0  0  0  0  0  0  0  0  0
   38.8960   22.8200   35.9540 C   0  0  1  0  0  0  0  0  0  0  0  0
   38.8280   24.2400   36.2190 C   0  0  2  0  0  0  0  0  0  0  0  0
   38.6320   23.2950   37.3880 C   0  0  0  0  0  0  0  0  0  0  0  0
   39.8370   22.2190   35.9190 H   0  0  0  0  0  0  0  0  0  0  0  0
   39.7620   24.8230   36.1750 H   0  0  0  0  0  0  0  0  0  0  0  0
   39.4570   23.3030   38.1160 H   0  0  0  0  0  0  0  0  0  0  0  0
   37.6120   23.1740   37.8080 H   0  0  0  0  0  0  0  0  0  0  0  0
   37.7110   22.0770   35.3710 C   0  0  0  0  0  0  0  0  0  0  0  0
   36.7750   21.5900   36.2900 C   0  0  0  0  0  0  0  0  0  0  0  0
   35.7110   20.9010   35.7410 C   0  0  0  0  0  0  0  0  0  0  0  0
   35.6020   20.7200   34.3880 N   0  0  0  0  0  0  0  0  0  0  0  0
   36.5430   21.2160   33.5310 C   0  0  0  0  0  0  0  0  0  0  0  0
   37.6080   21.9010   34.0260 N   0  0  0  0  0  0  0  0  0  0  0  0
   36.9050   21.7590   37.3480 H   0  0  0  0  0  0  0  0  0  0  0  0
   34.9550   20.5010   36.4080 H   0  0  0  0  0  0  0  0  0  0  0  0
   36.4470   21.0670   32.4660 H   0  0  0  0  0  0  0  0  0  0  0  0
  1 23  1  0  0  0  0
  2  1  2  0  0  0  0
  3  2  1  0  0  0  0
  4  2  1  0  0  0  0
  5  4  1  0  0  0  0
  6  4  2  0  0  0  0
  6  7  1  0  0  0  0
  7 10  1  0  0  0  0
  7  8  2  0  0  0  0
  8  1  1  0  0  0  0
  8  9  1  0  0  0  0
 11 10  1  0  0  0  0
 12 11  1  0  0  0  0
 12 13  1  0  0  0  0
 14 12  2  0  0  0  0
 15 14  1  0  0  0  0
 16 18  2  0  0  0  0
 16 14  1  0  0  0  0
 17 16  1  0  0  0  0
 18 20  1  0  0  0  0
 19 18  1  0  0  0  0
 20 21  1  0  0  0  0
 20 11  2  0  0  0  0
 21  6  1  0  0  0  0
 22 21  1  0  0  0  0
 23 25  1  0  0  0  0
 24 27  1  6  0  0  0
 24 25  1  0  0  0  0
 24 26  1  0  0  0  0
 25 28  1  6  0  0  0
 25 26  1  0  0  0  0
 26 30  1  0  0  0  0
 26 29  1  0  0  0  0
 31 24  1  0  0  0  0
 31 32  1  0  0  0  0
 32 37  1  0  0  0  0
 33 32  2  0  0  0  0
 33 38  1  0  0  0  0
 34 33  1  0  0  0  0
 35 36  1  0  0  0  0
 35 34  2  0  0  0  0
 36 31  2  0  0  0  0
 39 35  1  0  0  0  0
M  END
>  <minimizedAffinity>
-5.39478207

$$$$
