
 OpenBabel03272501583D

 44 48  0  0  0  0  0  0  0  0999 V2000
   32.7990   28.2420   47.8700 C   0  0  0  0  0  0  0  0  0  0  0  0
   31.9750   27.6290   48.7790 C   0  0  0  0  0  0  0  0  0  0  0  0
   30.6650   27.6550   48.3180 C   0  0  0  0  0  0  0  0  0  0  0  0
   30.7380   28.2920   47.1260 N   0  0  0  0  0  0  0  0  0  0  0  0
   31.9890   28.6350   46.8650 N   0  0  0  0  0  0  0  0  0  0  0  0
   32.2480   27.1740   49.7330 H   0  0  0  0  0  0  0  0  0  0  0  0
   29.7560   27.2600   48.7820 H   0  0  0  0  0  0  0  0  0  0  0  0
   29.6820   28.5910   46.2220 C   0  0  0  0  0  0  0  0  0  0  0  0
   29.1220   27.6100   45.4430 C   0  0  0  0  0  0  0  0  0  0  0  0
   29.4990   26.6030   45.5270 H   0  0  0  0  0  0  0  0  0  0  0  0
   28.0990   27.9300   44.5750 C   0  0  0  0  0  0  0  0  0  0  0  0
   27.7160   27.0820   43.9940 H   0  0  0  0  0  0  0  0  0  0  0  0
   27.5780   29.1960   44.4240 C   0  0  0  0  0  0  0  0  0  0  0  0
   28.1520   30.1610   45.2130 C   0  0  0  0  0  0  0  0  0  0  0  0
   29.1660   29.8580   46.0760 C   0  0  0  0  0  0  0  0  0  0  0  0
   29.6030   30.6440   46.6910 H   0  0  0  0  0  0  0  0  0  0  0  0
   27.5340   31.8250   45.0780 S   0  0  0  0  0  0  0  0  0  0  0  0
   26.2350   31.7890   43.8600 C   0  0  0  0  0  0  0  0  0  0  0  0
   25.5870   32.9590   43.5660 C   0  0  0  0  0  0  0  0  0  0  0  0
   25.8550   33.8880   44.0610 H   0  0  0  0  0  0  0  0  0  0  0  0
   24.5790   33.0000   42.6400 C   0  0  0  0  0  0  0  0  0  0  0  0
   24.0400   33.8960   42.3750 H   0  0  0  0  0  0  0  0  0  0  0  0
   24.2320   31.8270   42.0070 C   0  0  0  0  0  0  0  0  0  0  0  0
   23.4520   31.8390   41.2840 H   0  0  0  0  0  0  0  0  0  0  0  0
   24.9170   30.6800   42.3410 C   0  0  0  0  0  0  0  0  0  0  0  0
   24.5850   29.7880   41.7960 H   0  0  0  0  0  0  0  0  0  0  0  0
   25.9360   30.5900   43.2640 C   0  0  0  0  0  0  0  0  0  0  0  0
   26.5360   29.3370   43.4920 N   0  0  0  0  0  0  0  0  0  0  0  0
   26.1860   28.5210   42.9510 H   0  0  0  0  0  0  0  0  0  0  0  0
   34.2900   28.4240   47.9910 C   0  0  0  0  0  0  0  0  0  0  0  0
   34.7340   27.6150   47.3610 H   0  0  0  0  0  0  0  0  0  0  0  0
   34.5610   29.4240   47.5780 H   0  0  0  0  0  0  0  0  0  0  0  0
   34.5990   28.2850   49.4520 C   0  0  0  0  0  0  0  0  0  0  0  0
   33.7530   28.4450   50.1300 H   0  0  0  0  0  0  0  0  0  0  0  0
   34.9320   27.2190   49.5970 H   0  0  0  0  0  0  0  0  0  0  0  0
   37.1730   30.1400   51.3560 C   0  0  0  0  0  0  0  0  0  0  0  0
   37.9990   30.6540   50.3480 C   0  0  0  0  0  0  0  0  0  0  0  0
   37.6570   30.3510   49.0090 C   0  0  0  0  0  0  0  0  0  0  0  0
   36.5590   29.5900   48.7750 N   0  0  0  0  0  0  0  0  0  0  0  0
   35.7970   29.1210   49.7930 C   0  0  0  0  0  0  0  0  0  0  0  0
   36.1070   29.3970   51.0600 N   0  0  0  0  0  0  0  0  0  0  0  0
   37.4650   30.3920   52.3730 H   0  0  0  0  0  0  0  0  0  0  0  0
   38.8820   31.2640   50.4880 H   0  0  0  0  0  0  0  0  0  0  0  0
   38.1930   30.6740   48.1380 H   0  0  0  0  0  0  0  0  0  0  0  0
  1 30  1  0  0  0  0
  1  2  1  0  0  0  0
  2  6  1  0  0  0  0
  3  2  2  0  0  0  0
  3  7  1  0  0  0  0
  4  3  1  0  0  0  0
  5  4  1  0  0  0  0
  5  1  2  0  0  0  0
  8  4  1  0  0  0  0
  9 10  1  0  0  0  0
  9  8  2  0  0  0  0
 11  9  1  0  0  0  0
 12 11  1  0  0  0  0
 13 11  2  0  0  0  0
 13 14  1  0  0  0  0
 14 15  2  0  0  0  0
 15  8  1  0  0  0  0
 15 16  1  0  0  0  0
 17 14  1  0  0  0  0
 18 17  1  0  0  0  0
 19 18  1  0  0  0  0
 19 20  1  0  0  0  0
 21 19  2  0  0  0  0
 22 21  1  0  0  0  0
 23 25  2  0  0  0  0
 23 21  1  0  0  0  0
 24 23  1  0  0  0  0
 25 27  1  0  0  0  0
 26 25  1  0  0  0  0
 27 28  1  0  0  0  0
 27 18  2  0  0  0  0
 28 13  1  0  0  0  0
 29 28  1  0  0  0  0
 30 33  1  0  0  0  0
 31 30  1  0  0  0  0
 32 30  1  0  0  0  0
 33 35  1  0  0  0  0
 33 40  1  0  0  0  0
 33 34  1  0  0  0  0
 36 42  1  0  0  0  0
 37 43  1  0  0  0  0
 37 36  2  0  0  0  0
 38 37  1  0  0  0  0
 39 38  2  0  0  0  0
 39 40  1  0  0  0  0
 40 41  2  0  0  0  0
 41 36  1  0  0  0  0
 44 38  1  0  0  0  0
M  END
>  <minimizedAffinity>
-6.42545509

>  <minimizedRMSD>
1.12371659

$$$$
