
 OpenBabel03272507163D

 39 43  0  0  1  0  0  0  0  0999 V2000
   34.4840   28.6910   48.3950 C   0  0  0  0  0  0  0  0  0  0  0  0
   33.5180   28.4780   49.3870 C   0  0  0  0  0  0  0  0  0  0  0  0
   33.7340   28.7490   50.4290 H   0  0  0  0  0  0  0  0  0  0  0  0
   32.3000   27.9270   49.0460 C   0  0  0  0  0  0  0  0  0  0  0  0
   31.6010   27.7900   49.8660 H   0  0  0  0  0  0  0  0  0  0  0  0
   31.9490   27.5590   47.7680 C   0  0  0  0  0  0  0  0  0  0  0  0
   32.9110   27.7780   46.8200 C   0  0  0  0  0  0  0  0  0  0  0  0
   34.1100   28.3140   47.1180 C   0  0  0  0  0  0  0  0  0  0  0  0
   34.8580   28.4790   46.3450 H   0  0  0  0  0  0  0  0  0  0  0  0
   32.5730   27.3420   45.1270 S   0  0  0  0  0  0  0  0  0  0  0  0
   30.9210   26.6770   45.1250 C   0  0  0  0  0  0  0  0  0  0  0  0
   30.4070   26.2600   43.9410 C   0  0  0  0  0  0  0  0  0  0  0  0
   30.9930   26.3330   43.0210 H   0  0  0  0  0  0  0  0  0  0  0  0
   29.1360   25.7300   43.8390 C   0  0  0  0  0  0  0  0  0  0  0  0
   28.7270   25.3990   42.8980 H   0  0  0  0  0  0  0  0  0  0  0  0
   28.3860   25.6310   44.9920 C   0  0  0  0  0  0  0  0  0  0  0  0
   27.3830   25.2230   44.9680 H   0  0  0  0  0  0  0  0  0  0  0  0
   28.9580   26.0710   46.1690 C   0  0  0  0  0  0  0  0  0  0  0  0
   28.3190   25.9690   47.0530 H   0  0  0  0  0  0  0  0  0  0  0  0
   30.2230   26.6040   46.3040 C   0  0  0  0  0  0  0  0  0  0  0  0
   30.6780   27.0090   47.5580 N   0  0  0  0  0  0  0  0  0  0  0  0
   30.0330   26.8930   48.3680 H   0  0  0  0  0  0  0  0  0  0  0  0
   35.6730   29.2400   48.7900 O   0  0  0  0  0  0  0  0  0  0  0  0
   36.7950   31.0750   49.9760 C   0  0  1  0  0  0  0  0  0  0  0  0
   35.9490   29.9020   49.9920 C   0  0  2  0  0  0  0  0  0  0  0  0
   37.3660   29.7560   50.5110 C   0  0  0  0  0  0  0  0  0  0  0  0
   36.8240   31.8550   50.7750 H   0  0  0  0  0  0  0  0  0  0  0  0
   35.1240   29.8650   50.7220 H   0  0  0  0  0  0  0  0  0  0  0  0
   37.4340   29.5970   51.5980 H   0  0  0  0  0  0  0  0  0  0  0  0
   38.1050   29.2080   49.8900 H   0  0  0  0  0  0  0  0  0  0  0  0
   37.4850   31.5230   48.7040 C   0  0  0  0  0  0  0  0  0  0  0  0
   38.5390   32.4310   48.8600 C   0  0  0  0  0  0  0  0  0  0  0  0
   39.1450   32.8400   47.6880 C   0  0  0  0  0  0  0  0  0  0  0  0
   38.7250   32.3770   46.4690 N   0  0  0  0  0  0  0  0  0  0  0  0
   37.6900   31.4900   46.3700 C   0  0  0  0  0  0  0  0  0  0  0  0
   37.0640   31.0590   47.4970 N   0  0  0  0  0  0  0  0  0  0  0  0
   38.8340   32.7660   49.8430 H   0  0  0  0  0  0  0  0  0  0  0  0
   39.9680   33.5430   47.7510 H   0  0  0  0  0  0  0  0  0  0  0  0
   37.3670   31.1330   45.4040 H   0  0  0  0  0  0  0  0  0  0  0  0
  1 23  1  0  0  0  0
  1  2  1  0  0  0  0
  2  3  1  0  0  0  0
  4  2  2  0  0  0  0
  4  5  1  0  0  0  0
  6  4  1  0  0  0  0
  7  8  1  0  0  0  0
  7  6  2  0  0  0  0
  8  1  2  0  0  0  0
  9  8  1  0  0  0  0
 10  7  1  0  0  0  0
 11 10  1  0  0  0  0
 11 20  1  0  0  0  0
 12 11  2  0  0  0  0
 13 12  1  0  0  0  0
 14 12  1  0  0  0  0
 14 16  2  0  0  0  0
 15 14  1  0  0  0  0
 16 18  1  0  0  0  0
 17 16  1  0  0  0  0
 18 20  2  0  0  0  0
 18 19  1  0  0  0  0
 20 21  1  0  0  0  0
 21  6  1  0  0  0  0
 21 22  1  0  0  0  0
 23 25  1  0  0  0  0
 24 25  1  0  0  0  0
 24 26  1  0  0  0  0
 24 27  1  1  0  0  0
 25 26  1  0  0  0  0
 25 28  1  1  0  0  0
 26 29  1  0  0  0  0
 30 26  1  0  0  0  0
 31 32  1  0  0  0  0
 31 24  1  0  0  0  0
 32 37  1  0  0  0  0
 33 38  1  0  0  0  0
 33 32  2  0  0  0  0
 34 33  1  0  0  0  0
 35 34  2  0  0  0  0
 35 36  1  0  0  0  0
 36 31  2  0  0  0  0
 39 35  1  0  0  0  0
M  END
>  <minimizedAffinity>
-5.57653618

>  <minimizedRMSD>
2.83611202

$$$$
