
 OpenBabel03272503423D

 54 59  0  0  1  0  0  0  0  0999 V2000
   39.6730   31.3880   41.5280 C   0  0  2  0  0  0  0  0  0  0  0  0
   39.5160   32.4790   42.5890 C   0  0  1  0  0  0  0  0  0  0  0  0
   38.3180   33.1900   42.0180 C   0  0  0  0  0  0  0  0  0  0  0  0
   38.4400   33.1410   40.6480 O   0  0  0  0  0  0  0  0  0  0  0  0
   39.4200   32.2620   40.2960 C   0  0  0  0  0  0  0  0  0  0  0  0
   40.6850   30.9530   41.5390 H   0  0  0  0  0  0  0  0  0  0  0  0
   40.3780   33.1550   42.6240 H   0  0  0  0  0  0  0  0  0  0  0  0
   37.4010   32.7320   42.4080 H   0  0  0  0  0  0  0  0  0  0  0  0
   38.3710   34.2430   42.4190 H   0  0  0  0  0  0  0  0  0  0  0  0
   40.3340   32.8360   40.0600 H   0  0  0  0  0  0  0  0  0  0  0  0
   39.0570   31.6490   39.4430 H   0  0  0  0  0  0  0  0  0  0  0  0
   38.3180   31.1690   45.7150 C   0  0  0  0  0  0  0  0  0  0  0  0
   39.6530   30.9180   45.8500 C   0  0  0  0  0  0  0  0  0  0  0  0
   40.2230   31.3960   44.6710 C   0  0  0  0  0  0  0  0  0  0  0  0
   39.2670   31.9020   43.8840 N   0  0  0  0  0  0  0  0  0  0  0  0
   38.1000   31.7620   44.5250 N   0  0  0  0  0  0  0  0  0  0  0  0
   40.1410   30.4460   46.7070 H   0  0  0  0  0  0  0  0  0  0  0  0
   41.3010   31.3200   44.5140 H   0  0  0  0  0  0  0  0  0  0  0  0
   36.4920   30.6300   48.9490 C   0  0  0  0  0  0  0  0  0  0  0  0
   37.4850   30.9520   48.0510 C   0  0  0  0  0  0  0  0  0  0  0  0
   37.3120   30.8450   46.6950 C   0  0  0  0  0  0  0  0  0  0  0  0
   36.0940   30.4020   46.2740 N   0  0  0  0  0  0  0  0  0  0  0  0
   35.1140   30.0870   47.1720 C   0  0  0  0  0  0  0  0  0  0  0  0
   35.2910   30.1910   48.4710 N   0  0  0  0  0  0  0  0  0  0  0  0
   38.4730   31.3090   48.3420 H   0  0  0  0  0  0  0  0  0  0  0  0
   34.1400   29.7310   46.8070 H   0  0  0  0  0  0  0  0  0  0  0  0
   36.8550   30.8030   50.2760 O   0  0  0  0  0  0  0  0  0  0  0  0
   36.9190   29.7340   51.1950 C   0  0  0  0  0  0  0  0  0  0  0  0
   35.6660   29.3110   51.6010 F   0  0  0  0  0  0  0  0  0  0  0  0
   37.6660   30.1300   52.2730 F   0  0  0  0  0  0  0  0  0  0  0  0
   37.5720   28.6720   50.5960 F   0  0  0  0  0  0  0  0  0  0  0  0
   38.6180   30.5070   41.6990 O   0  0  0  0  0  0  0  0  0  0  0  0
   38.6810   29.2040   42.1100 C   0  0  0  0  0  0  0  0  0  0  0  0
   39.8390   28.4710   42.2750 C   0  0  0  0  0  0  0  0  0  0  0  0
   40.7820   28.9560   42.0660 H   0  0  0  0  0  0  0  0  0  0  0  0
   39.7550   27.1610   42.6970 C   0  0  0  0  0  0  0  0  0  0  0  0
   40.7260   26.6500   42.8020 H   0  0  0  0  0  0  0  0  0  0  0  0
   38.5840   26.4890   42.9810 C   0  0  0  0  0  0  0  0  0  0  0  0
   37.4610   27.2400   42.8080 C   0  0  0  0  0  0  0  0  0  0  0  0
   37.5050   28.5420   42.3910 C   0  0  0  0  0  0  0  0  0  0  0  0
   36.5560   29.0890   42.2730 H   0  0  0  0  0  0  0  0  0  0  0  0
   35.8750   26.4950   43.1390 S   0  0  0  0  0  0  0  0  0  0  0  0
   36.2000   24.8320   43.6500 C   0  0  0  0  0  0  0  0  0  0  0  0
   35.1670   24.0230   43.9690 C   0  0  0  0  0  0  0  0  0  0  0  0
   34.1240   24.3330   43.9320 H   0  0  0  0  0  0  0  0  0  0  0  0
   35.3630   22.6990   44.3800 C   0  0  0  0  0  0  0  0  0  0  0  0
   34.5590   22.0240   44.6420 H   0  0  0  0  0  0  0  0  0  0  0  0
   36.6610   22.2380   44.4500 C   0  0  0  0  0  0  0  0  0  0  0  0
   36.8320   21.2340   44.7600 H   0  0  0  0  0  0  0  0  0  0  0  0
   37.6750   23.1100   44.1110 C   0  0  0  0  0  0  0  0  0  0  0  0
   38.6700   22.6720   44.1920 H   0  0  0  0  0  0  0  0  0  0  0  0
   37.5030   24.4150   43.7050 C   0  0  0  0  0  0  0  0  0  0  0  0
   38.6590   25.1620   43.3990 N   0  0  0  0  0  0  0  0  0  0  0  0
   39.5950   24.7120   43.4860 H   0  0  0  0  0  0  0  0  0  0  0  0
  1  6  1  1  0  0  0
  1 32  1  0  0  0  0
  1  2  1  0  0  0  0
  2  7  1  1  0  0  0
  2 15  1  0  0  0  0
  3  8  1  0  0  0  0
  3  9  1  0  0  0  0
  3  2  1  0  0  0  0
  4  3  1  0  0  0  0
  5  4  1  0  0  0  0
  5  1  1  0  0  0  0
 10  5  1  0  0  0  0
 11  5  1  0  0  0  0
 12 13  1  0  0  0  0
 12 21  1  0  0  0  0
 13 17  1  0  0  0  0
 14 13  2  0  0  0  0
 15 16  1  0  0  0  0
 15 14  1  0  0  0  0
 16 12  2  0  0  0  0
 18 14  1  0  0  0  0
 19 27  1  0  0  0  0
 20 25  1  0  0  0  0
 20 19  2  0  0  0  0
 21 20  1  0  0  0  0
 22 21  2  0  0  0  0
 22 23  1  0  0  0  0
 23 24  2  0  0  0  0
 24 19  1  0  0  0  0
 26 23  1  0  0  0  0
 27 28  1  0  0  0  0
 28 29  1  0  0  0  0
 28 30  1  0  0  0  0
 31 28  1  0  0  0  0
 32 33  1  0  0  0  0
 33 34  2  0  0  0  0
 33 40  1  0  0  0  0
 34 36  1  0  0  0  0
 35 34  1  0  0  0  0
 36 37  1  0  0  0  0
 36 38  2  0  0  0  0
 38 53  1  0  0  0  0
 39 38  1  0  0  0  0
 39 42  1  0  0  0  0
 40 39  2  0  0  0  0
 41 40  1  0  0  0  0
 42 43  1  0  0  0  0
 43 52  2  0  0  0  0
 43 44  1  0  0  0  0
 44 46  2  0  0  0  0
 45 44  1  0  0  0  0
 46 48  1  0  0  0  0
 46 47  1  0  0  0  0
 48 49  1  0  0  0  0
 50 51  1  0  0  0  0
 50 48  2  0  0  0  0
 52 50  1  0  0  0  0
 53 54  1  0  0  0  0
 53 52  1  0  0  0  0
M  END
>  <minimizedAffinity>
-6.64920664

>  <minimizedRMSD>
1.00401235

$$$$
