
 OpenBabel03262522123D

 43 47  0  0  0  0  0  0  0  0999 V2000
   34.6530   30.2820   34.2370 C   0  0  0  0  0  0  0  0  0  0  0  0
   35.7870   30.5010   34.9670 C   0  0  0  0  0  0  0  0  0  0  0  0
   36.6630   29.9150   34.7420 H   0  0  0  0  0  0  0  0  0  0  0  0
   35.7720   31.4560   35.9610 C   0  0  0  0  0  0  0  0  0  0  0  0
   36.7140   31.5680   36.4930 H   0  0  0  0  0  0  0  0  0  0  0  0
   34.6700   32.2190   36.2730 C   0  0  0  0  0  0  0  0  0  0  0  0
   33.5510   31.9870   35.5370 C   0  0  0  0  0  0  0  0  0  0  0  0
   33.5350   31.0600   34.5580 C   0  0  0  0  0  0  0  0  0  0  0  0
   32.6390   30.8710   33.9650 H   0  0  0  0  0  0  0  0  0  0  0  0
   32.0880   32.9400   35.8860 S   0  0  0  0  0  0  0  0  0  0  0  0
   32.5190   34.0360   37.2240 C   0  0  0  0  0  0  0  0  0  0  0  0
   31.5590   34.8830   37.6860 C   0  0  0  0  0  0  0  0  0  0  0  0
   30.5620   34.8820   37.2440 H   0  0  0  0  0  0  0  0  0  0  0  0
   31.8080   35.7590   38.7120 C   0  0  0  0  0  0  0  0  0  0  0  0
   31.0860   36.4510   39.1180 H   0  0  0  0  0  0  0  0  0  0  0  0
   33.0780   35.7590   39.2740 C   0  0  0  0  0  0  0  0  0  0  0  0
   33.2980   36.4360   40.0800 H   0  0  0  0  0  0  0  0  0  0  0  0
   33.9970   34.8850   38.7650 C   0  0  0  0  0  0  0  0  0  0  0  0
   34.9820   34.9360   39.2540 H   0  0  0  0  0  0  0  0  0  0  0  0
   33.7910   33.9900   37.7380 C   0  0  0  0  0  0  0  0  0  0  0  0
   34.8350   33.1520   37.3220 N   0  0  0  0  0  0  0  0  0  0  0  0
   35.7450   33.2430   37.8200 H   0  0  0  0  0  0  0  0  0  0  0  0
   34.6620   29.0440   32.9470 S   0  0  0  0  0  0  0  0  0  0  0  0
   38.0460   27.1410   33.7770 C   0  0  0  0  0  0  0  0  0  0  0  0
   38.7930   27.1710   32.6010 C   0  0  0  0  0  0  0  0  0  0  0  0
   38.2730   27.7940   31.4750 C   0  0  0  0  0  0  0  0  0  0  0  0
   37.0140   28.3500   31.6270 C   0  0  0  0  0  0  0  0  0  0  0  0
   36.2930   28.3130   32.7840 C   0  0  0  0  0  0  0  0  0  0  0  0
   36.8130   27.6990   33.8830 N   0  0  0  0  0  0  0  0  0  0  0  0
   39.7750   26.7140   32.5580 H   0  0  0  0  0  0  0  0  0  0  0  0
   38.7990   27.8520   30.5380 H   0  0  0  0  0  0  0  0  0  0  0  0
   36.5120   28.8620   30.8100 H   0  0  0  0  0  0  0  0  0  0  0  0
   38.6610   26.4700   34.9070 C   0  0  0  0  0  0  0  0  0  0  0  0
   39.4950   27.0590   35.6170 O   0  0  0  0  0  0  0  0  0  0  0  0
   37.8690   24.8180   36.5470 C   0  0  0  0  0  0  0  0  0  0  0  0
   38.3490   25.0960   35.2740 C   0  0  0  0  0  0  0  0  0  0  0  0
   38.5070   24.0210   34.4040 C   0  0  0  0  0  0  0  0  0  0  0  0
   38.1960   22.7510   34.8090 N   0  0  0  0  0  0  0  0  0  0  0  0
   37.7270   22.5390   36.0750 C   0  0  0  0  0  0  0  0  0  0  0  0
   37.5700   23.5430   36.9160 N   0  0  0  0  0  0  0  0  0  0  0  0
   37.7390   25.6420   37.2400 H   0  0  0  0  0  0  0  0  0  0  0  0
   38.8820   24.2560   33.4170 H   0  0  0  0  0  0  0  0  0  0  0  0
   37.4950   21.5150   36.3450 H   0  0  0  0  0  0  0  0  0  0  0  0
  1  8  2  0  0  0  0
  1  2  1  0  0  0  0
  2  4  2  0  0  0  0
  3  2  1  0  0  0  0
  4  6  1  0  0  0  0
  4  5  1  0  0  0  0
  6 21  1  0  0  0  0
  7 10  1  0  0  0  0
  7  6  2  0  0  0  0
  8  7  1  0  0  0  0
  9  8  1  0  0  0  0
 10 11  1  0  0  0  0
 11 12  2  0  0  0  0
 11 20  1  0  0  0  0
 12 14  1  0  0  0  0
 13 12  1  0  0  0  0
 14 15  1  0  0  0  0
 14 16  2  0  0  0  0
 16 17  1  0  0  0  0
 18 19  1  0  0  0  0
 18 16  1  0  0  0  0
 20 18  2  0  0  0  0
 21 20  1  0  0  0  0
 21 22  1  0  0  0  0
 23  1  1  0  0  0  0
 24 29  1  0  0  0  0
 24 33  1  0  0  0  0
 25 24  2  0  0  0  0
 26 27  2  0  0  0  0
 26 25  1  0  0  0  0
 27 28  1  0  0  0  0
 28 23  1  0  0  0  0
 28 29  2  0  0  0  0
 30 25  1  0  0  0  0
 31 26  1  0  0  0  0
 32 27  1  0  0  0  0
 33 36  1  0  0  0  0
 33 34  2  0  0  0  0
 35 40  1  0  0  0  0
 35 41  1  0  0  0  0
 36 35  2  0  0  0  0
 37 38  2  0  0  0  0
 37 36  1  0  0  0  0
 38 39  1  0  0  0  0
 39 43  1  0  0  0  0
 39 40  2  0  0  0  0
 42 37  1  0  0  0  0
M  END
>  <minimizedAffinity>
-6.73796988

$$$$

 OpenBabel03262522123D

 43 47  0  0  0  0  0  0  0  0999 V2000
   36.4640   26.9790   32.3750 C   0  0  0  0  0  0  0  0  0  0  0  0
   37.0490   26.8330   33.6020 C   0  0  0  0  0  0  0  0  0  0  0  0
   37.6210   25.9400   33.7940 H   0  0  0  0  0  0  0  0  0  0  0  0
   36.8860   27.8250   34.5450 C   0  0  0  0  0  0  0  0  0  0  0  0
   37.3830   27.6310   35.4930 H   0  0  0  0  0  0  0  0  0  0  0  0
   36.1610   28.9750   34.3310 C   0  0  0  0  0  0  0  0  0  0  0  0
   35.5880   29.1030   33.1050 C   0  0  0  0  0  0  0  0  0  0  0  0
   35.7290   28.1510   32.1610 C   0  0  0  0  0  0  0  0  0  0  0  0
   35.2700   28.2490   31.1770 H   0  0  0  0  0  0  0  0  0  0  0  0
   34.6360   30.5680   32.7580 S   0  0  0  0  0  0  0  0  0  0  0  0
   34.6950   31.5580   34.2380 C   0  0  0  0  0  0  0  0  0  0  0  0
   34.0350   32.7480   34.2330 C   0  0  0  0  0  0  0  0  0  0  0  0
   33.4900   33.0750   33.3460 H   0  0  0  0  0  0  0  0  0  0  0  0
   34.0290   33.5710   35.3310 C   0  0  0  0  0  0  0  0  0  0  0  0
   33.5230   34.5230   35.3830 H   0  0  0  0  0  0  0  0  0  0  0  0
   34.7220   33.1540   36.4600 C   0  0  0  0  0  0  0  0  0  0  0  0
   34.7330   33.7810   37.3330 H   0  0  0  0  0  0  0  0  0  0  0  0
   35.3650   31.9500   36.4010 C   0  0  0  0  0  0  0  0  0  0  0  0
   35.8940   31.6790   37.3280 H   0  0  0  0  0  0  0  0  0  0  0  0
   35.3970   31.0930   35.3230 C   0  0  0  0  0  0  0  0  0  0  0  0
   36.1010   29.8840   35.4110 N   0  0  0  0  0  0  0  0  0  0  0  0
   36.5830   29.6790   36.3110 H   0  0  0  0  0  0  0  0  0  0  0  0
   36.6690   25.6980   31.1450 S   0  0  0  0  0  0  0  0  0  0  0  0
   37.7170   22.5640   33.3450 C   0  0  0  0  0  0  0  0  0  0  0  0
   36.7290   21.6050   33.1280 C   0  0  0  0  0  0  0  0  0  0  0  0
   35.6730   21.8900   32.2750 C   0  0  0  0  0  0  0  0  0  0  0  0
   35.6970   23.1470   31.6940 C   0  0  0  0  0  0  0  0  0  0  0  0
   36.6690   24.0770   31.9150 C   0  0  0  0  0  0  0  0  0  0  0  0
   37.7010   23.7860   32.7550 N   0  0  0  0  0  0  0  0  0  0  0  0
   36.7790   20.6390   33.6190 H   0  0  0  0  0  0  0  0  0  0  0  0
   34.8800   21.1930   32.0650 H   0  0  0  0  0  0  0  0  0  0  0  0
   34.9190   23.4760   31.0090 H   0  0  0  0  0  0  0  0  0  0  0  0
   38.7860   22.1870   34.2520 C   0  0  0  0  0  0  0  0  0  0  0  0
   39.7540   21.5180   33.8480 O   0  0  0  0  0  0  0  0  0  0  0  0
   39.9560   22.4040   36.4030 C   0  0  0  0  0  0  0  0  0  0  0  0
   38.7940   22.5570   35.6600 C   0  0  0  0  0  0  0  0  0  0  0  0
   37.6790   23.0670   36.3180 C   0  0  0  0  0  0  0  0  0  0  0  0
   37.7490   23.3970   37.6450 N   0  0  0  0  0  0  0  0  0  0  0  0
   38.9220   23.2250   38.3250 C   0  0  0  0  0  0  0  0  0  0  0  0
   39.9910   22.7420   37.7200 N   0  0  0  0  0  0  0  0  0  0  0  0
   40.8360   22.0070   35.9080 H   0  0  0  0  0  0  0  0  0  0  0  0
   36.7820   23.1800   35.7240 H   0  0  0  0  0  0  0  0  0  0  0  0
   38.9250   23.5010   39.3730 H   0  0  0  0  0  0  0  0  0  0  0  0
  1  2  1  0  0  0  0
  2  3  1  0  0  0  0
  2  4  2  0  0  0  0
  4  5  1  0  0  0  0
  6  4  1  0  0  0  0
  6 21  1  0  0  0  0
  7  6  2  0  0  0  0
  8  1  2  0  0  0  0
  8  7  1  0  0  0  0
  9  8  1  0  0  0  0
 10  7  1  0  0  0  0
 10 11  1  0  0  0  0
 11 20  1  0  0  0  0
 12 11  2  0  0  0  0
 12 14  1  0  0  0  0
 13 12  1  0  0  0  0
 14 15  1  0  0  0  0
 14 16  2  0  0  0  0
 16 17  1  0  0  0  0
 18 16  1  0  0  0  0
 18 19  1  0  0  0  0
 20 21  1  0  0  0  0
 20 18  2  0  0  0  0
 21 22  1  0  0  0  0
 23 28  1  0  0  0  0
 23  1  1  0  0  0  0
 24 33  1  0  0  0  0
 25 24  1  0  0  0  0
 25 30  1  0  0  0  0
 26 25  2  0  0  0  0
 27 28  2  0  0  0  0
 27 26  1  0  0  0  0
 28 29  1  0  0  0  0
 29 24  2  0  0  0  0
 31 26  1  0  0  0  0
 32 27  1  0  0  0  0
 33 36  1  0  0  0  0
 34 33  2  0  0  0  0
 35 40  1  0  0  0  0
 36 37  1  0  0  0  0
 36 35  2  0  0  0  0
 37 38  2  0  0  0  0
 38 39  1  0  0  0  0
 39 43  1  0  0  0  0
 40 39  2  0  0  0  0
 41 35  1  0  0  0  0
 42 37  1  0  0  0  0
M  END
>  <minimizedAffinity>
-6.54738712

$$$$

 OpenBabel03262522123D

 43 47  0  0  0  0  0  0  0  0999 V2000
   36.1750   28.6770   32.9550 C   0  0  0  0  0  0  0  0  0  0  0  0
   36.0850   27.8420   31.8780 C   0  0  0  0  0  0  0  0  0  0  0  0
   35.6460   28.2210   30.9700 H   0  0  0  0  0  0  0  0  0  0  0  0
   36.5550   26.5500   31.9890 C   0  0  0  0  0  0  0  0  0  0  0  0
   36.4460   25.9520   31.0870 H   0  0  0  0  0  0  0  0  0  0  0  0
   37.1200   26.0360   33.1330 C   0  0  0  0  0  0  0  0  0  0  0  0
   37.2010   26.8820   34.1940 C   0  0  0  0  0  0  0  0  0  0  0  0
   36.7510   28.1500   34.1170 C   0  0  0  0  0  0  0  0  0  0  0  0
   36.8140   28.8320   34.9660 H   0  0  0  0  0  0  0  0  0  0  0  0
   37.9220   26.2830   35.7090 S   0  0  0  0  0  0  0  0  0  0  0  0
   38.3830   24.5900   35.4010 C   0  0  0  0  0  0  0  0  0  0  0  0
   38.9650   23.8940   36.4170 C   0  0  0  0  0  0  0  0  0  0  0  0
   39.1380   24.3690   37.3830 H   0  0  0  0  0  0  0  0  0  0  0  0
   39.3490   22.5860   36.2640 C   0  0  0  0  0  0  0  0  0  0  0  0
   39.8130   21.9880   37.0330 H   0  0  0  0  0  0  0  0  0  0  0  0
   39.1280   21.9820   35.0330 C   0  0  0  0  0  0  0  0  0  0  0  0
   39.4210   20.9590   34.8880 H   0  0  0  0  0  0  0  0  0  0  0  0
   38.5410   22.7340   34.0540 C   0  0  0  0  0  0  0  0  0  0  0  0
   38.3940   22.1970   33.1040 H   0  0  0  0  0  0  0  0  0  0  0  0
   38.1390   24.0470   34.1630 C   0  0  0  0  0  0  0  0  0  0  0  0
   37.5470   24.6900   33.0680 N   0  0  0  0  0  0  0  0  0  0  0  0
   37.4330   24.1340   32.1950 H   0  0  0  0  0  0  0  0  0  0  0  0
   35.5690   30.3540   32.8220 S   0  0  0  0  0  0  0  0  0  0  0  0
   33.2930   31.0540   35.9990 C   0  0  0  0  0  0  0  0  0  0  0  0
   34.0710   31.8340   36.8530 C   0  0  0  0  0  0  0  0  0  0  0  0
   35.3590   32.1850   36.4780 C   0  0  0  0  0  0  0  0  0  0  0  0
   35.7720   31.7130   35.2440 C   0  0  0  0  0  0  0  0  0  0  0  0
   35.0020   30.9500   34.4170 C   0  0  0  0  0  0  0  0  0  0  0  0
   33.7380   30.6100   34.7960 N   0  0  0  0  0  0  0  0  0  0  0  0
   33.6780   32.1680   37.8080 H   0  0  0  0  0  0  0  0  0  0  0  0
   36.0090   32.7850   37.0920 H   0  0  0  0  0  0  0  0  0  0  0  0
   36.7630   31.9280   34.8500 H   0  0  0  0  0  0  0  0  0  0  0  0
   31.9580   30.7300   36.4670 C   0  0  0  0  0  0  0  0  0  0  0  0
   31.1410   31.6310   36.7260 O   0  0  0  0  0  0  0  0  0  0  0  0
   31.4830   28.8170   37.9370 C   0  0  0  0  0  0  0  0  0  0  0  0
   31.5000   29.3610   36.6600 C   0  0  0  0  0  0  0  0  0  0  0  0
   31.0670   28.5500   35.6150 C   0  0  0  0  0  0  0  0  0  0  0  0
   30.6480   27.2700   35.8600 N   0  0  0  0  0  0  0  0  0  0  0  0
   30.6530   26.7890   37.1400 C   0  0  0  0  0  0  0  0  0  0  0  0
   31.0590   27.5410   38.1440 N   0  0  0  0  0  0  0  0  0  0  0  0
   31.8160   29.4340   38.7640 H   0  0  0  0  0  0  0  0  0  0  0  0
   31.0880   28.9900   34.6270 H   0  0  0  0  0  0  0  0  0  0  0  0
   30.3110   25.7700   37.2800 H   0  0  0  0  0  0  0  0  0  0  0  0
  1  8  1  0  0  0  0
  2  4  1  0  0  0  0
  2  1  2  0  0  0  0
  3  2  1  0  0  0  0
  4  6  2  0  0  0  0
  5  4  1  0  0  0  0
  6  7  1  0  0  0  0
  7 10  1  0  0  0  0
  8  7  2  0  0  0  0
  8  9  1  0  0  0  0
 11 10  1  0  0  0  0
 11 12  1  0  0  0  0
 12 13  1  0  0  0  0
 14 12  2  0  0  0  0
 14 15  1  0  0  0  0
 16 14  1  0  0  0  0
 17 16  1  0  0  0  0
 18 20  1  0  0  0  0
 18 16  2  0  0  0  0
 19 18  1  0  0  0  0
 20 11  2  0  0  0  0
 21  6  1  0  0  0  0
 21 20  1  0  0  0  0
 22 21  1  0  0  0  0
 23  1  1  0  0  0  0
 23 28  1  0  0  0  0
 24 33  1  0  0  0  0
 24 25  1  0  0  0  0
 25 30  1  0  0  0  0
 26 25  2  0  0  0  0
 26 31  1  0  0  0  0
 27 26  1  0  0  0  0
 28 29  1  0  0  0  0
 28 27  2  0  0  0  0
 29 24  2  0  0  0  0
 32 27  1  0  0  0  0
 33 36  1  0  0  0  0
 33 34  2  0  0  0  0
 35 40  1  0  0  0  0
 35 41  1  0  0  0  0
 36 35  2  0  0  0  0
 37 38  2  0  0  0  0
 37 36  1  0  0  0  0
 38 39  1  0  0  0  0
 39 43  1  0  0  0  0
 39 40  2  0  0  0  0
 42 37  1  0  0  0  0
M  END
>  <minimizedAffinity>
-6.43933868

$$$$

 OpenBabel03262522123D

 43 47  0  0  0  0  0  0  0  0999 V2000
   36.7050   23.5240   31.3690 C   0  0  0  0  0  0  0  0  0  0  0  0
   35.4940   24.1560   31.3580 C   0  0  0  0  0  0  0  0  0  0  0  0
   34.6180   23.5920   31.6350 H   0  0  0  0  0  0  0  0  0  0  0  0
   35.4330   25.4840   30.9930 C   0  0  0  0  0  0  0  0  0  0  0  0
   34.4330   25.9110   31.0100 H   0  0  0  0  0  0  0  0  0  0  0  0
   36.5320   26.2310   30.6330 C   0  0  0  0  0  0  0  0  0  0  0  0
   37.7280   25.5850   30.6510 C   0  0  0  0  0  0  0  0  0  0  0  0
   37.8200   24.2870   31.0030 C   0  0  0  0  0  0  0  0  0  0  0  0
   38.7770   23.7650   31.0180 H   0  0  0  0  0  0  0  0  0  0  0  0
   39.1920   26.4910   30.1970 S   0  0  0  0  0  0  0  0  0  0  0  0
   38.6510   28.1430   29.8070 C   0  0  0  0  0  0  0  0  0  0  0  0
   39.5930   29.0480   29.4250 C   0  0  0  0  0  0  0  0  0  0  0  0
   40.6440   28.7590   29.3630 H   0  0  0  0  0  0  0  0  0  0  0  0
   39.2620   30.3410   29.1070 C   0  0  0  0  0  0  0  0  0  0  0  0
   39.9660   31.0980   28.7990 H   0  0  0  0  0  0  0  0  0  0  0  0
   37.9240   30.7080   29.1870 C   0  0  0  0  0  0  0  0  0  0  0  0
   37.6390   31.7150   28.9440 H   0  0  0  0  0  0  0  0  0  0  0  0
   37.0270   29.7540   29.5770 C   0  0  0  0  0  0  0  0  0  0  0  0
   35.9860   30.1090   29.6200 H   0  0  0  0  0  0  0  0  0  0  0  0
   37.3150   28.4470   29.9050 C   0  0  0  0  0  0  0  0  0  0  0  0
   36.2840   27.5790   30.2890 N   0  0  0  0  0  0  0  0  0  0  0  0
   35.3180   27.9680   30.3110 H   0  0  0  0  0  0  0  0  0  0  0  0
   36.7940   21.8010   31.8400 S   0  0  0  0  0  0  0  0  0  0  0  0
   37.5100   22.2120   35.7230 C   0  0  0  0  0  0  0  0  0  0  0  0
   36.5730   21.4040   36.3660 C   0  0  0  0  0  0  0  0  0  0  0  0
   35.6590   20.6820   35.6110 C   0  0  0  0  0  0  0  0  0  0  0  0
   35.7640   20.8340   34.2400 C   0  0  0  0  0  0  0  0  0  0  0  0
   36.6860   21.6270   33.6230 C   0  0  0  0  0  0  0  0  0  0  0  0
   37.5780   22.3320   34.3730 N   0  0  0  0  0  0  0  0  0  0  0  0
   36.5520   21.3350   37.4480 H   0  0  0  0  0  0  0  0  0  0  0  0
   34.9120   20.0400   36.0470 H   0  0  0  0  0  0  0  0  0  0  0  0
   35.0990   20.3140   33.5530 H   0  0  0  0  0  0  0  0  0  0  0  0
   38.4280   22.9340   36.5850 C   0  0  0  0  0  0  0  0  0  0  0  0
   38.0000   23.6770   37.4860 O   0  0  0  0  0  0  0  0  0  0  0  0
   40.5540   23.7620   35.6690 C   0  0  0  0  0  0  0  0  0  0  0  0
   39.8750   22.8390   36.4520 C   0  0  0  0  0  0  0  0  0  0  0  0
   40.6330   21.8550   37.0800 C   0  0  0  0  0  0  0  0  0  0  0  0
   41.9910   21.8180   36.9160 N   0  0  0  0  0  0  0  0  0  0  0  0
   42.6050   22.7550   36.1330 C   0  0  0  0  0  0  0  0  0  0  0  0
   41.9060   23.6960   35.5290 N   0  0  0  0  0  0  0  0  0  0  0  0
   39.9810   24.5370   35.1710 H   0  0  0  0  0  0  0  0  0  0  0  0
   40.0870   21.1440   37.6860 H   0  0  0  0  0  0  0  0  0  0  0  0
   43.6820   22.6810   36.0360 H   0  0  0  0  0  0  0  0  0  0  0  0
  1 23  1  0  0  0  0
  2  1  1  0  0  0  0
  2  3  1  0  0  0  0
  4  5  1  0  0  0  0
  4  2  2  0  0  0  0
  6  7  2  0  0  0  0
  6  4  1  0  0  0  0
  7  8  1  0  0  0  0
  8  9  1  0  0  0  0
  8  1  2  0  0  0  0
 10  7  1  0  0  0  0
 11 20  1  0  0  0  0
 11 10  1  0  0  0  0
 12 11  2  0  0  0  0
 13 12  1  0  0  0  0
 14 16  2  0  0  0  0
 14 12  1  0  0  0  0
 15 14  1  0  0  0  0
 16 18  1  0  0  0  0
 17 16  1  0  0  0  0
 18 19  1  0  0  0  0
 18 20  2  0  0  0  0
 20 21  1  0  0  0  0
 21 22  1  0  0  0  0
 21  6  1  0  0  0  0
 23 28  1  0  0  0  0
 24 25  1  0  0  0  0
 24 33  1  0  0  0  0
 25 30  1  0  0  0  0
 26 31  1  0  0  0  0
 26 25  2  0  0  0  0
 27 26  1  0  0  0  0
 28 27  2  0  0  0  0
 28 29  1  0  0  0  0
 29 24  2  0  0  0  0
 32 27  1  0  0  0  0
 33 34  2  0  0  0  0
 35 36  1  0  0  0  0
 36 33  1  0  0  0  0
 36 37  2  0  0  0  0
 37 42  1  0  0  0  0
 38 37  1  0  0  0  0
 39 38  2  0  0  0  0
 40 35  2  0  0  0  0
 40 39  1  0  0  0  0
 41 35  1  0  0  0  0
 43 39  1  0  0  0  0
M  END
>  <minimizedAffinity>
-6.42532015

$$$$

 OpenBabel03262522123D

 43 47  0  0  0  0  0  0  0  0999 V2000
   37.7180   27.6000   32.1880 C   0  0  0  0  0  0  0  0  0  0  0  0
   36.7980   27.9740   33.1270 C   0  0  0  0  0  0  0  0  0  0  0  0
   36.1010   28.7580   32.8780 H   0  0  0  0  0  0  0  0  0  0  0  0
   36.7950   27.3430   34.3520 C   0  0  0  0  0  0  0  0  0  0  0  0
   36.0330   27.6990   35.0410 H   0  0  0  0  0  0  0  0  0  0  0  0
   37.6720   26.3410   34.7000 C   0  0  0  0  0  0  0  0  0  0  0  0
   38.5790   25.9830   33.7530 C   0  0  0  0  0  0  0  0  0  0  0  0
   38.6080   26.5810   32.5460 C   0  0  0  0  0  0  0  0  0  0  0  0
   39.3330   26.2960   31.7830 H   0  0  0  0  0  0  0  0  0  0  0  0
   39.7450   24.6910   34.1350 S   0  0  0  0  0  0  0  0  0  0  0  0
   39.3800   24.1720   35.8000 C   0  0  0  0  0  0  0  0  0  0  0  0
   40.1410   23.1800   36.3380 C   0  0  0  0  0  0  0  0  0  0  0  0
   40.9460   22.7250   35.7590 H   0  0  0  0  0  0  0  0  0  0  0  0
   39.9260   22.7210   37.6130 C   0  0  0  0  0  0  0  0  0  0  0  0
   40.4970   21.9390   38.0890 H   0  0  0  0  0  0  0  0  0  0  0  0
   38.9000   23.3000   38.3490 C   0  0  0  0  0  0  0  0  0  0  0  0
   38.7120   22.9580   39.3500 H   0  0  0  0  0  0  0  0  0  0  0  0
   38.1730   24.2910   37.7520 C   0  0  0  0  0  0  0  0  0  0  0  0
   37.3760   24.7070   38.3890 H   0  0  0  0  0  0  0  0  0  0  0  0
   38.3530   24.7820   36.4780 C   0  0  0  0  0  0  0  0  0  0  0  0
   37.5240   25.8070   36.0000 N   0  0  0  0  0  0  0  0  0  0  0  0
   36.7880   26.1620   36.6450 H   0  0  0  0  0  0  0  0  0  0  0  0
   37.7300   28.4140   30.5950 S   0  0  0  0  0  0  0  0  0  0  0  0
   34.7480   30.9750   31.1520 C   0  0  0  0  0  0  0  0  0  0  0  0
   35.2430   32.2180   30.7640 C   0  0  0  0  0  0  0  0  0  0  0  0
   36.5480   32.3230   30.3040 C   0  0  0  0  0  0  0  0  0  0  0  0
   37.2660   31.1400   30.2700 C   0  0  0  0  0  0  0  0  0  0  0  0
   36.7700   29.9290   30.6520 C   0  0  0  0  0  0  0  0  0  0  0  0
   35.4880   29.8380   31.1030 N   0  0  0  0  0  0  0  0  0  0  0  0
   34.6190   33.1040   30.8190 H   0  0  0  0  0  0  0  0  0  0  0  0
   36.9890   33.2540   29.9890 H   0  0  0  0  0  0  0  0  0  0  0  0
   38.2980   31.1060   29.9270 H   0  0  0  0  0  0  0  0  0  0  0  0
   33.3750   30.9520   31.6220 C   0  0  0  0  0  0  0  0  0  0  0  0
   32.4540   31.3930   30.9110 O   0  0  0  0  0  0  0  0  0  0  0  0
   32.1000   29.3660   33.0020 C   0  0  0  0  0  0  0  0  0  0  0  0
   32.9950   30.4240   32.9240 C   0  0  0  0  0  0  0  0  0  0  0  0
   33.4890   30.9290   34.1230 C   0  0  0  0  0  0  0  0  0  0  0  0
   33.0930   30.3900   35.3180 N   0  0  0  0  0  0  0  0  0  0  0  0
   32.2090   29.3480   35.3300 C   0  0  0  0  0  0  0  0  0  0  0  0
   31.7290   28.8540   34.2060 N   0  0  0  0  0  0  0  0  0  0  0  0
   31.7040   28.9580   32.0780 H   0  0  0  0  0  0  0  0  0  0  0  0
   34.1850   31.7540   34.0440 H   0  0  0  0  0  0  0  0  0  0  0  0
   31.9280   28.9570   36.3020 H   0  0  0  0  0  0  0  0  0  0  0  0
  1  8  2  0  0  0  0
  1  2  1  0  0  0  0
  2  4  2  0  0  0  0
  3  2  1  0  0  0  0
  4  6  1  0  0  0  0
  4  5  1  0  0  0  0
  6 21  1  0  0  0  0
  7 10  1  0  0  0  0
  7  6  2  0  0  0  0
  8  7  1  0  0  0  0
  9  8  1  0  0  0  0
 10 11  1  0  0  0  0
 11 12  2  0  0  0  0
 11 20  1  0  0  0  0
 12 14  1  0  0  0  0
 13 12  1  0  0  0  0
 14 15  1  0  0  0  0
 14 16  2  0  0  0  0
 16 17  1  0  0  0  0
 18 16  1  0  0  0  0
 18 19  1  0  0  0  0
 20 18  2  0  0  0  0
 21 20  1  0  0  0  0
 21 22  1  0  0  0  0
 23 28  1  0  0  0  0
 23  1  1  0  0  0  0
 24 33  1  0  0  0  0
 25 30  1  0  0  0  0
 25 24  2  0  0  0  0
 26 25  1  0  0  0  0
 27 26  2  0  0  0  0
 27 28  1  0  0  0  0
 28 29  2  0  0  0  0
 29 24  1  0  0  0  0
 31 26  1  0  0  0  0
 32 27  1  0  0  0  0
 33 36  1  0  0  0  0
 34 33  2  0  0  0  0
 35 40  1  0  0  0  0
 36 35  2  0  0  0  0
 36 37  1  0  0  0  0
 37 38  2  0  0  0  0
 38 39  1  0  0  0  0
 39 43  1  0  0  0  0
 40 39  2  0  0  0  0
 41 35  1  0  0  0  0
 42 37  1  0  0  0  0
M  END
>  <minimizedAffinity>
-6.38127279

$$$$

 OpenBabel03262522123D

 43 47  0  0  0  0  0  0  0  0999 V2000
   38.5750   25.1250   35.9270 C   0  0  0  0  0  0  0  0  0  0  0  0
   38.0630   24.2990   36.8870 C   0  0  0  0  0  0  0  0  0  0  0  0
   37.0980   24.5350   37.3060 H   0  0  0  0  0  0  0  0  0  0  0  0
   38.7930   23.2000   37.2870 C   0  0  0  0  0  0  0  0  0  0  0  0
   38.3150   22.5950   38.0540 H   0  0  0  0  0  0  0  0  0  0  0  0
   40.0270   22.8710   36.7730 C   0  0  0  0  0  0  0  0  0  0  0  0
   40.5200   23.7040   35.8190 C   0  0  0  0  0  0  0  0  0  0  0  0
   39.8290   24.7870   35.4070 C   0  0  0  0  0  0  0  0  0  0  0  0
   40.2210   25.4580   34.6410 H   0  0  0  0  0  0  0  0  0  0  0  0
   42.1110   23.3400   35.1080 S   0  0  0  0  0  0  0  0  0  0  0  0
   42.6810   21.8530   35.9090 C   0  0  0  0  0  0  0  0  0  0  0  0
   43.8930   21.3560   35.5380 C   0  0  0  0  0  0  0  0  0  0  0  0
   44.4880   21.8610   34.7750 H   0  0  0  0  0  0  0  0  0  0  0  0
   44.4060   20.2170   36.1050 C   0  0  0  0  0  0  0  0  0  0  0  0
   45.3590   19.7790   35.8510 H   0  0  0  0  0  0  0  0  0  0  0  0
   43.6480   19.5750   37.0760 C   0  0  0  0  0  0  0  0  0  0  0  0
   44.0270   18.6800   37.5350 H   0  0  0  0  0  0  0  0  0  0  0  0
   42.4400   20.1240   37.4030 C   0  0  0  0  0  0  0  0  0  0  0  0
   41.8900   19.5670   38.1780 H   0  0  0  0  0  0  0  0  0  0  0  0
   41.8870   21.2640   36.8620 C   0  0  0  0  0  0  0  0  0  0  0  0
   40.6320   21.7080   37.2990 N   0  0  0  0  0  0  0  0  0  0  0  0
   40.1580   21.1430   38.0340 H   0  0  0  0  0  0  0  0  0  0  0  0
   37.6360   26.5530   35.4030 S   0  0  0  0  0  0  0  0  0  0  0  0
   37.0860   25.0850   31.7560 C   0  0  0  0  0  0  0  0  0  0  0  0
   36.4510   26.0950   31.0350 C   0  0  0  0  0  0  0  0  0  0  0  0
   36.1580   27.2990   31.6580 C   0  0  0  0  0  0  0  0  0  0  0  0
   36.5360   27.3930   32.9860 C   0  0  0  0  0  0  0  0  0  0  0  0
   37.1580   26.3980   33.6800 C   0  0  0  0  0  0  0  0  0  0  0  0
   37.4400   25.2190   33.0590 N   0  0  0  0  0  0  0  0  0  0  0  0
   36.1840   25.9480   29.9940 H   0  0  0  0  0  0  0  0  0  0  0  0
   35.6690   28.1180   31.1570 H   0  0  0  0  0  0  0  0  0  0  0  0
   36.3550   28.2920   33.5710 H   0  0  0  0  0  0  0  0  0  0  0  0
   37.3560   23.8560   31.0310 C   0  0  0  0  0  0  0  0  0  0  0  0
   38.0500   23.8680   29.9990 O   0  0  0  0  0  0  0  0  0  0  0  0
   37.6880   21.4580   31.4610 C   0  0  0  0  0  0  0  0  0  0  0  0
   36.8440   22.5610   31.4550 C   0  0  0  0  0  0  0  0  0  0  0  0
   35.5300   22.3600   31.8660 C   0  0  0  0  0  0  0  0  0  0  0  0
   35.1080   21.1170   32.2530 N   0  0  0  0  0  0  0  0  0  0  0  0
   35.9850   20.0680   32.2390 C   0  0  0  0  0  0  0  0  0  0  0  0
   37.2350   20.2370   31.8530 N   0  0  0  0  0  0  0  0  0  0  0  0
   38.7160   21.5950   31.1450 H   0  0  0  0  0  0  0  0  0  0  0  0
   34.8870   23.2300   31.8540 H   0  0  0  0  0  0  0  0  0  0  0  0
   35.6000   19.1050   32.5550 H   0  0  0  0  0  0  0  0  0  0  0  0
  1  2  1  0  0  0  0
  2  4  2  0  0  0  0
  2  3  1  0  0  0  0
  4  5  1  0  0  0  0
  6  4  1  0  0  0  0
  6 21  1  0  0  0  0
  7  6  2  0  0  0  0
  8  7  1  0  0  0  0
  8  1  2  0  0  0  0
  9  8  1  0  0  0  0
 10  7  1  0  0  0  0
 10 11  1  0  0  0  0
 11 20  1  0  0  0  0
 12 11  2  0  0  0  0
 12 14  1  0  0  0  0
 13 12  1  0  0  0  0
 14 16  2  0  0  0  0
 15 14  1  0  0  0  0
 16 18  1  0  0  0  0
 16 17  1  0  0  0  0
 18 19  1  0  0  0  0
 20 21  1  0  0  0  0
 20 18  2  0  0  0  0
 21 22  1  0  0  0  0
 23  1  1  0  0  0  0
 24 29  1  0  0  0  0
 25 26  1  0  0  0  0
 25 24  2  0  0  0  0
 26 27  2  0  0  0  0
 27 32  1  0  0  0  0
 27 28  1  0  0  0  0
 28 23  1  0  0  0  0
 29 28  2  0  0  0  0
 30 25  1  0  0  0  0
 31 26  1  0  0  0  0
 33 36  1  0  0  0  0
 33 24  1  0  0  0  0
 34 33  2  0  0  0  0
 35 40  1  0  0  0  0
 36 35  2  0  0  0  0
 36 37  1  0  0  0  0
 37 38  2  0  0  0  0
 39 38  1  0  0  0  0
 39 43  1  0  0  0  0
 40 39  2  0  0  0  0
 41 35  1  0  0  0  0
 42 37  1  0  0  0  0
M  END
>  <minimizedAffinity>
-6.35294008

$$$$

 OpenBabel03262522123D

 43 47  0  0  0  0  0  0  0  0999 V2000
   37.2300   23.0520   31.1700 C   0  0  0  0  0  0  0  0  0  0  0  0
   38.3840   23.1170   30.4400 C   0  0  0  0  0  0  0  0  0  0  0  0
   38.9260   22.2040   30.2550 H   0  0  0  0  0  0  0  0  0  0  0  0
   38.8120   24.3400   29.9700 C   0  0  0  0  0  0  0  0  0  0  0  0
   39.7370   24.3050   29.3990 H   0  0  0  0  0  0  0  0  0  0  0  0
   38.1440   25.5230   30.1900 C   0  0  0  0  0  0  0  0  0  0  0  0
   36.9980   25.4380   30.9180 C   0  0  0  0  0  0  0  0  0  0  0  0
   36.5530   24.2570   31.3910 C   0  0  0  0  0  0  0  0  0  0  0  0
   35.6350   24.1840   31.9750 H   0  0  0  0  0  0  0  0  0  0  0  0
   36.0800   26.9300   31.2400 S   0  0  0  0  0  0  0  0  0  0  0  0
   36.9880   28.2480   30.4560 C   0  0  0  0  0  0  0  0  0  0  0  0
   36.4890   29.5100   30.5560 C   0  0  0  0  0  0  0  0  0  0  0  0
   35.5620   29.6970   31.1010 H   0  0  0  0  0  0  0  0  0  0  0  0
   37.1250   30.5810   29.9820 C   0  0  0  0  0  0  0  0  0  0  0  0
   36.7760   31.6010   30.0290 H   0  0  0  0  0  0  0  0  0  0  0  0
   38.3040   30.3430   29.2870 C   0  0  0  0  0  0  0  0  0  0  0  0
   38.8210   31.1650   28.8280 H   0  0  0  0  0  0  0  0  0  0  0  0
   38.7520   29.0530   29.2230 C   0  0  0  0  0  0  0  0  0  0  0  0
   39.6900   28.9330   28.6590 H   0  0  0  0  0  0  0  0  0  0  0  0
   38.1470   27.9500   29.7830 C   0  0  0  0  0  0  0  0  0  0  0  0
   38.7280   26.6830   29.6330 N   0  0  0  0  0  0  0  0  0  0  0  0
   39.6150   26.6280   29.0900 H   0  0  0  0  0  0  0  0  0  0  0  0
   36.6670   21.4700   31.7850 S   0  0  0  0  0  0  0  0  0  0  0  0
   37.5620   22.2310   35.5770 C   0  0  0  0  0  0  0  0  0  0  0  0
   36.6530   21.4940   36.3330 C   0  0  0  0  0  0  0  0  0  0  0  0
   35.7030   20.7130   35.6920 C   0  0  0  0  0  0  0  0  0  0  0  0
   35.7450   20.7370   34.3080 C   0  0  0  0  0  0  0  0  0  0  0  0
   36.6400   21.4620   33.5790 C   0  0  0  0  0  0  0  0  0  0  0  0
   37.5680   22.2260   34.2200 N   0  0  0  0  0  0  0  0  0  0  0  0
   36.6820   21.5250   37.4170 H   0  0  0  0  0  0  0  0  0  0  0  0
   34.9730   20.1200   36.2180 H   0  0  0  0  0  0  0  0  0  0  0  0
   35.0470   20.1620   33.7040 H   0  0  0  0  0  0  0  0  0  0  0  0
   38.5220   23.0220   36.3250 C   0  0  0  0  0  0  0  0  0  0  0  0
   39.1080   22.5420   37.3110 O   0  0  0  0  0  0  0  0  0  0  0  0
   39.9880   24.6590   35.2210 C   0  0  0  0  0  0  0  0  0  0  0  0
   38.8530   24.3970   35.9780 C   0  0  0  0  0  0  0  0  0  0  0  0
   38.0810   25.4870   36.3680 C   0  0  0  0  0  0  0  0  0  0  0  0
   38.4450   26.7570   36.0100 N   0  0  0  0  0  0  0  0  0  0  0  0
   39.5730   26.9530   35.2630 C   0  0  0  0  0  0  0  0  0  0  0  0
   40.3190   25.9350   34.8830 N   0  0  0  0  0  0  0  0  0  0  0  0
   40.6030   23.8230   34.9070 H   0  0  0  0  0  0  0  0  0  0  0  0
   37.2020   25.2640   36.9570 H   0  0  0  0  0  0  0  0  0  0  0  0
   39.8170   27.9780   35.0070 H   0  0  0  0  0  0  0  0  0  0  0  0
  1  8  1  0  0  0  0
  1 23  1  0  0  0  0
  2  1  2  0  0  0  0
  3  2  1  0  0  0  0
  4  6  2  0  0  0  0
  4  2  1  0  0  0  0
  5  4  1  0  0  0  0
  6  7  1  0  0  0  0
  7 10  1  0  0  0  0
  7  8  2  0  0  0  0
  8  9  1  0  0  0  0
 11 12  1  0  0  0  0
 11 10  1  0  0  0  0
 12 13  1  0  0  0  0
 14 15  1  0  0  0  0
 14 12  2  0  0  0  0
 16 14  1  0  0  0  0
 17 16  1  0  0  0  0
 18 16  2  0  0  0  0
 18 20  1  0  0  0  0
 19 18  1  0  0  0  0
 20 11  2  0  0  0  0
 21 20  1  0  0  0  0
 21  6  1  0  0  0  0
 22 21  1  0  0  0  0
 23 28  1  0  0  0  0
 24 33  1  0  0  0  0
 24 25  1  0  0  0  0
 25 30  1  0  0  0  0
 26 31  1  0  0  0  0
 26 25  2  0  0  0  0
 27 26  1  0  0  0  0
 28 29  1  0  0  0  0
 28 27  2  0  0  0  0
 29 24  2  0  0  0  0
 32 27  1  0  0  0  0
 33 34  2  0  0  0  0
 35 36  1  0  0  0  0
 36 33  1  0  0  0  0
 36 37  2  0  0  0  0
 37 42  1  0  0  0  0
 38 37  1  0  0  0  0
 39 38  2  0  0  0  0
 40 35  2  0  0  0  0
 40 39  1  0  0  0  0
 41 35  1  0  0  0  0
 43 39  1  0  0  0  0
M  END
>  <minimizedAffinity>
-6.32861996

$$$$

 OpenBabel03262522123D

 43 47  0  0  0  0  0  0  0  0999 V2000
   37.3360   27.6940   32.6510 C   0  0  0  0  0  0  0  0  0  0  0  0
   38.4780   27.4220   31.9510 C   0  0  0  0  0  0  0  0  0  0  0  0
   38.6420   27.9350   31.0170 H   0  0  0  0  0  0  0  0  0  0  0  0
   39.3740   26.5060   32.4590 C   0  0  0  0  0  0  0  0  0  0  0  0
   40.2560   26.3470   31.8410 H   0  0  0  0  0  0  0  0  0  0  0  0
   39.1940   25.8340   33.6460 C   0  0  0  0  0  0  0  0  0  0  0  0
   38.0530   26.1180   34.3280 C   0  0  0  0  0  0  0  0  0  0  0  0
   37.1570   27.0090   33.8580 C   0  0  0  0  0  0  0  0  0  0  0  0
   36.2400   27.2400   34.4020 H   0  0  0  0  0  0  0  0  0  0  0  0
   37.7550   25.2860   35.8750 S   0  0  0  0  0  0  0  0  0  0  0  0
   39.1510   24.2110   36.1350 C   0  0  0  0  0  0  0  0  0  0  0  0
   39.1680   23.4520   37.2650 C   0  0  0  0  0  0  0  0  0  0  0  0
   38.3460   23.5080   37.9810 H   0  0  0  0  0  0  0  0  0  0  0  0
   40.2050   22.5980   37.5420 C   0  0  0  0  0  0  0  0  0  0  0  0
   40.2690   21.9740   38.4200 H   0  0  0  0  0  0  0  0  0  0  0  0
   41.2510   22.5270   36.6310 C   0  0  0  0  0  0  0  0  0  0  0  0
   42.0750   21.8660   36.8250 H   0  0  0  0  0  0  0  0  0  0  0  0
   41.1750   23.3150   35.5170 C   0  0  0  0  0  0  0  0  0  0  0  0
   42.0350   23.2120   34.8360 H   0  0  0  0  0  0  0  0  0  0  0  0
   40.1550   24.1850   35.1980 C   0  0  0  0  0  0  0  0  0  0  0  0
   40.2170   24.9300   34.0130 N   0  0  0  0  0  0  0  0  0  0  0  0
   41.0520   24.7930   33.4080 H   0  0  0  0  0  0  0  0  0  0  0  0
   36.1670   28.8800   32.0000 S   0  0  0  0  0  0  0  0  0  0  0  0
   33.0370   29.6490   34.3170 C   0  0  0  0  0  0  0  0  0  0  0  0
   33.5040   30.5150   35.3050 C   0  0  0  0  0  0  0  0  0  0  0  0
   34.8340   30.9070   35.2980 C   0  0  0  0  0  0  0  0  0  0  0  0
   35.6060   30.3850   34.2750 C   0  0  0  0  0  0  0  0  0  0  0  0
   35.1380   29.5390   33.3140 C   0  0  0  0  0  0  0  0  0  0  0  0
   33.8300   29.1600   33.3300 N   0  0  0  0  0  0  0  0  0  0  0  0
   32.8370   30.8840   36.0770 H   0  0  0  0  0  0  0  0  0  0  0  0
   35.2560   31.5730   36.0320 H   0  0  0  0  0  0  0  0  0  0  0  0
   36.6630   30.6260   34.1740 H   0  0  0  0  0  0  0  0  0  0  0  0
   31.6330   29.2880   34.3960 C   0  0  0  0  0  0  0  0  0  0  0  0
   30.8980   29.3800   33.3980 O   0  0  0  0  0  0  0  0  0  0  0  0
   29.8880   29.4510   36.1200 C   0  0  0  0  0  0  0  0  0  0  0  0
   31.0110   28.8050   35.6200 C   0  0  0  0  0  0  0  0  0  0  0  0
   31.4850   27.7080   36.3330 C   0  0  0  0  0  0  0  0  0  0  0  0
   30.8550   27.3010   37.4790 N   0  0  0  0  0  0  0  0  0  0  0  0
   29.7530   27.9780   37.9220 C   0  0  0  0  0  0  0  0  0  0  0  0
   29.2870   29.0200   37.2620 N   0  0  0  0  0  0  0  0  0  0  0  0
   29.5030   30.3080   35.5790 H   0  0  0  0  0  0  0  0  0  0  0  0
   32.3600   27.2160   35.9290 H   0  0  0  0  0  0  0  0  0  0  0  0
   29.2920   27.6160   38.8340 H   0  0  0  0  0  0  0  0  0  0  0  0
  1  8  1  0  0  0  0
  2  4  1  0  0  0  0
  2  1  2  0  0  0  0
  3  2  1  0  0  0  0
  4  6  2  0  0  0  0
  5  4  1  0  0  0  0
  6 21  1  0  0  0  0
  6  7  1  0  0  0  0
  7 10  1  0  0  0  0
  8  7  2  0  0  0  0
  8  9  1  0  0  0  0
 10 11  1  0  0  0  0
 11 12  1  0  0  0  0
 12 14  2  0  0  0  0
 12 13  1  0  0  0  0
 14 15  1  0  0  0  0
 16 17  1  0  0  0  0
 16 14  1  0  0  0  0
 18 16  2  0  0  0  0
 19 18  1  0  0  0  0
 20 18  1  0  0  0  0
 20 11  2  0  0  0  0
 21 20  1  0  0  0  0
 22 21  1  0  0  0  0
 23  1  1  0  0  0  0
 23 28  1  0  0  0  0
 24 33  1  0  0  0  0
 24 25  1  0  0  0  0
 25 30  1  0  0  0  0
 26 25  2  0  0  0  0
 26 31  1  0  0  0  0
 27 26  1  0  0  0  0
 28 29  1  0  0  0  0
 28 27  2  0  0  0  0
 29 24  2  0  0  0  0
 32 27  1  0  0  0  0
 33 36  1  0  0  0  0
 34 33  2  0  0  0  0
 35 40  1  0  0  0  0
 36 35  2  0  0  0  0
 36 37  1  0  0  0  0
 37 38  2  0  0  0  0
 38 39  1  0  0  0  0
 39 43  1  0  0  0  0
 40 39  2  0  0  0  0
 41 35  1  0  0  0  0
 42 37  1  0  0  0  0
M  END
>  <minimizedAffinity>
-6.3089056

$$$$

 OpenBabel03262522123D

 43 47  0  0  0  0  0  0  0  0999 V2000
   35.3790   29.0790   33.4430 C   0  0  0  0  0  0  0  0  0  0  0  0
   34.0870   29.1390   33.0030 C   0  0  0  0  0  0  0  0  0  0  0  0
   33.7780   28.4590   32.2260 H   0  0  0  0  0  0  0  0  0  0  0  0
   33.2300   30.0630   33.5610 C   0  0  0  0  0  0  0  0  0  0  0  0
   32.2210   30.0460   33.1540 H   0  0  0  0  0  0  0  0  0  0  0  0
   33.5940   30.9460   34.5520 C   0  0  0  0  0  0  0  0  0  0  0  0
   34.8820   30.8700   34.9780 C   0  0  0  0  0  0  0  0  0  0  0  0
   35.7450   29.9770   34.4520 C   0  0  0  0  0  0  0  0  0  0  0  0
   36.7790   29.9130   34.7910 H   0  0  0  0  0  0  0  0  0  0  0  0
   35.4230   31.9820   36.2600 S   0  0  0  0  0  0  0  0  0  0  0  0
   34.0080   32.9820   36.6760 C   0  0  0  0  0  0  0  0  0  0  0  0
   34.1590   33.9260   37.6460 C   0  0  0  0  0  0  0  0  0  0  0  0
   35.1210   34.0560   38.1450 H   0  0  0  0  0  0  0  0  0  0  0  0
   33.1210   34.7380   38.0260 C   0  0  0  0  0  0  0  0  0  0  0  0
   33.1840   35.5010   38.7860 H   0  0  0  0  0  0  0  0  0  0  0  0
   31.8970   34.5700   37.3900 C   0  0  0  0  0  0  0  0  0  0  0  0
   31.0680   35.1940   37.6710 H   0  0  0  0  0  0  0  0  0  0  0  0
   31.8100   33.6050   36.4260 C   0  0  0  0  0  0  0  0  0  0  0  0
   30.8140   33.5240   35.9630 H   0  0  0  0  0  0  0  0  0  0  0  0
   32.8240   32.7700   36.0130 C   0  0  0  0  0  0  0  0  0  0  0  0
   32.5840   31.8230   35.0070 N   0  0  0  0  0  0  0  0  0  0  0  0
   31.6250   31.7910   34.6040 H   0  0  0  0  0  0  0  0  0  0  0  0
   36.4980   27.8840   32.7250 S   0  0  0  0  0  0  0  0  0  0  0  0
   38.2550   24.9320   34.7150 C   0  0  0  0  0  0  0  0  0  0  0  0
   38.6350   25.4770   35.9400 C   0  0  0  0  0  0  0  0  0  0  0  0
   38.3590   26.8100   36.2110 C   0  0  0  0  0  0  0  0  0  0  0  0
   37.7080   27.5020   35.2050 C   0  0  0  0  0  0  0  0  0  0  0  0
   37.3420   26.9570   34.0100 C   0  0  0  0  0  0  0  0  0  0  0  0
   37.6180   25.6470   33.7540 N   0  0  0  0  0  0  0  0  0  0  0  0
   39.1430   24.8710   36.6820 H   0  0  0  0  0  0  0  0  0  0  0  0
   38.6260   27.2900   37.1370 H   0  0  0  0  0  0  0  0  0  0  0  0
   37.4430   28.5520   35.3100 H   0  0  0  0  0  0  0  0  0  0  0  0
   38.5810   23.5320   34.5110 C   0  0  0  0  0  0  0  0  0  0  0  0
   39.7620   23.1720   34.3580 O   0  0  0  0  0  0  0  0  0  0  0  0
   37.0850   22.0450   33.2470 C   0  0  0  0  0  0  0  0  0  0  0  0
   37.5720   22.4840   34.4710 C   0  0  0  0  0  0  0  0  0  0  0  0
   37.0540   21.8830   35.6150 C   0  0  0  0  0  0  0  0  0  0  0  0
   36.1050   20.9020   35.5130 N   0  0  0  0  0  0  0  0  0  0  0  0
   35.6650   20.5100   34.2790 C   0  0  0  0  0  0  0  0  0  0  0  0
   36.1420   21.0670   33.1820 N   0  0  0  0  0  0  0  0  0  0  0  0
   37.4760   22.5010   32.3440 H   0  0  0  0  0  0  0  0  0  0  0  0
   37.4440   22.2370   36.5600 H   0  0  0  0  0  0  0  0  0  0  0  0
   34.9140   19.7300   34.2530 H   0  0  0  0  0  0  0  0  0  0  0  0
  1  8  1  0  0  0  0
  2  1  2  0  0  0  0
  2  4  1  0  0  0  0
  3  2  1  0  0  0  0
  4  6  2  0  0  0  0
  5  4  1  0  0  0  0
  6  7  1  0  0  0  0
  6 21  1  0  0  0  0
  7 10  1  0  0  0  0
  8  9  1  0  0  0  0
  8  7  2  0  0  0  0
 10 11  1  0  0  0  0
 11 12  1  0  0  0  0
 12 14  2  0  0  0  0
 12 13  1  0  0  0  0
 14 15  1  0  0  0  0
 16 17  1  0  0  0  0
 16 14  1  0  0  0  0
 18 16  2  0  0  0  0
 19 18  1  0  0  0  0
 20 18  1  0  0  0  0
 20 11  2  0  0  0  0
 21 20  1  0  0  0  0
 22 21  1  0  0  0  0
 23  1  1  0  0  0  0
 23 28  1  0  0  0  0
 24 25  1  0  0  0  0
 25 26  2  0  0  0  0
 25 30  1  0  0  0  0
 26 31  1  0  0  0  0
 27 32  1  0  0  0  0
 27 26  1  0  0  0  0
 28 27  2  0  0  0  0
 29 28  1  0  0  0  0
 29 24  2  0  0  0  0
 33 24  1  0  0  0  0
 34 33  2  0  0  0  0
 35 36  1  0  0  0  0
 36 33  1  0  0  0  0
 36 37  2  0  0  0  0
 37 42  1  0  0  0  0
 38 37  1  0  0  0  0
 39 38  2  0  0  0  0
 40 35  2  0  0  0  0
 40 39  1  0  0  0  0
 41 35  1  0  0  0  0
 43 39  1  0  0  0  0
M  END
>  <minimizedAffinity>
-6.23931694

$$$$
