
 OpenBabel03262520543D

 39 43  0  0  1  0  0  0  0  0999 V2000
   39.0640   27.1070   51.7690 C   0  0  0  0  0  0  0  0  0  0  0  0
   39.1410   26.6510   53.0700 C   0  0  0  0  0  0  0  0  0  0  0  0
   38.7220   27.2520   53.8460 H   0  0  0  0  0  0  0  0  0  0  0  0
   39.7540   25.4390   53.3070 C   0  0  0  0  0  0  0  0  0  0  0  0
   39.7700   25.1550   54.3720 H   0  0  0  0  0  0  0  0  0  0  0  0
   40.3060   24.6360   52.3310 C   0  0  0  0  0  0  0  0  0  0  0  0
   40.2140   25.1160   51.0500 C   0  0  0  0  0  0  0  0  0  0  0  0
   39.6180   26.2980   50.7950 C   0  0  0  0  0  0  0  0  0  0  0  0
   39.5610   26.6510   49.7590 H   0  0  0  0  0  0  0  0  0  0  0  0
   40.9070   24.1250   49.7440 S   0  0  0  0  0  0  0  0  0  0  0  0
   41.5830   22.6700   50.5150 C   0  0  0  0  0  0  0  0  0  0  0  0
   42.1770   21.7510   49.6910 C   0  0  0  0  0  0  0  0  0  0  0  0
   42.2330   21.8970   48.6280 H   0  0  0  0  0  0  0  0  0  0  0  0
   42.7210   20.6000   50.2190 C   0  0  0  0  0  0  0  0  0  0  0  0
   43.1940   19.8610   49.5890 H   0  0  0  0  0  0  0  0  0  0  0  0
   42.6530   20.4010   51.5800 C   0  0  0  0  0  0  0  0  0  0  0  0
   43.0720   19.5080   52.0240 H   0  0  0  0  0  0  0  0  0  0  0  0
   42.0430   21.3660   52.3520 C   0  0  0  0  0  0  0  0  0  0  0  0
   42.0200   21.1510   53.4210 H   0  0  0  0  0  0  0  0  0  0  0  0
   41.4810   22.5340   51.8780 C   0  0  0  0  0  0  0  0  0  0  0  0
   40.8820   23.4460   52.7780 N   0  0  0  0  0  0  0  0  0  0  0  0
   40.8960   23.1780   53.7840 H   0  0  0  0  0  0  0  0  0  0  0  0
   38.2730   28.6750   51.4270 S   0  0  0  0  0  0  0  0  0  0  0  0
   36.0600   29.2310   49.7680 C   0  0  2  0  0  0  0  0  0  0  0  0
   35.4730   29.1910   51.1070 C   0  0  0  0  0  0  0  0  0  0  0  0
   36.6240   28.2880   50.7700 C   0  0  2  0  0  0  0  0  0  0  0  0
   35.5960   28.7250   48.8970 H   0  0  0  0  0  0  0  0  0  0  0  0
   34.4660   28.7890   51.2860 H   0  0  0  0  0  0  0  0  0  0  0  0
   35.7020   30.0690   51.7780 H   0  0  0  0  0  0  0  0  0  0  0  0
   36.3230   27.2210   50.7030 H   0  0  0  0  0  0  0  0  0  0  0  0
   37.8280   32.5270   49.6250 C   0  0  0  0  0  0  0  0  0  0  0  0
   38.5830   32.3680   48.4590 C   0  0  0  0  0  0  0  0  0  0  0  0
   38.4950   31.1520   47.7300 C   0  0  0  0  0  0  0  0  0  0  0  0
   37.6650   30.1770   48.2060 N   0  0  0  0  0  0  0  0  0  0  0  0
   36.9520   30.3740   49.3400 C   0  0  0  0  0  0  0  0  0  0  0  0
   37.0150   31.5260   50.0590 N   0  0  0  0  0  0  0  0  0  0  0  0
   37.9070   33.4540   50.1640 H   0  0  0  0  0  0  0  0  0  0  0  0
   39.2400   33.1470   48.0870 H   0  0  0  0  0  0  0  0  0  0  0  0
   39.0630   30.9950   46.8260 H   0  0  0  0  0  0  0  0  0  0  0  0
  1  2  1  0  0  0  0
  2  4  2  0  0  0  0
  2  3  1  0  0  0  0
  4  5  1  0  0  0  0
  6 21  1  0  0  0  0
  6  4  1  0  0  0  0
  7  6  2  0  0  0  0
  8  7  1  0  0  0  0
  8  1  2  0  0  0  0
  9  8  1  0  0  0  0
 10 11  1  0  0  0  0
 10  7  1  0  0  0  0
 11 20  1  0  0  0  0
 12 14  1  0  0  0  0
 12 11  2  0  0  0  0
 13 12  1  0  0  0  0
 14 16  2  0  0  0  0
 15 14  1  0  0  0  0
 16 17  1  0  0  0  0
 16 18  1  0  0  0  0
 18 19  1  0  0  0  0
 20 18  2  0  0  0  0
 20 21  1  0  0  0  0
 21 22  1  0  0  0  0
 23  1  1  0  0  0  0
 24 27  1  6  0  0  0
 24 26  1  0  0  0  0
 24 25  1  0  0  0  0
 25 28  1  0  0  0  0
 25 29  1  0  0  0  0
 26 30  1  6  0  0  0
 26 25  1  0  0  0  0
 26 23  1  0  0  0  0
 31 36  1  0  0  0  0
 31 37  1  0  0  0  0
 32 31  2  0  0  0  0
 33 34  2  0  0  0  0
 33 32  1  0  0  0  0
 34 35  1  0  0  0  0
 35 24  1  0  0  0  0
 35 36  2  0  0  0  0
 38 32  1  0  0  0  0
 39 33  1  0  0  0  0
M  END
>  <minimizedAffinity>
-1.50235474

>  <minimizedRMSD>
3.5953877

$$$$
