
 OpenBabel03272503303D

 47 51  0  0  1  0  0  0  0  0999 V2000
   35.2520   29.5430   47.9310 C   0  0  0  0  0  0  0  0  0  0  0  0
   35.2060   29.9760   46.6060 C   0  0  0  0  0  0  0  0  0  0  0  0
   34.0770   29.6600   45.8660 C   0  0  0  0  0  0  0  0  0  0  0  0
   33.0860   28.9430   46.4930 N   0  0  0  0  0  0  0  0  0  0  0  0
   33.1620   28.5430   47.7710 C   0  0  0  0  0  0  0  0  0  0  0  0
   34.2510   28.8460   48.4920 N   0  0  0  0  0  0  0  0  0  0  0  0
   35.9750   30.5330   46.1120 H   0  0  0  0  0  0  0  0  0  0  0  0
   33.9560   29.9560   44.8260 H   0  0  0  0  0  0  0  0  0  0  0  0
   36.4310   29.8810   48.6840 N   0  0  0  0  0  0  0  0  0  0  0  0
   37.5560   30.6340   48.2340 C   0  0  0  0  0  0  0  0  0  0  0  0
   38.0650   31.2820   49.5220 C   0  0  2  0  0  0  0  0  0  0  0  0
   37.0790   30.8910   50.5970 C   0  0  0  0  0  0  0  0  0  0  0  0
   36.7020   29.5150   50.0510 C   0  0  0  0  0  0  0  0  0  0  0  0
   38.3240   29.9150   47.8980 H   0  0  0  0  0  0  0  0  0  0  0  0
   37.3120   31.4140   47.4800 H   0  0  0  0  0  0  0  0  0  0  0  0
   39.0450   30.8300   49.8320 H   0  0  0  0  0  0  0  0  0  0  0  0
   36.1770   31.5160   50.5260 H   0  0  0  0  0  0  0  0  0  0  0  0
   37.5180   30.8500   51.6000 H   0  0  0  0  0  0  0  0  0  0  0  0
   35.7680   29.1910   50.5390 H   0  0  0  0  0  0  0  0  0  0  0  0
   37.5370   28.7990   50.1680 H   0  0  0  0  0  0  0  0  0  0  0  0
   38.2460   32.7660   49.3980 C   0  0  0  0  0  0  0  0  0  0  0  0
   37.0930   33.3370   49.8990 F   0  0  0  0  0  0  0  0  0  0  0  0
   38.2970   33.0550   48.0560 F   0  0  0  0  0  0  0  0  0  0  0  0
   39.3600   33.2350   50.0260 F   0  0  0  0  0  0  0  0  0  0  0  0
   31.8520   27.6160   48.5450 S   0  0  0  0  0  0  0  0  0  0  0  0
   30.3460   27.7350   47.5980 C   0  0  0  0  0  0  0  0  0  0  0  0
   29.3830   28.7090   47.8460 C   0  0  0  0  0  0  0  0  0  0  0  0
   29.5460   29.4150   48.6290 H   0  0  0  0  0  0  0  0  0  0  0  0
   28.2410   28.7290   47.0610 C   0  0  0  0  0  0  0  0  0  0  0  0
   27.5360   29.5190   47.3140 H   0  0  0  0  0  0  0  0  0  0  0  0
   27.9830   27.8400   46.0370 C   0  0  0  0  0  0  0  0  0  0  0  0
   28.9530   26.8970   45.8250 C   0  0  0  0  0  0  0  0  0  0  0  0
   30.0780   26.8550   46.5760 C   0  0  0  0  0  0  0  0  0  0  0  0
   30.8200   26.0780   46.3610 H   0  0  0  0  0  0  0  0  0  0  0  0
   28.6980   25.7180   44.5290 S   0  0  0  0  0  0  0  0  0  0  0  0
   27.1270   26.1050   43.7900 C   0  0  0  0  0  0  0  0  0  0  0  0
   26.6980   25.3280   42.7540 C   0  0  0  0  0  0  0  0  0  0  0  0
   27.2770   24.4900   42.3650 H   0  0  0  0  0  0  0  0  0  0  0  0
   25.4870   25.5680   42.1300 C   0  0  0  0  0  0  0  0  0  0  0  0
   25.1590   24.9540   41.3170 H   0  0  0  0  0  0  0  0  0  0  0  0
   24.7210   26.6210   42.5880 C   0  0  0  0  0  0  0  0  0  0  0  0
   23.7790   26.8320   42.1270 H   0  0  0  0  0  0  0  0  0  0  0  0
   25.2140   27.3630   43.6390 C   0  0  0  0  0  0  0  0  0  0  0  0
   24.5530   28.1840   43.9530 H   0  0  0  0  0  0  0  0  0  0  0  0
   26.4130   27.1620   44.2910 C   0  0  0  0  0  0  0  0  0  0  0  0
   26.7810   28.0070   45.3510 N   0  0  0  0  0  0  0  0  0  0  0  0
   26.1150   28.7680   45.6050 H   0  0  0  0  0  0  0  0  0  0  0  0
  1  6  1  0  0  0  0
  1  9  1  0  0  0  0
  2  1  2  0  0  0  0
  3  4  2  0  0  0  0
  3  2  1  0  0  0  0
  4  5  1  0  0  0  0
  5  6  2  0  0  0  0
  5 25  1  0  0  0  0
  7  2  1  0  0  0  0
  8  3  1  0  0  0  0
  9 13  1  0  0  0  0
 10  9  1  0  0  0  0
 10 11  1  0  0  0  0
 11 16  1  1  0  0  0
 11 12  1  0  0  0  0
 12 18  1  0  0  0  0
 13 20  1  0  0  0  0
 13 19  1  0  0  0  0
 13 12  1  0  0  0  0
 14 10  1  0  0  0  0
 15 10  1  0  0  0  0
 17 12  1  0  0  0  0
 21 11  1  0  0  0  0
 21 22  1  0  0  0  0
 21 24  1  0  0  0  0
 23 21  1  0  0  0  0
 26 27  1  0  0  0  0
 26 25  1  0  0  0  0
 27 28  1  0  0  0  0
 29 30  1  0  0  0  0
 29 27  2  0  0  0  0
 31 29  1  0  0  0  0
 32 31  2  0  0  0  0
 32 33  1  0  0  0  0
 33 26  2  0  0  0  0
 34 33  1  0  0  0  0
 35 32  1  0  0  0  0
 36 45  1  0  0  0  0
 36 35  1  0  0  0  0
 37 36  2  0  0  0  0
 38 37  1  0  0  0  0
 39 41  2  0  0  0  0
 39 37  1  0  0  0  0
 40 39  1  0  0  0  0
 41 43  1  0  0  0  0
 42 41  1  0  0  0  0
 43 44  1  0  0  0  0
 43 45  2  0  0  0  0
 45 46  1  0  0  0  0
 46 47  1  0  0  0  0
 46 31  1  0  0  0  0
M  END
>  <minimizedAffinity>
-7.08812809

>  <minimizedRMSD>
1.22016466

$$$$
