
 OpenBabel03272503303D

 47 51  0  0  1  0  0  0  0  0999 V2000
   35.2590   29.5410   47.9450 C   0  0  0  0  0  0  0  0  0  0  0  0
   35.2020   29.9790   46.6230 C   0  0  0  0  0  0  0  0  0  0  0  0
   34.0700   29.6600   45.8890 C   0  0  0  0  0  0  0  0  0  0  0  0
   33.0860   28.9370   46.5200 N   0  0  0  0  0  0  0  0  0  0  0  0
   33.1730   28.5320   47.7950 C   0  0  0  0  0  0  0  0  0  0  0  0
   34.2650   28.8370   48.5100 N   0  0  0  0  0  0  0  0  0  0  0  0
   35.9650   30.5420   46.1260 H   0  0  0  0  0  0  0  0  0  0  0  0
   33.9400   29.9610   44.8510 H   0  0  0  0  0  0  0  0  0  0  0  0
   36.4420   29.8820   48.6910 N   0  0  0  0  0  0  0  0  0  0  0  0
   37.5610   30.6390   48.2350 C   0  0  0  0  0  0  0  0  0  0  0  0
   38.0760   31.2870   49.5210 C   0  0  2  0  0  0  0  0  0  0  0  0
   37.0980   30.8920   50.6010 C   0  0  0  0  0  0  0  0  0  0  0  0
   36.7220   29.5150   50.0570 C   0  0  0  0  0  0  0  0  0  0  0  0
   38.3300   29.9230   47.8940 H   0  0  0  0  0  0  0  0  0  0  0  0
   37.3110   31.4190   47.4830 H   0  0  0  0  0  0  0  0  0  0  0  0
   39.0590   30.8370   49.8250 H   0  0  0  0  0  0  0  0  0  0  0  0
   36.1930   31.5140   50.5360 H   0  0  0  0  0  0  0  0  0  0  0  0
   37.5430   30.8500   51.6010 H   0  0  0  0  0  0  0  0  0  0  0  0
   35.7910   29.1880   50.5500 H   0  0  0  0  0  0  0  0  0  0  0  0
   37.5600   28.8010   50.1680 H   0  0  0  0  0  0  0  0  0  0  0  0
   38.2520   32.7710   49.3980 C   0  0  0  0  0  0  0  0  0  0  0  0
   37.0960   33.3380   49.8970 F   0  0  0  0  0  0  0  0  0  0  0  0
   38.3040   33.0610   48.0560 F   0  0  0  0  0  0  0  0  0  0  0  0
   39.3640   33.2440   50.0270 F   0  0  0  0  0  0  0  0  0  0  0  0
   31.8730   27.5950   48.5740 S   0  0  0  0  0  0  0  0  0  0  0  0
   30.3590   27.7120   47.6400 C   0  0  0  0  0  0  0  0  0  0  0  0
   29.3680   28.6410   47.9380 C   0  0  0  0  0  0  0  0  0  0  0  0
   29.5120   29.3140   48.7550 H   0  0  0  0  0  0  0  0  0  0  0  0
   28.2200   28.6640   47.1610 C   0  0  0  0  0  0  0  0  0  0  0  0
   27.4930   29.4180   47.4540 H   0  0  0  0  0  0  0  0  0  0  0  0
   27.9860   27.8190   46.0950 C   0  0  0  0  0  0  0  0  0  0  0  0
   28.9840   26.9190   45.8340 C   0  0  0  0  0  0  0  0  0  0  0  0
   30.1130   26.8750   46.5770 C   0  0  0  0  0  0  0  0  0  0  0  0
   30.8780   26.1340   46.3210 H   0  0  0  0  0  0  0  0  0  0  0  0
   28.7590   25.7980   44.4810 S   0  0  0  0  0  0  0  0  0  0  0  0
   27.1730   26.1700   43.7680 C   0  0  0  0  0  0  0  0  0  0  0  0
   26.7640   25.4330   42.6960 C   0  0  0  0  0  0  0  0  0  0  0  0
   27.3670   24.6320   42.2650 H   0  0  0  0  0  0  0  0  0  0  0  0
   25.5420   25.6640   42.0890 C   0  0  0  0  0  0  0  0  0  0  0  0
   25.2300   25.0810   41.2480 H   0  0  0  0  0  0  0  0  0  0  0  0
   24.7460   26.6670   42.6020 C   0  0  0  0  0  0  0  0  0  0  0  0
   23.7950   26.8710   42.1550 H   0  0  0  0  0  0  0  0  0  0  0  0
   25.2210   27.3730   43.6860 C   0  0  0  0  0  0  0  0  0  0  0  0
   24.5360   28.1560   44.0420 H   0  0  0  0  0  0  0  0  0  0  0  0
   26.4290   27.1780   44.3230 C   0  0  0  0  0  0  0  0  0  0  0  0
   26.7750   27.9820   45.4210 N   0  0  0  0  0  0  0  0  0  0  0  0
   26.0880   28.7080   45.7150 H   0  0  0  0  0  0  0  0  0  0  0  0
  1  6  1  0  0  0  0
  1  9  1  0  0  0  0
  2  1  2  0  0  0  0
  3  4  2  0  0  0  0
  3  2  1  0  0  0  0
  4  5  1  0  0  0  0
  5  6  2  0  0  0  0
  5 25  1  0  0  0  0
  7  2  1  0  0  0  0
  8  3  1  0  0  0  0
  9 13  1  0  0  0  0
 10  9  1  0  0  0  0
 10 11  1  0  0  0  0
 11 16  1  1  0  0  0
 11 12  1  0  0  0  0
 12 18  1  0  0  0  0
 13 20  1  0  0  0  0
 13 19  1  0  0  0  0
 13 12  1  0  0  0  0
 14 10  1  0  0  0  0
 15 10  1  0  0  0  0
 17 12  1  0  0  0  0
 21 11  1  0  0  0  0
 21 22  1  0  0  0  0
 21 24  1  0  0  0  0
 23 21  1  0  0  0  0
 26 27  1  0  0  0  0
 26 25  1  0  0  0  0
 27 28  1  0  0  0  0
 29 30  1  0  0  0  0
 29 27  2  0  0  0  0
 31 29  1  0  0  0  0
 32 31  2  0  0  0  0
 32 33  1  0  0  0  0
 33 26  2  0  0  0  0
 34 33  1  0  0  0  0
 35 32  1  0  0  0  0
 36 45  1  0  0  0  0
 36 35  1  0  0  0  0
 37 36  2  0  0  0  0
 38 37  1  0  0  0  0
 39 41  2  0  0  0  0
 39 37  1  0  0  0  0
 40 39  1  0  0  0  0
 41 43  1  0  0  0  0
 42 41  1  0  0  0  0
 43 44  1  0  0  0  0
 43 45  2  0  0  0  0
 45 46  1  0  0  0  0
 46 47  1  0  0  0  0
 46 31  1  0  0  0  0
M  END
>  <minimizedAffinity>
-7.09654999

>  <minimizedRMSD>
1.1945945

$$$$
