
 OpenBabel03262521213D

 46 49  0  0  0  0  0  0  0  0999 V2000
   38.0980   30.7990   50.0930 C   0  0  0  0  0  0  0  0  0  0  0  0
   37.6840   31.8350   50.2730 H   0  0  0  0  0  0  0  0  0  0  0  0
   39.1300   30.8550   50.4990 H   0  0  0  0  0  0  0  0  0  0  0  0
   38.0390   30.5190   48.6240 C   0  0  0  0  0  0  0  0  0  0  0  0
   37.5510   29.4950   48.5460 H   0  0  0  0  0  0  0  0  0  0  0  0
   39.0880   30.2490   48.3400 H   0  0  0  0  0  0  0  0  0  0  0  0
   37.3800   31.4050   47.8590 C   0  0  0  0  0  0  0  0  0  0  0  0
   36.8130   31.0120   46.9780 H   0  0  0  0  0  0  0  0  0  0  0  0
   36.6090   32.0260   48.4000 H   0  0  0  0  0  0  0  0  0  0  0  0
   38.4090   32.2480   47.5280 O   0  0  0  0  0  0  0  0  0  0  0  0
   38.6710   32.4940   46.2080 C   0  0  0  0  0  0  0  0  0  0  0  0
   39.9480   32.9330   45.9740 C   0  0  0  0  0  0  0  0  0  0  0  0
   40.3520   33.2220   44.6570 C   0  0  0  0  0  0  0  0  0  0  0  0
   39.4170   33.0410   43.6630 N   0  0  0  0  0  0  0  0  0  0  0  0
   38.1490   32.6000   43.9350 C   0  0  0  0  0  0  0  0  0  0  0  0
   37.7960   32.3340   45.1940 N   0  0  0  0  0  0  0  0  0  0  0  0
   37.7940   32.8350   41.5860 C   0  0  0  0  0  0  0  0  0  0  0  0
   38.9640   33.2920   41.3700 O   0  0  0  0  0  0  0  0  0  0  0  0
   37.2420   32.4410   42.8410 N   0  0  0  0  0  0  0  0  0  0  0  0
   40.7210   33.0920   46.7080 H   0  0  0  0  0  0  0  0  0  0  0  0
   41.3380   33.5680   44.4360 H   0  0  0  0  0  0  0  0  0  0  0  0
   37.1230   32.7280   40.7180 H   0  0  0  0  0  0  0  0  0  0  0  0
   36.2900   32.0670   43.0300 H   0  0  0  0  0  0  0  0  0  0  0  0
   37.1750   29.6620   51.0890 S   0  0  0  0  0  0  0  0  0  0  0  0
   35.6130   29.1610   50.3880 C   0  0  0  0  0  0  0  0  0  0  0  0
   34.4860   29.7710   50.9270 C   0  0  0  0  0  0  0  0  0  0  0  0
   34.5440   30.4970   51.7190 H   0  0  0  0  0  0  0  0  0  0  0  0
   33.2060   29.4960   50.4930 C   0  0  0  0  0  0  0  0  0  0  0  0
   32.3370   29.9760   50.9180 H   0  0  0  0  0  0  0  0  0  0  0  0
   33.0000   28.5660   49.4680 C   0  0  0  0  0  0  0  0  0  0  0  0
   34.1210   27.9710   48.9430 C   0  0  0  0  0  0  0  0  0  0  0  0
   35.4050   28.2460   49.3780 C   0  0  0  0  0  0  0  0  0  0  0  0
   36.3080   27.7970   48.9900 H   0  0  0  0  0  0  0  0  0  0  0  0
   33.9290   26.7820   47.6390 S   0  0  0  0  0  0  0  0  0  0  0  0
   32.1950   26.6320   47.2840 C   0  0  0  0  0  0  0  0  0  0  0  0
   31.7920   25.7600   46.2930 C   0  0  0  0  0  0  0  0  0  0  0  0
   32.4790   25.1530   45.7100 H   0  0  0  0  0  0  0  0  0  0  0  0
   30.4560   25.6120   45.9850 C   0  0  0  0  0  0  0  0  0  0  0  0
   30.0230   24.9590   45.2290 H   0  0  0  0  0  0  0  0  0  0  0  0
   29.5490   26.3710   46.7090 C   0  0  0  0  0  0  0  0  0  0  0  0
   28.4920   26.2960   46.5120 H   0  0  0  0  0  0  0  0  0  0  0  0
   29.9430   27.2450   47.7010 C   0  0  0  0  0  0  0  0  0  0  0  0
   29.2210   27.8220   48.2470 H   0  0  0  0  0  0  0  0  0  0  0  0
   31.2910   27.3950   48.0140 C   0  0  0  0  0  0  0  0  0  0  0  0
   31.6940   28.2970   49.0340 N   0  0  0  0  0  0  0  0  0  0  0  0
   30.9050   28.8210   49.5160 H   0  0  0  0  0  0  0  0  0  0  0  0
  1  2  1  0  0  0  0
  1  3  1  0  0  0  0
  1 24  1  0  0  0  0
  4  1  1  0  0  0  0
  5  4  1  0  0  0  0
  6  4  1  0  0  0  0
  7  9  1  0  0  0  0
  7  4  1  0  0  0  0
  8  7  1  0  0  0  0
 10  7  1  0  0  0  0
 11 10  1  0  0  0  0
 12 11  1  0  0  0  0
 12 20  1  0  0  0  0
 13 12  2  0  0  0  0
 14 15  2  0  0  0  0
 14 13  1  0  0  0  0
 15 16  1  0  0  0  0
 16 11  2  0  0  0  0
 17 19  1  0  0  0  0
 18 17  2  0  0  0  0
 19 23  1  0  0  0  0
 19 15  1  0  0  0  0
 21 13  1  0  0  0  0
 22 17  1  0  0  0  0
 25 26  1  0  0  0  0
 25 24  1  0  0  0  0
 26 27  1  0  0  0  0
 28 29  1  0  0  0  0
 28 26  2  0  0  0  0
 30 28  1  0  0  0  0
 31 32  1  0  0  0  0
 31 30  2  0  0  0  0
 32 25  2  0  0  0  0
 33 32  1  0  0  0  0
 34 31  1  0  0  0  0
 35 34  1  0  0  0  0
 35 44  1  0  0  0  0
 36 35  2  0  0  0  0
 37 36  1  0  0  0  0
 38 36  1  0  0  0  0
 38 40  2  0  0  0  0
 39 38  1  0  0  0  0
 40 42  1  0  0  0  0
 41 40  1  0  0  0  0
 42 44  2  0  0  0  0
 42 43  1  0  0  0  0
 44 45  1  0  0  0  0
 45 30  1  0  0  0  0
 45 46  1  0  0  0  0
M  END
>  <minimizedAffinity>
-5.61914206

>  <minimizedRMSD>
2.89270973

$$$$
