
 OpenBabel03272501583D

 44 48  0  0  0  0  0  0  0  0999 V2000
   32.9010   28.0710   47.9530 C   0  0  0  0  0  0  0  0  0  0  0  0
   31.8870   27.5540   48.7180 C   0  0  0  0  0  0  0  0  0  0  0  0
   30.6680   27.7760   48.0920 C   0  0  0  0  0  0  0  0  0  0  0  0
   30.9860   28.4280   46.9500 N   0  0  0  0  0  0  0  0  0  0  0  0
   32.2960   28.6000   46.8710 N   0  0  0  0  0  0  0  0  0  0  0  0
   31.9640   27.0400   49.6780 H   0  0  0  0  0  0  0  0  0  0  0  0
   29.6590   27.5000   48.4150 H   0  0  0  0  0  0  0  0  0  0  0  0
   30.1130   28.8970   45.9310 C   0  0  0  0  0  0  0  0  0  0  0  0
   30.1050   28.3160   44.6880 C   0  0  0  0  0  0  0  0  0  0  0  0
   30.7750   27.4930   44.4950 H   0  0  0  0  0  0  0  0  0  0  0  0
   29.2460   28.7910   43.7190 C   0  0  0  0  0  0  0  0  0  0  0  0
   29.3110   28.2660   42.7580 H   0  0  0  0  0  0  0  0  0  0  0  0
   28.3690   29.8370   43.9060 C   0  0  0  0  0  0  0  0  0  0  0  0
   28.3950   30.4020   45.1550 C   0  0  0  0  0  0  0  0  0  0  0  0
   29.2390   29.9410   46.1230 C   0  0  0  0  0  0  0  0  0  0  0  0
   29.2380   30.4100   47.1080 H   0  0  0  0  0  0  0  0  0  0  0  0
   27.2890   31.7610   45.4770 S   0  0  0  0  0  0  0  0  0  0  0  0
   26.3760   32.0440   43.9740 C   0  0  0  0  0  0  0  0  0  0  0  0
   25.4480   33.0490   43.9590 C   0  0  0  0  0  0  0  0  0  0  0  0
   25.2680   33.6610   44.8370 H   0  0  0  0  0  0  0  0  0  0  0  0
   24.7110   33.3180   42.8340 C   0  0  0  0  0  0  0  0  0  0  0  0
   23.9690   34.0980   42.7720 H   0  0  0  0  0  0  0  0  0  0  0  0
   24.9310   32.5470   41.7150 C   0  0  0  0  0  0  0  0  0  0  0  0
   24.3690   32.7400   40.8340 H   0  0  0  0  0  0  0  0  0  0  0  0
   25.8780   31.5490   41.7880 C   0  0  0  0  0  0  0  0  0  0  0  0
   25.9960   30.9780   40.8590 H   0  0  0  0  0  0  0  0  0  0  0  0
   26.6400   31.2420   42.8930 C   0  0  0  0  0  0  0  0  0  0  0  0
   27.5690   30.1870   42.8040 N   0  0  0  0  0  0  0  0  0  0  0  0
   27.6450   29.6760   41.9020 H   0  0  0  0  0  0  0  0  0  0  0  0
   34.3730   28.0390   48.2770 C   0  0  0  0  0  0  0  0  0  0  0  0
   34.6930   26.9880   48.0700 H   0  0  0  0  0  0  0  0  0  0  0  0
   34.9030   28.7430   47.5930 H   0  0  0  0  0  0  0  0  0  0  0  0
   34.4810   28.4260   49.7220 C   0  0  0  0  0  0  0  0  0  0  0  0
   33.5950   28.9110   50.1470 H   0  0  0  0  0  0  0  0  0  0  0  0
   34.6240   27.4620   50.2890 H   0  0  0  0  0  0  0  0  0  0  0  0
   37.2990   30.1780   51.3570 C   0  0  0  0  0  0  0  0  0  0  0  0
   38.0630   30.6250   50.2710 C   0  0  0  0  0  0  0  0  0  0  0  0
   37.5940   30.3130   48.9740 C   0  0  0  0  0  0  0  0  0  0  0  0
   36.4420   29.6070   48.8520 N   0  0  0  0  0  0  0  0  0  0  0  0
   35.7450   29.2020   49.9400 C   0  0  0  0  0  0  0  0  0  0  0  0
   36.1740   29.4880   51.1700 N   0  0  0  0  0  0  0  0  0  0  0  0
   37.6890   30.4350   52.3400 H   0  0  0  0  0  0  0  0  0  0  0  0
   38.9850   31.1890   50.3220 H   0  0  0  0  0  0  0  0  0  0  0  0
   38.0710   30.5880   48.0540 H   0  0  0  0  0  0  0  0  0  0  0  0
  1 30  1  0  0  0  0
  1  2  1  0  0  0  0
  2  6  1  0  0  0  0
  3  7  1  0  0  0  0
  3  2  2  0  0  0  0
  4  3  1  0  0  0  0
  5  4  1  0  0  0  0
  5  1  2  0  0  0  0
  8 15  1  0  0  0  0
  8  4  1  0  0  0  0
  9  8  2  0  0  0  0
 10  9  1  0  0  0  0
 11 13  2  0  0  0  0
 11  9  1  0  0  0  0
 12 11  1  0  0  0  0
 13 14  1  0  0  0  0
 14 17  1  0  0  0  0
 14 15  2  0  0  0  0
 15 16  1  0  0  0  0
 18 17  1  0  0  0  0
 19 18  1  0  0  0  0
 19 20  1  0  0  0  0
 21 19  2  0  0  0  0
 22 21  1  0  0  0  0
 23 25  2  0  0  0  0
 23 21  1  0  0  0  0
 24 23  1  0  0  0  0
 25 27  1  0  0  0  0
 26 25  1  0  0  0  0
 27 18  2  0  0  0  0
 28 27  1  0  0  0  0
 28 13  1  0  0  0  0
 29 28  1  0  0  0  0
 30 33  1  0  0  0  0
 31 30  1  0  0  0  0
 32 30  1  0  0  0  0
 33 40  1  0  0  0  0
 33 34  1  0  0  0  0
 33 35  1  0  0  0  0
 36 42  1  0  0  0  0
 37 43  1  0  0  0  0
 37 36  2  0  0  0  0
 38 37  1  0  0  0  0
 39 38  2  0  0  0  0
 39 40  1  0  0  0  0
 40 41  2  0  0  0  0
 41 36  1  0  0  0  0
 44 38  1  0  0  0  0
M  END
>  <minimizedAffinity>
-6.05546141

>  <minimizedRMSD>
0.938858926

$$$$
