
 OpenBabel03272501583D

 44 48  0  0  0  0  0  0  0  0999 V2000
   32.9570   28.0320   47.9260 C   0  0  0  0  0  0  0  0  0  0  0  0
   31.8800   27.4520   48.5460 C   0  0  0  0  0  0  0  0  0  0  0  0
   30.7150   27.7790   47.8640 C   0  0  0  0  0  0  0  0  0  0  0  0
   31.1290   28.5570   46.8380 N   0  0  0  0  0  0  0  0  0  0  0  0
   32.4430   28.7040   46.8760 N   0  0  0  0  0  0  0  0  0  0  0  0
   31.8760   26.8230   49.4380 H   0  0  0  0  0  0  0  0  0  0  0  0
   29.6800   27.4900   48.0770 H   0  0  0  0  0  0  0  0  0  0  0  0
   30.3420   29.1680   45.8230 C   0  0  0  0  0  0  0  0  0  0  0  0
   30.5960   28.9290   44.4950 C   0  0  0  0  0  0  0  0  0  0  0  0
   31.4060   28.2680   44.2330 H   0  0  0  0  0  0  0  0  0  0  0  0
   29.8160   29.5360   43.5340 C   0  0  0  0  0  0  0  0  0  0  0  0
   30.0930   29.2850   42.5020 H   0  0  0  0  0  0  0  0  0  0  0  0
   28.7700   30.3880   43.8080 C   0  0  0  0  0  0  0  0  0  0  0  0
   28.5340   30.6130   45.1410 C   0  0  0  0  0  0  0  0  0  0  0  0
   29.2980   30.0190   46.1040 C   0  0  0  0  0  0  0  0  0  0  0  0
   29.0880   30.2150   47.1550 H   0  0  0  0  0  0  0  0  0  0  0  0
   27.1970   31.7050   45.5790 S   0  0  0  0  0  0  0  0  0  0  0  0
   26.4680   32.2560   44.0520 C   0  0  0  0  0  0  0  0  0  0  0  0
   25.4060   33.1170   44.1130 C   0  0  0  0  0  0  0  0  0  0  0  0
   25.0130   33.4580   45.0670 H   0  0  0  0  0  0  0  0  0  0  0  0
   24.7980   33.5800   42.9750 C   0  0  0  0  0  0  0  0  0  0  0  0
   23.9590   34.2580   42.9710 H   0  0  0  0  0  0  0  0  0  0  0  0
   25.2870   33.1540   41.7610 C   0  0  0  0  0  0  0  0  0  0  0  0
   24.8300   33.5010   40.8660 H   0  0  0  0  0  0  0  0  0  0  0  0
   26.3580   32.2880   41.7580 C   0  0  0  0  0  0  0  0  0  0  0  0
   26.6920   31.9930   40.7550 H   0  0  0  0  0  0  0  0  0  0  0  0
   27.0000   31.7960   42.8740 C   0  0  0  0  0  0  0  0  0  0  0  0
   28.0840   30.9150   42.6990 N   0  0  0  0  0  0  0  0  0  0  0  0
   28.3620   30.6670   41.7290 H   0  0  0  0  0  0  0  0  0  0  0  0
   34.3990   27.9250   48.3500 C   0  0  0  0  0  0  0  0  0  0  0  0
   34.6450   26.8380   48.2720 H   0  0  0  0  0  0  0  0  0  0  0  0
   35.0250   28.5120   47.6360 H   0  0  0  0  0  0  0  0  0  0  0  0
   34.4520   28.4530   49.7520 C   0  0  0  0  0  0  0  0  0  0  0  0
   33.5630   29.0010   50.0830 H   0  0  0  0  0  0  0  0  0  0  0  0
   34.5420   27.5490   50.4190 H   0  0  0  0  0  0  0  0  0  0  0  0
   37.3090   30.1820   51.3470 C   0  0  0  0  0  0  0  0  0  0  0  0
   38.0640   30.6170   50.2510 C   0  0  0  0  0  0  0  0  0  0  0  0
   37.5760   30.3060   48.9600 C   0  0  0  0  0  0  0  0  0  0  0  0
   36.4140   29.6120   48.8540 N   0  0  0  0  0  0  0  0  0  0  0  0
   35.7280   29.2170   49.9530 C   0  0  0  0  0  0  0  0  0  0  0  0
   36.1750   29.5020   51.1770 N   0  0  0  0  0  0  0  0  0  0  0  0
   37.7130   30.4370   52.3250 H   0  0  0  0  0  0  0  0  0  0  0  0
   38.9920   31.1710   50.2890 H   0  0  0  0  0  0  0  0  0  0  0  0
   38.0440   30.5740   48.0330 H   0  0  0  0  0  0  0  0  0  0  0  0
  1 30  1  0  0  0  0
  1  2  1  0  0  0  0
  2  6  1  0  0  0  0
  3  7  1  0  0  0  0
  3  2  2  0  0  0  0
  4  5  1  0  0  0  0
  4  3  1  0  0  0  0
  5  1  2  0  0  0  0
  8 15  1  0  0  0  0
  8  4  1  0  0  0  0
  9  8  2  0  0  0  0
 10  9  1  0  0  0  0
 11 13  2  0  0  0  0
 11  9  1  0  0  0  0
 12 11  1  0  0  0  0
 13 14  1  0  0  0  0
 14 17  1  0  0  0  0
 14 15  2  0  0  0  0
 15 16  1  0  0  0  0
 18 19  1  0  0  0  0
 18 17  1  0  0  0  0
 19 20  1  0  0  0  0
 21 19  2  0  0  0  0
 22 21  1  0  0  0  0
 23 21  1  0  0  0  0
 24 23  1  0  0  0  0
 25 23  2  0  0  0  0
 25 27  1  0  0  0  0
 26 25  1  0  0  0  0
 27 18  2  0  0  0  0
 28 27  1  0  0  0  0
 28 13  1  0  0  0  0
 29 28  1  0  0  0  0
 30 33  1  0  0  0  0
 31 30  1  0  0  0  0
 32 30  1  0  0  0  0
 33 40  1  0  0  0  0
 33 34  1  0  0  0  0
 33 35  1  0  0  0  0
 36 42  1  0  0  0  0
 37 43  1  0  0  0  0
 37 36  2  0  0  0  0
 38 37  1  0  0  0  0
 39 38  2  0  0  0  0
 39 40  1  0  0  0  0
 40 41  2  0  0  0  0
 41 36  1  0  0  0  0
 44 38  1  0  0  0  0
M  END
>  <minimizedAffinity>
-6.02602577

>  <minimizedRMSD>
1.09448993

$$$$
