
 OpenBabel03272500173D

 47 51  0  0  0  0  0  0  0  0999 V2000
   35.0940   29.1820   50.5260 C   0  0  0  0  0  0  0  0  0  0  0  0
   36.0720   29.9300   49.8400 C   0  0  0  0  0  0  0  0  0  0  0  0
   35.9680   30.0400   48.4610 C   0  0  0  0  0  0  0  0  0  0  0  0
   34.9230   29.4170   47.8400 N   0  0  0  0  0  0  0  0  0  0  0  0
   34.0130   28.7150   48.5140 C   0  0  0  0  0  0  0  0  0  0  0  0
   34.0940   28.5980   49.8390 N   0  0  0  0  0  0  0  0  0  0  0  0
   35.1970   29.1110   51.5990 H   0  0  0  0  0  0  0  0  0  0  0  0
   36.7990   30.7750   47.5400 C   0  0  0  0  0  0  0  0  0  0  0  0
   37.8510   31.6520   47.6380 C   0  0  0  0  0  0  0  0  0  0  0  0
   38.2160   31.8100   48.6190 H   0  0  0  0  0  0  0  0  0  0  0  0
   38.4320   32.2600   46.5530 C   0  0  0  0  0  0  0  0  0  0  0  0
   39.2600   32.9360   46.7890 H   0  0  0  0  0  0  0  0  0  0  0  0
   38.0000   32.0330   45.2640 C   0  0  0  0  0  0  0  0  0  0  0  0
   36.9500   31.1610   45.0990 C   0  0  0  0  0  0  0  0  0  0  0  0
   36.4070   30.5850   46.1960 C   0  0  0  0  0  0  0  0  0  0  0  0
   35.5750   29.9080   45.9300 H   0  0  0  0  0  0  0  0  0  0  0  0
   36.3810   30.8550   43.4390 S   0  0  0  0  0  0  0  0  0  0  0  0
   37.4130   31.8430   42.3760 C   0  0  0  0  0  0  0  0  0  0  0  0
   37.1060   31.7270   41.0420 C   0  0  0  0  0  0  0  0  0  0  0  0
   36.3230   31.1080   40.6320 H   0  0  0  0  0  0  0  0  0  0  0  0
   37.8580   32.4630   40.1250 C   0  0  0  0  0  0  0  0  0  0  0  0
   37.6470   32.3970   39.0680 H   0  0  0  0  0  0  0  0  0  0  0  0
   38.8700   33.2680   40.6010 C   0  0  0  0  0  0  0  0  0  0  0  0
   39.4300   33.8200   39.8730 H   0  0  0  0  0  0  0  0  0  0  0  0
   39.1020   33.3200   41.9600 C   0  0  0  0  0  0  0  0  0  0  0  0
   39.9210   33.9850   42.2150 H   0  0  0  0  0  0  0  0  0  0  0  0
   38.3900   32.6150   42.9100 C   0  0  0  0  0  0  0  0  0  0  0  0
   38.7070   32.7380   44.2650 N   0  0  0  0  0  0  0  0  0  0  0  0
   39.4940   33.3800   44.4980 H   0  0  0  0  0  0  0  0  0  0  0  0
   32.6290   30.4250   46.4380 Cl  0  0  0  0  0  0  0  0  0  0  0  0
   32.2150   28.7540   46.7970 C   0  0  0  0  0  0  0  0  0  0  0  0
   32.9200   28.0650   47.7740 C   0  0  0  0  0  0  0  0  0  0  0  0
   32.6300   26.7300   48.0980 C   0  0  0  0  0  0  0  0  0  0  0  0
   31.5950   26.1320   47.3840 C   0  0  0  0  0  0  0  0  0  0  0  0
   30.8840   26.7950   46.4150 C   0  0  0  0  0  0  0  0  0  0  0  0
   29.6070   25.9370   45.5900 Cl  0  0  0  0  0  0  0  0  0  0  0  0
   31.2070   28.1110   46.1310 C   0  0  0  0  0  0  0  0  0  0  0  0
   33.1760   26.1910   48.8560 H   0  0  0  0  0  0  0  0  0  0  0  0
   31.3670   25.1010   47.6310 H   0  0  0  0  0  0  0  0  0  0  0  0
   30.4470   28.8400   45.0840 C   0  0  0  0  0  0  0  0  0  0  0  0
   29.3420   28.0920   44.6770 F   0  0  0  0  0  0  0  0  0  0  0  0
   31.2170   29.1670   44.0120 F   0  0  0  0  0  0  0  0  0  0  0  0
   29.9350   30.0230   45.6190 F   0  0  0  0  0  0  0  0  0  0  0  0
   37.1600   30.5950   50.6000 C   0  0  0  0  0  0  0  0  0  0  0  0
   38.4090   30.2520   50.1210 F   0  0  0  0  0  0  0  0  0  0  0  0
   36.9990   31.9710   50.5110 F   0  0  0  0  0  0  0  0  0  0  0  0
   37.1160   30.2810   51.9500 F   0  0  0  0  0  0  0  0  0  0  0  0
  1  7  1  0  0  0  0
  2  1  1  0  0  0  0
  2 44  1  0  0  0  0
  3  2  2  0  0  0  0
  4  3  1  0  0  0  0
  4  5  2  0  0  0  0
  5  6  1  0  0  0  0
  6  1  2  0  0  0  0
  8  9  1  0  0  0  0
  8  3  1  0  0  0  0
  9 10  1  0  0  0  0
 11 12  1  0  0  0  0
 11  9  2  0  0  0  0
 13 11  1  0  0  0  0
 14 13  2  0  0  0  0
 14 15  1  0  0  0  0
 15  8  2  0  0  0  0
 16 15  1  0  0  0  0
 17 14  1  0  0  0  0
 18 27  1  0  0  0  0
 18 17  1  0  0  0  0
 19 18  2  0  0  0  0
 20 19  1  0  0  0  0
 21 23  2  0  0  0  0
 21 19  1  0  0  0  0
 22 21  1  0  0  0  0
 23 25  1  0  0  0  0
 24 23  1  0  0  0  0
 25 26  1  0  0  0  0
 25 27  2  0  0  0  0
 27 28  1  0  0  0  0
 28 29  1  0  0  0  0
 28 13  1  0  0  0  0
 30 31  1  0  0  0  0
 31 32  1  0  0  0  0
 32 33  2  0  0  0  0
 32  5  1  0  0  0  0
 33 38  1  0  0  0  0
 34 39  1  0  0  0  0
 34 33  1  0  0  0  0
 35 34  2  0  0  0  0
 36 35  1  0  0  0  0
 37 35  1  0  0  0  0
 37 31  2  0  0  0  0
 40 43  1  0  0  0  0
 40 37  1  0  0  0  0
 41 40  1  0  0  0  0
 42 40  1  0  0  0  0
 44 47  1  0  0  0  0
 45 44  1  0  0  0  0
 46 44  1  0  0  0  0
M  END
>  <minimizedAffinity>
-7.73255777

>  <minimizedRMSD>
1.30026662

$$$$
