
 OpenBabel03272500173D

 47 51  0  0  0  0  0  0  0  0999 V2000
   35.3070   29.2110   50.4790 C   0  0  0  0  0  0  0  0  0  0  0  0
   36.2450   29.9940   49.7770 C   0  0  0  0  0  0  0  0  0  0  0  0
   36.1500   30.0540   48.3950 C   0  0  0  0  0  0  0  0  0  0  0  0
   35.1520   29.3490   47.7850 N   0  0  0  0  0  0  0  0  0  0  0  0
   34.2780   28.6150   48.4720 C   0  0  0  0  0  0  0  0  0  0  0  0
   34.3520   28.5450   49.8010 N   0  0  0  0  0  0  0  0  0  0  0  0
   35.4010   29.1800   51.5540 H   0  0  0  0  0  0  0  0  0  0  0  0
   36.9460   30.8090   47.4580 C   0  0  0  0  0  0  0  0  0  0  0  0
   37.9880   31.6970   47.5350 C   0  0  0  0  0  0  0  0  0  0  0  0
   38.3810   31.8500   48.5070 H   0  0  0  0  0  0  0  0  0  0  0  0
   38.5320   32.3250   46.4410 C   0  0  0  0  0  0  0  0  0  0  0  0
   39.3570   33.0080   46.6610 H   0  0  0  0  0  0  0  0  0  0  0  0
   38.0650   32.1050   45.1620 C   0  0  0  0  0  0  0  0  0  0  0  0
   37.0220   31.2220   45.0190 C   0  0  0  0  0  0  0  0  0  0  0  0
   36.5180   30.6280   46.1240 C   0  0  0  0  0  0  0  0  0  0  0  0
   35.6880   29.9440   45.8760 H   0  0  0  0  0  0  0  0  0  0  0  0
   36.4080   30.9260   43.3720 S   0  0  0  0  0  0  0  0  0  0  0  0
   37.3980   31.9390   42.2910 C   0  0  0  0  0  0  0  0  0  0  0  0
   37.0550   31.8320   40.9650 C   0  0  0  0  0  0  0  0  0  0  0  0
   36.2670   31.2060   40.5710 H   0  0  0  0  0  0  0  0  0  0  0  0
   37.7710   32.5850   40.0340 C   0  0  0  0  0  0  0  0  0  0  0  0
   37.5310   32.5290   38.9830 H   0  0  0  0  0  0  0  0  0  0  0  0
   38.7850   33.3980   40.4900 C   0  0  0  0  0  0  0  0  0  0  0  0
   39.3170   33.9650   39.7520 H   0  0  0  0  0  0  0  0  0  0  0  0
   39.0570   33.4390   41.8420 C   0  0  0  0  0  0  0  0  0  0  0  0
   39.8740   34.1130   42.0800 H   0  0  0  0  0  0  0  0  0  0  0  0
   38.3810   32.7160   42.8050 C   0  0  0  0  0  0  0  0  0  0  0  0
   38.7350   32.8290   44.1520 N   0  0  0  0  0  0  0  0  0  0  0  0
   39.5210   33.4790   44.3690 H   0  0  0  0  0  0  0  0  0  0  0  0
   32.6140   30.2460   46.5440 Cl  0  0  0  0  0  0  0  0  0  0  0  0
   32.4120   28.5230   46.8330 C   0  0  0  0  0  0  0  0  0  0  0  0
   33.2350   27.8770   47.7430 C   0  0  0  0  0  0  0  0  0  0  0  0
   33.1160   26.5030   48.0090 C   0  0  0  0  0  0  0  0  0  0  0  0
   32.1260   25.8220   47.3070 C   0  0  0  0  0  0  0  0  0  0  0  0
   31.3000   26.4410   46.4030 C   0  0  0  0  0  0  0  0  0  0  0  0
   30.0940   25.4780   45.5850 Cl  0  0  0  0  0  0  0  0  0  0  0  0
   31.4560   27.7970   46.1740 C   0  0  0  0  0  0  0  0  0  0  0  0
   33.7540   25.9970   48.7170 H   0  0  0  0  0  0  0  0  0  0  0  0
   32.0290   24.7600   47.5100 H   0  0  0  0  0  0  0  0  0  0  0  0
   30.5710   28.4800   45.1970 C   0  0  0  0  0  0  0  0  0  0  0  0
   29.5170   27.6430   44.8290 F   0  0  0  0  0  0  0  0  0  0  0  0
   31.2410   28.9080   44.0940 F   0  0  0  0  0  0  0  0  0  0  0  0
   29.9840   29.5940   45.7990 F   0  0  0  0  0  0  0  0  0  0  0  0
   37.2820   30.7490   50.5260 C   0  0  0  0  0  0  0  0  0  0  0  0
   38.5540   30.4750   50.0620 F   0  0  0  0  0  0  0  0  0  0  0  0
   37.0330   32.1090   50.4000 F   0  0  0  0  0  0  0  0  0  0  0  0
   37.2500   30.4670   51.8830 F   0  0  0  0  0  0  0  0  0  0  0  0
  1  7  1  0  0  0  0
  2  1  2  0  0  0  0
  2 44  1  0  0  0  0
  3  2  1  0  0  0  0
  4  3  2  0  0  0  0
  4  5  1  0  0  0  0
  5  6  2  0  0  0  0
  6  1  1  0  0  0  0
  8  9  1  0  0  0  0
  8  3  1  0  0  0  0
  9 10  1  0  0  0  0
 11 12  1  0  0  0  0
 11  9  2  0  0  0  0
 13 11  1  0  0  0  0
 14 13  2  0  0  0  0
 14 15  1  0  0  0  0
 15  8  2  0  0  0  0
 16 15  1  0  0  0  0
 17 14  1  0  0  0  0
 18 27  1  0  0  0  0
 18 17  1  0  0  0  0
 19 18  2  0  0  0  0
 20 19  1  0  0  0  0
 21 23  2  0  0  0  0
 21 19  1  0  0  0  0
 22 21  1  0  0  0  0
 23 25  1  0  0  0  0
 24 23  1  0  0  0  0
 25 26  1  0  0  0  0
 25 27  2  0  0  0  0
 27 28  1  0  0  0  0
 28 29  1  0  0  0  0
 28 13  1  0  0  0  0
 30 31  1  0  0  0  0
 31 32  1  0  0  0  0
 32 33  2  0  0  0  0
 32  5  1  0  0  0  0
 33 38  1  0  0  0  0
 34 39  1  0  0  0  0
 34 33  1  0  0  0  0
 35 34  2  0  0  0  0
 36 35  1  0  0  0  0
 37 35  1  0  0  0  0
 37 31  2  0  0  0  0
 40 43  1  0  0  0  0
 40 37  1  0  0  0  0
 41 40  1  0  0  0  0
 42 40  1  0  0  0  0
 44 47  1  0  0  0  0
 45 44  1  0  0  0  0
 46 44  1  0  0  0  0
M  END
>  <minimizedAffinity>
-7.64593315

>  <minimizedRMSD>
0.52095443

$$$$
