
 OpenBabel03272500173D

 47 51  0  0  0  0  0  0  0  0999 V2000
   35.0930   29.1820   50.5300 C   0  0  0  0  0  0  0  0  0  0  0  0
   36.0710   29.9290   49.8430 C   0  0  0  0  0  0  0  0  0  0  0  0
   35.9680   30.0400   48.4650 C   0  0  0  0  0  0  0  0  0  0  0  0
   34.9230   29.4170   47.8440 N   0  0  0  0  0  0  0  0  0  0  0  0
   34.0120   28.7150   48.5160 C   0  0  0  0  0  0  0  0  0  0  0  0
   34.0930   28.5980   49.8420 N   0  0  0  0  0  0  0  0  0  0  0  0
   35.1950   29.1110   51.6020 H   0  0  0  0  0  0  0  0  0  0  0  0
   36.8000   30.7750   47.5440 C   0  0  0  0  0  0  0  0  0  0  0  0
   37.8500   31.6510   47.6420 C   0  0  0  0  0  0  0  0  0  0  0  0
   38.2160   31.8090   48.6230 H   0  0  0  0  0  0  0  0  0  0  0  0
   38.4330   32.2590   46.5570 C   0  0  0  0  0  0  0  0  0  0  0  0
   39.2610   32.9350   46.7940 H   0  0  0  0  0  0  0  0  0  0  0  0
   38.0010   32.0320   45.2680 C   0  0  0  0  0  0  0  0  0  0  0  0
   36.9510   31.1600   45.1030 C   0  0  0  0  0  0  0  0  0  0  0  0
   36.4070   30.5840   46.1990 C   0  0  0  0  0  0  0  0  0  0  0  0
   35.5760   29.9070   45.9330 H   0  0  0  0  0  0  0  0  0  0  0  0
   36.3820   30.8540   43.4420 S   0  0  0  0  0  0  0  0  0  0  0  0
   37.4150   31.8430   42.3800 C   0  0  0  0  0  0  0  0  0  0  0  0
   37.1090   31.7270   41.0460 C   0  0  0  0  0  0  0  0  0  0  0  0
   36.3250   31.1070   40.6360 H   0  0  0  0  0  0  0  0  0  0  0  0
   37.8610   32.4610   40.1280 C   0  0  0  0  0  0  0  0  0  0  0  0
   37.6510   32.3950   39.0710 H   0  0  0  0  0  0  0  0  0  0  0  0
   38.8720   33.2670   40.6050 C   0  0  0  0  0  0  0  0  0  0  0  0
   39.4330   33.8180   39.8770 H   0  0  0  0  0  0  0  0  0  0  0  0
   39.1040   33.3180   41.9640 C   0  0  0  0  0  0  0  0  0  0  0  0
   39.9230   33.9840   42.2190 H   0  0  0  0  0  0  0  0  0  0  0  0
   38.3930   32.6130   42.9140 C   0  0  0  0  0  0  0  0  0  0  0  0
   38.7090   32.7370   44.2700 N   0  0  0  0  0  0  0  0  0  0  0  0
   39.4970   33.3790   44.5030 H   0  0  0  0  0  0  0  0  0  0  0  0
   32.6310   30.4250   46.4390 Cl  0  0  0  0  0  0  0  0  0  0  0  0
   32.2160   28.7550   46.7990 C   0  0  0  0  0  0  0  0  0  0  0  0
   32.9190   28.0660   47.7760 C   0  0  0  0  0  0  0  0  0  0  0  0
   32.6280   26.7310   48.1010 C   0  0  0  0  0  0  0  0  0  0  0  0
   31.5930   26.1330   47.3870 C   0  0  0  0  0  0  0  0  0  0  0  0
   30.8840   26.7960   46.4170 C   0  0  0  0  0  0  0  0  0  0  0  0
   29.6070   25.9380   45.5910 Cl  0  0  0  0  0  0  0  0  0  0  0  0
   31.2070   28.1120   46.1320 C   0  0  0  0  0  0  0  0  0  0  0  0
   33.1730   26.1920   48.8600 H   0  0  0  0  0  0  0  0  0  0  0  0
   31.3640   25.1020   47.6340 H   0  0  0  0  0  0  0  0  0  0  0  0
   30.4490   28.8400   45.0850 C   0  0  0  0  0  0  0  0  0  0  0  0
   29.3420   28.0940   44.6790 F   0  0  0  0  0  0  0  0  0  0  0  0
   31.2190   29.1640   44.0110 F   0  0  0  0  0  0  0  0  0  0  0  0
   29.9390   30.0260   45.6170 F   0  0  0  0  0  0  0  0  0  0  0  0
   37.1590   30.5950   50.6040 C   0  0  0  0  0  0  0  0  0  0  0  0
   38.4080   30.2550   50.1220 F   0  0  0  0  0  0  0  0  0  0  0  0
   36.9960   31.9710   50.5190 F   0  0  0  0  0  0  0  0  0  0  0  0
   37.1170   30.2780   51.9530 F   0  0  0  0  0  0  0  0  0  0  0  0
  1  7  1  0  0  0  0
  2  1  1  0  0  0  0
  2 44  1  0  0  0  0
  3  2  2  0  0  0  0
  4  3  1  0  0  0  0
  4  5  2  0  0  0  0
  5  6  1  0  0  0  0
  6  1  2  0  0  0  0
  8  9  1  0  0  0  0
  8  3  1  0  0  0  0
  9 10  1  0  0  0  0
 11 12  1  0  0  0  0
 11  9  2  0  0  0  0
 13 11  1  0  0  0  0
 14 13  2  0  0  0  0
 14 15  1  0  0  0  0
 15  8  2  0  0  0  0
 16 15  1  0  0  0  0
 17 14  1  0  0  0  0
 18 27  1  0  0  0  0
 18 17  1  0  0  0  0
 19 18  2  0  0  0  0
 20 19  1  0  0  0  0
 21 23  2  0  0  0  0
 21 19  1  0  0  0  0
 22 21  1  0  0  0  0
 23 25  1  0  0  0  0
 24 23  1  0  0  0  0
 25 26  1  0  0  0  0
 25 27  2  0  0  0  0
 27 28  1  0  0  0  0
 28 29  1  0  0  0  0
 28 13  1  0  0  0  0
 30 31  1  0  0  0  0
 31 32  1  0  0  0  0
 32 33  2  0  0  0  0
 32  5  1  0  0  0  0
 33 38  1  0  0  0  0
 34 39  1  0  0  0  0
 34 33  1  0  0  0  0
 35 34  2  0  0  0  0
 36 35  1  0  0  0  0
 37 35  1  0  0  0  0
 37 31  2  0  0  0  0
 40 43  1  0  0  0  0
 40 37  1  0  0  0  0
 41 40  1  0  0  0  0
 42 40  1  0  0  0  0
 44 47  1  0  0  0  0
 45 44  1  0  0  0  0
 46 44  1  0  0  0  0
M  END
>  <minimizedAffinity>
-7.7377305

>  <minimizedRMSD>
1.66056764

$$$$
