
 OpenBabel03272507183D

 43 47  0  0  1  0  0  0  0  0999 V2000
   36.6900   30.6720   45.8930 C   0  0  0  0  0  0  0  0  0  0  0  0
   37.3370   30.9270   44.6970 C   0  0  0  0  0  0  0  0  0  0  0  0
   38.2690   31.4820   44.6660 H   0  0  0  0  0  0  0  0  0  0  0  0
   36.7710   30.4560   43.5260 C   0  0  0  0  0  0  0  0  0  0  0  0
   37.2280   30.6220   42.5560 H   0  0  0  0  0  0  0  0  0  0  0  0
   35.5810   29.7450   43.5470 C   0  0  0  0  0  0  0  0  0  0  0  0
   34.9750   29.5190   44.7840 C   0  0  0  0  0  0  0  0  0  0  0  0
   35.5000   29.9690   45.9880 C   0  0  0  0  0  0  0  0  0  0  0  0
   35.0010   29.7750   46.9270 H   0  0  0  0  0  0  0  0  0  0  0  0
   33.4410   28.6110   44.8880 S   0  0  0  0  0  0  0  0  0  0  0  0
   32.9920   28.1560   43.2200 C   0  0  0  0  0  0  0  0  0  0  0  0
   31.8210   27.4390   43.0850 C   0  0  0  0  0  0  0  0  0  0  0  0
   31.2140   27.1690   43.9370 H   0  0  0  0  0  0  0  0  0  0  0  0
   31.4180   27.0570   41.8240 C   0  0  0  0  0  0  0  0  0  0  0  0
   30.5150   26.5050   41.7380 H   0  0  0  0  0  0  0  0  0  0  0  0
   32.2300   27.4260   40.7680 C   0  0  0  0  0  0  0  0  0  0  0  0
   31.8580   27.0940   39.7900 H   0  0  0  0  0  0  0  0  0  0  0  0
   33.3990   28.1430   40.9150 C   0  0  0  0  0  0  0  0  0  0  0  0
   33.9830   28.3950   40.0390 H   0  0  0  0  0  0  0  0  0  0  0  0
   33.8240   28.5400   42.1890 C   0  0  0  0  0  0  0  0  0  0  0  0
   35.0050   29.2650   42.3440 N   0  0  0  0  0  0  0  0  0  0  0  0
   35.5420   29.4890   41.4620 H   0  0  0  0  0  0  0  0  0  0  0  0
   37.3290   31.1940   49.5070 C   0  0  0  0  0  0  0  0  0  0  0  0
   38.3630   32.1130   49.5490 C   0  0  0  0  0  0  0  0  0  0  0  0
   38.8170   32.5320   48.2730 C   0  0  0  0  0  0  0  0  0  0  0  0
   38.2430   32.0370   47.1240 N   0  0  0  0  0  0  0  0  0  0  0  0
   37.2370   31.1430   47.1660 C   0  0  0  0  0  0  0  0  0  0  0  0
   36.7680   30.7100   48.3710 N   0  0  0  0  0  0  0  0  0  0  0  0
   38.7900   32.4800   50.4480 H   0  0  0  0  0  0  0  0  0  0  0  0
   39.6100   33.2380   48.2070 H   0  0  0  0  0  0  0  0  0  0  0  0
   36.8000   30.7660   50.8390 C   0  0  1  0  0  0  0  0  0  0  0  0
   36.0860   29.5010   51.0200 C   0  0  2  0  0  0  0  0  0  0  0  0
   37.5390   29.5280   51.3850 C   0  0  0  0  0  0  0  0  0  0  0  0
   36.7990   31.6030   51.5920 H   0  0  0  0  0  0  0  0  0  0  0  0
   35.2830   29.5840   51.8140 H   0  0  0  0  0  0  0  0  0  0  0  0
   37.7590   29.4940   52.4660 H   0  0  0  0  0  0  0  0  0  0  0  0
   38.2270   28.9820   50.7160 H   0  0  0  0  0  0  0  0  0  0  0  0
   35.6910   28.8320   49.8700 O   0  0  0  0  0  0  0  0  0  0  0  0
   34.4500   28.4820   49.4490 C   0  0  0  0  0  0  0  0  0  0  0  0
   34.2560   27.5290   48.6650 O   0  0  0  0  0  0  0  0  0  0  0  0
   33.5290   29.3510   50.0350 N   0  0  0  0  0  0  0  0  0  0  0  0
   32.8020   29.1150   50.7530 H   0  0  0  0  0  0  0  0  0  0  0  0
   33.3550   30.3890   49.9020 H   0  0  0  0  0  0  0  0  0  0  0  0
  1  8  1  0  0  0  0
  1 27  1  0  0  0  0
  2  1  2  0  0  0  0
  3  2  1  0  0  0  0
  4  6  2  0  0  0  0
  4  2  1  0  0  0  0
  5  4  1  0  0  0  0
  6  7  1  0  0  0  0
  7 10  1  0  0  0  0
  7  8  2  0  0  0  0
  8  9  1  0  0  0  0
 11 10  1  0  0  0  0
 12 11  1  0  0  0  0
 12 13  1  0  0  0  0
 14 12  2  0  0  0  0
 15 14  1  0  0  0  0
 16 18  2  0  0  0  0
 16 14  1  0  0  0  0
 17 16  1  0  0  0  0
 18 20  1  0  0  0  0
 19 18  1  0  0  0  0
 20 21  1  0  0  0  0
 20 11  2  0  0  0  0
 21  6  1  0  0  0  0
 22 21  1  0  0  0  0
 23 24  1  0  0  0  0
 23 31  1  0  0  0  0
 24 29  1  0  0  0  0
 25 24  2  0  0  0  0
 26 27  2  0  0  0  0
 26 25  1  0  0  0  0
 27 28  1  0  0  0  0
 28 23  2  0  0  0  0
 30 25  1  0  0  0  0
 31 32  1  0  0  0  0
 31 33  1  0  0  0  0
 31 34  1  1  0  0  0
 32 33  1  0  0  0  0
 32 35  1  1  0  0  0
 33 36  1  0  0  0  0
 37 33  1  0  0  0  0
 38 32  1  0  0  0  0
 39 38  1  0  0  0  0
 39 41  1  0  0  0  0
 40 39  2  0  0  0  0
 41 42  1  0  0  0  0
 43 41  1  0  0  0  0
M  END
>  <minimizedAffinity>
-5.62414694

>  <minimizedRMSD>
0.966719866

$$$$
