
 OpenBabel03272507183D

 43 47  0  0  1  0  0  0  0  0999 V2000
   37.9280   30.8640   45.8520 C   0  0  0  0  0  0  0  0  0  0  0  0
   36.7180   30.4460   45.3300 C   0  0  0  0  0  0  0  0  0  0  0  0
   35.7980   30.5260   45.8990 H   0  0  0  0  0  0  0  0  0  0  0  0
   36.6970   29.9190   44.0510 C   0  0  0  0  0  0  0  0  0  0  0  0
   35.7800   29.5740   43.5830 H   0  0  0  0  0  0  0  0  0  0  0  0
   37.8630   29.8100   43.3080 C   0  0  0  0  0  0  0  0  0  0  0  0
   39.0540   30.2480   43.8900 C   0  0  0  0  0  0  0  0  0  0  0  0
   39.1290   30.7830   45.1680 C   0  0  0  0  0  0  0  0  0  0  0  0
   40.0720   31.1130   45.5850 H   0  0  0  0  0  0  0  0  0  0  0  0
   40.5930   30.1370   42.9920 S   0  0  0  0  0  0  0  0  0  0  0  0
   40.2170   29.4220   41.4000 C   0  0  0  0  0  0  0  0  0  0  0  0
   41.2890   29.2510   40.5470 C   0  0  0  0  0  0  0  0  0  0  0  0
   42.2930   29.5330   40.8270 H   0  0  0  0  0  0  0  0  0  0  0  0
   41.0660   28.7040   39.3020 C   0  0  0  0  0  0  0  0  0  0  0  0
   41.9010   28.5790   38.6580 H   0  0  0  0  0  0  0  0  0  0  0  0
   39.7640   28.3580   38.9940 C   0  0  0  0  0  0  0  0  0  0  0  0
   39.6480   27.9270   37.9900 H   0  0  0  0  0  0  0  0  0  0  0  0
   38.7000   28.5340   39.8540 C   0  0  0  0  0  0  0  0  0  0  0  0
   37.7060   28.2390   39.5410 H   0  0  0  0  0  0  0  0  0  0  0  0
   38.9080   29.0880   41.1230 C   0  0  0  0  0  0  0  0  0  0  0  0
   37.8360   29.2680   41.9980 N   0  0  0  0  0  0  0  0  0  0  0  0
   36.8850   28.9660   41.6500 H   0  0  0  0  0  0  0  0  0  0  0  0
   37.5090   31.4650   49.4870 C   0  0  0  0  0  0  0  0  0  0  0  0
   38.2560   32.6010   49.7410 C   0  0  0  0  0  0  0  0  0  0  0  0
   38.9020   33.1360   48.5980 C   0  0  0  0  0  0  0  0  0  0  0  0
   38.7640   32.5380   47.3660 N   0  0  0  0  0  0  0  0  0  0  0  0
   38.0170   31.4300   47.1990 C   0  0  0  0  0  0  0  0  0  0  0  0
   37.3770   30.8800   48.2700 N   0  0  0  0  0  0  0  0  0  0  0  0
   38.3490   33.0440   50.7000 H   0  0  0  0  0  0  0  0  0  0  0  0
   39.5000   34.0110   48.6970 H   0  0  0  0  0  0  0  0  0  0  0  0
   36.7810   30.9020   50.6660 C   0  0  1  0  0  0  0  0  0  0  0  0
   36.0720   29.6230   50.6010 C   0  0  2  0  0  0  0  0  0  0  0  0
   37.4450   29.6170   51.1990 C   0  0  0  0  0  0  0  0  0  0  0  0
   36.6410   31.6590   51.4880 H   0  0  0  0  0  0  0  0  0  0  0  0
   35.1490   29.6230   51.2580 H   0  0  0  0  0  0  0  0  0  0  0  0
   37.4890   29.4750   52.2930 H   0  0  0  0  0  0  0  0  0  0  0  0
   38.2430   29.1450   50.6000 H   0  0  0  0  0  0  0  0  0  0  0  0
   35.8810   29.0720   49.3420 O   0  0  0  0  0  0  0  0  0  0  0  0
   34.7310   28.8150   48.6690 C   0  0  0  0  0  0  0  0  0  0  0  0
   34.3090   27.6540   48.4910 O   0  0  0  0  0  0  0  0  0  0  0  0
   34.1850   30.0320   48.2580 N   0  0  0  0  0  0  0  0  0  0  0  0
   33.2960   30.4730   48.5950 H   0  0  0  0  0  0  0  0  0  0  0  0
   34.5170   30.7520   47.5530 H   0  0  0  0  0  0  0  0  0  0  0  0
  1 27  1  0  0  0  0
  2  1  1  0  0  0  0
  2  3  1  0  0  0  0
  4  2  2  0  0  0  0
  5  4  1  0  0  0  0
  6  7  2  0  0  0  0
  6  4  1  0  0  0  0
  7  8  1  0  0  0  0
  8  9  1  0  0  0  0
  8  1  2  0  0  0  0
 10  7  1  0  0  0  0
 11 10  1  0  0  0  0
 12 13  1  0  0  0  0
 12 11  2  0  0  0  0
 14 12  1  0  0  0  0
 15 14  1  0  0  0  0
 16 14  2  0  0  0  0
 16 18  1  0  0  0  0
 17 16  1  0  0  0  0
 18 20  2  0  0  0  0
 19 18  1  0  0  0  0
 20 11  1  0  0  0  0
 20 21  1  0  0  0  0
 21  6  1  0  0  0  0
 22 21  1  0  0  0  0
 23 24  1  0  0  0  0
 23 31  1  0  0  0  0
 24 29  1  0  0  0  0
 25 30  1  0  0  0  0
 25 24  2  0  0  0  0
 26 25  1  0  0  0  0
 27 26  2  0  0  0  0
 27 28  1  0  0  0  0
 28 23  2  0  0  0  0
 31 33  1  0  0  0  0
 31 34  1  1  0  0  0
 32 31  1  0  0  0  0
 32 33  1  0  0  0  0
 32 35  1  1  0  0  0
 33 36  1  0  0  0  0
 37 33  1  0  0  0  0
 38 32  1  0  0  0  0
 39 38  1  0  0  0  0
 40 39  2  0  0  0  0
 41 42  1  0  0  0  0
 41 39  1  0  0  0  0
 43 41  1  0  0  0  0
M  END
>  <minimizedAffinity>
-6.40523958

>  <minimizedRMSD>
2.58155966

$$$$
