
 OpenBabel03272507183D

 43 47  0  0  1  0  0  0  0  0999 V2000
   38.1250   30.6910   45.8770 C   0  0  0  0  0  0  0  0  0  0  0  0
   39.2880   30.2980   45.2390 C   0  0  0  0  0  0  0  0  0  0  0  0
   40.2600   30.4310   45.7020 H   0  0  0  0  0  0  0  0  0  0  0  0
   39.1910   29.7250   43.9830 C   0  0  0  0  0  0  0  0  0  0  0  0
   40.0640   29.3960   43.4290 H   0  0  0  0  0  0  0  0  0  0  0  0
   37.9560   29.5480   43.3760 C   0  0  0  0  0  0  0  0  0  0  0  0
   36.8190   29.9650   44.0710 C   0  0  0  0  0  0  0  0  0  0  0  0
   36.8610   30.5440   45.3320 C   0  0  0  0  0  0  0  0  0  0  0  0
   35.9580   30.8550   45.8380 H   0  0  0  0  0  0  0  0  0  0  0  0
   35.1970   29.7680   43.3500 S   0  0  0  0  0  0  0  0  0  0  0  0
   35.4260   29.0100   41.7500 C   0  0  0  0  0  0  0  0  0  0  0  0
   34.2760   28.7720   41.0260 C   0  0  0  0  0  0  0  0  0  0  0  0
   33.2990   29.0280   41.4040 H   0  0  0  0  0  0  0  0  0  0  0  0
   34.3840   28.1880   39.7820 C   0  0  0  0  0  0  0  0  0  0  0  0
   33.4910   28.0120   39.2380 H   0  0  0  0  0  0  0  0  0  0  0  0
   35.6580   27.8780   39.3450 C   0  0  0  0  0  0  0  0  0  0  0  0
   35.6820   27.4160   38.3480 H   0  0  0  0  0  0  0  0  0  0  0  0
   36.8020   28.1210   40.0780 C   0  0  0  0  0  0  0  0  0  0  0  0
   37.7670   27.8510   39.6670 H   0  0  0  0  0  0  0  0  0  0  0  0
   36.7110   28.7140   41.3430 C   0  0  0  0  0  0  0  0  0  0  0  0
   37.8630   28.9620   42.0890 N   0  0  0  0  0  0  0  0  0  0  0  0
   38.7820   28.6810   41.6490 H   0  0  0  0  0  0  0  0  0  0  0  0
   37.6410   31.3640   49.4910 C   0  0  0  0  0  0  0  0  0  0  0  0
   38.2930   32.5640   49.7130 C   0  0  0  0  0  0  0  0  0  0  0  0
   38.8990   33.1150   48.5560 C   0  0  0  0  0  0  0  0  0  0  0  0
   38.8160   32.4720   47.3420 N   0  0  0  0  0  0  0  0  0  0  0  0
   38.1610   31.3030   47.2070 C   0  0  0  0  0  0  0  0  0  0  0  0
   37.5630   30.7340   48.2920 N   0  0  0  0  0  0  0  0  0  0  0  0
   38.3450   33.0420   50.6580 H   0  0  0  0  0  0  0  0  0  0  0  0
   39.4240   34.0380   48.6300 H   0  0  0  0  0  0  0  0  0  0  0  0
   36.9560   30.7790   50.6850 C   0  0  1  0  0  0  0  0  0  0  0  0
   36.1290   29.5750   50.5920 C   0  0  2  0  0  0  0  0  0  0  0  0
   37.5370   29.4050   51.0730 C   0  0  0  0  0  0  0  0  0  0  0  0
   36.9500   31.4820   51.5650 H   0  0  0  0  0  0  0  0  0  0  0  0
   35.2630   29.6060   51.3210 H   0  0  0  0  0  0  0  0  0  0  0  0
   37.6510   29.1780   52.1470 H   0  0  0  0  0  0  0  0  0  0  0  0
   38.2400   28.9120   50.3790 H   0  0  0  0  0  0  0  0  0  0  0  0
   35.7930   29.1400   49.3170 O   0  0  0  0  0  0  0  0  0  0  0  0
   34.5730   28.9220   48.7650 C   0  0  0  0  0  0  0  0  0  0  0  0
   34.4340   28.5540   47.5800 O   0  0  0  0  0  0  0  0  0  0  0  0
   33.6020   29.1840   49.7330 N   0  0  0  0  0  0  0  0  0  0  0  0
   32.9590   28.4930   50.1890 H   0  0  0  0  0  0  0  0  0  0  0  0
   33.3030   30.0850   50.2060 H   0  0  0  0  0  0  0  0  0  0  0  0
  1 27  1  0  0  0  0
  2  3  1  0  0  0  0
  2  1  2  0  0  0  0
  4  2  1  0  0  0  0
  5  4  1  0  0  0  0
  6  4  2  0  0  0  0
  6  7  1  0  0  0  0
  7  8  2  0  0  0  0
  8  9  1  0  0  0  0
  8  1  1  0  0  0  0
 10  7  1  0  0  0  0
 11 10  1  0  0  0  0
 12 13  1  0  0  0  0
 12 11  2  0  0  0  0
 14 12  1  0  0  0  0
 15 14  1  0  0  0  0
 16 14  2  0  0  0  0
 16 18  1  0  0  0  0
 17 16  1  0  0  0  0
 18 20  2  0  0  0  0
 19 18  1  0  0  0  0
 20 11  1  0  0  0  0
 20 21  1  0  0  0  0
 21  6  1  0  0  0  0
 22 21  1  0  0  0  0
 23 24  1  0  0  0  0
 23 31  1  0  0  0  0
 24 29  1  0  0  0  0
 25 30  1  0  0  0  0
 25 24  2  0  0  0  0
 26 25  1  0  0  0  0
 27 26  2  0  0  0  0
 27 28  1  0  0  0  0
 28 23  2  0  0  0  0
 31 33  1  0  0  0  0
 31 34  1  1  0  0  0
 32 31  1  0  0  0  0
 32 33  1  0  0  0  0
 32 35  1  1  0  0  0
 33 36  1  0  0  0  0
 37 33  1  0  0  0  0
 38 32  1  0  0  0  0
 39 38  1  0  0  0  0
 39 41  1  0  0  0  0
 40 39  2  0  0  0  0
 41 42  1  0  0  0  0
 41 43  1  0  0  0  0
M  END
>  <minimizedAffinity>
-6.0269022

>  <minimizedRMSD>
1.84661782

$$$$
