
 OpenBabel03272507183D

 43 47  0  0  1  0  0  0  0  0999 V2000
   38.0840   30.8560   45.9650 C   0  0  0  0  0  0  0  0  0  0  0  0
   36.8800   30.4840   45.3940 C   0  0  0  0  0  0  0  0  0  0  0  0
   35.9450   30.5760   45.9340 H   0  0  0  0  0  0  0  0  0  0  0  0
   36.8890   29.9850   44.1030 C   0  0  0  0  0  0  0  0  0  0  0  0
   35.9800   29.6760   43.5980 H   0  0  0  0  0  0  0  0  0  0  0  0
   38.0760   29.8600   43.3970 C   0  0  0  0  0  0  0  0  0  0  0  0
   39.2580   30.2520   44.0280 C   0  0  0  0  0  0  0  0  0  0  0  0
   39.3050   30.7580   45.3190 C   0  0  0  0  0  0  0  0  0  0  0  0
   40.2410   31.0510   45.7750 H   0  0  0  0  0  0  0  0  0  0  0  0
   40.8240   30.1180   43.1790 S   0  0  0  0  0  0  0  0  0  0  0  0
   40.4820   29.4480   41.5600 C   0  0  0  0  0  0  0  0  0  0  0  0
   41.5760   29.2670   40.7400 C   0  0  0  0  0  0  0  0  0  0  0  0
   42.5770   29.5150   41.0570 H   0  0  0  0  0  0  0  0  0  0  0  0
   41.3810   28.7530   39.4750 C   0  0  0  0  0  0  0  0  0  0  0  0
   42.2330   28.6190   38.8570 H   0  0  0  0  0  0  0  0  0  0  0  0
   40.0810   28.4520   39.1160 C   0  0  0  0  0  0  0  0  0  0  0  0
   39.9870   28.0460   38.1000 H   0  0  0  0  0  0  0  0  0  0  0  0
   38.9930   28.6370   39.9460 C   0  0  0  0  0  0  0  0  0  0  0  0
   38.0030   28.3780   39.5920 H   0  0  0  0  0  0  0  0  0  0  0  0
   39.1730   29.1580   41.2310 C   0  0  0  0  0  0  0  0  0  0  0  0
   38.0790   29.3490   42.0750 N   0  0  0  0  0  0  0  0  0  0  0  0
   37.1320   29.0810   41.6890 H   0  0  0  0  0  0  0  0  0  0  0  0
   37.7130   31.2910   49.6280 C   0  0  0  0  0  0  0  0  0  0  0  0
   38.3110   32.5090   49.8980 C   0  0  0  0  0  0  0  0  0  0  0  0
   38.8410   33.1580   48.7550 C   0  0  0  0  0  0  0  0  0  0  0  0
   38.7420   32.5830   47.5080 N   0  0  0  0  0  0  0  0  0  0  0  0
   38.1420   31.3900   47.3270 C   0  0  0  0  0  0  0  0  0  0  0  0
   37.6180   30.7280   48.3980 N   0  0  0  0  0  0  0  0  0  0  0  0
   38.3760   32.9330   50.8680 H   0  0  0  0  0  0  0  0  0  0  0  0
   39.3200   34.1020   48.8640 H   0  0  0  0  0  0  0  0  0  0  0  0
   37.1070   30.6020   50.8100 C   0  0  1  0  0  0  0  0  0  0  0  0
   36.2220   29.4450   50.6630 C   0  0  2  0  0  0  0  0  0  0  0  0
   37.6580   29.1740   50.9940 C   0  0  0  0  0  0  0  0  0  0  0  0
   37.2080   31.2020   51.7580 H   0  0  0  0  0  0  0  0  0  0  0  0
   35.4240   29.4250   51.4660 H   0  0  0  0  0  0  0  0  0  0  0  0
   37.8530   28.8250   52.0230 H   0  0  0  0  0  0  0  0  0  0  0  0
   38.2760   28.7360   50.1910 H   0  0  0  0  0  0  0  0  0  0  0  0
   35.7590   29.1650   49.3850 O   0  0  0  0  0  0  0  0  0  0  0  0
   34.5240   28.7860   48.9700 C   0  0  0  0  0  0  0  0  0  0  0  0
   34.3500   28.0810   47.9530 O   0  0  0  0  0  0  0  0  0  0  0  0
   33.5840   29.3170   49.8530 N   0  0  0  0  0  0  0  0  0  0  0  0
   32.9700   28.7880   50.5190 H   0  0  0  0  0  0  0  0  0  0  0  0
   33.2850   30.3160   50.0500 H   0  0  0  0  0  0  0  0  0  0  0  0
  1 27  1  0  0  0  0
  2  3  1  0  0  0  0
  2  1  1  0  0  0  0
  4  2  2  0  0  0  0
  5  4  1  0  0  0  0
  6  7  2  0  0  0  0
  6  4  1  0  0  0  0
  7  8  1  0  0  0  0
  8  9  1  0  0  0  0
  8  1  2  0  0  0  0
 10  7  1  0  0  0  0
 11 10  1  0  0  0  0
 12 13  1  0  0  0  0
 12 11  2  0  0  0  0
 14 12  1  0  0  0  0
 15 14  1  0  0  0  0
 16 14  2  0  0  0  0
 16 18  1  0  0  0  0
 17 16  1  0  0  0  0
 18 20  2  0  0  0  0
 19 18  1  0  0  0  0
 20 11  1  0  0  0  0
 20 21  1  0  0  0  0
 21  6  1  0  0  0  0
 22 21  1  0  0  0  0
 23 24  1  0  0  0  0
 23 31  1  0  0  0  0
 24 29  1  0  0  0  0
 25 30  1  0  0  0  0
 25 24  2  0  0  0  0
 26 25  1  0  0  0  0
 27 26  2  0  0  0  0
 27 28  1  0  0  0  0
 28 23  2  0  0  0  0
 31 33  1  0  0  0  0
 31 34  1  1  0  0  0
 32 31  1  0  0  0  0
 32 33  1  0  0  0  0
 32 35  1  1  0  0  0
 33 36  1  0  0  0  0
 37 33  1  0  0  0  0
 38 32  1  0  0  0  0
 39 38  1  0  0  0  0
 39 41  1  0  0  0  0
 40 39  2  0  0  0  0
 41 43  1  0  0  0  0
 41 42  1  0  0  0  0
M  END
>  <minimizedAffinity>
-6.38833189

>  <minimizedRMSD>
2.39149308

$$$$
