
 OpenBabel03262521163D

 42 45  0  0  0  0  0  0  0  0999 V2000
   37.8740   32.8420   42.9050 C   0  0  0  0  0  0  0  0  0  0  0  0
   38.3810   33.4040   41.7460 C   0  0  0  0  0  0  0  0  0  0  0  0
   39.4470   33.4320   41.5670 H   0  0  0  0  0  0  0  0  0  0  0  0
   37.4780   33.9230   40.8400 C   0  0  0  0  0  0  0  0  0  0  0  0
   37.9410   34.3560   39.9410 H   0  0  0  0  0  0  0  0  0  0  0  0
   36.1050   33.9320   40.9830 C   0  0  0  0  0  0  0  0  0  0  0  0
   35.6520   33.3630   42.1480 C   0  0  0  0  0  0  0  0  0  0  0  0
   36.5010   32.8390   43.0700 C   0  0  0  0  0  0  0  0  0  0  0  0
   36.1160   32.3920   43.9890 H   0  0  0  0  0  0  0  0  0  0  0  0
   33.9140   33.3090   42.4570 S   0  0  0  0  0  0  0  0  0  0  0  0
   33.1390   34.0780   41.0460 C   0  0  0  0  0  0  0  0  0  0  0  0
   31.7920   34.1720   41.0220 C   0  0  0  0  0  0  0  0  0  0  0  0
   31.1880   33.7820   41.8550 H   0  0  0  0  0  0  0  0  0  0  0  0
   31.1230   34.7520   39.9690 C   0  0  0  0  0  0  0  0  0  0  0  0
   30.0460   34.8270   39.9480 H   0  0  0  0  0  0  0  0  0  0  0  0
   31.8570   35.2440   38.9210 C   0  0  0  0  0  0  0  0  0  0  0  0
   31.3860   35.7100   38.0660 H   0  0  0  0  0  0  0  0  0  0  0  0
   33.2370   35.1200   39.0010 C   0  0  0  0  0  0  0  0  0  0  0  0
   33.7780   35.5300   38.1360 H   0  0  0  0  0  0  0  0  0  0  0  0
   33.9310   34.5430   40.0450 C   0  0  0  0  0  0  0  0  0  0  0  0
   35.3240   34.4950   39.9760 N   0  0  0  0  0  0  0  0  0  0  0  0
   35.8010   34.8940   39.1390 H   0  0  0  0  0  0  0  0  0  0  0  0
   39.1980   31.7950   46.1470 C   0  0  0  0  0  0  0  0  0  0  0  0
   40.3900   31.1810   45.8050 C   0  0  0  0  0  0  0  0  0  0  0  0
   40.7640   31.1150   44.4590 C   0  0  0  0  0  0  0  0  0  0  0  0
   39.9070   31.6730   43.5510 N   0  0  0  0  0  0  0  0  0  0  0  0
   38.7400   32.2680   43.9230 C   0  0  0  0  0  0  0  0  0  0  0  0
   38.4010   32.3240   45.2000 N   0  0  0  0  0  0  0  0  0  0  0  0
   41.1020   30.7270   46.4850 H   0  0  0  0  0  0  0  0  0  0  0  0
   41.6850   30.6480   44.1370 H   0  0  0  0  0  0  0  0  0  0  0  0
   38.9700   31.7790   47.5170 O   0  0  0  0  0  0  0  0  0  0  0  0
   37.6700   31.6150   47.9460 C   0  0  0  0  0  0  0  0  0  0  0  0
   37.3550   32.5870   48.4110 H   0  0  0  0  0  0  0  0  0  0  0  0
   36.9330   31.4590   47.1200 H   0  0  0  0  0  0  0  0  0  0  0  0
   37.8560   30.5870   48.7990 C   0  0  0  0  0  0  0  0  0  0  0  0
   38.6250   29.8350   48.4830 H   0  0  0  0  0  0  0  0  0  0  0  0
   36.9370   29.9270   48.8250 H   0  0  0  0  0  0  0  0  0  0  0  0
   38.1720   30.9230   50.2180 C   0  0  0  0  0  0  0  0  0  0  0  0
   37.9130   32.0090   50.3520 H   0  0  0  0  0  0  0  0  0  0  0  0
   39.2430   30.8500   50.4760 H   0  0  0  0  0  0  0  0  0  0  0  0
   37.2410   29.9490   51.3950 S   0  0  0  0  0  0  0  0  0  0  0  0
   35.8560   30.1400   51.1410 H   0  0  0  0  0  0  0  0  0  0  0  0
  1  8  1  0  0  0  0
  1 27  1  0  0  0  0
  2  1  2  0  0  0  0
  3  2  1  0  0  0  0
  4  6  2  0  0  0  0
  4  2  1  0  0  0  0
  5  4  1  0  0  0  0
  6  7  1  0  0  0  0
  7 10  1  0  0  0  0
  7  8  2  0  0  0  0
  8  9  1  0  0  0  0
 11 10  1  0  0  0  0
 12 11  1  0  0  0  0
 12 13  1  0  0  0  0
 14 12  2  0  0  0  0
 15 14  1  0  0  0  0
 16 18  2  0  0  0  0
 16 14  1  0  0  0  0
 17 16  1  0  0  0  0
 18 20  1  0  0  0  0
 19 18  1  0  0  0  0
 20 11  2  0  0  0  0
 21 20  1  0  0  0  0
 21  6  1  0  0  0  0
 22 21  1  0  0  0  0
 23 31  1  0  0  0  0
 24 23  1  0  0  0  0
 24 29  1  0  0  0  0
 25 24  2  0  0  0  0
 26 27  2  0  0  0  0
 26 25  1  0  0  0  0
 27 28  1  0  0  0  0
 28 23  2  0  0  0  0
 30 25  1  0  0  0  0
 31 32  1  0  0  0  0
 32 33  1  0  0  0  0
 32 35  1  0  0  0  0
 34 32  1  0  0  0  0
 35 37  1  0  0  0  0
 35 38  1  0  0  0  0
 36 35  1  0  0  0  0
 38 39  1  0  0  0  0
 38 40  1  0  0  0  0
 38 41  1  0  0  0  0
 42 41  1  0  0  0  0
M  END
>  <minimizedAffinity>
-5.03478098

>  <minimizedRMSD>
2.16130042

$$$$
