
 OpenBabel03272507183D

 43 47  0  0  1  0  0  0  0  0999 V2000
   37.5660   30.6960   45.8320 C   0  0  0  0  0  0  0  0  0  0  0  0
   36.2890   30.3800   45.4010 C   0  0  0  0  0  0  0  0  0  0  0  0
   35.4210   30.5610   46.0240 H   0  0  0  0  0  0  0  0  0  0  0  0
   36.1360   29.8230   44.1430 C   0  0  0  0  0  0  0  0  0  0  0  0
   35.1640   29.5530   43.7460 H   0  0  0  0  0  0  0  0  0  0  0  0
   37.2360   29.5840   43.3330 C   0  0  0  0  0  0  0  0  0  0  0  0
   38.4970   29.9240   43.8240 C   0  0  0  0  0  0  0  0  0  0  0  0
   38.7060   30.4850   45.0770 C   0  0  0  0  0  0  0  0  0  0  0  0
   39.7000   30.7350   45.4220 H   0  0  0  0  0  0  0  0  0  0  0  0
   39.9580   29.6450   42.8350 S   0  0  0  0  0  0  0  0  0  0  0  0
   39.4140   28.9250   41.2940 C   0  0  0  0  0  0  0  0  0  0  0  0
   40.4060   28.6320   40.3820 C   0  0  0  0  0  0  0  0  0  0  0  0
   41.4490   28.8260   40.5880 H   0  0  0  0  0  0  0  0  0  0  0  0
   40.0530   28.0730   39.1730 C   0  0  0  0  0  0  0  0  0  0  0  0
   40.8280   27.8540   38.4820 H   0  0  0  0  0  0  0  0  0  0  0  0
   38.7060   27.8450   38.9590 C   0  0  0  0  0  0  0  0  0  0  0  0
   38.4850   27.4000   37.9780 H   0  0  0  0  0  0  0  0  0  0  0  0
   37.7220   28.1430   39.8790 C   0  0  0  0  0  0  0  0  0  0  0  0
   36.6870   27.9340   39.6370 H   0  0  0  0  0  0  0  0  0  0  0  0
   38.0640   28.7090   41.1120 C   0  0  0  0  0  0  0  0  0  0  0  0
   37.0730   29.0120   42.0470 N   0  0  0  0  0  0  0  0  0  0  0  0
   36.0770   28.7920   41.7690 H   0  0  0  0  0  0  0  0  0  0  0  0
   37.4940   31.3920   49.4730 C   0  0  0  0  0  0  0  0  0  0  0  0
   38.3020   32.5040   49.6320 C   0  0  0  0  0  0  0  0  0  0  0  0
   38.8620   32.9880   48.4230 C   0  0  0  0  0  0  0  0  0  0  0  0
   38.5940   32.3690   47.2240 N   0  0  0  0  0  0  0  0  0  0  0  0
   37.7940   31.2880   47.1510 C   0  0  0  0  0  0  0  0  0  0  0  0
   37.2320   30.7860   48.2880 N   0  0  0  0  0  0  0  0  0  0  0  0
   38.4950   32.9640   50.5680 H   0  0  0  0  0  0  0  0  0  0  0  0
   39.4980   33.8410   48.4470 H   0  0  0  0  0  0  0  0  0  0  0  0
   36.8530   30.8830   50.7250 C   0  0  1  0  0  0  0  0  0  0  0  0
   36.0820   29.6390   50.7530 C   0  0  2  0  0  0  0  0  0  0  0  0
   37.5040   29.5760   51.2200 C   0  0  0  0  0  0  0  0  0  0  0  0
   36.8280   31.6590   51.5420 H   0  0  0  0  0  0  0  0  0  0  0  0
   35.2260   29.6950   51.4920 H   0  0  0  0  0  0  0  0  0  0  0  0
   37.6430   29.4480   52.3070 H   0  0  0  0  0  0  0  0  0  0  0  0
   38.2180   29.0560   50.5590 H   0  0  0  0  0  0  0  0  0  0  0  0
   35.7470   29.0800   49.5270 O   0  0  0  0  0  0  0  0  0  0  0  0
   34.5580   28.6000   49.0840 C   0  0  0  0  0  0  0  0  0  0  0  0
   34.4820   27.7310   48.1910 O   0  0  0  0  0  0  0  0  0  0  0  0
   33.5390   29.2440   49.7870 N   0  0  0  0  0  0  0  0  0  0  0  0
   32.8790   28.8160   50.4800 H   0  0  0  0  0  0  0  0  0  0  0  0
   33.2100   30.2530   49.7860 H   0  0  0  0  0  0  0  0  0  0  0  0
  1 27  1  0  0  0  0
  2  1  1  0  0  0  0
  2  3  1  0  0  0  0
  4  2  2  0  0  0  0
  5  4  1  0  0  0  0
  6  7  2  0  0  0  0
  6  4  1  0  0  0  0
  7  8  1  0  0  0  0
  8  9  1  0  0  0  0
  8  1  2  0  0  0  0
 10  7  1  0  0  0  0
 11 10  1  0  0  0  0
 12 13  1  0  0  0  0
 12 11  2  0  0  0  0
 14 12  1  0  0  0  0
 15 14  1  0  0  0  0
 16 14  2  0  0  0  0
 16 18  1  0  0  0  0
 17 16  1  0  0  0  0
 18 20  2  0  0  0  0
 19 18  1  0  0  0  0
 20 11  1  0  0  0  0
 20 21  1  0  0  0  0
 21  6  1  0  0  0  0
 22 21  1  0  0  0  0
 23 24  1  0  0  0  0
 23 31  1  0  0  0  0
 24 29  1  0  0  0  0
 25 30  1  0  0  0  0
 25 24  2  0  0  0  0
 26 25  1  0  0  0  0
 27 26  2  0  0  0  0
 27 28  1  0  0  0  0
 28 23  2  0  0  0  0
 31 32  1  0  0  0  0
 31 33  1  0  0  0  0
 31 34  1  1  0  0  0
 32 33  1  0  0  0  0
 32 35  1  1  0  0  0
 33 36  1  0  0  0  0
 37 33  1  0  0  0  0
 38 32  1  0  0  0  0
 39 38  1  0  0  0  0
 39 41  1  0  0  0  0
 40 39  2  0  0  0  0
 41 42  1  0  0  0  0
 43 41  1  0  0  0  0
M  END
>  <minimizedAffinity>
-6.23503399

>  <minimizedRMSD>
1.34931028

$$$$
