
 OpenBabel03262522393D

 54 60  0  0  0  0  0  0  0  0999 V2000
   37.3300   30.9310   50.4200 C   0  0  0  0  0  0  0  0  0  0  0  0
   38.2420   31.3920   49.4520 C   0  0  0  0  0  0  0  0  0  0  0  0
   37.9430   31.1120   48.1040 C   0  0  0  0  0  0  0  0  0  0  0  0
   36.8250   30.4340   47.8270 N   0  0  0  0  0  0  0  0  0  0  0  0
   35.9660   30.0040   48.7880 C   0  0  0  0  0  0  0  0  0  0  0  0
   36.2260   30.2560   50.0570 N   0  0  0  0  0  0  0  0  0  0  0  0
   37.5340   31.1320   51.4560 H   0  0  0  0  0  0  0  0  0  0  0  0
   39.1320   31.9320   49.6780 H   0  0  0  0  0  0  0  0  0  0  0  0
   34.7670   29.2710   48.4000 C   0  0  0  0  0  0  0  0  0  0  0  0
   34.4390   28.0570   48.9690 C   0  0  0  0  0  0  0  0  0  0  0  0
   35.0600   27.6130   49.7220 H   0  0  0  0  0  0  0  0  0  0  0  0
   33.2760   27.4510   48.5230 C   0  0  0  0  0  0  0  0  0  0  0  0
   33.0620   26.4890   49.0080 H   0  0  0  0  0  0  0  0  0  0  0  0
   32.4170   27.9420   47.5640 C   0  0  0  0  0  0  0  0  0  0  0  0
   32.8040   29.1510   47.0400 C   0  0  0  0  0  0  0  0  0  0  0  0
   33.9260   29.7890   47.4360 C   0  0  0  0  0  0  0  0  0  0  0  0
   34.2050   30.7570   46.9940 H   0  0  0  0  0  0  0  0  0  0  0  0
   31.7780   29.9010   45.7870 S   0  0  0  0  0  0  0  0  0  0  0  0
   30.4150   28.7790   45.5380 C   0  0  0  0  0  0  0  0  0  0  0  0
   29.4760   29.1200   44.6200 C   0  0  0  0  0  0  0  0  0  0  0  0
   29.5450   30.0440   44.0550 H   0  0  0  0  0  0  0  0  0  0  0  0
   28.3860   28.3130   44.3620 C   0  0  0  0  0  0  0  0  0  0  0  0
   27.6620   28.6160   43.6280 H   0  0  0  0  0  0  0  0  0  0  0  0
   28.2850   27.1360   45.0750 C   0  0  0  0  0  0  0  0  0  0  0  0
   27.4430   26.4830   44.8920 H   0  0  0  0  0  0  0  0  0  0  0  0
   29.2700   26.8380   45.9950 C   0  0  0  0  0  0  0  0  0  0  0  0
   29.1130   25.8920   46.5130 H   0  0  0  0  0  0  0  0  0  0  0  0
   30.3670   27.6260   46.2720 C   0  0  0  0  0  0  0  0  0  0  0  0
   31.2840   27.1980   47.2320 N   0  0  0  0  0  0  0  0  0  0  0  0
   31.1170   26.2980   47.7110 H   0  0  0  0  0  0  0  0  0  0  0  0
   38.8100   31.5360   47.0120 C   0  0  0  0  0  0  0  0  0  0  0  0
   39.4710   32.7370   46.9780 C   0  0  0  0  0  0  0  0  0  0  0  0
   40.2860   33.1190   45.9390 C   0  0  0  0  0  0  0  0  0  0  0  0
   40.4690   32.2910   44.8730 C   0  0  0  0  0  0  0  0  0  0  0  0
   39.7950   31.0880   44.9280 C   0  0  0  0  0  0  0  0  0  0  0  0
   39.0150   30.7330   45.9360 N   0  0  0  0  0  0  0  0  0  0  0  0
   39.3370   33.4030   47.8120 H   0  0  0  0  0  0  0  0  0  0  0  0
   40.7760   34.1000   45.9940 H   0  0  0  0  0  0  0  0  0  0  0  0
   41.1120   32.5870   44.0490 H   0  0  0  0  0  0  0  0  0  0  0  0
   39.1550   29.0340   43.6240 C   0  0  0  0  0  0  0  0  0  0  0  0
   39.9370   30.1410   43.8270 C   0  0  0  0  0  0  0  0  0  0  0  0
   40.9280   30.3050   42.8560 C   0  0  0  0  0  0  0  0  0  0  0  0
   41.1300   29.4540   41.7820 C   0  0  0  0  0  0  0  0  0  0  0  0
   42.0100   29.4480   40.7690 N   0  0  0  0  0  0  0  0  0  0  0  0
   41.7310   28.3610   40.0100 C   0  0  0  0  0  0  0  0  0  0  0  0
   40.6700   27.6630   40.5330 C   0  0  0  0  0  0  0  0  0  0  0  0
   40.3010   28.3710   41.6550 C   0  0  0  0  0  0  0  0  0  0  0  0
   39.3100   28.1580   42.5780 C   0  0  0  0  0  0  0  0  0  0  0  0
   38.3590   28.8420   44.3450 H   0  0  0  0  0  0  0  0  0  0  0  0
   41.6020   31.1490   42.9220 H   0  0  0  0  0  0  0  0  0  0  0  0
   42.7580   30.1770   40.6360 H   0  0  0  0  0  0  0  0  0  0  0  0
   42.3420   28.1770   39.1300 H   0  0  0  0  0  0  0  0  0  0  0  0
   40.2560   26.7560   40.1040 H   0  0  0  0  0  0  0  0  0  0  0  0
   38.6730   27.2960   42.4510 H   0  0  0  0  0  0  0  0  0  0  0  0
  1  7  1  0  0  0  0
  2  8  1  0  0  0  0
  2  1  2  0  0  0  0
  3  2  1  0  0  0  0
  4  3  2  0  0  0  0
  4  5  1  0  0  0  0
  5  6  2  0  0  0  0
  6  1  1  0  0  0  0
  9  5  1  0  0  0  0
  9 10  1  0  0  0  0
 10 11  1  0  0  0  0
 12 10  2  0  0  0  0
 12 13  1  0  0  0  0
 14 12  1  0  0  0  0
 15 16  1  0  0  0  0
 15 14  2  0  0  0  0
 16  9  2  0  0  0  0
 17 16  1  0  0  0  0
 18 15  1  0  0  0  0
 19 18  1  0  0  0  0
 19 28  1  0  0  0  0
 20 19  2  0  0  0  0
 21 20  1  0  0  0  0
 22 20  1  0  0  0  0
 22 24  2  0  0  0  0
 23 22  1  0  0  0  0
 24 26  1  0  0  0  0
 25 24  1  0  0  0  0
 26 28  2  0  0  0  0
 26 27  1  0  0  0  0
 28 29  1  0  0  0  0
 29 14  1  0  0  0  0
 29 30  1  0  0  0  0
 31  3  1  0  0  0  0
 32 31  1  0  0  0  0
 32 37  1  0  0  0  0
 33 38  1  0  0  0  0
 33 32  2  0  0  0  0
 34 35  2  0  0  0  0
 34 33  1  0  0  0  0
 35 36  1  0  0  0  0
 36 31  2  0  0  0  0
 39 34  1  0  0  0  0
 40 41  1  0  0  0  0
 40 49  1  0  0  0  0
 41 35  1  0  0  0  0
 42 50  1  0  0  0  0
 42 41  2  0  0  0  0
 43 42  1  0  0  0  0
 44 43  1  0  0  0  0
 45 46  2  0  0  0  0
 45 44  1  0  0  0  0
 46 47  1  0  0  0  0
 47 43  2  0  0  0  0
 47 48  1  0  0  0  0
 48 40  2  0  0  0  0
 51 44  1  0  0  0  0
 52 45  1  0  0  0  0
 53 46  1  0  0  0  0
 54 48  1  0  0  0  0
M  END
>  <minimizedAffinity>
-8.56560421

>  <minimizedRMSD>
1.39618039

$$$$
