
 OpenBabel03272501543D

 37 40  0  0  0  0  0  0  0  0999 V2000
   33.4490   27.5690   47.7190 C   0  0  0  0  0  0  0  0  0  0  0  0
   32.2150   27.8520   48.2710 C   0  0  0  0  0  0  0  0  0  0  0  0
   32.1440   28.6460   49.0270 H   0  0  0  0  0  0  0  0  0  0  0  0
   31.0910   27.1680   47.8990 C   0  0  0  0  0  0  0  0  0  0  0  0
   30.1540   27.4610   48.3900 H   0  0  0  0  0  0  0  0  0  0  0  0
   31.1050   26.1620   46.9580 C   0  0  0  0  0  0  0  0  0  0  0  0
   32.3170   25.8880   46.4190 C   0  0  0  0  0  0  0  0  0  0  0  0
   33.4280   26.5590   46.7830 C   0  0  0  0  0  0  0  0  0  0  0  0
   34.3920   26.3020   46.3190 H   0  0  0  0  0  0  0  0  0  0  0  0
   32.4470   24.6020   45.1910 S   0  0  0  0  0  0  0  0  0  0  0  0
   30.7950   23.9700   44.9900 C   0  0  0  0  0  0  0  0  0  0  0  0
   30.6630   22.9650   44.0860 C   0  0  0  0  0  0  0  0  0  0  0  0
   31.4540   22.5260   43.4910 H   0  0  0  0  0  0  0  0  0  0  0  0
   29.4120   22.4030   43.8560 C   0  0  0  0  0  0  0  0  0  0  0  0
   29.2600   21.6010   43.1440 H   0  0  0  0  0  0  0  0  0  0  0  0
   28.3410   22.8960   44.5660 C   0  0  0  0  0  0  0  0  0  0  0  0
   27.3690   22.4590   44.3870 H   0  0  0  0  0  0  0  0  0  0  0  0
   28.5530   23.9230   45.4710 C   0  0  0  0  0  0  0  0  0  0  0  0
   27.6430   24.2400   45.9800 H   0  0  0  0  0  0  0  0  0  0  0  0
   29.7830   24.4970   45.7180 C   0  0  0  0  0  0  0  0  0  0  0  0
   29.8810   25.5250   46.6520 N   0  0  0  0  0  0  0  0  0  0  0  0
   29.0150   25.8350   47.1430 H   0  0  0  0  0  0  0  0  0  0  0  0
   34.6350   28.3180   48.1380 C   0  0  0  0  0  0  0  0  0  0  0  0
   34.6860   29.3510   47.7340 H   0  0  0  0  0  0  0  0  0  0  0  0
   35.5440   27.7960   47.7270 H   0  0  0  0  0  0  0  0  0  0  0  0
   34.8150   28.3520   49.6360 C   0  0  0  0  0  0  0  0  0  0  0  0
   34.9720   27.3270   50.0280 H   0  0  0  0  0  0  0  0  0  0  0  0
   33.8950   28.7590   50.1030 H   0  0  0  0  0  0  0  0  0  0  0  0
   37.3870   30.2380   51.5260 C   0  0  0  0  0  0  0  0  0  0  0  0
   38.1820   30.7870   50.5040 C   0  0  0  0  0  0  0  0  0  0  0  0
   37.8280   30.5050   49.1660 C   0  0  0  0  0  0  0  0  0  0  0  0
   36.7330   29.7140   48.9500 N   0  0  0  0  0  0  0  0  0  0  0  0
   36.0050   29.2130   49.9790 C   0  0  0  0  0  0  0  0  0  0  0  0
   36.3360   29.4760   51.2400 N   0  0  0  0  0  0  0  0  0  0  0  0
   37.7080   30.4890   52.5390 H   0  0  0  0  0  0  0  0  0  0  0  0
   39.0450   31.4100   50.6560 H   0  0  0  0  0  0  0  0  0  0  0  0
   38.4000   30.8990   48.3180 H   0  0  0  0  0  0  0  0  0  0  0  0
  1 23  1  0  0  0  0
  1  2  1  0  0  0  0
  2  3  1  0  0  0  0
  4  2  2  0  0  0  0
  4  5  1  0  0  0  0
  6  4  1  0  0  0  0
  7  8  1  0  0  0  0
  7  6  2  0  0  0  0
  8  1  2  0  0  0  0
  9  8  1  0  0  0  0
 10  7  1  0  0  0  0
 11 10  1  0  0  0  0
 11 20  1  0  0  0  0
 12 11  2  0  0  0  0
 13 12  1  0  0  0  0
 14 12  1  0  0  0  0
 14 16  2  0  0  0  0
 15 14  1  0  0  0  0
 16 18  1  0  0  0  0
 17 16  1  0  0  0  0
 18 20  2  0  0  0  0
 18 19  1  0  0  0  0
 20 21  1  0  0  0  0
 21  6  1  0  0  0  0
 21 22  1  0  0  0  0
 23 26  1  0  0  0  0
 24 23  1  0  0  0  0
 25 23  1  0  0  0  0
 26 33  1  0  0  0  0
 26 27  1  0  0  0  0
 26 28  1  0  0  0  0
 29 35  1  0  0  0  0
 30 36  1  0  0  0  0
 30 29  2  0  0  0  0
 31 30  1  0  0  0  0
 32 31  2  0  0  0  0
 32 33  1  0  0  0  0
 33 34  2  0  0  0  0
 34 29  1  0  0  0  0
 37 31  1  0  0  0  0
M  END
>  <minimizedAffinity>
-5.17423582

>  <minimizedRMSD>
0.161792427

$$$$
