
 OpenBabel03272501543D

 37 40  0  0  0  0  0  0  0  0999 V2000
   33.0770   28.3550   47.8320 C   0  0  0  0  0  0  0  0  0  0  0  0
   32.2580   27.7580   48.7700 C   0  0  0  0  0  0  0  0  0  0  0  0
   32.7000   27.4070   49.7100 H   0  0  0  0  0  0  0  0  0  0  0  0
   30.9170   27.5990   48.5500 C   0  0  0  0  0  0  0  0  0  0  0  0
   30.3450   27.1150   49.3500 H   0  0  0  0  0  0  0  0  0  0  0  0
   30.2950   28.0160   47.3930 C   0  0  0  0  0  0  0  0  0  0  0  0
   31.1030   28.6000   46.4760 C   0  0  0  0  0  0  0  0  0  0  0  0
   32.4240   28.7590   46.6890 C   0  0  0  0  0  0  0  0  0  0  0  0
   33.0430   29.2390   45.9170 H   0  0  0  0  0  0  0  0  0  0  0  0
   30.3970   29.1760   44.9440 S   0  0  0  0  0  0  0  0  0  0  0  0
   28.6620   28.7900   45.0450 C   0  0  0  0  0  0  0  0  0  0  0  0
   27.9230   29.1480   43.9650 C   0  0  0  0  0  0  0  0  0  0  0  0
   28.2870   29.6360   43.0690 H   0  0  0  0  0  0  0  0  0  0  0  0
   26.5570   28.8900   43.9460 C   0  0  0  0  0  0  0  0  0  0  0  0
   25.9280   29.1580   43.1050 H   0  0  0  0  0  0  0  0  0  0  0  0
   26.0010   28.2720   45.0420 C   0  0  0  0  0  0  0  0  0  0  0  0
   24.9390   28.0710   45.0280 H   0  0  0  0  0  0  0  0  0  0  0  0
   26.8180   27.9340   46.1080 C   0  0  0  0  0  0  0  0  0  0  0  0
   26.2820   27.4510   46.9230 H   0  0  0  0  0  0  0  0  0  0  0  0
   28.1760   28.1790   46.1510 C   0  0  0  0  0  0  0  0  0  0  0  0
   28.9030   27.7990   47.2760 N   0  0  0  0  0  0  0  0  0  0  0  0
   28.3960   27.3340   48.0610 H   0  0  0  0  0  0  0  0  0  0  0  0
   34.5090   28.5110   48.0960 C   0  0  0  0  0  0  0  0  0  0  0  0
   34.9340   29.4730   47.7380 H   0  0  0  0  0  0  0  0  0  0  0  0
   35.0610   27.7140   47.5230 H   0  0  0  0  0  0  0  0  0  0  0  0
   34.8700   28.3090   49.5470 C   0  0  0  0  0  0  0  0  0  0  0  0
   35.1380   27.2500   49.7320 H   0  0  0  0  0  0  0  0  0  0  0  0
   33.9900   28.5540   50.1770 H   0  0  0  0  0  0  0  0  0  0  0  0
   37.3760   30.2530   51.4650 C   0  0  0  0  0  0  0  0  0  0  0  0
   38.1710   30.8180   50.4510 C   0  0  0  0  0  0  0  0  0  0  0  0
   37.8400   30.5260   49.1100 C   0  0  0  0  0  0  0  0  0  0  0  0
   36.7650   29.7110   48.8820 N   0  0  0  0  0  0  0  0  0  0  0  0
   36.0350   29.1960   49.9030 C   0  0  0  0  0  0  0  0  0  0  0  0
   36.3450   29.4690   51.1680 N   0  0  0  0  0  0  0  0  0  0  0  0
   37.6790   30.5140   52.4810 H   0  0  0  0  0  0  0  0  0  0  0  0
   39.0190   31.4600   50.6140 H   0  0  0  0  0  0  0  0  0  0  0  0
   38.4150   30.9300   48.2690 H   0  0  0  0  0  0  0  0  0  0  0  0
  1 23  1  0  0  0  0
  1  2  1  0  0  0  0
  2  3  1  0  0  0  0
  4  2  2  0  0  0  0
  4  5  1  0  0  0  0
  6  4  1  0  0  0  0
  7  8  1  0  0  0  0
  7  6  2  0  0  0  0
  8  1  2  0  0  0  0
  9  8  1  0  0  0  0
 10 11  1  0  0  0  0
 10  7  1  0  0  0  0
 11 20  1  0  0  0  0
 12 11  2  0  0  0  0
 13 12  1  0  0  0  0
 14 12  1  0  0  0  0
 14 16  2  0  0  0  0
 15 14  1  0  0  0  0
 16 18  1  0  0  0  0
 17 16  1  0  0  0  0
 18 20  2  0  0  0  0
 18 19  1  0  0  0  0
 20 21  1  0  0  0  0
 21  6  1  0  0  0  0
 21 22  1  0  0  0  0
 23 26  1  0  0  0  0
 24 23  1  0  0  0  0
 25 23  1  0  0  0  0
 26 27  1  0  0  0  0
 26 33  1  0  0  0  0
 26 28  1  0  0  0  0
 29 35  1  0  0  0  0
 30 36  1  0  0  0  0
 30 29  2  0  0  0  0
 31 30  1  0  0  0  0
 32 31  2  0  0  0  0
 32 33  1  0  0  0  0
 33 34  2  0  0  0  0
 34 29  1  0  0  0  0
 37 31  1  0  0  0  0
M  END
>  <minimizedAffinity>
-5.6947875

>  <minimizedRMSD>
2.25831342

$$$$
