
 OpenBabel03272501543D

 37 40  0  0  0  0  0  0  0  0999 V2000
   33.3340   27.7760   47.7110 C   0  0  0  0  0  0  0  0  0  0  0  0
   32.2150   27.7160   48.5170 C   0  0  0  0  0  0  0  0  0  0  0  0
   32.2240   28.2520   49.4750 H   0  0  0  0  0  0  0  0  0  0  0  0
   31.1050   27.0060   48.1490 C   0  0  0  0  0  0  0  0  0  0  0  0
   30.2630   27.0140   48.8530 H   0  0  0  0  0  0  0  0  0  0  0  0
   31.0230   26.3090   46.9630 C   0  0  0  0  0  0  0  0  0  0  0  0
   32.1240   26.3720   46.1750 C   0  0  0  0  0  0  0  0  0  0  0  0
   33.2190   27.0690   46.5340 C   0  0  0  0  0  0  0  0  0  0  0  0
   34.0900   27.0920   45.8630 H   0  0  0  0  0  0  0  0  0  0  0  0
   32.1210   25.5040   44.6180 S   0  0  0  0  0  0  0  0  0  0  0  0
   30.5260   24.7210   44.5120 C   0  0  0  0  0  0  0  0  0  0  0  0
   30.3090   23.9950   43.3860 C   0  0  0  0  0  0  0  0  0  0  0  0
   31.0030   23.8550   42.5660 H   0  0  0  0  0  0  0  0  0  0  0  0
   29.0940   23.3440   43.2070 C   0  0  0  0  0  0  0  0  0  0  0  0
   28.8760   22.7530   42.3260 H   0  0  0  0  0  0  0  0  0  0  0  0
   28.1460   23.4630   44.1970 C   0  0  0  0  0  0  0  0  0  0  0  0
   27.2000   22.9550   44.0600 H   0  0  0  0  0  0  0  0  0  0  0  0
   28.4390   24.2200   45.3200 C   0  0  0  0  0  0  0  0  0  0  0  0
   27.6240   24.2510   46.0420 H   0  0  0  0  0  0  0  0  0  0  0  0
   29.6360   24.8770   45.5200 C   0  0  0  0  0  0  0  0  0  0  0  0
   29.8240   25.6110   46.6880 N   0  0  0  0  0  0  0  0  0  0  0  0
   29.0490   25.6450   47.3840 H   0  0  0  0  0  0  0  0  0  0  0  0
   34.5070   28.5440   48.1330 C   0  0  0  0  0  0  0  0  0  0  0  0
   34.4410   29.6310   47.9120 H   0  0  0  0  0  0  0  0  0  0  0  0
   35.3960   28.1780   47.5460 H   0  0  0  0  0  0  0  0  0  0  0  0
   34.8550   28.3430   49.5870 C   0  0  0  0  0  0  0  0  0  0  0  0
   35.1030   27.2810   49.7800 H   0  0  0  0  0  0  0  0  0  0  0  0
   33.9750   28.6080   50.2100 H   0  0  0  0  0  0  0  0  0  0  0  0
   37.3920   30.2420   51.5110 C   0  0  0  0  0  0  0  0  0  0  0  0
   38.1930   30.8010   50.4980 C   0  0  0  0  0  0  0  0  0  0  0  0
   37.8560   30.5210   49.1560 C   0  0  0  0  0  0  0  0  0  0  0  0
   36.7690   29.7220   48.9260 N   0  0  0  0  0  0  0  0  0  0  0  0
   36.0340   29.2120   49.9450 C   0  0  0  0  0  0  0  0  0  0  0  0
   36.3500   29.4740   51.2110 N   0  0  0  0  0  0  0  0  0  0  0  0
   37.7010   30.4920   52.5270 H   0  0  0  0  0  0  0  0  0  0  0  0
   39.0500   31.4290   50.6620 H   0  0  0  0  0  0  0  0  0  0  0  0
   38.4340   30.9220   48.3160 H   0  0  0  0  0  0  0  0  0  0  0  0
  1 23  1  0  0  0  0
  1  2  1  0  0  0  0
  2  3  1  0  0  0  0
  4  2  2  0  0  0  0
  4  5  1  0  0  0  0
  6  4  1  0  0  0  0
  7  8  1  0  0  0  0
  7  6  2  0  0  0  0
  8  1  2  0  0  0  0
  9  8  1  0  0  0  0
 10  7  1  0  0  0  0
 11 10  1  0  0  0  0
 11 20  1  0  0  0  0
 12 11  2  0  0  0  0
 13 12  1  0  0  0  0
 14 12  1  0  0  0  0
 14 16  2  0  0  0  0
 15 14  1  0  0  0  0
 16 18  1  0  0  0  0
 17 16  1  0  0  0  0
 18 20  2  0  0  0  0
 18 19  1  0  0  0  0
 20 21  1  0  0  0  0
 21  6  1  0  0  0  0
 21 22  1  0  0  0  0
 23 26  1  0  0  0  0
 24 23  1  0  0  0  0
 25 23  1  0  0  0  0
 26 27  1  0  0  0  0
 26 33  1  0  0  0  0
 26 28  1  0  0  0  0
 29 35  1  0  0  0  0
 30 36  1  0  0  0  0
 30 29  2  0  0  0  0
 31 30  1  0  0  0  0
 32 31  2  0  0  0  0
 32 33  1  0  0  0  0
 33 34  2  0  0  0  0
 34 29  1  0  0  0  0
 37 31  1  0  0  0  0
M  END
>  <minimizedAffinity>
-5.14187813

>  <minimizedRMSD>
0.559441149

$$$$
