
 OpenBabel03272507283D

 41 43  0  0  1  0  0  0  0  0999 V2000
   37.0460   29.9370   49.2780 C   0  0  0  0  0  0  0  0  0  0  0  0
   37.5020   30.4630   48.0530 C   0  0  0  0  0  0  0  0  0  0  0  0
   36.6070   30.4810   46.9880 C   0  0  0  0  0  0  0  0  0  0  0  0
   35.3840   30.0120   47.1720 N   0  0  0  0  0  0  0  0  0  0  0  0
   34.9610   29.5120   48.3500 C   0  0  0  0  0  0  0  0  0  0  0  0
   35.7940   29.4790   49.3890 N   0  0  0  0  0  0  0  0  0  0  0  0
   37.0310   30.9590   45.7480 N   0  0  0  0  0  0  0  0  0  0  0  0
   38.0680   31.9960   45.5160 C   0  0  0  0  0  0  0  0  0  0  0  0
   37.9400   32.4440   44.1030 C   0  0  0  0  0  0  0  0  0  0  0  0
   36.6790   31.8930   43.6530 C   0  0  0  0  0  0  0  0  0  0  0  0
   36.6200   30.6240   44.4270 C   0  0  2  0  0  0  0  0  0  0  0  0
   37.8090   29.9590   50.0590 H   0  0  0  0  0  0  0  0  0  0  0  0
   38.4960   30.8480   47.8930 H   0  0  0  0  0  0  0  0  0  0  0  0
   33.9710   29.1230   48.5300 H   0  0  0  0  0  0  0  0  0  0  0  0
   39.0430   31.7610   45.8980 H   0  0  0  0  0  0  0  0  0  0  0  0
   37.6970   32.8020   46.2410 H   0  0  0  0  0  0  0  0  0  0  0  0
   37.5970   33.5890   44.2740 H   0  0  0  0  0  0  0  0  0  0  0  0
   38.7710   32.6850   43.5020 H   0  0  0  0  0  0  0  0  0  0  0  0
   35.7570   32.4590   43.8450 H   0  0  0  0  0  0  0  0  0  0  0  0
   36.7610   31.6010   42.5710 H   0  0  0  0  0  0  0  0  0  0  0  0
   35.2100   30.0340   44.3320 C   0  0  0  0  0  0  0  0  0  0  0  0
   34.3430   30.8630   45.0130 F   0  0  0  0  0  0  0  0  0  0  0  0
   35.0670   28.7910   44.8660 F   0  0  0  0  0  0  0  0  0  0  0  0
   34.8400   30.0920   43.0040 F   0  0  0  0  0  0  0  0  0  0  0  0
   37.5140   29.6210   43.9190 C   0  0  2  0  0  0  0  0  0  0  0  0
   38.1860   29.2440   44.6530 H   0  0  0  0  0  0  0  0  0  0  0  0
   36.6380   30.4570   41.0120 Cl  0  0  0  0  0  0  0  0  0  0  0  0
   38.3030   30.3270   41.5480 C   0  0  0  0  0  0  0  0  0  0  0  0
   38.6040   29.9730   42.8530 C   0  0  0  0  0  0  0  0  0  0  0  0
   39.9610   30.0390   43.1100 C   0  0  0  0  0  0  0  0  0  0  0  0
   40.2720   29.8100   44.1480 H   0  0  0  0  0  0  0  0  0  0  0  0
   40.9740   30.3920   42.2630 C   0  0  0  0  0  0  0  0  0  0  0  0
   41.9870   30.3970   42.6040 H   0  0  0  0  0  0  0  0  0  0  0  0
   40.5480   30.7160   40.9970 C   0  0  0  0  0  3  0  0  0  0  0  0
   39.2340   30.6940   40.6150 C   0  0  0  0  0  3  0  0  0  0  0  0
   36.8120   28.8260   43.2190 O   0  0  0  0  0  0  0  0  0  0  0  0
   36.8850   27.5560   42.7760 C   0  0  0  0  0  0  0  0  0  0  0  0
   35.8830   27.2550   42.1200 O   0  0  0  0  0  0  0  0  0  0  0  0
   37.5930   26.3270   42.6850 N   0  0  0  0  0  0  0  0  0  0  0  0
   37.4590   25.5480   43.3830 H   0  0  0  0  0  0  0  0  0  0  0  0
   38.2510   26.2580   41.8770 H   0  0  0  0  0  0  0  0  0  0  0  0
  1  6  1  0  0  0  0
  1 12  1  0  0  0  0
  2  1  2  0  0  0  0
  3  4  2  0  0  0  0
  3  2  1  0  0  0  0
  4  5  1  0  0  0  0
  5 14  1  0  0  0  0
  5  6  2  0  0  0  0
  7  3  1  0  0  0  0
  8  7  1  0  0  0  0
  8 15  1  0  0  0  0
  8 16  1  0  0  0  0
  9 17  1  0  0  0  0
  9  8  1  0  0  0  0
 10 19  1  0  0  0  0
 10  9  1  0  0  0  0
 10 11  1  0  0  0  0
 11 21  1  1  0  0  0
 11  7  1  0  0  0  0
 13  2  1  0  0  0  0
 18  9  1  0  0  0  0
 20 10  1  0  0  0  0
 21 23  1  0  0  0  0
 21 22  1  0  0  0  0
 24 21  1  0  0  0  0
 25 11  1  0  0  0  0
 25 26  1  1  0  0  0
 27 28  1  0  0  0  0
 28 29  1  0  0  0  0
 29 30  2  0  0  0  0
 29 25  1  0  0  0  0
 30 31  1  0  0  0  0
 32 33  1  0  0  0  0
 32 30  1  0  0  0  0
 34 32  2  0  0  0  0
 35 34  1  0  0  0  0
 35 28  2  0  0  0  0
 36 25  1  0  0  0  0
 37 36  1  0  0  0  0
 38 37  2  0  0  0  0
 39 37  1  0  0  0  0
 39 40  1  0  0  0  0
 41 39  1  0  0  0  0
M  END
>  <minimizedAffinity>
-4.28702354

>  <minimizedRMSD>
3.81652761

$$$$
