
 OpenBabel03262522023D

 39 42  0  0  1  0  0  0  0  0999 V2000
   34.4610   29.1430   48.8440 C   0  0  2  0  0  0  0  0  0  0  0  0
   35.1610   28.4060   49.9390 C   0  0  0  0  0  0  0  0  0  0  0  0
   36.3360   29.1510   50.3470 N   0  0  0  0  0  0  0  0  0  0  0  0
   37.3310   29.8570   51.0980 C   0  0  0  0  0  0  0  0  0  0  0  0
   37.6190   30.0370   52.3000 O   0  0  0  0  0  0  0  0  0  0  0  0
   38.0000   30.3790   49.9110 C   0  0  1  0  0  0  0  0  0  0  0  0
   37.1390   29.3900   49.1750 C   0  0  2  0  0  0  0  0  0  0  0  0
   35.8420   30.1300   48.1280 S   0  0  0  0  0  0  0  0  0  0  0  0
   34.4810   28.3180   50.8030 H   0  0  0  0  0  0  0  0  0  0  0  0
   35.4340   27.3760   49.6190 H   0  0  0  0  0  0  0  0  0  0  0  0
   39.0940   30.1420   49.7730 H   0  0  0  0  0  0  0  0  0  0  0  0
   37.6350   28.5180   48.7520 H   0  0  0  0  0  0  0  0  0  0  0  0
   33.3060   29.9860   49.2410 C   0  0  0  0  0  0  0  0  0  0  0  0
   33.7680   30.8450   49.8460 H   0  0  0  0  0  0  0  0  0  0  0  0
   32.8320   30.4970   48.4040 H   0  0  0  0  0  0  0  0  0  0  0  0
   32.6690   29.4830   49.9660 H   0  0  0  0  0  0  0  0  0  0  0  0
   34.1160   28.1420   47.7310 C   0  0  0  0  0  0  0  0  0  0  0  0
   35.0200   27.4920   47.5550 H   0  0  0  0  0  0  0  0  0  0  0  0
   33.3450   27.4650   48.1670 H   0  0  0  0  0  0  0  0  0  0  0  0
   34.2930   26.4240   45.0920 Cl  0  0  0  0  0  0  0  0  0  0  0  0
   33.6770   28.0540   45.2930 C   0  0  0  0  0  0  0  0  0  0  0  0
   33.6770   28.7450   46.4810 C   0  0  0  0  0  0  0  0  0  0  0  0
   33.2000   30.0410   46.4670 C   0  0  0  0  0  0  0  0  0  0  0  0
   33.1970   30.6020   47.4010 H   0  0  0  0  0  0  0  0  0  0  0  0
   32.7270   30.6530   45.3000 C   0  0  0  0  0  0  0  0  0  0  0  0
   32.3740   31.6700   45.3900 H   0  0  0  0  0  0  0  0  0  0  0  0
   32.7460   29.9190   44.1360 C   0  0  0  0  0  3  0  0  0  0  0  0
   33.2160   28.6300   44.1270 C   0  0  0  0  0  3  0  0  0  0  0  0
   37.7840   31.8050   49.6180 C   0  0  0  0  0  0  0  0  0  0  0  0
   36.8040   32.3120   50.2340 O   0  0  0  0  0  0  0  0  0  0  0  0
   38.6130   32.5600   48.7150 C   0  0  0  0  0  0  0  0  0  0  0  0
   39.1340   33.7610   49.1710 C   0  0  0  0  0  0  0  0  0  0  0  0
   39.9460   34.5100   48.2910 C   0  0  0  0  0  0  0  0  0  0  0  0
   40.1690   34.0020   47.0410 N   0  0  0  0  0  0  0  0  0  0  0  0
   39.6490   32.8430   46.6410 C   0  0  0  0  0  0  0  0  0  0  0  0
   38.8710   32.1160   47.4720 N   0  0  0  0  0  0  0  0  0  0  0  0
   38.9390   34.1280   50.1580 H   0  0  0  0  0  0  0  0  0  0  0  0
   40.3590   35.4520   48.6360 H   0  0  0  0  0  0  0  0  0  0  0  0
   39.8580   32.4770   45.6290 H   0  0  0  0  0  0  0  0  0  0  0  0
  1 17  1  6  0  0  0
  1 13  1  0  0  0  0
  1  2  1  0  0  0  0
  2  3  1  0  0  0  0
  2  9  1  0  0  0  0
  3  4  1  0  0  0  0
  4  5  2  0  0  0  0
  6 11  1  6  0  0  0
  6  4  1  0  0  0  0
  7 12  1  6  0  0  0
  7  6  1  0  0  0  0
  7  3  1  0  0  0  0
  8  1  1  0  0  0  0
  8  7  1  0  0  0  0
 10  2  1  0  0  0  0
 13 14  1  0  0  0  0
 13 16  1  0  0  0  0
 15 13  1  0  0  0  0
 17 19  1  0  0  0  0
 18 17  1  0  0  0  0
 20 21  1  0  0  0  0
 21 22  1  0  0  0  0
 22 17  1  0  0  0  0
 23 22  2  0  0  0  0
 23 24  1  0  0  0  0
 25 26  1  0  0  0  0
 25 23  1  0  0  0  0
 27 25  2  0  0  0  0
 28 27  1  0  0  0  0
 28 21  2  0  0  0  0
 29  6  1  0  0  0  0
 29 30  2  0  0  0  0
 31 32  1  0  0  0  0
 31 29  1  0  0  0  0
 32 37  1  0  0  0  0
 33 38  1  0  0  0  0
 33 32  2  0  0  0  0
 34 33  1  0  0  0  0
 35 34  2  0  0  0  0
 35 36  1  0  0  0  0
 36 31  2  0  0  0  0
 39 35  1  0  0  0  0
M  END
>  <minimizedAffinity>
-5.11569929

>  <minimizedRMSD>
0.280599952

$$$$
