
 OpenBabel03262522203D

 19 20  0  0  0  0  0  0  0  0999 V2000
   37.9680   30.1190   48.6600 O   0  0  0  0  0  0  0  0  0  0  0  0
   36.2260   29.0140   49.7560 C   0  0  0  0  0  0  0  0  0  0  0  0
   36.6110   29.8940   48.7100 C   0  0  0  0  0  0  0  0  0  0  0  0
   35.6060   30.3990   47.8950 C   0  0  0  0  0  0  0  0  0  0  0  0
   34.3350   30.0320   48.1400 N   0  0  0  0  0  0  0  0  0  0  0  0
   33.9970   29.2020   49.1320 C   0  0  0  0  0  0  0  0  0  0  0  0
   34.9300   28.6690   49.9690 N   0  0  0  0  0  0  0  0  0  0  0  0
   36.8930   28.5420   50.4700 H   0  0  0  0  0  0  0  0  0  0  0  0
   35.9720   31.0560   47.1260 H   0  0  0  0  0  0  0  0  0  0  0  0
   32.9410   28.9520   49.2660 H   0  0  0  0  0  0  0  0  0  0  0  0
   39.1780   30.7330   45.9560 Cl  0  0  0  0  0  0  0  0  0  0  0  0
   39.0430   31.8100   47.3340 C   0  0  0  0  0  0  0  0  0  0  0  0
   38.4710   31.4200   48.5200 C   0  0  0  0  0  0  0  0  0  0  0  0
   38.3700   32.2790   49.6010 C   0  0  0  0  0  0  0  0  0  0  0  0
   37.9080   31.9100   50.5060 H   0  0  0  0  0  0  0  0  0  0  0  0
   38.8650   33.5710   49.4740 C   0  0  0  0  0  0  0  0  0  0  0  0
   38.7930   34.2600   50.3160 H   0  0  0  0  0  0  0  0  0  0  0  0
   39.4500   34.0080   48.2990 C   0  0  0  0  0  3  0  0  0  0  0  0
   39.5230   33.1000   47.2470 C   0  0  0  0  0  3  0  0  0  0  0  0
  1  3  1  0  0  0  0
  2  7  1  0  0  0  0
  2  8  1  0  0  0  0
  3  2  2  0  0  0  0
  4  5  2  0  0  0  0
  4  3  1  0  0  0  0
  5  6  1  0  0  0  0
  6 10  1  0  0  0  0
  6  7  2  0  0  0  0
  9  4  1  0  0  0  0
 11 12  1  0  0  0  0
 12 13  1  0  0  0  0
 13  1  1  0  0  0  0
 13 14  2  0  0  0  0
 14 15  1  0  0  0  0
 16 14  1  0  0  0  0
 16 17  1  0  0  0  0
 18 16  2  0  0  0  0
 19 12  2  0  0  0  0
 19 18  1  0  0  0  0
M  END
>  <minimizedAffinity>
-4.76865339

>  <minimizedRMSD>
2.5008564

$$$$
