
 OpenBabel03272502323D

 27 28  0  0  1  0  0  0  0  0999 V2000
   39.3490   22.6500   36.0100 C   0  0  2  0  0  0  0  0  0  0  0  0
   39.2960   21.7050   36.7110 H   0  0  0  0  0  0  0  0  0  0  0  0
   41.7570   21.2840   37.5120 Cl  0  0  0  0  0  0  0  0  0  0  0  0
   41.9170   22.7140   36.5480 C   0  0  0  0  0  0  0  0  0  0  0  0
   40.7110   23.0980   36.0120 C   0  0  0  0  0  0  0  0  0  0  0  0
   40.7600   24.2500   35.2120 C   0  0  0  0  0  0  0  0  0  0  0  0
   39.9580   24.7750   34.6700 H   0  0  0  0  0  0  0  0  0  0  0  0
   41.9240   24.9800   34.9540 C   0  0  0  0  0  0  0  0  0  0  0  0
   42.0540   25.8680   34.3560 H   0  0  0  0  0  0  0  0  0  0  0  0
   43.1110   24.5180   35.5400 C   0  0  0  0  0  3  0  0  0  0  0  0
   43.0960   23.3970   36.3250 C   0  0  0  0  0  3  0  0  0  0  0  0
   37.5410   21.9070   34.6250 C   0  0  0  0  0  3  0  0  0  0  0  0
   38.8140   22.2160   34.7070 C   0  0  0  0  0  3  0  0  0  0  0  0
   35.0540   20.3370   32.3630 C   0  0  0  0  0  0  0  0  0  0  0  0
   35.7040   20.7900   33.5030 C   0  0  0  0  0  0  0  0  0  0  0  0
   36.9170   21.4510   33.4180 C   0  0  0  0  0  0  0  0  0  0  0  0
   37.4670   21.6500   32.1860 N   0  0  0  0  0  0  0  0  0  0  0  0
   36.8100   21.1980   31.1010 C   0  0  0  0  0  0  0  0  0  0  0  0
   35.6340   20.5560   31.1660 N   0  0  0  0  0  0  0  0  0  0  0  0
   34.1130   19.8180   32.3790 H   0  0  0  0  0  0  0  0  0  0  0  0
   35.1500   20.5600   34.4050 H   0  0  0  0  0  0  0  0  0  0  0  0
   37.3520   21.4220   30.1820 H   0  0  0  0  0  0  0  0  0  0  0  0
   38.1150   23.7780   36.7500 S   0  0  0  0  0  0  0  0  0  0  0  0
   38.1530   23.6740   38.5340 C   0  0  0  0  0  0  0  0  0  0  0  0
   37.2430   22.7420   39.0320 F   0  0  0  0  0  0  0  0  0  0  0  0
   39.4200   23.4900   39.0370 F   0  0  0  0  0  0  0  0  0  0  0  0
   37.7230   24.9390   39.0210 F   0  0  0  0  0  0  0  0  0  0  0  0
  1  5  1  0  0  0  0
  1  2  1  1  0  0  0
  1 23  1  0  0  0  0
  4  3  1  0  0  0  0
  5  4  2  0  0  0  0
  6  5  1  0  0  0  0
  7  6  1  0  0  0  0
  8  6  2  0  0  0  0
  8 10  1  0  0  0  0
  9  8  1  0  0  0  0
 10 11  2  0  0  0  0
 11  4  1  0  0  0  0
 12 13  2  0  0  0  0
 13  1  1  0  0  0  0
 14 20  1  0  0  0  0
 14 15  1  0  0  0  0
 15 21  1  0  0  0  0
 16 15  2  0  0  0  0
 16 12  1  0  0  0  0
 17 16  1  0  0  0  0
 18 19  1  0  0  0  0
 18 17  2  0  0  0  0
 19 14  2  0  0  0  0
 22 18  1  0  0  0  0
 23 24  1  0  0  0  0
 24 27  1  0  0  0  0
 24 25  1  0  0  0  0
 24 26  1  0  0  0  0
M  END
>  <minimizedAffinity>
-5.56066751

$$$$

 OpenBabel03272502323D

 27 28  0  0  1  0  0  0  0  0999 V2000
   39.1370   23.1520   35.5090 C   0  0  2  0  0  0  0  0  0  0  0  0
   39.8800   22.4470   36.0920 H   0  0  0  0  0  0  0  0  0  0  0  0
   42.2310   23.3910   34.9720 Cl  0  0  0  0  0  0  0  0  0  0  0  0
   41.1460   24.7390   34.9290 C   0  0  0  0  0  0  0  0  0  0  0  0
   39.8550   24.3550   35.2050 C   0  0  0  0  0  0  0  0  0  0  0  0
   38.9120   25.3960   35.1830 C   0  0  0  0  0  0  0  0  0  0  0  0
   37.8270   25.3760   35.3690 H   0  0  0  0  0  0  0  0  0  0  0  0
   39.2200   26.7310   34.9090 C   0  0  0  0  0  0  0  0  0  0  0  0
   38.5650   27.5880   34.8710 H   0  0  0  0  0  0  0  0  0  0  0  0
   40.5610   27.0360   34.6380 C   0  0  0  0  0  3  0  0  0  0  0  0
   41.5040   26.0430   34.6500 C   0  0  0  0  0  3  0  0  0  0  0  0
   37.4180   21.9570   34.3440 C   0  0  0  0  0  3  0  0  0  0  0  0
   38.6640   22.3720   34.3520 C   0  0  0  0  0  3  0  0  0  0  0  0
   35.1060   19.6890   32.5350 C   0  0  0  0  0  0  0  0  0  0  0  0
   35.6960   20.4570   33.5290 C   0  0  0  0  0  0  0  0  0  0  0  0
   36.8560   21.1710   33.2860 C   0  0  0  0  0  0  0  0  0  0  0  0
   37.4140   21.1060   32.0430 N   0  0  0  0  0  0  0  0  0  0  0  0
   36.8150   20.3530   31.1010 C   0  0  0  0  0  0  0  0  0  0  0  0
   35.6910   19.6540   31.3210 N   0  0  0  0  0  0  0  0  0  0  0  0
   34.2080   19.1160   32.6770 H   0  0  0  0  0  0  0  0  0  0  0  0
   35.1440   20.4100   34.4600 H   0  0  0  0  0  0  0  0  0  0  0  0
   37.3560   20.3880   30.1550 H   0  0  0  0  0  0  0  0  0  0  0  0
   37.7290   23.3090   36.6650 S   0  0  0  0  0  0  0  0  0  0  0  0
   38.3080   23.5830   38.3340 C   0  0  0  0  0  0  0  0  0  0  0  0
   39.6370   23.1950   38.5060 F   0  0  0  0  0  0  0  0  0  0  0  0
   38.0730   24.8610   38.7840 F   0  0  0  0  0  0  0  0  0  0  0  0
   37.5400   22.7290   39.1720 F   0  0  0  0  0  0  0  0  0  0  0  0
  1  2  1  1  0  0  0
  1 23  1  0  0  0  0
  4  3  1  0  0  0  0
  4  5  1  0  0  0  0
  5  1  1  0  0  0  0
  6  5  2  0  0  0  0
  6  7  1  0  0  0  0
  8  6  1  0  0  0  0
  9  8  1  0  0  0  0
 10 11  1  0  0  0  0
 10  8  2  0  0  0  0
 11  4  2  0  0  0  0
 12 13  2  0  0  0  0
 13  1  1  0  0  0  0
 14 20  1  0  0  0  0
 14 15  1  0  0  0  0
 15 21  1  0  0  0  0
 16 15  2  0  0  0  0
 16 12  1  0  0  0  0
 17 16  1  0  0  0  0
 18 19  1  0  0  0  0
 18 17  2  0  0  0  0
 19 14  2  0  0  0  0
 22 18  1  0  0  0  0
 23 24  1  0  0  0  0
 24 25  1  0  0  0  0
 24 26  1  0  0  0  0
 24 27  1  0  0  0  0
M  END
>  <minimizedAffinity>
-5.34834909

$$$$

 OpenBabel03272502323D

 27 28  0  0  1  0  0  0  0  0999 V2000
   38.1460   23.8460   34.9770 C   0  0  2  0  0  0  0  0  0  0  0  0
   37.1770   23.9120   35.6430 H   0  0  0  0  0  0  0  0  0  0  0  0
   37.9260   23.1950   38.0500 Cl  0  0  0  0  0  0  0  0  0  0  0  0
   39.3960   23.0560   37.1460 C   0  0  0  0  0  0  0  0  0  0  0  0
   39.2120   23.4070   35.8290 C   0  0  0  0  0  0  0  0  0  0  0  0
   40.3610   23.3150   35.0270 C   0  0  0  0  0  0  0  0  0  0  0  0
   40.5010   23.5340   33.9570 H   0  0  0  0  0  0  0  0  0  0  0  0
   41.6140   22.9050   35.4920 C   0  0  0  0  0  0  0  0  0  0  0  0
   42.5420   22.8050   34.9510 H   0  0  0  0  0  0  0  0  0  0  0  0
   41.7130   22.5650   36.8480 C   0  0  0  0  0  3  0  0  0  0  0  0
   40.6100   22.6430   37.6550 C   0  0  0  0  0  3  0  0  0  0  0  0
   37.1160   21.8640   34.1100 C   0  0  0  0  0  3  0  0  0  0  0  0
   37.8050   22.9520   33.8550 C   0  0  0  0  0  3  0  0  0  0  0  0
   35.1980   19.2260   32.3420 C   0  0  0  0  0  0  0  0  0  0  0  0
   35.6040   20.1560   33.2890 C   0  0  0  0  0  0  0  0  0  0  0  0
   36.7490   20.9110   33.1050 C   0  0  0  0  0  0  0  0  0  0  0  0
   37.4780   20.7240   31.9680 N   0  0  0  0  0  0  0  0  0  0  0  0
   37.0560   19.8150   31.0690 C   0  0  0  0  0  0  0  0  0  0  0  0
   35.9490   19.0750   31.2320 N   0  0  0  0  0  0  0  0  0  0  0  0
   34.3190   18.6160   32.4410 H   0  0  0  0  0  0  0  0  0  0  0  0
   34.9290   20.1920   34.1370 H   0  0  0  0  0  0  0  0  0  0  0  0
   37.7220   19.7640   30.2070 H   0  0  0  0  0  0  0  0  0  0  0  0
   38.2890   25.5360   34.2930 S   0  0  0  0  0  0  0  0  0  0  0  0
   38.7070   26.7060   35.5790 C   0  0  0  0  0  0  0  0  0  0  0  0
   38.2940   26.2780   36.8400 F   0  0  0  0  0  0  0  0  0  0  0  0
   40.0320   27.0780   35.5590 F   0  0  0  0  0  0  0  0  0  0  0  0
   37.9680   27.8880   35.3040 F   0  0  0  0  0  0  0  0  0  0  0  0
  1  2  1  1  0  0  0
  1  5  1  0  0  0  0
  4 11  1  0  0  0  0
  4  3  1  0  0  0  0
  5  4  2  0  0  0  0
  6  8  2  0  0  0  0
  6  5  1  0  0  0  0
  7  6  1  0  0  0  0
  8 10  1  0  0  0  0
  9  8  1  0  0  0  0
 10 11  2  0  0  0  0
 13 12  2  0  0  0  0
 13  1  1  0  0  0  0
 14 20  1  0  0  0  0
 14 15  1  0  0  0  0
 15 21  1  0  0  0  0
 16 15  2  0  0  0  0
 16 12  1  0  0  0  0
 17 16  1  0  0  0  0
 18 19  1  0  0  0  0
 18 17  2  0  0  0  0
 19 14  2  0  0  0  0
 22 18  1  0  0  0  0
 23  1  1  0  0  0  0
 23 24  1  0  0  0  0
 24 25  1  0  0  0  0
 26 24  1  0  0  0  0
 27 24  1  0  0  0  0
M  END
>  <minimizedAffinity>
-5.19260168

$$$$

 OpenBabel03272502323D

 27 28  0  0  1  0  0  0  0  0999 V2000
   38.4010   24.1400   34.4480 C   0  0  2  0  0  0  0  0  0  0  0  0
   37.4280   24.7980   34.5540 H   0  0  0  0  0  0  0  0  0  0  0  0
   40.8950   22.3760   35.2150 Cl  0  0  0  0  0  0  0  0  0  0  0  0
   39.7860   23.0230   36.3780 C   0  0  0  0  0  0  0  0  0  0  0  0
   38.7880   23.7490   35.7720 C   0  0  0  0  0  0  0  0  0  0  0  0
   37.8500   24.3120   36.6520 C   0  0  0  0  0  0  0  0  0  0  0  0
   36.9600   24.9270   36.4450 H   0  0  0  0  0  0  0  0  0  0  0  0
   37.8890   24.1680   38.0420 C   0  0  0  0  0  0  0  0  0  0  0  0
   37.2170   24.5630   38.7870 H   0  0  0  0  0  0  0  0  0  0  0  0
   38.9410   23.4120   38.5770 C   0  0  0  0  0  3  0  0  0  0  0  0
   39.8730   22.8510   37.7440 C   0  0  0  0  0  3  0  0  0  0  0  0
   37.2850   22.0730   33.9750 C   0  0  0  0  0  3  0  0  0  0  0  0
   38.0480   23.0440   33.5280 C   0  0  0  0  0  3  0  0  0  0  0  0
   35.2670   19.2320   32.7010 C   0  0  0  0  0  0  0  0  0  0  0  0
   35.6930   20.3220   33.4480 C   0  0  0  0  0  0  0  0  0  0  0  0
   36.8980   20.9450   33.1790 C   0  0  0  0  0  0  0  0  0  0  0  0
   37.6680   20.4670   32.1600 N   0  0  0  0  0  0  0  0  0  0  0  0
   37.2250   19.4090   31.4540 C   0  0  0  0  0  0  0  0  0  0  0  0
   36.0590   18.7930   31.7020 N   0  0  0  0  0  0  0  0  0  0  0  0
   34.3410   18.7150   32.8730 H   0  0  0  0  0  0  0  0  0  0  0  0
   34.9810   20.5870   34.2210 H   0  0  0  0  0  0  0  0  0  0  0  0
   37.9280   19.1280   30.6690 H   0  0  0  0  0  0  0  0  0  0  0  0
   39.5480   25.2460   33.5520 S   0  0  0  0  0  0  0  0  0  0  0  0
   40.2940   26.4240   34.6710 C   0  0  0  0  0  0  0  0  0  0  0  0
   40.9200   27.4730   33.9980 F   0  0  0  0  0  0  0  0  0  0  0  0
   39.4290   26.8670   35.6440 F   0  0  0  0  0  0  0  0  0  0  0  0
   41.3260   25.7290   35.3580 F   0  0  0  0  0  0  0  0  0  0  0  0
  1  2  1  1  0  0  0
  1  5  1  0  0  0  0
  3  4  1  0  0  0  0
  4 11  1  0  0  0  0
  5  4  2  0  0  0  0
  5  6  1  0  0  0  0
  6  8  2  0  0  0  0
  7  6  1  0  0  0  0
  8 10  1  0  0  0  0
  8  9  1  0  0  0  0
 11 10  2  0  0  0  0
 13 12  2  0  0  0  0
 13  1  1  0  0  0  0
 14 20  1  0  0  0  0
 14 15  1  0  0  0  0
 15 21  1  0  0  0  0
 16 15  2  0  0  0  0
 16 12  1  0  0  0  0
 17 16  1  0  0  0  0
 18 19  1  0  0  0  0
 18 17  2  0  0  0  0
 19 14  2  0  0  0  0
 22 18  1  0  0  0  0
 23  1  1  0  0  0  0
 23 24  1  0  0  0  0
 24 27  1  0  0  0  0
 24 26  1  0  0  0  0
 25 24  1  0  0  0  0
M  END
>  <minimizedAffinity>
-5.15727615

$$$$

 OpenBabel03272502323D

 27 28  0  0  1  0  0  0  0  0999 V2000
   39.8030   23.2550   35.1360 C   0  0  2  0  0  0  0  0  0  0  0  0
   40.9210   23.3750   34.7830 H   0  0  0  0  0  0  0  0  0  0  0  0
   37.4280   23.9560   37.0820 Cl  0  0  0  0  0  0  0  0  0  0  0  0
   38.3440   25.1480   36.2220 C   0  0  0  0  0  0  0  0  0  0  0  0
   39.3160   24.5680   35.4400 C   0  0  0  0  0  0  0  0  0  0  0  0
   40.1070   25.4720   34.7130 C   0  0  0  0  0  0  0  0  0  0  0  0
   40.9400   25.2890   34.0170 H   0  0  0  0  0  0  0  0  0  0  0  0
   39.9510   26.8610   34.7520 C   0  0  0  0  0  0  0  0  0  0  0  0
   40.5090   27.6240   34.2320 H   0  0  0  0  0  0  0  0  0  0  0  0
   38.9360   27.3680   35.5750 C   0  0  0  0  0  3  0  0  0  0  0  0
   38.1490   26.5120   36.2970 C   0  0  0  0  0  3  0  0  0  0  0  0
   37.9450   21.9960   34.2960 C   0  0  0  0  0  3  0  0  0  0  0  0
   39.1100   22.5460   34.0450 C   0  0  0  0  0  3  0  0  0  0  0  0
   35.1520   20.1130   32.7420 C   0  0  0  0  0  0  0  0  0  0  0  0
   35.9250   20.8190   33.6530 C   0  0  0  0  0  0  0  0  0  0  0  0
   37.1930   21.2620   33.3210 C   0  0  0  0  0  0  0  0  0  0  0  0
   37.6740   20.9900   32.0750 N   0  0  0  0  0  0  0  0  0  0  0  0
   36.8980   20.3040   31.2150 C   0  0  0  0  0  0  0  0  0  0  0  0
   35.6670   19.8670   31.5210 N   0  0  0  0  0  0  0  0  0  0  0  0
   34.1640   19.7470   32.9540 H   0  0  0  0  0  0  0  0  0  0  0  0
   35.4140   20.9570   34.5990 H   0  0  0  0  0  0  0  0  0  0  0  0
   37.3950   20.1560   30.2560 H   0  0  0  0  0  0  0  0  0  0  0  0
   39.9390   22.0860   36.5350 S   0  0  0  0  0  0  0  0  0  0  0  0
   41.6530   21.7790   36.9390 C   0  0  0  0  0  0  0  0  0  0  0  0
   42.4090   22.9510   36.9740 F   0  0  0  0  0  0  0  0  0  0  0  0
   41.8120   21.0190   38.0740 F   0  0  0  0  0  0  0  0  0  0  0  0
   42.1850   21.0020   35.8740 F   0  0  0  0  0  0  0  0  0  0  0  0
  1  2  1  6  0  0  0
  1  5  1  0  0  0  0
  1 23  1  0  0  0  0
  4 11  1  0  0  0  0
  4  3  1  0  0  0  0
  5  4  2  0  0  0  0
  6  8  2  0  0  0  0
  6  5  1  0  0  0  0
  7  6  1  0  0  0  0
  8 10  1  0  0  0  0
  9  8  1  0  0  0  0
 10 11  2  0  0  0  0
 13 12  2  0  0  0  0
 13  1  1  0  0  0  0
 14 20  1  0  0  0  0
 14 15  1  0  0  0  0
 15 21  1  0  0  0  0
 16 15  2  0  0  0  0
 16 12  1  0  0  0  0
 17 16  1  0  0  0  0
 18 19  1  0  0  0  0
 18 17  2  0  0  0  0
 19 14  2  0  0  0  0
 22 18  1  0  0  0  0
 23 24  1  0  0  0  0
 24 25  1  0  0  0  0
 24 26  1  0  0  0  0
 27 24  1  0  0  0  0
M  END
>  <minimizedAffinity>
-5.13458157

$$$$

 OpenBabel03272502323D

 27 28  0  0  1  0  0  0  0  0999 V2000
   36.6140   28.1280   32.4270 C   0  0  2  0  0  0  0  0  0  0  0  0
   37.7550   28.3560   32.6140 H   0  0  0  0  0  0  0  0  0  0  0  0
   38.4210   25.8820   33.6970 Cl  0  0  0  0  0  0  0  0  0  0  0  0
   37.1200   25.5580   32.6010 C   0  0  0  0  0  0  0  0  0  0  0  0
   36.5020   26.7170   32.1960 C   0  0  0  0  0  0  0  0  0  0  0  0
   35.4300   26.5360   31.3080 C   0  0  0  0  0  0  0  0  0  0  0  0
   34.7700   27.2750   30.8280 H   0  0  0  0  0  0  0  0  0  0  0  0
   34.9930   25.2910   30.8450 C   0  0  0  0  0  0  0  0  0  0  0  0
   34.1850   25.0600   30.1690 H   0  0  0  0  0  0  0  0  0  0  0  0
   35.6790   24.1600   31.3090 C   0  0  0  0  0  3  0  0  0  0  0  0
   36.7280   24.3040   32.1770 C   0  0  0  0  0  3  0  0  0  0  0  0
   35.7450   29.9460   33.7230 C   0  0  0  0  0  3  0  0  0  0  0  0
   35.9000   28.6480   33.6070 C   0  0  0  0  0  3  0  0  0  0  0  0
   33.0660   30.8830   36.1130 C   0  0  0  0  0  0  0  0  0  0  0  0
   33.7450   30.3150   35.0430 C   0  0  0  0  0  0  0  0  0  0  0  0
   35.0900   30.5660   34.8370 C   0  0  0  0  0  0  0  0  0  0  0  0
   35.7430   31.3870   35.7090 N   0  0  0  0  0  0  0  0  0  0  0  0
   35.0550   31.9200   36.7360 C   0  0  0  0  0  0  0  0  0  0  0  0
   33.7510   31.6870   36.9500 N   0  0  0  0  0  0  0  0  0  0  0  0
   32.0230   30.7200   36.3120 H   0  0  0  0  0  0  0  0  0  0  0  0
   33.0990   29.6910   34.4370 H   0  0  0  0  0  0  0  0  0  0  0  0
   35.6890   32.5520   37.3590 H   0  0  0  0  0  0  0  0  0  0  0  0
   36.2020   29.2230   31.0220 S   0  0  0  0  0  0  0  0  0  0  0  0
   37.5580   29.3000   29.8610 C   0  0  0  0  0  0  0  0  0  0  0  0
   37.2470   28.7010   28.6410 F   0  0  0  0  0  0  0  0  0  0  0  0
   38.0660   30.5690   29.7080 F   0  0  0  0  0  0  0  0  0  0  0  0
   38.6120   28.5260   30.4200 F   0  0  0  0  0  0  0  0  0  0  0  0
  1  2  1  1  0  0  0
  1 13  1  0  0  0  0
  4  3  1  0  0  0  0
  5  1  1  0  0  0  0
  5  4  1  0  0  0  0
  6  5  2  0  0  0  0
  7  6  1  0  0  0  0
  8  6  1  0  0  0  0
  8 10  2  0  0  0  0
  9  8  1  0  0  0  0
 10 11  1  0  0  0  0
 11  4  2  0  0  0  0
 12 16  1  0  0  0  0
 13 12  2  0  0  0  0
 14 20  1  0  0  0  0
 14 19  1  0  0  0  0
 15 14  2  0  0  0  0
 16 15  1  0  0  0  0
 16 17  2  0  0  0  0
 17 18  1  0  0  0  0
 18 19  2  0  0  0  0
 18 22  1  0  0  0  0
 21 15  1  0  0  0  0
 23  1  1  0  0  0  0
 24 27  1  0  0  0  0
 24 23  1  0  0  0  0
 25 24  1  0  0  0  0
 26 24  1  0  0  0  0
M  END
>  <minimizedAffinity>
-4.93556643

$$$$

 OpenBabel03272502323D

 27 28  0  0  1  0  0  0  0  0999 V2000
   34.5480   30.2480   33.5350 C   0  0  2  0  0  0  0  0  0  0  0  0
   34.8820   30.1580   32.4080 H   0  0  0  0  0  0  0  0  0  0  0  0
   32.5230   31.2360   31.3330 Cl  0  0  0  0  0  0  0  0  0  0  0  0
   32.0400   30.4040   32.7730 C   0  0  0  0  0  0  0  0  0  0  0  0
   33.1230   30.0930   33.5620 C   0  0  0  0  0  0  0  0  0  0  0  0
   32.8120   29.4110   34.7490 C   0  0  0  0  0  0  0  0  0  0  0  0
   33.4690   29.0480   35.5540 H   0  0  0  0  0  0  0  0  0  0  0  0
   31.5160   29.0570   35.1370 C   0  0  0  0  0  0  0  0  0  0  0  0
   31.1880   28.5360   36.0230 H   0  0  0  0  0  0  0  0  0  0  0  0
   30.4710   29.4120   34.2730 C   0  0  0  0  0  3  0  0  0  0  0  0
   30.7420   30.0770   33.1080 C   0  0  0  0  0  3  0  0  0  0  0  0
   36.2690   28.5840   33.6290 C   0  0  0  0  0  3  0  0  0  0  0  0
   35.3220   29.2310   34.2680 C   0  0  0  0  0  3  0  0  0  0  0  0
   38.4700   26.8620   36.0690 C   0  0  0  0  0  0  0  0  0  0  0  0
   37.6920   27.8240   35.4390 C   0  0  0  0  0  0  0  0  0  0  0  0
   37.0690   27.5590   34.2320 C   0  0  0  0  0  0  0  0  0  0  0  0
   37.2330   26.3280   33.6680 N   0  0  0  0  0  0  0  0  0  0  0  0
   37.9930   25.4180   34.3070 C   0  0  0  0  0  0  0  0  0  0  0  0
   38.6040   25.6590   35.4770 N   0  0  0  0  0  0  0  0  0  0  0  0
   38.9750   27.0220   37.0040 H   0  0  0  0  0  0  0  0  0  0  0  0
   37.6560   28.7490   36.0010 H   0  0  0  0  0  0  0  0  0  0  0  0
   38.0410   24.4790   33.7560 H   0  0  0  0  0  0  0  0  0  0  0  0
   35.2030   31.8830   34.0270 S   0  0  0  0  0  0  0  0  0  0  0  0
   35.6800   31.8800   35.7500 C   0  0  0  0  0  0  0  0  0  0  0  0
   34.5900   31.7070   36.6030 F   0  0  0  0  0  0  0  0  0  0  0  0
   36.7040   31.0030   36.0250 F   0  0  0  0  0  0  0  0  0  0  0  0
   36.1940   33.1760   36.0280 F   0  0  0  0  0  0  0  0  0  0  0  0
  1  2  1  6  0  0  0
  1  5  1  0  0  0  0
  1 23  1  0  0  0  0
  1 13  1  0  0  0  0
  3  4  1  0  0  0  0
  4 11  2  0  0  0  0
  4  5  1  0  0  0  0
  5  6  2  0  0  0  0
  6  8  1  0  0  0  0
  6  7  1  0  0  0  0
  8  9  1  0  0  0  0
 10  8  2  0  0  0  0
 11 10  1  0  0  0  0
 12 16  1  0  0  0  0
 12 13  2  0  0  0  0
 14 20  1  0  0  0  0
 15 21  1  0  0  0  0
 15 14  2  0  0  0  0
 16 15  1  0  0  0  0
 17 16  2  0  0  0  0
 17 18  1  0  0  0  0
 18 19  2  0  0  0  0
 19 14  1  0  0  0  0
 22 18  1  0  0  0  0
 23 24  1  0  0  0  0
 24 26  1  0  0  0  0
 24 27  1  0  0  0  0
 24 25  1  0  0  0  0
M  END
>  <minimizedAffinity>
-4.92250681

$$$$

 OpenBabel03272502323D

 27 28  0  0  1  0  0  0  0  0999 V2000
   38.7390   24.6710   34.5660 C   0  0  2  0  0  0  0  0  0  0  0  0
   39.7860   24.8380   34.0510 H   0  0  0  0  0  0  0  0  0  0  0  0
   41.2520   22.9440   35.3580 Cl  0  0  0  0  0  0  0  0  0  0  0  0
   39.9630   23.3170   36.4530 C   0  0  0  0  0  0  0  0  0  0  0  0
   38.9930   24.0800   35.8480 C   0  0  0  0  0  0  0  0  0  0  0  0
   37.9140   24.4280   36.6750 C   0  0  0  0  0  0  0  0  0  0  0  0
   37.0100   25.0180   36.4560 H   0  0  0  0  0  0  0  0  0  0  0  0
   37.7960   24.0490   38.0160 C   0  0  0  0  0  0  0  0  0  0  0  0
   37.0090   24.2700   38.7200 H   0  0  0  0  0  0  0  0  0  0  0  0
   38.8310   23.2720   38.5540 C   0  0  0  0  0  3  0  0  0  0  0  0
   39.8970   22.9170   37.7720 C   0  0  0  0  0  3  0  0  0  0  0  0
   37.5180   26.4210   33.4780 C   0  0  0  0  0  3  0  0  0  0  0  0
   38.0820   25.9900   34.5820 C   0  0  0  0  0  3  0  0  0  0  0  0
   36.2440   29.5680   31.9820 C   0  0  0  0  0  0  0  0  0  0  0  0
   36.8640   28.3370   32.1430 C   0  0  0  0  0  0  0  0  0  0  0  0
   36.8720   27.6960   33.3690 C   0  0  0  0  0  0  0  0  0  0  0  0
   36.2560   28.3000   34.4250 N   0  0  0  0  0  0  0  0  0  0  0  0
   35.6630   29.4940   34.2340 C   0  0  0  0  0  0  0  0  0  0  0  0
   35.6460   30.1280   33.0520 N   0  0  0  0  0  0  0  0  0  0  0  0
   36.2140   30.1050   31.0510 H   0  0  0  0  0  0  0  0  0  0  0  0
   37.3110   27.9840   31.2210 H   0  0  0  0  0  0  0  0  0  0  0  0
   35.2060   29.8660   35.1520 H   0  0  0  0  0  0  0  0  0  0  0  0
   37.8450   23.6380   33.3510 S   0  0  0  0  0  0  0  0  0  0  0  0
   37.8600   21.9210   33.8470 C   0  0  0  0  0  0  0  0  0  0  0  0
   39.1420   21.3710   33.8170 F   0  0  0  0  0  0  0  0  0  0  0  0
   37.2230   21.7000   35.0450 F   0  0  0  0  0  0  0  0  0  0  0  0
   37.1080   21.2130   32.8700 F   0  0  0  0  0  0  0  0  0  0  0  0
  1  2  1  6  0  0  0
  1 13  1  0  0  0  0
  1  5  1  0  0  0  0
  3  4  1  0  0  0  0
  4 11  1  0  0  0  0
  5  4  2  0  0  0  0
  5  6  1  0  0  0  0
  6  8  2  0  0  0  0
  7  6  1  0  0  0  0
  8 10  1  0  0  0  0
  8  9  1  0  0  0  0
 11 10  2  0  0  0  0
 12 13  2  0  0  0  0
 14 15  2  0  0  0  0
 14 19  1  0  0  0  0
 15 16  1  0  0  0  0
 16 12  1  0  0  0  0
 16 17  2  0  0  0  0
 18 17  1  0  0  0  0
 18 22  1  0  0  0  0
 19 18  2  0  0  0  0
 20 14  1  0  0  0  0
 21 15  1  0  0  0  0
 23 24  1  0  0  0  0
 23  1  1  0  0  0  0
 24 26  1  0  0  0  0
 25 24  1  0  0  0  0
 27 24  1  0  0  0  0
M  END
>  <minimizedAffinity>
-4.90206909

$$$$

 OpenBabel03272502323D

 27 28  0  0  1  0  0  0  0  0999 V2000
   36.8390   28.1200   33.3480 C   0  0  2  0  0  0  0  0  0  0  0  0
   37.7520   28.8590   33.2480 H   0  0  0  0  0  0  0  0  0  0  0  0
   38.6440   27.4320   35.8360 Cl  0  0  0  0  0  0  0  0  0  0  0  0
   38.1550   26.2630   34.6560 C   0  0  0  0  0  0  0  0  0  0  0  0
   37.3770   26.8320   33.6760 C   0  0  0  0  0  0  0  0  0  0  0  0
   36.9350   25.9440   32.6820 C   0  0  0  0  0  0  0  0  0  0  0  0
   36.3130   26.1240   31.7920 H   0  0  0  0  0  0  0  0  0  0  0  0
   37.2400   24.5800   32.6540 C   0  0  0  0  0  0  0  0  0  0  0  0
   36.9450   23.8300   31.9370 H   0  0  0  0  0  0  0  0  0  0  0  0
   38.0390   24.0820   33.6930 C   0  0  0  0  0  3  0  0  0  0  0  0
   38.4840   24.9230   34.6770 C   0  0  0  0  0  3  0  0  0  0  0  0
   35.8040   30.0250   34.3670 C   0  0  0  0  0  3  0  0  0  0  0  0
   35.9420   28.7200   34.3520 C   0  0  0  0  0  3  0  0  0  0  0  0
   34.8010   32.3900   37.0440 C   0  0  0  0  0  0  0  0  0  0  0  0
   35.5570   31.6820   36.1210 C   0  0  0  0  0  0  0  0  0  0  0  0
   34.9790   30.7200   35.3120 C   0  0  0  0  0  0  0  0  0  0  0  0
   33.6430   30.4750   35.4400 N   0  0  0  0  0  0  0  0  0  0  0  0
   32.9390   31.1810   36.3450 C   0  0  0  0  0  0  0  0  0  0  0  0
   33.4840   32.1170   37.1360 N   0  0  0  0  0  0  0  0  0  0  0  0
   35.2050   33.1440   37.6950 H   0  0  0  0  0  0  0  0  0  0  0  0
   36.5990   31.9820   36.1330 H   0  0  0  0  0  0  0  0  0  0  0  0
   31.8870   30.8940   36.3460 H   0  0  0  0  0  0  0  0  0  0  0  0
   36.0100   28.2730   31.7260 S   0  0  0  0  0  0  0  0  0  0  0  0
   37.1460   28.8850   30.4890 C   0  0  0  0  0  0  0  0  0  0  0  0
   38.4780   28.6530   30.8310 F   0  0  0  0  0  0  0  0  0  0  0  0
   36.8470   28.4500   29.2190 F   0  0  0  0  0  0  0  0  0  0  0  0
   36.9890   30.2980   30.4620 F   0  0  0  0  0  0  0  0  0  0  0  0
  1  2  1  6  0  0  0
  1  5  1  0  0  0  0
  1 13  1  0  0  0  0
  4 11  1  0  0  0  0
  4  3  1  0  0  0  0
  5  4  2  0  0  0  0
  6  5  1  0  0  0  0
  7  6  1  0  0  0  0
  8  6  2  0  0  0  0
  8 10  1  0  0  0  0
  9  8  1  0  0  0  0
 10 11  2  0  0  0  0
 12 16  1  0  0  0  0
 13 12  2  0  0  0  0
 14 19  1  0  0  0  0
 14 20  1  0  0  0  0
 15 21  1  0  0  0  0
 15 14  2  0  0  0  0
 16 17  2  0  0  0  0
 16 15  1  0  0  0  0
 17 18  1  0  0  0  0
 18 22  1  0  0  0  0
 18 19  2  0  0  0  0
 23  1  1  0  0  0  0
 24 25  1  0  0  0  0
 24 23  1  0  0  0  0
 26 24  1  0  0  0  0
 27 24  1  0  0  0  0
M  END
>  <minimizedAffinity>
-4.86691093

$$$$
