
 OpenBabel03272506413D

 19 20  0  0  0  0  0  0  0  0999 V2000
   38.7740   25.2410   33.3290 S   0  0  0  0  0  0  0  0  0  0  0  0
   35.6110   26.4870   31.3000 C   0  0  0  0  0  0  0  0  0  0  0  0
   34.9640   25.3200   30.8800 C   0  0  0  0  0  0  0  0  0  0  0  0
   35.5300   24.0780   31.2390 C   0  0  0  0  0  0  0  0  0  0  0  0
   36.6750   24.0800   31.9740 N   0  0  0  0  0  0  0  0  0  0  0  0
   37.2720   25.2330   32.3620 C   0  0  0  0  0  0  0  0  0  0  0  0
   36.7530   26.4340   32.0330 N   0  0  0  0  0  0  0  0  0  0  0  0
   35.1280   27.3920   30.9940 H   0  0  0  0  0  0  0  0  0  0  0  0
   34.0550   25.3270   30.2960 H   0  0  0  0  0  0  0  0  0  0  0  0
   35.0780   23.1560   30.9450 H   0  0  0  0  0  0  0  0  0  0  0  0
   38.4910   27.1200   35.9180 Cl  0  0  0  0  0  0  0  0  0  0  0  0
   38.2770   25.4160   36.1460 C   0  0  0  0  0  0  0  0  0  0  0  0
   38.4140   24.6810   34.9870 C   0  0  0  0  0  0  0  0  0  0  0  0
   38.2670   23.2900   35.0230 C   0  0  0  0  0  0  0  0  0  0  0  0
   38.3480   22.5940   34.1970 H   0  0  0  0  0  0  0  0  0  0  0  0
   37.9810   22.6380   36.2270 C   0  0  0  0  0  0  0  0  0  0  0  0
   37.8580   21.5660   36.3100 H   0  0  0  0  0  0  0  0  0  0  0  0
   37.8460   23.3840   37.3790 C   0  0  0  0  0  3  0  0  0  0  0  0
   37.9950   24.7540   37.3230 C   0  0  0  0  0  3  0  0  0  0  0  0
  1 13  1  0  0  0  0
  2  7  1  0  0  0  0
  3  4  1  0  0  0  0
  3  2  2  0  0  0  0
  4  5  2  0  0  0  0
  5  6  1  0  0  0  0
  6  1  1  0  0  0  0
  7  6  2  0  0  0  0
  8  2  1  0  0  0  0
  9  3  1  0  0  0  0
 10  4  1  0  0  0  0
 11 12  1  0  0  0  0
 12 19  1  0  0  0  0
 13 14  1  0  0  0  0
 13 12  2  0  0  0  0
 14 16  2  0  0  0  0
 15 14  1  0  0  0  0
 16 17  1  0  0  0  0
 16 18  1  0  0  0  0
 19 18  2  0  0  0  0
M  END
>  <minimizedAffinity>
-4.3462801

$$$$

 OpenBabel03272506413D

 19 20  0  0  0  0  0  0  0  0999 V2000
   38.8490   23.3770   33.7660 S   0  0  0  0  0  0  0  0  0  0  0  0
   39.7910   22.6740   37.5470 C   0  0  0  0  0  0  0  0  0  0  0  0
   38.8530   23.3910   38.2960 C   0  0  0  0  0  0  0  0  0  0  0  0
   37.8730   24.1340   37.6040 C   0  0  0  0  0  0  0  0  0  0  0  0
   37.8940   24.1150   36.2430 N   0  0  0  0  0  0  0  0  0  0  0  0
   38.8200   23.4070   35.5520 C   0  0  0  0  0  0  0  0  0  0  0  0
   39.7670   22.6880   36.1890 N   0  0  0  0  0  0  0  0  0  0  0  0
   40.5030   22.1330   38.1350 H   0  0  0  0  0  0  0  0  0  0  0  0
   38.8440   23.4010   39.3770 H   0  0  0  0  0  0  0  0  0  0  0  0
   37.1330   24.6990   38.1260 H   0  0  0  0  0  0  0  0  0  0  0  0
   37.2590   24.1170   31.0770 Cl  0  0  0  0  0  0  0  0  0  0  0  0
   36.6430   22.8060   32.0290 C   0  0  0  0  0  0  0  0  0  0  0  0
   37.3820   22.5530   33.1640 C   0  0  0  0  0  0  0  0  0  0  0  0
   36.9990   21.5210   34.0290 C   0  0  0  0  0  0  0  0  0  0  0  0
   37.4830   21.2130   34.9480 H   0  0  0  0  0  0  0  0  0  0  0  0
   35.8720   20.7420   33.7480 C   0  0  0  0  0  0  0  0  0  0  0  0
   35.5330   19.9330   34.3820 H   0  0  0  0  0  0  0  0  0  0  0  0
   35.1420   21.0060   32.6080 C   0  0  0  0  0  3  0  0  0  0  0  0
   35.5350   22.0280   31.7700 C   0  0  0  0  0  3  0  0  0  0  0  0
  1  6  1  0  0  0  0
  2  8  1  0  0  0  0
  2  3  1  0  0  0  0
  3  9  1  0  0  0  0
  4 10  1  0  0  0  0
  4  3  2  0  0  0  0
  5  4  1  0  0  0  0
  6  7  1  0  0  0  0
  6  5  2  0  0  0  0
  7  2  2  0  0  0  0
 11 12  1  0  0  0  0
 12 13  1  0  0  0  0
 13  1  1  0  0  0  0
 13 14  2  0  0  0  0
 14 15  1  0  0  0  0
 16 14  1  0  0  0  0
 16 17  1  0  0  0  0
 18 16  2  0  0  0  0
 19 12  2  0  0  0  0
 19 18  1  0  0  0  0
M  END
>  <minimizedAffinity>
-4.2898078

$$$$

 OpenBabel03272506413D

 19 20  0  0  0  0  0  0  0  0999 V2000
   38.9550   22.7670   36.3680 S   0  0  0  0  0  0  0  0  0  0  0  0
   35.6770   20.8390   35.2680 C   0  0  0  0  0  0  0  0  0  0  0  0
   35.7460   20.7670   33.8740 C   0  0  0  0  0  0  0  0  0  0  0  0
   36.8620   21.3440   33.2310 C   0  0  0  0  0  0  0  0  0  0  0  0
   37.8130   21.9400   34.0020 N   0  0  0  0  0  0  0  0  0  0  0  0
   37.7100   21.9880   35.3520 C   0  0  0  0  0  0  0  0  0  0  0  0
   36.6530   21.4450   35.9920 N   0  0  0  0  0  0  0  0  0  0  0  0
   34.8060   20.3810   35.6900 H   0  0  0  0  0  0  0  0  0  0  0  0
   34.9870   20.2930   33.2680 H   0  0  0  0  0  0  0  0  0  0  0  0
   36.9660   21.3190   32.1680 H   0  0  0  0  0  0  0  0  0  0  0  0
   41.2240   23.8340   34.3620 Cl  0  0  0  0  0  0  0  0  0  0  0  0
   40.1110   25.0010   34.9950 C   0  0  0  0  0  0  0  0  0  0  0  0
   39.1700   24.4620   35.8460 C   0  0  0  0  0  0  0  0  0  0  0  0
   38.2060   25.2910   36.4330 C   0  0  0  0  0  0  0  0  0  0  0  0
   37.4150   25.0060   37.1150 H   0  0  0  0  0  0  0  0  0  0  0  0
   38.1900   26.6630   36.1610 C   0  0  0  0  0  0  0  0  0  0  0  0
   37.4680   27.3460   36.5870 H   0  0  0  0  0  0  0  0  0  0  0  0
   39.1370   27.1880   35.3070 C   0  0  0  0  0  3  0  0  0  0  0  0
   40.0780   26.3560   34.7400 C   0  0  0  0  0  3  0  0  0  0  0  0
  2  8  1  0  0  0  0
  2  7  1  0  0  0  0
  3  2  2  0  0  0  0
  4  3  1  0  0  0  0
  4  5  2  0  0  0  0
  5  6  1  0  0  0  0
  6  7  2  0  0  0  0
  6  1  1  0  0  0  0
  9  3  1  0  0  0  0
 10  4  1  0  0  0  0
 11 12  1  0  0  0  0
 12 13  1  0  0  0  0
 13  1  1  0  0  0  0
 13 14  2  0  0  0  0
 14 15  1  0  0  0  0
 16 14  1  0  0  0  0
 16 17  1  0  0  0  0
 18 16  2  0  0  0  0
 19 12  2  0  0  0  0
 19 18  1  0  0  0  0
M  END
>  <minimizedAffinity>
-4.28392649

$$$$

 OpenBabel03272506413D

 19 20  0  0  0  0  0  0  0  0999 V2000
   38.7730   23.7130   33.9960 S   0  0  0  0  0  0  0  0  0  0  0  0
   35.7770   22.3940   31.7680 C   0  0  0  0  0  0  0  0  0  0  0  0
   35.3280   21.2360   32.4100 C   0  0  0  0  0  0  0  0  0  0  0  0
   35.9800   20.8340   33.5950 C   0  0  0  0  0  0  0  0  0  0  0  0
   37.0130   21.5940   34.0510 N   0  0  0  0  0  0  0  0  0  0  0  0
   37.4190   22.7110   33.4000 C   0  0  0  0  0  0  0  0  0  0  0  0
   36.8130   23.1180   32.2650 N   0  0  0  0  0  0  0  0  0  0  0  0
   35.2380   22.6410   30.8770 H   0  0  0  0  0  0  0  0  0  0  0  0
   34.5070   20.6380   32.0410 H   0  0  0  0  0  0  0  0  0  0  0  0
   35.6780   19.9580   34.1250 H   0  0  0  0  0  0  0  0  0  0  0  0
   41.0340   21.9880   35.4860 Cl  0  0  0  0  0  0  0  0  0  0  0  0
   39.8630   22.7890   36.4790 C   0  0  0  0  0  0  0  0  0  0  0  0
   38.9290   23.5070   35.7640 C   0  0  0  0  0  0  0  0  0  0  0  0
   37.9200   24.2040   36.4380 C   0  0  0  0  0  0  0  0  0  0  0  0
   37.1280   24.8040   36.0070 H   0  0  0  0  0  0  0  0  0  0  0  0
   37.8530   24.1790   37.8350 C   0  0  0  0  0  0  0  0  0  0  0  0
   37.0940   24.7000   38.4050 H   0  0  0  0  0  0  0  0  0  0  0  0
   38.7930   23.4570   38.5390 C   0  0  0  0  0  3  0  0  0  0  0  0
   39.7790   22.7760   37.8560 C   0  0  0  0  0  3  0  0  0  0  0  0
  1 13  1  0  0  0  0
  2  7  2  0  0  0  0
  2  3  1  0  0  0  0
  3  4  2  0  0  0  0
  4  5  1  0  0  0  0
  4 10  1  0  0  0  0
  6  1  1  0  0  0  0
  6  5  2  0  0  0  0
  7  6  1  0  0  0  0
  8  2  1  0  0  0  0
  9  3  1  0  0  0  0
 11 12  1  0  0  0  0
 12 19  1  0  0  0  0
 13 14  1  0  0  0  0
 13 12  2  0  0  0  0
 14 16  2  0  0  0  0
 15 14  1  0  0  0  0
 16 17  1  0  0  0  0
 16 18  1  0  0  0  0
 19 18  2  0  0  0  0
M  END
>  <minimizedAffinity>
-4.25469637

$$$$

 OpenBabel03272506413D

 19 20  0  0  0  0  0  0  0  0999 V2000
   39.3640   24.1520   33.9940 S   0  0  0  0  0  0  0  0  0  0  0  0
   36.4570   21.9400   32.4660 C   0  0  0  0  0  0  0  0  0  0  0  0
   35.7060   22.8170   31.6790 C   0  0  0  0  0  0  0  0  0  0  0  0
   36.1120   24.1670   31.6110 C   0  0  0  0  0  0  0  0  0  0  0  0
   37.2140   24.5440   32.3170 N   0  0  0  0  0  0  0  0  0  0  0  0
   37.9160   23.6630   33.0680 C   0  0  0  0  0  0  0  0  0  0  0  0
   37.5500   22.3660   33.1510 N   0  0  0  0  0  0  0  0  0  0  0  0
   36.0940   20.9330   32.4720 H   0  0  0  0  0  0  0  0  0  0  0  0
   34.8320   22.5110   31.1220 H   0  0  0  0  0  0  0  0  0  0  0  0
   35.5750   24.8800   31.0260 H   0  0  0  0  0  0  0  0  0  0  0  0
   37.3330   26.0280   35.6260 Cl  0  0  0  0  0  0  0  0  0  0  0  0
   38.1650   24.7960   36.5150 C   0  0  0  0  0  0  0  0  0  0  0  0
   39.0160   24.0350   35.7420 C   0  0  0  0  0  0  0  0  0  0  0  0
   39.7550   23.0020   36.3300 C   0  0  0  0  0  0  0  0  0  0  0  0
   40.4550   22.3310   35.8480 H   0  0  0  0  0  0  0  0  0  0  0  0
   39.6350   22.7350   37.6980 C   0  0  0  0  0  0  0  0  0  0  0  0
   40.1820   21.9480   38.2020 H   0  0  0  0  0  0  0  0  0  0  0  0
   38.7800   23.5020   38.4600 C   0  0  0  0  0  3  0  0  0  0  0  0
   38.0610   24.5160   37.8620 C   0  0  0  0  0  3  0  0  0  0  0  0
  1 13  1  0  0  0  0
  2  8  1  0  0  0  0
  2  7  1  0  0  0  0
  3  2  2  0  0  0  0
  4  3  1  0  0  0  0
  4  5  2  0  0  0  0
  5  6  1  0  0  0  0
  6  7  2  0  0  0  0
  6  1  1  0  0  0  0
  9  3  1  0  0  0  0
 10  4  1  0  0  0  0
 11 12  1  0  0  0  0
 12 19  1  0  0  0  0
 13 14  1  0  0  0  0
 13 12  2  0  0  0  0
 14 16  2  0  0  0  0
 15 14  1  0  0  0  0
 16 17  1  0  0  0  0
 16 18  1  0  0  0  0
 19 18  2  0  0  0  0
M  END
>  <minimizedAffinity>
-4.15772915

$$$$

 OpenBabel03272506413D

 19 20  0  0  0  0  0  0  0  0999 V2000
   38.9190   21.9640   33.9170 S   0  0  0  0  0  0  0  0  0  0  0  0
   39.9840   22.7080   37.6580 C   0  0  0  0  0  0  0  0  0  0  0  0
   38.8550   23.2790   38.2520 C   0  0  0  0  0  0  0  0  0  0  0  0
   37.6980   23.4470   37.4610 C   0  0  0  0  0  0  0  0  0  0  0  0
   37.7420   23.0460   36.1610 N   0  0  0  0  0  0  0  0  0  0  0  0
   38.8570   22.4950   35.6220 C   0  0  0  0  0  0  0  0  0  0  0  0
   39.9760   22.3230   36.3550 N   0  0  0  0  0  0  0  0  0  0  0  0
   40.8240   22.6090   38.3140 H   0  0  0  0  0  0  0  0  0  0  0  0
   38.8270   23.5960   39.2850 H   0  0  0  0  0  0  0  0  0  0  0  0
   36.8080   23.8780   37.8640 H   0  0  0  0  0  0  0  0  0  0  0  0
   38.9720   25.1060   33.2590 Cl  0  0  0  0  0  0  0  0  0  0  0  0
   37.6340   24.1890   32.6500 C   0  0  0  0  0  0  0  0  0  0  0  0
   37.6870   22.8510   32.9760 C   0  0  0  0  0  0  0  0  0  0  0  0
   36.6690   21.9900   32.5500 C   0  0  0  0  0  0  0  0  0  0  0  0
   36.5840   20.9260   32.7310 H   0  0  0  0  0  0  0  0  0  0  0  0
   35.5980   22.4770   31.7940 C   0  0  0  0  0  0  0  0  0  0  0  0
   34.7860   21.8550   31.4390 H   0  0  0  0  0  0  0  0  0  0  0  0
   35.5570   23.8180   31.4740 C   0  0  0  0  0  3  0  0  0  0  0  0
   36.5690   24.6500   31.9040 C   0  0  0  0  0  3  0  0  0  0  0  0
  1  6  1  0  0  0  0
  2  3  1  0  0  0  0
  2  8  1  0  0  0  0
  3  9  1  0  0  0  0
  4 10  1  0  0  0  0
  4  3  2  0  0  0  0
  5  4  1  0  0  0  0
  6  5  2  0  0  0  0
  6  7  1  0  0  0  0
  7  2  2  0  0  0  0
 12 13  1  0  0  0  0
 12 11  1  0  0  0  0
 13  1  1  0  0  0  0
 14 15  1  0  0  0  0
 14 13  2  0  0  0  0
 16 14  1  0  0  0  0
 17 16  1  0  0  0  0
 18 16  2  0  0  0  0
 18 19  1  0  0  0  0
 19 12  2  0  0  0  0
M  END
>  <minimizedAffinity>
-4.12839603

$$$$

 OpenBabel03272506413D

 19 20  0  0  0  0  0  0  0  0999 V2000
   39.0620   22.8490   34.2620 S   0  0  0  0  0  0  0  0  0  0  0  0
   35.6870   20.9260   33.4960 C   0  0  0  0  0  0  0  0  0  0  0  0
   35.1770   21.5290   32.3430 C   0  0  0  0  0  0  0  0  0  0  0  0
   35.9090   22.5880   31.7640 C   0  0  0  0  0  0  0  0  0  0  0  0
   37.0730   22.9670   32.3590 N   0  0  0  0  0  0  0  0  0  0  0  0
   37.5340   22.3570   33.4780 C   0  0  0  0  0  0  0  0  0  0  0  0
   36.8540   21.3420   34.0520 N   0  0  0  0  0  0  0  0  0  0  0  0
   35.0830   20.1310   33.8810 H   0  0  0  0  0  0  0  0  0  0  0  0
   34.2520   21.2230   31.8760 H   0  0  0  0  0  0  0  0  0  0  0  0
   35.5650   23.0840   30.8830 H   0  0  0  0  0  0  0  0  0  0  0  0
   37.4970   23.6870   36.9370 Cl  0  0  0  0  0  0  0  0  0  0  0  0
   38.2440   24.9550   36.0240 C   0  0  0  0  0  0  0  0  0  0  0  0
   38.8950   24.5130   34.8920 C   0  0  0  0  0  0  0  0  0  0  0  0
   39.5430   25.4300   34.0570 C   0  0  0  0  0  0  0  0  0  0  0  0
   40.0880   25.2240   33.1440 H   0  0  0  0  0  0  0  0  0  0  0  0
   39.5370   26.7950   34.3640 C   0  0  0  0  0  0  0  0  0  0  0  0
   40.0230   27.5450   33.7530 H   0  0  0  0  0  0  0  0  0  0  0  0
   38.8830   27.2250   35.4990 C   0  0  0  0  0  3  0  0  0  0  0  0
   38.2500   26.3050   36.3080 C   0  0  0  0  0  3  0  0  0  0  0  0
  1 13  1  0  0  0  0
  2  8  1  0  0  0  0
  2  7  1  0  0  0  0
  3  2  2  0  0  0  0
  4  3  1  0  0  0  0
  4  5  2  0  0  0  0
  5  6  1  0  0  0  0
  6  7  2  0  0  0  0
  6  1  1  0  0  0  0
  9  3  1  0  0  0  0
 10  4  1  0  0  0  0
 12 19  1  0  0  0  0
 12 11  1  0  0  0  0
 13 12  2  0  0  0  0
 14 16  2  0  0  0  0
 14 13  1  0  0  0  0
 15 14  1  0  0  0  0
 16 18  1  0  0  0  0
 17 16  1  0  0  0  0
 18 19  2  0  0  0  0
M  END
>  <minimizedAffinity>
-4.09901667

$$$$

 OpenBabel03272506413D

 19 20  0  0  0  0  0  0  0  0999 V2000
   39.0280   25.1210   33.9430 S   0  0  0  0  0  0  0  0  0  0  0  0
   39.8020   22.9260   37.1450 C   0  0  0  0  0  0  0  0  0  0  0  0
   38.7990   23.2520   38.0620 C   0  0  0  0  0  0  0  0  0  0  0  0
   37.8270   24.2010   37.6790 C   0  0  0  0  0  0  0  0  0  0  0  0
   37.9180   24.7490   36.4360 N   0  0  0  0  0  0  0  0  0  0  0  0
   38.9060   24.4060   35.5750 C   0  0  0  0  0  0  0  0  0  0  0  0
   39.8480   23.5020   35.9160 N   0  0  0  0  0  0  0  0  0  0  0  0
   40.5040   22.2000   37.5000 H   0  0  0  0  0  0  0  0  0  0  0  0
   38.7340   22.8120   39.0470 H   0  0  0  0  0  0  0  0  0  0  0  0
   37.0390   24.4870   38.3400 H   0  0  0  0  0  0  0  0  0  0  0  0
   36.9740   27.0130   32.3580 Cl  0  0  0  0  0  0  0  0  0  0  0  0
   36.7310   25.3020   32.2400 C   0  0  0  0  0  0  0  0  0  0  0  0
   37.6540   24.5620   32.9470 C   0  0  0  0  0  0  0  0  0  0  0  0
   37.5770   23.1650   32.9420 C   0  0  0  0  0  0  0  0  0  0  0  0
   38.2300   22.4640   33.4480 H   0  0  0  0  0  0  0  0  0  0  0  0
   36.5710   22.5120   32.2220 C   0  0  0  0  0  0  0  0  0  0  0  0
   36.4680   21.4350   32.1850 H   0  0  0  0  0  0  0  0  0  0  0  0
   35.6540   23.2640   31.5190 C   0  0  0  0  0  3  0  0  0  0  0  0
   35.7460   24.6400   31.5370 C   0  0  0  0  0  3  0  0  0  0  0  0
  1  6  1  0  0  0  0
  2  8  1  0  0  0  0
  2  3  1  0  0  0  0
  3  9  1  0  0  0  0
  4  3  2  0  0  0  0
  4 10  1  0  0  0  0
  5  4  1  0  0  0  0
  6  7  1  0  0  0  0
  6  5  2  0  0  0  0
  7  2  2  0  0  0  0
 12 11  1  0  0  0  0
 12 13  1  0  0  0  0
 13  1  1  0  0  0  0
 14 13  2  0  0  0  0
 14 15  1  0  0  0  0
 16 14  1  0  0  0  0
 17 16  1  0  0  0  0
 18 19  1  0  0  0  0
 18 16  2  0  0  0  0
 19 12  2  0  0  0  0
M  END
>  <minimizedAffinity>
-4.05976486

$$$$

 OpenBabel03272506413D

 19 20  0  0  0  0  0  0  0  0999 V2000
   39.2260   24.4970   33.8860 S   0  0  0  0  0  0  0  0  0  0  0  0
   39.7380   22.8510   37.4510 C   0  0  0  0  0  0  0  0  0  0  0  0
   38.7120   23.3720   38.2440 C   0  0  0  0  0  0  0  0  0  0  0  0
   37.8090   24.2820   37.6540 C   0  0  0  0  0  0  0  0  0  0  0  0
   37.9850   24.6060   36.3440 N   0  0  0  0  0  0  0  0  0  0  0  0
   38.9920   24.0780   35.6070 C   0  0  0  0  0  0  0  0  0  0  0  0
   39.8700   23.2060   36.1460 N   0  0  0  0  0  0  0  0  0  0  0  0
   40.3850   22.1670   37.9600 H   0  0  0  0  0  0  0  0  0  0  0  0
   38.5790   23.1110   39.2840 H   0  0  0  0  0  0  0  0  0  0  0  0
   37.0070   24.7110   38.2140 H   0  0  0  0  0  0  0  0  0  0  0  0
   38.2840   21.4630   33.4270 Cl  0  0  0  0  0  0  0  0  0  0  0  0
   37.3210   22.7110   32.7080 C   0  0  0  0  0  0  0  0  0  0  0  0
   37.7930   23.9830   32.9520 C   0  0  0  0  0  0  0  0  0  0  0  0
   37.1140   25.0900   32.4300 C   0  0  0  0  0  0  0  0  0  0  0  0
   37.3690   26.1360   32.5420 H   0  0  0  0  0  0  0  0  0  0  0  0
   35.9570   24.9150   31.6620 C   0  0  0  0  0  0  0  0  0  0  0  0
   35.3950   25.7360   31.2360 H   0  0  0  0  0  0  0  0  0  0  0  0
   35.4960   23.6370   31.4260 C   0  0  0  0  0  3  0  0  0  0  0  0
   36.1800   22.5600   31.9480 C   0  0  0  0  0  3  0  0  0  0  0  0
  1  6  1  0  0  0  0
  2  8  1  0  0  0  0
  2  3  1  0  0  0  0
  3  9  1  0  0  0  0
  4 10  1  0  0  0  0
  4  3  2  0  0  0  0
  5  4  1  0  0  0  0
  6  7  1  0  0  0  0
  6  5  2  0  0  0  0
  7  2  2  0  0  0  0
 12 13  1  0  0  0  0
 12 11  1  0  0  0  0
 13  1  1  0  0  0  0
 14 15  1  0  0  0  0
 14 13  2  0  0  0  0
 16 14  1  0  0  0  0
 17 16  1  0  0  0  0
 18 16  2  0  0  0  0
 18 19  1  0  0  0  0
 19 12  2  0  0  0  0
M  END
>  <minimizedAffinity>
-4.03248262

$$$$
