
 OpenBabel03272504203D

 27 28  0  0  0  0  0  0  0  0999 V2000
   36.7370   27.7630   34.8970 O   0  0  0  0  0  0  0  0  0  0  0  0
   38.0010   26.9340   34.9680 P   0  0  2  0  0  0  0  0  0  0  0  0
   38.8830   27.4830   36.3300 O   0  0  0  0  0  0  0  0  0  0  0  0
   38.2940   27.6680   37.0890 H   0  0  0  0  0  0  0  0  0  0  0  0
   38.9230   27.1520   33.5780 O   0  0  0  0  0  0  0  0  0  0  0  0
   38.0660   27.3950   32.5370 C   0  0  0  0  0  0  0  0  0  0  0  0
   37.1630   28.0100   32.8220 H   0  0  0  0  0  0  0  0  0  0  0  0
   38.5700   28.0290   31.7550 H   0  0  0  0  0  0  0  0  0  0  0  0
   37.5660   26.1620   31.8830 C   0  0  0  0  0  0  0  0  0  0  0  0
   38.4890   25.3920   31.1940 C   0  0  0  0  0  0  0  0  0  0  0  0
   38.0500   24.2170   30.5640 C   0  0  0  0  0  0  0  0  0  0  0  0
   36.7330   23.9100   30.6720 N   0  0  0  0  0  0  0  0  0  0  0  0
   35.8510   24.6710   31.3450 C   0  0  0  0  0  0  0  0  0  0  0  0
   36.2790   25.7890   31.9450 N   0  0  0  0  0  0  0  0  0  0  0  0
   39.5480   25.6010   31.0830 H   0  0  0  0  0  0  0  0  0  0  0  0
   38.6880   23.5650   30.0130 H   0  0  0  0  0  0  0  0  0  0  0  0
   34.8040   24.4300   31.4340 H   0  0  0  0  0  0  0  0  0  0  0  0
   37.5710   25.3220   35.1960 O   0  0  0  0  0  0  0  0  0  0  0  0
   39.9180   23.8990   34.1240 Cl  0  0  0  0  0  0  0  0  0  0  0  0
   39.3140   23.8810   35.7580 C   0  0  0  0  0  0  0  0  0  0  0  0
   38.1930   24.5830   36.1940 C   0  0  0  0  0  0  0  0  0  0  0  0
   37.7810   24.5090   37.5240 C   0  0  0  0  0  0  0  0  0  0  0  0
   36.9020   25.0820   37.7870 H   0  0  0  0  0  0  0  0  0  0  0  0
   38.5270   23.7210   38.3750 C   0  0  0  0  0  0  0  0  0  0  0  0
   38.1390   23.7180   39.3930 H   0  0  0  0  0  0  0  0  0  0  0  0
   39.6380   23.0220   37.9560 C   0  0  0  0  0  3  0  0  0  0  0  0
   40.0400   23.0980   36.6380 C   0  0  0  0  0  3  0  0  0  0  0  0
  2  1  2  6  0  0  0
  2 18  1  0  0  0  0
  2  3  1  0  0  0  0
  3  4  1  0  0  0  0
  5  2  1  0  0  0  0
  6  7  1  0  0  0  0
  6  5  1  0  0  0  0
  8  6  1  0  0  0  0
  9 14  1  0  0  0  0
  9  6  1  0  0  0  0
 10  9  2  0  0  0  0
 11 12  2  0  0  0  0
 11 10  1  0  0  0  0
 12 13  1  0  0  0  0
 13 17  1  0  0  0  0
 13 14  2  0  0  0  0
 15 10  1  0  0  0  0
 16 11  1  0  0  0  0
 18 21  1  0  0  0  0
 19 20  1  0  0  0  0
 20 21  2  0  0  0  0
 20 27  1  0  0  0  0
 21 22  1  0  0  0  0
 22 23  1  0  0  0  0
 22 24  2  0  0  0  0
 24 25  1  0  0  0  0
 26 24  1  0  0  0  0
 27 26  2  0  0  0  0
M  END
>  <minimizedAffinity>
-4.86080933

$$$$

 OpenBabel03272504203D

 27 28  0  0  0  0  0  0  0  0999 V2000
   36.7440   27.5500   34.9230 O   0  0  0  0  0  0  0  0  0  0  0  0
   37.9690   26.7020   35.1870 P   0  0  2  0  0  0  0  0  0  0  0  0
   38.8980   27.5210   36.3710 O   0  0  0  0  0  0  0  0  0  0  0  0
   38.3300   27.9130   37.0650 H   0  0  0  0  0  0  0  0  0  0  0  0
   38.8780   26.5320   33.7820 O   0  0  0  0  0  0  0  0  0  0  0  0
   38.1030   26.9360   32.7270 C   0  0  0  0  0  0  0  0  0  0  0  0
   37.3450   27.7290   32.9940 H   0  0  0  0  0  0  0  0  0  0  0  0
   38.7370   27.4430   31.9470 H   0  0  0  0  0  0  0  0  0  0  0  0
   37.3650   25.8270   32.0760 C   0  0  0  0  0  0  0  0  0  0  0  0
   38.0920   24.6980   31.7340 C   0  0  0  0  0  0  0  0  0  0  0  0
   37.4250   23.6280   31.1170 C   0  0  0  0  0  0  0  0  0  0  0  0
   36.0940   23.7720   30.8930 N   0  0  0  0  0  0  0  0  0  0  0  0
   35.4050   24.8780   31.2320 C   0  0  0  0  0  0  0  0  0  0  0  0
   36.0500   25.8930   31.8210 N   0  0  0  0  0  0  0  0  0  0  0  0
   39.1530   24.5420   31.8950 H   0  0  0  0  0  0  0  0  0  0  0  0
   37.9030   22.7230   30.8210 H   0  0  0  0  0  0  0  0  0  0  0  0
   34.3480   24.9960   31.0560 H   0  0  0  0  0  0  0  0  0  0  0  0
   37.4690   25.2170   35.8010 O   0  0  0  0  0  0  0  0  0  0  0  0
   37.8590   24.7850   38.6900 Cl  0  0  0  0  0  0  0  0  0  0  0  0
   38.6440   23.9580   37.3720 C   0  0  0  0  0  0  0  0  0  0  0  0
   38.4080   24.2170   36.0240 C   0  0  0  0  0  0  0  0  0  0  0  0
   39.0830   23.5050   35.0350 C   0  0  0  0  0  0  0  0  0  0  0  0
   38.8470   23.7620   34.0110 H   0  0  0  0  0  0  0  0  0  0  0  0
   39.9830   22.5440   35.4470 C   0  0  0  0  0  0  0  0  0  0  0  0
   40.4660   22.0350   34.6140 H   0  0  0  0  0  0  0  0  0  0  0  0
   40.2260   22.2790   36.7780 C   0  0  0  0  0  3  0  0  0  0  0  0
   39.5550   22.9880   37.7520 C   0  0  0  0  0  3  0  0  0  0  0  0
  2  1  2  6  0  0  0
  2 18  1  0  0  0  0
  2  3  1  0  0  0  0
  3  4  1  0  0  0  0
  5  2  1  0  0  0  0
  6  7  1  0  0  0  0
  6  5  1  0  0  0  0
  8  6  1  0  0  0  0
  9  6  1  0  0  0  0
 10 15  1  0  0  0  0
 10  9  2  0  0  0  0
 11 10  1  0  0  0  0
 12 11  2  0  0  0  0
 12 13  1  0  0  0  0
 13 14  2  0  0  0  0
 14  9  1  0  0  0  0
 16 11  1  0  0  0  0
 17 13  1  0  0  0  0
 18 21  1  0  0  0  0
 20 27  1  0  0  0  0
 20 19  1  0  0  0  0
 21 20  2  0  0  0  0
 22 24  2  0  0  0  0
 22 21  1  0  0  0  0
 23 22  1  0  0  0  0
 24 26  1  0  0  0  0
 25 24  1  0  0  0  0
 26 27  2  0  0  0  0
M  END
>  <minimizedAffinity>
-4.80328226

$$$$

 OpenBabel03272504203D

 27 28  0  0  0  0  0  0  0  0999 V2000
   38.9970   24.0690   32.1400 O   0  0  0  0  0  0  0  0  0  0  0  0
   37.7280   23.9330   32.9540 P   0  0  2  0  0  0  0  0  0  0  0  0
   36.4180   24.2230   31.8870 O   0  0  0  0  0  0  0  0  0  0  0  0
   36.5680   23.8080   31.0130 H   0  0  0  0  0  0  0  0  0  0  0  0
   37.7020   25.0710   34.1930 O   0  0  0  0  0  0  0  0  0  0  0  0
   38.9250   25.0480   34.8120 C   0  0  0  0  0  0  0  0  0  0  0  0
   39.7310   24.5340   34.2120 H   0  0  0  0  0  0  0  0  0  0  0  0
   39.3220   26.0940   34.9300 H   0  0  0  0  0  0  0  0  0  0  0  0
   38.8980   24.4060   36.1480 C   0  0  0  0  0  0  0  0  0  0  0  0
   39.8180   23.3980   36.3850 C   0  0  0  0  0  0  0  0  0  0  0  0
   39.8210   22.7690   37.6400 C   0  0  0  0  0  0  0  0  0  0  0  0
   38.9090   23.1960   38.5500 N   0  0  0  0  0  0  0  0  0  0  0  0
   38.0220   24.1760   38.3010 C   0  0  0  0  0  0  0  0  0  0  0  0
   38.0270   24.7710   37.1020 N   0  0  0  0  0  0  0  0  0  0  0  0
   40.5630   23.0280   35.6880 H   0  0  0  0  0  0  0  0  0  0  0  0
   40.4930   21.9870   37.9100 H   0  0  0  0  0  0  0  0  0  0  0  0
   37.2960   24.5180   39.0210 H   0  0  0  0  0  0  0  0  0  0  0  0
   37.6320   22.3580   33.5380 O   0  0  0  0  0  0  0  0  0  0  0  0
   35.7130   20.8910   35.2250 Cl  0  0  0  0  0  0  0  0  0  0  0  0
   36.0400   20.6560   33.5300 C   0  0  0  0  0  0  0  0  0  0  0  0
   36.9670   21.3920   32.7950 C   0  0  0  0  0  0  0  0  0  0  0  0
   37.1630   21.1340   31.4390 C   0  0  0  0  0  0  0  0  0  0  0  0
   37.8990   21.7460   30.9350 H   0  0  0  0  0  0  0  0  0  0  0  0
   36.4070   20.1310   30.8690 C   0  0  0  0  0  0  0  0  0  0  0  0
   36.6220   19.9950   29.8090 H   0  0  0  0  0  0  0  0  0  0  0  0
   35.4880   19.3960   31.5850 C   0  0  0  0  0  3  0  0  0  0  0  0
   35.2980   19.6550   32.9270 C   0  0  0  0  0  3  0  0  0  0  0  0
  2  1  2  6  0  0  0
  2 18  1  0  0  0  0
  2  5  1  0  0  0  0
  3  2  1  0  0  0  0
  4  3  1  0  0  0  0
  5  6  1  0  0  0  0
  6  8  1  0  0  0  0
  6  9  1  0  0  0  0
  7  6  1  0  0  0  0
  9 10  2  0  0  0  0
  9 14  1  0  0  0  0
 10 11  1  0  0  0  0
 11 16  1  0  0  0  0
 11 12  2  0  0  0  0
 13 12  1  0  0  0  0
 13 17  1  0  0  0  0
 14 13  2  0  0  0  0
 15 10  1  0  0  0  0
 20 19  1  0  0  0  0
 21 20  2  0  0  0  0
 21 18  1  0  0  0  0
 22 21  1  0  0  0  0
 23 22  1  0  0  0  0
 24 22  2  0  0  0  0
 24 26  1  0  0  0  0
 25 24  1  0  0  0  0
 26 27  2  0  0  0  0
 27 20  1  0  0  0  0
M  END
>  <minimizedAffinity>
-4.63367224

$$$$

 OpenBabel03272504203D

 27 28  0  0  0  0  0  0  0  0999 V2000
   36.2400   25.5950   32.1330 O   0  0  0  0  0  0  0  0  0  0  0  0
   37.4270   24.9600   31.4420 P   0  0  2  0  0  0  0  0  0  0  0  0
   37.8830   26.0100   30.1660 O   0  0  0  0  0  0  0  0  0  0  0  0
   37.8310   26.9480   30.4370 H   0  0  0  0  0  0  0  0  0  0  0  0
   37.0030   23.4600   30.8090 O   0  0  0  0  0  0  0  0  0  0  0  0
   35.8910   23.0200   31.4770 C   0  0  0  0  0  0  0  0  0  0  0  0
   35.7550   23.4870   32.4960 H   0  0  0  0  0  0  0  0  0  0  0  0
   34.9580   23.3280   30.9280 H   0  0  0  0  0  0  0  0  0  0  0  0
   35.8560   21.5490   31.6620 C   0  0  0  0  0  0  0  0  0  0  0  0
   35.4570   21.0760   32.9020 C   0  0  0  0  0  0  0  0  0  0  0  0
   35.4120   19.6890   33.1120 C   0  0  0  0  0  0  0  0  0  0  0  0
   35.7690   18.8930   32.0730 N   0  0  0  0  0  0  0  0  0  0  0  0
   36.1560   19.3710   30.8760 C   0  0  0  0  0  0  0  0  0  0  0  0
   36.1950   20.6950   30.6840 N   0  0  0  0  0  0  0  0  0  0  0  0
   35.1630   21.6770   33.7560 H   0  0  0  0  0  0  0  0  0  0  0  0
   35.1160   19.2370   34.0300 H   0  0  0  0  0  0  0  0  0  0  0  0
   36.4410   18.7410   30.0480 H   0  0  0  0  0  0  0  0  0  0  0  0
   38.6910   24.8470   32.5470 O   0  0  0  0  0  0  0  0  0  0  0  0
   37.9640   22.9790   34.7060 Cl  0  0  0  0  0  0  0  0  0  0  0  0
   38.2590   24.6920   34.8320 C   0  0  0  0  0  0  0  0  0  0  0  0
   38.6010   25.5150   33.7620 C   0  0  0  0  0  0  0  0  0  0  0  0
   38.8190   26.8780   33.9560 C   0  0  0  0  0  0  0  0  0  0  0  0
   39.0810   27.4530   33.0780 H   0  0  0  0  0  0  0  0  0  0  0  0
   38.6830   27.3650   35.2390 C   0  0  0  0  0  0  0  0  0  0  0  0
   38.8700   28.4370   35.3040 H   0  0  0  0  0  0  0  0  0  0  0  0
   38.3450   26.5610   36.3060 C   0  0  0  0  0  3  0  0  0  0  0  0
   38.1300   25.2130   36.1080 C   0  0  0  0  0  3  0  0  0  0  0  0
  2  1  2  1  0  0  0
  2 18  1  0  0  0  0
  3  4  1  0  0  0  0
  3  2  1  0  0  0  0
  5  2  1  0  0  0  0
  5  6  1  0  0  0  0
  6  9  1  0  0  0  0
  6  7  1  0  0  0  0
  8  6  1  0  0  0  0
  9 10  1  0  0  0  0
 10 11  2  0  0  0  0
 10 15  1  0  0  0  0
 11 16  1  0  0  0  0
 12 11  1  0  0  0  0
 13 12  2  0  0  0  0
 14 13  1  0  0  0  0
 14  9  2  0  0  0  0
 17 13  1  0  0  0  0
 18 21  1  0  0  0  0
 19 20  1  0  0  0  0
 20 27  1  0  0  0  0
 21 22  1  0  0  0  0
 21 20  2  0  0  0  0
 22 24  2  0  0  0  0
 23 22  1  0  0  0  0
 24 25  1  0  0  0  0
 24 26  1  0  0  0  0
 27 26  2  0  0  0  0
M  END
>  <minimizedAffinity>
-4.56536436

$$$$

 OpenBabel03272504203D

 27 28  0  0  0  0  0  0  0  0999 V2000
   35.1750   25.2970   31.0710 O   0  0  0  0  0  0  0  0  0  0  0  0
   36.6290   25.2200   31.4840 P   0  0  2  0  0  0  0  0  0  0  0  0
   37.5240   24.7920   30.0870 O   0  0  0  0  0  0  0  0  0  0  0  0
   37.1930   25.2580   29.2920 H   0  0  0  0  0  0  0  0  0  0  0  0
   36.8400   24.0420   32.6670 O   0  0  0  0  0  0  0  0  0  0  0  0
   37.5570   23.0140   32.1130 C   0  0  0  0  0  0  0  0  0  0  0  0
   37.9040   23.2150   31.0580 H   0  0  0  0  0  0  0  0  0  0  0  0
   38.5210   22.8630   32.6750 H   0  0  0  0  0  0  0  0  0  0  0  0
   36.8240   21.7250   32.0950 C   0  0  0  0  0  0  0  0  0  0  0  0
   35.4410   21.7820   32.1610 C   0  0  0  0  0  0  0  0  0  0  0  0
   34.7150   20.5820   32.1450 C   0  0  0  0  0  0  0  0  0  0  0  0
   35.4250   19.4280   32.0660 N   0  0  0  0  0  0  0  0  0  0  0  0
   36.7690   19.3920   32.0040 C   0  0  0  0  0  0  0  0  0  0  0  0
   37.4530   20.5430   32.0180 N   0  0  0  0  0  0  0  0  0  0  0  0
   34.8360   22.6810   32.2240 H   0  0  0  0  0  0  0  0  0  0  0  0
   33.6510   20.5300   32.1900 H   0  0  0  0  0  0  0  0  0  0  0  0
   37.3370   18.4780   31.9410 H   0  0  0  0  0  0  0  0  0  0  0  0
   37.1160   26.7420   32.0120 O   0  0  0  0  0  0  0  0  0  0  0  0
   40.0480   26.6600   31.7260 Cl  0  0  0  0  0  0  0  0  0  0  0  0
   39.1230   26.8420   33.1930 C   0  0  0  0  0  0  0  0  0  0  0  0
   37.7320   26.8720   33.2500 C   0  0  0  0  0  0  0  0  0  0  0  0
   37.0750   27.0220   34.4710 C   0  0  0  0  0  0  0  0  0  0  0  0
   35.9940   27.0370   34.4360 H   0  0  0  0  0  0  0  0  0  0  0  0
   37.8570   27.1380   35.6010 C   0  0  0  0  0  0  0  0  0  0  0  0
   37.2670   27.2510   36.5100 H   0  0  0  0  0  0  0  0  0  0  0  0
   39.2340   27.1090   35.5570 C   0  0  0  0  0  3  0  0  0  0  0  0
   39.8780   26.9600   34.3460 C   0  0  0  0  0  3  0  0  0  0  0  0
  2  1  2  6  0  0  0
  2 18  1  0  0  0  0
  2  5  1  0  0  0  0
  3  2  1  0  0  0  0
  4  3  1  0  0  0  0
  6  5  1  0  0  0  0
  6  8  1  0  0  0  0
  7  6  1  0  0  0  0
  9  6  1  0  0  0  0
  9 10  1  0  0  0  0
 10 15  1  0  0  0  0
 11 10  2  0  0  0  0
 11 16  1  0  0  0  0
 12 11  1  0  0  0  0
 13 14  1  0  0  0  0
 13 12  2  0  0  0  0
 14  9  2  0  0  0  0
 17 13  1  0  0  0  0
 18 21  1  0  0  0  0
 19 20  1  0  0  0  0
 20 21  2  0  0  0  0
 20 27  1  0  0  0  0
 21 22  1  0  0  0  0
 22 24  2  0  0  0  0
 23 22  1  0  0  0  0
 24 25  1  0  0  0  0
 26 24  1  0  0  0  0
 27 26  2  0  0  0  0
M  END
>  <minimizedAffinity>
-4.55239201

$$$$

 OpenBabel03272504203D

 27 28  0  0  0  0  0  0  0  0999 V2000
   36.2910   25.1180   32.2070 O   0  0  0  0  0  0  0  0  0  0  0  0
   37.7930   25.1850   32.3740 P   0  0  2  0  0  0  0  0  0  0  0  0
   38.4840   24.5540   30.9380 O   0  0  0  0  0  0  0  0  0  0  0  0
   37.9960   24.8520   30.1430 H   0  0  0  0  0  0  0  0  0  0  0  0
   38.2790   24.2510   33.6860 O   0  0  0  0  0  0  0  0  0  0  0  0
   38.3640   25.0730   34.7790 C   0  0  0  0  0  0  0  0  0  0  0  0
   39.1310   25.8940   34.6750 H   0  0  0  0  0  0  0  0  0  0  0  0
   37.4010   25.6380   34.9190 H   0  0  0  0  0  0  0  0  0  0  0  0
   38.6660   24.3500   36.0390 C   0  0  0  0  0  0  0  0  0  0  0  0
   37.8770   24.6400   37.1400 C   0  0  0  0  0  0  0  0  0  0  0  0
   38.1340   23.9740   38.3480 C   0  0  0  0  0  0  0  0  0  0  0  0
   39.1540   23.0790   38.3580 N   0  0  0  0  0  0  0  0  0  0  0  0
   39.9110   22.8110   37.2780 C   0  0  0  0  0  0  0  0  0  0  0  0
   39.6570   23.4500   36.1290 N   0  0  0  0  0  0  0  0  0  0  0  0
   37.0540   25.3470   37.1750 H   0  0  0  0  0  0  0  0  0  0  0  0
   37.5790   24.1330   39.2430 H   0  0  0  0  0  0  0  0  0  0  0  0
   40.7210   22.1000   37.2820 H   0  0  0  0  0  0  0  0  0  0  0  0
   38.2410   26.7980   32.5440 O   0  0  0  0  0  0  0  0  0  0  0  0
   36.3780   28.1850   34.3580 Cl  0  0  0  0  0  0  0  0  0  0  0  0
   36.6310   28.4800   32.6590 C   0  0  0  0  0  0  0  0  0  0  0  0
   37.5340   27.7800   31.8620 C   0  0  0  0  0  0  0  0  0  0  0  0
   37.6700   28.0860   30.5090 C   0  0  0  0  0  0  0  0  0  0  0  0
   38.3920   27.5000   29.9540 H   0  0  0  0  0  0  0  0  0  0  0  0
   36.8810   29.0970   30.0040 C   0  0  0  0  0  0  0  0  0  0  0  0
   37.0490   29.2720   28.9420 H   0  0  0  0  0  0  0  0  0  0  0  0
   35.9840   29.7960   30.7830 C   0  0  0  0  0  3  0  0  0  0  0  0
   35.8530   29.4900   32.1210 C   0  0  0  0  0  3  0  0  0  0  0  0
  2  1  2  6  0  0  0
  2 18  1  0  0  0  0
  2  5  1  0  0  0  0
  3  2  1  0  0  0  0
  4  3  1  0  0  0  0
  5  6  1  0  0  0  0
  6  8  1  0  0  0  0
  6  9  1  0  0  0  0
  7  6  1  0  0  0  0
  9 14  2  0  0  0  0
  9 10  1  0  0  0  0
 10 15  1  0  0  0  0
 10 11  2  0  0  0  0
 11 12  1  0  0  0  0
 11 16  1  0  0  0  0
 13 17  1  0  0  0  0
 13 12  2  0  0  0  0
 14 13  1  0  0  0  0
 20 19  1  0  0  0  0
 21 18  1  0  0  0  0
 21 20  2  0  0  0  0
 22 21  1  0  0  0  0
 23 22  1  0  0  0  0
 24 22  2  0  0  0  0
 24 26  1  0  0  0  0
 25 24  1  0  0  0  0
 26 27  2  0  0  0  0
 27 20  1  0  0  0  0
M  END
>  <minimizedAffinity>
-4.46015549

$$$$

 OpenBabel03272504203D

 27 28  0  0  0  0  0  0  0  0999 V2000
   39.6120   26.1310   34.7000 O   0  0  0  0  0  0  0  0  0  0  0  0
   38.5770   25.3640   33.9060 P   0  0  2  0  0  0  0  0  0  0  0  0
   39.2300   25.1210   32.3400 O   0  0  0  0  0  0  0  0  0  0  0  0
   40.1820   24.8990   32.3780 H   0  0  0  0  0  0  0  0  0  0  0  0
   37.1530   26.2520   33.7870 O   0  0  0  0  0  0  0  0  0  0  0  0
   36.7540   26.2350   32.4760 C   0  0  0  0  0  0  0  0  0  0  0  0
   37.4470   25.6610   31.7950 H   0  0  0  0  0  0  0  0  0  0  0  0
   35.7780   25.6830   32.3720 H   0  0  0  0  0  0  0  0  0  0  0  0
   36.5870   27.5870   31.8910 C   0  0  0  0  0  0  0  0  0  0  0  0
   36.1620   28.5960   32.7410 C   0  0  0  0  0  0  0  0  0  0  0  0
   35.9950   29.8890   32.2210 C   0  0  0  0  0  0  0  0  0  0  0  0
   36.2640   30.0680   30.9030 N   0  0  0  0  0  0  0  0  0  0  0  0
   36.6750   29.0740   30.0930 C   0  0  0  0  0  0  0  0  0  0  0  0
   36.8330   27.8450   30.5980 N   0  0  0  0  0  0  0  0  0  0  0  0
   35.9380   28.4970   33.7970 H   0  0  0  0  0  0  0  0  0  0  0  0
   35.6730   30.7250   32.7990 H   0  0  0  0  0  0  0  0  0  0  0  0
   36.8890   29.2120   29.0450 H   0  0  0  0  0  0  0  0  0  0  0  0
   38.3330   23.8710   34.6440 O   0  0  0  0  0  0  0  0  0  0  0  0
   40.7170   22.2810   35.3310 Cl  0  0  0  0  0  0  0  0  0  0  0  0
   39.5740   23.0180   36.4220 C   0  0  0  0  0  0  0  0  0  0  0  0
   38.4650   23.7590   36.0210 C   0  0  0  0  0  0  0  0  0  0  0  0
   37.6030   24.3130   36.9670 C   0  0  0  0  0  0  0  0  0  0  0  0
   36.7640   24.8760   36.5800 H   0  0  0  0  0  0  0  0  0  0  0  0
   37.8960   24.0960   38.2960 C   0  0  0  0  0  0  0  0  0  0  0  0
   37.1740   24.5610   38.9670 H   0  0  0  0  0  0  0  0  0  0  0  0
   38.9900   23.3640   38.7050 C   0  0  0  0  0  3  0  0  0  0  0  0
   39.8400   22.8180   37.7650 C   0  0  0  0  0  3  0  0  0  0  0  0
  2 18  1  0  0  0  0
  2  1  2  1  0  0  0
  3  4  1  0  0  0  0
  3  2  1  0  0  0  0
  5  2  1  0  0  0  0
  6  5  1  0  0  0  0
  7  6  1  0  0  0  0
  8  6  1  0  0  0  0
  9  6  1  0  0  0  0
  9 10  1  0  0  0  0
 10 15  1  0  0  0  0
 11 10  2  0  0  0  0
 11 16  1  0  0  0  0
 12 11  1  0  0  0  0
 13 14  1  0  0  0  0
 13 12  2  0  0  0  0
 14  9  2  0  0  0  0
 17 13  1  0  0  0  0
 18 21  1  0  0  0  0
 19 20  1  0  0  0  0
 20 27  1  0  0  0  0
 21 20  2  0  0  0  0
 21 22  1  0  0  0  0
 22 24  2  0  0  0  0
 23 22  1  0  0  0  0
 24 26  1  0  0  0  0
 24 25  1  0  0  0  0
 27 26  2  0  0  0  0
M  END
>  <minimizedAffinity>
-4.45851851

$$$$

 OpenBabel03272504203D

 27 28  0  0  0  0  0  0  0  0999 V2000
   35.5430   25.5500   30.9930 O   0  0  0  0  0  0  0  0  0  0  0  0
   36.9570   25.1910   31.3960 P   0  0  2  0  0  0  0  0  0  0  0  0
   37.7200   24.5350   30.0080 O   0  0  0  0  0  0  0  0  0  0  0  0
   37.4770   25.0280   29.1990 H   0  0  0  0  0  0  0  0  0  0  0  0
   36.9430   24.0410   32.6230 O   0  0  0  0  0  0  0  0  0  0  0  0
   37.6770   22.9640   32.1990 C   0  0  0  0  0  0  0  0  0  0  0  0
   38.1480   23.1030   31.1830 H   0  0  0  0  0  0  0  0  0  0  0  0
   38.5640   22.8060   32.8730 H   0  0  0  0  0  0  0  0  0  0  0  0
   36.9000   21.7020   32.1520 C   0  0  0  0  0  0  0  0  0  0  0  0
   35.5190   21.8060   32.2050 C   0  0  0  0  0  0  0  0  0  0  0  0
   34.7520   20.6310   32.1610 C   0  0  0  0  0  0  0  0  0  0  0  0
   35.4230   19.4550   32.0690 N   0  0  0  0  0  0  0  0  0  0  0  0
   36.7660   19.3740   32.0200 C   0  0  0  0  0  0  0  0  0  0  0  0
   37.4890   20.5000   32.0610 N   0  0  0  0  0  0  0  0  0  0  0  0
   34.9440   22.7230   32.2770 H   0  0  0  0  0  0  0  0  0  0  0  0
   33.6870   20.6160   32.1950 H   0  0  0  0  0  0  0  0  0  0  0  0
   37.3020   18.4420   31.9470 H   0  0  0  0  0  0  0  0  0  0  0  0
   37.7560   26.5990   31.8560 O   0  0  0  0  0  0  0  0  0  0  0  0
   35.8970   28.3160   33.3670 Cl  0  0  0  0  0  0  0  0  0  0  0  0
   37.3510   27.5470   33.9470 C   0  0  0  0  0  0  0  0  0  0  0  0
   38.1830   26.7450   33.1690 C   0  0  0  0  0  0  0  0  0  0  0  0
   39.3280   26.1700   33.7180 C   0  0  0  0  0  0  0  0  0  0  0  0
   39.9250   25.5600   33.0540 H   0  0  0  0  0  0  0  0  0  0  0  0
   39.5930   26.4280   35.0470 C   0  0  0  0  0  0  0  0  0  0  0  0
   40.5040   25.9420   35.3960 H   0  0  0  0  0  0  0  0  0  0  0  0
   38.7770   27.2200   35.8260 C   0  0  0  0  0  3  0  0  0  0  0  0
   37.6450   27.7870   35.2770 C   0  0  0  0  0  3  0  0  0  0  0  0
  2  1  2  6  0  0  0
  2 18  1  0  0  0  0
  2  5  1  0  0  0  0
  3  2  1  0  0  0  0
  4  3  1  0  0  0  0
  6  5  1  0  0  0  0
  6  8  1  0  0  0  0
  7  6  1  0  0  0  0
  9  6  1  0  0  0  0
  9 10  1  0  0  0  0
 10 15  1  0  0  0  0
 11 16  1  0  0  0  0
 11 10  2  0  0  0  0
 12 11  1  0  0  0  0
 13 14  1  0  0  0  0
 13 12  2  0  0  0  0
 14  9  2  0  0  0  0
 17 13  1  0  0  0  0
 18 21  1  0  0  0  0
 19 20  1  0  0  0  0
 20 27  1  0  0  0  0
 21 22  1  0  0  0  0
 21 20  2  0  0  0  0
 22 24  2  0  0  0  0
 23 22  1  0  0  0  0
 24 25  1  0  0  0  0
 24 26  1  0  0  0  0
 27 26  2  0  0  0  0
M  END
>  <minimizedAffinity>
-4.45750523

$$$$

 OpenBabel03272504203D

 27 28  0  0  0  0  0  0  0  0999 V2000
   36.2340   23.5890   31.7840 O   0  0  0  0  0  0  0  0  0  0  0  0
   37.6010   23.3780   32.3970 P   0  0  2  0  0  0  0  0  0  0  0  0
   38.4250   22.2490   31.4050 O   0  0  0  0  0  0  0  0  0  0  0  0
   38.2580   22.4170   30.4550 H   0  0  0  0  0  0  0  0  0  0  0  0
   37.4570   22.7550   33.9530 O   0  0  0  0  0  0  0  0  0  0  0  0
   38.6490   22.1650   34.2830 C   0  0  0  0  0  0  0  0  0  0  0  0
   38.6580   21.0450   34.1440 H   0  0  0  0  0  0  0  0  0  0  0  0
   39.4630   22.5150   33.5890 H   0  0  0  0  0  0  0  0  0  0  0  0
   39.0770   22.4360   35.6770 C   0  0  0  0  0  0  0  0  0  0  0  0
   38.2190   23.1840   36.4680 C   0  0  0  0  0  0  0  0  0  0  0  0
   38.5920   23.4590   37.7920 C   0  0  0  0  0  0  0  0  0  0  0  0
   39.7850   22.9690   38.2160 N   0  0  0  0  0  0  0  0  0  0  0  0
   40.6050   22.2450   37.4320 C   0  0  0  0  0  0  0  0  0  0  0  0
   40.2400   21.9860   36.1700 N   0  0  0  0  0  0  0  0  0  0  0  0
   37.2600   23.5940   36.1690 H   0  0  0  0  0  0  0  0  0  0  0  0
   37.9970   24.0250   38.4710 H   0  0  0  0  0  0  0  0  0  0  0  0
   41.5520   21.8530   37.7650 H   0  0  0  0  0  0  0  0  0  0  0  0
   38.4280   24.8440   32.3760 O   0  0  0  0  0  0  0  0  0  0  0  0
   40.9650   25.0390   33.8630 Cl  0  0  0  0  0  0  0  0  0  0  0  0
   39.4650   25.8600   34.2000 C   0  0  0  0  0  0  0  0  0  0  0  0
   38.3010   25.7180   33.4480 C   0  0  0  0  0  0  0  0  0  0  0  0
   37.1440   26.4160   33.7920 C   0  0  0  0  0  0  0  0  0  0  0  0
   36.2800   26.2550   33.1610 H   0  0  0  0  0  0  0  0  0  0  0  0
   37.2060   27.2420   34.8940 C   0  0  0  0  0  0  0  0  0  0  0  0
   36.2630   27.7490   35.0930 H   0  0  0  0  0  0  0  0  0  0  0  0
   38.3520   27.3910   35.6460 C   0  0  0  0  0  3  0  0  0  0  0  0
   39.4940   26.6970   35.3010 C   0  0  0  0  0  3  0  0  0  0  0  0
  2  1  2  6  0  0  0
  2  5  1  0  0  0  0
  3  2  1  0  0  0  0
  4  3  1  0  0  0  0
  5  6  1  0  0  0  0
  6  9  1  0  0  0  0
  7  6  1  0  0  0  0
  8  6  1  0  0  0  0
  9 14  2  0  0  0  0
  9 10  1  0  0  0  0
 10 11  2  0  0  0  0
 11 12  1  0  0  0  0
 11 16  1  0  0  0  0
 13 17  1  0  0  0  0
 13 12  2  0  0  0  0
 14 13  1  0  0  0  0
 15 10  1  0  0  0  0
 18  2  1  0  0  0  0
 18 21  1  0  0  0  0
 19 20  1  0  0  0  0
 20 27  1  0  0  0  0
 21 22  1  0  0  0  0
 21 20  2  0  0  0  0
 22 24  2  0  0  0  0
 23 22  1  0  0  0  0
 24 25  1  0  0  0  0
 24 26  1  0  0  0  0
 27 26  2  0  0  0  0
M  END
>  <minimizedAffinity>
-4.42574692

$$$$
