
 OpenBabel03272504193D

 27 28  0  0  0  0  0  0  0  0999 V2000
   37.2350   29.6780   46.1580 O   0  0  0  0  0  0  0  0  0  0  0  0
   37.2280   30.6530   47.3150 P   0  0  2  0  0  0  0  0  0  0  0  0
   38.2430   29.9950   48.5290 O   0  0  0  0  0  0  0  0  0  0  0  0
   39.0460   29.5900   48.1450 H   0  0  0  0  0  0  0  0  0  0  0  0
   35.6690   30.8290   47.9240 O   0  0  0  0  0  0  0  0  0  0  0  0
   35.3580   29.6920   48.6220 C   0  0  0  0  0  0  0  0  0  0  0  0
   36.1370   28.8790   48.5410 H   0  0  0  0  0  0  0  0  0  0  0  0
   35.3270   29.9080   49.7260 H   0  0  0  0  0  0  0  0  0  0  0  0
   34.0600   29.0940   48.2280 C   0  0  0  0  0  0  0  0  0  0  0  0
   33.5570   29.4350   46.9830 C   0  0  0  0  0  0  0  0  0  0  0  0
   32.3310   28.8860   46.5770 C   0  0  0  0  0  0  0  0  0  0  0  0
   31.7090   28.0480   47.4440 N   0  0  0  0  0  0  0  0  0  0  0  0
   32.2120   27.7290   48.6510 C   0  0  0  0  0  0  0  0  0  0  0  0
   33.3840   28.2560   49.0290 N   0  0  0  0  0  0  0  0  0  0  0  0
   34.0210   30.0990   46.2610 H   0  0  0  0  0  0  0  0  0  0  0  0
   31.8700   29.0910   45.6380 H   0  0  0  0  0  0  0  0  0  0  0  0
   31.7220   27.0630   49.3420 H   0  0  0  0  0  0  0  0  0  0  0  0
   37.8700   32.1160   46.7860 O   0  0  0  0  0  0  0  0  0  0  0  0
   40.1500   33.4230   45.4550 Cl  0  0  0  0  0  0  0  0  0  0  0  0
   39.6550   33.5770   47.1180 C   0  0  0  0  0  0  0  0  0  0  0  0
   38.5600   32.9240   47.6800 C   0  0  0  0  0  0  0  0  0  0  0  0
   38.2370   33.1070   49.0230 C   0  0  0  0  0  0  0  0  0  0  0  0
   37.3740   32.5670   49.3880 H   0  0  0  0  0  0  0  0  0  0  0  0
   39.0420   33.9510   49.7600 C   0  0  0  0  0  0  0  0  0  0  0  0
   38.7210   34.0370   50.7980 H   0  0  0  0  0  0  0  0  0  0  0  0
   40.1280   34.6020   49.2160 C   0  0  0  0  0  3  0  0  0  0  0  0
   40.4420   34.4170   47.8850 C   0  0  0  0  0  3  0  0  0  0  0  0
  2  1  2  6  0  0  0
  2  5  1  0  0  0  0
  2  3  1  0  0  0  0
  4  3  1  0  0  0  0
  5  6  1  0  0  0  0
  6  8  1  0  0  0  0
  7  6  1  0  0  0  0
  9  6  1  0  0  0  0
  9 14  1  0  0  0  0
 10  9  2  0  0  0  0
 11 10  1  0  0  0  0
 11 12  2  0  0  0  0
 12 13  1  0  0  0  0
 13 14  2  0  0  0  0
 13 17  1  0  0  0  0
 15 10  1  0  0  0  0
 16 11  1  0  0  0  0
 18  2  1  0  0  0  0
 18 21  1  0  0  0  0
 19 20  1  0  0  0  0
 20 21  2  0  0  0  0
 20 27  1  0  0  0  0
 21 22  1  0  0  0  0
 22 23  1  0  0  0  0
 22 24  2  0  0  0  0
 24 25  1  0  0  0  0
 26 24  1  0  0  0  0
 27 26  2  0  0  0  0
M  END
>  <minimizedAffinity>
-3.46402836

>  <minimizedRMSD>
3.00454259

$$$$
