
 OpenBabel03272504193D

 27 28  0  0  0  0  0  0  0  0999 V2000
   38.4640   29.8340   45.4310 O   0  0  0  0  0  0  0  0  0  0  0  0
   37.5820   30.6140   46.3820 P   0  0  2  0  0  0  0  0  0  0  0  0
   38.2950   30.4960   47.9360 O   0  0  0  0  0  0  0  0  0  0  0  0
   39.2700   30.5710   47.8900 H   0  0  0  0  0  0  0  0  0  0  0  0
   36.0360   29.9510   46.4240 O   0  0  0  0  0  0  0  0  0  0  0  0
   35.6080   29.7980   45.1310 C   0  0  0  0  0  0  0  0  0  0  0  0
   36.3110   30.2340   44.3620 H   0  0  0  0  0  0  0  0  0  0  0  0
   35.5730   28.7070   44.8570 H   0  0  0  0  0  0  0  0  0  0  0  0
   34.2680   30.3830   44.8800 C   0  0  0  0  0  0  0  0  0  0  0  0
   33.3270   30.2660   45.8890 C   0  0  0  0  0  0  0  0  0  0  0  0
   32.0490   30.8090   45.6860 C   0  0  0  0  0  0  0  0  0  0  0  0
   31.8170   31.4200   44.4970 N   0  0  0  0  0  0  0  0  0  0  0  0
   32.7440   31.5240   43.5270 C   0  0  0  0  0  0  0  0  0  0  0  0
   33.9610   31.0040   43.7310 N   0  0  0  0  0  0  0  0  0  0  0  0
   33.4710   29.7860   46.8520 H   0  0  0  0  0  0  0  0  0  0  0  0
   31.2640   30.7660   46.4060 H   0  0  0  0  0  0  0  0  0  0  0  0
   32.5630   32.0090   42.5820 H   0  0  0  0  0  0  0  0  0  0  0  0
   37.5670   32.2250   45.8970 O   0  0  0  0  0  0  0  0  0  0  0  0
   40.3590   33.1610   45.9920 Cl  0  0  0  0  0  0  0  0  0  0  0  0
   39.3300   33.0150   44.5930 C   0  0  0  0  0  0  0  0  0  0  0  0
   38.0130   32.5620   44.6260 C   0  0  0  0  0  0  0  0  0  0  0  0
   37.2620   32.4780   43.4540 C   0  0  0  0  0  0  0  0  0  0  0  0
   36.2470   32.1180   43.5590 H   0  0  0  0  0  0  0  0  0  0  0  0
   37.8770   32.8580   42.2790 C   0  0  0  0  0  0  0  0  0  0  0  0
   37.2220   32.7610   41.4130 H   0  0  0  0  0  0  0  0  0  0  0  0
   39.1790   33.3070   42.2340 C   0  0  0  0  0  3  0  0  0  0  0  0
   39.9160   33.3890   43.3980 C   0  0  0  0  0  3  0  0  0  0  0  0
  2  1  2  6  0  0  0
  2  5  1  0  0  0  0
  2  3  1  0  0  0  0
  4  3  1  0  0  0  0
  6  5  1  0  0  0  0
  7  6  1  0  0  0  0
  8  6  1  0  0  0  0
  9  6  1  0  0  0  0
  9 10  1  0  0  0  0
 10 15  1  0  0  0  0
 11 10  2  0  0  0  0
 11 16  1  0  0  0  0
 12 11  1  0  0  0  0
 13 14  1  0  0  0  0
 13 12  2  0  0  0  0
 14  9  2  0  0  0  0
 17 13  1  0  0  0  0
 18  2  1  0  0  0  0
 20 21  1  0  0  0  0
 20 19  1  0  0  0  0
 21 18  1  0  0  0  0
 22 23  1  0  0  0  0
 22 21  2  0  0  0  0
 24 22  1  0  0  0  0
 25 24  1  0  0  0  0
 26 24  2  0  0  0  0
 26 27  1  0  0  0  0
 27 20  2  0  0  0  0
M  END
>  <minimizedAffinity>
-3.29923654

>  <minimizedRMSD>
6.20414877

$$$$
