
 OpenBabel03272504193D

 27 28  0  0  0  0  0  0  0  0999 V2000
   39.0890   32.7280   48.1820 O   0  0  0  0  0  0  0  0  0  0  0  0
   38.7040   31.8080   47.0440 P   0  0  2  0  0  0  0  0  0  0  0  0
   37.5230   32.6310   46.1140 O   0  0  0  0  0  0  0  0  0  0  0  0
   37.7400   33.5800   46.0170 H   0  0  0  0  0  0  0  0  0  0  0  0
   38.0500   30.3780   47.6410 O   0  0  0  0  0  0  0  0  0  0  0  0
   36.6960   30.5530   47.7640 C   0  0  0  0  0  0  0  0  0  0  0  0
   36.3590   31.6210   47.6230 H   0  0  0  0  0  0  0  0  0  0  0  0
   36.1550   30.0040   46.9440 H   0  0  0  0  0  0  0  0  0  0  0  0
   36.1570   30.0930   49.0660 C   0  0  0  0  0  0  0  0  0  0  0  0
   37.0660   29.8980   50.0940 C   0  0  0  0  0  0  0  0  0  0  0  0
   36.5900   29.4630   51.3410 C   0  0  0  0  0  0  0  0  0  0  0  0
   35.2530   29.2580   51.4580 N   0  0  0  0  0  0  0  0  0  0  0  0
   34.3860   29.4520   50.4470 C   0  0  0  0  0  0  0  0  0  0  0  0
   34.8490   29.8680   49.2620 N   0  0  0  0  0  0  0  0  0  0  0  0
   38.1390   30.0500   50.0430 H   0  0  0  0  0  0  0  0  0  0  0  0
   37.2140   29.2890   52.1870 H   0  0  0  0  0  0  0  0  0  0  0  0
   33.3240   29.2910   50.5360 H   0  0  0  0  0  0  0  0  0  0  0  0
   40.0670   31.5340   46.0940 O   0  0  0  0  0  0  0  0  0  0  0  0
   40.3020   33.7990   44.2250 Cl  0  0  0  0  0  0  0  0  0  0  0  0
   40.0110   32.1240   43.8400 C   0  0  0  0  0  0  0  0  0  0  0  0
   39.9120   31.1030   44.7830 C   0  0  0  0  0  0  0  0  0  0  0  0
   39.6770   29.7890   44.3840 C   0  0  0  0  0  0  0  0  0  0  0  0
   39.6130   29.0520   45.1710 H   0  0  0  0  0  0  0  0  0  0  0  0
   39.5500   29.5500   43.0310 C   0  0  0  0  0  0  0  0  0  0  0  0
   39.3680   28.5010   42.8050 H   0  0  0  0  0  0  0  0  0  0  0  0
   39.6460   30.5520   42.0880 C   0  0  0  0  0  3  0  0  0  0  0  0
   39.8780   31.8520   42.4910 C   0  0  0  0  0  3  0  0  0  0  0  0
  2  5  1  0  0  0  0
  2  1  2  1  0  0  0
  3  2  1  0  0  0  0
  4  3  1  0  0  0  0
  5  6  1  0  0  0  0
  6  9  1  0  0  0  0
  7  6  1  0  0  0  0
  8  6  1  0  0  0  0
  9 14  2  0  0  0  0
  9 10  1  0  0  0  0
 10 11  2  0  0  0  0
 11 12  1  0  0  0  0
 11 16  1  0  0  0  0
 13 17  1  0  0  0  0
 13 12  2  0  0  0  0
 14 13  1  0  0  0  0
 15 10  1  0  0  0  0
 18  2  1  0  0  0  0
 20 19  1  0  0  0  0
 20 21  1  0  0  0  0
 21 18  1  0  0  0  0
 22 21  2  0  0  0  0
 22 23  1  0  0  0  0
 24 22  1  0  0  0  0
 25 24  1  0  0  0  0
 26 27  1  0  0  0  0
 26 24  2  0  0  0  0
 27 20  2  0  0  0  0
M  END
>  <minimizedAffinity>
-4.71117115

>  <minimizedRMSD>
6.20207977

$$$$
