
 OpenBabel03262520223D

 23 24  0  0  0  0  0  0  0  0999 V2000
   40.6830   23.8830   35.5190 C   0  0  0  0  0  0  0  0  0  0  0  0
   39.4900   24.2300   36.1740 C   0  0  0  0  0  0  0  0  0  0  0  0
   39.0740   23.4860   37.2700 C   0  0  0  0  0  0  0  0  0  0  0  0
   39.8700   22.4520   37.6370 N   0  0  0  0  0  0  0  0  0  0  0  0
   41.0120   22.1230   37.0070 C   0  0  0  0  0  0  0  0  0  0  0  0
   41.3990   22.8530   35.9510 N   0  0  0  0  0  0  0  0  0  0  0  0
   41.7110   20.9990   37.5460 N   0  0  0  0  0  0  0  0  0  0  0  0
   41.0540   24.4280   34.6610 H   0  0  0  0  0  0  0  0  0  0  0  0
   42.2090   20.4060   36.8290 H   0  0  0  0  0  0  0  0  0  0  0  0
   41.7050   20.8160   38.5710 H   0  0  0  0  0  0  0  0  0  0  0  0
   37.9940   23.4320   33.7790 Cl  0  0  0  0  0  0  0  0  0  0  0  0
   38.0470   25.0310   34.4880 C   0  0  0  0  0  0  0  0  0  0  0  0
   38.7750   25.3690   35.6290 C   0  0  0  0  0  0  0  0  0  0  0  0
   38.7300   26.6900   36.0910 C   0  0  0  0  0  0  0  0  0  0  0  0
   39.3250   26.8360   36.9730 H   0  0  0  0  0  0  0  0  0  0  0  0
   37.9680   27.6110   35.4040 C   0  0  0  0  0  0  0  0  0  0  0  0
   38.0140   28.5990   35.8610 H   0  0  0  0  0  0  0  0  0  0  0  0
   37.2510   27.2710   34.2760 C   0  0  0  0  0  3  0  0  0  0  0  0
   37.2900   25.9710   33.8140 C   0  0  0  0  0  3  0  0  0  0  0  0
   37.8140   23.8630   37.9560 C   0  0  0  0  0  0  0  0  0  0  0  0
   38.0740   24.9490   38.7120 F   0  0  0  0  0  0  0  0  0  0  0  0
   36.7870   24.0900   37.0760 F   0  0  0  0  0  0  0  0  0  0  0  0
   37.3950   22.8300   38.8220 F   0  0  0  0  0  0  0  0  0  0  0  0
  1  6  2  0  0  0  0
  1  2  1  0  0  0  0
  2  3  2  0  0  0  0
  3  4  1  0  0  0  0
  3 20  1  0  0  0  0
  5  7  1  0  0  0  0
  5  4  2  0  0  0  0
  6  5  1  0  0  0  0
  7 10  1  0  0  0  0
  8  1  1  0  0  0  0
  9  7  1  0  0  0  0
 11 12  1  0  0  0  0
 12 13  1  0  0  0  0
 13 14  2  0  0  0  0
 13  2  1  0  0  0  0
 14 15  1  0  0  0  0
 16 17  1  0  0  0  0
 16 14  1  0  0  0  0
 18 16  2  0  0  0  0
 19 18  1  0  0  0  0
 19 12  2  0  0  0  0
 20 21  1  0  0  0  0
 20 23  1  0  0  0  0
 22 20  1  0  0  0  0
M  END
>  <minimizedAffinity>
-5.8211503

$$$$

 OpenBabel03262520223D

 23 24  0  0  0  0  0  0  0  0999 V2000
   37.8160   24.0100   33.4630 C   0  0  0  0  0  0  0  0  0  0  0  0
   38.3030   24.7800   34.5320 C   0  0  0  0  0  0  0  0  0  0  0  0
   37.9900   26.1320   34.5950 C   0  0  0  0  0  0  0  0  0  0  0  0
   37.2180   26.6220   33.5940 N   0  0  0  0  0  0  0  0  0  0  0  0
   36.7540   25.8800   32.5720 C   0  0  0  0  0  0  0  0  0  0  0  0
   37.0660   24.5770   32.5280 N   0  0  0  0  0  0  0  0  0  0  0  0
   35.9560   26.5800   31.6160 N   0  0  0  0  0  0  0  0  0  0  0  0
   38.0280   22.9540   33.3660 H   0  0  0  0  0  0  0  0  0  0  0  0
   36.0650   26.2440   30.6210 H   0  0  0  0  0  0  0  0  0  0  0  0
   35.3290   27.3560   31.9180 H   0  0  0  0  0  0  0  0  0  0  0  0
   41.1110   24.7690   33.6820 Cl  0  0  0  0  0  0  0  0  0  0  0  0
   40.4620   24.0490   35.1390 C   0  0  0  0  0  0  0  0  0  0  0  0
   39.1160   24.0750   35.5050 C   0  0  0  0  0  0  0  0  0  0  0  0
   38.7300   23.4570   36.7010 C   0  0  0  0  0  0  0  0  0  0  0  0
   37.6750   23.5390   36.8820 H   0  0  0  0  0  0  0  0  0  0  0  0
   39.6920   22.8440   37.4760 C   0  0  0  0  0  0  0  0  0  0  0  0
   39.2680   22.4030   38.3770 H   0  0  0  0  0  0  0  0  0  0  0  0
   41.0210   22.8210   37.1080 C   0  0  0  0  0  3  0  0  0  0  0  0
   41.4100   23.4280   35.9300 C   0  0  0  0  0  3  0  0  0  0  0  0
   38.5070   26.9360   35.7290 C   0  0  0  0  0  0  0  0  0  0  0  0
   37.9370   28.1560   35.6530 F   0  0  0  0  0  0  0  0  0  0  0  0
   38.2730   26.3400   36.9420 F   0  0  0  0  0  0  0  0  0  0  0  0
   39.9030   27.1100   35.6160 F   0  0  0  0  0  0  0  0  0  0  0  0
  1  2  1  0  0  0  0
  2  3  2  0  0  0  0
  2 13  1  0  0  0  0
  3 20  1  0  0  0  0
  4  3  1  0  0  0  0
  5  4  2  0  0  0  0
  6  5  1  0  0  0  0
  6  1  2  0  0  0  0
  7 10  1  0  0  0  0
  7  5  1  0  0  0  0
  8  1  1  0  0  0  0
  9  7  1  0  0  0  0
 11 12  1  0  0  0  0
 12 13  2  0  0  0  0
 12 19  1  0  0  0  0
 13 14  1  0  0  0  0
 14 15  1  0  0  0  0
 14 16  2  0  0  0  0
 16 17  1  0  0  0  0
 18 16  1  0  0  0  0
 19 18  2  0  0  0  0
 20 22  1  0  0  0  0
 21 20  1  0  0  0  0
 23 20  1  0  0  0  0
M  END
>  <minimizedAffinity>
-5.15945387

$$$$

 OpenBabel03262520223D

 23 24  0  0  0  0  0  0  0  0999 V2000
   38.0500   22.7610   33.9810 C   0  0  0  0  0  0  0  0  0  0  0  0
   38.5040   23.3580   35.1680 C   0  0  0  0  0  0  0  0  0  0  0  0
   37.9490   22.9680   36.3810 C   0  0  0  0  0  0  0  0  0  0  0  0
   36.9840   22.0160   36.3270 N   0  0  0  0  0  0  0  0  0  0  0  0
   36.5530   21.4480   35.1870 C   0  0  0  0  0  0  0  0  0  0  0  0
   37.1000   21.8360   34.0260 N   0  0  0  0  0  0  0  0  0  0  0  0
   35.5290   20.4630   35.3380 N   0  0  0  0  0  0  0  0  0  0  0  0
   38.4470   23.0260   33.0100 H   0  0  0  0  0  0  0  0  0  0  0  0
   34.8250   20.4360   34.5530 H   0  0  0  0  0  0  0  0  0  0  0  0
   35.5140   19.8420   36.1740 H   0  0  0  0  0  0  0  0  0  0  0  0
   37.3030   25.9990   34.7360 Cl  0  0  0  0  0  0  0  0  0  0  0  0
   39.0120   25.6340   34.8150 C   0  0  0  0  0  0  0  0  0  0  0  0
   39.5420   24.3600   35.0200 C   0  0  0  0  0  0  0  0  0  0  0  0
   40.9330   24.2060   35.0610 C   0  0  0  0  0  0  0  0  0  0  0  0
   41.2280   23.1870   35.2240 H   0  0  0  0  0  0  0  0  0  0  0  0
   41.7320   25.3190   34.8970 C   0  0  0  0  0  0  0  0  0  0  0  0
   42.7910   25.0700   34.9490 H   0  0  0  0  0  0  0  0  0  0  0  0
   41.2020   26.5760   34.6930 C   0  0  0  0  0  3  0  0  0  0  0  0
   39.8310   26.7350   34.6510 C   0  0  0  0  0  3  0  0  0  0  0  0
   38.4360   23.6020   37.6300 C   0  0  0  0  0  0  0  0  0  0  0  0
   39.7410   23.2850   37.7620 F   0  0  0  0  0  0  0  0  0  0  0  0
   38.2400   24.9590   37.6380 F   0  0  0  0  0  0  0  0  0  0  0  0
   37.7550   23.0780   38.7490 F   0  0  0  0  0  0  0  0  0  0  0  0
  1  6  2  0  0  0  0
  1  2  1  0  0  0  0
  2  3  2  0  0  0  0
  3 20  1  0  0  0  0
  4  3  1  0  0  0  0
  5  7  1  0  0  0  0
  5  4  2  0  0  0  0
  6  5  1  0  0  0  0
  7 10  1  0  0  0  0
  8  1  1  0  0  0  0
  9  7  1  0  0  0  0
 11 12  1  0  0  0  0
 12 13  1  0  0  0  0
 13 14  2  0  0  0  0
 13  2  1  0  0  0  0
 14 15  1  0  0  0  0
 16 17  1  0  0  0  0
 16 14  1  0  0  0  0
 18 16  2  0  0  0  0
 19 18  1  0  0  0  0
 19 12  2  0  0  0  0
 20 22  1  0  0  0  0
 20 21  1  0  0  0  0
 20 23  1  0  0  0  0
M  END
>  <minimizedAffinity>
-5.15885115

$$$$

 OpenBabel03262520223D

 23 24  0  0  0  0  0  0  0  0999 V2000
   38.1530   23.9180   36.5900 C   0  0  0  0  0  0  0  0  0  0  0  0
   38.9180   24.7460   35.7520 C   0  0  0  0  0  0  0  0  0  0  0  0
   40.2720   24.4850   35.5900 C   0  0  0  0  0  0  0  0  0  0  0  0
   40.7700   23.4240   36.2710 N   0  0  0  0  0  0  0  0  0  0  0  0
   40.0340   22.6330   37.0730 C   0  0  0  0  0  0  0  0  0  0  0  0
   38.7280   22.9000   37.2170 N   0  0  0  0  0  0  0  0  0  0  0  0
   40.7420   21.5640   37.7030 N   0  0  0  0  0  0  0  0  0  0  0  0
   37.0950   24.0740   36.7520 H   0  0  0  0  0  0  0  0  0  0  0  0
   40.4060   21.3260   38.6750 H   0  0  0  0  0  0  0  0  0  0  0  0
   41.5230   21.0850   37.2080 H   0  0  0  0  0  0  0  0  0  0  0  0
   37.8310   23.8620   33.1740 Cl  0  0  0  0  0  0  0  0  0  0  0  0
   37.6680   25.4550   33.8810 C   0  0  0  0  0  0  0  0  0  0  0  0
   38.2040   25.8340   35.1110 C   0  0  0  0  0  0  0  0  0  0  0  0
   37.9990   27.1440   35.5620 C   0  0  0  0  0  0  0  0  0  0  0  0
   38.4530   27.3250   36.5170 H   0  0  0  0  0  0  0  0  0  0  0  0
   37.2750   28.0140   34.7730 C   0  0  0  0  0  0  0  0  0  0  0  0
   37.1850   28.9990   35.2310 H   0  0  0  0  0  0  0  0  0  0  0  0
   36.7480   27.6330   33.5570 C   0  0  0  0  0  3  0  0  0  0  0  0
   36.9460   26.3430   33.1060 C   0  0  0  0  0  3  0  0  0  0  0  0
   41.0700   25.3640   34.7010 C   0  0  0  0  0  0  0  0  0  0  0  0
   42.3650   25.0090   34.8370 F   0  0  0  0  0  0  0  0  0  0  0  0
   40.6600   25.2970   33.3940 F   0  0  0  0  0  0  0  0  0  0  0  0
   40.9540   26.7110   35.1030 F   0  0  0  0  0  0  0  0  0  0  0  0
  1  8  1  0  0  0  0
  1  6  1  0  0  0  0
  2  1  2  0  0  0  0
  3  2  1  0  0  0  0
  3  4  2  0  0  0  0
  4  5  1  0  0  0  0
  5  6  2  0  0  0  0
  5  7  1  0  0  0  0
  7  9  1  0  0  0  0
 10  7  1  0  0  0  0
 11 12  1  0  0  0  0
 12 13  1  0  0  0  0
 13 14  2  0  0  0  0
 13  2  1  0  0  0  0
 14 15  1  0  0  0  0
 16 17  1  0  0  0  0
 16 14  1  0  0  0  0
 18 16  2  0  0  0  0
 19 18  1  0  0  0  0
 19 12  2  0  0  0  0
 20 21  1  0  0  0  0
 20 23  1  0  0  0  0
 20  3  1  0  0  0  0
 22 20  1  0  0  0  0
M  END
>  <minimizedAffinity>
-5.14805841

$$$$

 OpenBabel03262520223D

 23 24  0  0  0  0  0  0  0  0999 V2000
   37.7820   23.6450   33.6320 C   0  0  0  0  0  0  0  0  0  0  0  0
   38.5320   24.5230   34.4320 C   0  0  0  0  0  0  0  0  0  0  0  0
   39.1500   25.6190   33.8440 C   0  0  0  0  0  0  0  0  0  0  0  0
   38.9790   25.7650   32.5060 N   0  0  0  0  0  0  0  0  0  0  0  0
   38.2590   24.9210   31.7450 C   0  0  0  0  0  0  0  0  0  0  0  0
   37.6700   23.8680   32.3300 N   0  0  0  0  0  0  0  0  0  0  0  0
   38.1980   25.2460   30.3550 N   0  0  0  0  0  0  0  0  0  0  0  0
   37.2800   22.7770   34.0380 H   0  0  0  0  0  0  0  0  0  0  0  0
   38.1710   24.4110   29.7090 H   0  0  0  0  0  0  0  0  0  0  0  0
   38.1830   26.2400   30.0460 H   0  0  0  0  0  0  0  0  0  0  0  0
   40.7050   22.6130   34.9230 Cl  0  0  0  0  0  0  0  0  0  0  0  0
   39.6240   23.2910   36.1210 C   0  0  0  0  0  0  0  0  0  0  0  0
   38.6000   24.1960   35.8440 C   0  0  0  0  0  0  0  0  0  0  0  0
   37.8060   24.6610   36.8990 C   0  0  0  0  0  0  0  0  0  0  0  0
   37.0520   25.3510   36.5710 H   0  0  0  0  0  0  0  0  0  0  0  0
   38.0630   24.2070   38.1760 C   0  0  0  0  0  0  0  0  0  0  0  0
   37.3800   24.6410   38.9060 H   0  0  0  0  0  0  0  0  0  0  0  0
   39.0770   23.3120   38.4440 C   0  0  0  0  0  3  0  0  0  0  0  0
   39.8640   22.8490   37.4090 C   0  0  0  0  0  3  0  0  0  0  0  0
   39.9380   26.5410   34.6960 C   0  0  0  0  0  0  0  0  0  0  0  0
   40.4210   27.5160   33.8990 F   0  0  0  0  0  0  0  0  0  0  0  0
   39.2010   27.0520   35.7340 F   0  0  0  0  0  0  0  0  0  0  0  0
   41.0420   25.8690   35.2630 F   0  0  0  0  0  0  0  0  0  0  0  0
  1  8  1  0  0  0  0
  1  2  1  0  0  0  0
  2 13  1  0  0  0  0
  3  2  2  0  0  0  0
  3 20  1  0  0  0  0
  4  3  1  0  0  0  0
  5  6  1  0  0  0  0
  5  4  2  0  0  0  0
  6  1  2  0  0  0  0
  7  5  1  0  0  0  0
  9  7  1  0  0  0  0
 10  7  1  0  0  0  0
 11 12  1  0  0  0  0
 12 19  1  0  0  0  0
 13 12  2  0  0  0  0
 13 14  1  0  0  0  0
 14 16  2  0  0  0  0
 15 14  1  0  0  0  0
 16 18  1  0  0  0  0
 16 17  1  0  0  0  0
 19 18  2  0  0  0  0
 20 23  1  0  0  0  0
 20 22  1  0  0  0  0
 21 20  1  0  0  0  0
M  END
>  <minimizedAffinity>
-5.10959387

$$$$

 OpenBabel03262520223D

 23 24  0  0  0  0  0  0  0  0999 V2000
   38.3170   23.7880   33.3240 C   0  0  0  0  0  0  0  0  0  0  0  0
   38.7760   24.6060   34.3700 C   0  0  0  0  0  0  0  0  0  0  0  0
   38.2550   25.8860   34.5120 C   0  0  0  0  0  0  0  0  0  0  0  0
   37.3180   26.2620   33.6060 N   0  0  0  0  0  0  0  0  0  0  0  0
   36.8820   25.4750   32.6060 C   0  0  0  0  0  0  0  0  0  0  0  0
   37.3970   24.2420   32.4850 N   0  0  0  0  0  0  0  0  0  0  0  0
   35.8910   26.0530   31.7550 N   0  0  0  0  0  0  0  0  0  0  0  0
   38.6880   22.7840   33.1680 H   0  0  0  0  0  0  0  0  0  0  0  0
   35.9540   25.7600   30.7430 H   0  0  0  0  0  0  0  0  0  0  0  0
   35.1790   26.7070   32.1430 H   0  0  0  0  0  0  0  0  0  0  0  0
   37.5000   23.0560   36.5100 Cl  0  0  0  0  0  0  0  0  0  0  0  0
   39.2190   23.2760   36.2680 C   0  0  0  0  0  0  0  0  0  0  0  0
   39.7850   24.0250   35.2360 C   0  0  0  0  0  0  0  0  0  0  0  0
   41.1800   24.1200   35.1570 C   0  0  0  0  0  0  0  0  0  0  0  0
   41.5030   24.7180   34.3270 H   0  0  0  0  0  0  0  0  0  0  0  0
   41.9460   23.4710   36.1020 C   0  0  0  0  0  0  0  0  0  0  0  0
   43.0120   23.6200   35.9330 H   0  0  0  0  0  0  0  0  0  0  0  0
   41.3810   22.7320   37.1200 C   0  0  0  0  0  3  0  0  0  0  0  0
   40.0060   22.6330   37.2050 C   0  0  0  0  0  3  0  0  0  0  0  0
   38.7430   26.7400   35.6210 C   0  0  0  0  0  0  0  0  0  0  0  0
   38.4130   26.1290   36.7780 F   0  0  0  0  0  0  0  0  0  0  0  0
   40.0900   26.9820   35.5410 F   0  0  0  0  0  0  0  0  0  0  0  0
   38.0940   27.9940   35.6020 F   0  0  0  0  0  0  0  0  0  0  0  0
  1  2  1  0  0  0  0
  2  3  2  0  0  0  0
  2 13  1  0  0  0  0
  3 20  1  0  0  0  0
  4  3  1  0  0  0  0
  5  4  2  0  0  0  0
  6  5  1  0  0  0  0
  6  1  2  0  0  0  0
  7 10  1  0  0  0  0
  7  5  1  0  0  0  0
  8  1  1  0  0  0  0
  9  7  1  0  0  0  0
 12 11  1  0  0  0  0
 12 19  1  0  0  0  0
 13 12  2  0  0  0  0
 14 13  1  0  0  0  0
 14 16  2  0  0  0  0
 15 14  1  0  0  0  0
 16 18  1  0  0  0  0
 17 16  1  0  0  0  0
 18 19  2  0  0  0  0
 20 21  1  0  0  0  0
 22 20  1  0  0  0  0
 23 20  1  0  0  0  0
M  END
>  <minimizedAffinity>
-5.02519226

$$$$

 OpenBabel03262520223D

 23 24  0  0  0  0  0  0  0  0999 V2000
   38.4270   23.0350   34.9390 C   0  0  0  0  0  0  0  0  0  0  0  0
   38.3260   24.4300   34.8050 C   0  0  0  0  0  0  0  0  0  0  0  0
   38.3160   25.2240   35.9450 C   0  0  0  0  0  0  0  0  0  0  0  0
   38.4060   24.5780   37.1340 N   0  0  0  0  0  0  0  0  0  0  0  0
   38.5020   23.2420   37.2570 C   0  0  0  0  0  0  0  0  0  0  0  0
   38.5100   22.4910   36.1460 N   0  0  0  0  0  0  0  0  0  0  0  0
   38.5870   22.7510   38.5960 N   0  0  0  0  0  0  0  0  0  0  0  0
   38.4400   22.3700   34.0860 H   0  0  0  0  0  0  0  0  0  0  0  0
   38.1120   21.8220   38.7550 H   0  0  0  0  0  0  0  0  0  0  0  0
   39.0870   23.2990   39.3270 H   0  0  0  0  0  0  0  0  0  0  0  0
   41.0130   24.7810   33.6800 Cl  0  0  0  0  0  0  0  0  0  0  0  0
   39.4950   25.1120   32.8730 C   0  0  0  0  0  0  0  0  0  0  0  0
   38.2370   24.9330   33.4470 C   0  0  0  0  0  0  0  0  0  0  0  0
   37.1000   25.2380   32.6890 C   0  0  0  0  0  0  0  0  0  0  0  0
   36.1890   25.0620   33.2290 H   0  0  0  0  0  0  0  0  0  0  0  0
   37.2630   25.7050   31.4020 C   0  0  0  0  0  0  0  0  0  0  0  0
   36.3070   25.9040   30.9180 H   0  0  0  0  0  0  0  0  0  0  0  0
   38.5100   25.8800   30.8400 C   0  0  0  0  0  3  0  0  0  0  0  0
   39.6360   25.5820   31.5810 C   0  0  0  0  0  3  0  0  0  0  0  0
   38.2120   26.6950   35.7930 C   0  0  0  0  0  0  0  0  0  0  0  0
   38.2450   27.2330   37.0290 F   0  0  0  0  0  0  0  0  0  0  0  0
   39.1980   27.2090   34.9890 F   0  0  0  0  0  0  0  0  0  0  0  0
   36.9760   27.0460   35.2080 F   0  0  0  0  0  0  0  0  0  0  0  0
  1  6  1  0  0  0  0
  2  1  2  0  0  0  0
  2  3  1  0  0  0  0
  3  4  2  0  0  0  0
  4  5  1  0  0  0  0
  5  7  1  0  0  0  0
  6  5  2  0  0  0  0
  7  9  1  0  0  0  0
  7 10  1  0  0  0  0
  8  1  1  0  0  0  0
 12 13  1  0  0  0  0
 12 11  1  0  0  0  0
 13  2  1  0  0  0  0
 14 15  1  0  0  0  0
 14 13  2  0  0  0  0
 16 14  1  0  0  0  0
 17 16  1  0  0  0  0
 18 16  2  0  0  0  0
 18 19  1  0  0  0  0
 19 12  2  0  0  0  0
 20  3  1  0  0  0  0
 20 21  1  0  0  0  0
 22 20  1  0  0  0  0
 23 20  1  0  0  0  0
M  END
>  <minimizedAffinity>
-4.92052317

$$$$

 OpenBabel03262520223D

 23 24  0  0  0  0  0  0  0  0999 V2000
   38.6640   23.5750   33.9890 C   0  0  0  0  0  0  0  0  0  0  0  0
   38.7850   24.9420   34.2890 C   0  0  0  0  0  0  0  0  0  0  0  0
   38.4060   25.4000   35.5440 C   0  0  0  0  0  0  0  0  0  0  0  0
   37.9340   24.4700   36.4110 N   0  0  0  0  0  0  0  0  0  0  0  0
   37.8190   23.1610   36.1190 C   0  0  0  0  0  0  0  0  0  0  0  0
   38.1900   22.7370   34.9020 N   0  0  0  0  0  0  0  0  0  0  0  0
   37.3000   22.3400   37.1660 N   0  0  0  0  0  0  0  0  0  0  0  0
   38.9450   23.1640   33.0290 H   0  0  0  0  0  0  0  0  0  0  0  0
   36.6980   21.5370   36.8380 H   0  0  0  0  0  0  0  0  0  0  0  0
   37.5200   22.5530   38.1620 H   0  0  0  0  0  0  0  0  0  0  0  0
   36.6060   25.8470   32.5460 Cl  0  0  0  0  0  0  0  0  0  0  0  0
   38.3040   26.2360   32.3760 C   0  0  0  0  0  0  0  0  0  0  0  0
   39.3100   25.7810   33.2280 C   0  0  0  0  0  0  0  0  0  0  0  0
   40.6320   26.1680   32.9770 C   0  0  0  0  0  0  0  0  0  0  0  0
   41.3210   25.7610   33.6930 H   0  0  0  0  0  0  0  0  0  0  0  0
   40.8940   26.9840   31.8970 C   0  0  0  0  0  0  0  0  0  0  0  0
   41.9550   27.2140   31.8090 H   0  0  0  0  0  0  0  0  0  0  0  0
   39.8940   27.4310   31.0580 C   0  0  0  0  0  3  0  0  0  0  0  0
   38.5880   27.0530   31.2990 C   0  0  0  0  0  3  0  0  0  0  0  0
   38.5400   26.8440   35.8510 C   0  0  0  0  0  0  0  0  0  0  0  0
   38.2300   27.0120   37.1530 F   0  0  0  0  0  0  0  0  0  0  0  0
   39.7900   27.3260   35.5610 F   0  0  0  0  0  0  0  0  0  0  0  0
   37.6190   27.5990   35.0930 F   0  0  0  0  0  0  0  0  0  0  0  0
  1  2  2  0  0  0  0
  1  6  1  0  0  0  0
  2  3  1  0  0  0  0
  3 20  1  0  0  0  0
  3  4  2  0  0  0  0
  5  4  1  0  0  0  0
  5  7  1  0  0  0  0
  6  5  2  0  0  0  0
  7 10  1  0  0  0  0
  8  1  1  0  0  0  0
  9  7  1  0  0  0  0
 12 11  1  0  0  0  0
 12 13  1  0  0  0  0
 13  2  1  0  0  0  0
 14 13  2  0  0  0  0
 14 15  1  0  0  0  0
 16 14  1  0  0  0  0
 17 16  1  0  0  0  0
 18 19  1  0  0  0  0
 18 16  2  0  0  0  0
 19 12  2  0  0  0  0
 20 21  1  0  0  0  0
 22 20  1  0  0  0  0
 23 20  1  0  0  0  0
M  END
>  <minimizedAffinity>
-4.7752142

$$$$

 OpenBabel03262520223D

 23 24  0  0  0  0  0  0  0  0999 V2000
   38.1570   25.1650   36.4370 C   0  0  0  0  0  0  0  0  0  0  0  0
   39.3200   24.7710   35.7550 C   0  0  0  0  0  0  0  0  0  0  0  0
   40.0260   23.6610   36.1990 C   0  0  0  0  0  0  0  0  0  0  0  0
   39.5290   23.0220   37.2860 N   0  0  0  0  0  0  0  0  0  0  0  0
   38.4140   23.4030   37.9370 C   0  0  0  0  0  0  0  0  0  0  0  0
   37.7450   24.4770   37.4940 N   0  0  0  0  0  0  0  0  0  0  0  0
   38.0520   22.6000   39.0610 N   0  0  0  0  0  0  0  0  0  0  0  0
   37.5690   26.0210   36.1350 H   0  0  0  0  0  0  0  0  0  0  0  0
   37.6080   23.1320   39.8580 H   0  0  0  0  0  0  0  0  0  0  0  0
   38.2310   21.5730   39.0560 H   0  0  0  0  0  0  0  0  0  0  0  0
   37.8880   23.8680   33.3590 Cl  0  0  0  0  0  0  0  0  0  0  0  0
   39.0310   25.1900   33.4510 C   0  0  0  0  0  0  0  0  0  0  0  0
   39.6930   25.5850   34.6130 C   0  0  0  0  0  0  0  0  0  0  0  0
   40.5860   26.6620   34.5480 C   0  0  0  0  0  0  0  0  0  0  0  0
   41.0360   26.8790   35.4980 H   0  0  0  0  0  0  0  0  0  0  0  0
   40.7810   27.2940   33.3380 C   0  0  0  0  0  0  0  0  0  0  0  0
   41.4950   28.1130   33.4170 H   0  0  0  0  0  0  0  0  0  0  0  0
   40.1230   26.8980   32.1920 C   0  0  0  0  0  3  0  0  0  0  0  0
   39.2420   25.8370   32.2480 C   0  0  0  0  0  3  0  0  0  0  0  0
   41.2510   23.2510   35.4700 C   0  0  0  0  0  0  0  0  0  0  0  0
   41.7400   22.1540   36.0840 F   0  0  0  0  0  0  0  0  0  0  0  0
   41.0160   23.0260   34.1380 F   0  0  0  0  0  0  0  0  0  0  0  0
   42.2360   24.2590   35.5530 F   0  0  0  0  0  0  0  0  0  0  0  0
  1  6  1  0  0  0  0
  2  3  1  0  0  0  0
  2  1  2  0  0  0  0
  3  4  2  0  0  0  0
  4  5  1  0  0  0  0
  5  7  1  0  0  0  0
  6  5  2  0  0  0  0
  7  9  1  0  0  0  0
  8  1  1  0  0  0  0
 10  7  1  0  0  0  0
 11 12  1  0  0  0  0
 12 13  1  0  0  0  0
 13  2  1  0  0  0  0
 14 13  2  0  0  0  0
 14 15  1  0  0  0  0
 16 17  1  0  0  0  0
 16 14  1  0  0  0  0
 18 19  1  0  0  0  0
 18 16  2  0  0  0  0
 19 12  2  0  0  0  0
 20 23  1  0  0  0  0
 20 21  1  0  0  0  0
 20  3  1  0  0  0  0
 22 20  1  0  0  0  0
M  END
>  <minimizedAffinity>
-4.74134922

$$$$
