
 OpenBabel03272506453D

 32 34  0  0  1  0  0  0  0  0999 V2000
   37.9570   24.7890   32.4440 C   0  0  2  0  0  0  0  0  0  0  0  0
   37.6110   23.8400   31.3190 C   0  0  1  0  0  0  0  0  0  0  0  0
   38.3630   22.7030   31.4890 O   0  0  0  0  0  0  0  0  0  0  0  0
   39.0050   22.7510   32.7060 C   0  0  0  0  0  0  0  0  0  0  0  0
   38.2350   23.7800   33.5510 C   0  0  1  0  0  0  0  0  0  0  0  0
   38.8560   25.4030   32.2280 H   0  0  0  0  0  0  0  0  0  0  0  0
   37.6700   24.3090   30.3260 H   0  0  0  0  0  0  0  0  0  0  0  0
   39.0390   21.7690   33.2200 H   0  0  0  0  0  0  0  0  0  0  0  0
   40.0140   23.1930   32.5560 H   0  0  0  0  0  0  0  0  0  0  0  0
   37.2690   23.3660   33.8370 H   0  0  0  0  0  0  0  0  0  0  0  0
   36.8650   25.6010   32.7610 O   0  0  0  0  0  0  0  0  0  0  0  0
   36.1950   25.0460   33.2680 H   0  0  0  0  0  0  0  0  0  0  0  0
   35.8540   23.3710   31.5420 S   0  0  0  0  0  0  0  0  0  0  0  0
   35.5300   19.9230   33.4680 C   0  0  0  0  0  0  0  0  0  0  0  0
   35.6440   18.9420   32.4900 C   0  0  0  0  0  0  0  0  0  0  0  0
   35.8290   19.3640   31.1740 C   0  0  0  0  0  0  0  0  0  0  0  0
   35.8880   20.6990   30.9190 N   0  0  0  0  0  0  0  0  0  0  0  0
   35.7740   21.6190   31.8980 C   0  0  0  0  0  0  0  0  0  0  0  0
   35.5930   21.2440   33.1820 N   0  0  0  0  0  0  0  0  0  0  0  0
   35.3830   19.6180   34.5120 H   0  0  0  0  0  0  0  0  0  0  0  0
   35.5960   17.8950   32.7020 H   0  0  0  0  0  0  0  0  0  0  0  0
   35.9260   18.6670   30.3580 H   0  0  0  0  0  0  0  0  0  0  0  0
   39.0460   24.2900   34.5340 O   0  0  0  0  0  0  0  0  0  0  0  0
   41.1210   22.5030   35.5160 Cl  0  0  0  0  0  0  0  0  0  0  0  0
   39.7880   23.2350   36.4110 C   0  0  0  0  0  0  0  0  0  0  0  0
   38.8220   24.0890   35.8680 C   0  0  0  0  0  0  0  0  0  0  0  0
   37.8490   24.5730   36.7070 C   0  0  0  0  0  0  0  0  0  0  0  0
   37.1520   25.2210   36.2010 H   0  0  0  0  0  0  0  0  0  0  0  0
   37.8410   24.2160   38.0340 C   0  0  0  0  0  0  0  0  0  0  0  0
   37.0210   24.6640   38.5950 H   0  0  0  0  0  0  0  0  0  0  0  0
   38.7750   23.3800   38.5960 C   0  0  0  0  0  3  0  0  0  0  0  0
   39.7710   22.8780   37.7620 C   0  0  0  0  0  3  0  0  0  0  0  0
  1  6  1  6  0  0  0
  1 11  1  0  0  0  0
  1  5  1  0  0  0  0
  2  7  1  6  0  0  0
  2  3  1  0  0  0  0
  2 13  1  0  0  0  0
  2  1  1  0  0  0  0
  3  4  1  0  0  0  0
  4  8  1  0  0  0  0
  4  5  1  0  0  0  0
  5 10  1  1  0  0  0
  5 23  1  0  0  0  0
  9  4  1  0  0  0  0
 11 12  1  0  0  0  0
 13 18  1  0  0  0  0
 14 20  1  0  0  0  0
 15 21  1  0  0  0  0
 15 14  2  0  0  0  0
 16 15  1  0  0  0  0
 17 16  2  0  0  0  0
 17 18  1  0  0  0  0
 18 19  2  0  0  0  0
 19 14  1  0  0  0  0
 22 16  1  0  0  0  0
 23 26  1  0  0  0  0
 24 25  1  0  0  0  0
 25 32  1  0  0  0  0
 26 25  2  0  0  0  0
 26 27  1  0  0  0  0
 27 29  2  0  0  0  0
 28 27  1  0  0  0  0
 29 30  1  0  0  0  0
 29 31  1  0  0  0  0
 32 31  2  0  0  0  0
M  END
>  <minimizedAffinity>
-5.23381948

$$$$

 OpenBabel03272506453D

 32 34  0  0  1  0  0  0  0  0999 V2000
   36.5610   28.9920   32.1040 C   0  0  2  0  0  0  0  0  0  0  0  0
   37.0530   27.5650   32.0300 C   0  0  1  0  0  0  0  0  0  0  0  0
   37.1520   27.0930   33.3150 O   0  0  0  0  0  0  0  0  0  0  0  0
   36.5940   28.0020   34.1860 C   0  0  0  0  0  0  0  0  0  0  0  0
   35.6710   28.8900   33.3360 C   0  0  1  0  0  0  0  0  0  0  0  0
   37.3810   29.7230   32.2630 H   0  0  0  0  0  0  0  0  0  0  0  0
   37.9510   27.4500   31.4060 H   0  0  0  0  0  0  0  0  0  0  0  0
   36.0280   27.5240   35.0110 H   0  0  0  0  0  0  0  0  0  0  0  0
   37.3960   28.6790   34.5520 H   0  0  0  0  0  0  0  0  0  0  0  0
   34.7940   28.3200   33.0340 H   0  0  0  0  0  0  0  0  0  0  0  0
   35.8160   29.3200   30.9680 O   0  0  0  0  0  0  0  0  0  0  0  0
   34.9170   28.8740   31.0400 H   0  0  0  0  0  0  0  0  0  0  0  0
   35.7430   26.5950   31.1930 S   0  0  0  0  0  0  0  0  0  0  0  0
   37.8790   23.2950   30.7020 C   0  0  0  0  0  0  0  0  0  0  0  0
   37.0450   22.2530   31.0900 C   0  0  0  0  0  0  0  0  0  0  0  0
   35.7610   22.5850   31.5250 C   0  0  0  0  0  0  0  0  0  0  0  0
   35.3980   23.8960   31.5450 N   0  0  0  0  0  0  0  0  0  0  0  0
   36.2400   24.8770   31.1590 C   0  0  0  0  0  0  0  0  0  0  0  0
   37.4880   24.5890   30.7340 N   0  0  0  0  0  0  0  0  0  0  0  0
   38.8950   23.0610   30.3560 H   0  0  0  0  0  0  0  0  0  0  0  0
   37.3410   21.2260   31.0700 H   0  0  0  0  0  0  0  0  0  0  0  0
   35.0540   21.8370   31.8420 H   0  0  0  0  0  0  0  0  0  0  0  0
   35.4840   30.1040   33.9500 O   0  0  0  0  0  0  0  0  0  0  0  0
   36.4020   32.2300   35.7100 Cl  0  0  0  0  0  0  0  0  0  0  0  0
   34.8730   31.3510   35.7550 C   0  0  0  0  0  0  0  0  0  0  0  0
   34.4980   30.3330   34.8700 C   0  0  0  0  0  0  0  0  0  0  0  0
   33.2680   29.7510   35.0460 C   0  0  0  0  0  0  0  0  0  0  0  0
   33.0680   28.9810   34.3180 H   0  0  0  0  0  0  0  0  0  0  0  0
   32.4450   30.1670   36.0640 C   0  0  0  0  0  0  0  0  0  0  0  0
   31.4980   29.6290   36.1000 H   0  0  0  0  0  0  0  0  0  0  0  0
   32.7850   31.1620   36.9490 C   0  0  0  0  0  3  0  0  0  0  0  0
   34.0280   31.7670   36.7880 C   0  0  0  0  0  3  0  0  0  0  0  0
  1  6  1  1  0  0  0
  1  5  1  0  0  0  0
  2  7  1  6  0  0  0
  2  1  1  0  0  0  0
  2  3  1  0  0  0  0
  3  4  1  0  0  0  0
  4  9  1  0  0  0  0
  4  8  1  0  0  0  0
  5 10  1  6  0  0  0
  5 23  1  0  0  0  0
  5  4  1  0  0  0  0
 11 12  1  0  0  0  0
 11  1  1  0  0  0  0
 13  2  1  0  0  0  0
 14 19  2  0  0  0  0
 14 15  1  0  0  0  0
 15 16  2  0  0  0  0
 16 17  1  0  0  0  0
 16 22  1  0  0  0  0
 18 13  1  0  0  0  0
 18 17  2  0  0  0  0
 19 18  1  0  0  0  0
 20 14  1  0  0  0  0
 21 15  1  0  0  0  0
 23 26  1  0  0  0  0
 24 25  1  0  0  0  0
 25 32  1  0  0  0  0
 26 27  1  0  0  0  0
 26 25  2  0  0  0  0
 27 29  2  0  0  0  0
 28 27  1  0  0  0  0
 29 30  1  0  0  0  0
 29 31  1  0  0  0  0
 32 31  2  0  0  0  0
M  END
>  <minimizedAffinity>
-5.08116531

$$$$

 OpenBabel03272506453D

 32 34  0  0  1  0  0  0  0  0999 V2000
   37.5070   27.6400   33.0820 C   0  0  2  0  0  0  0  0  0  0  0  0
   38.4350   26.8060   33.9360 C   0  0  1  0  0  0  0  0  0  0  0  0
   38.4390   27.3490   35.1970 O   0  0  0  0  0  0  0  0  0  0  0  0
   37.4680   28.3210   35.2850 C   0  0  0  0  0  0  0  0  0  0  0  0
   36.4840   28.0410   34.1370 C   0  0  1  0  0  0  0  0  0  0  0  0
   38.0060   28.5320   32.6490 H   0  0  0  0  0  0  0  0  0  0  0  0
   39.4220   26.6530   33.4760 H   0  0  0  0  0  0  0  0  0  0  0  0
   36.9410   28.3230   36.2610 H   0  0  0  0  0  0  0  0  0  0  0  0
   37.9270   29.3030   35.0430 H   0  0  0  0  0  0  0  0  0  0  0  0
   35.9070   27.1450   34.3620 H   0  0  0  0  0  0  0  0  0  0  0  0
   36.9220   26.8620   32.0800 O   0  0  0  0  0  0  0  0  0  0  0  0
   36.2160   26.2810   32.5020 H   0  0  0  0  0  0  0  0  0  0  0  0
   37.6840   25.1390   34.0630 S   0  0  0  0  0  0  0  0  0  0  0  0
   39.8620   23.0970   36.6680 C   0  0  0  0  0  0  0  0  0  0  0  0
   39.1690   23.1760   37.8700 C   0  0  0  0  0  0  0  0  0  0  0  0
   37.9740   23.8940   37.8790 C   0  0  0  0  0  0  0  0  0  0  0  0
   37.5530   24.4730   36.7210 N   0  0  0  0  0  0  0  0  0  0  0  0
   38.2550   24.3710   35.5750 C   0  0  0  0  0  0  0  0  0  0  0  0
   39.4160   23.6840   35.5340 N   0  0  0  0  0  0  0  0  0  0  0  0
   40.8060   22.5380   36.6340 H   0  0  0  0  0  0  0  0  0  0  0  0
   39.5100   22.7170   38.7740 H   0  0  0  0  0  0  0  0  0  0  0  0
   37.3780   24.0030   38.7690 H   0  0  0  0  0  0  0  0  0  0  0  0
   35.8070   29.1880   33.8020 O   0  0  0  0  0  0  0  0  0  0  0  0
   32.9000   29.0800   33.8530 Cl  0  0  0  0  0  0  0  0  0  0  0  0
   33.9780   30.1020   34.8040 C   0  0  0  0  0  0  0  0  0  0  0  0
   35.3750   30.0990   34.7260 C   0  0  0  0  0  0  0  0  0  0  0  0
   36.0660   30.9610   35.5410 C   0  0  0  0  0  0  0  0  0  0  0  0
   37.1340   30.8870   35.4100 H   0  0  0  0  0  0  0  0  0  0  0  0
   35.3890   31.7930   36.3990 C   0  0  0  0  0  0  0  0  0  0  0  0
   36.0470   32.4280   36.9920 H   0  0  0  0  0  0  0  0  0  0  0  0
   34.0190   31.8190   36.4990 C   0  0  0  0  0  3  0  0  0  0  0  0
   33.2990   30.9520   35.6820 C   0  0  0  0  0  3  0  0  0  0  0  0
  1  6  1  6  0  0  0
  1  2  1  0  0  0  0
  1  5  1  0  0  0  0
  2  7  1  6  0  0  0
  2 13  1  0  0  0  0
  2  3  1  0  0  0  0
  3  4  1  0  0  0  0
  4  8  1  0  0  0  0
  5 10  1  1  0  0  0
  5  4  1  0  0  0  0
  9  4  1  0  0  0  0
 11 12  1  0  0  0  0
 11  1  1  0  0  0  0
 13 18  1  0  0  0  0
 14 15  1  0  0  0  0
 15 16  2  0  0  0  0
 15 21  1  0  0  0  0
 16 22  1  0  0  0  0
 17 16  1  0  0  0  0
 18 17  2  0  0  0  0
 19 18  1  0  0  0  0
 19 14  2  0  0  0  0
 20 14  1  0  0  0  0
 23  5  1  0  0  0  0
 23 26  1  0  0  0  0
 24 25  1  0  0  0  0
 25 32  1  0  0  0  0
 26 25  2  0  0  0  0
 26 27  1  0  0  0  0
 27 29  2  0  0  0  0
 28 27  1  0  0  0  0
 29 31  1  0  0  0  0
 29 30  1  0  0  0  0
 32 31  2  0  0  0  0
M  END
>  <minimizedAffinity>
-4.9085474

$$$$

 OpenBabel03272506453D

 32 34  0  0  1  0  0  0  0  0999 V2000
   37.0780   25.2130   30.8170 C   0  0  2  0  0  0  0  0  0  0  0  0
   37.2050   23.7100   30.9180 C   0  0  1  0  0  0  0  0  0  0  0  0
   38.1500   23.4360   31.8750 O   0  0  0  0  0  0  0  0  0  0  0  0
   38.4970   24.5980   32.5270 C   0  0  0  0  0  0  0  0  0  0  0  0
   37.3500   25.5880   32.2680 C   0  0  1  0  0  0  0  0  0  0  0  0
   37.8330   25.6640   30.1400 H   0  0  0  0  0  0  0  0  0  0  0  0
   37.3550   23.2240   29.9420 H   0  0  0  0  0  0  0  0  0  0  0  0
   38.6540   24.4560   33.6160 H   0  0  0  0  0  0  0  0  0  0  0  0
   39.3830   25.0370   32.0190 H   0  0  0  0  0  0  0  0  0  0  0  0
   36.4700   25.2820   32.8340 H   0  0  0  0  0  0  0  0  0  0  0  0
   35.7850   25.5770   30.4340 O   0  0  0  0  0  0  0  0  0  0  0  0
   35.1740   25.4520   31.2250 H   0  0  0  0  0  0  0  0  0  0  0  0
   35.6000   23.0830   31.5410 S   0  0  0  0  0  0  0  0  0  0  0  0
   35.4790   19.4460   33.1100 C   0  0  0  0  0  0  0  0  0  0  0  0
   35.8920   18.5920   32.0940 C   0  0  0  0  0  0  0  0  0  0  0  0
   36.2230   19.1650   30.8660 C   0  0  0  0  0  0  0  0  0  0  0  0
   36.1250   20.5150   30.7280 N   0  0  0  0  0  0  0  0  0  0  0  0
   35.7210   21.3090   31.7410 C   0  0  0  0  0  0  0  0  0  0  0  0
   35.3930   20.7850   32.9410 N   0  0  0  0  0  0  0  0  0  0  0  0
   35.2120   19.0210   34.0860 H   0  0  0  0  0  0  0  0  0  0  0  0
   35.9640   17.5320   32.2130 H   0  0  0  0  0  0  0  0  0  0  0  0
   36.5510   18.5730   30.0280 H   0  0  0  0  0  0  0  0  0  0  0  0
   37.7980   26.8790   32.4010 O   0  0  0  0  0  0  0  0  0  0  0  0
   37.3190   28.7510   30.2270 Cl  0  0  0  0  0  0  0  0  0  0  0  0
   36.7500   28.8370   31.8950 C   0  0  0  0  0  0  0  0  0  0  0  0
   37.0230   27.8930   32.8920 C   0  0  0  0  0  0  0  0  0  0  0  0
   36.5000   28.1120   34.1430 C   0  0  0  0  0  0  0  0  0  0  0  0
   36.7620   27.3340   34.8420 H   0  0  0  0  0  0  0  0  0  0  0  0
   35.7380   29.2280   34.3880 C   0  0  0  0  0  0  0  0  0  0  0  0
   35.3820   29.2890   35.4160 H   0  0  0  0  0  0  0  0  0  0  0  0
   35.4540   30.1720   33.4310 C   0  0  0  0  0  3  0  0  0  0  0  0
   35.9730   29.9690   32.1550 C   0  0  0  0  0  3  0  0  0  0  0  0
  1  6  1  6  0  0  0
  1  2  1  0  0  0  0
  1  5  1  0  0  0  0
  2  7  1  6  0  0  0
  2 13  1  0  0  0  0
  2  3  1  0  0  0  0
  3  4  1  0  0  0  0
  4  8  1  0  0  0  0
  5 23  1  0  0  0  0
  5  4  1  0  0  0  0
  5 10  1  1  0  0  0
  9  4  1  0  0  0  0
 11  1  1  0  0  0  0
 11 12  1  0  0  0  0
 13 18  1  0  0  0  0
 14 20  1  0  0  0  0
 15 21  1  0  0  0  0
 15 14  2  0  0  0  0
 16 15  1  0  0  0  0
 17 16  2  0  0  0  0
 17 18  1  0  0  0  0
 18 19  2  0  0  0  0
 19 14  1  0  0  0  0
 22 16  1  0  0  0  0
 23 26  1  0  0  0  0
 24 25  1  0  0  0  0
 25 32  2  0  0  0  0
 25 26  1  0  0  0  0
 26 27  2  0  0  0  0
 27 29  1  0  0  0  0
 27 28  1  0  0  0  0
 29 30  1  0  0  0  0
 31 29  2  0  0  0  0
 32 31  1  0  0  0  0
M  END
>  <minimizedAffinity>
-4.89511395

$$$$

 OpenBabel03272506453D

 32 34  0  0  1  0  0  0  0  0999 V2000
   36.3400   29.2070   31.8400 C   0  0  2  0  0  0  0  0  0  0  0  0
   36.8610   27.8270   32.1690 C   0  0  1  0  0  0  0  0  0  0  0  0
   36.5870   27.5850   33.4930 O   0  0  0  0  0  0  0  0  0  0  0  0
   35.7790   28.5840   33.9880 C   0  0  0  0  0  0  0  0  0  0  0  0
   35.1290   29.2490   32.7630 C   0  0  1  0  0  0  0  0  0  0  0  0
   37.0630   30.0110   32.0910 H   0  0  0  0  0  0  0  0  0  0  0  0
   37.9050   27.6750   31.8600 H   0  0  0  0  0  0  0  0  0  0  0  0
   35.0040   28.2120   34.6880 H   0  0  0  0  0  0  0  0  0  0  0  0
   36.4240   29.3690   34.4380 H   0  0  0  0  0  0  0  0  0  0  0  0
   34.3910   28.5740   32.3310 H   0  0  0  0  0  0  0  0  0  0  0  0
   35.9570   29.2850   30.4980 O   0  0  0  0  0  0  0  0  0  0  0  0
   35.0850   28.7940   30.3900 H   0  0  0  0  0  0  0  0  0  0  0  0
   35.8750   26.6390   31.1830 S   0  0  0  0  0  0  0  0  0  0  0  0
   37.8100   23.5540   32.7450 C   0  0  0  0  0  0  0  0  0  0  0  0
   37.0030   22.4490   32.4990 C   0  0  0  0  0  0  0  0  0  0  0  0
   35.8050   22.6660   31.8190 C   0  0  0  0  0  0  0  0  0  0  0  0
   35.4920   23.9340   31.4360 N   0  0  0  0  0  0  0  0  0  0  0  0
   36.3040   24.9790   31.6950 C   0  0  0  0  0  0  0  0  0  0  0  0
   37.4700   24.8020   32.3510 N   0  0  0  0  0  0  0  0  0  0  0  0
   38.7580   23.4110   33.2790 H   0  0  0  0  0  0  0  0  0  0  0  0
   37.2590   21.4570   32.8050 H   0  0  0  0  0  0  0  0  0  0  0  0
   35.1240   21.8630   31.5890 H   0  0  0  0  0  0  0  0  0  0  0  0
   34.7450   30.5320   33.0670 O   0  0  0  0  0  0  0  0  0  0  0  0
   32.1170   30.1980   34.2690 Cl  0  0  0  0  0  0  0  0  0  0  0  0
   33.5630   30.9220   34.9740 C   0  0  0  0  0  0  0  0  0  0  0  0
   34.8000   31.0500   34.3310 C   0  0  0  0  0  0  0  0  0  0  0  0
   35.8260   31.6400   35.0260 C   0  0  0  0  0  0  0  0  0  0  0  0
   36.7370   31.6930   34.4510 H   0  0  0  0  0  0  0  0  0  0  0  0
   35.6250   32.0870   36.3090 C   0  0  0  0  0  0  0  0  0  0  0  0
   36.5140   32.5360   36.7530 H   0  0  0  0  0  0  0  0  0  0  0  0
   34.4240   31.9770   36.9660 C   0  0  0  0  0  3  0  0  0  0  0  0
   33.3690   31.3800   36.2800 C   0  0  0  0  0  3  0  0  0  0  0  0
  1  6  1  1  0  0  0
  1  2  1  0  0  0  0
  1  5  1  0  0  0  0
  2  7  1  6  0  0  0
  2  3  1  0  0  0  0
  3  4  1  0  0  0  0
  4  9  1  0  0  0  0
  4  8  1  0  0  0  0
  5 10  1  6  0  0  0
  5 23  1  0  0  0  0
  5  4  1  0  0  0  0
 11  1  1  0  0  0  0
 12 11  1  0  0  0  0
 13 18  1  0  0  0  0
 13  2  1  0  0  0  0
 14 20  1  0  0  0  0
 15 14  1  0  0  0  0
 15 21  1  0  0  0  0
 16 15  2  0  0  0  0
 17 18  2  0  0  0  0
 17 16  1  0  0  0  0
 18 19  1  0  0  0  0
 19 14  2  0  0  0  0
 22 16  1  0  0  0  0
 23 26  1  0  0  0  0
 24 25  1  0  0  0  0
 25 32  1  0  0  0  0
 26 25  2  0  0  0  0
 26 27  1  0  0  0  0
 27 29  2  0  0  0  0
 28 27  1  0  0  0  0
 29 30  1  0  0  0  0
 29 31  1  0  0  0  0
 32 31  2  0  0  0  0
M  END
>  <minimizedAffinity>
-4.8661027

$$$$

 OpenBabel03272506453D

 32 34  0  0  1  0  0  0  0  0999 V2000
   36.9230   28.1410   32.8030 C   0  0  2  0  0  0  0  0  0  0  0  0
   36.1700   29.3550   32.3080 C   0  0  1  0  0  0  0  0  0  0  0  0
   35.9910   29.2080   30.9540 O   0  0  0  0  0  0  0  0  0  0  0  0
   36.3800   27.9450   30.5710 C   0  0  0  0  0  0  0  0  0  0  0  0
   36.3670   27.0910   31.8490 C   0  0  1  0  0  0  0  0  0  0  0  0
   38.0230   28.2420   32.6910 H   0  0  0  0  0  0  0  0  0  0  0  0
   36.6210   30.3040   32.6330 H   0  0  0  0  0  0  0  0  0  0  0  0
   35.7210   27.5020   29.7970 H   0  0  0  0  0  0  0  0  0  0  0  0
   37.4460   27.9830   30.2560 H   0  0  0  0  0  0  0  0  0  0  0  0
   35.3380   26.9110   32.1570 H   0  0  0  0  0  0  0  0  0  0  0  0
   36.5820   27.8530   34.1270 O   0  0  0  0  0  0  0  0  0  0  0  0
   35.6640   27.4410   34.1350 H   0  0  0  0  0  0  0  0  0  0  0  0
   34.5120   29.3030   33.0850 S   0  0  0  0  0  0  0  0  0  0  0  0
   35.7680   31.5950   36.0640 C   0  0  0  0  0  0  0  0  0  0  0  0
   34.6320   31.8890   36.8080 C   0  0  0  0  0  0  0  0  0  0  0  0
   33.4190   31.3560   36.3700 C   0  0  0  0  0  0  0  0  0  0  0  0
   33.4130   30.5830   35.2490 N   0  0  0  0  0  0  0  0  0  0  0  0
   34.5400   30.3220   34.5560 C   0  0  0  0  0  0  0  0  0  0  0  0
   35.7280   30.8230   34.9540 N   0  0  0  0  0  0  0  0  0  0  0  0
   36.7340   32.0030   36.3860 H   0  0  0  0  0  0  0  0  0  0  0  0
   34.6480   32.4970   37.6870 H   0  0  0  0  0  0  0  0  0  0  0  0
   32.4930   31.5360   36.8900 H   0  0  0  0  0  0  0  0  0  0  0  0
   37.2070   26.0140   31.7090 O   0  0  0  0  0  0  0  0  0  0  0  0
   38.9010   24.7030   33.6770 Cl  0  0  0  0  0  0  0  0  0  0  0  0
   37.5600   24.0220   32.7550 C   0  0  0  0  0  0  0  0  0  0  0  0
   36.7850   24.7180   31.8200 C   0  0  0  0  0  0  0  0  0  0  0  0
   35.7750   24.0350   31.1890 C   0  0  0  0  0  0  0  0  0  0  0  0
   35.2350   24.6520   30.4880 H   0  0  0  0  0  0  0  0  0  0  0  0
   35.5480   22.7120   31.4800 C   0  0  0  0  0  0  0  0  0  0  0  0
   34.7200   22.2830   30.9150 H   0  0  0  0  0  0  0  0  0  0  0  0
   36.2900   22.0020   32.3920 C   0  0  0  0  0  3  0  0  0  0  0  0
   37.3200   22.6750   33.0440 C   0  0  0  0  0  3  0  0  0  0  0  0
  1  6  1  6  0  0  0
  1 11  1  0  0  0  0
  2  7  1  1  0  0  0
  2  1  1  0  0  0  0
  2 13  1  0  0  0  0
  3  2  1  0  0  0  0
  4  3  1  0  0  0  0
  4  5  1  0  0  0  0
  5 10  1  1  0  0  0
  5  1  1  0  0  0  0
  8  4  1  0  0  0  0
  9  4  1  0  0  0  0
 11 12  1  0  0  0  0
 13 18  1  0  0  0  0
 14 20  1  0  0  0  0
 14 15  1  0  0  0  0
 15 21  1  0  0  0  0
 16 15  2  0  0  0  0
 16 22  1  0  0  0  0
 17 16  1  0  0  0  0
 18 19  1  0  0  0  0
 18 17  2  0  0  0  0
 19 14  2  0  0  0  0
 23 26  1  0  0  0  0
 23  5  1  0  0  0  0
 25 32  1  0  0  0  0
 25 24  1  0  0  0  0
 26 25  2  0  0  0  0
 27 29  2  0  0  0  0
 27 26  1  0  0  0  0
 28 27  1  0  0  0  0
 29 31  1  0  0  0  0
 30 29  1  0  0  0  0
 31 32  2  0  0  0  0
M  END
>  <minimizedAffinity>
-4.82432508

$$$$

 OpenBabel03272506453D

 32 34  0  0  1  0  0  0  0  0999 V2000
   36.6610   24.8790   32.5030 C   0  0  2  0  0  0  0  0  0  0  0  0
   35.6730   24.1330   31.6360 C   0  0  1  0  0  0  0  0  0  0  0  0
   35.2520   24.9940   30.6520 O   0  0  0  0  0  0  0  0  0  0  0  0
   36.0100   26.1420   30.6860 C   0  0  0  0  0  0  0  0  0  0  0  0
   37.2950   25.7780   31.4490 C   0  0  1  0  0  0  0  0  0  0  0  0
   36.1700   25.4790   33.2970 H   0  0  0  0  0  0  0  0  0  0  0  0
   34.8770   23.6410   32.2140 H   0  0  0  0  0  0  0  0  0  0  0  0
   36.2520   26.5360   29.6780 H   0  0  0  0  0  0  0  0  0  0  0  0
   35.4920   26.8890   31.3260 H   0  0  0  0  0  0  0  0  0  0  0  0
   37.9160   25.1330   30.8300 H   0  0  0  0  0  0  0  0  0  0  0  0
   37.6000   24.0020   33.0510 O   0  0  0  0  0  0  0  0  0  0  0  0
   38.2460   23.7370   32.3260 H   0  0  0  0  0  0  0  0  0  0  0  0
   36.6000   22.7810   30.8180 S   0  0  0  0  0  0  0  0  0  0  0  0
   35.5490   20.0810   33.5220 C   0  0  0  0  0  0  0  0  0  0  0  0
   35.4610   18.8800   32.8290 C   0  0  0  0  0  0  0  0  0  0  0  0
   35.7360   18.9030   31.4620 C   0  0  0  0  0  0  0  0  0  0  0  0
   36.0750   20.0890   30.8850 N   0  0  0  0  0  0  0  0  0  0  0  0
   36.1510   21.2330   31.5950 C   0  0  0  0  0  0  0  0  0  0  0  0
   35.8890   21.2430   32.9190 N   0  0  0  0  0  0  0  0  0  0  0  0
   35.3370   20.0910   34.5990 H   0  0  0  0  0  0  0  0  0  0  0  0
   35.1920   17.9540   33.2920 H   0  0  0  0  0  0  0  0  0  0  0  0
   35.6900   18.0160   30.8530 H   0  0  0  0  0  0  0  0  0  0  0  0
   37.8600   26.9060   31.9930 O   0  0  0  0  0  0  0  0  0  0  0  0
   35.8810   28.3320   33.5780 Cl  0  0  0  0  0  0  0  0  0  0  0  0
   37.4170   27.6410   34.1020 C   0  0  0  0  0  0  0  0  0  0  0  0
   38.3240   26.9650   33.2770 C   0  0  0  0  0  0  0  0  0  0  0  0
   39.4780   26.4880   33.8480 C   0  0  0  0  0  0  0  0  0  0  0  0
   40.1120   25.9830   33.1370 H   0  0  0  0  0  0  0  0  0  0  0  0
   39.7170   26.6800   35.1870 C   0  0  0  0  0  0  0  0  0  0  0  0
   40.6640   26.2560   35.5200 H   0  0  0  0  0  0  0  0  0  0  0  0
   38.8480   27.3390   36.0220 C   0  0  0  0  0  3  0  0  0  0  0  0
   37.6700   27.8310   35.4640 C   0  0  0  0  0  3  0  0  0  0  0  0
  1 11  1  0  0  0  0
  1  6  1  1  0  0  0
  2  7  1  1  0  0  0
  2  1  1  0  0  0  0
  3  4  1  0  0  0  0
  3  2  1  0  0  0  0
  4  9  1  0  0  0  0
  4  5  1  0  0  0  0
  5 10  1  6  0  0  0
  5 23  1  0  0  0  0
  5  1  1  0  0  0  0
  8  4  1  0  0  0  0
 12 11  1  0  0  0  0
 13 18  1  0  0  0  0
 13  2  1  0  0  0  0
 14 20  1  0  0  0  0
 15 21  1  0  0  0  0
 15 14  2  0  0  0  0
 16 15  1  0  0  0  0
 17 16  2  0  0  0  0
 17 18  1  0  0  0  0
 18 19  2  0  0  0  0
 19 14  1  0  0  0  0
 22 16  1  0  0  0  0
 23 26  1  0  0  0  0
 24 25  1  0  0  0  0
 25 32  1  0  0  0  0
 26 27  1  0  0  0  0
 26 25  2  0  0  0  0
 27 29  2  0  0  0  0
 28 27  1  0  0  0  0
 29 30  1  0  0  0  0
 29 31  1  0  0  0  0
 32 31  2  0  0  0  0
M  END
>  <minimizedAffinity>
-4.82250261

$$$$

 OpenBabel03272506453D

 32 34  0  0  1  0  0  0  0  0999 V2000
   38.0580   27.1760   32.6460 C   0  0  2  0  0  0  0  0  0  0  0  0
   38.4090   26.7050   34.0400 C   0  0  1  0  0  0  0  0  0  0  0  0
   37.4410   27.1760   34.8920 O   0  0  0  0  0  0  0  0  0  0  0  0
   36.4130   27.7310   34.1640 C   0  0  0  0  0  0  0  0  0  0  0  0
   36.5380   27.1510   32.7460 C   0  0  1  0  0  0  0  0  0  0  0  0
   38.4280   28.2000   32.4320 H   0  0  0  0  0  0  0  0  0  0  0  0
   39.4480   26.9310   34.3220 H   0  0  0  0  0  0  0  0  0  0  0  0
   35.4120   27.5150   34.5880 H   0  0  0  0  0  0  0  0  0  0  0  0
   36.6060   28.8200   34.0530 H   0  0  0  0  0  0  0  0  0  0  0  0
   36.2490   26.1010   32.7540 H   0  0  0  0  0  0  0  0  0  0  0  0
   38.5180   26.2700   31.6870 O   0  0  0  0  0  0  0  0  0  0  0  0
   37.9170   25.4630   31.7010 H   0  0  0  0  0  0  0  0  0  0  0  0
   38.2850   24.8780   34.0290 S   0  0  0  0  0  0  0  0  0  0  0  0
   39.7980   22.9920   37.1680 C   0  0  0  0  0  0  0  0  0  0  0  0
   38.9790   23.3370   38.2360 C   0  0  0  0  0  0  0  0  0  0  0  0
   37.9080   24.1930   37.9770 C   0  0  0  0  0  0  0  0  0  0  0  0
   37.7250   24.6400   36.7040 N   0  0  0  0  0  0  0  0  0  0  0  0
   38.5440   24.2790   35.6950 C   0  0  0  0  0  0  0  0  0  0  0  0
   39.5880   23.4540   35.9140 N   0  0  0  0  0  0  0  0  0  0  0  0
   40.6480   22.3200   37.3460 H   0  0  0  0  0  0  0  0  0  0  0  0
   39.1330   22.9800   39.2320 H   0  0  0  0  0  0  0  0  0  0  0  0
   37.2270   24.5090   38.7490 H   0  0  0  0  0  0  0  0  0  0  0  0
   35.9400   27.9880   31.8360 O   0  0  0  0  0  0  0  0  0  0  0  0
   37.2230   28.6940   29.3230 Cl  0  0  0  0  0  0  0  0  0  0  0  0
   36.7390   29.7560   30.6450 C   0  0  0  0  0  0  0  0  0  0  0  0
   36.1230   29.3430   31.8320 C   0  0  0  0  0  0  0  0  0  0  0  0
   35.8110   30.3040   32.7620 C   0  0  0  0  0  0  0  0  0  0  0  0
   35.3410   29.8910   33.6400 H   0  0  0  0  0  0  0  0  0  0  0  0
   36.1040   31.6230   32.5170 C   0  0  0  0  0  0  0  0  0  0  0  0
   35.8090   32.2870   33.3290 H   0  0  0  0  0  0  0  0  0  0  0  0
   36.7080   32.0600   31.3630 C   0  0  0  0  0  3  0  0  0  0  0  0
   37.0330   31.1020   30.4060 C   0  0  0  0  0  3  0  0  0  0  0  0
  1  6  1  6  0  0  0
  1  5  1  0  0  0  0
  1  2  1  0  0  0  0
  2  7  1  1  0  0  0
  2  3  1  0  0  0  0
  4  8  1  0  0  0  0
  4  3  1  0  0  0  0
  5 10  1  6  0  0  0
  5  4  1  0  0  0  0
  9  4  1  0  0  0  0
 11 12  1  0  0  0  0
 11  1  1  0  0  0  0
 13  2  1  0  0  0  0
 13 18  1  0  0  0  0
 14 20  1  0  0  0  0
 14 15  1  0  0  0  0
 15 21  1  0  0  0  0
 16 15  2  0  0  0  0
 16 22  1  0  0  0  0
 17 16  1  0  0  0  0
 18 19  1  0  0  0  0
 18 17  2  0  0  0  0
 19 14  2  0  0  0  0
 23  5  1  0  0  0  0
 24 25  1  0  0  0  0
 25 26  1  0  0  0  0
 26 23  1  0  0  0  0
 26 27  2  0  0  0  0
 27 28  1  0  0  0  0
 29 27  1  0  0  0  0
 29 30  1  0  0  0  0
 31 29  2  0  0  0  0
 32 25  2  0  0  0  0
 32 31  1  0  0  0  0
M  END
>  <minimizedAffinity>
-4.75606585

$$$$

 OpenBabel03272506453D

 32 34  0  0  1  0  0  0  0  0999 V2000
   38.9440   26.7260   33.5740 C   0  0  2  0  0  0  0  0  0  0  0  0
   38.4230   26.9240   32.1690 C   0  0  1  0  0  0  0  0  0  0  0  0
   38.7460   25.8020   31.4460 O   0  0  0  0  0  0  0  0  0  0  0  0
   39.2450   24.8350   32.2900 C   0  0  0  0  0  0  0  0  0  0  0  0
   38.7690   25.2190   33.7000 C   0  0  1  0  0  0  0  0  0  0  0  0
   40.0100   27.0160   33.6830 H   0  0  0  0  0  0  0  0  0  0  0  0
   38.7290   27.8830   31.7270 H   0  0  0  0  0  0  0  0  0  0  0  0
   38.9090   23.8120   32.0270 H   0  0  0  0  0  0  0  0  0  0  0  0
   40.3520   24.9290   32.3200 H   0  0  0  0  0  0  0  0  0  0  0  0
   37.6980   25.0400   33.7840 H   0  0  0  0  0  0  0  0  0  0  0  0
   38.1470   27.4080   34.4980 O   0  0  0  0  0  0  0  0  0  0  0  0
   37.2870   26.8970   34.6110 H   0  0  0  0  0  0  0  0  0  0  0  0
   36.5960   26.9910   32.2850 S   0  0  0  0  0  0  0  0  0  0  0  0
   35.4780   30.6370   33.3610 C   0  0  0  0  0  0  0  0  0  0  0  0
   35.2980   31.3340   32.1730 C   0  0  0  0  0  0  0  0  0  0  0  0
   35.5330   30.6470   30.9810 C   0  0  0  0  0  0  0  0  0  0  0  0
   35.9220   29.3440   31.0460 N   0  0  0  0  0  0  0  0  0  0  0  0
   36.0850   28.7050   32.2220 C   0  0  0  0  0  0  0  0  0  0  0  0
   35.8660   29.3410   33.3910 N   0  0  0  0  0  0  0  0  0  0  0  0
   35.3000   31.1540   34.3130 H   0  0  0  0  0  0  0  0  0  0  0  0
   34.9920   32.3580   32.1340 H   0  0  0  0  0  0  0  0  0  0  0  0
   35.4160   31.1150   30.0180 H   0  0  0  0  0  0  0  0  0  0  0  0
   39.5990   24.6710   34.6470 O   0  0  0  0  0  0  0  0  0  0  0  0
   41.4260   22.6470   35.6620 Cl  0  0  0  0  0  0  0  0  0  0  0  0
   40.0170   23.3530   36.4560 C   0  0  0  0  0  0  0  0  0  0  0  0
   39.1800   24.3280   35.9030 C   0  0  0  0  0  0  0  0  0  0  0  0
   38.1240   24.7720   36.6590 C   0  0  0  0  0  0  0  0  0  0  0  0
   37.5380   25.5200   36.1510 H   0  0  0  0  0  0  0  0  0  0  0  0
   37.9110   24.2610   37.9160 C   0  0  0  0  0  0  0  0  0  0  0  0
   37.0430   24.6910   38.4150 H   0  0  0  0  0  0  0  0  0  0  0  0
   38.7140   23.3030   38.4870 C   0  0  0  0  0  3  0  0  0  0  0  0
   39.7920   22.8400   37.7370 C   0  0  0  0  0  3  0  0  0  0  0  0
  1  6  1  1  0  0  0
  1  5  1  0  0  0  0
  1 11  1  0  0  0  0
  2  7  1  6  0  0  0
  2 13  1  0  0  0  0
  2  1  1  0  0  0  0
  3  2  1  0  0  0  0
  3  4  1  0  0  0  0
  4  9  1  0  0  0  0
  4  5  1  0  0  0  0
  5 10  1  1  0  0  0
  5 23  1  0  0  0  0
  8  4  1  0  0  0  0
 11 12  1  0  0  0  0
 14 19  1  0  0  0  0
 14 20  1  0  0  0  0
 15 14  2  0  0  0  0
 16 17  2  0  0  0  0
 16 15  1  0  0  0  0
 17 18  1  0  0  0  0
 18 13  1  0  0  0  0
 18 19  2  0  0  0  0
 21 15  1  0  0  0  0
 22 16  1  0  0  0  0
 23 26  1  0  0  0  0
 24 25  1  0  0  0  0
 25 32  1  0  0  0  0
 26 25  2  0  0  0  0
 26 27  1  0  0  0  0
 27 29  2  0  0  0  0
 28 27  1  0  0  0  0
 29 30  1  0  0  0  0
 29 31  1  0  0  0  0
 32 31  2  0  0  0  0
M  END
>  <minimizedAffinity>
-4.70730066

$$$$
