
 OpenBabel03262520213D

 23 24  0  0  0  0  0  0  0  0999 V2000
   34.3830   30.3190   47.7210 C   0  0  0  0  0  0  0  0  0  0  0  0
   35.7210   30.5150   47.3390 C   0  0  0  0  0  0  0  0  0  0  0  0
   36.0640   30.4330   45.9950 C   0  0  0  0  0  0  0  0  0  0  0  0
   35.0570   30.1620   45.1290 N   0  0  0  0  0  0  0  0  0  0  0  0
   33.7770   29.9750   45.4990 C   0  0  0  0  0  0  0  0  0  0  0  0
   33.4640   30.0580   46.8010 N   0  0  0  0  0  0  0  0  0  0  0  0
   32.8620   29.6990   44.4380 N   0  0  0  0  0  0  0  0  0  0  0  0
   34.0610   30.3730   48.7520 H   0  0  0  0  0  0  0  0  0  0  0  0
   32.0830   29.0330   44.6900 H   0  0  0  0  0  0  0  0  0  0  0  0
   32.9900   30.1400   43.5030 H   0  0  0  0  0  0  0  0  0  0  0  0
   35.7050   28.3180   49.2830 Cl  0  0  0  0  0  0  0  0  0  0  0  0
   36.6800   29.7690   49.3610 C   0  0  0  0  0  0  0  0  0  0  0  0
   36.6550   30.7930   48.4140 C   0  0  0  0  0  0  0  0  0  0  0  0
   37.4880   31.9030   48.5980 C   0  0  0  0  0  0  0  0  0  0  0  0
   37.3870   32.6260   47.8110 H   0  0  0  0  0  0  0  0  0  0  0  0
   38.3050   31.9460   49.7080 C   0  0  0  0  0  0  0  0  0  0  0  0
   38.9030   32.8560   49.7380 H   0  0  0  0  0  0  0  0  0  0  0  0
   38.3250   30.9300   50.6410 C   0  0  0  0  0  0  0  0  0  0  0  0
   37.5060   29.8330   50.4670 C   0  0  0  0  0  0  0  0  0  0  0  0
   37.4780   30.6440   45.6020 C   0  0  0  0  0  0  0  0  0  0  0  0
   38.2490   30.0080   46.5080 F   0  0  0  0  0  0  0  0  0  0  0  0
   37.7350   30.2140   44.3250 F   0  0  0  0  0  0  0  0  0  0  0  0
   37.8050   32.0160   45.6510 F   0  0  0  0  0  0  0  0  0  0  0  0
  1  8  1  0  0  0  0
  2  1  1  0  0  0  0
  2 13  1  0  0  0  0
  3  2  2  0  0  0  0
  4  5  2  0  0  0  0
  4  3  1  0  0  0  0
  5  6  1  0  0  0  0
  6  1  2  0  0  0  0
  7  9  1  0  0  0  0
  7  5  1  0  0  0  0
 10  7  1  0  0  0  0
 11 12  1  0  0  0  0
 12 19  1  0  0  0  0
 13 14  1  0  0  0  0
 13 12  2  0  0  0  0
 14 16  2  0  0  0  0
 15 14  1  0  0  0  0
 16 17  1  0  0  0  0
 16 18  1  0  0  0  0
 19 18  2  0  0  0  0
 20 23  1  0  0  0  0
 20  3  1  0  0  0  0
 20 21  1  0  0  0  0
 22 20  1  0  0  0  0
M  END
>  <minimizedAffinity>
-5.20433187

>  <minimizedRMSD>
4.1822319

$$$$
