
 OpenBabel03262520473D

 34 36  0  0  1  0  0  0  0  0999 V2000
   38.3000   26.3900   34.7280 C   0  0  1  0  0  0  0  0  0  0  0  0
   38.4450   27.0600   33.3680 C   0  0  0  0  0  0  0  0  0  0  0  0
   37.1880   27.1510   34.1320 C   0  0  2  0  0  0  0  0  0  0  0  0
   38.8460   26.8160   35.5980 H   0  0  0  0  0  0  0  0  0  0  0  0
   39.0550   27.9790   33.3330 H   0  0  0  0  0  0  0  0  0  0  0  0
   38.5160   26.4240   32.4750 H   0  0  0  0  0  0  0  0  0  0  0  0
   36.3340   26.5630   33.7290 H   0  0  0  0  0  0  0  0  0  0  0  0
   38.2930   24.8820   34.6820 C   0  0  0  0  0  0  0  0  0  0  0  0
   37.2420   24.5820   34.3990 H   0  0  0  0  0  0  0  0  0  0  0  0
   38.9430   24.4830   33.8970 H   0  0  0  0  0  0  0  0  0  0  0  0
   39.8600   22.8940   37.4370 C   0  0  0  0  0  0  0  0  0  0  0  0
   39.6100   23.4780   36.1620 C   0  0  0  0  0  0  0  0  0  0  0  0
   38.5130   24.2980   36.0200 C   0  0  0  0  0  0  0  0  0  0  0  0
   37.7230   24.5150   37.0900 N   0  0  0  0  0  0  0  0  0  0  0  0
   37.9710   23.9570   38.2830 C   0  0  0  0  0  0  0  0  0  0  0  0
   39.0320   23.1600   38.4370 N   0  0  0  0  0  0  0  0  0  0  0  0
   40.7210   22.2420   37.5730 H   0  0  0  0  0  0  0  0  0  0  0  0
   40.3230   23.2250   35.3790 H   0  0  0  0  0  0  0  0  0  0  0  0
   37.2360   24.2310   39.0540 H   0  0  0  0  0  0  0  0  0  0  0  0
   36.7970   28.4030   34.8780 C   0  0  0  0  0  0  0  0  0  0  0  0
   37.6520   29.0500   35.0850 H   0  0  0  0  0  0  0  0  0  0  0  0
   36.3510   28.1050   35.8460 H   0  0  0  0  0  0  0  0  0  0  0  0
   35.7600   29.2140   34.1380 C   0  0  0  0  0  0  0  0  0  0  0  0
   36.3040   29.6790   33.2700 H   0  0  0  0  0  0  0  0  0  0  0  0
   34.9710   28.5760   33.7060 H   0  0  0  0  0  0  0  0  0  0  0  0
   32.7680   29.3260   34.1500 Cl  0  0  0  0  0  0  0  0  0  0  0  0
   33.8440   30.4010   35.0190 C   0  0  0  0  0  0  0  0  0  0  0  0
   35.2350   30.3040   34.9790 C   0  0  0  0  0  0  0  0  0  0  0  0
   35.9660   31.2070   35.7050 C   0  0  0  0  0  0  0  0  0  0  0  0
   37.0400   31.0730   35.6270 H   0  0  0  0  0  0  0  0  0  0  0  0
   35.3850   32.1960   36.4640 C   0  0  0  0  0  0  0  0  0  0  0  0
   36.0550   32.8660   37.0060 H   0  0  0  0  0  0  0  0  0  0  0  0
   34.0140   32.2820   36.4970 C   0  0  0  0  0  3  0  0  0  0  0  0
   33.2490   31.3840   35.7740 C   0  0  0  0  0  3  0  0  0  0  0  0
  1  4  1  1  0  0  0
  2  3  1  0  0  0  0
  2  1  1  0  0  0  0
  3  7  1  6  0  0  0
  3  1  1  0  0  0  0
  3 20  1  0  0  0  0
  5  2  1  0  0  0  0
  6  2  1  0  0  0  0
  8  1  1  0  0  0  0
  8 13  1  0  0  0  0
  9  8  1  0  0  0  0
 10  8  1  0  0  0  0
 11 17  1  0  0  0  0
 11 16  1  0  0  0  0
 12 11  2  0  0  0  0
 13 12  1  0  0  0  0
 13 14  2  0  0  0  0
 14 15  1  0  0  0  0
 15 16  2  0  0  0  0
 15 19  1  0  0  0  0
 18 12  1  0  0  0  0
 20 21  1  0  0  0  0
 20 22  1  0  0  0  0
 23 20  1  0  0  0  0
 23 28  1  0  0  0  0
 24 23  1  0  0  0  0
 25 23  1  0  0  0  0
 26 27  1  0  0  0  0
 27 34  1  0  0  0  0
 28 27  2  0  0  0  0
 28 29  1  0  0  0  0
 29 31  2  0  0  0  0
 30 29  1  0  0  0  0
 31 33  1  0  0  0  0
 31 32  1  0  0  0  0
 34 33  2  0  0  0  0
M  END
>  <minimizedAffinity>
-5.17592716

$$$$

 OpenBabel03262520473D

 34 36  0  0  1  0  0  0  0  0999 V2000
   38.7970   26.3780   33.5190 C   0  0  1  0  0  0  0  0  0  0  0  0
   40.0350   27.1540   33.9500 C   0  0  0  0  0  0  0  0  0  0  0  0
   38.7840   27.2270   34.7240 C   0  0  2  0  0  0  0  0  0  0  0  0
   38.7900   25.2720   33.6340 H   0  0  0  0  0  0  0  0  0  0  0  0
   40.8510   26.5690   34.4060 H   0  0  0  0  0  0  0  0  0  0  0  0
   40.3630   28.0010   33.3320 H   0  0  0  0  0  0  0  0  0  0  0  0
   38.2280   28.1890   34.6570 H   0  0  0  0  0  0  0  0  0  0  0  0
   38.1650   26.8710   32.2410 C   0  0  0  0  0  0  0  0  0  0  0  0
   37.6650   27.8510   32.4970 H   0  0  0  0  0  0  0  0  0  0  0  0
   38.9050   27.1010   31.4690 H   0  0  0  0  0  0  0  0  0  0  0  0
   36.1930   23.7470   31.6500 C   0  0  0  0  0  0  0  0  0  0  0  0
   37.2260   24.6400   32.0580 C   0  0  0  0  0  0  0  0  0  0  0  0
   37.0700   25.9840   31.8010 C   0  0  0  0  0  0  0  0  0  0  0  0
   35.9500   26.3990   31.1780 N   0  0  0  0  0  0  0  0  0  0  0  0
   34.9870   25.5470   30.8000 C   0  0  0  0  0  0  0  0  0  0  0  0
   35.1230   24.2400   31.0420 N   0  0  0  0  0  0  0  0  0  0  0  0
   36.2940   22.6810   31.8420 H   0  0  0  0  0  0  0  0  0  0  0  0
   38.0790   24.1800   32.5520 H   0  0  0  0  0  0  0  0  0  0  0  0
   34.1380   26.0400   30.3040 H   0  0  0  0  0  0  0  0  0  0  0  0
   38.6080   26.4860   36.0270 C   0  0  0  0  0  0  0  0  0  0  0  0
   37.9540   27.0140   36.7240 H   0  0  0  0  0  0  0  0  0  0  0  0
   39.6010   26.3790   36.5030 H   0  0  0  0  0  0  0  0  0  0  0  0
   38.0560   25.0930   35.8270 C   0  0  0  0  0  0  0  0  0  0  0  0
   37.1840   25.0100   36.5340 H   0  0  0  0  0  0  0  0  0  0  0  0
   37.6490   24.9550   34.8110 H   0  0  0  0  0  0  0  0  0  0  0  0
   37.8390   24.2850   38.7010 Cl  0  0  0  0  0  0  0  0  0  0  0  0
   38.9870   23.6570   37.5370 C   0  0  0  0  0  0  0  0  0  0  0  0
   39.0440   24.0690   36.2050 C   0  0  0  0  0  0  0  0  0  0  0  0
   39.9900   23.4990   35.3940 C   0  0  0  0  0  0  0  0  0  0  0  0
   39.9780   23.8670   34.3730 H   0  0  0  0  0  0  0  0  0  0  0  0
   40.8770   22.5450   35.8390 C   0  0  0  0  0  0  0  0  0  0  0  0
   41.5910   22.1540   35.1130 H   0  0  0  0  0  0  0  0  0  0  0  0
   40.8100   22.1460   37.1520 C   0  0  0  0  0  3  0  0  0  0  0  0
   39.8650   22.7030   37.9960 C   0  0  0  0  0  3  0  0  0  0  0  0
  1  4  1  1  0  0  0
  1  2  1  0  0  0  0
  1  3  1  0  0  0  0
  2  5  1  0  0  0  0
  2  3  1  0  0  0  0
  3  7  1  6  0  0  0
  3 20  1  0  0  0  0
  6  2  1  0  0  0  0
  8  9  1  0  0  0  0
  8  1  1  0  0  0  0
 10  8  1  0  0  0  0
 11 17  1  0  0  0  0
 11 12  1  0  0  0  0
 12 18  1  0  0  0  0
 13 12  2  0  0  0  0
 13  8  1  0  0  0  0
 14 13  1  0  0  0  0
 15 16  1  0  0  0  0
 15 14  2  0  0  0  0
 16 11  2  0  0  0  0
 19 15  1  0  0  0  0
 20 22  1  0  0  0  0
 20 21  1  0  0  0  0
 23 20  1  0  0  0  0
 23 28  1  0  0  0  0
 23 24  1  0  0  0  0
 25 23  1  0  0  0  0
 27 34  1  0  0  0  0
 27 26  1  0  0  0  0
 28 27  2  0  0  0  0
 29 31  2  0  0  0  0
 29 28  1  0  0  0  0
 30 29  1  0  0  0  0
 31 33  1  0  0  0  0
 32 31  1  0  0  0  0
 33 34  2  0  0  0  0
M  END
>  <minimizedAffinity>
-5.03744507

$$$$

 OpenBabel03262520473D

 34 36  0  0  1  0  0  0  0  0999 V2000
   36.8370   27.9040   33.0410 C   0  0  1  0  0  0  0  0  0  0  0  0
   36.0990   28.6600   34.1390 C   0  0  0  0  0  0  0  0  0  0  0  0
   36.8420   27.4220   34.4340 C   0  0  2  0  0  0  0  0  0  0  0  0
   37.7650   28.3460   32.6160 H   0  0  0  0  0  0  0  0  0  0  0  0
   36.5630   29.5960   34.4920 H   0  0  0  0  0  0  0  0  0  0  0  0
   35.0000   28.6660   34.1230 H   0  0  0  0  0  0  0  0  0  0  0  0
   36.2200   26.5270   34.6590 H   0  0  0  0  0  0  0  0  0  0  0  0
   35.9380   27.2540   32.0200 C   0  0  0  0  0  0  0  0  0  0  0  0
   35.0050   26.9440   32.5760 H   0  0  0  0  0  0  0  0  0  0  0  0
   35.6100   27.9510   31.2440 H   0  0  0  0  0  0  0  0  0  0  0  0
   36.2290   23.6450   31.0770 C   0  0  0  0  0  0  0  0  0  0  0  0
   35.7090   24.8810   31.5570 C   0  0  0  0  0  0  0  0  0  0  0  0
   36.5180   25.9940   31.5120 C   0  0  0  0  0  0  0  0  0  0  0  0
   37.7660   25.8700   31.0170 N   0  0  0  0  0  0  0  0  0  0  0  0
   38.2410   24.6990   30.5700 C   0  0  0  0  0  0  0  0  0  0  0  0
   37.4670   23.6100   30.6060 N   0  0  0  0  0  0  0  0  0  0  0  0
   35.6080   22.7520   31.1020 H   0  0  0  0  0  0  0  0  0  0  0  0
   34.6870   24.8500   31.9310 H   0  0  0  0  0  0  0  0  0  0  0  0
   39.2740   24.7610   30.1980 H   0  0  0  0  0  0  0  0  0  0  0  0
   38.1890   27.4430   35.1130 C   0  0  0  0  0  0  0  0  0  0  0  0
   38.4580   28.4370   35.4780 H   0  0  0  0  0  0  0  0  0  0  0  0
   38.9540   27.1300   34.3780 H   0  0  0  0  0  0  0  0  0  0  0  0
   38.2630   26.4790   36.2740 C   0  0  0  0  0  0  0  0  0  0  0  0
   39.2660   26.6590   36.7520 H   0  0  0  0  0  0  0  0  0  0  0  0
   37.5050   26.7020   37.0430 H   0  0  0  0  0  0  0  0  0  0  0  0
   37.8790   24.5250   38.5100 Cl  0  0  0  0  0  0  0  0  0  0  0  0
   38.0530   24.1290   36.8120 C   0  0  0  0  0  0  0  0  0  0  0  0
   38.2300   25.0820   35.8090 C   0  0  0  0  0  0  0  0  0  0  0  0
   38.3540   24.6420   34.5170 C   0  0  0  0  0  0  0  0  0  0  0  0
   38.4890   25.4360   33.7900 H   0  0  0  0  0  0  0  0  0  0  0  0
   38.3110   23.3090   34.1760 C   0  0  0  0  0  0  0  0  0  0  0  0
   38.4190   23.0630   33.1190 H   0  0  0  0  0  0  0  0  0  0  0  0
   38.1360   22.3800   35.1730 C   0  0  0  0  0  3  0  0  0  0  0  0
   38.0070   22.7940   36.4870 C   0  0  0  0  0  3  0  0  0  0  0  0
  1  4  1  6  0  0  0
  1  2  1  0  0  0  0
  1  3  1  0  0  0  0
  2  3  1  0  0  0  0
  2  5  1  0  0  0  0
  3  7  1  1  0  0  0
  3 20  1  0  0  0  0
  6  2  1  0  0  0  0
  8  9  1  0  0  0  0
  8  1  1  0  0  0  0
 10  8  1  0  0  0  0
 11 17  1  0  0  0  0
 11 12  1  0  0  0  0
 12 18  1  0  0  0  0
 13 12  2  0  0  0  0
 13  8  1  0  0  0  0
 14 13  1  0  0  0  0
 15 16  1  0  0  0  0
 15 14  2  0  0  0  0
 16 11  2  0  0  0  0
 19 15  1  0  0  0  0
 20 21  1  0  0  0  0
 20 23  1  0  0  0  0
 22 20  1  0  0  0  0
 23 24  1  0  0  0  0
 23 25  1  0  0  0  0
 27 26  1  0  0  0  0
 28 23  1  0  0  0  0
 28 27  2  0  0  0  0
 29 28  1  0  0  0  0
 30 29  1  0  0  0  0
 31 29  2  0  0  0  0
 31 33  1  0  0  0  0
 32 31  1  0  0  0  0
 33 34  2  0  0  0  0
 34 27  1  0  0  0  0
M  END
>  <minimizedAffinity>
-5.01531935

$$$$

 OpenBabel03262520473D

 34 36  0  0  1  0  0  0  0  0999 V2000
   41.7210   23.5600   35.3420 C   0  0  1  0  0  0  0  0  0  0  0  0
   42.4590   23.4280   34.0160 C   0  0  0  0  0  0  0  0  0  0  0  0
   41.5240   24.5410   34.2590 C   0  0  2  0  0  0  0  0  0  0  0  0
   42.2920   23.8590   36.2470 H   0  0  0  0  0  0  0  0  0  0  0  0
   43.5310   23.6900   34.0190 H   0  0  0  0  0  0  0  0  0  0  0  0
   42.1870   22.6020   33.3450 H   0  0  0  0  0  0  0  0  0  0  0  0
   40.5610   24.4930   33.7050 H   0  0  0  0  0  0  0  0  0  0  0  0
   40.6860   22.4900   35.5880 C   0  0  0  0  0  0  0  0  0  0  0  0
   40.1260   22.3670   34.6150 H   0  0  0  0  0  0  0  0  0  0  0  0
   41.1330   21.5160   35.8060 H   0  0  0  0  0  0  0  0  0  0  0  0
   37.4800   23.8560   36.9500 C   0  0  0  0  0  0  0  0  0  0  0  0
   38.4890   23.4160   36.0450 C   0  0  0  0  0  0  0  0  0  0  0  0
   39.6700   22.9340   36.5630 C   0  0  0  0  0  0  0  0  0  0  0  0
   39.8240   22.8960   37.9020 N   0  0  0  0  0  0  0  0  0  0  0  0
   38.8660   23.3140   38.7410 C   0  0  0  0  0  0  0  0  0  0  0  0
   37.7140   23.7840   38.2530 N   0  0  0  0  0  0  0  0  0  0  0  0
   36.5390   24.2410   36.5640 H   0  0  0  0  0  0  0  0  0  0  0  0
   38.2430   23.4980   34.9880 H   0  0  0  0  0  0  0  0  0  0  0  0
   39.1420   23.2180   39.8010 H   0  0  0  0  0  0  0  0  0  0  0  0
   42.0080   25.9370   34.5650 C   0  0  0  0  0  0  0  0  0  0  0  0
   43.0760   26.0610   34.3730 H   0  0  0  0  0  0  0  0  0  0  0  0
   41.8280   26.1400   35.6370 H   0  0  0  0  0  0  0  0  0  0  0  0
   41.2620   26.9900   33.7790 C   0  0  0  0  0  0  0  0  0  0  0  0
   41.7460   27.9690   34.0510 H   0  0  0  0  0  0  0  0  0  0  0  0
   41.3990   26.8650   32.6920 H   0  0  0  0  0  0  0  0  0  0  0  0
   39.3850   26.9400   31.4470 Cl  0  0  0  0  0  0  0  0  0  0  0  0
   38.9290   27.0370   33.1360 C   0  0  0  0  0  0  0  0  0  0  0  0
   39.8480   27.0560   34.1860 C   0  0  0  0  0  0  0  0  0  0  0  0
   39.3630   27.1340   35.4650 C   0  0  0  0  0  0  0  0  0  0  0  0
   40.1320   27.1450   36.2300 H   0  0  0  0  0  0  0  0  0  0  0  0
   38.0180   27.1930   35.7500 C   0  0  0  0  0  0  0  0  0  0  0  0
   37.7350   27.2530   36.8020 H   0  0  0  0  0  0  0  0  0  0  0  0
   37.1230   27.1730   34.7080 C   0  0  0  0  0  3  0  0  0  0  0  0
   37.5820   27.0940   33.4050 C   0  0  0  0  0  3  0  0  0  0  0  0
  1  8  1  0  0  0  0
  1  4  1  1  0  0  0
  2  5  1  0  0  0  0
  2  3  1  0  0  0  0
  2  1  1  0  0  0  0
  3  7  1  6  0  0  0
  3 20  1  0  0  0  0
  3  1  1  0  0  0  0
  6  2  1  0  0  0  0
  8 10  1  0  0  0  0
  8 13  1  0  0  0  0
  9  8  1  0  0  0  0
 11 16  1  0  0  0  0
 12 13  1  0  0  0  0
 12 11  2  0  0  0  0
 13 14  2  0  0  0  0
 14 15  1  0  0  0  0
 15 19  1  0  0  0  0
 16 15  2  0  0  0  0
 17 11  1  0  0  0  0
 18 12  1  0  0  0  0
 20 22  1  0  0  0  0
 21 20  1  0  0  0  0
 23 24  1  0  0  0  0
 23 28  1  0  0  0  0
 23 20  1  0  0  0  0
 25 23  1  0  0  0  0
 26 27  1  0  0  0  0
 27 34  2  0  0  0  0
 27 28  1  0  0  0  0
 28 29  2  0  0  0  0
 29 31  1  0  0  0  0
 29 30  1  0  0  0  0
 31 32  1  0  0  0  0
 33 31  2  0  0  0  0
 34 33  1  0  0  0  0
M  END
>  <minimizedAffinity>
-4.90644026

$$$$

 OpenBabel03262520473D

 34 36  0  0  1  0  0  0  0  0999 V2000
   38.3700   26.3730   34.4180 C   0  0  1  0  0  0  0  0  0  0  0  0
   39.0660   27.2420   35.4580 C   0  0  0  0  0  0  0  0  0  0  0  0
   37.9900   26.3120   35.8400 C   0  0  2  0  0  0  0  0  0  0  0  0
   38.9280   25.5240   33.9670 H   0  0  0  0  0  0  0  0  0  0  0  0
   40.0880   26.9430   35.7480 H   0  0  0  0  0  0  0  0  0  0  0  0
   38.8910   28.3260   35.4370 H   0  0  0  0  0  0  0  0  0  0  0  0
   37.0220   26.7820   36.1240 H   0  0  0  0  0  0  0  0  0  0  0  0
   37.5130   27.1390   33.4400 C   0  0  0  0  0  0  0  0  0  0  0  0
   36.7160   27.6500   34.0560 H   0  0  0  0  0  0  0  0  0  0  0  0
   38.0640   27.9370   32.9340 H   0  0  0  0  0  0  0  0  0  0  0  0
   36.4650   23.9920   31.7090 C   0  0  0  0  0  0  0  0  0  0  0  0
   37.1480   24.9040   32.5640 C   0  0  0  0  0  0  0  0  0  0  0  0
   36.7780   26.2300   32.5380 C   0  0  0  0  0  0  0  0  0  0  0  0
   35.7860   26.6100   31.7080 N   0  0  0  0  0  0  0  0  0  0  0  0
   35.1530   25.7400   30.9090 C   0  0  0  0  0  0  0  0  0  0  0  0
   35.5010   24.4500   30.9240 N   0  0  0  0  0  0  0  0  0  0  0  0
   36.7410   22.9390   31.7130 H   0  0  0  0  0  0  0  0  0  0  0  0
   37.9300   24.4720   33.1870 H   0  0  0  0  0  0  0  0  0  0  0  0
   34.3690   26.2040   30.2930 H   0  0  0  0  0  0  0  0  0  0  0  0
   38.2770   24.9970   36.5230 C   0  0  0  0  0  0  0  0  0  0  0  0
   37.4100   24.6060   37.0600 H   0  0  0  0  0  0  0  0  0  0  0  0
   39.0900   25.1550   37.2550 H   0  0  0  0  0  0  0  0  0  0  0  0
   38.7480   23.9370   35.5540 C   0  0  0  0  0  0  0  0  0  0  0  0
   37.9170   23.1800   35.5080 H   0  0  0  0  0  0  0  0  0  0  0  0
   38.8640   24.3370   34.5330 H   0  0  0  0  0  0  0  0  0  0  0  0
   41.1860   24.5560   33.9300 Cl  0  0  0  0  0  0  0  0  0  0  0  0
   41.1200   23.5090   35.3330 C   0  0  0  0  0  0  0  0  0  0  0  0
   39.9540   23.2550   36.0550 C   0  0  0  0  0  0  0  0  0  0  0  0
   40.0340   22.4160   37.1350 C   0  0  0  0  0  0  0  0  0  0  0  0
   39.0910   22.2630   37.6490 H   0  0  0  0  0  0  0  0  0  0  0  0
   41.2110   21.8200   37.5300 C   0  0  0  0  0  0  0  0  0  0  0  0
   41.1690   21.1680   38.4030 H   0  0  0  0  0  0  0  0  0  0  0  0
   42.3530   22.0790   36.8110 C   0  0  0  0  0  3  0  0  0  0  0  0
   42.3030   22.9230   35.7150 C   0  0  0  0  0  3  0  0  0  0  0  0
  1  4  1  6  0  0  0
  1  2  1  0  0  0  0
  1  3  1  0  0  0  0
  2  5  1  0  0  0  0
  2  3  1  0  0  0  0
  3  7  1  1  0  0  0
  3 20  1  0  0  0  0
  6  2  1  0  0  0  0
  8  9  1  0  0  0  0
  8  1  1  0  0  0  0
 10  8  1  0  0  0  0
 11 17  1  0  0  0  0
 11 12  1  0  0  0  0
 12 18  1  0  0  0  0
 13 12  2  0  0  0  0
 13  8  1  0  0  0  0
 14 13  1  0  0  0  0
 15 16  1  0  0  0  0
 15 14  2  0  0  0  0
 16 11  2  0  0  0  0
 19 15  1  0  0  0  0
 20 21  1  0  0  0  0
 20 22  1  0  0  0  0
 23 28  1  0  0  0  0
 23 20  1  0  0  0  0
 24 23  1  0  0  0  0
 25 23  1  0  0  0  0
 26 27  1  0  0  0  0
 27 34  2  0  0  0  0
 27 28  1  0  0  0  0
 28 29  2  0  0  0  0
 29 31  1  0  0  0  0
 29 30  1  0  0  0  0
 31 32  1  0  0  0  0
 33 31  2  0  0  0  0
 34 33  1  0  0  0  0
M  END
>  <minimizedAffinity>
-4.85473728

$$$$

 OpenBabel03262520473D

 34 36  0  0  1  0  0  0  0  0999 V2000
   38.4400   26.5020   34.3370 C   0  0  1  0  0  0  0  0  0  0  0  0
   38.7140   27.3310   35.5860 C   0  0  0  0  0  0  0  0  0  0  0  0
   38.0010   26.0450   35.6680 C   0  0  2  0  0  0  0  0  0  0  0  0
   39.2890   25.9860   33.8380 H   0  0  0  0  0  0  0  0  0  0  0  0
   39.7520   27.3320   35.9610 H   0  0  0  0  0  0  0  0  0  0  0  0
   38.1770   28.2810   35.7130 H   0  0  0  0  0  0  0  0  0  0  0  0
   36.9120   26.1090   35.8880 H   0  0  0  0  0  0  0  0  0  0  0  0
   37.4460   27.1200   33.3850 C   0  0  0  0  0  0  0  0  0  0  0  0
   36.6220   27.5480   34.0280 H   0  0  0  0  0  0  0  0  0  0  0  0
   37.8650   27.9640   32.8300 H   0  0  0  0  0  0  0  0  0  0  0  0
   35.1600   25.5860   30.8520 C   0  0  0  0  0  0  0  0  0  0  0  0
   35.8200   26.5410   31.6780 C   0  0  0  0  0  0  0  0  0  0  0  0
   36.7890   26.0960   32.5490 C   0  0  0  0  0  0  0  0  0  0  0  0
   37.0740   24.7790   32.5850 N   0  0  0  0  0  0  0  0  0  0  0  0
   36.4440   23.8930   31.8020 C   0  0  0  0  0  0  0  0  0  0  0  0
   35.5020   24.3090   30.9500 N   0  0  0  0  0  0  0  0  0  0  0  0
   34.3910   25.9140   30.1560 H   0  0  0  0  0  0  0  0  0  0  0  0
   35.5000   27.5740   31.5540 H   0  0  0  0  0  0  0  0  0  0  0  0
   36.7890   22.8590   31.9480 H   0  0  0  0  0  0  0  0  0  0  0  0
   38.6740   24.7900   36.1670 C   0  0  0  0  0  0  0  0  0  0  0  0
   37.9620   24.0610   36.5590 H   0  0  0  0  0  0  0  0  0  0  0  0
   39.3650   25.0670   36.9850 H   0  0  0  0  0  0  0  0  0  0  0  0
   39.4980   24.1140   35.0960 C   0  0  0  0  0  0  0  0  0  0  0  0
   39.1980   23.0300   35.1230 H   0  0  0  0  0  0  0  0  0  0  0  0
   39.2440   24.4840   34.0880 H   0  0  0  0  0  0  0  0  0  0  0  0
   40.4400   21.8450   36.8060 Cl  0  0  0  0  0  0  0  0  0  0  0  0
   41.4280   23.1570   36.1980 C   0  0  0  0  0  0  0  0  0  0  0  0
   40.9370   24.1920   35.4020 C   0  0  0  0  0  0  0  0  0  0  0  0
   41.8140   25.1610   34.9910 C   0  0  0  0  0  0  0  0  0  0  0  0
   41.3640   25.9340   34.3760 H   0  0  0  0  0  0  0  0  0  0  0  0
   43.1480   25.1510   35.3290 C   0  0  0  0  0  0  0  0  0  0  0  0
   43.7630   25.9690   34.9510 H   0  0  0  0  0  0  0  0  0  0  0  0
   43.6210   24.1260   36.1130 C   0  0  0  0  0  3  0  0  0  0  0  0
   42.7590   23.1330   36.5440 C   0  0  0  0  0  3  0  0  0  0  0  0
  1  4  1  6  0  0  0
  1  2  1  0  0  0  0
  1  3  1  0  0  0  0
  2  3  1  0  0  0  0
  2  6  1  0  0  0  0
  2  5  1  0  0  0  0
  3  7  1  1  0  0  0
  3 20  1  0  0  0  0
  8  9  1  0  0  0  0
  8  1  1  0  0  0  0
 10  8  1  0  0  0  0
 11 16  2  0  0  0  0
 11 12  1  0  0  0  0
 12 13  2  0  0  0  0
 13 14  1  0  0  0  0
 13  8  1  0  0  0  0
 15 19  1  0  0  0  0
 15 14  2  0  0  0  0
 16 15  1  0  0  0  0
 17 11  1  0  0  0  0
 18 12  1  0  0  0  0
 20 21  1  0  0  0  0
 20 22  1  0  0  0  0
 23 24  1  0  0  0  0
 23 28  1  0  0  0  0
 23 20  1  0  0  0  0
 25 23  1  0  0  0  0
 27 34  1  0  0  0  0
 27 26  1  0  0  0  0
 28 27  2  0  0  0  0
 29 31  2  0  0  0  0
 29 28  1  0  0  0  0
 30 29  1  0  0  0  0
 31 33  1  0  0  0  0
 32 31  1  0  0  0  0
 33 34  2  0  0  0  0
M  END
>  <minimizedAffinity>
-4.78001738

$$$$

 OpenBabel03262520473D

 34 36  0  0  1  0  0  0  0  0999 V2000
   40.1030   26.6340   32.3710 C   0  0  1  0  0  0  0  0  0  0  0  0
   41.3290   27.4870   32.6730 C   0  0  0  0  0  0  0  0  0  0  0  0
   40.5050   26.9270   33.7590 C   0  0  2  0  0  0  0  0  0  0  0  0
   40.2480   25.6080   31.9690 H   0  0  0  0  0  0  0  0  0  0  0  0
   42.3120   27.0100   32.5200 H   0  0  0  0  0  0  0  0  0  0  0  0
   41.2930   28.5590   32.4350 H   0  0  0  0  0  0  0  0  0  0  0  0
   39.8820   27.6590   34.3200 H   0  0  0  0  0  0  0  0  0  0  0  0
   38.9590   27.3900   31.7410 C   0  0  0  0  0  0  0  0  0  0  0  0
   38.5810   28.1010   32.5320 H   0  0  0  0  0  0  0  0  0  0  0  0
   39.2790   28.0130   30.9010 H   0  0  0  0  0  0  0  0  0  0  0  0
   37.0470   24.2840   30.9080 C   0  0  0  0  0  0  0  0  0  0  0  0
   38.1170   25.1790   31.1950 C   0  0  0  0  0  0  0  0  0  0  0  0
   37.8180   26.4990   31.4480 C   0  0  0  0  0  0  0  0  0  0  0  0
   36.5290   26.8900   31.4150 N   0  0  0  0  0  0  0  0  0  0  0  0
   35.5320   26.0360   31.1430 C   0  0  0  0  0  0  0  0  0  0  0  0
   35.8060   24.7520   30.8960 N   0  0  0  0  0  0  0  0  0  0  0  0
   37.2580   23.2360   30.7050 H   0  0  0  0  0  0  0  0  0  0  0  0
   39.1130   24.7400   31.1920 H   0  0  0  0  0  0  0  0  0  0  0  0
   34.5390   26.5070   31.1540 H   0  0  0  0  0  0  0  0  0  0  0  0
   40.9500   25.7300   34.5620 C   0  0  0  0  0  0  0  0  0  0  0  0
   41.0980   25.9660   35.6170 H   0  0  0  0  0  0  0  0  0  0  0  0
   41.9150   25.3750   34.1520 H   0  0  0  0  0  0  0  0  0  0  0  0
   39.9750   24.5800   34.4680 C   0  0  0  0  0  0  0  0  0  0  0  0
   39.0660   24.9970   33.9510 H   0  0  0  0  0  0  0  0  0  0  0  0
   40.3560   23.7690   33.8240 H   0  0  0  0  0  0  0  0  0  0  0  0
   37.4810   25.9250   35.4340 Cl  0  0  0  0  0  0  0  0  0  0  0  0
   38.4040   24.7170   36.3040 C   0  0  0  0  0  0  0  0  0  0  0  0
   39.5630   24.1200   35.8050 C   0  0  0  0  0  0  0  0  0  0  0  0
   40.1940   23.1870   36.5850 C   0  0  0  0  0  0  0  0  0  0  0  0
   41.0870   22.7660   36.1360 H   0  0  0  0  0  0  0  0  0  0  0  0
   39.7330   22.8200   37.8290 C   0  0  0  0  0  0  0  0  0  0  0  0
   40.3090   22.0680   38.3700 H   0  0  0  0  0  0  0  0  0  0  0  0
   38.5910   23.4140   38.3090 C   0  0  0  0  0  3  0  0  0  0  0  0
   37.9310   24.3600   37.5440 C   0  0  0  0  0  3  0  0  0  0  0  0
  1  4  1  6  0  0  0
  1  2  1  0  0  0  0
  1  3  1  0  0  0  0
  2  3  1  0  0  0  0
  3  7  1  1  0  0  0
  3 20  1  0  0  0  0
  5  2  1  0  0  0  0
  6  2  1  0  0  0  0
  8  1  1  0  0  0  0
  8  9  1  0  0  0  0
 10  8  1  0  0  0  0
 11 12  1  0  0  0  0
 12 13  2  0  0  0  0
 13  8  1  0  0  0  0
 14 13  1  0  0  0  0
 15 19  1  0  0  0  0
 15 14  2  0  0  0  0
 16 11  2  0  0  0  0
 16 15  1  0  0  0  0
 17 11  1  0  0  0  0
 18 12  1  0  0  0  0
 20 21  1  0  0  0  0
 22 20  1  0  0  0  0
 23 20  1  0  0  0  0
 23 28  1  0  0  0  0
 24 23  1  0  0  0  0
 25 23  1  0  0  0  0
 26 27  1  0  0  0  0
 27 34  1  0  0  0  0
 28 27  2  0  0  0  0
 28 29  1  0  0  0  0
 29 31  2  0  0  0  0
 30 29  1  0  0  0  0
 31 33  1  0  0  0  0
 31 32  1  0  0  0  0
 34 33  2  0  0  0  0
M  END
>  <minimizedAffinity>
-4.77495146

$$$$

 OpenBabel03262520473D

 34 36  0  0  1  0  0  0  0  0999 V2000
   36.2750   25.5100   32.0310 C   0  0  1  0  0  0  0  0  0  0  0  0
   35.2900   25.5780   30.8710 C   0  0  0  0  0  0  0  0  0  0  0  0
   36.1530   24.4010   31.0690 C   0  0  2  0  0  0  0  0  0  0  0  0
   35.8820   25.3810   33.0630 H   0  0  0  0  0  0  0  0  0  0  0  0
   34.2240   25.4420   31.1200 H   0  0  0  0  0  0  0  0  0  0  0  0
   35.4870   26.2890   30.0570 H   0  0  0  0  0  0  0  0  0  0  0  0
   36.9790   24.2780   30.3340 H   0  0  0  0  0  0  0  0  0  0  0  0
   37.4290   26.4770   31.9260 C   0  0  0  0  0  0  0  0  0  0  0  0
   38.2410   25.9340   31.3590 H   0  0  0  0  0  0  0  0  0  0  0  0
   37.1830   27.3610   31.3300 H   0  0  0  0  0  0  0  0  0  0  0  0
   37.7010   27.6540   35.4670 C   0  0  0  0  0  0  0  0  0  0  0  0
   37.1790   27.3550   34.1750 C   0  0  0  0  0  0  0  0  0  0  0  0
   38.0130   26.7690   33.2500 C   0  0  0  0  0  0  0  0  0  0  0  0
   39.2860   26.5020   33.6020 N   0  0  0  0  0  0  0  0  0  0  0  0
   39.7640   26.7900   34.8210 C   0  0  0  0  0  0  0  0  0  0  0  0
   38.9660   27.3580   35.7300 N   0  0  0  0  0  0  0  0  0  0  0  0
   37.0610   28.1170   36.2140 H   0  0  0  0  0  0  0  0  0  0  0  0
   36.1350   27.6190   34.0160 H   0  0  0  0  0  0  0  0  0  0  0  0
   40.8190   26.5110   34.9530 H   0  0  0  0  0  0  0  0  0  0  0  0
   35.6220   23.1100   31.6450 C   0  0  0  0  0  0  0  0  0  0  0  0
   35.2380   22.4370   30.8770 H   0  0  0  0  0  0  0  0  0  0  0  0
   34.7920   23.3530   32.3350 H   0  0  0  0  0  0  0  0  0  0  0  0
   36.6650   22.3670   32.4460 C   0  0  0  0  0  0  0  0  0  0  0  0
   37.6490   22.6020   31.9520 H   0  0  0  0  0  0  0  0  0  0  0  0
   36.7370   22.7450   33.4800 H   0  0  0  0  0  0  0  0  0  0  0  0
   38.6830   21.0020   30.7050 Cl  0  0  0  0  0  0  0  0  0  0  0  0
   37.3720   20.2250   31.5690 C   0  0  0  0  0  0  0  0  0  0  0  0
   36.4580   20.9100   32.3700 C   0  0  0  0  0  0  0  0  0  0  0  0
   35.4760   20.1860   32.9930 C   0  0  0  0  0  0  0  0  0  0  0  0
   34.8020   20.7820   33.5980 H   0  0  0  0  0  0  0  0  0  0  0  0
   35.3600   18.8210   32.8610 C   0  0  0  0  0  0  0  0  0  0  0  0
   34.5440   18.3370   33.3990 H   0  0  0  0  0  0  0  0  0  0  0  0
   36.2670   18.1560   32.0710 C   0  0  0  0  0  3  0  0  0  0  0  0
   37.2700   18.8610   31.4280 C   0  0  0  0  0  3  0  0  0  0  0  0
  1  4  1  1  0  0  0
  2  3  1  0  0  0  0
  2  5  1  0  0  0  0
  2  1  1  0  0  0  0
  3  7  1  6  0  0  0
  3 20  1  0  0  0  0
  3  1  1  0  0  0  0
  6  2  1  0  0  0  0
  8  1  1  0  0  0  0
  8 13  1  0  0  0  0
  9  8  1  0  0  0  0
 10  8  1  0  0  0  0
 11 16  1  0  0  0  0
 11 17  1  0  0  0  0
 12 11  2  0  0  0  0
 13 14  2  0  0  0  0
 13 12  1  0  0  0  0
 14 15  1  0  0  0  0
 15 19  1  0  0  0  0
 15 16  2  0  0  0  0
 18 12  1  0  0  0  0
 20 22  1  0  0  0  0
 20 23  1  0  0  0  0
 21 20  1  0  0  0  0
 23 25  1  0  0  0  0
 24 23  1  0  0  0  0
 26 27  1  0  0  0  0
 27 28  1  0  0  0  0
 28 23  1  0  0  0  0
 28 29  2  0  0  0  0
 29 30  1  0  0  0  0
 31 29  1  0  0  0  0
 31 32  1  0  0  0  0
 33 31  2  0  0  0  0
 34 27  2  0  0  0  0
 34 33  1  0  0  0  0
M  END
>  <minimizedAffinity>
-4.73238039

$$$$

 OpenBabel03262520473D

 34 36  0  0  1  0  0  0  0  0999 V2000
   38.0990   23.2610   35.6400 C   0  0  1  0  0  0  0  0  0  0  0  0
   39.0940   23.1880   36.7910 C   0  0  0  0  0  0  0  0  0  0  0  0
   38.9030   24.4340   36.0270 C   0  0  2  0  0  0  0  0  0  0  0  0
   37.0110   23.2490   35.8690 H   0  0  0  0  0  0  0  0  0  0  0  0
   38.6710   23.1780   37.8100 H   0  0  0  0  0  0  0  0  0  0  0  0
   40.0010   22.5830   36.6620 H   0  0  0  0  0  0  0  0  0  0  0  0
   39.7390   24.7180   35.3490 H   0  0  0  0  0  0  0  0  0  0  0  0
   38.4850   22.4460   34.4300 C   0  0  0  0  0  0  0  0  0  0  0  0
   39.4230   22.9230   34.0180 H   0  0  0  0  0  0  0  0  0  0  0  0
   38.7550   21.4180   34.6850 H   0  0  0  0  0  0  0  0  0  0  0  0
   36.5330   23.9200   31.5990 C   0  0  0  0  0  0  0  0  0  0  0  0
   37.4820   23.7560   32.6490 C   0  0  0  0  0  0  0  0  0  0  0  0
   37.4850   22.5720   33.3510 C   0  0  0  0  0  0  0  0  0  0  0  0
   36.5930   21.6180   33.0180 N   0  0  0  0  0  0  0  0  0  0  0  0
   35.7060   21.7870   32.0280 C   0  0  0  0  0  0  0  0  0  0  0  0
   35.6910   22.9300   31.3370 N   0  0  0  0  0  0  0  0  0  0  0  0
   36.5110   24.8470   31.0310 H   0  0  0  0  0  0  0  0  0  0  0  0
   38.1470   24.6000   32.8190 H   0  0  0  0  0  0  0  0  0  0  0  0
   35.0480   20.9180   31.8780 H   0  0  0  0  0  0  0  0  0  0  0  0
   38.1150   25.5960   36.5800 C   0  0  0  0  0  0  0  0  0  0  0  0
   38.1240   25.6260   37.6710 H   0  0  0  0  0  0  0  0  0  0  0  0
   37.0640   25.4920   36.2490 H   0  0  0  0  0  0  0  0  0  0  0  0
   38.6150   26.9260   36.0670 C   0  0  0  0  0  0  0  0  0  0  0  0
   38.0590   27.7060   36.6590 H   0  0  0  0  0  0  0  0  0  0  0  0
   39.6860   27.0740   36.2850 H   0  0  0  0  0  0  0  0  0  0  0  0
   41.0200   26.8420   34.2860 Cl  0  0  0  0  0  0  0  0  0  0  0  0
   39.3630   27.0810   33.7700 C   0  0  0  0  0  0  0  0  0  0  0  0
   38.2760   27.1110   34.6450 C   0  0  0  0  0  0  0  0  0  0  0  0
   37.0280   27.3050   34.1160 C   0  0  0  0  0  0  0  0  0  0  0  0
   36.2310   27.3180   34.8530 H   0  0  0  0  0  0  0  0  0  0  0  0
   36.8070   27.4700   32.7680 C   0  0  0  0  0  0  0  0  0  0  0  0
   35.7750   27.6190   32.4480 H   0  0  0  0  0  0  0  0  0  0  0  0
   37.8850   27.4380   31.9160 C   0  0  0  0  0  3  0  0  0  0  0  0
   39.1580   27.2430   32.4210 C   0  0  0  0  0  3  0  0  0  0  0  0
  1  4  1  1  0  0  0
  1  3  1  0  0  0  0
  1  2  1  0  0  0  0
  2  5  1  0  0  0  0
  3  7  1  6  0  0  0
  3 20  1  0  0  0  0
  3  2  1  0  0  0  0
  6  2  1  0  0  0  0
  8 10  1  0  0  0  0
  8  1  1  0  0  0  0
  9  8  1  0  0  0  0
 11 12  1  0  0  0  0
 12 18  1  0  0  0  0
 12 13  2  0  0  0  0
 13  8  1  0  0  0  0
 14 13  1  0  0  0  0
 15 14  2  0  0  0  0
 16 11  2  0  0  0  0
 16 15  1  0  0  0  0
 17 11  1  0  0  0  0
 19 15  1  0  0  0  0
 20 21  1  0  0  0  0
 22 20  1  0  0  0  0
 23 25  1  0  0  0  0
 23 20  1  0  0  0  0
 23 24  1  0  0  0  0
 27 26  1  0  0  0  0
 27 28  1  0  0  0  0
 28 23  1  0  0  0  0
 29 28  2  0  0  0  0
 29 30  1  0  0  0  0
 31 29  1  0  0  0  0
 32 31  1  0  0  0  0
 33 34  1  0  0  0  0
 33 31  2  0  0  0  0
 34 27  2  0  0  0  0
M  END
>  <minimizedAffinity>
-4.7102704

$$$$
