
 OpenBabel03272503513D

 37 39  0  0  1  0  0  0  0  0999 V2000
   37.9960   24.4420   32.6070 C   0  0  1  0  0  0  0  0  0  0  0  0
   37.1190   25.6170   33.1000 C   0  0  2  0  0  0  0  0  0  0  0  0
   36.2930   25.8500   32.0460 O   0  0  0  0  0  0  0  0  0  0  0  0
   35.8590   24.5900   31.6580 C   0  0  0  0  0  0  0  0  0  0  0  0
   36.9890   23.6180   31.8730 C   0  0  2  0  0  0  0  0  0  0  0  0
   38.4390   23.9110   33.4720 H   0  0  0  0  0  0  0  0  0  0  0  0
   36.6110   25.2630   34.0370 H   0  0  0  0  0  0  0  0  0  0  0  0
   34.9510   24.3690   32.2270 H   0  0  0  0  0  0  0  0  0  0  0  0
   35.6870   24.6480   30.5510 H   0  0  0  0  0  0  0  0  0  0  0  0
   37.4500   23.2830   30.9260 H   0  0  0  0  0  0  0  0  0  0  0  0
   39.0470   24.9130   31.8460 O   0  0  0  0  0  0  0  0  0  0  0  0
   39.8810   25.0180   32.3490 H   0  0  0  0  0  0  0  0  0  0  0  0
   38.0080   26.6000   33.4190 O   0  0  0  0  0  0  0  0  0  0  0  0
   39.7740   26.8760   35.3600 O   0  0  0  0  0  0  0  0  0  0  0  0
   38.2830   26.7690   35.0690 P   0  0  1  0  0  0  0  0  0  0  0  0
   37.6210   28.2260   35.6210 O   0  0  0  0  0  0  0  0  0  0  0  0
   36.6610   28.0200   35.8570 H   0  0  0  0  0  0  0  0  0  0  0  0
   37.5320   25.4370   35.8290 O   0  0  0  0  0  0  0  0  0  0  0  0
   38.2470   24.5400   36.6120 C   0  0  0  0  0  0  0  0  0  0  0  0
   38.0200   24.3270   37.9840 C   0  0  0  0  0  0  0  0  0  0  0  0
   38.8140   23.3950   38.6370 C   0  0  0  0  0  0  0  0  0  0  0  0
   39.7750   22.7320   37.9190 N   0  0  0  0  0  0  0  0  0  0  0  0
   39.9710   22.9610   36.5950 C   0  0  0  0  0  0  0  0  0  0  0  0
   39.2030   23.8700   35.9300 N   0  0  0  0  0  0  0  0  0  0  0  0
   37.2340   24.9060   38.4480 H   0  0  0  0  0  0  0  0  0  0  0  0
   38.6480   23.2250   39.6910 H   0  0  0  0  0  0  0  0  0  0  0  0
   40.7310   22.4330   36.0370 H   0  0  0  0  0  0  0  0  0  0  0  0
   36.5850   22.5400   32.6220 O   0  0  0  0  0  0  0  0  0  0  0  0
   35.6550   20.9190   34.8980 Cl  0  0  0  0  0  0  0  0  0  0  0  0
   35.8930   20.3840   33.2260 C   0  0  0  0  0  0  0  0  0  0  0  0
   36.3380   21.2530   32.2430 C   0  0  0  0  0  0  0  0  0  0  0  0
   36.4910   20.7400   30.9710 C   0  0  0  0  0  0  0  0  0  0  0  0
   36.8360   21.4060   30.1980 H   0  0  0  0  0  0  0  0  0  0  0  0
   36.2290   19.4320   30.6330 C   0  0  0  0  0  0  0  0  0  0  0  0
   36.3510   19.0380   29.6340 H   0  0  0  0  0  0  0  0  0  0  0  0
   35.7850   18.5530   31.5990 C   0  0  0  0  0  3  0  0  0  0  0  0
   35.6270   19.0550   32.8780 C   0  0  0  0  0  3  0  0  0  0  0  0
  1  2  1  0  0  0  0
  1  6  1  1  0  0  0
  2 13  1  0  0  0  0
  2  7  1  1  0  0  0
  3  2  1  0  0  0  0
  4  5  1  0  0  0  0
  4  3  1  0  0  0  0
  4  8  1  0  0  0  0
  5 10  1  6  0  0  0
  5  1  1  0  0  0  0
  5 28  1  0  0  0  0
  9  4  1  0  0  0  0
 11 12  1  0  0  0  0
 11  1  1  0  0  0  0
 13 15  1  0  0  0  0
 15 14  2  1  0  0  0
 15 16  1  0  0  0  0
 15 18  1  0  0  0  0
 16 17  1  0  0  0  0
 18 19  1  0  0  0  0
 19 20  1  0  0  0  0
 20 25  1  0  0  0  0
 20 21  2  0  0  0  0
 21 26  1  0  0  0  0
 22 21  1  0  0  0  0
 23 22  2  0  0  0  0
 24 23  1  0  0  0  0
 24 19  2  0  0  0  0
 27 23  1  0  0  0  0
 30 29  1  0  0  0  0
 31 28  1  0  0  0  0
 31 30  2  0  0  0  0
 32 31  1  0  0  0  0
 33 32  1  0  0  0  0
 34 32  2  0  0  0  0
 34 36  1  0  0  0  0
 35 34  1  0  0  0  0
 36 37  2  0  0  0  0
 37 30  1  0  0  0  0
M  END
>  <minimizedAffinity>
-5.99255705

$$$$

 OpenBabel03272503513D

 37 39  0  0  1  0  0  0  0  0999 V2000
   38.3270   26.0520   31.6370 C   0  0  1  0  0  0  0  0  0  0  0  0
   37.5070   26.3240   32.9200 C   0  0  2  0  0  0  0  0  0  0  0  0
   36.2880   26.6840   32.4380 O   0  0  0  0  0  0  0  0  0  0  0  0
   36.0110   25.7460   31.4540 C   0  0  0  0  0  0  0  0  0  0  0  0
   37.3060   25.3780   30.7790 C   0  0  2  0  0  0  0  0  0  0  0  0
   39.1920   25.4010   31.8710 H   0  0  0  0  0  0  0  0  0  0  0  0
   37.5230   25.3720   33.5160 H   0  0  0  0  0  0  0  0  0  0  0  0
   35.4930   24.9120   31.9350 H   0  0  0  0  0  0  0  0  0  0  0  0
   35.3860   26.2740   30.6870 H   0  0  0  0  0  0  0  0  0  0  0  0
   37.3910   25.7940   29.7600 H   0  0  0  0  0  0  0  0  0  0  0  0
   38.8390   27.2320   31.1350 O   0  0  0  0  0  0  0  0  0  0  0  0
   39.7620   27.4070   31.4070 H   0  0  0  0  0  0  0  0  0  0  0  0
   38.2160   27.2790   33.5860 O   0  0  0  0  0  0  0  0  0  0  0  0
   40.5810   26.8910   34.6890 O   0  0  0  0  0  0  0  0  0  0  0  0
   39.0860   26.6960   34.9020 P   0  0  1  0  0  0  0  0  0  0  0  0
   38.7160   27.5960   36.2860 O   0  0  0  0  0  0  0  0  0  0  0  0
   37.9060   27.1530   36.6950 H   0  0  0  0  0  0  0  0  0  0  0  0
   38.6310   25.0620   35.1040 O   0  0  0  0  0  0  0  0  0  0  0  0
   38.7950   24.3990   36.3120 C   0  0  0  0  0  0  0  0  0  0  0  0
   39.7280   23.3680   36.5320 C   0  0  0  0  0  0  0  0  0  0  0  0
   39.7800   22.7970   37.7950 C   0  0  0  0  0  0  0  0  0  0  0  0
   38.9250   23.2620   38.7620 N   0  0  0  0  0  0  0  0  0  0  0  0
   38.0360   24.2570   38.5190 C   0  0  0  0  0  0  0  0  0  0  0  0
   37.9660   24.8360   37.2860 N   0  0  0  0  0  0  0  0  0  0  0  0
   40.3510   23.0820   35.6970 H   0  0  0  0  0  0  0  0  0  0  0  0
   40.4920   22.0040   37.9740 H   0  0  0  0  0  0  0  0  0  0  0  0
   37.3660   24.6170   39.2880 H   0  0  0  0  0  0  0  0  0  0  0  0
   37.4910   24.0160   30.7620 O   0  0  0  0  0  0  0  0  0  0  0  0
   39.4660   22.9730   32.6800 Cl  0  0  0  0  0  0  0  0  0  0  0  0
   37.7760   22.4740   32.5040 C   0  0  0  0  0  0  0  0  0  0  0  0
   36.9460   23.0490   31.5550 C   0  0  0  0  0  0  0  0  0  0  0  0
   35.6450   22.5910   31.4970 C   0  0  0  0  0  0  0  0  0  0  0  0
   34.9900   23.0310   30.7630 H   0  0  0  0  0  0  0  0  0  0  0  0
   35.1370   21.6110   32.3190 C   0  0  0  0  0  0  0  0  0  0  0  0
   34.1170   21.2590   32.2660 H   0  0  0  0  0  0  0  0  0  0  0  0
   35.9490   21.0290   33.2700 C   0  0  0  0  0  3  0  0  0  0  0  0
   37.2560   21.4790   33.3380 C   0  0  0  0  0  3  0  0  0  0  0  0
  1  6  1  1  0  0  0
  1  2  1  0  0  0  0
  2  7  1  1  0  0  0
  2 13  1  0  0  0  0
  3  2  1  0  0  0  0
  4  8  1  0  0  0  0
  4  3  1  0  0  0  0
  5 10  1  6  0  0  0
  5  4  1  0  0  0  0
  5  1  1  0  0  0  0
  9  4  1  0  0  0  0
 11 12  1  0  0  0  0
 11  1  1  0  0  0  0
 13 15  1  0  0  0  0
 15 14  2  6  0  0  0
 15 18  1  0  0  0  0
 15 16  1  0  0  0  0
 16 17  1  0  0  0  0
 18 19  1  0  0  0  0
 19 20  2  0  0  0  0
 19 24  1  0  0  0  0
 20 21  1  0  0  0  0
 21 26  1  0  0  0  0
 21 22  2  0  0  0  0
 23 22  1  0  0  0  0
 23 27  1  0  0  0  0
 24 23  2  0  0  0  0
 25 20  1  0  0  0  0
 28  5  1  0  0  0  0
 28 31  1  0  0  0  0
 30 29  1  0  0  0  0
 30 37  1  0  0  0  0
 31 30  2  0  0  0  0
 32 31  1  0  0  0  0
 32 34  2  0  0  0  0
 33 32  1  0  0  0  0
 34 36  1  0  0  0  0
 35 34  1  0  0  0  0
 36 37  2  0  0  0  0
M  END
>  <minimizedAffinity>
-5.75755024

$$$$

 OpenBabel03272503513D

 37 39  0  0  1  0  0  0  0  0999 V2000
   38.8450   23.6580   36.0040 C   0  0  1  0  0  0  0  0  0  0  0  0
   38.1890   24.8630   36.7180 C   0  0  2  0  0  0  0  0  0  0  0  0
   37.6140   24.2990   37.8130 O   0  0  0  0  0  0  0  0  0  0  0  0
   38.5910   23.4550   38.3240 C   0  0  0  0  0  0  0  0  0  0  0  0
   39.3660   22.8800   37.1680 C   0  0  2  0  0  0  0  0  0  0  0  0
   39.6470   24.0090   35.3260 H   0  0  0  0  0  0  0  0  0  0  0  0
   39.0160   25.5920   36.9350 H   0  0  0  0  0  0  0  0  0  0  0  0
   39.1890   24.0390   39.0300 H   0  0  0  0  0  0  0  0  0  0  0  0
   38.0450   22.6020   38.8050 H   0  0  0  0  0  0  0  0  0  0  0  0
   39.1400   21.8130   36.9920 H   0  0  0  0  0  0  0  0  0  0  0  0
   37.9170   23.0020   35.2190 O   0  0  0  0  0  0  0  0  0  0  0  0
   37.9380   23.2720   34.2780 H   0  0  0  0  0  0  0  0  0  0  0  0
   37.3520   25.4010   35.7870 O   0  0  0  0  0  0  0  0  0  0  0  0
   37.0740   27.9100   35.0170 O   0  0  0  0  0  0  0  0  0  0  0  0
   38.0040   26.7050   34.9490 P   0  0  1  0  0  0  0  0  0  0  0  0
   39.4380   27.2120   35.6900 O   0  0  0  0  0  0  0  0  0  0  0  0
   40.1720   26.6520   35.2810 H   0  0  0  0  0  0  0  0  0  0  0  0
   38.3040   26.1630   33.3570 O   0  0  0  0  0  0  0  0  0  0  0  0
   37.3040   25.6080   32.5710 C   0  0  0  0  0  0  0  0  0  0  0  0
   36.3630   26.3540   31.8370 C   0  0  0  0  0  0  0  0  0  0  0  0
   35.4200   25.6600   31.0930 C   0  0  0  0  0  0  0  0  0  0  0  0
   35.4490   24.2890   31.1090 N   0  0  0  0  0  0  0  0  0  0  0  0
   36.3690   23.5980   31.8270 C   0  0  0  0  0  0  0  0  0  0  0  0
   37.3080   24.2560   32.5660 N   0  0  0  0  0  0  0  0  0  0  0  0
   36.4350   27.4310   31.8990 H   0  0  0  0  0  0  0  0  0  0  0  0
   34.6930   26.2250   30.5270 H   0  0  0  0  0  0  0  0  0  0  0  0
   36.3840   22.5160   31.8330 H   0  0  0  0  0  0  0  0  0  0  0  0
   40.7170   23.0680   37.3290 O   0  0  0  0  0  0  0  0  0  0  0  0
   42.5260   24.5040   35.5030 Cl  0  0  0  0  0  0  0  0  0  0  0  0
   42.6900   22.8390   36.0860 C   0  0  0  0  0  0  0  0  0  0  0  0
   41.7620   22.2790   36.9490 C   0  0  0  0  0  0  0  0  0  0  0  0
   41.9790   20.9750   37.3460 C   0  0  0  0  0  0  0  0  0  0  0  0
   41.2650   20.5290   38.0170 H   0  0  0  0  0  0  0  0  0  0  0  0
   43.0510   20.2150   36.9360 C   0  0  0  0  0  0  0  0  0  0  0  0
   43.2140   19.1940   37.2520 H   0  0  0  0  0  0  0  0  0  0  0  0
   43.9850   20.7570   36.0770 C   0  0  0  0  0  3  0  0  0  0  0  0
   43.7780   22.0640   35.6720 C   0  0  0  0  0  3  0  0  0  0  0  0
  1  6  1  6  0  0  0
  1  2  1  0  0  0  0
  1  5  1  0  0  0  0
  2  7  1  1  0  0  0
  2  3  1  0  0  0  0
  3  4  1  0  0  0  0
  4  9  1  0  0  0  0
  4  8  1  0  0  0  0
  5 10  1  6  0  0  0
  5 28  1  0  0  0  0
  5  4  1  0  0  0  0
 11  1  1  0  0  0  0
 12 11  1  0  0  0  0
 13  2  1  0  0  0  0
 15 14  2  6  0  0  0
 15 16  1  0  0  0  0
 15 13  1  0  0  0  0
 17 16  1  0  0  0  0
 18 15  1  0  0  0  0
 19 18  1  0  0  0  0
 20 25  1  0  0  0  0
 20 19  2  0  0  0  0
 21 22  2  0  0  0  0
 21 20  1  0  0  0  0
 22 23  1  0  0  0  0
 23 27  1  0  0  0  0
 23 24  2  0  0  0  0
 24 19  1  0  0  0  0
 26 21  1  0  0  0  0
 29 30  1  0  0  0  0
 30 31  1  0  0  0  0
 31 28  1  0  0  0  0
 31 32  2  0  0  0  0
 32 33  1  0  0  0  0
 34 35  1  0  0  0  0
 34 32  1  0  0  0  0
 36 34  2  0  0  0  0
 37 36  1  0  0  0  0
 37 30  2  0  0  0  0
M  END
>  <minimizedAffinity>
-5.53181934

$$$$

 OpenBabel03272503513D

 37 39  0  0  1  0  0  0  0  0999 V2000
   35.7520   27.3410   31.4230 C   0  0  1  0  0  0  0  0  0  0  0  0
   36.2690   25.9940   31.9800 C   0  0  2  0  0  0  0  0  0  0  0  0
   37.4670   26.3260   32.5310 O   0  0  0  0  0  0  0  0  0  0  0  0
   37.2100   27.4840   33.2520 C   0  0  0  0  0  0  0  0  0  0  0  0
   36.1750   28.2820   32.5040 C   0  0  2  0  0  0  0  0  0  0  0  0
   34.6530   27.3010   31.2930 H   0  0  0  0  0  0  0  0  0  0  0  0
   35.4930   25.6310   32.7070 H   0  0  0  0  0  0  0  0  0  0  0  0
   36.9130   27.1810   34.2600 H   0  0  0  0  0  0  0  0  0  0  0  0
   38.1590   28.0820   33.2290 H   0  0  0  0  0  0  0  0  0  0  0  0
   36.5960   29.1830   32.0230 H   0  0  0  0  0  0  0  0  0  0  0  0
   36.2940   27.5850   30.1770 O   0  0  0  0  0  0  0  0  0  0  0  0
   35.7100   27.3220   29.4360 H   0  0  0  0  0  0  0  0  0  0  0  0
   36.2940   25.1620   30.9010 O   0  0  0  0  0  0  0  0  0  0  0  0
   38.0840   23.3090   30.3310 O   0  0  0  0  0  0  0  0  0  0  0  0
   36.8970   23.6270   31.2310 P   0  0  1  0  0  0  0  0  0  0  0  0
   37.5110   23.5710   32.8070 O   0  0  0  0  0  0  0  0  0  0  0  0
   36.7290   23.3320   33.3990 H   0  0  0  0  0  0  0  0  0  0  0  0
   35.5920   22.5400   31.0510 O   0  0  0  0  0  0  0  0  0  0  0  0
   35.6780   21.2170   31.4630 C   0  0  0  0  0  0  0  0  0  0  0  0
   35.2720   20.7500   32.7270 C   0  0  0  0  0  0  0  0  0  0  0  0
   35.4170   19.3970   32.9970 C   0  0  0  0  0  0  0  0  0  0  0  0
   35.9450   18.5850   32.0260 N   0  0  0  0  0  0  0  0  0  0  0  0
   36.3280   19.0660   30.8170 C   0  0  0  0  0  0  0  0  0  0  0  0
   36.1950   20.3910   30.5250 N   0  0  0  0  0  0  0  0  0  0  0  0
   34.8690   21.4800   33.4140 H   0  0  0  0  0  0  0  0  0  0  0  0
   35.1090   19.0290   33.9660 H   0  0  0  0  0  0  0  0  0  0  0  0
   36.7440   18.4180   30.0570 H   0  0  0  0  0  0  0  0  0  0  0  0
   35.1190   28.6160   33.3160 O   0  0  0  0  0  0  0  0  0  0  0  0
   32.2990   29.1540   33.9740 Cl  0  0  0  0  0  0  0  0  0  0  0  0
   33.7290   29.9540   34.6470 C   0  0  0  0  0  0  0  0  0  0  0  0
   35.0100   29.6040   34.2490 C   0  0  0  0  0  0  0  0  0  0  0  0
   36.0580   30.2870   34.8320 C   0  0  0  0  0  0  0  0  0  0  0  0
   37.0580   30.0240   34.5320 H   0  0  0  0  0  0  0  0  0  0  0  0
   35.9010   31.2800   35.7730 C   0  0  0  0  0  0  0  0  0  0  0  0
   36.7280   31.8090   36.2250 H   0  0  0  0  0  0  0  0  0  0  0  0
   34.6330   31.6400   36.1800 C   0  0  0  0  0  3  0  0  0  0  0  0
   33.5740   30.9630   35.6030 C   0  0  0  0  0  3  0  0  0  0  0  0
  1  6  1  6  0  0  0
  1  2  1  0  0  0  0
  1  5  1  0  0  0  0
  2  3  1  0  0  0  0
  2  7  1  1  0  0  0
  3  4  1  0  0  0  0
  4  8  1  0  0  0  0
  5 10  1  6  0  0  0
  5  4  1  0  0  0  0
  5 28  1  0  0  0  0
  9  4  1  0  0  0  0
 11  1  1  0  0  0  0
 12 11  1  0  0  0  0
 13 15  1  0  0  0  0
 13  2  1  0  0  0  0
 15 14  2  6  0  0  0
 15 16  1  0  0  0  0
 16 17  1  0  0  0  0
 18 15  1  0  0  0  0
 18 19  1  0  0  0  0
 19 20  1  0  0  0  0
 20 21  2  0  0  0  0
 20 25  1  0  0  0  0
 21 26  1  0  0  0  0
 22 21  1  0  0  0  0
 23 22  2  0  0  0  0
 24 23  1  0  0  0  0
 24 19  2  0  0  0  0
 27 23  1  0  0  0  0
 28 31  1  0  0  0  0
 29 30  1  0  0  0  0
 30 37  1  0  0  0  0
 31 30  2  0  0  0  0
 31 32  1  0  0  0  0
 32 34  2  0  0  0  0
 33 32  1  0  0  0  0
 34 36  1  0  0  0  0
 34 35  1  0  0  0  0
 37 36  2  0  0  0  0
M  END
>  <minimizedAffinity>
-5.5058794

$$$$

 OpenBabel03272503513D

 37 39  0  0  1  0  0  0  0  0999 V2000
   37.1170   25.1520   31.5730 C   0  0  1  0  0  0  0  0  0  0  0  0
   38.2290   24.0870   31.7250 C   0  0  2  0  0  0  0  0  0  0  0  0
   38.8750   24.1400   30.5310 O   0  0  0  0  0  0  0  0  0  0  0  0
   39.0460   25.4960   30.2870 C   0  0  0  0  0  0  0  0  0  0  0  0
   37.8450   26.2250   30.8300 C   0  0  2  0  0  0  0  0  0  0  0  0
   36.7670   25.4800   32.5710 H   0  0  0  0  0  0  0  0  0  0  0  0
   38.8430   24.3930   32.6150 H   0  0  0  0  0  0  0  0  0  0  0  0
   40.0000   25.7890   30.7330 H   0  0  0  0  0  0  0  0  0  0  0  0
   39.0200   25.6170   29.1720 H   0  0  0  0  0  0  0  0  0  0  0  0
   37.1770   26.6010   30.0350 H   0  0  0  0  0  0  0  0  0  0  0  0
   36.0240   24.6160   30.9210 O   0  0  0  0  0  0  0  0  0  0  0  0
   35.3200   24.3050   31.5260 H   0  0  0  0  0  0  0  0  0  0  0  0
   37.5630   22.9340   32.0180 O   0  0  0  0  0  0  0  0  0  0  0  0
   36.7970   21.3420   33.9780 O   0  0  0  0  0  0  0  0  0  0  0  0
   37.8750   22.3330   33.5570 P   0  0  1  0  0  0  0  0  0  0  0  0
   39.3140   21.4420   33.5510 O   0  0  0  0  0  0  0  0  0  0  0  0
   40.0520   22.1100   33.7210 H   0  0  0  0  0  0  0  0  0  0  0  0
   38.0040   23.6840   34.5940 O   0  0  0  0  0  0  0  0  0  0  0  0
   38.3310   23.5500   35.9360 C   0  0  0  0  0  0  0  0  0  0  0  0
   37.5430   24.0320   36.9980 C   0  0  0  0  0  0  0  0  0  0  0  0
   37.9970   23.8230   38.2910 C   0  0  0  0  0  0  0  0  0  0  0  0
   39.1850   23.1620   38.4730 N   0  0  0  0  0  0  0  0  0  0  0  0
   39.9230   22.7100   37.4280 C   0  0  0  0  0  0  0  0  0  0  0  0
   39.4980   22.9010   36.1460 N   0  0  0  0  0  0  0  0  0  0  0  0
   36.6240   24.5380   36.7370 H   0  0  0  0  0  0  0  0  0  0  0  0
   37.3990   24.1900   39.1140 H   0  0  0  0  0  0  0  0  0  0  0  0
   40.8590   22.1900   37.5800 H   0  0  0  0  0  0  0  0  0  0  0  0
   38.2200   27.2460   31.6700 O   0  0  0  0  0  0  0  0  0  0  0  0
   35.8440   28.1950   33.1270 Cl  0  0  0  0  0  0  0  0  0  0  0  0
   37.3860   27.6650   33.8200 C   0  0  0  0  0  0  0  0  0  0  0  0
   38.4320   27.2380   33.0170 C   0  0  0  0  0  0  0  0  0  0  0  0
   39.5920   26.8450   33.6520 C   0  0  0  0  0  0  0  0  0  0  0  0
   40.4120   26.5110   33.0390 H   0  0  0  0  0  0  0  0  0  0  0  0
   39.7630   26.8530   35.0180 C   0  0  0  0  0  0  0  0  0  0  0  0
   40.6750   26.5430   35.5070 H   0  0  0  0  0  0  0  0  0  0  0  0
   38.7310   27.2740   35.8320 C   0  0  0  0  0  3  0  0  0  0  0  0
   37.5620   27.6710   35.2070 C   0  0  0  0  0  3  0  0  0  0  0  0
  1  2  1  0  0  0  0
  1  6  1  1  0  0  0
  2 13  1  0  0  0  0
  2  7  1  1  0  0  0
  3  2  1  0  0  0  0
  4  3  1  0  0  0  0
  4  8  1  0  0  0  0
  4  5  1  0  0  0  0
  5 10  1  6  0  0  0
  5  1  1  0  0  0  0
  5 28  1  0  0  0  0
  9  4  1  0  0  0  0
 11 12  1  0  0  0  0
 11  1  1  0  0  0  0
 13 15  1  0  0  0  0
 15 14  2  1  0  0  0
 15 18  1  0  0  0  0
 16 15  1  0  0  0  0
 16 17  1  0  0  0  0
 18 19  1  0  0  0  0
 19 24  2  0  0  0  0
 19 20  1  0  0  0  0
 20 21  2  0  0  0  0
 21 22  1  0  0  0  0
 21 26  1  0  0  0  0
 23 27  1  0  0  0  0
 23 22  2  0  0  0  0
 24 23  1  0  0  0  0
 25 20  1  0  0  0  0
 28 31  1  0  0  0  0
 29 30  1  0  0  0  0
 30 37  1  0  0  0  0
 31 32  1  0  0  0  0
 31 30  2  0  0  0  0
 32 34  2  0  0  0  0
 33 32  1  0  0  0  0
 34 35  1  0  0  0  0
 34 36  1  0  0  0  0
 37 36  2  0  0  0  0
M  END
>  <minimizedAffinity>
-5.47059393

$$$$

 OpenBabel03272503513D

 37 39  0  0  1  0  0  0  0  0999 V2000
   38.6480   26.3410   33.7360 C   0  0  1  0  0  0  0  0  0  0  0  0
   37.6890   26.5640   32.5440 C   0  0  2  0  0  0  0  0  0  0  0  0
   38.2360   25.8050   31.5590 O   0  0  0  0  0  0  0  0  0  0  0  0
   38.5350   24.5980   32.1750 C   0  0  0  0  0  0  0  0  0  0  0  0
   38.9530   24.8850   33.5930 C   0  0  2  0  0  0  0  0  0  0  0  0
   38.1340   26.5820   34.6870 H   0  0  0  0  0  0  0  0  0  0  0  0
   36.6710   26.2380   32.8890 H   0  0  0  0  0  0  0  0  0  0  0  0
   37.6540   23.9560   32.0790 H   0  0  0  0  0  0  0  0  0  0  0  0
   39.4390   24.1940   31.6470 H   0  0  0  0  0  0  0  0  0  0  0  0
   40.0370   24.7480   33.7550 H   0  0  0  0  0  0  0  0  0  0  0  0
   39.7350   27.1880   33.6440 O   0  0  0  0  0  0  0  0  0  0  0  0
   39.6420   28.0050   34.1740 H   0  0  0  0  0  0  0  0  0  0  0  0
   37.6840   27.9140   32.3540 O   0  0  0  0  0  0  0  0  0  0  0  0
   36.7330   29.8830   30.8770 O   0  0  0  0  0  0  0  0  0  0  0  0
   36.4520   28.4630   31.3490 P   0  0  1  0  0  0  0  0  0  0  0  0
   36.3990   27.5320   29.9360 O   0  0  0  0  0  0  0  0  0  0  0  0
   35.8030   26.7450   30.1480 H   0  0  0  0  0  0  0  0  0  0  0  0
   34.9970   28.3090   32.2290 O   0  0  0  0  0  0  0  0  0  0  0  0
   34.5730   29.2850   33.1200 C   0  0  0  0  0  0  0  0  0  0  0  0
   35.3360   29.7570   34.2050 C   0  0  0  0  0  0  0  0  0  0  0  0
   34.7800   30.7390   35.0120 C   0  0  0  0  0  0  0  0  0  0  0  0
   33.5230   31.2000   34.7170 N   0  0  0  0  0  0  0  0  0  0  0  0
   32.8110   30.7240   33.6640 C   0  0  0  0  0  0  0  0  0  0  0  0
   33.3350   29.7600   32.8540 N   0  0  0  0  0  0  0  0  0  0  0  0
   36.3160   29.3220   34.3430 H   0  0  0  0  0  0  0  0  0  0  0  0
   35.3580   31.1070   35.8480 H   0  0  0  0  0  0  0  0  0  0  0  0
   31.8200   31.0930   33.4380 H   0  0  0  0  0  0  0  0  0  0  0  0
   38.2310   24.1340   34.4880 O   0  0  0  0  0  0  0  0  0  0  0  0
   40.4080   22.2100   34.9690 Cl  0  0  0  0  0  0  0  0  0  0  0  0
   39.4290   23.0480   36.1850 C   0  0  0  0  0  0  0  0  0  0  0  0
   38.4280   23.9350   35.8230 C   0  0  0  0  0  0  0  0  0  0  0  0
   37.7220   24.5370   36.8450 C   0  0  0  0  0  0  0  0  0  0  0  0
   36.9420   25.2290   36.5760 H   0  0  0  0  0  0  0  0  0  0  0  0
   37.9550   24.3060   38.1810 C   0  0  0  0  0  0  0  0  0  0  0  0
   37.3970   24.7820   38.9750 H   0  0  0  0  0  0  0  0  0  0  0  0
   38.9480   23.4260   38.5590 C   0  0  0  0  0  3  0  0  0  0  0  0
   39.6640   22.8160   37.5440 C   0  0  0  0  0  3  0  0  0  0  0  0
  1  6  1  1  0  0  0
  2  7  1  1  0  0  0
  2  1  1  0  0  0  0
  3  4  1  0  0  0  0
  3  2  1  0  0  0  0
  4  5  1  0  0  0  0
  5  1  1  0  0  0  0
  5 10  1  1  0  0  0
  5 28  1  0  0  0  0
  8  4  1  0  0  0  0
  9  4  1  0  0  0  0
 11  1  1  0  0  0  0
 11 12  1  0  0  0  0
 13  2  1  0  0  0  0
 15 14  2  6  0  0  0
 15 18  1  0  0  0  0
 15 13  1  0  0  0  0
 16 17  1  0  0  0  0
 16 15  1  0  0  0  0
 18 19  1  0  0  0  0
 19 20  1  0  0  0  0
 20 25  1  0  0  0  0
 20 21  2  0  0  0  0
 21 26  1  0  0  0  0
 22 21  1  0  0  0  0
 23 22  2  0  0  0  0
 24 19  2  0  0  0  0
 24 23  1  0  0  0  0
 27 23  1  0  0  0  0
 28 31  1  0  0  0  0
 29 30  1  0  0  0  0
 30 37  1  0  0  0  0
 31 30  2  0  0  0  0
 31 32  1  0  0  0  0
 32 34  2  0  0  0  0
 33 32  1  0  0  0  0
 34 36  1  0  0  0  0
 34 35  1  0  0  0  0
 37 36  2  0  0  0  0
M  END
>  <minimizedAffinity>
-5.44827414

$$$$

 OpenBabel03272503513D

 37 39  0  0  1  0  0  0  0  0999 V2000
   35.7070   26.7600   31.5200 C   0  0  1  0  0  0  0  0  0  0  0  0
   36.7370   26.3410   32.5950 C   0  0  2  0  0  0  0  0  0  0  0  0
   37.8740   26.9710   32.1990 O   0  0  0  0  0  0  0  0  0  0  0  0
   37.4670   28.2620   31.8910 C   0  0  0  0  0  0  0  0  0  0  0  0
   36.0820   28.1900   31.3030 C   0  0  2  0  0  0  0  0  0  0  0  0
   34.6790   26.6390   31.9120 H   0  0  0  0  0  0  0  0  0  0  0  0
   36.3220   26.6800   33.5830 H   0  0  0  0  0  0  0  0  0  0  0  0
   37.5450   28.8550   32.8070 H   0  0  0  0  0  0  0  0  0  0  0  0
   38.1480   28.6160   31.0720 H   0  0  0  0  0  0  0  0  0  0  0  0
   36.0690   28.3830   30.2160 H   0  0  0  0  0  0  0  0  0  0  0  0
   35.8110   25.9430   30.4110 O   0  0  0  0  0  0  0  0  0  0  0  0
   35.1680   25.2060   30.4050 H   0  0  0  0  0  0  0  0  0  0  0  0
   36.7400   24.9780   32.5570 O   0  0  0  0  0  0  0  0  0  0  0  0
   37.9210   22.7500   33.3330 O   0  0  0  0  0  0  0  0  0  0  0  0
   37.9920   24.2680   33.4280 P   0  0  1  0  0  0  0  0  0  0  0  0
   39.4820   24.6840   32.7430 O   0  0  0  0  0  0  0  0  0  0  0  0
   39.7490   25.5570   33.1750 H   0  0  0  0  0  0  0  0  0  0  0  0
   37.8730   24.8600   35.0250 O   0  0  0  0  0  0  0  0  0  0  0  0
   38.4720   24.2090   36.0950 C   0  0  0  0  0  0  0  0  0  0  0  0
   37.9020   24.0930   37.3760 C   0  0  0  0  0  0  0  0  0  0  0  0
   38.6190   23.4110   38.3480 C   0  0  0  0  0  0  0  0  0  0  0  0
   39.8420   22.8870   38.0160 N   0  0  0  0  0  0  0  0  0  0  0  0
   40.3660   23.0160   36.7710 C   0  0  0  0  0  0  0  0  0  0  0  0
   39.6810   23.6800   35.7970 N   0  0  0  0  0  0  0  0  0  0  0  0
   36.9310   24.5460   37.5240 H   0  0  0  0  0  0  0  0  0  0  0  0
   38.1890   23.3180   39.3350 H   0  0  0  0  0  0  0  0  0  0  0  0
   41.3310   22.5990   36.5190 H   0  0  0  0  0  0  0  0  0  0  0  0
   35.2190   29.0360   31.9550 O   0  0  0  0  0  0  0  0  0  0  0  0
   35.6160   31.7530   30.8930 Cl  0  0  0  0  0  0  0  0  0  0  0  0
   35.6630   31.2480   32.5910 C   0  0  0  0  0  0  0  0  0  0  0  0
   35.4580   29.9280   32.9590 C   0  0  0  0  0  0  0  0  0  0  0  0
   35.5140   29.6350   34.3070 C   0  0  0  0  0  0  0  0  0  0  0  0
   35.3560   28.6120   34.6050 H   0  0  0  0  0  0  0  0  0  0  0  0
   35.7580   30.5690   35.2870 C   0  0  0  0  0  0  0  0  0  0  0  0
   35.8000   30.3310   36.3400 H   0  0  0  0  0  0  0  0  0  0  0  0
   35.9640   31.8880   34.9380 C   0  0  0  0  0  3  0  0  0  0  0  0
   35.9100   32.1940   33.5900 C   0  0  0  0  0  3  0  0  0  0  0  0
  1  6  1  1  0  0  0
  1  2  1  0  0  0  0
  2  7  1  1  0  0  0
  3  2  1  0  0  0  0
  4  3  1  0  0  0  0
  4  8  1  0  0  0  0
  5 10  1  6  0  0  0
  5  1  1  0  0  0  0
  5  4  1  0  0  0  0
  5 28  1  0  0  0  0
  9  4  1  0  0  0  0
 11  1  1  0  0  0  0
 12 11  1  0  0  0  0
 13  2  1  0  0  0  0
 13 15  1  0  0  0  0
 15 14  2  6  0  0  0
 15 18  1  0  0  0  0
 16 17  1  0  0  0  0
 16 15  1  0  0  0  0
 18 19  1  0  0  0  0
 19 20  1  0  0  0  0
 20 25  1  0  0  0  0
 20 21  2  0  0  0  0
 21 26  1  0  0  0  0
 22 21  1  0  0  0  0
 23 22  2  0  0  0  0
 24 19  2  0  0  0  0
 24 23  1  0  0  0  0
 27 23  1  0  0  0  0
 28 31  1  0  0  0  0
 29 30  1  0  0  0  0
 30 31  2  0  0  0  0
 30 37  1  0  0  0  0
 31 32  1  0  0  0  0
 32 33  1  0  0  0  0
 32 34  2  0  0  0  0
 34 35  1  0  0  0  0
 36 34  1  0  0  0  0
 37 36  2  0  0  0  0
M  END
>  <minimizedAffinity>
-5.33480597

$$$$

 OpenBabel03272503513D

 37 39  0  0  1  0  0  0  0  0999 V2000
   38.4980   27.1730   32.3030 C   0  0  1  0  0  0  0  0  0  0  0  0
   37.0700   27.5840   32.7310 C   0  0  2  0  0  0  0  0  0  0  0  0
   36.3030   26.5590   32.2730 O   0  0  0  0  0  0  0  0  0  0  0  0
   36.9900   25.4140   32.6500 C   0  0  0  0  0  0  0  0  0  0  0  0
   38.4660   25.7020   32.5620 C   0  0  2  0  0  0  0  0  0  0  0  0
   39.2470   27.7030   32.9240 H   0  0  0  0  0  0  0  0  0  0  0  0
   37.0940   27.7010   33.8480 H   0  0  0  0  0  0  0  0  0  0  0  0
   36.6380   25.1350   33.6480 H   0  0  0  0  0  0  0  0  0  0  0  0
   36.7630   24.6430   31.8680 H   0  0  0  0  0  0  0  0  0  0  0  0
   38.9490   25.1960   31.7070 H   0  0  0  0  0  0  0  0  0  0  0  0
   38.7320   27.5410   30.9930 O   0  0  0  0  0  0  0  0  0  0  0  0
   39.2030   28.3940   30.9020 H   0  0  0  0  0  0  0  0  0  0  0  0
   36.8770   28.8050   32.1580 O   0  0  0  0  0  0  0  0  0  0  0  0
   35.4340   31.0140   32.1010 O   0  0  0  0  0  0  0  0  0  0  0  0
   35.5980   29.6780   32.8140 P   0  0  1  0  0  0  0  0  0  0  0  0
   34.1410   28.8570   32.5530 O   0  0  0  0  0  0  0  0  0  0  0  0
   34.0390   28.2240   33.3330 H   0  0  0  0  0  0  0  0  0  0  0  0
   35.9160   29.8290   34.4850 O   0  0  0  0  0  0  0  0  0  0  0  0
   35.1760   30.6760   35.2990 C   0  0  0  0  0  0  0  0  0  0  0  0
   35.7310   31.6770   36.1190 C   0  0  0  0  0  0  0  0  0  0  0  0
   34.8640   32.4490   36.8780 C   0  0  0  0  0  0  0  0  0  0  0  0
   33.5180   32.2010   36.7950 N   0  0  0  0  0  0  0  0  0  0  0  0
   33.0130   31.2280   35.9960 C   0  0  0  0  0  0  0  0  0  0  0  0
   33.8440   30.4560   35.2370 N   0  0  0  0  0  0  0  0  0  0  0  0
   36.8060   31.7820   36.1050 H   0  0  0  0  0  0  0  0  0  0  0  0
   35.2810   33.2190   37.5120 H   0  0  0  0  0  0  0  0  0  0  0  0
   31.9500   31.0410   35.9360 H   0  0  0  0  0  0  0  0  0  0  0  0
   39.1070   25.3870   33.7350 O   0  0  0  0  0  0  0  0  0  0  0  0
   38.6020   27.1230   36.0600 Cl  0  0  0  0  0  0  0  0  0  0  0  0
   38.3950   25.3660   35.9680 C   0  0  0  0  0  0  0  0  0  0  0  0
   38.6690   24.6630   34.8050 C   0  0  0  0  0  0  0  0  0  0  0  0
   38.4760   23.2970   34.8350 C   0  0  0  0  0  0  0  0  0  0  0  0
   38.6860   22.7410   33.9370 H   0  0  0  0  0  0  0  0  0  0  0  0
   38.0320   22.6070   35.9400 C   0  0  0  0  0  0  0  0  0  0  0  0
   37.8830   21.5370   35.9540 H   0  0  0  0  0  0  0  0  0  0  0  0
   37.7530   23.2910   37.1060 C   0  0  0  0  0  3  0  0  0  0  0  0
   37.9430   24.6610   37.0890 C   0  0  0  0  0  3  0  0  0  0  0  0
  1  5  1  0  0  0  0
  1  2  1  0  0  0  0
  1  6  1  1  0  0  0
  2  7  1  1  0  0  0
  3  4  1  0  0  0  0
  3  2  1  0  0  0  0
  4  8  1  0  0  0  0
  5 10  1  6  0  0  0
  5  4  1  0  0  0  0
  5 28  1  0  0  0  0
  9  4  1  0  0  0  0
 11  1  1  0  0  0  0
 12 11  1  0  0  0  0
 13  2  1  0  0  0  0
 13 15  1  0  0  0  0
 15 14  2  6  0  0  0
 15 18  1  0  0  0  0
 16 15  1  0  0  0  0
 16 17  1  0  0  0  0
 18 19  1  0  0  0  0
 19 20  1  0  0  0  0
 20 21  2  0  0  0  0
 21 26  1  0  0  0  0
 22 21  1  0  0  0  0
 23 22  2  0  0  0  0
 24 19  2  0  0  0  0
 24 23  1  0  0  0  0
 25 20  1  0  0  0  0
 27 23  1  0  0  0  0
 28 31  1  0  0  0  0
 30 29  1  0  0  0  0
 30 37  1  0  0  0  0
 31 32  1  0  0  0  0
 31 30  2  0  0  0  0
 32 34  2  0  0  0  0
 33 32  1  0  0  0  0
 34 35  1  0  0  0  0
 34 36  1  0  0  0  0
 37 36  2  0  0  0  0
M  END
>  <minimizedAffinity>
-5.3346529

$$$$

 OpenBabel03272503513D

 37 39  0  0  1  0  0  0  0  0999 V2000
   36.4640   25.2930   31.9990 C   0  0  1  0  0  0  0  0  0  0  0  0
   37.6270   24.2810   32.1270 C   0  0  2  0  0  0  0  0  0  0  0  0
   38.2010   24.3110   30.8960 O   0  0  0  0  0  0  0  0  0  0  0  0
   38.2990   25.6610   30.5890 C   0  0  0  0  0  0  0  0  0  0  0  0
   37.1020   26.3630   31.1740 C   0  0  2  0  0  0  0  0  0  0  0  0
   36.1580   25.6480   33.0030 H   0  0  0  0  0  0  0  0  0  0  0  0
   38.2780   24.6490   32.9670 H   0  0  0  0  0  0  0  0  0  0  0  0
   39.2640   26.0120   30.9670 H   0  0  0  0  0  0  0  0  0  0  0  0
   38.2050   25.7350   29.4740 H   0  0  0  0  0  0  0  0  0  0  0  0
   36.3740   26.6780   30.4050 H   0  0  0  0  0  0  0  0  0  0  0  0
   35.3600   24.6860   31.4350 O   0  0  0  0  0  0  0  0  0  0  0  0
   34.7050   24.3730   32.0920 H   0  0  0  0  0  0  0  0  0  0  0  0
   37.0300   23.1160   32.5040 O   0  0  0  0  0  0  0  0  0  0  0  0
   36.8820   21.4880   34.5760 O   0  0  0  0  0  0  0  0  0  0  0  0
   37.8530   22.2790   33.7090 P   0  0  1  0  0  0  0  0  0  0  0  0
   38.8720   21.1200   33.0170 O   0  0  0  0  0  0  0  0  0  0  0  0
   39.7430   21.5960   32.8290 H   0  0  0  0  0  0  0  0  0  0  0  0
   38.7560   23.4390   34.5780 O   0  0  0  0  0  0  0  0  0  0  0  0
   38.7540   23.4810   35.9660 C   0  0  0  0  0  0  0  0  0  0  0  0
   37.7980   24.1660   36.7390 C   0  0  0  0  0  0  0  0  0  0  0  0
   37.9220   24.1180   38.1190 C   0  0  0  0  0  0  0  0  0  0  0  0
   38.9640   23.4110   38.6610 N   0  0  0  0  0  0  0  0  0  0  0  0
   39.8710   22.7610   37.8890 C   0  0  0  0  0  0  0  0  0  0  0  0
   39.7700   22.7910   36.5300 N   0  0  0  0  0  0  0  0  0  0  0  0
   37.0190   24.6910   36.2040 H   0  0  0  0  0  0  0  0  0  0  0  0
   37.1930   24.6420   38.7210 H   0  0  0  0  0  0  0  0  0  0  0  0
   40.6900   22.2050   38.3260 H   0  0  0  0  0  0  0  0  0  0  0  0
   37.4790   27.4320   31.9490 O   0  0  0  0  0  0  0  0  0  0  0  0
   36.9870   29.5700   29.9850 Cl  0  0  0  0  0  0  0  0  0  0  0  0
   36.4210   29.5040   31.6620 C   0  0  0  0  0  0  0  0  0  0  0  0
   36.7240   28.4330   32.4880 C   0  0  0  0  0  0  0  0  0  0  0  0
   36.2370   28.4750   33.7780 C   0  0  0  0  0  0  0  0  0  0  0  0
   36.4660   27.6490   34.4290 H   0  0  0  0  0  0  0  0  0  0  0  0
   35.4770   29.5080   34.2800 C   0  0  0  0  0  0  0  0  0  0  0  0
   35.0990   29.5320   35.2910 H   0  0  0  0  0  0  0  0  0  0  0  0
   35.1660   30.5810   33.4710 C   0  0  0  0  0  3  0  0  0  0  0  0
   35.6490   30.5510   32.1750 C   0  0  0  0  0  3  0  0  0  0  0  0
  1  2  1  0  0  0  0
  1  6  1  1  0  0  0
  2 13  1  0  0  0  0
  2  7  1  1  0  0  0
  3  2  1  0  0  0  0
  4  3  1  0  0  0  0
  4  8  1  0  0  0  0
  4  5  1  0  0  0  0
  5 10  1  6  0  0  0
  5 28  1  0  0  0  0
  5  1  1  0  0  0  0
  9  4  1  0  0  0  0
 11  1  1  0  0  0  0
 11 12  1  0  0  0  0
 13 15  1  0  0  0  0
 15 14  2  1  0  0  0
 15 18  1  0  0  0  0
 16 15  1  0  0  0  0
 17 16  1  0  0  0  0
 18 19  1  0  0  0  0
 19 24  2  0  0  0  0
 19 20  1  0  0  0  0
 20 21  2  0  0  0  0
 21 22  1  0  0  0  0
 21 26  1  0  0  0  0
 23 27  1  0  0  0  0
 23 22  2  0  0  0  0
 24 23  1  0  0  0  0
 25 20  1  0  0  0  0
 28 31  1  0  0  0  0
 29 30  1  0  0  0  0
 30 37  2  0  0  0  0
 30 31  1  0  0  0  0
 31 32  2  0  0  0  0
 32 34  1  0  0  0  0
 32 33  1  0  0  0  0
 34 35  1  0  0  0  0
 36 34  2  0  0  0  0
 37 36  1  0  0  0  0
M  END
>  <minimizedAffinity>
-5.26698542

$$$$
