
 OpenBabel03272509573D

 46 49  0  0  0  0  0  0  0  0999 V2000
   34.4000   28.5400   48.2810 C   0  0  0  0  0  0  0  0  0  0  0  0
   34.1080   29.3500   47.5990 H   0  0  0  0  0  0  0  0  0  0  0  0
   35.4440   28.2390   48.0370 H   0  0  0  0  0  0  0  0  0  0  0  0
   33.5610   27.2990   48.1730 C   0  0  0  0  0  0  0  0  0  0  0  0
   33.9540   26.6010   47.3970 H   0  0  0  0  0  0  0  0  0  0  0  0
   33.5720   26.7650   49.1250 H   0  0  0  0  0  0  0  0  0  0  0  0
   32.1460   27.5970   47.7880 C   0  0  0  0  0  0  0  0  0  0  0  0
   31.1950   27.6030   48.8170 C   0  0  0  0  0  0  0  0  0  0  0  0
   29.8700   27.8690   48.5480 C   0  0  0  0  0  0  0  0  0  0  0  0
   29.4900   28.1220   47.3050 N   0  0  0  0  0  0  0  0  0  0  0  0
   30.4350   28.1110   46.3170 C   0  0  0  0  0  0  0  0  0  0  0  0
   31.7270   27.8570   46.5400 N   0  0  0  0  0  0  0  0  0  0  0  0
   31.4830   27.3990   49.8400 H   0  0  0  0  0  0  0  0  0  0  0  0
   29.1450   27.8670   49.3760 H   0  0  0  0  0  0  0  0  0  0  0  0
   29.9510   28.4010   44.9390 C   0  0  0  0  0  0  0  0  0  0  0  0
   30.6070   27.8110   44.2650 H   0  0  0  0  0  0  0  0  0  0  0  0
   28.9430   27.9420   44.8340 H   0  0  0  0  0  0  0  0  0  0  0  0
   32.4890   29.4840   43.6350 Cl  0  0  0  0  0  0  0  0  0  0  0  0
   31.0730   30.4060   44.0140 C   0  0  0  0  0  0  0  0  0  0  0  0
   29.9640   29.8390   44.6060 C   0  0  0  0  0  0  0  0  0  0  0  0
   28.8100   30.5670   44.9210 C   0  0  0  0  0  0  0  0  0  0  0  0
   27.9660   30.0750   45.3860 H   0  0  0  0  0  0  0  0  0  0  0  0
   28.7790   31.9340   44.6220 C   0  0  0  0  0  0  0  0  0  0  0  0
   27.8580   32.4340   44.8910 H   0  0  0  0  0  0  0  0  0  0  0  0
   29.8790   32.5470   44.0220 C   0  0  0  0  0  3  0  0  0  0  0  0
   30.9620   31.7410   43.7550 C   0  0  0  0  0  3  0  0  0  0  0  0
   34.4390   29.0140   49.6230 O   0  0  0  0  0  0  0  0  0  0  0  0
   37.2570   29.9910   51.6730 C   0  0  0  0  0  0  0  0  0  0  0  0
   38.0450   30.6400   50.6980 C   0  0  0  0  0  0  0  0  0  0  0  0
   37.5670   30.7040   49.4050 C   0  0  0  0  0  0  0  0  0  0  0  0
   36.3460   30.1170   49.1910 N   0  0  0  0  0  0  0  0  0  0  0  0
   35.6060   29.5070   50.1100 C   0  0  0  0  0  0  0  0  0  0  0  0
   36.0840   29.4510   51.3740 N   0  0  0  0  0  0  0  0  0  0  0  0
   37.6820   29.9720   52.6670 H   0  0  0  0  0  0  0  0  0  0  0  0
   39.0000   31.1050   50.8440 H   0  0  0  0  0  0  0  0  0  0  0  0
   38.8080   33.3110   49.2830 F   0  0  0  0  0  0  0  0  0  0  0  0
   38.8210   32.5340   48.2100 C   0  0  0  0  0  0  0  0  0  0  0  0
   38.2410   31.3280   48.2850 C   0  0  0  0  0  0  0  0  0  0  0  0
   38.3090   30.5870   47.1020 C   0  0  0  0  0  0  0  0  0  0  0  0
   38.9150   31.0540   45.9680 C   0  0  0  0  0  0  0  0  0  0  0  0
   39.4970   32.3030   45.9450 C   0  0  0  0  0  0  0  0  0  0  0  0
   39.4410   33.0420   47.0920 C   0  0  0  0  0  0  0  0  0  0  0  0
   37.8880   29.5830   46.9840 H   0  0  0  0  0  0  0  0  0  0  0  0
   38.9740   30.4880   45.0430 H   0  0  0  0  0  0  0  0  0  0  0  0
   39.9830   32.6920   45.0570 H   0  0  0  0  0  0  0  0  0  0  0  0
   39.8930   34.0250   47.0910 H   0  0  0  0  0  0  0  0  0  0  0  0
  1 27  1  0  0  0  0
  2  1  1  0  0  0  0
  3  1  1  0  0  0  0
  4  1  1  0  0  0  0
  4  6  1  0  0  0  0
  5  4  1  0  0  0  0
  7  4  1  0  0  0  0
  7  8  1  0  0  0  0
  8 13  1  0  0  0  0
  9  8  2  0  0  0  0
  9 14  1  0  0  0  0
 10  9  1  0  0  0  0
 11 12  1  0  0  0  0
 11 10  2  0  0  0  0
 12  7  2  0  0  0  0
 15 11  1  0  0  0  0
 16 15  1  0  0  0  0
 17 15  1  0  0  0  0
 18 19  1  0  0  0  0
 19 20  1  0  0  0  0
 20 21  2  0  0  0  0
 20 15  1  0  0  0  0
 21 22  1  0  0  0  0
 23 24  1  0  0  0  0
 23 21  1  0  0  0  0
 25 23  2  0  0  0  0
 26 19  2  0  0  0  0
 26 25  1  0  0  0  0
 27 32  1  0  0  0  0
 28 34  1  0  0  0  0
 29 35  1  0  0  0  0
 29 28  2  0  0  0  0
 30 29  1  0  0  0  0
 31 30  2  0  0  0  0
 31 32  1  0  0  0  0
 32 33  2  0  0  0  0
 33 28  1  0  0  0  0
 37 38  1  0  0  0  0
 37 36  1  0  0  0  0
 38 30  1  0  0  0  0
 39 38  2  0  0  0  0
 40 39  1  0  0  0  0
 41 40  2  0  0  0  0
 41 42  1  0  0  0  0
 42 37  2  0  0  0  0
 43 39  1  0  0  0  0
 44 40  1  0  0  0  0
 45 41  1  0  0  0  0
 46 42  1  0  0  0  0
M  END
>  <minimizedAffinity>
-6.26085234

>  <minimizedRMSD>
1.28039861

$$$$
