
 OpenBabel03272509573D

 46 49  0  0  0  0  0  0  0  0999 V2000
   34.5430   28.5840   48.2390 C   0  0  0  0  0  0  0  0  0  0  0  0
   33.9990   29.5190   48.0450 H   0  0  0  0  0  0  0  0  0  0  0  0
   35.5050   28.6210   47.6800 H   0  0  0  0  0  0  0  0  0  0  0  0
   33.8320   27.3420   47.7860 C   0  0  0  0  0  0  0  0  0  0  0  0
   34.2140   26.9840   46.8000 H   0  0  0  0  0  0  0  0  0  0  0  0
   33.9990   26.5400   48.5080 H   0  0  0  0  0  0  0  0  0  0  0  0
   32.3620   27.5550   47.6110 C   0  0  0  0  0  0  0  0  0  0  0  0
   31.5760   27.5360   48.7710 C   0  0  0  0  0  0  0  0  0  0  0  0
   30.2120   27.7260   48.6990 C   0  0  0  0  0  0  0  0  0  0  0  0
   29.6390   27.9270   47.5220 N   0  0  0  0  0  0  0  0  0  0  0  0
   30.4260   27.9410   46.4050 C   0  0  0  0  0  0  0  0  0  0  0  0
   31.7480   27.7610   46.4360 N   0  0  0  0  0  0  0  0  0  0  0  0
   32.0230   27.3740   49.7430 H   0  0  0  0  0  0  0  0  0  0  0  0
   29.6190   27.7060   49.6260 H   0  0  0  0  0  0  0  0  0  0  0  0
   29.7270   28.1700   45.1090 C   0  0  0  0  0  0  0  0  0  0  0  0
   30.3490   27.6600   44.3440 H   0  0  0  0  0  0  0  0  0  0  0  0
   28.7740   27.5960   45.1360 H   0  0  0  0  0  0  0  0  0  0  0  0
   31.9450   29.5550   43.5360 Cl  0  0  0  0  0  0  0  0  0  0  0  0
   30.4830   30.2970   44.0900 C   0  0  0  0  0  0  0  0  0  0  0  0
   29.5270   29.6000   44.7990 C   0  0  0  0  0  0  0  0  0  0  0  0
   28.3380   30.1800   45.2570 C   0  0  0  0  0  0  0  0  0  0  0  0
   27.6210   29.5900   45.8080 H   0  0  0  0  0  0  0  0  0  0  0  0
   28.1080   31.5340   44.9830 C   0  0  0  0  0  0  0  0  0  0  0  0
   27.1710   31.9180   45.3650 H   0  0  0  0  0  0  0  0  0  0  0  0
   29.0480   32.2780   44.2700 C   0  0  0  0  0  3  0  0  0  0  0  0
   30.1820   31.6090   43.8660 C   0  0  0  0  0  3  0  0  0  0  0  0
   34.8980   28.4960   49.6150 O   0  0  0  0  0  0  0  0  0  0  0  0
   37.4020   30.1830   51.6110 C   0  0  0  0  0  0  0  0  0  0  0  0
   38.1130   30.8460   50.5880 C   0  0  0  0  0  0  0  0  0  0  0  0
   37.6950   30.6770   49.2830 C   0  0  0  0  0  0  0  0  0  0  0  0
   36.6060   29.8630   49.1070 N   0  0  0  0  0  0  0  0  0  0  0  0
   35.9380   29.2400   50.0720 C   0  0  0  0  0  0  0  0  0  0  0  0
   36.3560   29.4130   51.3470 N   0  0  0  0  0  0  0  0  0  0  0  0
   37.7750   30.3520   52.6120 H   0  0  0  0  0  0  0  0  0  0  0  0
   38.9660   31.4860   50.7030 H   0  0  0  0  0  0  0  0  0  0  0  0
   38.9540   33.2670   49.0500 F   0  0  0  0  0  0  0  0  0  0  0  0
   38.8930   32.4760   47.9890 C   0  0  0  0  0  0  0  0  0  0  0  0
   38.3060   31.2780   48.1160 C   0  0  0  0  0  0  0  0  0  0  0  0
   38.2930   30.5210   46.9410 C   0  0  0  0  0  0  0  0  0  0  0  0
   38.8330   30.9660   45.7650 C   0  0  0  0  0  0  0  0  0  0  0  0
   39.4260   32.2080   45.6900 C   0  0  0  0  0  0  0  0  0  0  0  0
   39.4480   32.9620   46.8280 C   0  0  0  0  0  0  0  0  0  0  0  0
   37.8550   29.5210   46.8630 H   0  0  0  0  0  0  0  0  0  0  0  0
   38.8300   30.3880   44.8470 H   0  0  0  0  0  0  0  0  0  0  0  0
   39.8600   32.5800   44.7690 H   0  0  0  0  0  0  0  0  0  0  0  0
   39.9110   33.9410   46.7860 H   0  0  0  0  0  0  0  0  0  0  0  0
  1 27  1  0  0  0  0
  2  1  1  0  0  0  0
  3  1  1  0  0  0  0
  4  1  1  0  0  0  0
  4  6  1  0  0  0  0
  5  4  1  0  0  0  0
  7  4  1  0  0  0  0
  7  8  1  0  0  0  0
  8 13  1  0  0  0  0
  9  8  2  0  0  0  0
  9 14  1  0  0  0  0
 10  9  1  0  0  0  0
 11 12  1  0  0  0  0
 11 10  2  0  0  0  0
 12  7  2  0  0  0  0
 15 17  1  0  0  0  0
 15 11  1  0  0  0  0
 16 15  1  0  0  0  0
 18 19  1  0  0  0  0
 19 20  1  0  0  0  0
 20 15  1  0  0  0  0
 20 21  2  0  0  0  0
 21 22  1  0  0  0  0
 23 21  1  0  0  0  0
 23 24  1  0  0  0  0
 25 23  2  0  0  0  0
 26 19  2  0  0  0  0
 26 25  1  0  0  0  0
 27 32  1  0  0  0  0
 28 34  1  0  0  0  0
 29 35  1  0  0  0  0
 29 28  2  0  0  0  0
 30 29  1  0  0  0  0
 31 30  2  0  0  0  0
 31 32  1  0  0  0  0
 32 33  2  0  0  0  0
 33 28  1  0  0  0  0
 37 38  1  0  0  0  0
 37 36  1  0  0  0  0
 38 30  1  0  0  0  0
 39 38  2  0  0  0  0
 40 39  1  0  0  0  0
 41 40  2  0  0  0  0
 41 42  1  0  0  0  0
 42 37  2  0  0  0  0
 43 39  1  0  0  0  0
 44 40  1  0  0  0  0
 45 41  1  0  0  0  0
 46 42  1  0  0  0  0
M  END
>  <minimizedAffinity>
-6.23717117

>  <minimizedRMSD>
1.34710681

$$$$
