
 OpenBabel03272509403D

 35 37  0  0  1  0  0  0  0  0999 V2000
   37.0650   30.9520   49.0630 C   0  0  0  0  0  0  0  0  0  0  0  0
   36.8250   31.8990   50.0650 C   0  0  0  0  0  0  0  0  0  0  0  0
   37.4450   33.1420   50.0770 C   0  0  0  0  0  0  0  0  0  0  0  0
   38.3410   33.4690   49.0590 C   0  0  0  0  0  0  0  0  0  0  0  0
   38.5660   32.5360   48.0890 C   0  0  0  0  0  0  0  0  0  0  0  0
   37.9380   31.3080   48.0990 C   0  0  0  0  0  0  0  0  0  0  0  0
   36.1200   31.6320   50.8560 H   0  0  0  0  0  0  0  0  0  0  0  0
   37.1780   33.7960   50.9080 H   0  0  0  0  0  0  0  0  0  0  0  0
   38.8070   34.4440   49.0960 H   0  0  0  0  0  0  0  0  0  0  0  0
   39.2740   32.8720   47.3400 H   0  0  0  0  0  0  0  0  0  0  0  0
   36.3690   29.6840   49.1390 C   0  0  1  0  0  3  0  0  0  0  0  0
   36.8950   28.8360   49.9580 O   0  0  0  0  0  1  0  0  0  0  0  0
   33.5940   30.1580   46.8580 C   0  0  0  0  0  0  0  0  0  0  0  0
   32.9360   28.9390   46.8580 C   0  0  0  0  0  0  0  0  0  0  0  0
   33.4530   27.9250   47.6600 C   0  0  0  0  0  0  0  0  0  0  0  0
   34.5660   28.1530   48.4070 N   0  0  0  0  0  0  0  0  0  0  0  0
   35.1710   29.3340   48.3820 C   0  0  0  0  0  0  0  0  0  0  0  0
   34.6730   30.3250   47.6020 N   0  0  0  0  0  0  0  0  0  0  0  0
   33.1420   30.9020   46.2150 H   0  0  0  0  0  0  0  0  0  0  0  0
   32.0480   28.6650   46.3000 H   0  0  0  0  0  0  0  0  0  0  0  0
   33.0160   26.9310   47.7350 H   0  0  0  0  0  0  0  0  0  0  0  0
   38.2850   30.4320   47.0040 C   0  0  0  0  0  3  0  0  0  0  0  0
   38.8750   30.7620   45.8750 C   0  0  0  0  0  3  0  0  0  0  0  0
   39.2940   29.9910   44.6960 C   0  0  0  0  0  0  0  0  0  0  0  0
   39.3170   28.9090   44.9570 H   0  0  0  0  0  0  0  0  0  0  0  0
   40.2780   30.3420   44.3470 H   0  0  0  0  0  0  0  0  0  0  0  0
   39.8860   32.0990   42.6290 Cl  0  0  0  0  0  0  0  0  0  0  0  0
   38.4410   31.0850   42.5760 C   0  0  0  0  0  0  0  0  0  0  0  0
   38.3180   30.1680   43.5960 C   0  0  0  0  0  0  0  0  0  0  0  0
   37.1730   29.3650   43.5540 C   0  0  0  0  0  0  0  0  0  0  0  0
   36.9640   28.5980   44.3130 H   0  0  0  0  0  0  0  0  0  0  0  0
   36.2570   29.5230   42.5340 C   0  0  0  0  0  0  0  0  0  0  0  0
   35.3780   28.8790   42.5360 H   0  0  0  0  0  0  0  0  0  0  0  0
   36.4340   30.4540   41.5440 C   0  0  0  0  0  3  0  0  0  0  0  0
   37.5550   31.2780   41.5380 C   0  0  0  0  0  3  0  0  0  0  0  0
  1 11  1  0  0  0  0
  1  2  1  0  0  0  0
  2  3  2  0  0  0  0
  2  7  1  0  0  0  0
  3  8  1  0  0  0  0
  4  9  1  0  0  0  0
  4  3  1  0  0  0  0
  5  6  1  0  0  0  0
  5  4  2  0  0  0  0
  6  1  2  0  0  0  0
 10  5  1  0  0  0  0
 11 12  1  1  0  0  0
 13 14  2  0  0  0  0
 13 18  1  0  0  0  0
 14 15  1  0  0  0  0
 15 21  1  0  0  0  0
 15 16  2  0  0  0  0
 17 16  1  0  0  0  0
 17 11  1  0  0  0  0
 18 17  2  0  0  0  0
 19 13  1  0  0  0  0
 20 14  1  0  0  0  0
 22  6  1  0  0  0  0
 23 22  2  0  0  0  0
 24 25  1  0  0  0  0
 24 23  1  0  0  0  0
 26 24  1  0  0  0  0
 28 27  1  0  0  0  0
 28 29  1  0  0  0  0
 29 24  1  0  0  0  0
 30 29  2  0  0  0  0
 30 31  1  0  0  0  0
 32 33  1  0  0  0  0
 32 30  1  0  0  0  0
 34 32  2  0  0  0  0
 35 34  1  0  0  0  0
 35 28  2  0  0  0  0
M  END
>  <minimizedAffinity>
-5.92496109

>  <minimizedRMSD>
0.51164192

$$$$
