
 OpenBabel03272509403D

 35 37  0  0  1  0  0  0  0  0999 V2000
   37.0550   30.9540   49.0570 C   0  0  0  0  0  0  0  0  0  0  0  0
   36.8050   31.8800   50.0760 C   0  0  0  0  0  0  0  0  0  0  0  0
   37.4170   33.1270   50.1130 C   0  0  0  0  0  0  0  0  0  0  0  0
   38.3150   33.4780   49.1050 C   0  0  0  0  0  0  0  0  0  0  0  0
   38.5490   32.5650   48.1180 C   0  0  0  0  0  0  0  0  0  0  0  0
   37.9280   31.3340   48.1030 C   0  0  0  0  0  0  0  0  0  0  0  0
   36.1000   31.5950   50.8590 H   0  0  0  0  0  0  0  0  0  0  0  0
   37.1440   33.7640   50.9550 H   0  0  0  0  0  0  0  0  0  0  0  0
   38.7750   34.4550   49.1620 H   0  0  0  0  0  0  0  0  0  0  0  0
   39.2570   32.9190   47.3780 H   0  0  0  0  0  0  0  0  0  0  0  0
   36.3660   29.6810   49.1070 C   0  0  1  0  0  3  0  0  0  0  0  0
   36.8990   28.8170   49.9060 O   0  0  0  0  0  1  0  0  0  0  0  0
   33.6080   30.1740   46.8090 C   0  0  0  0  0  0  0  0  0  0  0  0
   32.9360   28.9630   46.8130 C   0  0  0  0  0  0  0  0  0  0  0  0
   33.4360   27.9470   47.6230 C   0  0  0  0  0  0  0  0  0  0  0  0
   34.5490   28.1660   48.3750 N   0  0  0  0  0  0  0  0  0  0  0  0
   35.1680   29.3410   48.3460 C   0  0  0  0  0  0  0  0  0  0  0  0
   34.6850   30.3330   47.5580 N   0  0  0  0  0  0  0  0  0  0  0  0
   33.1680   30.9200   46.1600 H   0  0  0  0  0  0  0  0  0  0  0  0
   32.0480   28.6960   46.2520 H   0  0  0  0  0  0  0  0  0  0  0  0
   32.9870   26.9590   47.7020 H   0  0  0  0  0  0  0  0  0  0  0  0
   38.2850   30.4800   46.9930 C   0  0  0  0  0  3  0  0  0  0  0  0
   38.9890   30.8060   45.9310 C   0  0  0  0  0  3  0  0  0  0  0  0
   39.4330   30.0540   44.7470 C   0  0  0  0  0  0  0  0  0  0  0  0
   38.9530   29.0500   44.7530 H   0  0  0  0  0  0  0  0  0  0  0  0
   40.5320   29.9770   44.7410 H   0  0  0  0  0  0  0  0  0  0  0  0
   36.9400   29.0650   43.3750 Cl  0  0  0  0  0  0  0  0  0  0  0  0
   37.8940   30.4230   42.7680 C   0  0  0  0  0  0  0  0  0  0  0  0
   39.0060   30.7510   43.5110 C   0  0  0  0  0  0  0  0  0  0  0  0
   39.7610   31.8250   43.0290 C   0  0  0  0  0  0  0  0  0  0  0  0
   40.6700   32.1790   43.5370 H   0  0  0  0  0  0  0  0  0  0  0  0
   39.3730   32.4790   41.8790 C   0  0  0  0  0  0  0  0  0  0  0  0
   39.9870   33.3130   41.5360 H   0  0  0  0  0  0  0  0  0  0  0  0
   38.2550   32.1090   41.1810 C   0  0  0  0  0  3  0  0  0  0  0  0
   37.4680   31.0470   41.6160 C   0  0  0  0  0  3  0  0  0  0  0  0
  1 11  1  0  0  0  0
  1  2  1  0  0  0  0
  2  3  2  0  0  0  0
  2  7  1  0  0  0  0
  3  8  1  0  0  0  0
  4  9  1  0  0  0  0
  4  3  1  0  0  0  0
  5  4  2  0  0  0  0
  6  5  1  0  0  0  0
  6  1  2  0  0  0  0
 10  5  1  0  0  0  0
 11 12  1  1  0  0  0
 13 14  2  0  0  0  0
 13 18  1  0  0  0  0
 14 15  1  0  0  0  0
 15 21  1  0  0  0  0
 15 16  2  0  0  0  0
 17 16  1  0  0  0  0
 17 11  1  0  0  0  0
 18 17  2  0  0  0  0
 19 13  1  0  0  0  0
 20 14  1  0  0  0  0
 22  6  1  0  0  0  0
 23 22  2  0  0  0  0
 24 25  1  0  0  0  0
 24 23  1  0  0  0  0
 26 24  1  0  0  0  0
 28 27  1  0  0  0  0
 28 29  1  0  0  0  0
 29 24  1  0  0  0  0
 30 29  2  0  0  0  0
 30 31  1  0  0  0  0
 32 30  1  0  0  0  0
 33 32  1  0  0  0  0
 34 35  1  0  0  0  0
 34 32  2  0  0  0  0
 35 28  2  0  0  0  0
M  END
>  <minimizedAffinity>
-5.97901106

>  <minimizedRMSD>
0.758878589

$$$$
