
 OpenBabel03262522153D

 45 48  0  0  1  0  0  0  0  0999 V2000
   39.3090   32.9040   43.6770 C   0  0  0  0  0  0  0  0  0  0  0  0
   39.2040   33.7380   42.9300 H   0  0  0  0  0  0  0  0  0  0  0  0
   38.3150   32.5620   43.9830 H   0  0  0  0  0  0  0  0  0  0  0  0
   39.3480   29.5520   42.5340 C   0  0  1  0  0  0  0  0  0  0  0  0
   39.0410   30.9710   42.1240 C   0  0  0  0  0  0  0  0  0  0  0  0
   39.9980   31.7550   42.9830 C   0  0  2  0  0  0  0  0  0  0  0  0
   40.5770   30.8850   43.8700 O   0  0  0  0  0  0  0  0  0  0  0  0
   39.7650   29.7680   43.9810 C   0  0  0  0  0  0  0  0  0  0  0  0
   40.1970   29.1060   41.9780 H   0  0  0  0  0  0  0  0  0  0  0  0
   37.9790   31.2090   42.3200 H   0  0  0  0  0  0  0  0  0  0  0  0
   39.3500   31.0760   41.0720 H   0  0  0  0  0  0  0  0  0  0  0  0
   40.8080   32.2170   42.3570 H   0  0  0  0  0  0  0  0  0  0  0  0
   38.8480   29.9710   44.5700 H   0  0  0  0  0  0  0  0  0  0  0  0
   40.3050   28.9150   44.4000 H   0  0  0  0  0  0  0  0  0  0  0  0
   38.2430   28.7330   42.4410 O   0  0  0  0  0  0  0  0  0  0  0  0
   35.4240   27.9370   42.3970 Cl  0  0  0  0  0  0  0  0  0  0  0  0
   36.8080   26.9050   42.7860 C   0  0  0  0  0  0  0  0  0  0  0  0
   38.0910   27.4220   42.7660 C   0  0  0  0  0  0  0  0  0  0  0  0
   39.0880   26.5290   43.0850 C   0  0  0  0  0  0  0  0  0  0  0  0
   40.1040   26.9080   43.0770 H   0  0  0  0  0  0  0  0  0  0  0  0
   38.9040   25.2090   43.4100 C   0  0  0  0  0  0  0  0  0  0  0  0
   39.7510   24.5560   43.6530 H   0  0  0  0  0  0  0  0  0  0  0  0
   37.6150   24.7110   43.4240 C   0  0  0  0  0  0  0  0  0  0  0  0
   36.5740   25.5710   43.1100 C   0  0  0  0  0  0  0  0  0  0  0  0
   40.3720   33.4280   45.0510 S   0  0  0  0  0  0  0  0  0  0  0  0
   37.7630   31.8010   47.5620 C   0  0  0  0  0  0  0  0  0  0  0  0
   38.0030   32.4550   48.7810 C   0  0  0  0  0  0  0  0  0  0  0  0
   38.9810   33.4240   48.8790 C   0  0  0  0  0  0  0  0  0  0  0  0
   39.6840   33.7000   47.7330 C   0  0  0  0  0  0  0  0  0  0  0  0
   39.4310   33.0520   46.5660 C   0  0  0  0  0  0  0  0  0  0  0  0
   38.4700   32.0940   46.4580 N   0  0  0  0  0  0  0  0  0  0  0  0
   37.4260   32.2100   49.6670 H   0  0  0  0  0  0  0  0  0  0  0  0
   39.1940   33.9470   49.7960 H   0  0  0  0  0  0  0  0  0  0  0  0
   40.4570   34.4520   47.7660 H   0  0  0  0  0  0  0  0  0  0  0  0
   36.7260   30.8000   47.5410 C   0  0  0  0  0  0  0  0  0  0  0  0
   36.2730   30.3770   46.4720 O   0  0  0  0  0  0  0  0  0  0  0  0
   37.0110   29.5710   49.6610 C   0  0  0  0  0  0  0  0  0  0  0  0
   36.1570   30.2330   48.7760 C   0  0  0  0  0  0  0  0  0  0  0  0
   34.7910   30.3400   49.0890 C   0  0  0  0  0  0  0  0  0  0  0  0
   34.3470   29.7820   50.2600 N   0  0  0  0  0  0  0  0  0  0  0  0
   35.1910   29.1510   51.0910 C   0  0  0  0  0  0  0  0  0  0  0  0
   36.4980   29.0460   50.8000 N   0  0  0  0  0  0  0  0  0  0  0  0
   38.0640   29.4790   49.4390 H   0  0  0  0  0  0  0  0  0  0  0  0
   34.1400   30.8550   48.3960 H   0  0  0  0  0  0  0  0  0  0  0  0
   34.8700   28.7000   52.0240 H   0  0  0  0  0  0  0  0  0  0  0  0
  1  3  1  0  0  0  0
  1 25  1  0  0  0  0
  2  1  1  0  0  0  0
  4  9  1  6  0  0  0
  4  8  1  0  0  0  0
  5 10  1  0  0  0  0
  5  4  1  0  0  0  0
  5  6  1  0  0  0  0
  6 12  1  6  0  0  0
  6  1  1  0  0  0  0
  6  7  1  0  0  0  0
  7  8  1  0  0  0  0
  8 14  1  0  0  0  0
  8 13  1  0  0  0  0
 11  5  1  0  0  0  0
 15  4  1  0  0  0  0
 15 18  1  0  0  0  0
 16 17  1  0  0  0  0
 17 24  1  0  0  0  0
 18 17  2  0  0  0  0
 18 19  1  0  0  0  0
 19 21  2  0  0  0  0
 20 19  1  0  0  0  0
 21 23  1  0  0  0  0
 21 22  1  0  0  0  0
 24 23  2  0  0  0  0
 25 30  1  0  0  0  0
 26 27  1  0  0  0  0
 27 28  2  0  0  0  0
 27 32  1  0  0  0  0
 28 33  1  0  0  0  0
 29 34  1  0  0  0  0
 29 28  1  0  0  0  0
 30 29  2  0  0  0  0
 31 30  1  0  0  0  0
 31 26  2  0  0  0  0
 35 26  1  0  0  0  0
 35 38  1  0  0  0  0
 36 35  2  0  0  0  0
 37 42  1  0  0  0  0
 38 39  1  0  0  0  0
 38 37  2  0  0  0  0
 39 40  2  0  0  0  0
 40 41  1  0  0  0  0
 41 45  1  0  0  0  0
 42 41  2  0  0  0  0
 43 37  1  0  0  0  0
 44 39  1  0  0  0  0
M  END
>  <minimizedAffinity>
-5.64981985

>  <minimizedRMSD>
1.50269926

$$$$
