
 OpenBabel03262521303D

 31 33  0  0  1  0  0  0  0  0999 V2000
   38.6920   25.8980   34.2870 C   0  0  1  0  0  0  0  0  0  0  0  0
   38.8510   24.4180   34.4830 C   0  0  2  0  0  0  0  0  0  0  0  0
   37.8290   23.7820   33.8100 O   0  0  0  0  0  0  0  0  0  0  0  0
   37.3920   24.6510   32.8210 C   0  0  0  0  0  0  0  0  0  0  0  0
   37.3600   25.9780   33.5800 C   0  0  2  0  0  0  0  0  0  0  0  0
   39.4650   26.2500   33.5530 H   0  0  0  0  0  0  0  0  0  0  0  0
   39.8110   24.0890   34.0340 H   0  0  0  0  0  0  0  0  0  0  0  0
   38.0320   24.6900   31.9430 H   0  0  0  0  0  0  0  0  0  0  0  0
   36.3210   24.4020   32.6160 H   0  0  0  0  0  0  0  0  0  0  0  0
   36.5800   25.8970   34.3360 H   0  0  0  0  0  0  0  0  0  0  0  0
   39.9430   22.8380   37.7330 C   0  0  0  0  0  0  0  0  0  0  0  0
   39.9750   23.2090   36.3770 C   0  0  0  0  0  0  0  0  0  0  0  0
   38.9050   23.9900   35.8980 C   0  0  0  0  0  0  0  0  0  0  0  0
   37.9030   24.3450   36.7500 N   0  0  0  0  0  0  0  0  0  0  0  0
   37.9120   23.9660   38.0460 C   0  0  0  0  0  0  0  0  0  0  0  0
   38.9220   23.2200   38.5290 N   0  0  0  0  0  0  0  0  0  0  0  0
   40.7710   22.2380   38.0910 H   0  0  0  0  0  0  0  0  0  0  0  0
   40.7760   22.9210   35.7140 H   0  0  0  0  0  0  0  0  0  0  0  0
   37.0710   24.2970   38.6410 H   0  0  0  0  0  0  0  0  0  0  0  0
   38.7820   26.6490   35.4100 O   0  0  0  0  0  0  0  0  0  0  0  0
   39.4990   27.3230   35.4260 H   0  0  0  0  0  0  0  0  0  0  0  0
   37.2450   27.0400   32.7450 O   0  0  0  0  0  0  0  0  0  0  0  0
   37.0270   28.6560   30.3420 Cl  0  0  0  0  0  0  0  0  0  0  0  0
   36.4730   29.0270   31.9610 C   0  0  0  0  0  0  0  0  0  0  0  0
   36.6050   28.2070   33.0860 C   0  0  0  0  0  0  0  0  0  0  0  0
   36.1080   28.6680   34.2750 C   0  0  0  0  0  0  0  0  0  0  0  0
   36.2500   27.9840   35.0790 H   0  0  0  0  0  0  0  0  0  0  0  0
   35.4990   29.8940   34.3630 C   0  0  0  0  0  0  0  0  0  0  0  0
   35.1410   30.1610   35.3500 H   0  0  0  0  0  0  0  0  0  0  0  0
   35.3600   30.7090   33.2680 C   0  0  0  0  0  3  0  0  0  0  0  0
   35.8520   30.2740   32.0540 C   0  0  0  0  0  3  0  0  0  0  0  0
  1  6  1  6  0  0  0
  1  2  1  0  0  0  0
  1 20  1  0  0  0  0
  2  7  1  6  0  0  0
  2 13  1  0  0  0  0
  3  2  1  0  0  0  0
  4  5  1  0  0  0  0
  4  3  1  0  0  0  0
  5  1  1  0  0  0  0
  5 10  1  1  0  0  0
  8  4  1  0  0  0  0
  9  4  1  0  0  0  0
 11 17  1  0  0  0  0
 11 16  1  0  0  0  0
 12 11  2  0  0  0  0
 13 12  1  0  0  0  0
 13 14  2  0  0  0  0
 14 15  1  0  0  0  0
 15 16  2  0  0  0  0
 15 19  1  0  0  0  0
 18 12  1  0  0  0  0
 20 21  1  0  0  0  0
 22 25  1  0  0  0  0
 22  5  1  0  0  0  0
 23 24  1  0  0  0  0
 24 31  2  0  0  0  0
 24 25  1  0  0  0  0
 25 26  2  0  0  0  0
 26 28  1  0  0  0  0
 26 27  1  0  0  0  0
 28 29  1  0  0  0  0
 30 28  2  0  0  0  0
 31 30  1  0  0  0  0
M  END
>  <minimizedAffinity>
-5.11488247

$$$$

 OpenBabel03262521303D

 31 33  0  0  1  0  0  0  0  0999 V2000
   36.5960   28.4180   33.3400 C   0  0  1  0  0  0  0  0  0  0  0  0
   36.7420   27.8410   31.9620 C   0  0  2  0  0  0  0  0  0  0  0  0
   35.8660   28.5000   31.1240 O   0  0  0  0  0  0  0  0  0  0  0  0
   35.5980   29.7300   31.7040 C   0  0  0  0  0  0  0  0  0  0  0  0
   35.4100   29.3370   33.1700 C   0  0  2  0  0  0  0  0  0  0  0  0
   37.4820   29.0750   33.5510 H   0  0  0  0  0  0  0  0  0  0  0  0
   37.7720   28.0270   31.5920 H   0  0  0  0  0  0  0  0  0  0  0  0
   36.3830   30.4710   31.5710 H   0  0  0  0  0  0  0  0  0  0  0  0
   34.5840   30.0460   31.3510 H   0  0  0  0  0  0  0  0  0  0  0  0
   34.5090   28.7260   33.2260 H   0  0  0  0  0  0  0  0  0  0  0  0
   35.3720   24.4190   31.1430 C   0  0  0  0  0  0  0  0  0  0  0  0
   35.4850   25.8210   31.1530 C   0  0  0  0  0  0  0  0  0  0  0  0
   36.5510   26.3760   31.8870 C   0  0  0  0  0  0  0  0  0  0  0  0
   37.4100   25.5490   32.5470 N   0  0  0  0  0  0  0  0  0  0  0  0
   37.2630   24.2070   32.5110 C   0  0  0  0  0  0  0  0  0  0  0  0
   36.2550   23.6510   31.8170 N   0  0  0  0  0  0  0  0  0  0  0  0
   34.5490   24.0040   30.5740 H   0  0  0  0  0  0  0  0  0  0  0  0
   34.7980   26.4640   30.6250 H   0  0  0  0  0  0  0  0  0  0  0  0
   37.9960   23.6370   33.0670 H   0  0  0  0  0  0  0  0  0  0  0  0
   36.4720   27.5140   34.3410 O   0  0  0  0  0  0  0  0  0  0  0  0
   37.1640   27.5440   35.0400 H   0  0  0  0  0  0  0  0  0  0  0  0
   35.4280   30.4130   33.9940 O   0  0  0  0  0  0  0  0  0  0  0  0
   36.5020   32.4420   35.7740 Cl  0  0  0  0  0  0  0  0  0  0  0  0
   34.9750   31.5920   35.8810 C   0  0  0  0  0  0  0  0  0  0  0  0
   34.5060   30.6210   34.9910 C   0  0  0  0  0  0  0  0  0  0  0  0
   33.2810   30.0640   35.2390 C   0  0  0  0  0  0  0  0  0  0  0  0
   33.0010   29.3350   34.5150 H   0  0  0  0  0  0  0  0  0  0  0  0
   32.5340   30.4450   36.3250 C   0  0  0  0  0  0  0  0  0  0  0  0
   31.5800   29.9410   36.4270 H   0  0  0  0  0  0  0  0  0  0  0  0
   32.9790   31.3970   37.2060 C   0  0  0  0  0  3  0  0  0  0  0  0
   34.2110   31.9780   36.9850 C   0  0  0  0  0  3  0  0  0  0  0  0
  1  6  1  1  0  0  0
  1 20  1  0  0  0  0
  2  7  1  6  0  0  0
  2  1  1  0  0  0  0
  3  4  1  0  0  0  0
  3  2  1  0  0  0  0
  4  5  1  0  0  0  0
  5 10  1  1  0  0  0
  5  1  1  0  0  0  0
  5 22  1  0  0  0  0
  8  4  1  0  0  0  0
  9  4  1  0  0  0  0
 11 12  2  0  0  0  0
 11 16  1  0  0  0  0
 12 13  1  0  0  0  0
 13  2  1  0  0  0  0
 13 14  2  0  0  0  0
 15 14  1  0  0  0  0
 15 19  1  0  0  0  0
 16 15  2  0  0  0  0
 17 11  1  0  0  0  0
 18 12  1  0  0  0  0
 20 21  1  0  0  0  0
 22 25  1  0  0  0  0
 23 24  1  0  0  0  0
 24 31  1  0  0  0  0
 25 26  1  0  0  0  0
 25 24  2  0  0  0  0
 26 28  2  0  0  0  0
 27 26  1  0  0  0  0
 28 29  1  0  0  0  0
 28 30  1  0  0  0  0
 31 30  2  0  0  0  0
M  END
>  <minimizedAffinity>
-5.08161688

$$$$

 OpenBabel03262521303D

 31 33  0  0  1  0  0  0  0  0999 V2000
   38.2930   26.1390   33.9150 C   0  0  1  0  0  0  0  0  0  0  0  0
   37.0620   26.0610   33.0600 C   0  0  2  0  0  0  0  0  0  0  0  0
   37.0200   24.8120   32.4780 O   0  0  0  0  0  0  0  0  0  0  0  0
   37.7780   23.9670   33.2740 C   0  0  0  0  0  0  0  0  0  0  0  0
   38.9930   24.8460   33.5730 C   0  0  2  0  0  0  0  0  0  0  0  0
   37.9890   26.0620   34.9930 H   0  0  0  0  0  0  0  0  0  0  0  0
   36.1610   26.1670   33.7010 H   0  0  0  0  0  0  0  0  0  0  0  0
   37.2750   23.6320   34.1790 H   0  0  0  0  0  0  0  0  0  0  0  0
   38.1600   23.1480   32.6150 H   0  0  0  0  0  0  0  0  0  0  0  0
   39.5210   24.9950   32.6310 H   0  0  0  0  0  0  0  0  0  0  0  0
   35.9830   29.1450   31.1680 C   0  0  0  0  0  0  0  0  0  0  0  0
   36.0260   28.1770   32.1880 C   0  0  0  0  0  0  0  0  0  0  0  0
   36.9540   27.1280   32.0410 C   0  0  0  0  0  0  0  0  0  0  0  0
   37.7550   27.0930   30.9390 N   0  0  0  0  0  0  0  0  0  0  0  0
   37.6800   28.0440   29.9830 C   0  0  0  0  0  0  0  0  0  0  0  0
   36.8030   29.0560   30.0980 N   0  0  0  0  0  0  0  0  0  0  0  0
   35.2660   29.9470   31.2910 H   0  0  0  0  0  0  0  0  0  0  0  0
   35.3860   28.2180   33.0550 H   0  0  0  0  0  0  0  0  0  0  0  0
   38.3580   27.9270   29.1470 H   0  0  0  0  0  0  0  0  0  0  0  0
   39.0480   27.2510   33.7510 O   0  0  0  0  0  0  0  0  0  0  0  0
   39.1730   27.8130   34.5500 H   0  0  0  0  0  0  0  0  0  0  0  0
   39.7480   24.3470   34.5830 O   0  0  0  0  0  0  0  0  0  0  0  0
   41.3790   22.2860   35.8190 Cl  0  0  0  0  0  0  0  0  0  0  0  0
   40.0290   23.1670   36.5030 C   0  0  0  0  0  0  0  0  0  0  0  0
   39.2760   24.1540   35.8580 C   0  0  0  0  0  0  0  0  0  0  0  0
   38.2520   24.7350   36.5570 C   0  0  0  0  0  0  0  0  0  0  0  0
   37.7320   25.4750   35.9940 H   0  0  0  0  0  0  0  0  0  0  0  0
   37.9710   24.3640   37.8470 C   0  0  0  0  0  0  0  0  0  0  0  0
   37.1410   24.8870   38.3060 H   0  0  0  0  0  0  0  0  0  0  0  0
   38.7000   23.3980   38.4930 C   0  0  0  0  0  3  0  0  0  0  0  0
   39.7390   22.7920   37.8170 C   0  0  0  0  0  3  0  0  0  0  0  0
  1  6  1  1  0  0  0
  2  7  1  1  0  0  0
  2  1  1  0  0  0  0
  3  2  1  0  0  0  0
  3  4  1  0  0  0  0
  4  5  1  0  0  0  0
  4  8  1  0  0  0  0
  5 10  1  6  0  0  0
  5  1  1  0  0  0  0
  5 22  1  0  0  0  0
  9  4  1  0  0  0  0
 11 17  1  0  0  0  0
 11 12  1  0  0  0  0
 12 18  1  0  0  0  0
 13 12  2  0  0  0  0
 13  2  1  0  0  0  0
 14 13  1  0  0  0  0
 15 16  1  0  0  0  0
 15 14  2  0  0  0  0
 16 11  2  0  0  0  0
 19 15  1  0  0  0  0
 20  1  1  0  0  0  0
 20 21  1  0  0  0  0
 22 25  1  0  0  0  0
 23 24  1  0  0  0  0
 24 31  1  0  0  0  0
 25 24  2  0  0  0  0
 25 26  1  0  0  0  0
 26 28  2  0  0  0  0
 27 26  1  0  0  0  0
 28 29  1  0  0  0  0
 28 30  1  0  0  0  0
 31 30  2  0  0  0  0
M  END
>  <minimizedAffinity>
-4.98976994

$$$$

 OpenBabel03262521303D

 31 33  0  0  1  0  0  0  0  0999 V2000
   37.4820   23.4250   31.7670 C   0  0  1  0  0  0  0  0  0  0  0  0
   36.4390   22.6250   31.0420 C   0  0  2  0  0  0  0  0  0  0  0  0
   35.3100   23.4060   30.9110 O   0  0  0  0  0  0  0  0  0  0  0  0
   35.7190   24.7280   31.0000 C   0  0  0  0  0  0  0  0  0  0  0  0
   36.7080   24.6590   32.1640 C   0  0  2  0  0  0  0  0  0  0  0  0
   38.2580   23.7590   31.0290 H   0  0  0  0  0  0  0  0  0  0  0  0
   36.8040   22.3820   30.0230 H   0  0  0  0  0  0  0  0  0  0  0  0
   36.1730   25.1190   30.0920 H   0  0  0  0  0  0  0  0  0  0  0  0
   34.8480   25.3160   31.3850 H   0  0  0  0  0  0  0  0  0  0  0  0
   36.1340   24.4160   33.0580 H   0  0  0  0  0  0  0  0  0  0  0  0
   35.8530   18.9370   31.6040 C   0  0  0  0  0  0  0  0  0  0  0  0
   36.1840   20.1280   30.9320 C   0  0  0  0  0  0  0  0  0  0  0  0
   36.1180   21.3240   31.6710 C   0  0  0  0  0  0  0  0  0  0  0  0
   35.7410   21.2820   32.9800 N   0  0  0  0  0  0  0  0  0  0  0  0
   35.4320   20.1150   33.5860 C   0  0  0  0  0  0  0  0  0  0  0  0
   35.4870   18.9580   32.9030 N   0  0  0  0  0  0  0  0  0  0  0  0
   35.9090   18.0230   31.0260 H   0  0  0  0  0  0  0  0  0  0  0  0
   36.4810   20.1470   29.8950 H   0  0  0  0  0  0  0  0  0  0  0  0
   35.1440   20.1860   34.6270 H   0  0  0  0  0  0  0  0  0  0  0  0
   38.0970   22.7900   32.7930 O   0  0  0  0  0  0  0  0  0  0  0  0
   39.0720   22.6870   32.7170 H   0  0  0  0  0  0  0  0  0  0  0  0
   37.4680   25.7780   32.2540 O   0  0  0  0  0  0  0  0  0  0  0  0
   40.3330   25.4140   32.5600 Cl  0  0  0  0  0  0  0  0  0  0  0  0
   39.2110   26.2040   33.6460 C   0  0  0  0  0  0  0  0  0  0  0  0
   37.8340   26.3520   33.4470 C   0  0  0  0  0  0  0  0  0  0  0  0
   37.1150   27.0030   34.4130 C   0  0  0  0  0  0  0  0  0  0  0  0
   36.0770   27.0720   34.1830 H   0  0  0  0  0  0  0  0  0  0  0  0
   37.7220   27.4960   35.5400 C   0  0  0  0  0  0  0  0  0  0  0  0
   37.0600   27.9940   36.2380 H   0  0  0  0  0  0  0  0  0  0  0  0
   39.0710   27.3610   35.7490 C   0  0  0  0  0  3  0  0  0  0  0  0
   39.8250   26.7080   34.7950 C   0  0  0  0  0  3  0  0  0  0  0  0
  1  6  1  6  0  0  0
  1  5  1  0  0  0  0
  1 20  1  0  0  0  0
  2  7  1  6  0  0  0
  2 13  1  0  0  0  0
  2  1  1  0  0  0  0
  3  4  1  0  0  0  0
  3  2  1  0  0  0  0
  4  9  1  0  0  0  0
  4  5  1  0  0  0  0
  5 22  1  0  0  0  0
  5 10  1  1  0  0  0
  8  4  1  0  0  0  0
 11 16  1  0  0  0  0
 12 11  2  0  0  0  0
 12 13  1  0  0  0  0
 13 14  2  0  0  0  0
 14 15  1  0  0  0  0
 15 19  1  0  0  0  0
 16 15  2  0  0  0  0
 17 11  1  0  0  0  0
 18 12  1  0  0  0  0
 21 20  1  0  0  0  0
 22 25  1  0  0  0  0
 23 24  1  0  0  0  0
 24 31  1  0  0  0  0
 25 24  2  0  0  0  0
 25 26  1  0  0  0  0
 26 28  2  0  0  0  0
 27 26  1  0  0  0  0
 28 30  1  0  0  0  0
 28 29  1  0  0  0  0
 31 30  2  0  0  0  0
M  END
>  <minimizedAffinity>
-4.97761297

$$$$

 OpenBabel03262521303D

 31 33  0  0  1  0  0  0  0  0999 V2000
   37.8750   25.6180   31.6900 C   0  0  1  0  0  0  0  0  0  0  0  0
   38.0640   26.9360   32.3830 C   0  0  2  0  0  0  0  0  0  0  0  0
   37.8760   26.7430   33.7360 O   0  0  0  0  0  0  0  0  0  0  0  0
   38.1120   25.4000   33.9900 C   0  0  0  0  0  0  0  0  0  0  0  0
   37.3870   24.7400   32.8170 C   0  0  2  0  0  0  0  0  0  0  0  0
   38.8810   25.2210   31.3890 H   0  0  0  0  0  0  0  0  0  0  0  0
   39.1070   27.2860   32.2310 H   0  0  0  0  0  0  0  0  0  0  0  0
   39.1650   25.1300   34.0330 H   0  0  0  0  0  0  0  0  0  0  0  0
   37.5160   25.1290   34.8970 H   0  0  0  0  0  0  0  0  0  0  0  0
   36.3220   24.9330   32.9490 H   0  0  0  0  0  0  0  0  0  0  0  0
   35.3020   29.4880   32.0410 C   0  0  0  0  0  0  0  0  0  0  0  0
   36.0730   28.4540   32.6010 C   0  0  0  0  0  0  0  0  0  0  0  0
   37.2010   28.0250   31.8750 C   0  0  0  0  0  0  0  0  0  0  0  0
   37.4920   28.6160   30.6820 N   0  0  0  0  0  0  0  0  0  0  0  0
   36.7230   29.6070   30.1800 C   0  0  0  0  0  0  0  0  0  0  0  0
   35.6410   30.0350   30.8540 N   0  0  0  0  0  0  0  0  0  0  0  0
   34.4370   29.8090   32.6080 H   0  0  0  0  0  0  0  0  0  0  0  0
   35.8310   27.9950   33.5470 H   0  0  0  0  0  0  0  0  0  0  0  0
   37.0370   30.0110   29.2270 H   0  0  0  0  0  0  0  0  0  0  0  0
   37.0700   25.6410   30.6020 O   0  0  0  0  0  0  0  0  0  0  0  0
   37.4800   25.3610   29.7520 H   0  0  0  0  0  0  0  0  0  0  0  0
   37.7220   23.4340   32.6800 O   0  0  0  0  0  0  0  0  0  0  0  0
   37.5470   21.8680   35.1200 Cl  0  0  0  0  0  0  0  0  0  0  0  0
   36.6810   21.6450   33.6150 C   0  0  0  0  0  0  0  0  0  0  0  0
   36.8050   22.4340   32.4670 C   0  0  0  0  0  0  0  0  0  0  0  0
   36.0420   22.1040   31.3790 C   0  0  0  0  0  0  0  0  0  0  0  0
   36.1970   22.7540   30.5500 H   0  0  0  0  0  0  0  0  0  0  0  0
   35.1820   21.0360   31.4120 C   0  0  0  0  0  0  0  0  0  0  0  0
   34.6260   20.8640   30.4980 H   0  0  0  0  0  0  0  0  0  0  0  0
   35.0480   20.2540   32.5310 C   0  0  0  0  0  3  0  0  0  0  0  0
   35.8040   20.5590   33.6450 C   0  0  0  0  0  3  0  0  0  0  0  0
  1  6  1  6  0  0  0
  1  2  1  0  0  0  0
  1  5  1  0  0  0  0
  2  7  1  6  0  0  0
  2  3  1  0  0  0  0
  3  4  1  0  0  0  0
  4  8  1  0  0  0  0
  4  9  1  0  0  0  0
  5 10  1  1  0  0  0
  5  4  1  0  0  0  0
 11 12  1  0  0  0  0
 11 17  1  0  0  0  0
 12 18  1  0  0  0  0
 13  2  1  0  0  0  0
 13 12  2  0  0  0  0
 14 13  1  0  0  0  0
 15 14  2  0  0  0  0
 15 16  1  0  0  0  0
 16 11  2  0  0  0  0
 19 15  1  0  0  0  0
 20  1  1  0  0  0  0
 21 20  1  0  0  0  0
 22  5  1  0  0  0  0
 24 31  1  0  0  0  0
 24 23  1  0  0  0  0
 25 22  1  0  0  0  0
 25 24  2  0  0  0  0
 26 28  2  0  0  0  0
 26 25  1  0  0  0  0
 27 26  1  0  0  0  0
 28 30  1  0  0  0  0
 29 28  1  0  0  0  0
 30 31  2  0  0  0  0
M  END
>  <minimizedAffinity>
-4.8610425

$$$$

 OpenBabel03262521303D

 31 33  0  0  1  0  0  0  0  0999 V2000
   39.5370   25.4740   34.1360 C   0  0  1  0  0  0  0  0  0  0  0  0
   39.0430   24.0860   34.4220 C   0  0  2  0  0  0  0  0  0  0  0  0
   37.8180   23.9300   33.8090 O   0  0  0  0  0  0  0  0  0  0  0  0
   37.7610   24.8530   32.7750 C   0  0  0  0  0  0  0  0  0  0  0  0
   38.3440   26.0950   33.4500 C   0  0  2  0  0  0  0  0  0  0  0  0
   40.3540   25.4160   33.3680 H   0  0  0  0  0  0  0  0  0  0  0  0
   39.7420   23.3480   33.9780 H   0  0  0  0  0  0  0  0  0  0  0  0
   38.3160   24.5650   31.8850 H   0  0  0  0  0  0  0  0  0  0  0  0
   36.6810   25.0880   32.6050 H   0  0  0  0  0  0  0  0  0  0  0  0
   37.6400   26.4010   34.2230 H   0  0  0  0  0  0  0  0  0  0  0  0
   37.8210   23.6750   37.9710 C   0  0  0  0  0  0  0  0  0  0  0  0
   37.8050   24.0200   36.6080 C   0  0  0  0  0  0  0  0  0  0  0  0
   38.9660   23.7470   35.8600 C   0  0  0  0  0  0  0  0  0  0  0  0
   40.0370   23.1710   36.4760 N   0  0  0  0  0  0  0  0  0  0  0  0
   40.0090   22.8550   37.7890 C   0  0  0  0  0  0  0  0  0  0  0  0
   38.9130   23.1060   38.5250 N   0  0  0  0  0  0  0  0  0  0  0  0
   36.9220   23.8890   38.5360 H   0  0  0  0  0  0  0  0  0  0  0  0
   36.9490   24.4750   36.1330 H   0  0  0  0  0  0  0  0  0  0  0  0
   40.9090   22.4030   38.1840 H   0  0  0  0  0  0  0  0  0  0  0  0
   39.9930   26.1640   35.2090 O   0  0  0  0  0  0  0  0  0  0  0  0
   40.9330   26.4550   35.1690 H   0  0  0  0  0  0  0  0  0  0  0  0
   38.6680   27.0580   32.5520 O   0  0  0  0  0  0  0  0  0  0  0  0
   36.9020   28.0600   34.6290 Cl  0  0  0  0  0  0  0  0  0  0  0  0
   36.8620   28.3890   32.9100 C   0  0  0  0  0  0  0  0  0  0  0  0
   37.7430   27.8770   31.9510 C   0  0  0  0  0  0  0  0  0  0  0  0
   37.5550   28.2480   30.6470 C   0  0  0  0  0  0  0  0  0  0  0  0
   38.2660   27.8140   29.9840 H   0  0  0  0  0  0  0  0  0  0  0  0
   36.5370   29.0940   30.2890 C   0  0  0  0  0  0  0  0  0  0  0  0
   36.4780   29.3230   29.2320 H   0  0  0  0  0  0  0  0  0  0  0  0
   35.6660   29.6060   31.2170 C   0  0  0  0  0  3  0  0  0  0  0  0
   35.8280   29.2510   32.5410 C   0  0  0  0  0  3  0  0  0  0  0  0
  1  6  1  6  0  0  0
  1  2  1  0  0  0  0
  1 20  1  0  0  0  0
  2  7  1  6  0  0  0
  2 13  1  0  0  0  0
  3  2  1  0  0  0  0
  4  5  1  0  0  0  0
  4  3  1  0  0  0  0
  5  1  1  0  0  0  0
  5 10  1  1  0  0  0
  8  4  1  0  0  0  0
  9  4  1  0  0  0  0
 11 16  1  0  0  0  0
 11 17  1  0  0  0  0
 12 11  2  0  0  0  0
 13 14  2  0  0  0  0
 13 12  1  0  0  0  0
 14 15  1  0  0  0  0
 15 19  1  0  0  0  0
 15 16  2  0  0  0  0
 18 12  1  0  0  0  0
 21 20  1  0  0  0  0
 22  5  1  0  0  0  0
 24 23  1  0  0  0  0
 25 22  1  0  0  0  0
 25 24  2  0  0  0  0
 26 25  1  0  0  0  0
 27 26  1  0  0  0  0
 28 26  2  0  0  0  0
 28 30  1  0  0  0  0
 29 28  1  0  0  0  0
 30 31  2  0  0  0  0
 31 24  1  0  0  0  0
M  END
>  <minimizedAffinity>
-4.8397541

$$$$

 OpenBabel03262521303D

 31 33  0  0  1  0  0  0  0  0999 V2000
   37.5280   24.2600   31.6960 C   0  0  1  0  0  0  0  0  0  0  0  0
   36.5370   23.3930   30.9750 C   0  0  2  0  0  0  0  0  0  0  0  0
   35.3340   24.0650   30.9240 O   0  0  0  0  0  0  0  0  0  0  0  0
   35.6170   25.4150   31.0600 C   0  0  0  0  0  0  0  0  0  0  0  0
   36.6570   25.3940   32.1810 C   0  0  2  0  0  0  0  0  0  0  0  0
   38.2370   24.7000   30.9450 H   0  0  0  0  0  0  0  0  0  0  0  0
   36.8800   23.2320   29.9310 H   0  0  0  0  0  0  0  0  0  0  0  0
   35.9920   25.8880   30.1540 H   0  0  0  0  0  0  0  0  0  0  0  0
   34.7110   25.8980   31.5050 H   0  0  0  0  0  0  0  0  0  0  0  0
   36.1480   25.0570   33.0840 H   0  0  0  0  0  0  0  0  0  0  0  0
   35.1430   20.4020   32.8100 C   0  0  0  0  0  0  0  0  0  0  0  0
   35.2160   21.7060   32.2870 C   0  0  0  0  0  0  0  0  0  0  0  0
   36.3700   22.0410   31.5530 C   0  0  0  0  0  0  0  0  0  0  0  0
   37.3490   21.1090   31.3840 N   0  0  0  0  0  0  0  0  0  0  0  0
   37.2380   19.8680   31.9040 C   0  0  0  0  0  0  0  0  0  0  0  0
   36.1460   19.5220   32.6090 N   0  0  0  0  0  0  0  0  0  0  0  0
   34.2510   20.1550   33.3720 H   0  0  0  0  0  0  0  0  0  0  0  0
   34.4330   22.4340   32.4280 H   0  0  0  0  0  0  0  0  0  0  0  0
   38.0680   19.2000   31.7150 H   0  0  0  0  0  0  0  0  0  0  0  0
   38.2440   23.6440   32.6660 O   0  0  0  0  0  0  0  0  0  0  0  0
   39.2210   23.6410   32.5480 H   0  0  0  0  0  0  0  0  0  0  0  0
   37.3090   26.5770   32.2940 O   0  0  0  0  0  0  0  0  0  0  0  0
   37.1620   26.8740   35.1800 Cl  0  0  0  0  0  0  0  0  0  0  0  0
   36.5790   27.9630   33.9390 C   0  0  0  0  0  0  0  0  0  0  0  0
   36.6780   27.7680   32.5570 C   0  0  0  0  0  0  0  0  0  0  0  0
   36.1620   28.7350   31.7370 C   0  0  0  0  0  0  0  0  0  0  0  0
   36.2780   28.5080   30.7030 H   0  0  0  0  0  0  0  0  0  0  0  0
   35.5670   29.8590   32.2500 C   0  0  0  0  0  0  0  0  0  0  0  0
   35.1930   30.5590   31.5130 H   0  0  0  0  0  0  0  0  0  0  0  0
   35.4630   30.0650   33.6030 C   0  0  0  0  0  3  0  0  0  0  0  0
   35.9730   29.1090   34.4580 C   0  0  0  0  0  3  0  0  0  0  0  0
  1  6  1  6  0  0  0
  1  5  1  0  0  0  0
  1 20  1  0  0  0  0
  2  7  1  6  0  0  0
  2 13  1  0  0  0  0
  2  1  1  0  0  0  0
  3  2  1  0  0  0  0
  3  4  1  0  0  0  0
  4  9  1  0  0  0  0
  4  5  1  0  0  0  0
  5 22  1  0  0  0  0
  5 10  1  1  0  0  0
  8  4  1  0  0  0  0
 11 17  1  0  0  0  0
 12 18  1  0  0  0  0
 12 11  2  0  0  0  0
 13 12  1  0  0  0  0
 14 13  2  0  0  0  0
 14 15  1  0  0  0  0
 15 16  2  0  0  0  0
 16 11  1  0  0  0  0
 19 15  1  0  0  0  0
 21 20  1  0  0  0  0
 22 25  1  0  0  0  0
 24 31  1  0  0  0  0
 24 23  1  0  0  0  0
 25 24  2  0  0  0  0
 26 28  2  0  0  0  0
 26 25  1  0  0  0  0
 27 26  1  0  0  0  0
 28 30  1  0  0  0  0
 29 28  1  0  0  0  0
 30 31  2  0  0  0  0
M  END
>  <minimizedAffinity>
-4.83785534

$$$$

 OpenBabel03262521303D

 31 33  0  0  1  0  0  0  0  0999 V2000
   36.7600   28.1550   33.1610 C   0  0  1  0  0  0  0  0  0  0  0  0
   36.7580   27.8060   31.7010 C   0  0  2  0  0  0  0  0  0  0  0  0
   35.7380   28.5050   31.0920 O   0  0  0  0  0  0  0  0  0  0  0  0
   35.4690   29.6070   31.8890 C   0  0  0  0  0  0  0  0  0  0  0  0
   35.5040   28.9840   33.2850 C   0  0  2  0  0  0  0  0  0  0  0  0
   37.6200   28.8460   33.3660 H   0  0  0  0  0  0  0  0  0  0  0  0
   37.7150   28.1330   31.2440 H   0  0  0  0  0  0  0  0  0  0  0  0
   36.1790   30.4240   31.7810 H   0  0  0  0  0  0  0  0  0  0  0  0
   34.3990   29.8840   31.7150 H   0  0  0  0  0  0  0  0  0  0  0  0
   34.6600   28.2980   33.3510 H   0  0  0  0  0  0  0  0  0  0  0  0
   37.6220   24.2120   30.9320 C   0  0  0  0  0  0  0  0  0  0  0  0
   37.8100   25.5790   31.2060 C   0  0  0  0  0  0  0  0  0  0  0  0
   36.6560   26.3570   31.4180 C   0  0  0  0  0  0  0  0  0  0  0  0
   35.4290   25.7680   31.3490 N   0  0  0  0  0  0  0  0  0  0  0  0
   35.2950   24.4500   31.0840 C   0  0  0  0  0  0  0  0  0  0  0  0
   36.3800   23.6840   30.8770 N   0  0  0  0  0  0  0  0  0  0  0  0
   38.5160   23.6220   30.7710 H   0  0  0  0  0  0  0  0  0  0  0  0
   38.7870   26.0320   31.2570 H   0  0  0  0  0  0  0  0  0  0  0  0
   34.2790   24.0770   31.0500 H   0  0  0  0  0  0  0  0  0  0  0  0
   36.8290   27.1050   34.0130 O   0  0  0  0  0  0  0  0  0  0  0  0
   37.6040   27.0880   34.6190 H   0  0  0  0  0  0  0  0  0  0  0  0
   35.5600   29.9230   34.2610 O   0  0  0  0  0  0  0  0  0  0  0  0
   36.3380   32.2400   35.8300 Cl  0  0  0  0  0  0  0  0  0  0  0  0
   34.7970   31.4090   35.8010 C   0  0  0  0  0  0  0  0  0  0  0  0
   34.4770   30.2920   35.0210 C   0  0  0  0  0  0  0  0  0  0  0  0
   33.2140   29.7760   35.1320 C   0  0  0  0  0  0  0  0  0  0  0  0
   33.0540   28.9300   34.5060 H   0  0  0  0  0  0  0  0  0  0  0  0
   32.2900   30.3340   35.9790 C   0  0  0  0  0  0  0  0  0  0  0  0
   31.3220   29.8470   35.9900 H   0  0  0  0  0  0  0  0  0  0  0  0
   32.5890   31.4290   36.7500 C   0  0  0  0  0  3  0  0  0  0  0  0
   33.8540   31.9740   36.6610 C   0  0  0  0  0  3  0  0  0  0  0  0
  1  5  1  0  0  0  0
  1  6  1  1  0  0  0
  1 20  1  0  0  0  0
  2  7  1  6  0  0  0
  2  1  1  0  0  0  0
  3  2  1  0  0  0  0
  3  4  1  0  0  0  0
  4  5  1  0  0  0  0
  5 10  1  1  0  0  0
  5 22  1  0  0  0  0
  8  4  1  0  0  0  0
  9  4  1  0  0  0  0
 11 12  1  0  0  0  0
 12 18  1  0  0  0  0
 12 13  2  0  0  0  0
 13  2  1  0  0  0  0
 14 13  1  0  0  0  0
 15 14  2  0  0  0  0
 16 11  2  0  0  0  0
 16 15  1  0  0  0  0
 17 11  1  0  0  0  0
 19 15  1  0  0  0  0
 20 21  1  0  0  0  0
 22 25  1  0  0  0  0
 24 23  1  0  0  0  0
 24 31  1  0  0  0  0
 25 26  1  0  0  0  0
 25 24  2  0  0  0  0
 26 28  2  0  0  0  0
 27 26  1  0  0  0  0
 28 29  1  0  0  0  0
 28 30  1  0  0  0  0
 31 30  2  0  0  0  0
M  END
>  <minimizedAffinity>
-4.78776407

$$$$

 OpenBabel03262521303D

 31 33  0  0  1  0  0  0  0  0999 V2000
   38.9610   23.4500   33.5310 C   0  0  1  0  0  0  0  0  0  0  0  0
   38.5790   22.3220   34.4430 C   0  0  2  0  0  0  0  0  0  0  0  0
   37.2770   21.9620   34.1640 O   0  0  0  0  0  0  0  0  0  0  0  0
   37.0120   22.3750   32.8660 C   0  0  0  0  0  0  0  0  0  0  0  0
   37.6460   23.7670   32.8590 C   0  0  2  0  0  0  0  0  0  0  0  0
   39.6410   23.0540   32.7310 H   0  0  0  0  0  0  0  0  0  0  0  0
   39.2260   21.4440   34.2340 H   0  0  0  0  0  0  0  0  0  0  0  0
   37.4240   21.7270   32.0960 H   0  0  0  0  0  0  0  0  0  0  0  0
   35.9100   22.5520   32.7970 H   0  0  0  0  0  0  0  0  0  0  0  0
   37.0660   24.3870   33.5420 H   0  0  0  0  0  0  0  0  0  0  0  0
   37.9320   23.3230   38.0260 C   0  0  0  0  0  0  0  0  0  0  0  0
   37.6750   23.0610   36.6680 C   0  0  0  0  0  0  0  0  0  0  0  0
   38.7540   22.6110   35.8840 C   0  0  0  0  0  0  0  0  0  0  0  0
   39.9790   22.4530   36.4590 N   0  0  0  0  0  0  0  0  0  0  0  0
   40.1820   22.7160   37.7690 C   0  0  0  0  0  0  0  0  0  0  0  0
   39.1680   23.1470   38.5400 N   0  0  0  0  0  0  0  0  0  0  0  0
   37.0950   23.6670   38.6200 H   0  0  0  0  0  0  0  0  0  0  0  0
   36.7000   23.1910   36.2250 H   0  0  0  0  0  0  0  0  0  0  0  0
   41.1890   22.5590   38.1310 H   0  0  0  0  0  0  0  0  0  0  0  0
   39.5580   24.5080   34.1290 O   0  0  0  0  0  0  0  0  0  0  0  0
   40.4650   24.7290   33.8160 H   0  0  0  0  0  0  0  0  0  0  0  0
   37.7770   24.2610   31.6030 O   0  0  0  0  0  0  0  0  0  0  0  0
   35.0540   25.1300   31.0860 Cl  0  0  0  0  0  0  0  0  0  0  0  0
   36.5270   26.0770   31.0580 C   0  0  0  0  0  0  0  0  0  0  0  0
   37.8170   25.6030   31.3170 C   0  0  0  0  0  0  0  0  0  0  0  0
   38.8520   26.4970   31.2470 C   0  0  0  0  0  0  0  0  0  0  0  0
   39.7980   26.0550   31.4570 H   0  0  0  0  0  0  0  0  0  0  0  0
   38.6330   27.8150   30.9340 C   0  0  0  0  0  0  0  0  0  0  0  0
   39.5220   28.4340   30.9070 H   0  0  0  0  0  0  0  0  0  0  0  0
   37.3740   28.2940   30.6790 C   0  0  0  0  0  3  0  0  0  0  0  0
   36.3080   27.4190   30.7400 C   0  0  0  0  0  3  0  0  0  0  0  0
  1  6  1  6  0  0  0
  1 20  1  0  0  0  0
  1  2  1  0  0  0  0
  2  7  1  6  0  0  0
  2 13  1  0  0  0  0
  3  2  1  0  0  0  0
  4  3  1  0  0  0  0
  5  4  1  0  0  0  0
  5  1  1  0  0  0  0
  5 10  1  1  0  0  0
  8  4  1  0  0  0  0
  9  4  1  0  0  0  0
 11 16  1  0  0  0  0
 11 17  1  0  0  0  0
 12 11  2  0  0  0  0
 13 14  2  0  0  0  0
 13 12  1  0  0  0  0
 14 15  1  0  0  0  0
 15 19  1  0  0  0  0
 15 16  2  0  0  0  0
 18 12  1  0  0  0  0
 21 20  1  0  0  0  0
 22  5  1  0  0  0  0
 24 23  1  0  0  0  0
 24 25  1  0  0  0  0
 25 22  1  0  0  0  0
 26 25  2  0  0  0  0
 26 27  1  0  0  0  0
 28 26  1  0  0  0  0
 29 28  1  0  0  0  0
 30 31  1  0  0  0  0
 30 28  2  0  0  0  0
 31 24  2  0  0  0  0
M  END
>  <minimizedAffinity>
-4.78563356

$$$$
