
 OpenBabel03272503493D

 37 39  0  0  1  0  0  0  0  0999 V2000
   33.2580   27.2720   45.8420 C   0  0  1  0  0  0  0  0  0  0  0  0
   33.9160   27.4470   47.2300 C   0  0  2  0  0  0  0  0  0  0  0  0
   33.7310   26.2350   47.8160 O   0  0  0  0  0  0  0  0  0  0  0  0
   34.0820   25.3170   46.8360 C   0  0  0  0  0  0  0  0  0  0  0  0
   33.6710   25.8770   45.5000 C   0  0  2  0  0  0  0  0  0  0  0  0
   33.6570   28.0250   45.1350 H   0  0  0  0  0  0  0  0  0  0  0  0
   34.9870   27.7290   47.0420 H   0  0  0  0  0  0  0  0  0  0  0  0
   35.1530   25.1220   46.9410 H   0  0  0  0  0  0  0  0  0  0  0  0
   33.4460   24.4110   47.0160 H   0  0  0  0  0  0  0  0  0  0  0  0
   32.7950   25.3600   45.0700 H   0  0  0  0  0  0  0  0  0  0  0  0
   31.8960   27.4840   45.9250 O   0  0  0  0  0  0  0  0  0  0  0  0
   31.6240   28.3920   45.6800 H   0  0  0  0  0  0  0  0  0  0  0  0
   33.2670   28.5090   47.7870 O   0  0  0  0  0  0  0  0  0  0  0  0
   35.3370   29.8000   46.7810 O   0  0  0  0  0  0  0  0  0  0  0  0
   34.0700   29.9760   47.6080 P   0  0  1  0  0  0  0  0  0  0  0  0
   33.1140   31.0560   46.7240 O   0  0  0  0  0  0  0  0  0  0  0  0
   32.5270   31.5220   47.4010 H   0  0  0  0  0  0  0  0  0  0  0  0
   34.3590   30.5710   49.1820 O   0  0  0  0  0  0  0  0  0  0  0  0
   35.6030   30.4690   49.7890 C   0  0  0  0  0  0  0  0  0  0  0  0
   35.9640   29.4560   50.6980 C   0  0  0  0  0  0  0  0  0  0  0  0
   37.2470   29.4820   51.2230 C   0  0  0  0  0  0  0  0  0  0  0  0
   38.0970   30.4850   50.8350 N   0  0  0  0  0  0  0  0  0  0  0  0
   37.7200   31.4480   49.9570 C   0  0  0  0  0  0  0  0  0  0  0  0
   36.4640   31.4450   49.4240 N   0  0  0  0  0  0  0  0  0  0  0  0
   35.2120   28.7160   50.9310 H   0  0  0  0  0  0  0  0  0  0  0  0
   37.5330   28.7090   51.9230 H   0  0  0  0  0  0  0  0  0  0  0  0
   38.3970   32.2360   49.6560 H   0  0  0  0  0  0  0  0  0  0  0  0
   34.7200   25.8720   44.6130 O   0  0  0  0  0  0  0  0  0  0  0  0
   33.6060   25.3670   41.9340 Cl  0  0  0  0  0  0  0  0  0  0  0  0
   34.9150   24.4830   42.7350 C   0  0  0  0  0  0  0  0  0  0  0  0
   35.3480   24.8240   44.0070 C   0  0  0  0  0  0  0  0  0  0  0  0
   36.3750   24.0740   44.5440 C   0  0  0  0  0  0  0  0  0  0  0  0
   36.7200   24.3300   45.5310 H   0  0  0  0  0  0  0  0  0  0  0  0
   36.9810   23.0230   43.8940 C   0  0  0  0  0  0  0  0  0  0  0  0
   37.7840   22.4410   44.3230 H   0  0  0  0  0  0  0  0  0  0  0  0
   36.5620   22.6700   42.6280 C   0  0  0  0  0  0  0  0  0  0  0  0
   35.5340   23.4140   42.0780 C   0  0  0  0  0  0  0  0  0  0  0  0
  1  6  1  6  0  0  0
  1 11  1  0  0  0  0
  1  2  1  0  0  0  0
  2  7  1  6  0  0  0
  2 13  1  0  0  0  0
  2  3  1  0  0  0  0
  4  8  1  0  0  0  0
  4  9  1  0  0  0  0
  4  3  1  0  0  0  0
  5 10  1  6  0  0  0
  5  1  1  0  0  0  0
  5  4  1  0  0  0  0
 12 11  1  0  0  0  0
 15 14  2  6  0  0  0
 15 13  1  0  0  0  0
 15 18  1  0  0  0  0
 16 17  1  0  0  0  0
 16 15  1  0  0  0  0
 18 19  1  0  0  0  0
 19 20  1  0  0  0  0
 20 25  1  0  0  0  0
 20 21  2  0  0  0  0
 21 26  1  0  0  0  0
 22 21  1  0  0  0  0
 23 22  2  0  0  0  0
 24 19  2  0  0  0  0
 24 23  1  0  0  0  0
 27 23  1  0  0  0  0
 28  5  1  0  0  0  0
 29 30  1  0  0  0  0
 30 31  1  0  0  0  0
 31 32  2  0  0  0  0
 31 28  1  0  0  0  0
 32 33  1  0  0  0  0
 34 35  1  0  0  0  0
 34 32  1  0  0  0  0
 36 34  2  0  0  0  0
 37 36  1  0  0  0  0
 37 30  2  0  0  0  0
M  END
>  <minimizedAffinity>
-4.19777679

>  <minimizedRMSD>
1.52006364

$$$$
