
 OpenBabel03272507373D

 23 24  0  0  0  0  0  0  0  0999 V2000
   37.0810   30.4280   48.1610 C   0  0  0  0  0  0  0  0  0  0  0  0
   35.9520   30.2690   47.3450 C   0  0  0  0  0  0  0  0  0  0  0  0
   34.6900   30.3740   47.8870 C   0  0  0  0  0  0  0  0  0  0  0  0
   34.5940   30.6330   49.2200 N   0  0  0  0  0  0  0  0  0  0  0  0
   35.6950   30.7850   50.0060 C   0  0  0  0  0  0  0  0  0  0  0  0
   36.9020   30.6810   49.4640 N   0  0  0  0  0  0  0  0  0  0  0  0
   33.7690   30.2640   47.3230 H   0  0  0  0  0  0  0  0  0  0  0  0
   35.5970   30.9930   51.0740 H   0  0  0  0  0  0  0  0  0  0  0  0
   34.7820   30.0560   45.2130 C   0  0  0  0  0  0  0  0  0  0  0  0
   33.5570   30.3140   45.4640 O   0  0  0  0  0  0  0  0  0  0  0  0
   35.9740   30.0040   45.9760 N   0  0  0  0  0  0  0  0  0  0  0  0
   34.7380   29.8530   44.1390 H   0  0  0  0  0  0  0  0  0  0  0  0
   36.8050   29.7570   45.4090 H   0  0  0  0  0  0  0  0  0  0  0  0
   38.2450   30.2900   47.4510 O   0  0  0  0  0  0  0  0  0  0  0  0
   38.7990   32.8510   48.9300 Cl  0  0  0  0  0  0  0  0  0  0  0  0
   39.2450   32.5700   47.2620 C   0  0  0  0  0  0  0  0  0  0  0  0
   38.8900   31.3240   46.7950 C   0  0  0  0  0  0  0  0  0  0  0  0
   39.1890   30.9690   45.4740 C   0  0  0  0  0  0  0  0  0  0  0  0
   38.9810   30.0400   44.9610 H   0  0  0  0  0  0  0  0  0  0  0  0
   39.8440   31.8830   44.6440 C   0  0  0  0  0  0  0  0  0  0  0  0
   40.1120   31.6950   43.6180 H   0  0  0  0  0  0  0  0  0  0  0  0
   40.1920   33.1400   45.1440 C   0  0  0  0  0  0  0  0  0  0  0  0
   39.8870   33.4720   46.4530 C   0  0  0  0  0  0  0  0  0  0  0  0
  1  6  1  0  0  0  0
  2  3  1  0  0  0  0
  2  1  2  0  0  0  0
  3  4  2  0  0  0  0
  4  5  1  0  0  0  0
  5  8  1  0  0  0  0
  6  5  2  0  0  0  0
  7  3  1  0  0  0  0
  9 10  2  0  0  0  0
  9 11  1  0  0  0  0
 11  2  1  0  0  0  0
 12  9  1  0  0  0  0
 13 11  1  0  0  0  0
 14  1  1  0  0  0  0
 16 15  1  0  0  0  0
 17 16  1  0  0  0  0
 17 14  1  0  0  0  0
 18 17  2  0  0  0  0
 19 18  1  0  0  0  0
 20 22  2  0  0  0  0
 20 18  1  0  0  0  0
 21 20  1  0  0  0  0
 22 23  1  0  0  0  0
 23 16  2  0  0  0  0
M  END
>  <minimizedAffinity>
-4.62340593

>  <minimizedRMSD>
6.81370306

$$$$
