
 OpenBabel03262521433D

 30 32  0  0  1  0  0  0  0  0999 V2000
   38.1090   24.3160   33.6020 C   0  0  1  0  0  0  0  0  0  0  0  0
   39.1190   24.9230   34.5840 C   0  0  2  0  0  0  0  0  0  0  0  0
   40.3680   24.5300   33.8280 C   0  0  0  0  0  0  0  0  0  0  0  0
   40.1050   24.8370   32.5020 O   0  0  0  0  0  0  0  0  0  0  0  0
   38.7550   24.8480   32.3070 C   0  0  0  0  0  0  0  0  0  0  0  0
   37.1270   24.7550   33.7620 H   0  0  0  0  0  0  0  0  0  0  0  0
   38.9700   26.0220   34.5540 H   0  0  0  0  0  0  0  0  0  0  0  0
   41.2740   25.0400   34.2110 H   0  0  0  0  0  0  0  0  0  0  0  0
   40.4840   23.4230   33.9170 H   0  0  0  0  0  0  0  0  0  0  0  0
   38.3060   25.8110   32.0190 H   0  0  0  0  0  0  0  0  0  0  0  0
   38.5350   24.1410   31.4660 H   0  0  0  0  0  0  0  0  0  0  0  0
   39.0050   24.3230   35.9200 C   0  0  0  0  0  0  0  0  0  0  0  0
   37.9810   24.7240   36.7910 C   0  0  0  0  0  0  0  0  0  0  0  0
   37.9490   24.1280   38.0550 C   0  0  0  0  0  0  0  0  0  0  0  0
   38.9030   23.1970   38.3720 N   0  0  0  0  0  0  0  0  0  0  0  0
   39.8880   22.8300   37.4950 C   0  0  0  0  0  0  0  0  0  0  0  0
   39.9240   23.4060   36.2700 N   0  0  0  0  0  0  0  0  0  0  0  0
   37.2630   25.4510   36.4990 H   0  0  0  0  0  0  0  0  0  0  0  0
   37.1920   24.3840   38.7790 H   0  0  0  0  0  0  0  0  0  0  0  0
   40.6060   22.1050   37.7870 H   0  0  0  0  0  0  0  0  0  0  0  0
   38.2010   22.9650   33.5190 O   0  0  0  0  0  0  0  0  0  0  0  0
   36.9500   21.4400   35.6400 Cl  0  0  0  0  0  0  0  0  0  0  0  0
   36.5640   21.4570   33.9120 C   0  0  0  0  0  0  0  0  0  0  0  0
   37.2020   22.2170   32.9240 C   0  0  0  0  0  0  0  0  0  0  0  0
   36.7520   22.0900   31.6270 C   0  0  0  0  0  0  0  0  0  0  0  0
   37.3220   22.7230   30.9620 H   0  0  0  0  0  0  0  0  0  0  0  0
   35.7090   21.2410   31.3380 C   0  0  0  0  0  0  0  0  0  0  0  0
   35.4520   21.2340   30.2850 H   0  0  0  0  0  0  0  0  0  0  0  0
   35.0810   20.4980   32.3010 C   0  0  0  0  0  3  0  0  0  0  0  0
   35.5040   20.5970   33.6100 C   0  0  0  0  0  3  0  0  0  0  0  0
  1  6  1  1  0  0  0
  1  2  1  0  0  0  0
  2  7  1  1  0  0  0
  2 12  1  0  0  0  0
  3  9  1  0  0  0  0
  3  8  1  0  0  0  0
  3  2  1  0  0  0  0
  4  3  1  0  0  0  0
  5  4  1  0  0  0  0
  5  1  1  0  0  0  0
 10  5  1  0  0  0  0
 11  5  1  0  0  0  0
 12 17  2  0  0  0  0
 12 13  1  0  0  0  0
 13 14  2  0  0  0  0
 14 15  1  0  0  0  0
 14 19  1  0  0  0  0
 16 20  1  0  0  0  0
 16 15  2  0  0  0  0
 17 16  1  0  0  0  0
 18 13  1  0  0  0  0
 21  1  1  0  0  0  0
 23 22  1  0  0  0  0
 24 21  1  0  0  0  0
 24 23  2  0  0  0  0
 25 24  1  0  0  0  0
 26 25  1  0  0  0  0
 27 25  2  0  0  0  0
 27 29  1  0  0  0  0
 28 27  1  0  0  0  0
 29 30  2  0  0  0  0
 30 23  1  0  0  0  0
M  END
>  <minimizedAffinity>
-4.90493059

$$$$

 OpenBabel03262521433D

 30 32  0  0  1  0  0  0  0  0999 V2000
   39.2010   26.0840   34.5970 C   0  0  1  0  0  0  0  0  0  0  0  0
   38.2290   26.6860   33.5730 C   0  0  2  0  0  0  0  0  0  0  0  0
   37.1070   26.9860   34.5410 C   0  0  0  0  0  0  0  0  0  0  0  0
   37.7180   27.5570   35.6450 O   0  0  0  0  0  0  0  0  0  0  0  0
   39.0220   27.1600   35.6880 C   0  0  0  0  0  0  0  0  0  0  0  0
   40.2120   26.0910   34.1990 H   0  0  0  0  0  0  0  0  0  0  0  0
   38.6950   27.6230   33.2070 H   0  0  0  0  0  0  0  0  0  0  0  0
   36.3300   27.6400   34.0970 H   0  0  0  0  0  0  0  0  0  0  0  0
   36.6570   26.0120   34.8510 H   0  0  0  0  0  0  0  0  0  0  0  0
   39.7820   27.9490   35.5790 H   0  0  0  0  0  0  0  0  0  0  0  0
   39.1970   26.7000   36.6950 H   0  0  0  0  0  0  0  0  0  0  0  0
   37.8830   25.7190   32.5220 C   0  0  0  0  0  0  0  0  0  0  0  0
   38.8790   25.1990   31.6840 C   0  0  0  0  0  0  0  0  0  0  0  0
   38.4720   24.3030   30.6900 C   0  0  0  0  0  0  0  0  0  0  0  0
   37.1430   23.9850   30.5900 N   0  0  0  0  0  0  0  0  0  0  0  0
   36.1990   24.5140   31.4280 C   0  0  0  0  0  0  0  0  0  0  0  0
   36.5880   25.3820   32.3910 N   0  0  0  0  0  0  0  0  0  0  0  0
   39.8990   25.4770   31.8000 H   0  0  0  0  0  0  0  0  0  0  0  0
   39.1800   23.8610   30.0070 H   0  0  0  0  0  0  0  0  0  0  0  0
   35.1810   24.2370   31.3100 H   0  0  0  0  0  0  0  0  0  0  0  0
   38.7380   24.9350   35.1510 O   0  0  0  0  0  0  0  0  0  0  0  0
   37.7130   24.3030   37.7850 Cl  0  0  0  0  0  0  0  0  0  0  0  0
   39.1520   23.6650   36.9740 C   0  0  0  0  0  0  0  0  0  0  0  0
   39.6060   24.0050   35.6930 C   0  0  0  0  0  0  0  0  0  0  0  0
   40.7550   23.3950   35.2370 C   0  0  0  0  0  0  0  0  0  0  0  0
   41.0000   23.7390   34.2430 H   0  0  0  0  0  0  0  0  0  0  0  0
   41.4160   22.4860   36.0320 C   0  0  0  0  0  0  0  0  0  0  0  0
   42.3030   22.0810   35.5570 H   0  0  0  0  0  0  0  0  0  0  0  0
   40.9760   22.1510   37.2830 C   0  0  0  0  0  3  0  0  0  0  0  0
   39.8300   22.7400   37.7740 C   0  0  0  0  0  3  0  0  0  0  0  0
  1  6  1  6  0  0  0
  1 21  1  0  0  0  0
  1  5  1  0  0  0  0
  2  7  1  6  0  0  0
  2  3  1  0  0  0  0
  2  1  1  0  0  0  0
  3  9  1  0  0  0  0
  3  4  1  0  0  0  0
  4  5  1  0  0  0  0
  5 11  1  0  0  0  0
  8  3  1  0  0  0  0
 10  5  1  0  0  0  0
 12  2  1  0  0  0  0
 13 18  1  0  0  0  0
 13 12  2  0  0  0  0
 14 13  1  0  0  0  0
 15 14  2  0  0  0  0
 15 16  1  0  0  0  0
 16 17  2  0  0  0  0
 17 12  1  0  0  0  0
 19 14  1  0  0  0  0
 20 16  1  0  0  0  0
 21 24  1  0  0  0  0
 23 30  1  0  0  0  0
 23 22  1  0  0  0  0
 24 23  2  0  0  0  0
 25 24  1  0  0  0  0
 25 27  2  0  0  0  0
 26 25  1  0  0  0  0
 27 29  1  0  0  0  0
 28 27  1  0  0  0  0
 29 30  2  0  0  0  0
M  END
>  <minimizedAffinity>
-4.87647438

$$$$

 OpenBabel03262521433D

 30 32  0  0  1  0  0  0  0  0999 V2000
   37.2210   25.2550   31.7470 C   0  0  1  0  0  0  0  0  0  0  0  0
   36.5870   24.1970   30.8350 C   0  0  2  0  0  0  0  0  0  0  0  0
   35.1850   24.7610   30.8480 C   0  0  0  0  0  0  0  0  0  0  0  0
   35.3380   26.1280   30.6720 O   0  0  0  0  0  0  0  0  0  0  0  0
   36.5870   26.4920   31.0780 C   0  0  0  0  0  0  0  0  0  0  0  0
   38.3010   25.2520   31.6250 H   0  0  0  0  0  0  0  0  0  0  0  0
   37.0520   24.3210   29.8350 H   0  0  0  0  0  0  0  0  0  0  0  0
   34.5360   24.3020   30.0760 H   0  0  0  0  0  0  0  0  0  0  0  0
   34.7570   24.5830   31.8650 H   0  0  0  0  0  0  0  0  0  0  0  0
   37.2580   26.8990   30.3060 H   0  0  0  0  0  0  0  0  0  0  0  0
   36.4650   27.3040   31.8410 H   0  0  0  0  0  0  0  0  0  0  0  0
   36.7050   22.8480   31.4060 C   0  0  0  0  0  0  0  0  0  0  0  0
   35.5750   22.2010   31.9270 C   0  0  0  0  0  0  0  0  0  0  0  0
   35.7660   20.9290   32.4770 C   0  0  0  0  0  0  0  0  0  0  0  0
   37.0260   20.3910   32.4760 N   0  0  0  0  0  0  0  0  0  0  0  0
   38.1060   21.0540   31.9570 C   0  0  0  0  0  0  0  0  0  0  0  0
   37.9250   22.2860   31.4250 N   0  0  0  0  0  0  0  0  0  0  0  0
   34.6170   22.6600   31.9050 H   0  0  0  0  0  0  0  0  0  0  0  0
   34.9460   20.3690   32.8970 H   0  0  0  0  0  0  0  0  0  0  0  0
   39.0630   20.5950   31.9810 H   0  0  0  0  0  0  0  0  0  0  0  0
   36.7190   25.2330   33.0080 O   0  0  0  0  0  0  0  0  0  0  0  0
   38.1540   23.4170   34.7480 Cl  0  0  0  0  0  0  0  0  0  0  0  0
   37.9800   25.1740   34.8820 C   0  0  0  0  0  0  0  0  0  0  0  0
   37.2730   26.0100   34.0090 C   0  0  0  0  0  0  0  0  0  0  0  0
   37.2550   27.3600   34.2870 C   0  0  0  0  0  0  0  0  0  0  0  0
   36.6800   27.8940   33.5460 H   0  0  0  0  0  0  0  0  0  0  0  0
   37.9200   27.8460   35.3900 C   0  0  0  0  0  0  0  0  0  0  0  0
   37.8290   28.9210   35.4950 H   0  0  0  0  0  0  0  0  0  0  0  0
   38.6140   27.0330   36.2450 C   0  0  0  0  0  3  0  0  0  0  0  0
   38.6530   25.6760   36.0000 C   0  0  0  0  0  3  0  0  0  0  0  0
  1  6  1  6  0  0  0
  1 21  1  0  0  0  0
  2  7  1  6  0  0  0
  2  3  1  0  0  0  0
  2 12  1  0  0  0  0
  2  1  1  0  0  0  0
  3  9  1  0  0  0  0
  4  3  1  0  0  0  0
  4  5  1  0  0  0  0
  5  1  1  0  0  0  0
  5 11  1  0  0  0  0
  8  3  1  0  0  0  0
 10  5  1  0  0  0  0
 12 17  2  0  0  0  0
 12 13  1  0  0  0  0
 13 14  2  0  0  0  0
 14 19  1  0  0  0  0
 15 14  1  0  0  0  0
 16 20  1  0  0  0  0
 16 15  2  0  0  0  0
 17 16  1  0  0  0  0
 18 13  1  0  0  0  0
 21 24  1  0  0  0  0
 22 23  1  0  0  0  0
 23 30  1  0  0  0  0
 24 25  1  0  0  0  0
 24 23  2  0  0  0  0
 25 27  2  0  0  0  0
 26 25  1  0  0  0  0
 27 28  1  0  0  0  0
 27 29  1  0  0  0  0
 30 29  2  0  0  0  0
M  END
>  <minimizedAffinity>
-4.77614975

$$$$

 OpenBabel03262521433D

 30 32  0  0  1  0  0  0  0  0999 V2000
   38.9480   22.9590   34.7370 C   0  0  1  0  0  0  0  0  0  0  0  0
   39.2030   24.3440   35.3470 C   0  0  2  0  0  0  0  0  0  0  0  0
   38.6330   24.0490   36.7160 C   0  0  0  0  0  0  0  0  0  0  0  0
   39.1380   22.8050   37.0630 O   0  0  0  0  0  0  0  0  0  0  0  0
   39.4670   22.1260   35.9270 C   0  0  0  0  0  0  0  0  0  0  0  0
   39.5710   22.8210   33.8580 H   0  0  0  0  0  0  0  0  0  0  0  0
   40.3040   24.4700   35.3980 H   0  0  0  0  0  0  0  0  0  0  0  0
   38.8850   24.8330   37.4580 H   0  0  0  0  0  0  0  0  0  0  0  0
   37.5240   23.9620   36.6110 H   0  0  0  0  0  0  0  0  0  0  0  0
   40.5310   21.8800   35.7900 H   0  0  0  0  0  0  0  0  0  0  0  0
   38.9250   21.1460   35.9570 H   0  0  0  0  0  0  0  0  0  0  0  0
   38.4960   25.4000   34.6100 C   0  0  0  0  0  0  0  0  0  0  0  0
   37.6040   26.2530   35.2770 C   0  0  0  0  0  0  0  0  0  0  0  0
   36.9480   27.2180   34.5070 C   0  0  0  0  0  0  0  0  0  0  0  0
   37.2070   27.2800   33.1630 N   0  0  0  0  0  0  0  0  0  0  0  0
   38.0850   26.4290   32.5460 C   0  0  0  0  0  0  0  0  0  0  0  0
   38.7220   25.4920   33.2880 N   0  0  0  0  0  0  0  0  0  0  0  0
   37.4360   26.1650   36.3230 H   0  0  0  0  0  0  0  0  0  0  0  0
   36.2490   27.9090   34.9480 H   0  0  0  0  0  0  0  0  0  0  0  0
   38.2520   26.5160   31.5010 H   0  0  0  0  0  0  0  0  0  0  0  0
   37.6270   22.6610   34.6420 O   0  0  0  0  0  0  0  0  0  0  0  0
   35.6860   20.7800   35.6830 Cl  0  0  0  0  0  0  0  0  0  0  0  0
   36.1830   21.0440   34.0040 C   0  0  0  0  0  0  0  0  0  0  0  0
   37.1290   21.9720   33.5510 C   0  0  0  0  0  0  0  0  0  0  0  0
   37.3790   22.0260   32.1960 C   0  0  0  0  0  0  0  0  0  0  0  0
   38.1240   22.7760   31.9750 H   0  0  0  0  0  0  0  0  0  0  0  0
   36.7060   21.1870   31.3370 C   0  0  0  0  0  0  0  0  0  0  0  0
   36.9920   21.3300   30.3010 H   0  0  0  0  0  0  0  0  0  0  0  0
   35.7790   20.2800   31.7740 C   0  0  0  0  0  3  0  0  0  0  0  0
   35.5030   20.1970   33.1230 C   0  0  0  0  0  3  0  0  0  0  0  0
  1  6  1  6  0  0  0
  1  2  1  0  0  0  0
  1  5  1  0  0  0  0
  2  7  1  1  0  0  0
  2  3  1  0  0  0  0
  3  4  1  0  0  0  0
  3  8  1  0  0  0  0
  5 11  1  0  0  0  0
  5  4  1  0  0  0  0
  9  3  1  0  0  0  0
 10  5  1  0  0  0  0
 12 13  1  0  0  0  0
 12  2  1  0  0  0  0
 13 18  1  0  0  0  0
 14 19  1  0  0  0  0
 14 13  2  0  0  0  0
 15 14  1  0  0  0  0
 16 15  2  0  0  0  0
 16 17  1  0  0  0  0
 17 12  2  0  0  0  0
 20 16  1  0  0  0  0
 21  1  1  0  0  0  0
 23 22  1  0  0  0  0
 24 23  1  0  0  0  0
 24 21  1  0  0  0  0
 25 24  2  0  0  0  0
 26 25  1  0  0  0  0
 27 29  2  0  0  0  0
 27 25  1  0  0  0  0
 28 27  1  0  0  0  0
 29 30  1  0  0  0  0
 30 23  2  0  0  0  0
M  END
>  <minimizedAffinity>
-4.74385071

$$$$

 OpenBabel03262521433D

 30 32  0  0  1  0  0  0  0  0999 V2000
   37.8010   24.2000   36.9160 C   0  0  1  0  0  0  0  0  0  0  0  0
   38.3350   22.7650   36.8240 C   0  0  2  0  0  0  0  0  0  0  0  0
   39.5100   22.9470   37.7570 C   0  0  0  0  0  0  0  0  0  0  0  0
   39.0120   23.6540   38.8400 O   0  0  0  0  0  0  0  0  0  0  0  0
   37.9040   24.3460   38.4480 C   0  0  0  0  0  0  0  0  0  0  0  0
   36.7660   24.2330   36.5870 H   0  0  0  0  0  0  0  0  0  0  0  0
   37.5660   22.1100   37.2820 H   0  0  0  0  0  0  0  0  0  0  0  0
   39.9690   21.9820   38.0520 H   0  0  0  0  0  0  0  0  0  0  0  0
   40.2630   23.5860   37.2340 H   0  0  0  0  0  0  0  0  0  0  0  0
   36.9530   24.0670   38.9270 H   0  0  0  0  0  0  0  0  0  0  0  0
   38.0760   25.4230   38.7070 H   0  0  0  0  0  0  0  0  0  0  0  0
   38.7030   22.4110   35.4460 C   0  0  0  0  0  0  0  0  0  0  0  0
   40.0450   22.1810   35.1100 C   0  0  0  0  0  0  0  0  0  0  0  0
   40.3240   21.8730   33.7740 C   0  0  0  0  0  0  0  0  0  0  0  0
   39.2880   21.8120   32.8790 N   0  0  0  0  0  0  0  0  0  0  0  0
   37.9890   22.0430   33.2460 C   0  0  0  0  0  0  0  0  0  0  0  0
   37.7150   22.3420   34.5370 N   0  0  0  0  0  0  0  0  0  0  0  0
   40.8150   22.2400   35.8400 H   0  0  0  0  0  0  0  0  0  0  0  0
   41.3310   21.6840   33.4390 H   0  0  0  0  0  0  0  0  0  0  0  0
   37.2210   21.9850   32.5150 H   0  0  0  0  0  0  0  0  0  0  0  0
   38.6640   25.1170   36.4100 O   0  0  0  0  0  0  0  0  0  0  0  0
   41.1000   25.5120   34.8940 Cl  0  0  0  0  0  0  0  0  0  0  0  0
   39.4710   26.1130   34.5490 C   0  0  0  0  0  0  0  0  0  0  0  0
   38.3210   25.8920   35.3170 C   0  0  0  0  0  0  0  0  0  0  0  0
   37.1390   26.4480   34.8780 C   0  0  0  0  0  0  0  0  0  0  0  0
   36.3300   26.2080   35.5530 H   0  0  0  0  0  0  0  0  0  0  0  0
   37.1150   27.1910   33.7190 C   0  0  0  0  0  0  0  0  0  0  0  0
   36.1260   27.5700   33.4850 H   0  0  0  0  0  0  0  0  0  0  0  0
   38.2350   27.4080   32.9640 C   0  0  0  0  0  3  0  0  0  0  0  0
   39.4370   26.8680   33.3730 C   0  0  0  0  0  3  0  0  0  0  0  0
  1  6  1  6  0  0  0
  1  5  1  0  0  0  0
  2  1  1  0  0  0  0
  2  7  1  1  0  0  0
  2  3  1  0  0  0  0
  3  8  1  0  0  0  0
  3  4  1  0  0  0  0
  5 11  1  0  0  0  0
  5  4  1  0  0  0  0
  5 10  1  0  0  0  0
  9  3  1  0  0  0  0
 12  2  1  0  0  0  0
 13 12  1  0  0  0  0
 13 18  1  0  0  0  0
 14 13  2  0  0  0  0
 15 16  2  0  0  0  0
 15 14  1  0  0  0  0
 16 17  1  0  0  0  0
 17 12  2  0  0  0  0
 19 14  1  0  0  0  0
 20 16  1  0  0  0  0
 21  1  1  0  0  0  0
 23 22  1  0  0  0  0
 23 24  1  0  0  0  0
 24 21  1  0  0  0  0
 25 24  2  0  0  0  0
 25 26  1  0  0  0  0
 27 25  1  0  0  0  0
 28 27  1  0  0  0  0
 29 30  1  0  0  0  0
 29 27  2  0  0  0  0
 30 23  2  0  0  0  0
M  END
>  <minimizedAffinity>
-4.64401674

$$$$

 OpenBabel03262521433D

 30 32  0  0  1  0  0  0  0  0999 V2000
   37.7270   25.5330   33.9130 C   0  0  1  0  0  0  0  0  0  0  0  0
   38.7030   25.9210   35.0320 C   0  0  2  0  0  0  0  0  0  0  0  0
   39.8500   26.3340   34.1390 C   0  0  0  0  0  0  0  0  0  0  0  0
   39.2770   27.1020   33.1380 O   0  0  0  0  0  0  0  0  0  0  0  0
   37.9610   26.7670   33.0180 C   0  0  0  0  0  0  0  0  0  0  0  0
   36.7110   25.5120   34.2970 H   0  0  0  0  0  0  0  0  0  0  0  0
   38.2650   26.8010   35.5440 H   0  0  0  0  0  0  0  0  0  0  0  0
   40.6430   26.8760   34.6920 H   0  0  0  0  0  0  0  0  0  0  0  0
   40.2710   25.4080   33.6750 H   0  0  0  0  0  0  0  0  0  0  0  0
   37.2280   27.5550   33.2480 H   0  0  0  0  0  0  0  0  0  0  0  0
   37.7860   26.4860   31.9470 H   0  0  0  0  0  0  0  0  0  0  0  0
   38.9980   24.7810   35.9120 C   0  0  0  0  0  0  0  0  0  0  0  0
   38.1380   24.4660   36.9740 C   0  0  0  0  0  0  0  0  0  0  0  0
   38.4960   23.3840   37.7840 C   0  0  0  0  0  0  0  0  0  0  0  0
   39.6490   22.6990   37.5030 N   0  0  0  0  0  0  0  0  0  0  0  0
   40.4640   23.0380   36.4570 C   0  0  0  0  0  0  0  0  0  0  0  0
   40.1230   24.0850   35.6700 N   0  0  0  0  0  0  0  0  0  0  0  0
   37.2530   25.0280   37.1520 H   0  0  0  0  0  0  0  0  0  0  0  0
   37.8840   23.0810   38.6190 H   0  0  0  0  0  0  0  0  0  0  0  0
   41.3480   22.4770   36.2800 H   0  0  0  0  0  0  0  0  0  0  0  0
   38.1580   24.4740   33.1820 O   0  0  0  0  0  0  0  0  0  0  0  0
   36.5190   24.5440   30.7950 Cl  0  0  0  0  0  0  0  0  0  0  0  0
   36.6370   23.2710   32.0210 C   0  0  0  0  0  0  0  0  0  0  0  0
   37.4490   23.2860   33.1610 C   0  0  0  0  0  0  0  0  0  0  0  0
   37.3990   22.1930   34.0000 C   0  0  0  0  0  0  0  0  0  0  0  0
   38.0660   22.3240   34.8380 H   0  0  0  0  0  0  0  0  0  0  0  0
   36.5700   21.1340   33.7030 C   0  0  0  0  0  0  0  0  0  0  0  0
   36.6250   20.3400   34.4400 H   0  0  0  0  0  0  0  0  0  0  0  0
   35.7760   21.1150   32.5900 C   0  0  0  0  0  3  0  0  0  0  0  0
   35.7990   22.1910   31.7280 C   0  0  0  0  0  3  0  0  0  0  0  0
  1  6  1  1  0  0  0
  1  2  1  0  0  0  0
  2  7  1  1  0  0  0
  2 12  1  0  0  0  0
  3  8  1  0  0  0  0
  3  2  1  0  0  0  0
  4  3  1  0  0  0  0
  5  4  1  0  0  0  0
  5 10  1  0  0  0  0
  5  1  1  0  0  0  0
  9  3  1  0  0  0  0
 11  5  1  0  0  0  0
 12 13  1  0  0  0  0
 13 18  1  0  0  0  0
 13 14  2  0  0  0  0
 14 19  1  0  0  0  0
 15 14  1  0  0  0  0
 16 15  2  0  0  0  0
 17 12  2  0  0  0  0
 17 16  1  0  0  0  0
 20 16  1  0  0  0  0
 21  1  1  0  0  0  0
 22 23  1  0  0  0  0
 23 24  1  0  0  0  0
 24 21  1  0  0  0  0
 24 25  2  0  0  0  0
 25 26  1  0  0  0  0
 27 25  1  0  0  0  0
 27 28  1  0  0  0  0
 29 27  2  0  0  0  0
 30 23  2  0  0  0  0
 30 29  1  0  0  0  0
M  END
>  <minimizedAffinity>
-4.57554579

$$$$

 OpenBabel03262521433D

 30 32  0  0  1  0  0  0  0  0999 V2000
   38.4590   24.0650   33.5900 C   0  0  1  0  0  0  0  0  0  0  0  0
   39.3410   24.7610   34.6360 C   0  0  2  0  0  0  0  0  0  0  0  0
   40.6740   24.4020   34.0190 C   0  0  0  0  0  0  0  0  0  0  0  0
   40.5260   24.6430   32.6620 O   0  0  0  0  0  0  0  0  0  0  0  0
   39.2030   24.5790   32.3400 C   0  0  0  0  0  0  0  0  0  0  0  0
   37.4480   24.4600   33.6360 H   0  0  0  0  0  0  0  0  0  0  0  0
   39.1440   25.8480   34.5440 H   0  0  0  0  0  0  0  0  0  0  0  0
   41.5130   24.9710   34.4650 H   0  0  0  0  0  0  0  0  0  0  0  0
   40.8320   23.3060   34.1670 H   0  0  0  0  0  0  0  0  0  0  0  0
   38.7400   25.5060   31.9690 H   0  0  0  0  0  0  0  0  0  0  0  0
   39.0980   23.8290   31.5130 H   0  0  0  0  0  0  0  0  0  0  0  0
   39.1250   24.2070   35.9800 C   0  0  0  0  0  0  0  0  0  0  0  0
   38.0110   24.6010   36.7360 C   0  0  0  0  0  0  0  0  0  0  0  0
   37.8850   24.0520   38.0160 C   0  0  0  0  0  0  0  0  0  0  0  0
   38.8380   23.1720   38.4570 N   0  0  0  0  0  0  0  0  0  0  0  0
   39.9120   22.8120   37.6890 C   0  0  0  0  0  0  0  0  0  0  0  0
   40.0400   23.3410   36.4490 N   0  0  0  0  0  0  0  0  0  0  0  0
   37.2980   25.2870   36.3510 H   0  0  0  0  0  0  0  0  0  0  0  0
   37.0550   24.3060   38.6570 H   0  0  0  0  0  0  0  0  0  0  0  0
   40.6260   22.1270   38.0750 H   0  0  0  0  0  0  0  0  0  0  0  0
   38.6220   22.7180   33.5750 O   0  0  0  0  0  0  0  0  0  0  0  0
   38.1130   21.4780   31.0080 Cl  0  0  0  0  0  0  0  0  0  0  0  0
   37.2590   21.2420   32.5410 C   0  0  0  0  0  0  0  0  0  0  0  0
   37.5470   21.8690   33.7600 C   0  0  0  0  0  0  0  0  0  0  0  0
   36.7610   21.5500   34.8470 C   0  0  0  0  0  0  0  0  0  0  0  0
   37.0810   22.0960   35.7220 H   0  0  0  0  0  0  0  0  0  0  0  0
   35.7350   20.6420   34.7140 C   0  0  0  0  0  0  0  0  0  0  0  0
   35.1960   20.4790   35.6400 H   0  0  0  0  0  0  0  0  0  0  0  0
   35.4510   20.0260   33.5250 C   0  0  0  0  0  3  0  0  0  0  0  0
   36.2150   20.3200   32.4150 C   0  0  0  0  0  3  0  0  0  0  0  0
  1  6  1  1  0  0  0
  1  2  1  0  0  0  0
  2  7  1  6  0  0  0
  2 12  1  0  0  0  0
  3  9  1  0  0  0  0
  3  8  1  0  0  0  0
  3  2  1  0  0  0  0
  4  3  1  0  0  0  0
  5  4  1  0  0  0  0
  5  1  1  0  0  0  0
 10  5  1  0  0  0  0
 11  5  1  0  0  0  0
 12 17  2  0  0  0  0
 12 13  1  0  0  0  0
 13 14  2  0  0  0  0
 14 15  1  0  0  0  0
 14 19  1  0  0  0  0
 16 20  1  0  0  0  0
 16 15  2  0  0  0  0
 17 16  1  0  0  0  0
 18 13  1  0  0  0  0
 21  1  1  0  0  0  0
 21 24  1  0  0  0  0
 22 23  1  0  0  0  0
 23 24  1  0  0  0  0
 24 25  2  0  0  0  0
 25 26  1  0  0  0  0
 27 25  1  0  0  0  0
 27 28  1  0  0  0  0
 29 27  2  0  0  0  0
 30 23  2  0  0  0  0
 30 29  1  0  0  0  0
M  END
>  <minimizedAffinity>
-4.57365084

$$$$

 OpenBabel03262521433D

 30 32  0  0  1  0  0  0  0  0999 V2000
   36.7100   28.6760   32.6620 C   0  0  1  0  0  0  0  0  0  0  0  0
   37.4560   27.3380   32.5570 C   0  0  2  0  0  0  0  0  0  0  0  0
   36.3820   26.5890   31.8010 C   0  0  0  0  0  0  0  0  0  0  0  0
   35.9540   27.4610   30.8130 O   0  0  0  0  0  0  0  0  0  0  0  0
   36.2250   28.7400   31.1990 C   0  0  0  0  0  0  0  0  0  0  0  0
   37.4130   29.4760   32.8790 H   0  0  0  0  0  0  0  0  0  0  0  0
   38.3400   27.5180   31.9120 H   0  0  0  0  0  0  0  0  0  0  0  0
   36.7460   25.6260   31.3920 H   0  0  0  0  0  0  0  0  0  0  0  0
   35.5330   26.4110   32.5060 H   0  0  0  0  0  0  0  0  0  0  0  0
   36.9410   29.3020   30.5800 H   0  0  0  0  0  0  0  0  0  0  0  0
   35.2620   29.3130   31.1540 H   0  0  0  0  0  0  0  0  0  0  0  0
   37.7640   26.7840   33.8830 C   0  0  0  0  0  0  0  0  0  0  0  0
   38.2480   27.6180   34.9020 C   0  0  0  0  0  0  0  0  0  0  0  0
   38.5440   27.0160   36.1300 C   0  0  0  0  0  0  0  0  0  0  0  0
   38.3460   25.6680   36.2710 N   0  0  0  0  0  0  0  0  0  0  0  0
   37.8710   24.8870   35.2520 C   0  0  0  0  0  0  0  0  0  0  0  0
   37.5850   25.4640   34.0610 N   0  0  0  0  0  0  0  0  0  0  0  0
   38.3850   28.6600   34.7440 H   0  0  0  0  0  0  0  0  0  0  0  0
   38.9190   27.5910   36.9610 H   0  0  0  0  0  0  0  0  0  0  0  0
   37.7360   23.8460   35.4100 H   0  0  0  0  0  0  0  0  0  0  0  0
   35.5810   28.5920   33.4100 O   0  0  0  0  0  0  0  0  0  0  0  0
   32.7560   29.0090   32.9300 Cl  0  0  0  0  0  0  0  0  0  0  0  0
   33.8300   29.8740   34.0410 C   0  0  0  0  0  0  0  0  0  0  0  0
   35.1960   29.6320   34.2360 C   0  0  0  0  0  0  0  0  0  0  0  0
   35.8620   30.4180   35.1510 C   0  0  0  0  0  0  0  0  0  0  0  0
   36.9030   30.1350   35.2110 H   0  0  0  0  0  0  0  0  0  0  0  0
   35.1870   31.4020   35.8380 C   0  0  0  0  0  0  0  0  0  0  0  0
   35.8240   31.9470   36.5250 H   0  0  0  0  0  0  0  0  0  0  0  0
   33.8530   31.6420   35.6510 C   0  0  0  0  0  3  0  0  0  0  0  0
   33.1520   30.8750   34.7430 C   0  0  0  0  0  3  0  0  0  0  0  0
  1  6  1  1  0  0  0
  1 21  1  0  0  0  0
  2  7  1  6  0  0  0
  2  1  1  0  0  0  0
  2 12  1  0  0  0  0
  3  9  1  0  0  0  0
  3  2  1  0  0  0  0
  4  5  1  0  0  0  0
  4  3  1  0  0  0  0
  5  1  1  0  0  0  0
  8  3  1  0  0  0  0
 10  5  1  0  0  0  0
 11  5  1  0  0  0  0
 12 17  2  0  0  0  0
 12 13  1  0  0  0  0
 13 14  2  0  0  0  0
 14 15  1  0  0  0  0
 14 19  1  0  0  0  0
 16 20  1  0  0  0  0
 16 15  2  0  0  0  0
 17 16  1  0  0  0  0
 18 13  1  0  0  0  0
 21 24  1  0  0  0  0
 22 23  1  0  0  0  0
 23 24  2  0  0  0  0
 23 30  1  0  0  0  0
 24 25  1  0  0  0  0
 25 26  1  0  0  0  0
 25 27  2  0  0  0  0
 27 28  1  0  0  0  0
 29 27  1  0  0  0  0
 30 29  2  0  0  0  0
M  END
>  <minimizedAffinity>
-4.50365734

$$$$

 OpenBabel03262521433D

 30 32  0  0  1  0  0  0  0  0999 V2000
   37.8420   23.0650   33.7170 C   0  0  1  0  0  0  0  0  0  0  0  0
   37.8970   23.6260   32.2890 C   0  0  2  0  0  0  0  0  0  0  0  0
   39.2120   22.9920   31.8960 C   0  0  0  0  0  0  0  0  0  0  0  0
   39.1380   21.6840   32.3470 O   0  0  0  0  0  0  0  0  0  0  0  0
   38.2400   21.6160   33.3710 C   0  0  0  0  0  0  0  0  0  0  0  0
   36.8240   23.1140   34.0950 H   0  0  0  0  0  0  0  0  0  0  0  0
   37.0550   23.1640   31.7350 H   0  0  0  0  0  0  0  0  0  0  0  0
   39.4040   23.0570   30.8060 H   0  0  0  0  0  0  0  0  0  0  0  0
   40.0230   23.5150   32.4600 H   0  0  0  0  0  0  0  0  0  0  0  0
   37.3440   21.0000   33.2000 H   0  0  0  0  0  0  0  0  0  0  0  0
   38.7680   21.1580   34.2470 H   0  0  0  0  0  0  0  0  0  0  0  0
   37.9050   25.0950   32.2840 C   0  0  0  0  0  0  0  0  0  0  0  0
   39.0350   25.7940   31.8330 C   0  0  0  0  0  0  0  0  0  0  0  0
   38.9800   27.1910   31.8800 C   0  0  0  0  0  0  0  0  0  0  0  0
   37.8450   27.7930   32.3540 N   0  0  0  0  0  0  0  0  0  0  0  0
   36.7610   27.0760   32.7860 C   0  0  0  0  0  0  0  0  0  0  0  0
   36.8100   25.7240   32.7440 N   0  0  0  0  0  0  0  0  0  0  0  0
   39.8940   25.2810   31.4740 H   0  0  0  0  0  0  0  0  0  0  0  0
   39.8090   27.7970   31.5510 H   0  0  0  0  0  0  0  0  0  0  0  0
   35.9040   27.5890   33.1460 H   0  0  0  0  0  0  0  0  0  0  0  0
   38.8420   23.5330   34.5050 O   0  0  0  0  0  0  0  0  0  0  0  0
   41.0200   22.0380   35.6950 Cl  0  0  0  0  0  0  0  0  0  0  0  0
   39.7150   22.9240   36.5000 C   0  0  0  0  0  0  0  0  0  0  0  0
   38.6820   23.6340   35.8750 C   0  0  0  0  0  0  0  0  0  0  0  0
   37.7550   24.2610   36.6810 C   0  0  0  0  0  0  0  0  0  0  0  0
   37.0140   24.7710   36.0850 H   0  0  0  0  0  0  0  0  0  0  0  0
   37.8640   24.1780   38.0510 C   0  0  0  0  0  0  0  0  0  0  0  0
   37.0760   24.7140   38.5680 H   0  0  0  0  0  0  0  0  0  0  0  0
   38.8720   23.4860   38.6660 C   0  0  0  0  0  3  0  0  0  0  0  0
   39.8180   22.8460   37.8920 C   0  0  0  0  0  3  0  0  0  0  0  0
  1  6  1  1  0  0  0
  1 21  1  0  0  0  0
  2  7  1  6  0  0  0
  2  1  1  0  0  0  0
  3  2  1  0  0  0  0
  3  4  1  0  0  0  0
  3  9  1  0  0  0  0
  4  5  1  0  0  0  0
  5  1  1  0  0  0  0
  5 11  1  0  0  0  0
  8  3  1  0  0  0  0
 10  5  1  0  0  0  0
 12  2  1  0  0  0  0
 12 17  1  0  0  0  0
 13 14  1  0  0  0  0
 13 12  2  0  0  0  0
 14 15  2  0  0  0  0
 15 16  1  0  0  0  0
 16 20  1  0  0  0  0
 17 16  2  0  0  0  0
 18 13  1  0  0  0  0
 19 14  1  0  0  0  0
 21 24  1  0  0  0  0
 22 23  1  0  0  0  0
 23 30  1  0  0  0  0
 24 23  2  0  0  0  0
 24 25  1  0  0  0  0
 25 27  2  0  0  0  0
 26 25  1  0  0  0  0
 27 28  1  0  0  0  0
 27 29  1  0  0  0  0
 30 29  2  0  0  0  0
M  END
>  <minimizedAffinity>
-4.47114944

$$$$
