
 OpenBabel03272502583D

 34 36  0  0  1  0  0  0  0  0999 V2000
   35.7620   29.6810   48.7200 N   0  0  0  0  0  0  0  0  0  0  0  0
   36.6590   28.9080   49.5470 C   0  0  0  0  0  0  0  0  0  0  0  0
   37.2360   29.5700   50.7250 C   0  0  0  0  0  0  0  0  0  0  0  0
   37.3540   31.0430   50.7280 C   0  0  0  0  0  0  0  0  0  0  0  0
   36.4320   31.7350   49.7710 C   0  0  0  0  0  0  0  0  0  0  0  0
   36.3710   30.9660   48.4470 C   0  0  1  0  0  0  0  0  0  0  0  0
   37.4640   28.5270   48.8860 H   0  0  0  0  0  0  0  0  0  0  0  0
   36.0910   27.9850   49.8630 H   0  0  0  0  0  0  0  0  0  0  0  0
   38.2470   29.1430   50.9090 H   0  0  0  0  0  0  0  0  0  0  0  0
   36.6460   29.2680   51.6360 H   0  0  0  0  0  0  0  0  0  0  0  0
   38.4060   31.3830   50.5180 H   0  0  0  0  0  0  0  0  0  0  0  0
   37.1470   31.4650   51.7440 H   0  0  0  0  0  0  0  0  0  0  0  0
   36.8590   32.7400   49.5460 H   0  0  0  0  0  0  0  0  0  0  0  0
   35.3930   31.8240   50.1830 H   0  0  0  0  0  0  0  0  0  0  0  0
   35.7850   31.5930   47.7710 H   0  0  0  0  0  0  0  0  0  0  0  0
   34.4860   29.2300   48.2570 C   0  0  0  0  0  0  0  0  0  0  0  0
   33.8860   29.6630   47.0650 C   0  0  0  0  0  0  0  0  0  0  0  0
   32.6470   29.1460   46.7350 C   0  0  0  0  0  0  0  0  0  0  0  0
   32.0720   28.2500   47.5750 N   0  0  0  0  0  0  0  0  0  0  0  0
   32.6790   27.8620   48.7080 C   0  0  0  0  0  0  0  0  0  0  0  0
   33.8890   28.3510   49.0530 N   0  0  0  0  0  0  0  0  0  0  0  0
   34.4130   30.3650   46.4740 H   0  0  0  0  0  0  0  0  0  0  0  0
   32.1660   29.4660   45.8210 H   0  0  0  0  0  0  0  0  0  0  0  0
   32.1800   27.1420   49.3490 H   0  0  0  0  0  0  0  0  0  0  0  0
   37.7080   30.8310   48.0650 O   0  0  0  0  0  0  0  0  0  0  0  0
   36.9810   30.3330   45.2850 Cl  0  0  0  0  0  0  0  0  0  0  0  0
   38.1340   31.5200   45.8980 C   0  0  0  0  0  0  0  0  0  0  0  0
   38.4180   31.6880   47.2550 C   0  0  0  0  0  0  0  0  0  0  0  0
   39.3320   32.6410   47.6150 C   0  0  0  0  0  0  0  0  0  0  0  0
   39.5130   32.7270   48.6730 H   0  0  0  0  0  0  0  0  0  0  0  0
   39.9500   33.4130   46.6560 C   0  0  0  0  0  0  0  0  0  0  0  0
   40.6610   34.1500   46.9790 H   0  0  0  0  0  0  0  0  0  0  0  0
   39.6880   33.2700   45.3050 C   0  0  0  0  0  3  0  0  0  0  0  0
   38.7630   32.3030   44.9520 C   0  0  0  0  0  3  0  0  0  0  0  0
  1  2  1  0  0  0  0
  2  8  1  0  0  0  0
  2  3  1  0  0  0  0
  3  4  1  0  0  0  0
  3  9  1  0  0  0  0
  3 10  1  0  0  0  0
  4 12  1  0  0  0  0
  5 14  1  0  0  0  0
  5  4  1  0  0  0  0
  6 15  1  6  0  0  0
  6  1  1  0  0  0  0
  6  5  1  0  0  0  0
  7  2  1  0  0  0  0
 11  4  1  0  0  0  0
 13  5  1  0  0  0  0
 16  1  1  0  0  0  0
 16 21  1  0  0  0  0
 17 16  2  0  0  0  0
 18 17  1  0  0  0  0
 18 19  2  0  0  0  0
 19 20  1  0  0  0  0
 20 21  2  0  0  0  0
 20 24  1  0  0  0  0
 22 17  1  0  0  0  0
 23 18  1  0  0  0  0
 25  6  1  0  0  0  0
 26 27  1  0  0  0  0
 27 28  1  0  0  0  0
 28 29  2  0  0  0  0
 28 25  1  0  0  0  0
 29 30  1  0  0  0  0
 31 32  1  0  0  0  0
 31 29  1  0  0  0  0
 33 31  2  0  0  0  0
 34 33  1  0  0  0  0
 34 27  2  0  0  0  0
M  END
>  <minimizedAffinity>
-5.65237331

>  <minimizedRMSD>
1.08544683

$$$$
