
 OpenBabel03272509463D

 25 26  0  0  0  0  0  0  0  0999 V2000
   34.7100   30.4010   49.5200 C   0  0  0  0  0  0  0  0  0  0  0  0
   33.9890   30.8410   50.2290 H   0  0  0  0  0  0  0  0  0  0  0  0
   34.6450   31.0590   48.6100 H   0  0  0  0  0  0  0  0  0  0  0  0
   34.3090   29.0320   49.0530 C   0  0  0  0  0  0  0  0  0  0  0  0
   33.2750   28.8080   49.4480 H   0  0  0  0  0  0  0  0  0  0  0  0
   34.9720   28.2360   49.4500 H   0  0  0  0  0  0  0  0  0  0  0  0
   33.5270   26.3030   47.8290 Cl  0  0  0  0  0  0  0  0  0  0  0  0
   33.9000   27.7350   46.8920 C   0  0  0  0  0  0  0  0  0  0  0  0
   34.2400   28.8720   47.5920 C   0  0  0  0  0  0  0  0  0  0  0  0
   34.5310   29.9610   46.7680 C   0  0  0  0  0  0  0  0  0  0  0  0
   34.8100   30.8990   47.2730 H   0  0  0  0  0  0  0  0  0  0  0  0
   34.5060   29.9850   45.3910 C   0  0  0  0  0  0  0  0  0  0  0  0
   34.7490   30.8790   44.8550 H   0  0  0  0  0  0  0  0  0  0  0  0
   34.1490   28.7790   44.7920 C   0  0  0  0  0  3  0  0  0  0  0  0
   33.8420   27.6420   45.5190 C   0  0  0  0  0  3  0  0  0  0  0  0
   36.0170   30.4290   50.0310 O   0  0  0  0  0  0  0  0  0  0  0  0
   38.1740   33.1770   49.0910 C   0  0  0  0  0  0  0  0  0  0  0  0
   38.8480   32.5840   48.0140 C   0  0  0  0  0  0  0  0  0  0  0  0
   38.5360   31.2790   47.6600 C   0  0  0  0  0  0  0  0  0  0  0  0
   37.5730   30.6530   48.4060 N   0  0  0  0  0  0  0  0  0  0  0  0
   36.9410   31.2520   49.4370 C   0  0  0  0  0  0  0  0  0  0  0  0
   37.2560   32.5180   49.7670 N   0  0  0  0  0  0  0  0  0  0  0  0
   38.4600   34.1940   49.3180 H   0  0  0  0  0  0  0  0  0  0  0  0
   39.6090   33.0950   47.4350 H   0  0  0  0  0  0  0  0  0  0  0  0
   39.0190   30.7610   46.8410 H   0  0  0  0  0  0  0  0  0  0  0  0
  1 16  1  0  0  0  0
  1  2  1  0  0  0  0
  3  1  1  0  0  0  0
  4  5  1  0  0  0  0
  4  6  1  0  0  0  0
  4  1  1  0  0  0  0
  8  9  1  0  0  0  0
  8  7  1  0  0  0  0
  9  4  1  0  0  0  0
 10 11  1  0  0  0  0
 10  9  2  0  0  0  0
 12 10  1  0  0  0  0
 13 12  1  0  0  0  0
 14 12  2  0  0  0  0
 14 15  1  0  0  0  0
 15  8  2  0  0  0  0
 17 23  1  0  0  0  0
 17 22  1  0  0  0  0
 18 17  2  0  0  0  0
 19 18  1  0  0  0  0
 19 20  2  0  0  0  0
 20 21  1  0  0  0  0
 21 22  2  0  0  0  0
 21 16  1  0  0  0  0
 24 18  1  0  0  0  0
 25 19  1  0  0  0  0
M  END
>  <minimizedAffinity>
-4.31708241

>  <minimizedRMSD>
4.00583792

$$$$
