
 OpenBabel03272504093D

 33 35  0  0  0  0  0  0  0  0999 V2000
   37.2150   30.6280   50.1170 C   0  0  0  0  0  0  0  0  0  0  0  0
   36.8930   30.5870   48.7620 C   0  0  0  0  0  0  0  0  0  0  0  0
   35.6680   30.0110   48.3420 C   0  0  0  0  0  0  0  0  0  0  0  0
   34.8550   29.5200   49.2960 N   0  0  0  0  0  0  0  0  0  0  0  0
   35.2020   29.5740   50.6350 C   0  0  0  0  0  0  0  0  0  0  0  0
   36.3780   30.1280   51.0300 N   0  0  0  0  0  0  0  0  0  0  0  0
   34.2860   29.0370   51.5870 N   0  0  0  0  0  0  0  0  0  0  0  0
   38.1480   31.0700   50.4330 H   0  0  0  0  0  0  0  0  0  0  0  0
   33.9480   29.7190   52.3210 H   0  0  0  0  0  0  0  0  0  0  0  0
   33.9330   28.0560   51.6170 H   0  0  0  0  0  0  0  0  0  0  0  0
   38.0080   33.3890   49.1370 Cl  0  0  0  0  0  0  0  0  0  0  0  0
   38.4700   32.3920   47.8060 C   0  0  0  0  0  0  0  0  0  0  0  0
   37.8750   31.1680   47.8090 C   0  0  0  0  0  0  0  0  0  0  0  0
   38.1920   30.2680   46.7650 C   0  0  0  0  0  0  0  0  0  0  0  0
   39.0540   30.5760   45.7740 C   0  0  0  0  0  0  0  0  0  0  0  0
   39.6530   31.8350   45.7890 C   0  0  0  0  0  0  0  0  0  0  0  0
   40.7820   32.3190   44.5600 Cl  0  0  0  0  0  0  0  0  0  0  0  0
   39.3500   32.7080   46.7990 C   0  0  0  0  0  0  0  0  0  0  0  0
   37.7940   29.2670   46.6690 H   0  0  0  0  0  0  0  0  0  0  0  0
   39.3340   29.9350   44.9510 H   0  0  0  0  0  0  0  0  0  0  0  0
   39.7820   33.7160   46.8780 H   0  0  0  0  0  0  0  0  0  0  0  0
   35.3600   29.9920   46.9250 C   0  0  0  0  0  0  0  0  0  0  0  0
   35.7730   30.9300   46.4700 H   0  0  0  0  0  0  0  0  0  0  0  0
   35.9370   29.1550   46.4340 H   0  0  0  0  0  0  0  0  0  0  0  0
   34.3470   27.2300   47.0530 Cl  0  0  0  0  0  0  0  0  0  0  0  0
   33.3230   28.6090   46.6230 C   0  0  0  0  0  0  0  0  0  0  0  0
   33.9190   29.8480   46.6000 C   0  0  0  0  0  0  0  0  0  0  0  0
   33.1550   30.9450   46.2660 C   0  0  0  0  0  0  0  0  0  0  0  0
   33.5420   31.9400   46.2260 H   0  0  0  0  0  0  0  0  0  0  0  0
   31.8100   30.8080   45.9610 C   0  0  0  0  0  0  0  0  0  0  0  0
   31.1730   31.6670   45.6890 H   0  0  0  0  0  0  0  0  0  0  0  0
   31.2520   29.5410   45.9960 C   0  0  0  0  0  3  0  0  0  0  0  0
   31.9800   28.3960   46.3270 C   0  0  0  0  0  3  0  0  0  0  0  0
  1  8  1  0  0  0  0
  1  6  1  0  0  0  0
  2  1  2  0  0  0  0
  3  2  1  0  0  0  0
  3  4  2  0  0  0  0
  4  5  1  0  0  0  0
  5  6  2  0  0  0  0
  5  7  1  0  0  0  0
  7 10  1  0  0  0  0
  7  9  1  0  0  0  0
 12 13  1  0  0  0  0
 12 11  1  0  0  0  0
 13  2  1  0  0  0  0
 14 13  2  0  0  0  0
 15 16  2  0  0  0  0
 15 14  1  0  0  0  0
 16 18  1  0  0  0  0
 17 16  1  0  0  0  0
 18 21  1  0  0  0  0
 18 12  2  0  0  0  0
 19 14  1  0  0  0  0
 20 15  1  0  0  0  0
 22  3  1  0  0  0  0
 23 22  1  0  0  0  0
 24 22  1  0  0  0  0
 26 25  1  0  0  0  0
 27 26  1  0  0  0  0
 27 22  1  0  0  0  0
 28 27  2  0  0  0  0
 29 28  1  0  0  0  0
 30 32  2  0  0  0  0
 30 28  1  0  0  0  0
 31 30  1  0  0  0  0
 32 33  1  0  0  0  0
 33 26  2  0  0  0  0
M  END
>  <minimizedAffinity>
-5.5024066

>  <minimizedRMSD>
0.721824348

$$$$
