
 OpenBabel03272506403D

 37 39  0  0  1  0  0  0  0  0999 V2000
   37.3390   27.8540   35.2830 O   0  0  0  0  0  0  0  0  0  0  0  0
   37.0070   27.6380   34.1110 C   0  0  0  0  0  0  0  0  0  0  0  0
   37.6040   26.5700   33.3400 C   0  0  2  0  0  0  0  0  0  0  0  0
   36.7460   26.6130   32.0360 C   0  0  0  0  0  0  0  0  0  0  0  0
   36.2610   28.0420   32.0060 C   0  0  0  0  0  0  0  0  0  0  0  0
   36.0270   28.3930   33.4110 N   0  0  0  0  0  0  0  0  0  0  0  0
   38.6440   26.7920   33.0700 H   0  0  0  0  0  0  0  0  0  0  0  0
   37.4750   26.4590   31.2180 H   0  0  0  0  0  0  0  0  0  0  0  0
   35.9480   25.8800   32.0850 H   0  0  0  0  0  0  0  0  0  0  0  0
   36.9320   28.7400   31.5100 H   0  0  0  0  0  0  0  0  0  0  0  0
   35.2800   28.0470   31.4960 H   0  0  0  0  0  0  0  0  0  0  0  0
   35.0020   29.3040   33.8560 C   0  0  0  0  0  0  0  0  0  0  0  0
   34.5190   28.8780   34.7330 H   0  0  0  0  0  0  0  0  0  0  0  0
   34.2390   29.3150   33.0350 H   0  0  0  0  0  0  0  0  0  0  0  0
   35.3970   31.4140   31.5290 Cl  0  0  0  0  0  0  0  0  0  0  0  0
   35.7530   31.7150   33.2000 C   0  0  0  0  0  0  0  0  0  0  0  0
   35.4970   30.6750   34.0580 C   0  0  0  0  0  0  0  0  0  0  0  0
   35.7780   30.9590   35.3910 C   0  0  0  0  0  0  0  0  0  0  0  0
   35.6330   30.2400   36.2130 H   0  0  0  0  0  0  0  0  0  0  0  0
   36.2690   32.1600   35.8520 C   0  0  0  0  0  0  0  0  0  0  0  0
   36.4830   32.3720   36.8910 H   0  0  0  0  0  0  0  0  0  0  0  0
   36.5180   33.1860   34.9780 C   0  0  0  0  0  3  0  0  0  0  0  0
   36.2450   32.9230   33.6530 C   0  0  0  0  0  3  0  0  0  0  0  0
   37.4170   25.2660   33.8850 O   0  0  0  0  0  0  0  0  0  0  0  0
   38.4760   24.7080   34.5980 C   0  0  0  0  0  0  0  0  0  0  0  0
   39.7500   24.9430   34.1160 C   0  0  0  0  0  0  0  0  0  0  0  0
   40.8200   24.3980   34.8100 C   0  0  0  0  0  0  0  0  0  0  0  0
   40.5760   23.6590   35.9230 N   0  0  0  0  0  0  0  0  0  0  0  0
   39.3290   23.4380   36.3800 C   0  0  0  0  0  0  0  0  0  0  0  0
   38.3060   23.9630   35.7130 N   0  0  0  0  0  0  0  0  0  0  0  0
   38.4350   23.3870   38.5750 C   0  0  0  0  0  0  0  0  0  0  0  0
   38.0430   24.5940   38.5510 O   0  0  0  0  0  0  0  0  0  0  0  0
   39.1050   22.6570   37.5480 N   0  0  0  0  0  0  0  0  0  0  0  0
   39.9700   25.5290   33.2300 H   0  0  0  0  0  0  0  0  0  0  0  0
   41.8260   24.5820   34.4300 H   0  0  0  0  0  0  0  0  0  0  0  0
   38.2110   22.8790   39.5200 H   0  0  0  0  0  0  0  0  0  0  0  0
   39.3980   21.6620   37.6400 H   0  0  0  0  0  0  0  0  0  0  0  0
  2  1  2  0  0  0  0
  3  7  1  6  0  0  0
  3 24  1  0  0  0  0
  3  2  1  0  0  0  0
  4  9  1  0  0  0  0
  4  3  1  0  0  0  0
  5  4  1  0  0  0  0
  5  6  1  0  0  0  0
  6 12  1  0  0  0  0
  6  2  1  0  0  0  0
  8  4  1  0  0  0  0
 10  5  1  0  0  0  0
 11  5  1  0  0  0  0
 12 17  1  0  0  0  0
 12 13  1  0  0  0  0
 14 12  1  0  0  0  0
 15 16  1  0  0  0  0
 16 23  2  0  0  0  0
 16 17  1  0  0  0  0
 17 18  2  0  0  0  0
 18 20  1  0  0  0  0
 18 19  1  0  0  0  0
 20 21  1  0  0  0  0
 22 20  2  0  0  0  0
 23 22  1  0  0  0  0
 24 25  1  0  0  0  0
 25 30  1  0  0  0  0
 26 25  2  0  0  0  0
 26 27  1  0  0  0  0
 27 28  2  0  0  0  0
 28 29  1  0  0  0  0
 29 33  1  0  0  0  0
 30 29  2  0  0  0  0
 31 36  1  0  0  0  0
 32 31  2  0  0  0  0
 33 37  1  0  0  0  0
 33 31  1  0  0  0  0
 34 26  1  0  0  0  0
 35 27  1  0  0  0  0
M  END
>  <minimizedAffinity>
-5.91152954

$$$$

 OpenBabel03272506403D

 37 39  0  0  1  0  0  0  0  0999 V2000
   36.6910   25.8530   32.8580 O   0  0  0  0  0  0  0  0  0  0  0  0
   37.4040   26.1640   33.8200 C   0  0  0  0  0  0  0  0  0  0  0  0
   37.4870   27.5290   34.2910 C   0  0  2  0  0  0  0  0  0  0  0  0
   38.3500   27.3590   35.5820 C   0  0  0  0  0  0  0  0  0  0  0  0
   39.1270   26.0980   35.2960 C   0  0  0  0  0  0  0  0  0  0  0  0
   38.1990   25.2400   34.5510 N   0  0  0  0  0  0  0  0  0  0  0  0
   38.0410   28.1700   33.5940 H   0  0  0  0  0  0  0  0  0  0  0  0
   39.0410   28.2230   35.5700 H   0  0  0  0  0  0  0  0  0  0  0  0
   37.7120   27.2930   36.4570 H   0  0  0  0  0  0  0  0  0  0  0  0
   40.0660   26.2510   34.7670 H   0  0  0  0  0  0  0  0  0  0  0  0
   39.3270   25.6060   36.2660 H   0  0  0  0  0  0  0  0  0  0  0  0
   38.1890   23.8000   34.6320 C   0  0  0  0  0  0  0  0  0  0  0  0
   38.3970   23.3980   33.6420 H   0  0  0  0  0  0  0  0  0  0  0  0
   37.1320   23.5250   34.8820 H   0  0  0  0  0  0  0  0  0  0  0  0
   37.5730   23.9800   37.7310 Cl  0  0  0  0  0  0  0  0  0  0  0  0
   39.0030   23.2710   37.0530 C   0  0  0  0  0  0  0  0  0  0  0  0
   39.0760   23.2760   35.6830 C   0  0  0  0  0  0  0  0  0  0  0  0
   40.2280   22.6830   35.1750 C   0  0  0  0  0  0  0  0  0  0  0  0
   40.4500   22.6020   34.0990 H   0  0  0  0  0  0  0  0  0  0  0  0
   41.2300   22.1300   35.9410 C   0  0  0  0  0  0  0  0  0  0  0  0
   42.1220   21.6710   35.5360 H   0  0  0  0  0  0  0  0  0  0  0  0
   41.1380   22.1360   37.3080 C   0  0  0  0  0  3  0  0  0  0  0  0
   40.0030   22.7180   37.8290 C   0  0  0  0  0  3  0  0  0  0  0  0
   36.2480   28.0850   34.7240 O   0  0  0  0  0  0  0  0  0  0  0  0
   35.9840   29.4120   34.3870 C   0  0  0  0  0  0  0  0  0  0  0  0
   35.7160   29.6790   33.0580 C   0  0  0  0  0  0  0  0  0  0  0  0
   35.4500   30.9930   32.6990 C   0  0  0  0  0  0  0  0  0  0  0  0
   35.4650   31.9540   33.6580 N   0  0  0  0  0  0  0  0  0  0  0  0
   35.7280   31.6770   34.9490 C   0  0  0  0  0  0  0  0  0  0  0  0
   35.9810   30.4170   35.2900 N   0  0  0  0  0  0  0  0  0  0  0  0
   34.7800   32.4890   36.9650 C   0  0  0  0  0  0  0  0  0  0  0  0
   33.9650   31.5240   37.0870 O   0  0  0  0  0  0  0  0  0  0  0  0
   35.7390   32.7070   35.9310 N   0  0  0  0  0  0  0  0  0  0  0  0
   35.6990   28.9300   32.2740 H   0  0  0  0  0  0  0  0  0  0  0  0
   35.2400   31.2060   31.6500 H   0  0  0  0  0  0  0  0  0  0  0  0
   34.7050   33.2230   37.7750 H   0  0  0  0  0  0  0  0  0  0  0  0
   36.3780   33.5280   35.8970 H   0  0  0  0  0  0  0  0  0  0  0  0
  1  2  2  0  0  0  0
  2  3  1  0  0  0  0
  2  6  1  0  0  0  0
  3  7  1  6  0  0  0
  3 24  1  0  0  0  0
  3  4  1  0  0  0  0
  4  9  1  0  0  0  0
  5  4  1  0  0  0  0
  5 11  1  0  0  0  0
  6 12  1  0  0  0  0
  6  5  1  0  0  0  0
  8  4  1  0  0  0  0
 10  5  1  0  0  0  0
 12 14  1  0  0  0  0
 12 17  1  0  0  0  0
 13 12  1  0  0  0  0
 16 15  1  0  0  0  0
 16 23  1  0  0  0  0
 17 16  2  0  0  0  0
 18 17  1  0  0  0  0
 18 20  2  0  0  0  0
 19 18  1  0  0  0  0
 20 22  1  0  0  0  0
 21 20  1  0  0  0  0
 22 23  2  0  0  0  0
 25 24  1  0  0  0  0
 25 30  1  0  0  0  0
 26 25  2  0  0  0  0
 27 26  1  0  0  0  0
 27 28  2  0  0  0  0
 28 29  1  0  0  0  0
 29 30  2  0  0  0  0
 29 33  1  0  0  0  0
 31 32  2  0  0  0  0
 31 36  1  0  0  0  0
 33 31  1  0  0  0  0
 34 26  1  0  0  0  0
 35 27  1  0  0  0  0
 37 33  1  0  0  0  0
M  END
>  <minimizedAffinity>
-5.85860062

$$$$

 OpenBabel03272506403D

 37 39  0  0  1  0  0  0  0  0999 V2000
   37.6950   24.6770   32.7120 O   0  0  0  0  0  0  0  0  0  0  0  0
   37.8450   25.3860   33.7140 C   0  0  0  0  0  0  0  0  0  0  0  0
   37.7700   26.8280   33.6390 C   0  0  2  0  0  0  0  0  0  0  0  0
   37.8510   27.2210   35.1490 C   0  0  0  0  0  0  0  0  0  0  0  0
   38.5790   26.0480   35.7570 C   0  0  0  0  0  0  0  0  0  0  0  0
   38.0980   24.8760   35.0170 N   0  0  0  0  0  0  0  0  0  0  0  0
   38.6410   27.2580   33.1290 H   0  0  0  0  0  0  0  0  0  0  0  0
   38.5090   28.1100   35.1700 H   0  0  0  0  0  0  0  0  0  0  0  0
   36.8560   27.3760   35.5520 H   0  0  0  0  0  0  0  0  0  0  0  0
   39.6640   26.1300   35.7450 H   0  0  0  0  0  0  0  0  0  0  0  0
   38.2290   25.9470   36.8000 H   0  0  0  0  0  0  0  0  0  0  0  0
   37.9520   23.5620   35.5910 C   0  0  0  0  0  0  0  0  0  0  0  0
   37.4600   22.9200   34.8640 H   0  0  0  0  0  0  0  0  0  0  0  0
   37.2420   23.6910   36.4480 H   0  0  0  0  0  0  0  0  0  0  0  0
   38.7000   23.3880   38.6620 Cl  0  0  0  0  0  0  0  0  0  0  0  0
   39.7320   22.8700   37.3680 C   0  0  0  0  0  0  0  0  0  0  0  0
   39.2180   23.0140   36.1040 C   0  0  0  0  0  0  0  0  0  0  0  0
   40.0670   22.5720   35.0940 C   0  0  0  0  0  0  0  0  0  0  0  0
   39.8160   22.6140   34.0230 H   0  0  0  0  0  0  0  0  0  0  0  0
   41.3180   22.0320   35.2990 C   0  0  0  0  0  0  0  0  0  0  0  0
   41.9700   21.6910   34.5060 H   0  0  0  0  0  0  0  0  0  0  0  0
   41.8120   21.8970   36.5700 C   0  0  0  0  0  3  0  0  0  0  0  0
   40.9850   22.3290   37.5830 C   0  0  0  0  0  3  0  0  0  0  0  0
   36.5220   27.3360   33.1730 O   0  0  0  0  0  0  0  0  0  0  0  0
   36.5490   28.2310   32.1050 C   0  0  0  0  0  0  0  0  0  0  0  0
   36.0830   29.5100   32.3470 C   0  0  0  0  0  0  0  0  0  0  0  0
   36.1010   30.4190   31.2980 C   0  0  0  0  0  0  0  0  0  0  0  0
   36.5700   30.0190   30.0880 N   0  0  0  0  0  0  0  0  0  0  0  0
   37.0200   28.7700   29.8680 C   0  0  0  0  0  0  0  0  0  0  0  0
   37.0020   27.9020   30.8750 N   0  0  0  0  0  0  0  0  0  0  0  0
   38.8610   27.9500   28.6210 C   0  0  0  0  0  0  0  0  0  0  0  0
   39.6390   27.8840   29.6220 O   0  0  0  0  0  0  0  0  0  0  0  0
   37.5020   28.3800   28.5870 N   0  0  0  0  0  0  0  0  0  0  0  0
   35.7050   29.8520   33.3030 H   0  0  0  0  0  0  0  0  0  0  0  0
   35.7330   31.4280   31.4870 H   0  0  0  0  0  0  0  0  0  0  0  0
   39.3340   27.6250   27.6860 H   0  0  0  0  0  0  0  0  0  0  0  0
   36.9230   28.4070   27.7220 H   0  0  0  0  0  0  0  0  0  0  0  0
  1  2  2  0  0  0  0
  2  6  1  0  0  0  0
  3  7  1  6  0  0  0
  3  2  1  0  0  0  0
  3  4  1  0  0  0  0
  4  8  1  0  0  0  0
  4  9  1  0  0  0  0
  4  5  1  0  0  0  0
  5 11  1  0  0  0  0
  6 12  1  0  0  0  0
  6  5  1  0  0  0  0
 10  5  1  0  0  0  0
 12 17  1  0  0  0  0
 12 14  1  0  0  0  0
 13 12  1  0  0  0  0
 16 23  1  0  0  0  0
 16 15  1  0  0  0  0
 17 16  2  0  0  0  0
 18 20  2  0  0  0  0
 18 17  1  0  0  0  0
 19 18  1  0  0  0  0
 20 22  1  0  0  0  0
 21 20  1  0  0  0  0
 22 23  2  0  0  0  0
 24  3  1  0  0  0  0
 25 26  1  0  0  0  0
 25 24  1  0  0  0  0
 26 34  1  0  0  0  0
 27 35  1  0  0  0  0
 27 26  2  0  0  0  0
 28 27  1  0  0  0  0
 29 28  2  0  0  0  0
 29 30  1  0  0  0  0
 30 25  2  0  0  0  0
 31 32  2  0  0  0  0
 33 31  1  0  0  0  0
 33 29  1  0  0  0  0
 36 31  1  0  0  0  0
 37 33  1  0  0  0  0
M  END
>  <minimizedAffinity>
-5.69799232

$$$$

 OpenBabel03272506403D

 37 39  0  0  1  0  0  0  0  0999 V2000
   37.0980   27.8890   34.6470 O   0  0  0  0  0  0  0  0  0  0  0  0
   38.2170   27.3730   34.5350 C   0  0  0  0  0  0  0  0  0  0  0  0
   38.9390   26.8740   35.6840 C   0  0  2  0  0  0  0  0  0  0  0  0
   40.1690   26.1920   35.0050 C   0  0  0  0  0  0  0  0  0  0  0  0
   40.2820   26.9400   33.6990 C   0  0  0  0  0  0  0  0  0  0  0  0
   38.8980   27.2150   33.2980 N   0  0  0  0  0  0  0  0  0  0  0  0
   39.3100   27.6890   36.3200 H   0  0  0  0  0  0  0  0  0  0  0  0
   41.0270   26.4570   35.6520 H   0  0  0  0  0  0  0  0  0  0  0  0
   39.9930   25.1280   34.8880 H   0  0  0  0  0  0  0  0  0  0  0  0
   40.8890   27.8420   33.7420 H   0  0  0  0  0  0  0  0  0  0  0  0
   40.7100   26.2430   32.9560 H   0  0  0  0  0  0  0  0  0  0  0  0
   38.4520   27.2770   31.9280 C   0  0  0  0  0  0  0  0  0  0  0  0
   39.3250   27.2410   31.2790 H   0  0  0  0  0  0  0  0  0  0  0  0
   37.9990   28.2950   31.8100 H   0  0  0  0  0  0  0  0  0  0  0  0
   35.3400   27.8490   31.8530 Cl  0  0  0  0  0  0  0  0  0  0  0  0
   36.0640   26.3040   31.5410 C   0  0  0  0  0  0  0  0  0  0  0  0
   37.4340   26.2650   31.6070 C   0  0  0  0  0  0  0  0  0  0  0  0
   37.9780   25.0140   31.3340 C   0  0  0  0  0  0  0  0  0  0  0  0
   39.0590   24.8030   31.3440 H   0  0  0  0  0  0  0  0  0  0  0  0
   37.2470   23.8890   31.0230 C   0  0  0  0  0  0  0  0  0  0  0  0
   37.6800   22.9210   30.8130 H   0  0  0  0  0  0  0  0  0  0  0  0
   35.8780   23.9500   30.9630 C   0  0  0  0  0  3  0  0  0  0  0  0
   35.3220   25.1810   31.2300 C   0  0  0  0  0  3  0  0  0  0  0  0
   38.2720   25.8410   36.4050 O   0  0  0  0  0  0  0  0  0  0  0  0
   38.5080   24.5250   36.0120 C   0  0  0  0  0  0  0  0  0  0  0  0
   37.8800   24.0940   34.8580 C   0  0  0  0  0  0  0  0  0  0  0  0
   38.1010   22.7870   34.4470 C   0  0  0  0  0  0  0  0  0  0  0  0
   38.9150   21.9910   35.1870 N   0  0  0  0  0  0  0  0  0  0  0  0
   39.5190   22.4270   36.3090 C   0  0  0  0  0  0  0  0  0  0  0  0
   39.3060   23.6800   36.7000 N   0  0  0  0  0  0  0  0  0  0  0  0
   41.6960   22.0670   37.1740 C   0  0  0  0  0  0  0  0  0  0  0  0
   42.1750   23.1380   36.6890 O   0  0  0  0  0  0  0  0  0  0  0  0
   40.3640   21.5680   37.0650 N   0  0  0  0  0  0  0  0  0  0  0  0
   37.2260   24.7090   34.2510 H   0  0  0  0  0  0  0  0  0  0  0  0
   37.6060   22.4440   33.5370 H   0  0  0  0  0  0  0  0  0  0  0  0
   42.4320   21.4830   37.7380 H   0  0  0  0  0  0  0  0  0  0  0  0
   40.0430   20.6740   37.4930 H   0  0  0  0  0  0  0  0  0  0  0  0
  2  1  2  0  0  0  0
  2  3  1  0  0  0  0
  3  7  1  1  0  0  0
  3 24  1  0  0  0  0
  4  8  1  0  0  0  0
  4  3  1  0  0  0  0
  5 10  1  0  0  0  0
  5  4  1  0  0  0  0
  6  5  1  0  0  0  0
  6  2  1  0  0  0  0
  9  4  1  0  0  0  0
 11  5  1  0  0  0  0
 12  6  1  0  0  0  0
 13 12  1  0  0  0  0
 14 12  1  0  0  0  0
 16 17  1  0  0  0  0
 16 15  1  0  0  0  0
 17 12  1  0  0  0  0
 18 19  1  0  0  0  0
 18 17  2  0  0  0  0
 20 18  1  0  0  0  0
 21 20  1  0  0  0  0
 22 20  2  0  0  0  0
 22 23  1  0  0  0  0
 23 16  2  0  0  0  0
 25 24  1  0  0  0  0
 25 30  1  0  0  0  0
 26 25  2  0  0  0  0
 27 26  1  0  0  0  0
 27 28  2  0  0  0  0
 28 29  1  0  0  0  0
 29 30  2  0  0  0  0
 29 33  1  0  0  0  0
 31 36  1  0  0  0  0
 32 31  2  0  0  0  0
 33 31  1  0  0  0  0
 33 37  1  0  0  0  0
 34 26  1  0  0  0  0
 35 27  1  0  0  0  0
M  END
>  <minimizedAffinity>
-5.69615269

$$$$

 OpenBabel03272506403D

 37 39  0  0  1  0  0  0  0  0999 V2000
   36.6350   25.1270   32.4950 O   0  0  0  0  0  0  0  0  0  0  0  0
   37.6010   25.5780   33.1220 C   0  0  0  0  0  0  0  0  0  0  0  0
   37.9110   26.9910   33.1210 C   0  0  2  0  0  0  0  0  0  0  0  0
   39.0740   27.0530   34.1620 C   0  0  0  0  0  0  0  0  0  0  0  0
   39.6470   25.6590   34.1010 C   0  0  0  0  0  0  0  0  0  0  0  0
   38.4910   24.7810   33.8920 N   0  0  0  0  0  0  0  0  0  0  0  0
   38.3040   27.3240   32.1520 H   0  0  0  0  0  0  0  0  0  0  0  0
   39.8000   27.7650   33.7260 H   0  0  0  0  0  0  0  0  0  0  0  0
   38.6910   27.3270   35.1390 H   0  0  0  0  0  0  0  0  0  0  0  0
   40.4180   25.5160   33.3460 H   0  0  0  0  0  0  0  0  0  0  0  0
   40.0620   25.4280   35.0990 H   0  0  0  0  0  0  0  0  0  0  0  0
   38.3930   23.4370   34.4070 C   0  0  0  0  0  0  0  0  0  0  0  0
   38.9870   22.7810   33.7740 H   0  0  0  0  0  0  0  0  0  0  0  0
   37.3210   23.1440   34.2680 H   0  0  0  0  0  0  0  0  0  0  0  0
   40.9940   22.0290   35.5350 Cl  0  0  0  0  0  0  0  0  0  0  0  0
   39.7730   22.7710   36.5180 C   0  0  0  0  0  0  0  0  0  0  0  0
   38.7280   23.3430   35.8370 C   0  0  0  0  0  0  0  0  0  0  0  0
   37.7780   23.9430   36.6580 C   0  0  0  0  0  0  0  0  0  0  0  0
   36.8760   24.4480   36.2800 H   0  0  0  0  0  0  0  0  0  0  0  0
   37.8400   23.9820   38.0330 C   0  0  0  0  0  0  0  0  0  0  0  0
   37.0960   24.4520   38.6620 H   0  0  0  0  0  0  0  0  0  0  0  0
   38.8920   23.4040   38.6940 C   0  0  0  0  0  3  0  0  0  0  0  0
   39.8430   22.8050   37.8970 C   0  0  0  0  0  3  0  0  0  0  0  0
   36.8800   27.8260   33.6410 O   0  0  0  0  0  0  0  0  0  0  0  0
   36.2700   28.7210   32.7630 C   0  0  0  0  0  0  0  0  0  0  0  0
   36.8840   28.9130   31.5390 C   0  0  0  0  0  0  0  0  0  0  0  0
   36.2950   29.7990   30.6480 C   0  0  0  0  0  0  0  0  0  0  0  0
   35.1520   30.4360   31.0110 N   0  0  0  0  0  0  0  0  0  0  0  0
   34.5660   30.2380   32.2070 C   0  0  0  0  0  0  0  0  0  0  0  0
   35.1330   29.3880   33.0580 N   0  0  0  0  0  0  0  0  0  0  0  0
   32.2910   30.0330   32.8390 C   0  0  0  0  0  0  0  0  0  0  0  0
   32.2920   28.7640   32.8060 O   0  0  0  0  0  0  0  0  0  0  0  0
   33.3710   30.9230   32.5590 N   0  0  0  0  0  0  0  0  0  0  0  0
   37.7960   28.4170   31.2270 H   0  0  0  0  0  0  0  0  0  0  0  0
   36.7780   29.9530   29.6820 H   0  0  0  0  0  0  0  0  0  0  0  0
   31.3210   30.4560   33.1230 H   0  0  0  0  0  0  0  0  0  0  0  0
   33.2940   31.9600   32.6070 H   0  0  0  0  0  0  0  0  0  0  0  0
  1  2  2  0  0  0  0
  2  6  1  0  0  0  0
  3  7  1  6  0  0  0
  3  2  1  0  0  0  0
  3 24  1  0  0  0  0
  3  4  1  0  0  0  0
  4  9  1  0  0  0  0
  5  4  1  0  0  0  0
  5 11  1  0  0  0  0
  6  5  1  0  0  0  0
  6 12  1  0  0  0  0
  8  4  1  0  0  0  0
 10  5  1  0  0  0  0
 12 17  1  0  0  0  0
 13 12  1  0  0  0  0
 14 12  1  0  0  0  0
 15 16  1  0  0  0  0
 16 23  1  0  0  0  0
 17 16  2  0  0  0  0
 17 18  1  0  0  0  0
 18 20  2  0  0  0  0
 19 18  1  0  0  0  0
 20 21  1  0  0  0  0
 20 22  1  0  0  0  0
 23 22  2  0  0  0  0
 25 30  1  0  0  0  0
 25 24  1  0  0  0  0
 26 25  2  0  0  0  0
 27 28  2  0  0  0  0
 27 26  1  0  0  0  0
 28 29  1  0  0  0  0
 29 33  1  0  0  0  0
 29 30  2  0  0  0  0
 31 36  1  0  0  0  0
 32 31  2  0  0  0  0
 33 37  1  0  0  0  0
 33 31  1  0  0  0  0
 34 26  1  0  0  0  0
 35 27  1  0  0  0  0
M  END
>  <minimizedAffinity>
-5.69132328

$$$$

 OpenBabel03272506403D

 37 39  0  0  1  0  0  0  0  0999 V2000
   36.8490   25.6600   32.8530 O   0  0  0  0  0  0  0  0  0  0  0  0
   37.5160   25.9910   33.8410 C   0  0  0  0  0  0  0  0  0  0  0  0
   37.6120   27.3710   34.2620 C   0  0  2  0  0  0  0  0  0  0  0  0
   38.3970   27.2320   35.6050 C   0  0  0  0  0  0  0  0  0  0  0  0
   39.1520   25.9390   35.4130 C   0  0  0  0  0  0  0  0  0  0  0  0
   38.2430   25.0770   34.6510 N   0  0  0  0  0  0  0  0  0  0  0  0
   38.2220   27.9690   33.5730 H   0  0  0  0  0  0  0  0  0  0  0  0
   39.1130   28.0760   35.5990 H   0  0  0  0  0  0  0  0  0  0  0  0
   37.7100   27.2170   36.4440 H   0  0  0  0  0  0  0  0  0  0  0  0
   40.1230   26.0460   34.9330 H   0  0  0  0  0  0  0  0  0  0  0  0
   39.2840   25.4820   36.4110 H   0  0  0  0  0  0  0  0  0  0  0  0
   38.1870   23.6420   34.7870 C   0  0  0  0  0  0  0  0  0  0  0  0
   38.2590   23.1990   33.7960 H   0  0  0  0  0  0  0  0  0  0  0  0
   37.1580   23.4210   35.1700 H   0  0  0  0  0  0  0  0  0  0  0  0
   37.7930   23.6510   37.9280 Cl  0  0  0  0  0  0  0  0  0  0  0  0
   39.2000   23.0450   37.1150 C   0  0  0  0  0  0  0  0  0  0  0  0
   39.1720   23.1160   35.7450 C   0  0  0  0  0  0  0  0  0  0  0  0
   40.3100   22.6050   35.1280 C   0  0  0  0  0  0  0  0  0  0  0  0
   40.4550   22.5830   34.0370 H   0  0  0  0  0  0  0  0  0  0  0  0
   41.3900   22.0680   35.7930 C   0  0  0  0  0  0  0  0  0  0  0  0
   42.2700   21.6730   35.3040 H   0  0  0  0  0  0  0  0  0  0  0  0
   41.3980   22.0070   37.1620 C   0  0  0  0  0  3  0  0  0  0  0  0
   40.2790   22.5080   37.7900 C   0  0  0  0  0  3  0  0  0  0  0  0
   36.3680   27.9780   34.6020 O   0  0  0  0  0  0  0  0  0  0  0  0
   36.0110   29.1420   33.9240 C   0  0  0  0  0  0  0  0  0  0  0  0
   35.7570   30.2620   34.6940 C   0  0  0  0  0  0  0  0  0  0  0  0
   35.4010   31.4340   34.0400 C   0  0  0  0  0  0  0  0  0  0  0  0
   35.3160   31.4330   32.6850 N   0  0  0  0  0  0  0  0  0  0  0  0
   35.5660   30.3330   31.9500 C   0  0  0  0  0  0  0  0  0  0  0  0
   35.9080   29.2120   32.5790 N   0  0  0  0  0  0  0  0  0  0  0  0
   36.6940   30.0340   29.8870 C   0  0  0  0  0  0  0  0  0  0  0  0
   37.8050   29.7360   30.4230 O   0  0  0  0  0  0  0  0  0  0  0  0
   35.4650   30.3630   30.5310 N   0  0  0  0  0  0  0  0  0  0  0  0
   35.8190   30.2880   35.7760 H   0  0  0  0  0  0  0  0  0  0  0  0
   35.2000   32.3180   34.6460 H   0  0  0  0  0  0  0  0  0  0  0  0
   36.7280   30.0250   28.7910 H   0  0  0  0  0  0  0  0  0  0  0  0
   34.5880   30.5980   30.0210 H   0  0  0  0  0  0  0  0  0  0  0  0
  1  2  2  0  0  0  0
  2  3  1  0  0  0  0
  2  6  1  0  0  0  0
  3  7  1  6  0  0  0
  3 24  1  0  0  0  0
  3  4  1  0  0  0  0
  4  9  1  0  0  0  0
  5  4  1  0  0  0  0
  5 11  1  0  0  0  0
  6 12  1  0  0  0  0
  6  5  1  0  0  0  0
  8  4  1  0  0  0  0
 10  5  1  0  0  0  0
 12 14  1  0  0  0  0
 12 17  1  0  0  0  0
 13 12  1  0  0  0  0
 16 23  1  0  0  0  0
 16 15  1  0  0  0  0
 17 16  2  0  0  0  0
 18 17  1  0  0  0  0
 18 20  2  0  0  0  0
 19 18  1  0  0  0  0
 20 22  1  0  0  0  0
 21 20  1  0  0  0  0
 22 23  2  0  0  0  0
 25 24  1  0  0  0  0
 25 26  1  0  0  0  0
 26 34  1  0  0  0  0
 27 35  1  0  0  0  0
 27 26  2  0  0  0  0
 28 27  1  0  0  0  0
 29 30  1  0  0  0  0
 29 28  2  0  0  0  0
 30 25  2  0  0  0  0
 31 32  2  0  0  0  0
 31 33  1  0  0  0  0
 33 29  1  0  0  0  0
 36 31  1  0  0  0  0
 37 33  1  0  0  0  0
M  END
>  <minimizedAffinity>
-5.68980122

$$$$

 OpenBabel03272506403D

 37 39  0  0  1  0  0  0  0  0999 V2000
   36.9780   23.9730   31.9890 O   0  0  0  0  0  0  0  0  0  0  0  0
   37.7880   24.5930   32.6890 C   0  0  0  0  0  0  0  0  0  0  0  0
   38.1140   25.9760   32.4230 C   0  0  2  0  0  0  0  0  0  0  0  0
   39.0160   26.3230   33.6500 C   0  0  0  0  0  0  0  0  0  0  0  0
   39.5640   24.9750   34.0490 C   0  0  0  0  0  0  0  0  0  0  0  0
   38.4690   24.0310   33.8030 N   0  0  0  0  0  0  0  0  0  0  0  0
   38.7200   26.0870   31.5140 H   0  0  0  0  0  0  0  0  0  0  0  0
   39.8330   26.9390   33.2300 H   0  0  0  0  0  0  0  0  0  0  0  0
   38.4290   26.8040   34.4250 H   0  0  0  0  0  0  0  0  0  0  0  0
   40.4810   24.6880   33.5390 H   0  0  0  0  0  0  0  0  0  0  0  0
   39.7410   25.0000   35.1390 H   0  0  0  0  0  0  0  0  0  0  0  0
   38.2350   22.8430   34.5860 C   0  0  0  0  0  0  0  0  0  0  0  0
   38.7010   22.0000   34.0810 H   0  0  0  0  0  0  0  0  0  0  0  0
   37.1280   22.6760   34.5480 H   0  0  0  0  0  0  0  0  0  0  0  0
   41.0350   21.9140   35.7320 Cl  0  0  0  0  0  0  0  0  0  0  0  0
   39.7790   22.6440   36.6790 C   0  0  0  0  0  0  0  0  0  0  0  0
   38.6430   22.9910   35.9920 C   0  0  0  0  0  0  0  0  0  0  0  0
   37.6650   23.5890   36.7820 C   0  0  0  0  0  0  0  0  0  0  0  0
   36.6920   23.9290   36.3950 H   0  0  0  0  0  0  0  0  0  0  0  0
   37.7830   23.8290   38.1320 C   0  0  0  0  0  0  0  0  0  0  0  0
   37.0170   24.2950   38.7370 H   0  0  0  0  0  0  0  0  0  0  0  0
   38.9270   23.4740   38.8000 C   0  0  0  0  0  3  0  0  0  0  0  0
   39.9070   22.8810   38.0340 C   0  0  0  0  0  3  0  0  0  0  0  0
   37.0080   26.8720   32.4890 O   0  0  0  0  0  0  0  0  0  0  0  0
   36.9560   27.9020   31.5510 C   0  0  0  0  0  0  0  0  0  0  0  0
   36.4400   29.1120   31.9780 C   0  0  0  0  0  0  0  0  0  0  0  0
   36.3790   30.1530   31.0620 C   0  0  0  0  0  0  0  0  0  0  0  0
   36.8210   29.9430   29.7960 N   0  0  0  0  0  0  0  0  0  0  0  0
   37.3200   28.7590   29.3950 C   0  0  0  0  0  0  0  0  0  0  0  0
   37.3780   27.7640   30.2760 N   0  0  0  0  0  0  0  0  0  0  0  0
   39.1510   28.2070   27.9950 C   0  0  0  0  0  0  0  0  0  0  0  0
   39.9670   28.0470   28.9550 O   0  0  0  0  0  0  0  0  0  0  0  0
   37.7730   28.5690   28.0600 N   0  0  0  0  0  0  0  0  0  0  0  0
   36.0810   29.3040   32.9820 H   0  0  0  0  0  0  0  0  0  0  0  0
   35.9710   31.1080   31.3970 H   0  0  0  0  0  0  0  0  0  0  0  0
   39.6040   28.0340   27.0120 H   0  0  0  0  0  0  0  0  0  0  0  0
   37.1630   28.6820   27.2230 H   0  0  0  0  0  0  0  0  0  0  0  0
  1  2  2  0  0  0  0
  2  6  1  0  0  0  0
  3  7  1  6  0  0  0
  3 24  1  0  0  0  0
  3  2  1  0  0  0  0
  3  4  1  0  0  0  0
  4  5  1  0  0  0  0
  4  9  1  0  0  0  0
  5 11  1  0  0  0  0
  6  5  1  0  0  0  0
  6 12  1  0  0  0  0
  8  4  1  0  0  0  0
 10  5  1  0  0  0  0
 12 17  1  0  0  0  0
 13 12  1  0  0  0  0
 14 12  1  0  0  0  0
 15 16  1  0  0  0  0
 16 23  1  0  0  0  0
 17 16  2  0  0  0  0
 17 18  1  0  0  0  0
 18 20  2  0  0  0  0
 19 18  1  0  0  0  0
 20 21  1  0  0  0  0
 20 22  1  0  0  0  0
 23 22  2  0  0  0  0
 25 26  1  0  0  0  0
 25 24  1  0  0  0  0
 26 34  1  0  0  0  0
 27 35  1  0  0  0  0
 27 26  2  0  0  0  0
 28 27  1  0  0  0  0
 29 28  2  0  0  0  0
 29 30  1  0  0  0  0
 30 25  2  0  0  0  0
 31 33  1  0  0  0  0
 31 32  2  0  0  0  0
 33 29  1  0  0  0  0
 36 31  1  0  0  0  0
 37 33  1  0  0  0  0
M  END
>  <minimizedAffinity>
-5.62686253

$$$$

 OpenBabel03272506403D

 37 39  0  0  1  0  0  0  0  0999 V2000
   37.2010   26.8850   34.4010 O   0  0  0  0  0  0  0  0  0  0  0  0
   37.4380   26.4080   33.2850 C   0  0  0  0  0  0  0  0  0  0  0  0
   38.4210   25.3630   33.1010 C   0  0  2  0  0  0  0  0  0  0  0  0
   38.2180   25.0090   31.5940 C   0  0  0  0  0  0  0  0  0  0  0  0
   37.6470   26.2860   31.0280 C   0  0  0  0  0  0  0  0  0  0  0  0
   36.7890   26.8220   32.0910 N   0  0  0  0  0  0  0  0  0  0  0  0
   39.4450   25.7360   33.2270 H   0  0  0  0  0  0  0  0  0  0  0  0
   39.2430   24.8630   31.2010 H   0  0  0  0  0  0  0  0  0  0  0  0
   37.5610   24.1520   31.4920 H   0  0  0  0  0  0  0  0  0  0  0  0
   38.3890   27.0070   30.6920 H   0  0  0  0  0  0  0  0  0  0  0  0
   36.9920   26.0090   30.1820 H   0  0  0  0  0  0  0  0  0  0  0  0
   35.5820   27.5740   31.8510 C   0  0  0  0  0  0  0  0  0  0  0  0
   34.8030   27.1950   32.5100 H   0  0  0  0  0  0  0  0  0  0  0  0
   35.2770   27.3200   30.8040 H   0  0  0  0  0  0  0  0  0  0  0  0
   34.8170   29.3130   34.3830 Cl  0  0  0  0  0  0  0  0  0  0  0  0
   35.5060   29.9500   32.9250 C   0  0  0  0  0  0  0  0  0  0  0  0
   35.7820   29.0290   31.9460 C   0  0  0  0  0  0  0  0  0  0  0  0
   36.3490   29.5750   30.7980 C   0  0  0  0  0  0  0  0  0  0  0  0
   36.6320   28.9810   29.9150 H   0  0  0  0  0  0  0  0  0  0  0  0
   36.6250   30.9120   30.6180 C   0  0  0  0  0  0  0  0  0  0  0  0
   37.0670   31.3270   29.7220 H   0  0  0  0  0  0  0  0  0  0  0  0
   36.3410   31.8160   31.6090 C   0  0  0  0  0  3  0  0  0  0  0  0
   35.7800   31.2930   32.7530 C   0  0  0  0  0  3  0  0  0  0  0  0
   38.1540   24.1620   33.8210 O   0  0  0  0  0  0  0  0  0  0  0  0
   39.0670   23.7830   34.8030 C   0  0  0  0  0  0  0  0  0  0  0  0
   40.4070   23.8450   34.4710 C   0  0  0  0  0  0  0  0  0  0  0  0
   41.3350   23.4730   35.4340 C   0  0  0  0  0  0  0  0  0  0  0  0
   40.8930   23.0640   36.6510 N   0  0  0  0  0  0  0  0  0  0  0  0
   39.5830   23.0090   36.9600 C   0  0  0  0  0  0  0  0  0  0  0  0
   38.6970   23.3670   36.0350 N   0  0  0  0  0  0  0  0  0  0  0  0
   38.3990   23.5690   38.9350 C   0  0  0  0  0  0  0  0  0  0  0  0
   38.0950   24.7370   38.5420 O   0  0  0  0  0  0  0  0  0  0  0  0
   39.1510   22.5740   38.2430 N   0  0  0  0  0  0  0  0  0  0  0  0
   40.7840   24.1670   33.5070 H   0  0  0  0  0  0  0  0  0  0  0  0
   42.3930   23.5210   35.1730 H   0  0  0  0  0  0  0  0  0  0  0  0
   38.0150   23.3370   39.9350 H   0  0  0  0  0  0  0  0  0  0  0  0
   39.3620   21.6310   38.6330 H   0  0  0  0  0  0  0  0  0  0  0  0
  2  1  2  0  0  0  0
  3  7  1  1  0  0  0
  3  2  1  0  0  0  0
  3 24  1  0  0  0  0
  4  3  1  0  0  0  0
  5  4  1  0  0  0  0
  5  6  1  0  0  0  0
  6  2  1  0  0  0  0
  8  4  1  0  0  0  0
  9  4  1  0  0  0  0
 10  5  1  0  0  0  0
 11  5  1  0  0  0  0
 12 17  1  0  0  0  0
 12  6  1  0  0  0  0
 12 13  1  0  0  0  0
 14 12  1  0  0  0  0
 16 15  1  0  0  0  0
 17 16  2  0  0  0  0
 18 17  1  0  0  0  0
 19 18  1  0  0  0  0
 20 18  2  0  0  0  0
 20 22  1  0  0  0  0
 21 20  1  0  0  0  0
 22 23  2  0  0  0  0
 23 16  1  0  0  0  0
 24 25  1  0  0  0  0
 25 30  1  0  0  0  0
 26 25  2  0  0  0  0
 26 27  1  0  0  0  0
 27 28  2  0  0  0  0
 28 29  1  0  0  0  0
 29 33  1  0  0  0  0
 30 29  2  0  0  0  0
 31 36  1  0  0  0  0
 32 31  2  0  0  0  0
 33 37  1  0  0  0  0
 33 31  1  0  0  0  0
 34 26  1  0  0  0  0
 35 27  1  0  0  0  0
M  END
>  <minimizedAffinity>
-5.55134201

$$$$

 OpenBabel03272506403D

 37 39  0  0  1  0  0  0  0  0999 V2000
   37.7180   25.9430   35.8270 O   0  0  0  0  0  0  0  0  0  0  0  0
   38.0620   25.0160   35.0840 C   0  0  0  0  0  0  0  0  0  0  0  0
   37.8390   25.0670   33.6560 C   0  0  2  0  0  0  0  0  0  0  0  0
   38.5840   23.7800   33.1800 C   0  0  0  0  0  0  0  0  0  0  0  0
   38.5510   22.9060   34.4090 C   0  0  0  0  0  0  0  0  0  0  0  0
   38.7000   23.8300   35.5380 N   0  0  0  0  0  0  0  0  0  0  0  0
   36.7770   24.9580   33.4030 H   0  0  0  0  0  0  0  0  0  0  0  0
   37.9240   23.3460   32.4060 H   0  0  0  0  0  0  0  0  0  0  0  0
   39.5860   24.0270   32.8440 H   0  0  0  0  0  0  0  0  0  0  0  0
   37.6650   22.2800   34.4980 H   0  0  0  0  0  0  0  0  0  0  0  0
   39.4520   22.2660   34.3840 H   0  0  0  0  0  0  0  0  0  0  0  0
   39.3680   23.4970   36.7720 C   0  0  0  0  0  0  0  0  0  0  0  0
   38.7270   22.8270   37.3410 H   0  0  0  0  0  0  0  0  0  0  0  0
   39.4280   24.4580   37.3450 H   0  0  0  0  0  0  0  0  0  0  0  0
   41.6030   24.9930   35.1030 Cl  0  0  0  0  0  0  0  0  0  0  0  0
   41.8180   23.4550   35.8770 C   0  0  0  0  0  0  0  0  0  0  0  0
   40.7310   22.9810   36.5680 C   0  0  0  0  0  0  0  0  0  0  0  0
   40.9460   21.7550   37.1890 C   0  0  0  0  0  0  0  0  0  0  0  0
   40.1830   21.2290   37.7830 H   0  0  0  0  0  0  0  0  0  0  0  0
   42.1260   21.0460   37.1410 C   0  0  0  0  0  0  0  0  0  0  0  0
   42.2830   20.0930   37.6280 H   0  0  0  0  0  0  0  0  0  0  0  0
   43.2000   21.5380   36.4450 C   0  0  0  0  0  3  0  0  0  0  0  0
   43.0050   22.7520   35.8240 C   0  0  0  0  0  3  0  0  0  0  0  0
   38.4790   26.1540   32.9920 O   0  0  0  0  0  0  0  0  0  0  0  0
   37.6700   27.0500   32.2950 C   0  0  0  0  0  0  0  0  0  0  0  0
   36.7780   27.7990   33.0390 C   0  0  0  0  0  0  0  0  0  0  0  0
   35.9620   28.6980   32.3670 C   0  0  0  0  0  0  0  0  0  0  0  0
   36.0710   28.8040   31.0180 N   0  0  0  0  0  0  0  0  0  0  0  0
   36.9450   28.0670   30.3060 C   0  0  0  0  0  0  0  0  0  0  0  0
   37.7250   27.2070   30.9540 N   0  0  0  0  0  0  0  0  0  0  0  0
   38.3300   28.6040   28.4600 C   0  0  0  0  0  0  0  0  0  0  0  0
   39.3540   28.8460   29.1700 O   0  0  0  0  0  0  0  0  0  0  0  0
   37.0330   28.1990   28.8930 N   0  0  0  0  0  0  0  0  0  0  0  0
   36.6730   27.7320   34.1160 H   0  0  0  0  0  0  0  0  0  0  0  0
   35.2570   29.2890   32.9530 H   0  0  0  0  0  0  0  0  0  0  0  0
   38.5090   28.7360   27.3860 H   0  0  0  0  0  0  0  0  0  0  0  0
   36.2360   28.0180   28.2470 H   0  0  0  0  0  0  0  0  0  0  0  0
  2  6  1  0  0  0  0
  2  1  2  0  0  0  0
  3  7  1  6  0  0  0
  3  2  1  0  0  0  0
  4  3  1  0  0  0  0
  4  5  1  0  0  0  0
  5 10  1  0  0  0  0
  5  6  1  0  0  0  0
  6 12  1  0  0  0  0
  8  4  1  0  0  0  0
  9  4  1  0  0  0  0
 11  5  1  0  0  0  0
 12 13  1  0  0  0  0
 12 14  1  0  0  0  0
 15 16  1  0  0  0  0
 16 17  1  0  0  0  0
 17 12  1  0  0  0  0
 17 18  2  0  0  0  0
 18 19  1  0  0  0  0
 20 18  1  0  0  0  0
 20 21  1  0  0  0  0
 22 20  2  0  0  0  0
 23 16  2  0  0  0  0
 23 22  1  0  0  0  0
 24  3  1  0  0  0  0
 25 24  1  0  0  0  0
 25 26  1  0  0  0  0
 26 34  1  0  0  0  0
 27 35  1  0  0  0  0
 27 26  2  0  0  0  0
 28 27  1  0  0  0  0
 29 30  1  0  0  0  0
 29 28  2  0  0  0  0
 30 25  2  0  0  0  0
 31 33  1  0  0  0  0
 31 32  2  0  0  0  0
 33 29  1  0  0  0  0
 36 31  1  0  0  0  0
 37 33  1  0  0  0  0
M  END
>  <minimizedAffinity>
-5.50626707

$$$$
