
 OpenBabel03272506383D

 37 39  0  0  1  0  0  0  0  0999 V2000
   34.5240   29.3460   50.1050 O   0  0  0  0  0  0  0  0  0  0  0  0
   34.3600   29.4450   48.8830 C   0  0  0  0  0  0  0  0  0  0  0  0
   35.1680   30.3370   48.0810 C   0  0  2  0  0  0  0  0  0  0  0  0
   34.6950   29.9700   46.6390 C   0  0  0  0  0  0  0  0  0  0  0  0
   33.3050   29.4320   46.8740 C   0  0  0  0  0  0  0  0  0  0  0  0
   33.3860   28.7140   48.1510 N   0  0  0  0  0  0  0  0  0  0  0  0
   34.9200   31.3900   48.2620 H   0  0  0  0  0  0  0  0  0  0  0  0
   34.6250   30.9410   46.1130 H   0  0  0  0  0  0  0  0  0  0  0  0
   35.3730   29.2520   46.1900 H   0  0  0  0  0  0  0  0  0  0  0  0
   32.5190   30.1840   46.8700 H   0  0  0  0  0  0  0  0  0  0  0  0
   33.1030   28.6830   46.0860 H   0  0  0  0  0  0  0  0  0  0  0  0
   32.6100   27.5410   48.4690 C   0  0  0  0  0  0  0  0  0  0  0  0
   31.5970   27.8540   48.7120 H   0  0  0  0  0  0  0  0  0  0  0  0
   33.0610   27.1330   49.4100 H   0  0  0  0  0  0  0  0  0  0  0  0
   30.2500   26.8800   46.4630 Cl  0  0  0  0  0  0  0  0  0  0  0  0
   31.7790   26.0600   46.4890 C   0  0  0  0  0  0  0  0  0  0  0  0
   32.6760   26.5060   47.4250 C   0  0  0  0  0  0  0  0  0  0  0  0
   33.8960   25.8360   47.4040 C   0  0  0  0  0  0  0  0  0  0  0  0
   34.7310   26.0630   48.0860 H   0  0  0  0  0  0  0  0  0  0  0  0
   34.2160   24.8130   46.5400 C   0  0  0  0  0  0  0  0  0  0  0  0
   35.1670   24.2990   46.5300 H   0  0  0  0  0  0  0  0  0  0  0  0
   33.3040   24.3810   45.6110 C   0  0  0  0  0  3  0  0  0  0  0  0
   32.0900   25.0340   45.6180 C   0  0  0  0  0  3  0  0  0  0  0  0
   36.5670   30.0620   48.1120 O   0  0  0  0  0  0  0  0  0  0  0  0
   37.4350   31.1470   48.2180 C   0  0  0  0  0  0  0  0  0  0  0  0
   37.6050   31.6930   49.4760 C   0  0  0  0  0  0  0  0  0  0  0  0
   38.4660   32.7740   49.6070 C   0  0  0  0  0  0  0  0  0  0  0  0
   39.0980   33.2490   48.5030 N   0  0  0  0  0  0  0  0  0  0  0  0
   38.9210   32.7070   47.2830 C   0  0  0  0  0  0  0  0  0  0  0  0
   38.0960   31.6710   47.1630 N   0  0  0  0  0  0  0  0  0  0  0  0
   40.4360   32.2650   45.5150 C   0  0  0  0  0  0  0  0  0  0  0  0
   40.6310   31.0560   45.8500 O   0  0  0  0  0  0  0  0  0  0  0  0
   39.5950   33.2300   46.1450 N   0  0  0  0  0  0  0  0  0  0  0  0
   37.1120   31.3310   50.3720 H   0  0  0  0  0  0  0  0  0  0  0  0
   38.6010   33.2060   50.5990 H   0  0  0  0  0  0  0  0  0  0  0  0
   41.0030   32.5620   44.6250 H   0  0  0  0  0  0  0  0  0  0  0  0
   39.4850   34.2100   45.8100 H   0  0  0  0  0  0  0  0  0  0  0  0
  2  1  2  0  0  0  0
  3 24  1  0  0  0  0
  3  7  1  1  0  0  0
  3  2  1  0  0  0  0
  4  5  1  0  0  0  0
  4  3  1  0  0  0  0
  5  6  1  0  0  0  0
  6 12  1  0  0  0  0
  6  2  1  0  0  0  0
  8  4  1  0  0  0  0
  9  4  1  0  0  0  0
 10  5  1  0  0  0  0
 11  5  1  0  0  0  0
 12 13  1  0  0  0  0
 12 14  1  0  0  0  0
 15 16  1  0  0  0  0
 16 17  1  0  0  0  0
 17 12  1  0  0  0  0
 18 17  2  0  0  0  0
 18 19  1  0  0  0  0
 20 18  1  0  0  0  0
 21 20  1  0  0  0  0
 22 23  1  0  0  0  0
 22 20  2  0  0  0  0
 23 16  2  0  0  0  0
 24 25  1  0  0  0  0
 25 26  1  0  0  0  0
 26 27  2  0  0  0  0
 26 34  1  0  0  0  0
 27 35  1  0  0  0  0
 28 27  1  0  0  0  0
 29 28  2  0  0  0  0
 30 29  1  0  0  0  0
 30 25  2  0  0  0  0
 31 32  2  0  0  0  0
 31 33  1  0  0  0  0
 33 29  1  0  0  0  0
 36 31  1  0  0  0  0
 37 33  1  0  0  0  0
M  END
>  <minimizedAffinity>
-5.76500416

>  <minimizedRMSD>
1.77698421

$$$$
