
 OpenBabel03272509463D

 25 26  0  0  0  0  0  0  0  0999 V2000
   34.1320   29.2200   48.1040 C   0  0  0  0  0  0  0  0  0  0  0  0
   33.7460   30.0930   48.6560 H   0  0  0  0  0  0  0  0  0  0  0  0
   34.4640   29.6390   47.1140 H   0  0  0  0  0  0  0  0  0  0  0  0
   33.0640   28.2180   47.7740 C   0  0  0  0  0  0  0  0  0  0  0  0
   32.2490   28.7410   47.1940 H   0  0  0  0  0  0  0  0  0  0  0  0
   32.5790   27.8000   48.6800 H   0  0  0  0  0  0  0  0  0  0  0  0
   33.6050   28.6390   44.7590 Cl  0  0  0  0  0  0  0  0  0  0  0  0
   33.8020   27.1130   45.5940 C   0  0  0  0  0  0  0  0  0  0  0  0
   33.5100   27.0910   46.9410 C   0  0  0  0  0  0  0  0  0  0  0  0
   33.6840   25.8340   47.5230 C   0  0  0  0  0  0  0  0  0  0  0  0
   33.4660   25.7570   48.5990 H   0  0  0  0  0  0  0  0  0  0  0  0
   34.1010   24.6820   46.8930 C   0  0  0  0  0  0  0  0  0  0  0  0
   34.2010   23.7660   47.4380 H   0  0  0  0  0  0  0  0  0  0  0  0
   34.3670   24.8230   45.5340 C   0  0  0  0  0  3  0  0  0  0  0  0
   34.2250   26.0260   44.8620 C   0  0  0  0  0  3  0  0  0  0  0  0
   35.2260   28.6370   48.7630 O   0  0  0  0  0  0  0  0  0  0  0  0
   37.8960   30.1390   50.6850 C   0  0  0  0  0  0  0  0  0  0  0  0
   38.0700   31.3240   49.9550 C   0  0  0  0  0  0  0  0  0  0  0  0
   37.2690   31.5540   48.8450 C   0  0  0  0  0  0  0  0  0  0  0  0
   36.3510   30.5850   48.5380 N   0  0  0  0  0  0  0  0  0  0  0  0
   36.2080   29.4560   49.2620 C   0  0  0  0  0  0  0  0  0  0  0  0
   36.9930   29.2490   50.3350 N   0  0  0  0  0  0  0  0  0  0  0  0
   38.5480   30.0180   51.5390 H   0  0  0  0  0  0  0  0  0  0  0  0
   38.8030   32.0800   50.2130 H   0  0  0  0  0  0  0  0  0  0  0  0
   37.3510   32.4460   48.2370 H   0  0  0  0  0  0  0  0  0  0  0  0
  1  2  1  0  0  0  0
  1 16  1  0  0  0  0
  3  1  1  0  0  0  0
  4  1  1  0  0  0  0
  4  6  1  0  0  0  0
  5  4  1  0  0  0  0
  7  8  1  0  0  0  0
  8  9  1  0  0  0  0
  9 10  2  0  0  0  0
  9  4  1  0  0  0  0
 10 11  1  0  0  0  0
 12 13  1  0  0  0  0
 12 10  1  0  0  0  0
 14 12  2  0  0  0  0
 15 14  1  0  0  0  0
 15  8  2  0  0  0  0
 16 21  1  0  0  0  0
 17 23  1  0  0  0  0
 18 24  1  0  0  0  0
 18 17  2  0  0  0  0
 19 18  1  0  0  0  0
 20 19  2  0  0  0  0
 20 21  1  0  0  0  0
 21 22  2  0  0  0  0
 22 17  1  0  0  0  0
 25 19  1  0  0  0  0
M  END
>  <minimizedAffinity>
-3.83169031

>  <minimizedRMSD>
3.13574696

$$$$
