
 OpenBabel03272507543D

 23 24  0  0  0  0  0  0  0  0999 V2000
   35.3310   28.6720   49.8150 C   0  0  0  0  0  0  0  0  0  0  0  0
   36.4050   29.5970   49.7210 C   0  0  0  0  0  0  0  0  0  0  0  0
   36.3300   30.5820   48.7590 C   0  0  0  0  0  0  0  0  0  0  0  0
   35.2200   30.6240   47.9400 N   0  0  0  0  0  0  0  0  0  0  0  0
   34.2140   29.7240   48.0570 C   0  0  0  0  0  0  0  0  0  0  0  0
   34.2630   28.7530   48.9900 N   0  0  0  0  0  0  0  0  0  0  0  0
   33.1880   29.9660   47.1070 N   0  0  0  0  0  0  0  0  0  0  0  0
   35.3170   27.8730   50.5500 H   0  0  0  0  0  0  0  0  0  0  0  0
   33.5210   29.4530   46.2240 H   0  0  0  0  0  0  0  0  0  0  0  0
   32.3060   30.4870   47.1800 H   0  0  0  0  0  0  0  0  0  0  0  0
   38.0840   30.3580   46.3960 Cl  0  0  0  0  0  0  0  0  0  0  0  0
   38.2890   31.6780   47.5520 C   0  0  0  0  0  0  0  0  0  0  0  0
   37.2940   31.6060   48.5360 C   0  0  0  0  0  0  0  0  0  0  0  0
   37.3080   32.6050   49.5290 C   0  0  0  0  0  0  0  0  0  0  0  0
   36.6340   32.7430   50.3640 H   0  0  0  0  0  0  0  0  0  0  0  0
   38.2580   33.6040   49.5290 C   0  0  0  0  0  0  0  0  0  0  0  0
   38.3440   34.3920   50.2380 H   0  0  0  0  0  0  0  0  0  0  0  0
   39.2210   33.6230   48.5320 C   0  0  0  0  0  3  0  0  0  0  0  0
   39.2370   32.6740   47.5540 C   0  0  0  0  0  3  0  0  0  0  0  0
   37.5490   29.4730   50.6590 C   0  0  0  0  0  0  0  0  0  0  0  0
   38.7200   29.9010   50.0840 F   0  0  0  0  0  0  0  0  0  0  0  0
   37.2900   30.2570   51.7570 F   0  0  0  0  0  0  0  0  0  0  0  0
   37.7420   28.1740   51.1000 F   0  0  0  0  0  0  0  0  0  0  0  0
  1  8  1  0  0  0  0
  2  1  1  0  0  0  0
  2 20  1  0  0  0  0
  3  2  2  0  0  0  0
  4  5  2  0  0  0  0
  4  3  1  0  0  0  0
  5  6  1  0  0  0  0
  6  1  2  0  0  0  0
  7 10  1  0  0  0  0
  7  5  1  0  0  0  0
  9  7  1  0  0  0  0
 11 12  1  0  0  0  0
 12 19  2  0  0  0  0
 12 13  1  0  0  0  0
 13  3  1  0  0  0  0
 13 14  2  0  0  0  0
 14 16  1  0  0  0  0
 14 15  1  0  0  0  0
 16 17  1  0  0  0  0
 18 16  2  0  0  0  0
 19 18  1  0  0  0  0
 20 23  1  0  0  0  0
 20 22  1  0  0  0  0
 21 20  1  0  0  0  0
M  END
>  <minimizedAffinity>
-6.24810839

>  <minimizedRMSD>
1.54765248

$$$$
