
 OpenBabel03272501453D

 34 37  0  0  0  0  0  0  0  0999 V2000
   37.8780   27.2550   35.7510 C   0  0  0  0  0  0  0  0  0  0  0  0
   37.9100   26.0330   35.0130 C   0  0  0  0  0  0  0  0  0  0  0  0
   37.2670   25.9930   33.7860 C   0  0  0  0  0  0  0  0  0  0  0  0
   36.6410   27.1140   33.3480 N   0  0  0  0  0  0  0  0  0  0  0  0
   36.6220   28.2720   34.0670 C   0  0  0  0  0  0  0  0  0  0  0  0
   37.2430   28.3270   35.2650 N   0  0  0  0  0  0  0  0  0  0  0  0
   38.3020   27.4990   36.7150 H   0  0  0  0  0  0  0  0  0  0  0  0
   37.3180   25.0620   33.2750 H   0  0  0  0  0  0  0  0  0  0  0  0
   38.1400   24.4750   36.8740 C   0  0  0  0  0  0  0  0  0  0  0  0
   38.6420   24.9720   35.6720 C   0  0  0  0  0  0  0  0  0  0  0  0
   39.8150   24.4110   35.1880 C   0  0  0  0  0  0  0  0  0  0  0  0
   40.4270   23.3850   35.9260 C   0  0  0  0  0  0  0  0  0  0  0  0
   41.5410   22.6660   35.7210 N   0  0  0  0  0  0  0  0  0  0  0  0
   41.7070   21.7930   36.7240 C   0  0  0  0  0  0  0  0  0  0  0  0
   40.6870   21.9490   37.5900 N   0  0  0  0  0  0  0  0  0  0  0  0
   39.8980   22.9230   37.1070 C   0  0  0  0  0  0  0  0  0  0  0  0
   38.7420   23.4750   37.5850 C   0  0  0  0  0  0  0  0  0  0  0  0
   37.2230   24.8280   37.3780 H   0  0  0  0  0  0  0  0  0  0  0  0
   40.2160   24.7770   34.2710 H   0  0  0  0  0  0  0  0  0  0  0  0
   42.1980   22.7590   34.9030 H   0  0  0  0  0  0  0  0  0  0  0  0
   42.4830   21.0660   36.8870 H   0  0  0  0  0  0  0  0  0  0  0  0
   38.3610   23.0760   38.5230 H   0  0  0  0  0  0  0  0  0  0  0  0
   35.9030   29.4500   33.4880 C   0  0  0  0  0  0  0  0  0  0  0  0
   35.1920   29.0510   32.7600 H   0  0  0  0  0  0  0  0  0  0  0  0
   36.6540   30.1050   33.0040 H   0  0  0  0  0  0  0  0  0  0  0  0
   32.8730   29.0750   33.7530 Cl  0  0  0  0  0  0  0  0  0  0  0  0
   33.8430   30.1120   34.7740 C   0  0  0  0  0  0  0  0  0  0  0  0
   35.1970   30.1960   34.5540 C   0  0  0  0  0  0  0  0  0  0  0  0
   35.9430   31.0320   35.3840 C   0  0  0  0  0  0  0  0  0  0  0  0
   37.0030   31.1140   35.2310 H   0  0  0  0  0  0  0  0  0  0  0  0
   35.4190   31.7850   36.4170 C   0  0  0  0  0  0  0  0  0  0  0  0
   36.0510   32.4160   37.0270 H   0  0  0  0  0  0  0  0  0  0  0  0
   34.0370   31.6710   36.6080 C   0  0  0  0  0  3  0  0  0  0  0  0
   33.2710   30.8510   35.8020 C   0  0  0  0  0  3  0  0  0  0  0  0
  1  7  1  0  0  0  0
  2 10  1  0  0  0  0
  2  1  2  0  0  0  0
  3  2  1  0  0  0  0
  4  3  2  0  0  0  0
  4  5  1  0  0  0  0
  5  6  2  0  0  0  0
  6  1  1  0  0  0  0
  8  3  1  0  0  0  0
  9 18  1  0  0  0  0
  9 17  1  0  0  0  0
 10  9  2  0  0  0  0
 11 10  1  0  0  0  0
 11 12  2  0  0  0  0
 12 16  1  0  0  0  0
 13 12  1  0  0  0  0
 13 14  1  0  0  0  0
 14 21  1  0  0  0  0
 14 15  2  0  0  0  0
 16 17  2  0  0  0  0
 16 15  1  0  0  0  0
 17 22  1  0  0  0  0
 19 11  1  0  0  0  0
 20 13  1  0  0  0  0
 23  5  1  0  0  0  0
 23 28  1  0  0  0  0
 24 23  1  0  0  0  0
 25 23  1  0  0  0  0
 26 27  1  0  0  0  0
 27 34  1  0  0  0  0
 28 27  2  0  0  0  0
 28 29  1  0  0  0  0
 29 31  2  0  0  0  0
 30 29  1  0  0  0  0
 31 33  1  0  0  0  0
 31 32  1  0  0  0  0
 34 33  2  0  0  0  0
M  END
>  <minimizedAffinity>
-6.11562872

$$$$

 OpenBabel03272501453D

 34 37  0  0  0  0  0  0  0  0999 V2000
   35.3970   29.0440   32.5870 C   0  0  0  0  0  0  0  0  0  0  0  0
   35.7660   28.9740   33.9640 C   0  0  0  0  0  0  0  0  0  0  0  0
   36.6650   27.9920   34.3510 C   0  0  0  0  0  0  0  0  0  0  0  0
   37.1480   27.1500   33.4040 N   0  0  0  0  0  0  0  0  0  0  0  0
   36.7850   27.2330   32.0940 C   0  0  0  0  0  0  0  0  0  0  0  0
   35.9100   28.1840   31.7000 N   0  0  0  0  0  0  0  0  0  0  0  0
   34.7200   29.7170   32.0800 H   0  0  0  0  0  0  0  0  0  0  0  0
   36.9080   27.9790   35.3860 H   0  0  0  0  0  0  0  0  0  0  0  0
   35.9460   30.8560   35.5030 C   0  0  0  0  0  0  0  0  0  0  0  0
   35.1310   29.9780   34.7900 C   0  0  0  0  0  0  0  0  0  0  0  0
   33.7580   30.1310   34.9240 C   0  0  0  0  0  0  0  0  0  0  0  0
   33.2690   31.1480   35.7590 C   0  0  0  0  0  0  0  0  0  0  0  0
   32.0260   31.5300   36.0830 N   0  0  0  0  0  0  0  0  0  0  0  0
   32.0780   32.5670   36.9310 C   0  0  0  0  0  0  0  0  0  0  0  0
   33.3720   32.8590   37.1590 N   0  0  0  0  0  0  0  0  0  0  0  0
   34.1100   31.9930   36.4440 C   0  0  0  0  0  0  0  0  0  0  0  0
   35.4620   31.8440   36.3140 C   0  0  0  0  0  0  0  0  0  0  0  0
   37.0510   30.8490   35.4970 H   0  0  0  0  0  0  0  0  0  0  0  0
   33.1160   29.4690   34.3880 H   0  0  0  0  0  0  0  0  0  0  0  0
   31.1320   31.0960   35.7350 H   0  0  0  0  0  0  0  0  0  0  0  0
   31.2810   33.1230   37.3930 H   0  0  0  0  0  0  0  0  0  0  0  0
   36.0860   32.5370   36.8740 H   0  0  0  0  0  0  0  0  0  0  0  0
   37.3820   26.2540   31.1310 C   0  0  0  0  0  0  0  0  0  0  0  0
   38.4640   26.4060   31.1690 H   0  0  0  0  0  0  0  0  0  0  0  0
   36.9760   26.4720   30.1240 H   0  0  0  0  0  0  0  0  0  0  0  0
   34.5710   25.2240   30.4730 Cl  0  0  0  0  0  0  0  0  0  0  0  0
   35.8090   24.2940   31.2860 C   0  0  0  0  0  0  0  0  0  0  0  0
   37.0340   24.8700   31.5260 C   0  0  0  0  0  0  0  0  0  0  0  0
   37.9990   24.1040   32.1770 C   0  0  0  0  0  0  0  0  0  0  0  0
   38.9650   24.5320   32.3760 H   0  0  0  0  0  0  0  0  0  0  0  0
   37.8160   22.8010   32.6010 C   0  0  0  0  0  0  0  0  0  0  0  0
   38.6050   22.2590   33.1020 H   0  0  0  0  0  0  0  0  0  0  0  0
   36.5550   22.2530   32.3380 C   0  0  0  0  0  3  0  0  0  0  0  0
   35.5780   22.9870   31.6940 C   0  0  0  0  0  3  0  0  0  0  0  0
  1  2  1  0  0  0  0
  2  3  2  0  0  0  0
  2 10  1  0  0  0  0
  3  8  1  0  0  0  0
  4  3  1  0  0  0  0
  5  4  2  0  0  0  0
  6  5  1  0  0  0  0
  6  1  2  0  0  0  0
  7  1  1  0  0  0  0
  9 17  1  0  0  0  0
 10 11  1  0  0  0  0
 10  9  2  0  0  0  0
 11 12  2  0  0  0  0
 12 13  1  0  0  0  0
 12 16  1  0  0  0  0
 13 14  1  0  0  0  0
 14 15  2  0  0  0  0
 14 21  1  0  0  0  0
 16 15  1  0  0  0  0
 17 16  2  0  0  0  0
 17 22  1  0  0  0  0
 18  9  1  0  0  0  0
 19 11  1  0  0  0  0
 20 13  1  0  0  0  0
 23 24  1  0  0  0  0
 23 28  1  0  0  0  0
 23  5  1  0  0  0  0
 25 23  1  0  0  0  0
 26 27  1  0  0  0  0
 27 28  2  0  0  0  0
 27 34  1  0  0  0  0
 28 29  1  0  0  0  0
 29 30  1  0  0  0  0
 29 31  2  0  0  0  0
 31 32  1  0  0  0  0
 33 31  1  0  0  0  0
 34 33  2  0  0  0  0
M  END
>  <minimizedAffinity>
-5.82640505

$$$$

 OpenBabel03272501453D

 34 37  0  0  0  0  0  0  0  0999 V2000
   37.9200   27.5520   34.4310 C   0  0  0  0  0  0  0  0  0  0  0  0
   36.9350   27.4120   33.4070 C   0  0  0  0  0  0  0  0  0  0  0  0
   36.8090   26.1800   32.7850 C   0  0  0  0  0  0  0  0  0  0  0  0
   37.6250   25.1720   33.1790 N   0  0  0  0  0  0  0  0  0  0  0  0
   38.5600   25.3240   34.1590 C   0  0  0  0  0  0  0  0  0  0  0  0
   38.6950   26.5180   34.7750 N   0  0  0  0  0  0  0  0  0  0  0  0
   38.1850   28.4110   35.0300 H   0  0  0  0  0  0  0  0  0  0  0  0
   36.0640   26.1250   32.0290 H   0  0  0  0  0  0  0  0  0  0  0  0
   35.7400   29.3600   34.2560 C   0  0  0  0  0  0  0  0  0  0  0  0
   36.1750   28.6190   33.1590 C   0  0  0  0  0  0  0  0  0  0  0  0
   35.8470   29.0930   31.8960 C   0  0  0  0  0  0  0  0  0  0  0  0
   35.1040   30.2800   31.7930 C   0  0  0  0  0  0  0  0  0  0  0  0
   34.6450   30.9690   30.7380 N   0  0  0  0  0  0  0  0  0  0  0  0
   33.9790   32.0520   31.1600 C   0  0  0  0  0  0  0  0  0  0  0  0
   34.0070   32.0650   32.5060 N   0  0  0  0  0  0  0  0  0  0  0  0
   34.6950   30.9820   32.9020 C   0  0  0  0  0  0  0  0  0  0  0  0
   35.0170   30.5150   34.1460 C   0  0  0  0  0  0  0  0  0  0  0  0
   35.9220   29.1010   35.3140 H   0  0  0  0  0  0  0  0  0  0  0  0
   36.1690   28.5410   31.0440 H   0  0  0  0  0  0  0  0  0  0  0  0
   34.7770   30.7140   29.7250 H   0  0  0  0  0  0  0  0  0  0  0  0
   33.4830   32.8230   30.5960 H   0  0  0  0  0  0  0  0  0  0  0  0
   34.6730   31.1040   34.9940 H   0  0  0  0  0  0  0  0  0  0  0  0
   39.4070   24.1430   34.5180 C   0  0  0  0  0  0  0  0  0  0  0  0
   40.4400   24.4270   34.3000 H   0  0  0  0  0  0  0  0  0  0  0  0
   39.0810   23.2870   33.8950 H   0  0  0  0  0  0  0  0  0  0  0  0
   41.5660   22.4300   35.8580 Cl  0  0  0  0  0  0  0  0  0  0  0  0
   40.1460   23.0550   36.6640 C   0  0  0  0  0  0  0  0  0  0  0  0
   39.2470   23.8130   35.9520 C   0  0  0  0  0  0  0  0  0  0  0  0
   38.1250   24.2960   36.6220 C   0  0  0  0  0  0  0  0  0  0  0  0
   37.4070   24.8910   36.0860 H   0  0  0  0  0  0  0  0  0  0  0  0
   37.8470   24.0690   37.9570 C   0  0  0  0  0  0  0  0  0  0  0  0
   36.9570   24.4710   38.4200 H   0  0  0  0  0  0  0  0  0  0  0  0
   38.7860   23.2920   38.6450 C   0  0  0  0  0  3  0  0  0  0  0  0
   39.9090   22.7990   38.0090 C   0  0  0  0  0  3  0  0  0  0  0  0
  1  6  1  0  0  0  0
  1  7  1  0  0  0  0
  2  1  2  0  0  0  0
  3  4  2  0  0  0  0
  3  2  1  0  0  0  0
  4  5  1  0  0  0  0
  5 23  1  0  0  0  0
  5  6  2  0  0  0  0
  8  3  1  0  0  0  0
  9 18  1  0  0  0  0
 10  2  1  0  0  0  0
 10  9  2  0  0  0  0
 11 10  1  0  0  0  0
 12 11  2  0  0  0  0
 12 16  1  0  0  0  0
 13 14  1  0  0  0  0
 13 12  1  0  0  0  0
 14 15  2  0  0  0  0
 15 16  1  0  0  0  0
 16 17  2  0  0  0  0
 17  9  1  0  0  0  0
 17 22  1  0  0  0  0
 19 11  1  0  0  0  0
 20 13  1  0  0  0  0
 21 14  1  0  0  0  0
 23 28  1  0  0  0  0
 24 23  1  0  0  0  0
 25 23  1  0  0  0  0
 26 27  1  0  0  0  0
 27 34  1  0  0  0  0
 28 29  1  0  0  0  0
 28 27  2  0  0  0  0
 29 31  2  0  0  0  0
 30 29  1  0  0  0  0
 31 32  1  0  0  0  0
 31 33  1  0  0  0  0
 34 33  2  0  0  0  0
M  END
>  <minimizedAffinity>
-5.81783819

$$$$

 OpenBabel03272501453D

 34 37  0  0  0  0  0  0  0  0999 V2000
   35.3300   28.9380   32.5870 C   0  0  0  0  0  0  0  0  0  0  0  0
   35.7150   28.8960   33.9610 C   0  0  0  0  0  0  0  0  0  0  0  0
   36.6590   27.9580   34.3470 C   0  0  0  0  0  0  0  0  0  0  0  0
   37.1690   27.1290   33.4020 N   0  0  0  0  0  0  0  0  0  0  0  0
   36.7900   27.1850   32.0940 C   0  0  0  0  0  0  0  0  0  0  0  0
   35.8700   28.0930   31.7020 N   0  0  0  0  0  0  0  0  0  0  0  0
   34.6190   29.5760   32.0820 H   0  0  0  0  0  0  0  0  0  0  0  0
   36.9130   27.9640   35.3790 H   0  0  0  0  0  0  0  0  0  0  0  0
   33.6580   29.8030   34.9050 C   0  0  0  0  0  0  0  0  0  0  0  0
   35.0450   29.8790   34.7850 C   0  0  0  0  0  0  0  0  0  0  0  0
   35.6900   30.8980   35.4720 C   0  0  0  0  0  0  0  0  0  0  0  0
   34.9210   31.7880   36.2390 C   0  0  0  0  0  0  0  0  0  0  0  0
   35.2500   32.8470   36.9930 N   0  0  0  0  0  0  0  0  0  0  0  0
   34.1450   33.3780   37.5330 C   0  0  0  0  0  0  0  0  0  0  0  0
   33.0870   32.6530   37.1240 N   0  0  0  0  0  0  0  0  0  0  0  0
   33.5540   31.6760   36.3300 C   0  0  0  0  0  0  0  0  0  0  0  0
   32.9180   30.6730   35.6550 C   0  0  0  0  0  0  0  0  0  0  0  0
   33.0160   29.0510   34.4130 H   0  0  0  0  0  0  0  0  0  0  0  0
   36.7500   30.9750   35.3930 H   0  0  0  0  0  0  0  0  0  0  0  0
   36.2230   33.2200   37.1490 H   0  0  0  0  0  0  0  0  0  0  0  0
   34.0330   34.2270   38.1860 H   0  0  0  0  0  0  0  0  0  0  0  0
   31.8350   30.6240   35.7580 H   0  0  0  0  0  0  0  0  0  0  0  0
   37.4190   26.2240   31.1340 C   0  0  0  0  0  0  0  0  0  0  0  0
   38.4980   26.3880   31.1980 H   0  0  0  0  0  0  0  0  0  0  0  0
   37.0340   26.4510   30.1210 H   0  0  0  0  0  0  0  0  0  0  0  0
   34.6040   25.2030   30.4840 Cl  0  0  0  0  0  0  0  0  0  0  0  0
   35.8520   24.2590   31.2650 C   0  0  0  0  0  0  0  0  0  0  0  0
   37.0780   24.8320   31.5040 C   0  0  0  0  0  0  0  0  0  0  0  0
   38.0520   24.0540   32.1280 C   0  0  0  0  0  0  0  0  0  0  0  0
   39.0180   24.4810   32.3260 H   0  0  0  0  0  0  0  0  0  0  0  0
   37.8750   22.7430   32.5270 C   0  0  0  0  0  0  0  0  0  0  0  0
   38.6700   22.1920   33.0090 H   0  0  0  0  0  0  0  0  0  0  0  0
   36.6130   22.1980   32.2660 C   0  0  0  0  0  3  0  0  0  0  0  0
   35.6270   22.9430   31.6480 C   0  0  0  0  0  3  0  0  0  0  0  0
  1  2  1  0  0  0  0
  2  3  2  0  0  0  0
  2 10  1  0  0  0  0
  3  8  1  0  0  0  0
  4  3  1  0  0  0  0
  5  4  2  0  0  0  0
  6  5  1  0  0  0  0
  6  1  2  0  0  0  0
  7  1  1  0  0  0  0
  9 17  1  0  0  0  0
 10  9  2  0  0  0  0
 10 11  1  0  0  0  0
 11 12  2  0  0  0  0
 12 16  1  0  0  0  0
 12 13  1  0  0  0  0
 13 20  1  0  0  0  0
 13 14  1  0  0  0  0
 14 21  1  0  0  0  0
 15 14  2  0  0  0  0
 16 15  1  0  0  0  0
 17 22  1  0  0  0  0
 17 16  2  0  0  0  0
 18  9  1  0  0  0  0
 19 11  1  0  0  0  0
 23 24  1  0  0  0  0
 23 28  1  0  0  0  0
 23  5  1  0  0  0  0
 25 23  1  0  0  0  0
 26 27  1  0  0  0  0
 27 28  2  0  0  0  0
 27 34  1  0  0  0  0
 28 29  1  0  0  0  0
 29 30  1  0  0  0  0
 29 31  2  0  0  0  0
 31 32  1  0  0  0  0
 33 31  1  0  0  0  0
 34 33  2  0  0  0  0
M  END
>  <minimizedAffinity>
-5.79702711

$$$$

 OpenBabel03272501453D

 34 37  0  0  0  0  0  0  0  0999 V2000
   37.5270   27.4400   35.0660 C   0  0  0  0  0  0  0  0  0  0  0  0
   38.3190   27.0750   33.9360 C   0  0  0  0  0  0  0  0  0  0  0  0
   37.9330   27.5420   32.6890 C   0  0  0  0  0  0  0  0  0  0  0  0
   36.8250   28.3190   32.6060 N   0  0  0  0  0  0  0  0  0  0  0  0
   36.0820   28.6580   33.6970 C   0  0  0  0  0  0  0  0  0  0  0  0
   36.4440   28.2120   34.9190 N   0  0  0  0  0  0  0  0  0  0  0  0
   37.6430   27.1850   36.1100 H   0  0  0  0  0  0  0  0  0  0  0  0
   38.5520   27.2430   31.8790 H   0  0  0  0  0  0  0  0  0  0  0  0
   39.2700   24.8650   34.3270 C   0  0  0  0  0  0  0  0  0  0  0  0
   39.4570   26.2450   34.2650 C   0  0  0  0  0  0  0  0  0  0  0  0
   40.7320   26.7280   34.5240 C   0  0  0  0  0  0  0  0  0  0  0  0
   41.7520   25.8140   34.8310 C   0  0  0  0  0  0  0  0  0  0  0  0
   43.0510   25.9740   35.1220 N   0  0  0  0  0  0  0  0  0  0  0  0
   43.6160   24.7800   35.3450 C   0  0  0  0  0  0  0  0  0  0  0  0
   42.6700   23.8330   35.1960 N   0  0  0  0  0  0  0  0  0  0  0  0
   41.5240   24.4590   34.8800 C   0  0  0  0  0  0  0  0  0  0  0  0
   40.2690   23.9820   34.6250 C   0  0  0  0  0  0  0  0  0  0  0  0
   38.3130   24.3420   34.1500 H   0  0  0  0  0  0  0  0  0  0  0  0
   40.8970   27.7810   34.4830 H   0  0  0  0  0  0  0  0  0  0  0  0
   43.5680   26.8910   35.1740 H   0  0  0  0  0  0  0  0  0  0  0  0
   44.6320   24.5310   35.6010 H   0  0  0  0  0  0  0  0  0  0  0  0
   40.1370   22.9020   34.6760 H   0  0  0  0  0  0  0  0  0  0  0  0
   34.8790   29.5250   33.4910 C   0  0  0  0  0  0  0  0  0  0  0  0
   34.0290   28.8480   33.3660 H   0  0  0  0  0  0  0  0  0  0  0  0
   35.0480   30.1350   32.5820 H   0  0  0  0  0  0  0  0  0  0  0  0
   32.2380   29.3050   35.0300 Cl  0  0  0  0  0  0  0  0  0  0  0  0
   33.5380   30.4040   35.4310 C   0  0  0  0  0  0  0  0  0  0  0  0
   34.6760   30.4090   34.6610 C   0  0  0  0  0  0  0  0  0  0  0  0
   35.6940   31.2970   35.0050 C   0  0  0  0  0  0  0  0  0  0  0  0
   36.5940   31.3190   34.4170 H   0  0  0  0  0  0  0  0  0  0  0  0
   35.6430   32.1770   36.0690 C   0  0  0  0  0  0  0  0  0  0  0  0
   36.4670   32.8430   36.2850 H   0  0  0  0  0  0  0  0  0  0  0  0
   34.4680   32.1410   36.8270 C   0  0  0  0  0  3  0  0  0  0  0  0
   33.4410   31.2720   36.5110 C   0  0  0  0  0  3  0  0  0  0  0  0
  1  7  1  0  0  0  0
  2 10  1  0  0  0  0
  2  1  2  0  0  0  0
  3  2  1  0  0  0  0
  4  3  2  0  0  0  0
  4  5  1  0  0  0  0
  5  6  2  0  0  0  0
  6  1  1  0  0  0  0
  8  3  1  0  0  0  0
  9 17  1  0  0  0  0
 10  9  2  0  0  0  0
 10 11  1  0  0  0  0
 11 12  2  0  0  0  0
 12 16  1  0  0  0  0
 12 13  1  0  0  0  0
 13 20  1  0  0  0  0
 13 14  1  0  0  0  0
 14 21  1  0  0  0  0
 15 14  2  0  0  0  0
 16 15  1  0  0  0  0
 17 22  1  0  0  0  0
 17 16  2  0  0  0  0
 18  9  1  0  0  0  0
 19 11  1  0  0  0  0
 23  5  1  0  0  0  0
 23 28  1  0  0  0  0
 24 23  1  0  0  0  0
 25 23  1  0  0  0  0
 26 27  1  0  0  0  0
 27 34  1  0  0  0  0
 28 29  1  0  0  0  0
 28 27  2  0  0  0  0
 29 31  2  0  0  0  0
 30 29  1  0  0  0  0
 31 32  1  0  0  0  0
 31 33  1  0  0  0  0
 34 33  2  0  0  0  0
M  END
>  <minimizedAffinity>
-5.69725657

$$$$

 OpenBabel03272501453D

 34 37  0  0  0  0  0  0  0  0999 V2000
   36.6180   28.0850   34.2370 C   0  0  0  0  0  0  0  0  0  0  0  0
   35.5840   28.8700   33.6430 C   0  0  0  0  0  0  0  0  0  0  0  0
   35.2930   28.6610   32.3040 C   0  0  0  0  0  0  0  0  0  0  0  0
   36.0010   27.7250   31.6280 N   0  0  0  0  0  0  0  0  0  0  0  0
   36.9850   26.9840   32.2120 C   0  0  0  0  0  0  0  0  0  0  0  0
   37.2810   27.1740   33.5160 N   0  0  0  0  0  0  0  0  0  0  0  0
   37.0030   28.0890   35.2470 H   0  0  0  0  0  0  0  0  0  0  0  0
   34.5170   29.2700   31.9070 H   0  0  0  0  0  0  0  0  0  0  0  0
   33.5870   29.6940   34.7730 C   0  0  0  0  0  0  0  0  0  0  0  0
   34.9600   29.8020   34.5580 C   0  0  0  0  0  0  0  0  0  0  0  0
   35.6370   30.8020   35.2410 C   0  0  0  0  0  0  0  0  0  0  0  0
   34.9120   31.6420   36.1020 C   0  0  0  0  0  0  0  0  0  0  0  0
   35.2780   32.6730   36.8770 N   0  0  0  0  0  0  0  0  0  0  0  0
   34.2060   33.1590   37.5190 C   0  0  0  0  0  0  0  0  0  0  0  0
   33.1330   32.4330   37.1550 N   0  0  0  0  0  0  0  0  0  0  0  0
   33.5570   31.5000   36.2860 C   0  0  0  0  0  0  0  0  0  0  0  0
   32.8890   30.5150   35.6130 C   0  0  0  0  0  0  0  0  0  0  0  0
   32.9230   28.9520   34.2950 H   0  0  0  0  0  0  0  0  0  0  0  0
   36.6870   30.9030   35.0910 H   0  0  0  0  0  0  0  0  0  0  0  0
   36.2530   33.0580   36.9790 H   0  0  0  0  0  0  0  0  0  0  0  0
   34.1290   33.9760   38.2160 H   0  0  0  0  0  0  0  0  0  0  0  0
   31.8180   30.4410   35.7910 H   0  0  0  0  0  0  0  0  0  0  0  0
   37.7020   25.9740   31.3720 C   0  0  0  0  0  0  0  0  0  0  0  0
   38.7670   26.0920   31.5900 H   0  0  0  0  0  0  0  0  0  0  0  0
   37.4790   26.1910   30.3100 H   0  0  0  0  0  0  0  0  0  0  0  0
   39.3830   24.3410   33.3480 Cl  0  0  0  0  0  0  0  0  0  0  0  0
   37.9140   23.7780   32.5850 C   0  0  0  0  0  0  0  0  0  0  0  0
   37.2480   24.6070   31.7130 C   0  0  0  0  0  0  0  0  0  0  0  0
   36.0810   24.1280   31.1200 C   0  0  0  0  0  0  0  0  0  0  0  0
   35.5430   24.7580   30.4340 H   0  0  0  0  0  0  0  0  0  0  0  0
   35.5400   22.8770   31.3440 C   0  0  0  0  0  0  0  0  0  0  0  0
   34.6300   22.5640   30.8530 H   0  0  0  0  0  0  0  0  0  0  0  0
   36.2480   22.0650   32.2380 C   0  0  0  0  0  3  0  0  0  0  0  0
   37.4080   22.5100   32.8420 C   0  0  0  0  0  3  0  0  0  0  0  0
  1  7  1  0  0  0  0
  2  1  1  0  0  0  0
  2 10  1  0  0  0  0
  3  2  2  0  0  0  0
  4  5  2  0  0  0  0
  4  3  1  0  0  0  0
  5  6  1  0  0  0  0
  6  1  2  0  0  0  0
  8  3  1  0  0  0  0
  9 17  1  0  0  0  0
 10  9  2  0  0  0  0
 10 11  1  0  0  0  0
 11 12  2  0  0  0  0
 12 16  1  0  0  0  0
 12 13  1  0  0  0  0
 13 20  1  0  0  0  0
 13 14  1  0  0  0  0
 14 21  1  0  0  0  0
 15 14  2  0  0  0  0
 16 15  1  0  0  0  0
 17 22  1  0  0  0  0
 17 16  2  0  0  0  0
 18  9  1  0  0  0  0
 19 11  1  0  0  0  0
 23 24  1  0  0  0  0
 23 28  1  0  0  0  0
 23  5  1  0  0  0  0
 25 23  1  0  0  0  0
 27 34  1  0  0  0  0
 27 26  1  0  0  0  0
 28 27  2  0  0  0  0
 29 31  2  0  0  0  0
 29 28  1  0  0  0  0
 30 29  1  0  0  0  0
 31 33  1  0  0  0  0
 32 31  1  0  0  0  0
 33 34  2  0  0  0  0
M  END
>  <minimizedAffinity>
-5.67948627

$$$$

 OpenBabel03272501453D

 34 37  0  0  0  0  0  0  0  0999 V2000
   37.6040   26.9340   35.2780 C   0  0  0  0  0  0  0  0  0  0  0  0
   37.1460   26.9230   33.9260 C   0  0  0  0  0  0  0  0  0  0  0  0
   37.3690   25.7830   33.1700 C   0  0  0  0  0  0  0  0  0  0  0  0
   38.0080   24.7380   33.7510 N   0  0  0  0  0  0  0  0  0  0  0  0
   38.4370   24.7670   35.0440 C   0  0  0  0  0  0  0  0  0  0  0  0
   38.2280   25.8700   35.7940 N   0  0  0  0  0  0  0  0  0  0  0  0
   37.5400   27.7090   36.0290 H   0  0  0  0  0  0  0  0  0  0  0  0
   37.0120   25.8230   32.1690 H   0  0  0  0  0  0  0  0  0  0  0  0
   36.0240   29.0050   34.5200 C   0  0  0  0  0  0  0  0  0  0  0  0
   36.4850   28.1460   33.5230 C   0  0  0  0  0  0  0  0  0  0  0  0
   36.2780   28.5280   32.2050 C   0  0  0  0  0  0  0  0  0  0  0  0
   35.6220   29.7430   31.9490 C   0  0  0  0  0  0  0  0  0  0  0  0
   35.2840   30.3630   30.8090 N   0  0  0  0  0  0  0  0  0  0  0  0
   34.6620   31.5170   31.0900 C   0  0  0  0  0  0  0  0  0  0  0  0
   34.5970   31.6450   32.4290 N   0  0  0  0  0  0  0  0  0  0  0  0
   35.1830   30.5610   32.9630 C   0  0  0  0  0  0  0  0  0  0  0  0
   35.3870   30.1860   34.2610 C   0  0  0  0  0  0  0  0  0  0  0  0
   36.1150   28.8280   35.6060 H   0  0  0  0  0  0  0  0  0  0  0  0
   36.6220   27.8860   31.4270 H   0  0  0  0  0  0  0  0  0  0  0  0
   35.4690   30.0140   29.8330 H   0  0  0  0  0  0  0  0  0  0  0  0
   34.2570   32.2630   30.4280 H   0  0  0  0  0  0  0  0  0  0  0  0
   35.0240   30.8660   35.0290 H   0  0  0  0  0  0  0  0  0  0  0  0
   39.1290   23.5550   35.5860 C   0  0  0  0  0  0  0  0  0  0  0  0
   38.9000   22.7360   34.8990 H   0  0  0  0  0  0  0  0  0  0  0  0
   38.7300   23.3580   36.6000 H   0  0  0  0  0  0  0  0  0  0  0  0
   40.7650   21.8880   37.5700 Cl  0  0  0  0  0  0  0  0  0  0  0  0
   41.4300   23.1030   36.5020 C   0  0  0  0  0  0  0  0  0  0  0  0
   40.5890   23.7860   35.6550 C   0  0  0  0  0  0  0  0  0  0  0  0
   41.1490   24.7490   34.8170 C   0  0  0  0  0  0  0  0  0  0  0  0
   40.5120   25.2960   34.1460 H   0  0  0  0  0  0  0  0  0  0  0  0
   42.4930   25.0690   34.7730 C   0  0  0  0  0  0  0  0  0  0  0  0
   42.8660   25.8270   34.1000 H   0  0  0  0  0  0  0  0  0  0  0  0
   43.3130   24.3510   35.6510 C   0  0  0  0  0  3  0  0  0  0  0  0
   42.7890   23.3900   36.4940 C   0  0  0  0  0  3  0  0  0  0  0  0
  1  6  1  0  0  0  0
  1  7  1  0  0  0  0
  2  1  2  0  0  0  0
  3  4  2  0  0  0  0
  3  2  1  0  0  0  0
  4  5  1  0  0  0  0
  5 23  1  0  0  0  0
  5  6  2  0  0  0  0
  8  3  1  0  0  0  0
  9 18  1  0  0  0  0
 10  2  1  0  0  0  0
 10  9  2  0  0  0  0
 11 10  1  0  0  0  0
 12 11  2  0  0  0  0
 12 16  1  0  0  0  0
 13 14  1  0  0  0  0
 13 12  1  0  0  0  0
 14 15  2  0  0  0  0
 15 16  1  0  0  0  0
 16 17  2  0  0  0  0
 17  9  1  0  0  0  0
 17 22  1  0  0  0  0
 19 11  1  0  0  0  0
 20 13  1  0  0  0  0
 21 14  1  0  0  0  0
 23 28  1  0  0  0  0
 23 25  1  0  0  0  0
 24 23  1  0  0  0  0
 27 26  1  0  0  0  0
 28 27  2  0  0  0  0
 29 28  1  0  0  0  0
 30 29  1  0  0  0  0
 31 29  2  0  0  0  0
 31 33  1  0  0  0  0
 32 31  1  0  0  0  0
 33 34  2  0  0  0  0
 34 27  1  0  0  0  0
M  END
>  <minimizedAffinity>
-5.66149616

$$$$

 OpenBabel03272501453D

 34 37  0  0  0  0  0  0  0  0999 V2000
   37.5120   25.7810   33.1270 C   0  0  0  0  0  0  0  0  0  0  0  0
   37.9980   26.1680   34.4120 C   0  0  0  0  0  0  0  0  0  0  0  0
   37.5390   27.3580   34.9530 C   0  0  0  0  0  0  0  0  0  0  0  0
   36.6540   28.0940   34.2370 N   0  0  0  0  0  0  0  0  0  0  0  0
   36.2000   27.7080   33.0110 C   0  0  0  0  0  0  0  0  0  0  0  0
   36.6380   26.5510   32.4690 N   0  0  0  0  0  0  0  0  0  0  0  0
   37.7400   24.9100   32.5280 H   0  0  0  0  0  0  0  0  0  0  0  0
   37.9300   27.6040   35.9110 H   0  0  0  0  0  0  0  0  0  0  0  0
   40.2560   25.2610   34.5630 C   0  0  0  0  0  0  0  0  0  0  0  0
   38.9300   25.2250   34.9920 C   0  0  0  0  0  0  0  0  0  0  0  0
   38.5950   24.2800   35.9520 C   0  0  0  0  0  0  0  0  0  0  0  0
   39.5970   23.4230   36.4340 C   0  0  0  0  0  0  0  0  0  0  0  0
   39.5800   22.4330   37.3390 N   0  0  0  0  0  0  0  0  0  0  0  0
   40.8050   21.9040   37.4540 C   0  0  0  0  0  0  0  0  0  0  0  0
   41.6270   22.5600   36.6130 N   0  0  0  0  0  0  0  0  0  0  0  0
   40.8940   23.4930   35.9840 C   0  0  0  0  0  0  0  0  0  0  0  0
   41.2250   24.4230   35.0380 C   0  0  0  0  0  0  0  0  0  0  0  0
   40.6620   25.9530   33.8040 H   0  0  0  0  0  0  0  0  0  0  0  0
   37.5870   24.2350   36.2940 H   0  0  0  0  0  0  0  0  0  0  0  0
   38.7410   22.1060   37.8850 H   0  0  0  0  0  0  0  0  0  0  0  0
   41.1570   21.1010   38.0790 H   0  0  0  0  0  0  0  0  0  0  0  0
   42.2630   24.4410   34.7130 H   0  0  0  0  0  0  0  0  0  0  0  0
   35.2210   28.5960   32.3080 C   0  0  0  0  0  0  0  0  0  0  0  0
   34.5440   28.9770   33.0770 H   0  0  0  0  0  0  0  0  0  0  0  0
   34.6810   27.9840   31.5590 H   0  0  0  0  0  0  0  0  0  0  0  0
   35.2700   31.3270   33.6980 Cl  0  0  0  0  0  0  0  0  0  0  0  0
   36.0200   30.9780   32.1570 C   0  0  0  0  0  0  0  0  0  0  0  0
   35.9270   29.7090   31.6360 C   0  0  0  0  0  0  0  0  0  0  0  0
   36.5340   29.4630   30.4060 C   0  0  0  0  0  0  0  0  0  0  0  0
   36.4740   28.4780   29.9780 H   0  0  0  0  0  0  0  0  0  0  0  0
   37.2260   30.4030   29.6670 C   0  0  0  0  0  0  0  0  0  0  0  0
   37.6750   30.1500   28.7170 H   0  0  0  0  0  0  0  0  0  0  0  0
   37.2970   31.6820   30.2320 C   0  0  0  0  0  3  0  0  0  0  0  0
   36.7060   31.9580   31.4500 C   0  0  0  0  0  3  0  0  0  0  0  0
  1  2  1  0  0  0  0
  2  3  2  0  0  0  0
  2 10  1  0  0  0  0
  3  8  1  0  0  0  0
  4  3  1  0  0  0  0
  5  4  2  0  0  0  0
  6  5  1  0  0  0  0
  6  1  2  0  0  0  0
  7  1  1  0  0  0  0
  9 10  2  0  0  0  0
  9 17  1  0  0  0  0
 10 11  1  0  0  0  0
 11 19  1  0  0  0  0
 11 12  2  0  0  0  0
 12 13  1  0  0  0  0
 13 14  1  0  0  0  0
 13 20  1  0  0  0  0
 14 21  1  0  0  0  0
 15 14  2  0  0  0  0
 16 12  1  0  0  0  0
 16 15  1  0  0  0  0
 17 16  2  0  0  0  0
 18  9  1  0  0  0  0
 22 17  1  0  0  0  0
 23  5  1  0  0  0  0
 23 24  1  0  0  0  0
 25 23  1  0  0  0  0
 27 26  1  0  0  0  0
 28 27  1  0  0  0  0
 28 23  1  0  0  0  0
 29 28  2  0  0  0  0
 30 29  1  0  0  0  0
 31 33  2  0  0  0  0
 31 29  1  0  0  0  0
 32 31  1  0  0  0  0
 33 34  1  0  0  0  0
 34 27  2  0  0  0  0
M  END
>  <minimizedAffinity>
-5.60951805

$$$$

 OpenBabel03272501453D

 34 37  0  0  0  0  0  0  0  0999 V2000
   37.3060   26.4930   33.6180 C   0  0  0  0  0  0  0  0  0  0  0  0
   37.9760   26.6440   34.8690 C   0  0  0  0  0  0  0  0  0  0  0  0
   37.7350   27.7930   35.6060 C   0  0  0  0  0  0  0  0  0  0  0  0
   36.8760   28.7140   35.1030 N   0  0  0  0  0  0  0  0  0  0  0  0
   36.2450   28.5520   33.9070 C   0  0  0  0  0  0  0  0  0  0  0  0
   36.4680   27.4380   33.1760 N   0  0  0  0  0  0  0  0  0  0  0  0
   37.3530   25.6920   32.8940 H   0  0  0  0  0  0  0  0  0  0  0  0
   38.2580   27.8600   36.5290 H   0  0  0  0  0  0  0  0  0  0  0  0
   40.0350   25.3910   34.5050 C   0  0  0  0  0  0  0  0  0  0  0  0
   38.8400   25.5330   35.2070 C   0  0  0  0  0  0  0  0  0  0  0  0
   38.5600   24.5910   36.1880 C   0  0  0  0  0  0  0  0  0  0  0  0
   39.4840   23.5590   36.4170 C   0  0  0  0  0  0  0  0  0  0  0  0
   39.4910   22.5280   37.2740 N   0  0  0  0  0  0  0  0  0  0  0  0
   40.6100   21.8090   37.1070 C   0  0  0  0  0  0  0  0  0  0  0  0
   41.3370   22.3840   36.1300 N   0  0  0  0  0  0  0  0  0  0  0  0
   40.6530   23.4580   35.7010 C   0  0  0  0  0  0  0  0  0  0  0  0
   40.9300   24.3840   34.7350 C   0  0  0  0  0  0  0  0  0  0  0  0
   40.3840   26.0590   33.6970 H   0  0  0  0  0  0  0  0  0  0  0  0
   37.6500   24.6800   36.7360 H   0  0  0  0  0  0  0  0  0  0  0  0
   38.7410   22.3000   37.9780 H   0  0  0  0  0  0  0  0  0  0  0  0
   40.9460   20.9230   37.6170 H   0  0  0  0  0  0  0  0  0  0  0  0
   41.8670   24.2620   34.1960 H   0  0  0  0  0  0  0  0  0  0  0  0
   35.3130   29.6310   33.4480 C   0  0  0  0  0  0  0  0  0  0  0  0
   34.7380   29.2090   32.6200 H   0  0  0  0  0  0  0  0  0  0  0  0
   35.9250   30.4940   33.1190 H   0  0  0  0  0  0  0  0  0  0  0  0
   36.0640   32.1190   35.0720 Cl  0  0  0  0  0  0  0  0  0  0  0  0
   34.6440   31.1360   35.3520 C   0  0  0  0  0  0  0  0  0  0  0  0
   34.4180   30.0400   34.5530 C   0  0  0  0  0  0  0  0  0  0  0  0
   33.2790   29.2760   34.8010 C   0  0  0  0  0  0  0  0  0  0  0  0
   33.0800   28.4140   34.1900 H   0  0  0  0  0  0  0  0  0  0  0  0
   32.3560   29.5390   35.7960 C   0  0  0  0  0  0  0  0  0  0  0  0
   31.4910   28.9070   35.9390 H   0  0  0  0  0  0  0  0  0  0  0  0
   32.6240   30.6620   36.5860 C   0  0  0  0  0  3  0  0  0  0  0  0
   33.7450   31.4400   36.3650 C   0  0  0  0  0  3  0  0  0  0  0  0
  1  2  1  0  0  0  0
  2 10  1  0  0  0  0
  2  3  2  0  0  0  0
  3  8  1  0  0  0  0
  4  3  1  0  0  0  0
  5  4  2  0  0  0  0
  6  1  2  0  0  0  0
  6  5  1  0  0  0  0
  7  1  1  0  0  0  0
  9 17  2  0  0  0  0
  9 10  1  0  0  0  0
 10 11  2  0  0  0  0
 11 12  1  0  0  0  0
 11 19  1  0  0  0  0
 12 13  1  0  0  0  0
 13 20  1  0  0  0  0
 14 13  1  0  0  0  0
 14 21  1  0  0  0  0
 15 14  2  0  0  0  0
 16 15  1  0  0  0  0
 16 12  2  0  0  0  0
 17 16  1  0  0  0  0
 18  9  1  0  0  0  0
 22 17  1  0  0  0  0
 23  5  1  0  0  0  0
 23 28  1  0  0  0  0
 24 23  1  0  0  0  0
 25 23  1  0  0  0  0
 26 27  1  0  0  0  0
 27 34  1  0  0  0  0
 28 29  1  0  0  0  0
 28 27  2  0  0  0  0
 29 31  2  0  0  0  0
 30 29  1  0  0  0  0
 31 32  1  0  0  0  0
 31 33  1  0  0  0  0
 34 33  2  0  0  0  0
M  END
>  <minimizedAffinity>
-5.5545702

$$$$
