
 OpenBabel03272506383D

 37 39  0  0  1  0  0  0  0  0999 V2000
   34.5520   29.5770   50.0250 O   0  0  0  0  0  0  0  0  0  0  0  0
   34.3620   29.5650   48.8030 C   0  0  0  0  0  0  0  0  0  0  0  0
   35.1630   30.3680   47.9050 C   0  0  2  0  0  0  0  0  0  0  0  0
   34.6540   29.8770   46.5130 C   0  0  0  0  0  0  0  0  0  0  0  0
   33.2630   29.3820   46.8260 C   0  0  0  0  0  0  0  0  0  0  0  0
   33.3640   28.7830   48.1620 N   0  0  0  0  0  0  0  0  0  0  0  0
   34.9320   31.4370   47.9940 H   0  0  0  0  0  0  0  0  0  0  0  0
   34.5840   30.7970   45.9020 H   0  0  0  0  0  0  0  0  0  0  0  0
   35.3130   29.1120   46.1180 H   0  0  0  0  0  0  0  0  0  0  0  0
   32.4860   30.1420   46.7700 H   0  0  0  0  0  0  0  0  0  0  0  0
   33.0340   28.5670   46.1150 H   0  0  0  0  0  0  0  0  0  0  0  0
   32.5810   27.6560   48.6020 C   0  0  0  0  0  0  0  0  0  0  0  0
   31.5820   28.0060   48.8520 H   0  0  0  0  0  0  0  0  0  0  0  0
   33.0580   27.3200   49.5590 H   0  0  0  0  0  0  0  0  0  0  0  0
   30.0070   26.5260   47.1470 Cl  0  0  0  0  0  0  0  0  0  0  0  0
   31.6110   25.8960   46.9390 C   0  0  0  0  0  0  0  0  0  0  0  0
   32.5950   26.5360   47.6470 C   0  0  0  0  0  0  0  0  0  0  0  0
   33.8700   26.0150   47.4430 C   0  0  0  0  0  0  0  0  0  0  0  0
   34.7760   26.4050   47.9320 H   0  0  0  0  0  0  0  0  0  0  0  0
   34.1610   24.9540   46.6140 C   0  0  0  0  0  0  0  0  0  0  0  0
   35.1550   24.5570   46.4620 H   0  0  0  0  0  0  0  0  0  0  0  0
   33.1620   24.3280   45.9150 C   0  0  0  0  0  3  0  0  0  0  0  0
   31.8930   24.8320   46.1050 C   0  0  0  0  0  3  0  0  0  0  0  0
   36.5590   30.0780   47.9320 O   0  0  0  0  0  0  0  0  0  0  0  0
   37.4370   31.1490   48.0830 C   0  0  0  0  0  0  0  0  0  0  0  0
   37.5870   31.6600   49.3590 C   0  0  0  0  0  0  0  0  0  0  0  0
   38.4570   32.7270   49.5350 C   0  0  0  0  0  0  0  0  0  0  0  0
   39.1190   33.2220   48.4580 N   0  0  0  0  0  0  0  0  0  0  0  0
   38.9620   32.7130   47.2210 C   0  0  0  0  0  0  0  0  0  0  0  0
   38.1280   31.6910   47.0560 N   0  0  0  0  0  0  0  0  0  0  0  0
   40.5090   32.2970   45.4750 C   0  0  0  0  0  0  0  0  0  0  0  0
   40.6830   31.0780   45.7840 O   0  0  0  0  0  0  0  0  0  0  0  0
   39.6670   33.2560   46.1110 N   0  0  0  0  0  0  0  0  0  0  0  0
   37.0700   31.2830   50.2340 H   0  0  0  0  0  0  0  0  0  0  0  0
   38.5760   33.1320   50.5410 H   0  0  0  0  0  0  0  0  0  0  0  0
   41.0990   32.6090   44.6050 H   0  0  0  0  0  0  0  0  0  0  0  0
   39.5760   34.2450   45.7990 H   0  0  0  0  0  0  0  0  0  0  0  0
  2  1  2  0  0  0  0
  3 24  1  0  0  0  0
  3  7  1  1  0  0  0
  3  2  1  0  0  0  0
  4  5  1  0  0  0  0
  4  3  1  0  0  0  0
  5  6  1  0  0  0  0
  6 12  1  0  0  0  0
  6  2  1  0  0  0  0
  8  4  1  0  0  0  0
  9  4  1  0  0  0  0
 10  5  1  0  0  0  0
 11  5  1  0  0  0  0
 12 13  1  0  0  0  0
 12 14  1  0  0  0  0
 16 15  1  0  0  0  0
 16 17  1  0  0  0  0
 17 12  1  0  0  0  0
 18 17  2  0  0  0  0
 18 19  1  0  0  0  0
 20 18  1  0  0  0  0
 21 20  1  0  0  0  0
 22 23  1  0  0  0  0
 22 20  2  0  0  0  0
 23 16  2  0  0  0  0
 24 25  1  0  0  0  0
 25 26  1  0  0  0  0
 26 27  2  0  0  0  0
 26 34  1  0  0  0  0
 27 35  1  0  0  0  0
 28 27  1  0  0  0  0
 29 28  2  0  0  0  0
 30 29  1  0  0  0  0
 30 25  2  0  0  0  0
 31 32  2  0  0  0  0
 31 33  1  0  0  0  0
 33 29  1  0  0  0  0
 36 31  1  0  0  0  0
 37 33  1  0  0  0  0
M  END
>  <minimizedAffinity>
-5.8464756

>  <minimizedRMSD>
1.78290284

$$$$
