
 OpenBabel03272510303D

 28 30  0  0  0  0  0  0  0  0999 V2000
   37.3360   31.3810   49.2630 C   0  0  0  0  0  0  0  0  0  0  0  0
   37.6380   32.6750   49.6980 C   0  0  0  0  0  0  0  0  0  0  0  0
   38.5270   33.3790   48.9180 C   0  0  0  0  0  0  0  0  0  0  0  0
   39.0470   32.8030   47.8050 N   0  0  0  0  0  0  0  0  0  0  0  0
   38.7420   31.5480   47.3990 C   0  0  0  0  0  0  0  0  0  0  0  0
   37.8590   30.8230   48.1570 N   0  0  0  0  0  0  0  0  0  0  0  0
   37.1670   33.0330   50.5970 H   0  0  0  0  0  0  0  0  0  0  0  0
   38.7900   34.3860   49.2200 H   0  0  0  0  0  0  0  0  0  0  0  0
   36.3420   30.5910   50.0770 C   0  0  0  0  0  0  0  0  0  0  0  0
   36.2560   29.1540   50.0130 C   0  0  0  0  0  0  0  0  0  0  0  0
   37.0170   29.7590   51.1760 C   0  0  0  0  0  0  0  0  0  0  0  0
   35.4610   31.1720   50.4890 H   0  0  0  0  0  0  0  0  0  0  0  0
   36.8960   28.6450   49.2340 H   0  0  0  0  0  0  0  0  0  0  0  0
   35.3140   28.6260   50.1770 H   0  0  0  0  0  0  0  0  0  0  0  0
   36.4930   29.6430   52.1510 H   0  0  0  0  0  0  0  0  0  0  0  0
   38.1130   29.6470   51.1550 H   0  0  0  0  0  0  0  0  0  0  0  0
   39.2690   30.8970   46.2020 C   0  0  0  0  0  0  0  0  0  0  0  0
   38.9390   29.8260   46.2050 H   0  0  0  0  0  0  0  0  0  0  0  0
   40.3750   30.8930   46.2680 H   0  0  0  0  0  0  0  0  0  0  0  0
   36.5530   30.2950   44.9620 Cl  0  0  0  0  0  0  0  0  0  0  0  0
   37.7230   31.3920   44.2590 C   0  0  0  0  0  0  0  0  0  0  0  0
   38.9120   31.5630   44.9370 C   0  0  0  0  0  0  0  0  0  0  0  0
   39.7900   32.4530   44.3120 C   0  0  0  0  0  0  0  0  0  0  0  0
   40.7450   32.6150   44.8190 H   0  0  0  0  0  0  0  0  0  0  0  0
   39.5660   33.1340   43.1300 C   0  0  0  0  0  0  0  0  0  0  0  0
   40.3420   33.7920   42.7650 H   0  0  0  0  0  0  0  0  0  0  0  0
   38.3450   32.9070   42.5100 C   0  0  0  0  0  3  0  0  0  0  0  0
   37.4180   32.0330   43.0760 C   0  0  0  0  0  3  0  0  0  0  0  0
  1  2  1  0  0  0  0
  1  9  1  0  0  0  0
  2  7  1  0  0  0  0
  3  8  1  0  0  0  0
  3  2  2  0  0  0  0
  4  3  1  0  0  0  0
  5  4  2  0  0  0  0
  5  6  1  0  0  0  0
  6  1  2  0  0  0  0
  9 12  1  0  0  0  0
  9 11  1  0  0  0  0
 10  9  1  0  0  0  0
 10 14  1  0  0  0  0
 10 11  1  0  0  0  0
 11 15  1  0  0  0  0
 13 10  1  0  0  0  0
 16 11  1  0  0  0  0
 17 18  1  0  0  0  0
 17 19  1  0  0  0  0
 17  5  1  0  0  0  0
 21 22  1  0  0  0  0
 21 20  1  0  0  0  0
 22 17  1  0  0  0  0
 23 24  1  0  0  0  0
 23 22  2  0  0  0  0
 25 23  1  0  0  0  0
 26 25  1  0  0  0  0
 27 28  1  0  0  0  0
 27 25  2  0  0  0  0
 28 21  2  0  0  0  0
M  END
>  <minimizedAffinity>
-5.48940563

>  <minimizedRMSD>
1.07329273

$$$$
