
 OpenBabel03272510293D

 28 30  0  0  0  0  0  0  0  0999 V2000
   37.1820   31.3160   49.2060 C   0  0  0  0  0  0  0  0  0  0  0  0
   37.3620   32.5770   49.7820 C   0  0  0  0  0  0  0  0  0  0  0  0
   38.3090   33.3800   49.1890 C   0  0  0  0  0  0  0  0  0  0  0  0
   38.9970   32.9240   48.1130 N   0  0  0  0  0  0  0  0  0  0  0  0
   38.8090   31.6990   47.5670 C   0  0  0  0  0  0  0  0  0  0  0  0
   37.8720   30.8770   48.1380 N   0  0  0  0  0  0  0  0  0  0  0  0
   36.7610   32.8360   50.6360 H   0  0  0  0  0  0  0  0  0  0  0  0
   38.4810   34.3650   49.6050 H   0  0  0  0  0  0  0  0  0  0  0  0
   36.1310   30.4200   49.8110 C   0  0  0  0  0  0  0  0  0  0  0  0
   36.1280   28.9910   49.6230 C   0  0  0  0  0  0  0  0  0  0  0  0
   36.6940   29.5260   50.9240 C   0  0  0  0  0  0  0  0  0  0  0  0
   35.1740   30.9280   50.1420 H   0  0  0  0  0  0  0  0  0  0  0  0
   36.8910   28.5760   48.9020 H   0  0  0  0  0  0  0  0  0  0  0  0
   35.2010   28.4140   49.6150 H   0  0  0  0  0  0  0  0  0  0  0  0
   36.0520   29.3070   51.8060 H   0  0  0  0  0  0  0  0  0  0  0  0
   37.7880   29.4610   51.0450 H   0  0  0  0  0  0  0  0  0  0  0  0
   39.5190   31.1760   46.4020 C   0  0  0  0  0  0  0  0  0  0  0  0
   39.7290   30.0880   46.5720 H   0  0  0  0  0  0  0  0  0  0  0  0
   40.5000   31.6870   46.3350 H   0  0  0  0  0  0  0  0  0  0  0  0
   40.0980   33.7360   44.8600 Cl  0  0  0  0  0  0  0  0  0  0  0  0
   38.9890   32.4980   44.3100 C   0  0  0  0  0  0  0  0  0  0  0  0
   38.8280   31.3930   45.1180 C   0  0  0  0  0  0  0  0  0  0  0  0
   37.9270   30.4530   44.6100 C   0  0  0  0  0  0  0  0  0  0  0  0
   37.7720   29.5620   45.2230 H   0  0  0  0  0  0  0  0  0  0  0  0
   37.2250   30.5490   43.4240 C   0  0  0  0  0  0  0  0  0  0  0  0
   36.5590   29.7380   43.1590 H   0  0  0  0  0  0  0  0  0  0  0  0
   37.4420   31.6920   42.6680 C   0  0  0  0  0  3  0  0  0  0  0  0
   38.3270   32.6730   43.1110 C   0  0  0  0  0  3  0  0  0  0  0  0
  1  2  1  0  0  0  0
  1  9  1  0  0  0  0
  2  7  1  0  0  0  0
  3  8  1  0  0  0  0
  3  2  2  0  0  0  0
  4  3  1  0  0  0  0
  5  4  2  0  0  0  0
  5  6  1  0  0  0  0
  6  1  2  0  0  0  0
  9 12  1  0  0  0  0
  9 11  1  0  0  0  0
 10  9  1  0  0  0  0
 10 11  1  0  0  0  0
 11 16  1  0  0  0  0
 11 15  1  0  0  0  0
 13 10  1  0  0  0  0
 14 10  1  0  0  0  0
 17 18  1  0  0  0  0
 17  5  1  0  0  0  0
 19 17  1  0  0  0  0
 21 20  1  0  0  0  0
 21 22  1  0  0  0  0
 22 17  1  0  0  0  0
 23 22  2  0  0  0  0
 23 24  1  0  0  0  0
 25 23  1  0  0  0  0
 26 25  1  0  0  0  0
 27 28  1  0  0  0  0
 27 25  2  0  0  0  0
 28 21  2  0  0  0  0
M  END
>  <minimizedAffinity>
-5.63831091

>  <minimizedRMSD>
1.00521874

$$$$
