
 OpenBabel03272510303D

 28 30  0  0  0  0  0  0  0  0999 V2000
   37.1390   31.2980   49.2350 C   0  0  0  0  0  0  0  0  0  0  0  0
   37.3300   32.5560   49.8150 C   0  0  0  0  0  0  0  0  0  0  0  0
   38.2720   33.3590   49.2120 C   0  0  0  0  0  0  0  0  0  0  0  0
   38.9430   32.9070   48.1240 N   0  0  0  0  0  0  0  0  0  0  0  0
   38.7450   31.6860   47.5750 C   0  0  0  0  0  0  0  0  0  0  0  0
   37.8130   30.8630   48.1550 N   0  0  0  0  0  0  0  0  0  0  0  0
   36.7420   32.8130   50.6790 H   0  0  0  0  0  0  0  0  0  0  0  0
   38.4510   34.3420   49.6310 H   0  0  0  0  0  0  0  0  0  0  0  0
   36.0940   30.4020   49.8500 C   0  0  0  0  0  0  0  0  0  0  0  0
   36.0830   28.9750   49.6530 C   0  0  0  0  0  0  0  0  0  0  0  0
   36.6720   29.4990   50.9480 C   0  0  0  0  0  0  0  0  0  0  0  0
   35.1440   30.9120   50.2000 H   0  0  0  0  0  0  0  0  0  0  0  0
   36.8330   28.5620   48.9170 H   0  0  0  0  0  0  0  0  0  0  0  0
   35.1540   28.4010   49.6550 H   0  0  0  0  0  0  0  0  0  0  0  0
   36.0420   29.2760   51.8390 H   0  0  0  0  0  0  0  0  0  0  0  0
   37.7670   29.4290   51.0520 H   0  0  0  0  0  0  0  0  0  0  0  0
   39.4360   31.1660   46.3980 C   0  0  0  0  0  0  0  0  0  0  0  0
   39.6270   30.0720   46.5510 H   0  0  0  0  0  0  0  0  0  0  0  0
   40.4270   31.6600   46.3320 H   0  0  0  0  0  0  0  0  0  0  0  0
   40.0830   33.7190   44.8700 Cl  0  0  0  0  0  0  0  0  0  0  0  0
   38.9290   32.5220   44.3210 C   0  0  0  0  0  0  0  0  0  0  0  0
   38.7410   31.4150   45.1220 C   0  0  0  0  0  0  0  0  0  0  0  0
   37.8060   30.5100   44.6150 C   0  0  0  0  0  0  0  0  0  0  0  0
   37.6280   29.6180   45.2220 H   0  0  0  0  0  0  0  0  0  0  0  0
   37.0960   30.6360   43.4360 C   0  0  0  0  0  0  0  0  0  0  0  0
   36.4020   29.8500   43.1720 H   0  0  0  0  0  0  0  0  0  0  0  0
   37.3430   31.7780   42.6880 C   0  0  0  0  0  3  0  0  0  0  0  0
   38.2630   32.7270   43.1300 C   0  0  0  0  0  3  0  0  0  0  0  0
  1  2  1  0  0  0  0
  1  9  1  0  0  0  0
  2  7  1  0  0  0  0
  3  8  1  0  0  0  0
  3  2  2  0  0  0  0
  4  3  1  0  0  0  0
  5  4  2  0  0  0  0
  5  6  1  0  0  0  0
  6  1  2  0  0  0  0
  9 12  1  0  0  0  0
  9 11  1  0  0  0  0
 10 14  1  0  0  0  0
 10  9  1  0  0  0  0
 10 11  1  0  0  0  0
 11 16  1  0  0  0  0
 11 15  1  0  0  0  0
 13 10  1  0  0  0  0
 17 18  1  0  0  0  0
 17  5  1  0  0  0  0
 19 17  1  0  0  0  0
 21 20  1  0  0  0  0
 21 22  1  0  0  0  0
 22 17  1  0  0  0  0
 23 22  2  0  0  0  0
 23 24  1  0  0  0  0
 25 23  1  0  0  0  0
 26 25  1  0  0  0  0
 27 28  1  0  0  0  0
 27 25  2  0  0  0  0
 28 21  2  0  0  0  0
M  END
>  <minimizedAffinity>
-5.64029741

>  <minimizedRMSD>
0.70005703

$$$$
