
 OpenBabel03272506323D

 40 42  0  0  1  0  0  0  0  0999 V2000
   38.1340   26.5040   35.3450 C   0  0  1  0  0  0  0  0  0  0  0  0
   39.4140   27.0180   34.9050 C   0  0  0  0  0  0  0  0  0  0  0  0
   39.6650   27.0300   33.4090 C   0  0  0  0  0  0  0  0  0  0  0  0
   38.4960   27.3770   32.5620 C   0  0  0  0  0  0  0  0  0  0  0  0
   37.1680   26.8780   33.0070 C   0  0  0  0  0  0  0  0  0  0  0  0
   36.9920   26.9750   34.4790 C   0  0  2  0  0  0  0  0  0  0  0  0
   37.8800   26.9600   36.3510 H   0  0  0  0  0  0  0  0  0  0  0  0
   40.3170   26.6320   35.3670 H   0  0  0  0  0  0  0  0  0  0  0  0
   39.4270   28.1150   35.1710 H   0  0  0  0  0  0  0  0  0  0  0  0
   40.0330   26.0230   33.1530 H   0  0  0  0  0  0  0  0  0  0  0  0
   40.4890   27.7470   33.2050 H   0  0  0  0  0  0  0  0  0  0  0  0
   38.4920   28.4720   32.3900 H   0  0  0  0  0  0  0  0  0  0  0  0
   38.6820   26.9190   31.5560 H   0  0  0  0  0  0  0  0  0  0  0  0
   36.3760   27.4560   32.5330 H   0  0  0  0  0  0  0  0  0  0  0  0
   37.1080   25.7900   32.7300 H   0  0  0  0  0  0  0  0  0  0  0  0
   36.0240   26.5560   34.7760 H   0  0  0  0  0  0  0  0  0  0  0  0
   37.7610   24.5080   36.9040 C   0  0  0  0  0  0  0  0  0  0  0  0
   38.0600   25.0550   35.6180 C   0  0  0  0  0  0  0  0  0  0  0  0
   38.2910   24.1320   34.6100 C   0  0  0  0  0  0  0  0  0  0  0  0
   38.2210   22.7860   34.8910 N   0  0  0  0  0  0  0  0  0  0  0  0
   37.9330   22.3360   36.1250 C   0  0  0  0  0  0  0  0  0  0  0  0
   37.7020   23.2050   37.1360 N   0  0  0  0  0  0  0  0  0  0  0  0
   37.5770   25.2100   37.7060 H   0  0  0  0  0  0  0  0  0  0  0  0
   38.5230   24.4120   33.6070 H   0  0  0  0  0  0  0  0  0  0  0  0
   37.8970   21.2650   36.2690 H   0  0  0  0  0  0  0  0  0  0  0  0
   36.8880   28.4900   34.7770 C   0  0  0  0  0  0  0  0  0  0  0  0
   37.7450   29.0260   34.3750 H   0  0  0  0  0  0  0  0  0  0  0  0
   36.8180   28.6830   35.8640 H   0  0  0  0  0  0  0  0  0  0  0  0
   35.6110   29.0520   34.1470 C   0  0  0  0  0  0  0  0  0  0  0  0
   34.8450   28.2250   34.0700 H   0  0  0  0  0  0  0  0  0  0  0  0
   35.8210   29.3470   33.1220 H   0  0  0  0  0  0  0  0  0  0  0  0
   32.5750   29.3300   34.3100 Cl  0  0  0  0  0  0  0  0  0  0  0  0
   33.6860   30.4160   35.1240 C   0  0  0  0  0  0  0  0  0  0  0  0
   35.0230   30.1500   34.9410 C   0  0  0  0  0  0  0  0  0  0  0  0
   35.9380   31.0000   35.5740 C   0  0  0  0  0  0  0  0  0  0  0  0
   37.0150   30.8370   35.4650 H   0  0  0  0  0  0  0  0  0  0  0  0
   35.5270   32.0680   36.3550 C   0  0  0  0  0  0  0  0  0  0  0  0
   36.2910   32.6890   36.8200 H   0  0  0  0  0  0  0  0  0  0  0  0
   34.1590   32.3000   36.5120 C   0  0  0  0  0  3  0  0  0  0  0  0
   33.2360   31.4710   35.8950 C   0  0  0  0  0  3  0  0  0  0  0  0
  1 18  1  0  0  0  0
  1  7  1  1  0  0  0
  2  9  1  0  0  0  0
  2  1  1  0  0  0  0
  2  8  1  0  0  0  0
  3  2  1  0  0  0  0
  4  5  1  0  0  0  0
  4  3  1  0  0  0  0
  5  6  1  0  0  0  0
  6 16  1  1  0  0  0
  6 26  1  0  0  0  0
  6  1  1  0  0  0  0
 10  3  1  0  0  0  0
 11  3  1  0  0  0  0
 12  4  1  0  0  0  0
 13  4  1  0  0  0  0
 14  5  1  0  0  0  0
 15  5  1  0  0  0  0
 17 22  1  0  0  0  0
 17 23  1  0  0  0  0
 18 17  2  0  0  0  0
 19 20  2  0  0  0  0
 19 18  1  0  0  0  0
 20 21  1  0  0  0  0
 21 25  1  0  0  0  0
 21 22  2  0  0  0  0
 24 19  1  0  0  0  0
 26 28  1  0  0  0  0
 27 26  1  0  0  0  0
 29 26  1  0  0  0  0
 29 34  1  0  0  0  0
 30 29  1  0  0  0  0
 31 29  1  0  0  0  0
 32 33  1  0  0  0  0
 33 40  1  0  0  0  0
 34 33  2  0  0  0  0
 34 35  1  0  0  0  0
 35 37  2  0  0  0  0
 36 35  1  0  0  0  0
 37 39  1  0  0  0  0
 37 38  1  0  0  0  0
 40 39  2  0  0  0  0
M  END
>  <minimizedAffinity>
-5.84081173

$$$$

 OpenBabel03272506323D

 40 42  0  0  1  0  0  0  0  0999 V2000
   37.4270   26.8820   33.3690 C   0  0  1  0  0  0  0  0  0  0  0  0
   38.5790   26.6700   32.5190 C   0  0  0  0  0  0  0  0  0  0  0  0
   39.9150   27.1540   33.0480 C   0  0  0  0  0  0  0  0  0  0  0  0
   40.1360   26.9690   34.5040 C   0  0  0  0  0  0  0  0  0  0  0  0
   38.9610   27.1610   35.3950 C   0  0  0  0  0  0  0  0  0  0  0  0
   37.7170   26.5880   34.8200 C   0  0  2  0  0  0  0  0  0  0  0  0
   36.6370   26.1090   33.1180 H   0  0  0  0  0  0  0  0  0  0  0  0
   38.5260   26.9850   31.4810 H   0  0  0  0  0  0  0  0  0  0  0  0
   38.7260   25.5520   32.4500 H   0  0  0  0  0  0  0  0  0  0  0  0
   39.9770   28.2240   32.7880 H   0  0  0  0  0  0  0  0  0  0  0  0
   40.7180   26.6290   32.4880 H   0  0  0  0  0  0  0  0  0  0  0  0
   40.6280   25.9900   34.6700 H   0  0  0  0  0  0  0  0  0  0  0  0
   40.8920   27.7380   34.8140 H   0  0  0  0  0  0  0  0  0  0  0  0
   39.1410   26.6810   36.3560 H   0  0  0  0  0  0  0  0  0  0  0  0
   38.8030   28.2680   35.5110 H   0  0  0  0  0  0  0  0  0  0  0  0
   36.8640   26.7880   35.4790 H   0  0  0  0  0  0  0  0  0  0  0  0
   35.9570   28.7880   34.2390 C   0  0  0  0  0  0  0  0  0  0  0  0
   36.7000   28.1550   33.1960 C   0  0  0  0  0  0  0  0  0  0  0  0
   36.7000   28.8100   31.9740 C   0  0  0  0  0  0  0  0  0  0  0  0
   36.0110   29.9940   31.8370 N   0  0  0  0  0  0  0  0  0  0  0  0
   35.3300   30.5380   32.8610 C   0  0  0  0  0  0  0  0  0  0  0  0
   35.3050   29.9280   34.0690 N   0  0  0  0  0  0  0  0  0  0  0  0
   35.9440   28.2940   35.2020 H   0  0  0  0  0  0  0  0  0  0  0  0
   37.2180   28.4410   31.1160 H   0  0  0  0  0  0  0  0  0  0  0  0
   34.8120   31.4690   32.6770 H   0  0  0  0  0  0  0  0  0  0  0  0
   37.9150   25.0550   34.8670 C   0  0  0  0  0  0  0  0  0  0  0  0
   38.7600   24.7520   34.2500 H   0  0  0  0  0  0  0  0  0  0  0  0
   37.0090   24.5200   34.5260 H   0  0  0  0  0  0  0  0  0  0  0  0
   38.1700   24.6120   36.3090 C   0  0  0  0  0  0  0  0  0  0  0  0
   37.2300   24.1400   36.7200 H   0  0  0  0  0  0  0  0  0  0  0  0
   38.3440   25.4920   36.9250 H   0  0  0  0  0  0  0  0  0  0  0  0
   38.8530   23.4100   39.0320 Cl  0  0  0  0  0  0  0  0  0  0  0  0
   39.6960   22.9860   37.5530 C   0  0  0  0  0  0  0  0  0  0  0  0
   39.2640   23.6240   36.4150 C   0  0  0  0  0  0  0  0  0  0  0  0
   39.9180   23.3110   35.2170 C   0  0  0  0  0  0  0  0  0  0  0  0
   39.6160   23.7880   34.2790 H   0  0  0  0  0  0  0  0  0  0  0  0
   40.9580   22.3970   35.1670 C   0  0  0  0  0  0  0  0  0  0  0  0
   41.4220   22.1990   34.2020 H   0  0  0  0  0  0  0  0  0  0  0  0
   41.3630   21.7730   36.3490 C   0  0  0  0  0  3  0  0  0  0  0  0
   40.7300   22.0680   37.5450 C   0  0  0  0  0  3  0  0  0  0  0  0
  1  7  1  6  0  0  0
  1  6  1  0  0  0  0
  2  3  1  0  0  0  0
  2  1  1  0  0  0  0
  3  4  1  0  0  0  0
  4 12  1  0  0  0  0
  4 13  1  0  0  0  0
  4  5  1  0  0  0  0
  5 15  1  0  0  0  0
  5 14  1  0  0  0  0
  6 26  1  0  0  0  0
  6  5  1  0  0  0  0
  6 16  1  1  0  0  0
  8  2  1  0  0  0  0
  9  2  1  0  0  0  0
 10  3  1  0  0  0  0
 11  3  1  0  0  0  0
 17 23  1  0  0  0  0
 18  1  1  0  0  0  0
 18 17  2  0  0  0  0
 19 18  1  0  0  0  0
 20 19  2  0  0  0  0
 20 21  1  0  0  0  0
 21 22  2  0  0  0  0
 22 17  1  0  0  0  0
 24 19  1  0  0  0  0
 25 21  1  0  0  0  0
 26 29  1  0  0  0  0
 27 26  1  0  0  0  0
 28 26  1  0  0  0  0
 29 34  1  0  0  0  0
 29 30  1  0  0  0  0
 29 31  1  0  0  0  0
 33 32  1  0  0  0  0
 34 33  2  0  0  0  0
 35 34  1  0  0  0  0
 36 35  1  0  0  0  0
 37 35  2  0  0  0  0
 37 39  1  0  0  0  0
 38 37  1  0  0  0  0
 39 40  2  0  0  0  0
 40 33  1  0  0  0  0
M  END
>  <minimizedAffinity>
-5.61639214

$$$$

 OpenBabel03272506323D

 40 42  0  0  1  0  0  0  0  0999 V2000
   38.2350   26.3550   35.3470 C   0  0  1  0  0  0  0  0  0  0  0  0
   39.4860   26.8870   34.8510 C   0  0  0  0  0  0  0  0  0  0  0  0
   39.6300   26.9950   33.3450 C   0  0  0  0  0  0  0  0  0  0  0  0
   38.4090   27.4050   32.6080 C   0  0  0  0  0  0  0  0  0  0  0  0
   37.1100   26.8880   33.1140 C   0  0  0  0  0  0  0  0  0  0  0  0
   37.0390   26.8900   34.5970 C   0  0  2  0  0  0  0  0  0  0  0  0
   38.0580   26.7460   36.3960 H   0  0  0  0  0  0  0  0  0  0  0  0
   40.4150   26.4650   35.2210 H   0  0  0  0  0  0  0  0  0  0  0  0
   39.5310   27.9650   35.1850 H   0  0  0  0  0  0  0  0  0  0  0  0
   39.9670   26.0040   32.9990 H   0  0  0  0  0  0  0  0  0  0  0  0
   40.4460   27.7170   33.1280 H   0  0  0  0  0  0  0  0  0  0  0  0
   38.4060   28.5090   32.5070 H   0  0  0  0  0  0  0  0  0  0  0  0
   38.5170   27.0110   31.5630 H   0  0  0  0  0  0  0  0  0  0  0  0
   36.2930   27.5010   32.7360 H   0  0  0  0  0  0  0  0  0  0  0  0
   37.0170   25.8210   32.7720 H   0  0  0  0  0  0  0  0  0  0  0  0
   36.0900   26.4600   34.9360 H   0  0  0  0  0  0  0  0  0  0  0  0
   38.5110   23.9500   34.5160 C   0  0  0  0  0  0  0  0  0  0  0  0
   38.1620   24.8920   35.5320 C   0  0  0  0  0  0  0  0  0  0  0  0
   37.7320   24.3500   36.7340 C   0  0  0  0  0  0  0  0  0  0  0  0
   37.6680   22.9830   36.8800 N   0  0  0  0  0  0  0  0  0  0  0  0
   38.0120   22.1500   35.8820 C   0  0  0  0  0  0  0  0  0  0  0  0
   38.4360   22.6390   34.6940 N   0  0  0  0  0  0  0  0  0  0  0  0
   38.8490   24.3500   33.5700 H   0  0  0  0  0  0  0  0  0  0  0  0
   37.4440   24.9470   37.5700 H   0  0  0  0  0  0  0  0  0  0  0  0
   37.9350   21.0880   36.0710 H   0  0  0  0  0  0  0  0  0  0  0  0
   36.9750   28.3830   34.9990 C   0  0  0  0  0  0  0  0  0  0  0  0
   37.8310   28.9300   34.6070 H   0  0  0  0  0  0  0  0  0  0  0  0
   36.9420   28.5040   36.0980 H   0  0  0  0  0  0  0  0  0  0  0  0
   35.6910   29.0090   34.4500 C   0  0  0  0  0  0  0  0  0  0  0  0
   34.8260   28.7130   35.1130 H   0  0  0  0  0  0  0  0  0  0  0  0
   35.4720   28.5730   33.4780 H   0  0  0  0  0  0  0  0  0  0  0  0
   35.4990   30.4420   31.7600 Cl  0  0  0  0  0  0  0  0  0  0  0  0
   35.6770   31.2840   33.2890 C   0  0  0  0  0  0  0  0  0  0  0  0
   35.7530   30.4840   34.4060 C   0  0  0  0  0  0  0  0  0  0  0  0
   35.8990   31.1240   35.6430 C   0  0  0  0  0  0  0  0  0  0  0  0
   35.9640   30.5380   36.5660 H   0  0  0  0  0  0  0  0  0  0  0  0
   35.9650   32.5030   35.7520 C   0  0  0  0  0  0  0  0  0  0  0  0
   36.0770   32.9360   36.7450 H   0  0  0  0  0  0  0  0  0  0  0  0
   35.8840   33.2740   34.5900 C   0  0  0  0  0  3  0  0  0  0  0  0
   35.7400   32.6620   33.3560 C   0  0  0  0  0  3  0  0  0  0  0  0
  1 18  1  0  0  0  0
  1  7  1  1  0  0  0
  2  9  1  0  0  0  0
  2  8  1  0  0  0  0
  2  1  1  0  0  0  0
  3  2  1  0  0  0  0
  4  5  1  0  0  0  0
  4  3  1  0  0  0  0
  5  6  1  0  0  0  0
  6 16  1  1  0  0  0
  6 26  1  0  0  0  0
  6  1  1  0  0  0  0
 10  3  1  0  0  0  0
 11  3  1  0  0  0  0
 12  4  1  0  0  0  0
 13  4  1  0  0  0  0
 14  5  1  0  0  0  0
 15  5  1  0  0  0  0
 17 22  2  0  0  0  0
 17 18  1  0  0  0  0
 18 19  2  0  0  0  0
 19 20  1  0  0  0  0
 19 24  1  0  0  0  0
 21 25  1  0  0  0  0
 21 20  2  0  0  0  0
 22 21  1  0  0  0  0
 23 17  1  0  0  0  0
 26 28  1  0  0  0  0
 27 26  1  0  0  0  0
 29 26  1  0  0  0  0
 29 30  1  0  0  0  0
 31 29  1  0  0  0  0
 32 33  1  0  0  0  0
 33 40  2  0  0  0  0
 33 34  1  0  0  0  0
 34 29  1  0  0  0  0
 34 35  2  0  0  0  0
 35 37  1  0  0  0  0
 35 36  1  0  0  0  0
 37 38  1  0  0  0  0
 39 37  2  0  0  0  0
 40 39  1  0  0  0  0
M  END
>  <minimizedAffinity>
-5.53748989

$$$$

 OpenBabel03272506323D

 40 42  0  0  1  0  0  0  0  0999 V2000
   38.6550   23.3490   35.7370 C   0  0  1  0  0  0  0  0  0  0  0  0
   38.6810   23.6830   37.1450 C   0  0  0  0  0  0  0  0  0  0  0  0
   39.5550   22.8190   38.0340 C   0  0  0  0  0  0  0  0  0  0  0  0
   40.8450   22.3850   37.4430 C   0  0  0  0  0  0  0  0  0  0  0  0
   40.8470   22.0570   35.9930 C   0  0  0  0  0  0  0  0  0  0  0  0
   40.0220   23.0040   35.1990 C   0  0  2  0  0  0  0  0  0  0  0  0
   38.3880   24.2770   35.1430 H   0  0  0  0  0  0  0  0  0  0  0  0
   37.7380   23.8090   37.6680 H   0  0  0  0  0  0  0  0  0  0  0  0
   39.1680   24.6990   37.2250 H   0  0  0  0  0  0  0  0  0  0  0  0
   38.9450   21.9400   38.3010 H   0  0  0  0  0  0  0  0  0  0  0  0
   39.7540   23.3810   38.9720 H   0  0  0  0  0  0  0  0  0  0  0  0
   41.6260   23.1280   37.7030 H   0  0  0  0  0  0  0  0  0  0  0  0
   41.1420   21.4440   37.9770 H   0  0  0  0  0  0  0  0  0  0  0  0
   41.8650   22.0900   35.6060 H   0  0  0  0  0  0  0  0  0  0  0  0
   40.3950   21.0350   35.8780 H   0  0  0  0  0  0  0  0  0  0  0  0
   40.0080   22.7060   34.1440 H   0  0  0  0  0  0  0  0  0  0  0  0
   36.7040   21.7580   36.1960 C   0  0  0  0  0  0  0  0  0  0  0  0
   37.6290   22.3800   35.3030 C   0  0  0  0  0  0  0  0  0  0  0  0
   37.5190   22.0150   33.9700 C   0  0  0  0  0  0  0  0  0  0  0  0
   36.5580   21.1060   33.5910 N   0  0  0  0  0  0  0  0  0  0  0  0
   35.7150   20.5560   34.4830 C   0  0  0  0  0  0  0  0  0  0  0  0
   35.7910   20.8860   35.7930 N   0  0  0  0  0  0  0  0  0  0  0  0
   36.7710   22.0280   37.2410 H   0  0  0  0  0  0  0  0  0  0  0  0
   38.1510   22.4090   33.2050 H   0  0  0  0  0  0  0  0  0  0  0  0
   34.9870   19.8490   34.1100 H   0  0  0  0  0  0  0  0  0  0  0  0
   40.7940   24.3440   35.2320 C   0  0  0  0  0  0  0  0  0  0  0  0
   41.8690   24.1740   35.2510 H   0  0  0  0  0  0  0  0  0  0  0  0
   40.5090   24.9520   36.1110 H   0  0  0  0  0  0  0  0  0  0  0  0
   40.4430   25.1710   33.9930 C   0  0  0  0  0  0  0  0  0  0  0  0
   40.2290   24.4710   33.1330 H   0  0  0  0  0  0  0  0  0  0  0  0
   41.3180   25.7430   33.6890 H   0  0  0  0  0  0  0  0  0  0  0  0
   38.1350   25.0370   31.9990 Cl  0  0  0  0  0  0  0  0  0  0  0  0
   38.1330   26.0850   33.4060 C   0  0  0  0  0  0  0  0  0  0  0  0
   39.2550   26.0240   34.1980 C   0  0  0  0  0  0  0  0  0  0  0  0
   39.2870   26.8510   35.3280 C   0  0  0  0  0  0  0  0  0  0  0  0
   40.1550   26.8440   35.9960 H   0  0  0  0  0  0  0  0  0  0  0  0
   38.2390   27.6980   35.6470 C   0  0  0  0  0  0  0  0  0  0  0  0
   38.3280   28.3130   36.5410 H   0  0  0  0  0  0  0  0  0  0  0  0
   37.1190   27.7260   34.8120 C   0  0  0  0  0  3  0  0  0  0  0  0
   37.0660   26.9170   33.6890 C   0  0  0  0  0  3  0  0  0  0  0  0
  1  7  1  6  0  0  0
  1  2  1  0  0  0  0
  2  9  1  0  0  0  0
  2  8  1  0  0  0  0
  2  3  1  0  0  0  0
  3 10  1  0  0  0  0
  3 11  1  0  0  0  0
  4 12  1  0  0  0  0
  4 13  1  0  0  0  0
  4  3  1  0  0  0  0
  5  4  1  0  0  0  0
  6 16  1  6  0  0  0
  6 26  1  0  0  0  0
  6  1  1  0  0  0  0
  6  5  1  0  0  0  0
 14  5  1  0  0  0  0
 15  5  1  0  0  0  0
 17 23  1  0  0  0  0
 18  1  1  0  0  0  0
 18 17  2  0  0  0  0
 19 18  1  0  0  0  0
 20 19  2  0  0  0  0
 20 21  1  0  0  0  0
 21 22  2  0  0  0  0
 22 17  1  0  0  0  0
 24 19  1  0  0  0  0
 25 21  1  0  0  0  0
 26 27  1  0  0  0  0
 26 28  1  0  0  0  0
 29 34  1  0  0  0  0
 29 26  1  0  0  0  0
 30 29  1  0  0  0  0
 31 29  1  0  0  0  0
 32 33  1  0  0  0  0
 33 40  2  0  0  0  0
 33 34  1  0  0  0  0
 34 35  2  0  0  0  0
 35 37  1  0  0  0  0
 35 36  1  0  0  0  0
 37 38  1  0  0  0  0
 39 37  2  0  0  0  0
 40 39  1  0  0  0  0
M  END
>  <minimizedAffinity>
-5.41656256

$$$$

 OpenBabel03272506323D

 40 42  0  0  1  0  0  0  0  0999 V2000
   36.9460   26.7650   32.6620 C   0  0  1  0  0  0  0  0  0  0  0  0
   38.3290   27.1910   32.6640 C   0  0  0  0  0  0  0  0  0  0  0  0
   38.8760   27.7350   31.3570 C   0  0  0  0  0  0  0  0  0  0  0  0
   37.9380   28.5670   30.5630 C   0  0  0  0  0  0  0  0  0  0  0  0
   36.5080   28.1610   30.5640 C   0  0  0  0  0  0  0  0  0  0  0  0
   36.0490   27.7140   31.9050 C   0  0  2  0  0  0  0  0  0  0  0  0
   36.5380   26.8350   33.7170 H   0  0  0  0  0  0  0  0  0  0  0  0
   39.0830   26.5150   33.0550 H   0  0  0  0  0  0  0  0  0  0  0  0
   38.3890   28.0840   33.3520 H   0  0  0  0  0  0  0  0  0  0  0  0
   39.1950   26.8580   30.7710 H   0  0  0  0  0  0  0  0  0  0  0  0
   39.7860   28.3290   31.5860 H   0  0  0  0  0  0  0  0  0  0  0  0
   38.0690   29.6290   30.8530 H   0  0  0  0  0  0  0  0  0  0  0  0
   38.2800   28.5060   29.4960 H   0  0  0  0  0  0  0  0  0  0  0  0
   35.8840   28.9980   30.2560 H   0  0  0  0  0  0  0  0  0  0  0  0
   36.4050   27.2890   29.8630 H   0  0  0  0  0  0  0  0  0  0  0  0
   35.0070   27.3770   31.8590 H   0  0  0  0  0  0  0  0  0  0  0  0
   35.6110   24.9390   31.4650 C   0  0  0  0  0  0  0  0  0  0  0  0
   36.6860   25.3560   32.3070 C   0  0  0  0  0  0  0  0  0  0  0  0
   37.4950   24.3420   32.7970 C   0  0  0  0  0  0  0  0  0  0  0  0
   37.2300   23.0350   32.4570 N   0  0  0  0  0  0  0  0  0  0  0  0
   36.1990   22.7090   31.6570 C   0  0  0  0  0  0  0  0  0  0  0  0
   35.3860   23.6700   31.1590 N   0  0  0  0  0  0  0  0  0  0  0  0
   34.9660   25.7140   31.0710 H   0  0  0  0  0  0  0  0  0  0  0  0
   38.3320   24.5220   33.4360 H   0  0  0  0  0  0  0  0  0  0  0  0
   36.0530   21.6610   31.4340 H   0  0  0  0  0  0  0  0  0  0  0  0
   36.0260   28.9930   32.7750 C   0  0  0  0  0  0  0  0  0  0  0  0
   36.3130   29.8660   32.1920 H   0  0  0  0  0  0  0  0  0  0  0  0
   36.7030   28.9000   33.6450 H   0  0  0  0  0  0  0  0  0  0  0  0
   34.6180   29.2090   33.3340 C   0  0  0  0  0  0  0  0  0  0  0  0
   34.1970   28.2140   33.6620 H   0  0  0  0  0  0  0  0  0  0  0  0
   33.9670   29.5490   32.5320 H   0  0  0  0  0  0  0  0  0  0  0  0
   31.9740   29.8180   34.7340 Cl  0  0  0  0  0  0  0  0  0  0  0  0
   33.5110   30.4950   35.2420 C   0  0  0  0  0  0  0  0  0  0  0  0
   34.6040   30.1200   34.4970 C   0  0  0  0  0  0  0  0  0  0  0  0
   35.8460   30.6450   34.8740 C   0  0  0  0  0  0  0  0  0  0  0  0
   36.7520   30.3810   34.3180 H   0  0  0  0  0  0  0  0  0  0  0  0
   35.9820   31.5070   35.9490 C   0  0  0  0  0  0  0  0  0  0  0  0
   36.9780   31.8780   36.1890 H   0  0  0  0  0  0  0  0  0  0  0  0
   34.8430   31.8610   36.6760 C   0  0  0  0  0  3  0  0  0  0  0  0
   33.6040   31.3530   36.3220 C   0  0  0  0  0  3  0  0  0  0  0  0
  1  2  1  0  0  0  0
  1  7  1  1  0  0  0
  2  8  1  0  0  0  0
  2  9  1  0  0  0  0
  3 11  1  0  0  0  0
  3  2  1  0  0  0  0
  4  5  1  0  0  0  0
  4 12  1  0  0  0  0
  4  3  1  0  0  0  0
  5  6  1  0  0  0  0
  6 16  1  6  0  0  0
  6  1  1  0  0  0  0
  6 26  1  0  0  0  0
 10  3  1  0  0  0  0
 13  4  1  0  0  0  0
 14  5  1  0  0  0  0
 15  5  1  0  0  0  0
 17 18  1  0  0  0  0
 18  1  1  0  0  0  0
 18 19  2  0  0  0  0
 19 24  1  0  0  0  0
 20 19  1  0  0  0  0
 21 20  2  0  0  0  0
 22 17  2  0  0  0  0
 22 21  1  0  0  0  0
 23 17  1  0  0  0  0
 25 21  1  0  0  0  0
 26 29  1  0  0  0  0
 26 28  1  0  0  0  0
 27 26  1  0  0  0  0
 29 30  1  0  0  0  0
 29 34  1  0  0  0  0
 31 29  1  0  0  0  0
 32 33  1  0  0  0  0
 33 40  1  0  0  0  0
 34 35  1  0  0  0  0
 34 33  2  0  0  0  0
 35 37  2  0  0  0  0
 36 35  1  0  0  0  0
 37 38  1  0  0  0  0
 37 39  1  0  0  0  0
 40 39  2  0  0  0  0
M  END
>  <minimizedAffinity>
-5.34224272

$$$$

 OpenBabel03272506323D

 40 42  0  0  1  0  0  0  0  0999 V2000
   38.1550   26.5090   32.8370 C   0  0  1  0  0  0  0  0  0  0  0  0
   38.8070   26.4540   31.5460 C   0  0  0  0  0  0  0  0  0  0  0  0
   40.1260   27.1920   31.4170 C   0  0  0  0  0  0  0  0  0  0  0  0
   41.0180   27.1290   32.6010 C   0  0  0  0  0  0  0  0  0  0  0  0
   40.3690   27.1620   33.9380 C   0  0  0  0  0  0  0  0  0  0  0  0
   39.1250   26.3510   33.9830 C   0  0  2  0  0  0  0  0  0  0  0  0
   37.4910   25.5980   32.9530 H   0  0  0  0  0  0  0  0  0  0  0  0
   38.2290   26.6970   30.6600 H   0  0  0  0  0  0  0  0  0  0  0  0
   39.1050   25.3770   31.3830 H   0  0  0  0  0  0  0  0  0  0  0  0
   39.8690   28.2390   31.1910 H   0  0  0  0  0  0  0  0  0  0  0  0
   40.6630   26.7840   30.5340 H   0  0  0  0  0  0  0  0  0  0  0  0
   41.6990   26.2600   32.4910 H   0  0  0  0  0  0  0  0  0  0  0  0
   41.6810   28.0320   32.5530 H   0  0  0  0  0  0  0  0  0  0  0  0
   41.0510   26.7740   34.6930 H   0  0  0  0  0  0  0  0  0  0  0  0
   40.0850   28.2290   34.1480 H   0  0  0  0  0  0  0  0  0  0  0  0
   38.6480   26.4360   34.9660 H   0  0  0  0  0  0  0  0  0  0  0  0
   36.7430   28.4790   32.0150 C   0  0  0  0  0  0  0  0  0  0  0  0
   37.2150   27.6250   33.0580 C   0  0  0  0  0  0  0  0  0  0  0  0
   36.7380   27.9070   34.3290 C   0  0  0  0  0  0  0  0  0  0  0  0
   35.8660   28.9570   34.5120 N   0  0  0  0  0  0  0  0  0  0  0  0
   35.4600   29.7240   33.4850 C   0  0  0  0  0  0  0  0  0  0  0  0
   35.9030   29.4810   32.2290 N   0  0  0  0  0  0  0  0  0  0  0  0
   37.1020   28.2770   31.0150 H   0  0  0  0  0  0  0  0  0  0  0  0
   37.0140   27.3430   35.1930 H   0  0  0  0  0  0  0  0  0  0  0  0
   34.7740   30.5300   33.7060 H   0  0  0  0  0  0  0  0  0  0  0  0
   39.5940   24.8800   33.8840 C   0  0  0  0  0  0  0  0  0  0  0  0
   40.5270   24.7310   34.4250 H   0  0  0  0  0  0  0  0  0  0  0  0
   39.7340   24.5710   32.8310 H   0  0  0  0  0  0  0  0  0  0  0  0
   38.5250   23.9580   34.4740 C   0  0  0  0  0  0  0  0  0  0  0  0
   38.5770   22.9560   33.9540 H   0  0  0  0  0  0  0  0  0  0  0  0
   37.5420   24.3570   34.2350 H   0  0  0  0  0  0  0  0  0  0  0  0
   40.7090   22.0560   35.4390 Cl  0  0  0  0  0  0  0  0  0  0  0  0
   39.6360   22.9200   36.5250 C   0  0  0  0  0  0  0  0  0  0  0  0
   38.7060   23.7330   35.9230 C   0  0  0  0  0  0  0  0  0  0  0  0
   37.8300   24.4360   36.7610 C   0  0  0  0  0  0  0  0  0  0  0  0
   37.0690   25.0980   36.3370 H   0  0  0  0  0  0  0  0  0  0  0  0
   37.8900   24.3250   38.1400 C   0  0  0  0  0  0  0  0  0  0  0  0
   37.1800   24.9000   38.7330 H   0  0  0  0  0  0  0  0  0  0  0  0
   38.8520   23.4860   38.7070 C   0  0  0  0  0  3  0  0  0  0  0  0
   39.7280   22.7820   37.8970 C   0  0  0  0  0  3  0  0  0  0  0  0
  1  7  1  1  0  0  0
  1 18  1  0  0  0  0
  1  6  1  0  0  0  0
  2  1  1  0  0  0  0
  3  2  1  0  0  0  0
  3  4  1  0  0  0  0
  4  5  1  0  0  0  0
  5  6  1  0  0  0  0
  5 15  1  0  0  0  0
  5 14  1  0  0  0  0
  6 16  1  1  0  0  0
  8  2  1  0  0  0  0
  9  2  1  0  0  0  0
 10  3  1  0  0  0  0
 11  3  1  0  0  0  0
 12  4  1  0  0  0  0
 13  4  1  0  0  0  0
 17 22  2  0  0  0  0
 17 18  1  0  0  0  0
 18 19  2  0  0  0  0
 19 20  1  0  0  0  0
 19 24  1  0  0  0  0
 21 25  1  0  0  0  0
 21 20  2  0  0  0  0
 22 21  1  0  0  0  0
 23 17  1  0  0  0  0
 26  6  1  0  0  0  0
 26 27  1  0  0  0  0
 26 29  1  0  0  0  0
 28 26  1  0  0  0  0
 29 34  1  0  0  0  0
 30 29  1  0  0  0  0
 31 29  1  0  0  0  0
 32 33  1  0  0  0  0
 33 40  1  0  0  0  0
 34 33  2  0  0  0  0
 34 35  1  0  0  0  0
 35 37  2  0  0  0  0
 36 35  1  0  0  0  0
 37 39  1  0  0  0  0
 37 38  1  0  0  0  0
 40 39  2  0  0  0  0
M  END
>  <minimizedAffinity>
-5.3301897

$$$$

 OpenBabel03272506323D

 40 42  0  0  1  0  0  0  0  0999 V2000
   38.5610   24.3290   35.1650 C   0  0  1  0  0  0  0  0  0  0  0  0
   37.7800   25.1500   36.0660 C   0  0  0  0  0  0  0  0  0  0  0  0
   38.3550   26.5080   36.4210 C   0  0  0  0  0  0  0  0  0  0  0  0
   39.0450   27.2240   35.3190 C   0  0  0  0  0  0  0  0  0  0  0  0
   39.8350   26.3980   34.3680 C   0  0  0  0  0  0  0  0  0  0  0  0
   39.1540   25.1230   34.0270 C   0  0  2  0  0  0  0  0  0  0  0  0
   37.8680   23.6130   34.6260 H   0  0  0  0  0  0  0  0  0  0  0  0
   37.4260   24.7130   36.9940 H   0  0  0  0  0  0  0  0  0  0  0  0
   36.8300   25.4150   35.5170 H   0  0  0  0  0  0  0  0  0  0  0  0
   39.0530   26.3350   37.2560 H   0  0  0  0  0  0  0  0  0  0  0  0
   37.5270   27.1420   36.8060 H   0  0  0  0  0  0  0  0  0  0  0  0
   38.3100   27.8700   34.7980 H   0  0  0  0  0  0  0  0  0  0  0  0
   39.7720   27.9290   35.8000 H   0  0  0  0  0  0  0  0  0  0  0  0
   40.0000   26.9500   33.4450 H   0  0  0  0  0  0  0  0  0  0  0  0
   40.8050   26.1400   34.8730 H   0  0  0  0  0  0  0  0  0  0  0  0
   39.7840   24.5190   33.3630 H   0  0  0  0  0  0  0  0  0  0  0  0
   40.6010   22.7880   35.0530 C   0  0  0  0  0  0  0  0  0  0  0  0
   39.5490   23.4220   35.7820 C   0  0  0  0  0  0  0  0  0  0  0  0
   39.4930   23.1300   37.1360 C   0  0  0  0  0  0  0  0  0  0  0  0
   40.4230   22.2770   37.6870 N   0  0  0  0  0  0  0  0  0  0  0  0
   41.3910   21.7130   36.9430 C   0  0  0  0  0  0  0  0  0  0  0  0
   41.4780   21.9720   35.6180 N   0  0  0  0  0  0  0  0  0  0  0  0
   40.6640   23.0020   33.9940 H   0  0  0  0  0  0  0  0  0  0  0  0
   38.7550   23.5400   37.7900 H   0  0  0  0  0  0  0  0  0  0  0  0
   42.0840   21.0530   37.4460 H   0  0  0  0  0  0  0  0  0  0  0  0
   37.9330   25.5300   33.1690 C   0  0  0  0  0  0  0  0  0  0  0  0
   37.8550   26.6130   33.0910 H   0  0  0  0  0  0  0  0  0  0  0  0
   36.9920   25.1290   33.5910 H   0  0  0  0  0  0  0  0  0  0  0  0
   38.0710   24.9390   31.7640 C   0  0  0  0  0  0  0  0  0  0  0  0
   39.1670   24.7990   31.5310 H   0  0  0  0  0  0  0  0  0  0  0  0
   37.7120   25.6650   31.0370 H   0  0  0  0  0  0  0  0  0  0  0  0
   35.0980   24.8320   31.0750 Cl  0  0  0  0  0  0  0  0  0  0  0  0
   36.0810   23.4000   31.3230 C   0  0  0  0  0  0  0  0  0  0  0  0
   37.4020   23.6290   31.6310 C   0  0  0  0  0  0  0  0  0  0  0  0
   38.2140   22.5070   31.8390 C   0  0  0  0  0  0  0  0  0  0  0  0
   39.2740   22.6280   32.0860 H   0  0  0  0  0  0  0  0  0  0  0  0
   37.7210   21.2170   31.7410 C   0  0  0  0  0  0  0  0  0  0  0  0
   38.4080   20.3890   31.9130 H   0  0  0  0  0  0  0  0  0  0  0  0
   36.3730   21.0340   31.4260 C   0  0  0  0  0  3  0  0  0  0  0  0
   35.5510   22.1290   31.2160 C   0  0  0  0  0  3  0  0  0  0  0  0
  1  7  1  6  0  0  0
  1 18  1  0  0  0  0
  1  2  1  0  0  0  0
  2  3  1  0  0  0  0
  2  8  1  0  0  0  0
  3 11  1  0  0  0  0
  3 10  1  0  0  0  0
  4 13  1  0  0  0  0
  4  3  1  0  0  0  0
  5 15  1  0  0  0  0
  5  4  1  0  0  0  0
  6 16  1  6  0  0  0
  6  5  1  0  0  0  0
  6  1  1  0  0  0  0
  9  2  1  0  0  0  0
 12  4  1  0  0  0  0
 14  5  1  0  0  0  0
 17 22  2  0  0  0  0
 17 18  1  0  0  0  0
 18 19  2  0  0  0  0
 19 20  1  0  0  0  0
 19 24  1  0  0  0  0
 21 25  1  0  0  0  0
 21 20  2  0  0  0  0
 22 21  1  0  0  0  0
 23 17  1  0  0  0  0
 26 28  1  0  0  0  0
 26  6  1  0  0  0  0
 27 26  1  0  0  0  0
 29 26  1  0  0  0  0
 30 29  1  0  0  0  0
 31 29  1  0  0  0  0
 32 33  1  0  0  0  0
 33 34  1  0  0  0  0
 34 29  1  0  0  0  0
 34 35  2  0  0  0  0
 35 36  1  0  0  0  0
 37 35  1  0  0  0  0
 37 38  1  0  0  0  0
 39 37  2  0  0  0  0
 40 33  2  0  0  0  0
 40 39  1  0  0  0  0
M  END
>  <minimizedAffinity>
-5.26360655

$$$$

 OpenBabel03272506323D

 40 42  0  0  1  0  0  0  0  0999 V2000
   34.3930   29.7640   34.3950 C   0  0  1  0  0  0  0  0  0  0  0  0
   33.2840   29.5170   33.4990 C   0  0  0  0  0  0  0  0  0  0  0  0
   33.2180   30.3700   32.2460 C   0  0  0  0  0  0  0  0  0  0  0  0
   34.5210   30.6740   31.6040 C   0  0  0  0  0  0  0  0  0  0  0  0
   35.6790   30.9090   32.5050 C   0  0  0  0  0  0  0  0  0  0  0  0
   35.6950   29.9770   33.6610 C   0  0  2  0  0  0  0  0  0  0  0  0
   34.6020   28.8230   34.9910 H   0  0  0  0  0  0  0  0  0  0  0  0
   32.2790   29.4910   33.9080 H   0  0  0  0  0  0  0  0  0  0  0  0
   33.4300   28.4760   33.0860 H   0  0  0  0  0  0  0  0  0  0  0  0
   32.7130   31.3050   32.5400 H   0  0  0  0  0  0  0  0  0  0  0  0
   32.5610   29.8550   31.5130 H   0  0  0  0  0  0  0  0  0  0  0  0
   34.7360   29.8940   30.8450 H   0  0  0  0  0  0  0  0  0  0  0  0
   34.3790   31.6220   31.0220 H   0  0  0  0  0  0  0  0  0  0  0  0
   36.6100   30.7800   31.9550 H   0  0  0  0  0  0  0  0  0  0  0  0
   35.5820   31.9520   32.9120 H   0  0  0  0  0  0  0  0  0  0  0  0
   36.5330   30.2080   34.3280 H   0  0  0  0  0  0  0  0  0  0  0  0
   35.2360   31.5500   36.0240 C   0  0  0  0  0  0  0  0  0  0  0  0
   34.1820   30.7750   35.4500 C   0  0  0  0  0  0  0  0  0  0  0  0
   32.9120   31.0190   35.9520 C   0  0  0  0  0  0  0  0  0  0  0  0
   32.7410   31.9620   36.9400 N   0  0  0  0  0  0  0  0  0  0  0  0
   33.7780   32.6600   37.4370 C   0  0  0  0  0  0  0  0  0  0  0  0
   35.0320   32.4500   36.9740 N   0  0  0  0  0  0  0  0  0  0  0  0
   36.2350   31.3760   35.6470 H   0  0  0  0  0  0  0  0  0  0  0  0
   32.0420   30.5060   35.6070 H   0  0  0  0  0  0  0  0  0  0  0  0
   33.5650   33.3840   38.2120 H   0  0  0  0  0  0  0  0  0  0  0  0
   36.0240   28.5890   33.0610 C   0  0  0  0  0  0  0  0  0  0  0  0
   36.7400   28.6770   32.2450 H   0  0  0  0  0  0  0  0  0  0  0  0
   35.1130   28.0840   32.6900 H   0  0  0  0  0  0  0  0  0  0  0  0
   36.6170   27.6870   34.1460 C   0  0  0  0  0  0  0  0  0  0  0  0
   36.0410   26.7150   34.1690 H   0  0  0  0  0  0  0  0  0  0  0  0
   36.4500   28.1450   35.1180 H   0  0  0  0  0  0  0  0  0  0  0  0
   38.4380   27.0670   36.5170 Cl  0  0  0  0  0  0  0  0  0  0  0  0
   38.9910   27.0660   34.8520 C   0  0  0  0  0  0  0  0  0  0  0  0
   38.0400   27.3710   33.9070 C   0  0  0  0  0  0  0  0  0  0  0  0
   38.4480   27.3830   32.5670 C   0  0  0  0  0  0  0  0  0  0  0  0
   37.7340   27.6190   31.7710 H   0  0  0  0  0  0  0  0  0  0  0  0
   39.7530   27.1000   32.1960 C   0  0  0  0  0  0  0  0  0  0  0  0
   40.0030   27.1250   31.1360 H   0  0  0  0  0  0  0  0  0  0  0  0
   40.6840   26.7960   33.1920 C   0  0  0  0  0  3  0  0  0  0  0  0
   40.3020   26.7790   34.5230 C   0  0  0  0  0  3  0  0  0  0  0  0
  1  7  1  1  0  0  0
  1 18  1  0  0  0  0
  2  8  1  0  0  0  0
  2  1  1  0  0  0  0
  3 10  1  0  0  0  0
  3  2  1  0  0  0  0
  4  3  1  0  0  0  0
  4  5  1  0  0  0  0
  5 15  1  0  0  0  0
  5  6  1  0  0  0  0
  6 16  1  1  0  0  0
  6  1  1  0  0  0  0
  9  2  1  0  0  0  0
 11  3  1  0  0  0  0
 12  4  1  0  0  0  0
 13  4  1  0  0  0  0
 14  5  1  0  0  0  0
 17 22  1  0  0  0  0
 18 19  1  0  0  0  0
 18 17  2  0  0  0  0
 19 20  2  0  0  0  0
 20 21  1  0  0  0  0
 21 25  1  0  0  0  0
 22 21  2  0  0  0  0
 23 17  1  0  0  0  0
 24 19  1  0  0  0  0
 26  6  1  0  0  0  0
 26 29  1  0  0  0  0
 27 26  1  0  0  0  0
 28 26  1  0  0  0  0
 29 30  1  0  0  0  0
 29 31  1  0  0  0  0
 33 32  1  0  0  0  0
 34 29  1  0  0  0  0
 34 33  2  0  0  0  0
 35 34  1  0  0  0  0
 36 35  1  0  0  0  0
 37 35  2  0  0  0  0
 37 39  1  0  0  0  0
 38 37  1  0  0  0  0
 39 40  2  0  0  0  0
 40 33  1  0  0  0  0
M  END
>  <minimizedAffinity>
-5.2062335

$$$$

 OpenBabel03272506323D

 40 42  0  0  1  0  0  0  0  0999 V2000
   38.7240   24.4020   35.1280 C   0  0  1  0  0  0  0  0  0  0  0  0
   37.7850   25.0950   35.9830 C   0  0  0  0  0  0  0  0  0  0  0  0
   38.2200   26.4450   36.5200 C   0  0  0  0  0  0  0  0  0  0  0  0
   38.9950   27.2930   35.5790 C   0  0  0  0  0  0  0  0  0  0  0  0
   39.9500   26.6000   34.6750 C   0  0  0  0  0  0  0  0  0  0  0  0
   39.4020   25.3250   34.1450 C   0  0  2  0  0  0  0  0  0  0  0  0
   38.1530   23.6990   34.4470 H   0  0  0  0  0  0  0  0  0  0  0  0
   37.3460   24.5580   36.8190 H   0  0  0  0  0  0  0  0  0  0  0  0
   36.8960   25.3560   35.3380 H   0  0  0  0  0  0  0  0  0  0  0  0
   38.8180   26.2370   37.4220 H   0  0  0  0  0  0  0  0  0  0  0  0
   37.3120   26.9960   36.8440 H   0  0  0  0  0  0  0  0  0  0  0  0
   38.2910   27.9430   35.0200 H   0  0  0  0  0  0  0  0  0  0  0  0
   39.6080   27.9910   36.2070 H   0  0  0  0  0  0  0  0  0  0  0  0
   40.1930   27.2400   33.8290 H   0  0  0  0  0  0  0  0  0  0  0  0
   40.8640   26.3510   35.2800 H   0  0  0  0  0  0  0  0  0  0  0  0
   40.1480   24.8180   33.5230 H   0  0  0  0  0  0  0  0  0  0  0  0
   39.5770   23.0990   37.1590 C   0  0  0  0  0  0  0  0  0  0  0  0
   39.6840   23.4980   35.7920 C   0  0  0  0  0  0  0  0  0  0  0  0
   40.7710   22.9870   35.0990 C   0  0  0  0  0  0  0  0  0  0  0  0
   41.6560   22.1510   35.7410 N   0  0  0  0  0  0  0  0  0  0  0  0
   41.4970   21.8120   37.0320 C   0  0  0  0  0  0  0  0  0  0  0  0
   40.4490   22.2910   37.7440 N   0  0  0  0  0  0  0  0  0  0  0  0
   38.7370   23.4850   37.7200 H   0  0  0  0  0  0  0  0  0  0  0  0
   40.9630   23.2100   34.0720 H   0  0  0  0  0  0  0  0  0  0  0  0
   42.2330   21.1510   37.4690 H   0  0  0  0  0  0  0  0  0  0  0  0
   38.2740   25.7400   33.1710 C   0  0  0  0  0  0  0  0  0  0  0  0
   37.4950   26.2940   33.6910 H   0  0  0  0  0  0  0  0  0  0  0  0
   37.8230   24.8580   32.6780 H   0  0  0  0  0  0  0  0  0  0  0  0
   38.8520   26.6180   32.0590 C   0  0  0  0  0  0  0  0  0  0  0  0
   39.0540   25.9760   31.1520 H   0  0  0  0  0  0  0  0  0  0  0  0
   39.8250   26.9910   32.3710 H   0  0  0  0  0  0  0  0  0  0  0  0
   39.2800   28.0440   29.3930 Cl  0  0  0  0  0  0  0  0  0  0  0  0
   37.9780   28.4410   30.5000 C   0  0  0  0  0  0  0  0  0  0  0  0
   37.9330   27.7030   31.6590 C   0  0  0  0  0  0  0  0  0  0  0  0
   36.9070   27.9980   32.5660 C   0  0  0  0  0  0  0  0  0  0  0  0
   36.8220   27.4420   33.5060 H   0  0  0  0  0  0  0  0  0  0  0  0
   35.9710   28.9870   32.3180 C   0  0  0  0  0  0  0  0  0  0  0  0
   35.1980   29.1640   33.0650 H   0  0  0  0  0  0  0  0  0  0  0  0
   36.0560   29.7110   31.1260 C   0  0  0  0  0  3  0  0  0  0  0  0
   37.0630   29.4370   30.2150 C   0  0  0  0  0  3  0  0  0  0  0  0
  1  7  1  6  0  0  0
  1 18  1  0  0  0  0
  1  2  1  0  0  0  0
  2  3  1  0  0  0  0
  2  8  1  0  0  0  0
  3 11  1  0  0  0  0
  3 10  1  0  0  0  0
  4 13  1  0  0  0  0
  4  3  1  0  0  0  0
  5 15  1  0  0  0  0
  5  4  1  0  0  0  0
  6 16  1  6  0  0  0
  6  5  1  0  0  0  0
  6  1  1  0  0  0  0
  9  2  1  0  0  0  0
 12  4  1  0  0  0  0
 14  5  1  0  0  0  0
 17 23  1  0  0  0  0
 17 22  1  0  0  0  0
 18 17  2  0  0  0  0
 19 20  2  0  0  0  0
 19 18  1  0  0  0  0
 20 21  1  0  0  0  0
 21 25  1  0  0  0  0
 21 22  2  0  0  0  0
 24 19  1  0  0  0  0
 26 27  1  0  0  0  0
 26  6  1  0  0  0  0
 28 26  1  0  0  0  0
 29 31  1  0  0  0  0
 29 26  1  0  0  0  0
 30 29  1  0  0  0  0
 32 33  1  0  0  0  0
 33 34  1  0  0  0  0
 34 29  1  0  0  0  0
 34 35  2  0  0  0  0
 35 36  1  0  0  0  0
 37 35  1  0  0  0  0
 37 38  1  0  0  0  0
 39 37  2  0  0  0  0
 40 33  2  0  0  0  0
 40 39  1  0  0  0  0
M  END
>  <minimizedAffinity>
-5.19694185

$$$$
