
 OpenBabel03272500383D

 36 38  0  0  1  0  0  0  0  0999 V2000
   39.2040   23.1010   37.3930 C   0  0  0  0  0  0  0  0  0  0  0  0
   40.3940   22.4000   37.6020 C   0  0  0  0  0  0  0  0  0  0  0  0
   41.1050   21.9760   36.4840 C   0  0  0  0  0  0  0  0  0  0  0  0
   40.5950   22.2750   35.2520 N   0  0  0  0  0  0  0  0  0  0  0  0
   39.4350   22.9590   35.0960 C   0  0  0  0  0  0  0  0  0  0  0  0
   38.7570   23.3620   36.1690 N   0  0  0  0  0  0  0  0  0  0  0  0
   38.9920   23.2160   33.7630 N   0  0  0  0  0  0  0  0  0  0  0  0
   38.1350   22.2720   33.1120 C   0  0  0  0  0  0  0  0  0  0  0  0
   38.7390   22.1160   31.7000 C   0  0  0  0  0  0  0  0  0  0  0  0
   38.4450   23.4260   31.0230 C   0  0  0  0  0  0  0  0  0  0  0  0
   39.2600   24.5050   31.6620 C   0  0  0  0  0  0  0  0  0  0  0  0
   39.4270   24.4140   33.1260 C   0  0  1  0  0  0  0  0  0  0  0  0
   40.7850   22.1710   38.5920 H   0  0  0  0  0  0  0  0  0  0  0  0
   42.0290   21.4320   36.5360 H   0  0  0  0  0  0  0  0  0  0  0  0
   38.2460   21.2850   33.6010 H   0  0  0  0  0  0  0  0  0  0  0  0
   37.0940   22.5690   32.9920 H   0  0  0  0  0  0  0  0  0  0  0  0
   39.8040   21.8720   31.7300 H   0  0  0  0  0  0  0  0  0  0  0  0
   38.1470   21.2950   31.2200 H   0  0  0  0  0  0  0  0  0  0  0  0
   37.3600   23.5930   31.0100 H   0  0  0  0  0  0  0  0  0  0  0  0
   38.7480   23.3050   29.9610 H   0  0  0  0  0  0  0  0  0  0  0  0
   38.7850   25.4860   31.3840 H   0  0  0  0  0  0  0  0  0  0  0  0
   40.2490   24.5140   31.1310 H   0  0  0  0  0  0  0  0  0  0  0  0
   40.5290   24.4930   33.3670 H   0  0  0  0  0  0  0  0  0  0  0  0
   36.5530   25.0610   32.3840 Cl  0  0  0  0  0  0  0  0  0  0  0  0
   37.5070   25.9710   33.5620 C   0  0  0  0  0  0  0  0  0  0  0  0
   38.8100   25.5810   33.8190 C   0  0  0  0  0  0  0  0  0  0  0  0
   39.5080   26.3270   34.7470 C   0  0  0  0  0  0  0  0  0  0  0  0
   40.5350   26.0850   35.0030 H   0  0  0  0  0  0  0  0  0  0  0  0
   38.9580   27.4100   35.4000 C   0  0  0  0  0  0  0  0  0  0  0  0
   39.5360   27.9850   36.1330 H   0  0  0  0  0  0  0  0  0  0  0  0
   37.6640   27.7960   35.1430 C   0  0  0  0  0  3  0  0  0  0  0  0
   36.9650   27.0370   34.2050 C   0  0  0  0  0  3  0  0  0  0  0  0
   38.4230   23.5650   38.5910 C   0  0  0  0  0  0  0  0  0  0  0  0
   37.4000   22.6550   38.8690 F   0  0  0  0  0  0  0  0  0  0  0  0
   39.2790   23.7670   39.6220 F   0  0  0  0  0  0  0  0  0  0  0  0
   37.7860   24.7610   38.2160 F   0  0  0  0  0  0  0  0  0  0  0  0
  1  2  1  0  0  0  0
  1 33  1  0  0  0  0
  2 13  1  0  0  0  0
  3 14  1  0  0  0  0
  3  2  2  0  0  0  0
  4  3  1  0  0  0  0
  5  4  2  0  0  0  0
  5  6  1  0  0  0  0
  6  1  2  0  0  0  0
  7  5  1  0  0  0  0
  8 15  1  0  0  0  0
  8  7  1  0  0  0  0
  9 17  1  0  0  0  0
  9  8  1  0  0  0  0
 10 11  1  0  0  0  0
 10  9  1  0  0  0  0
 11 12  1  0  0  0  0
 12 23  1  1  0  0  0
 12  7  1  0  0  0  0
 12 26  1  0  0  0  0
 16  8  1  0  0  0  0
 18  9  1  0  0  0  0
 19 10  1  0  0  0  0
 20 10  1  0  0  0  0
 21 11  1  0  0  0  0
 22 11  1  0  0  0  0
 24 25  1  0  0  0  0
 25 26  2  0  0  0  0
 25 32  1  0  0  0  0
 26 27  1  0  0  0  0
 27 28  1  0  0  0  0
 27 29  2  0  0  0  0
 29 30  1  0  0  0  0
 31 29  1  0  0  0  0
 32 31  2  0  0  0  0
 33 34  1  0  0  0  0
 33 35  1  0  0  0  0
 36 33  1  0  0  0  0
M  END
>  <minimizedAffinity>
-6.37752295

$$$$

 OpenBabel03272500383D

 36 38  0  0  1  0  0  0  0  0999 V2000
   39.1700   23.0750   37.4030 C   0  0  0  0  0  0  0  0  0  0  0  0
   40.3430   22.3370   37.5720 C   0  0  0  0  0  0  0  0  0  0  0  0
   41.0010   21.8880   36.4300 C   0  0  0  0  0  0  0  0  0  0  0  0
   40.4580   22.2010   35.2170 N   0  0  0  0  0  0  0  0  0  0  0  0
   39.3150   22.9220   35.1000 C   0  0  0  0  0  0  0  0  0  0  0  0
   38.6880   23.3480   36.1950 N   0  0  0  0  0  0  0  0  0  0  0  0
   38.8340   23.1910   33.7820 N   0  0  0  0  0  0  0  0  0  0  0  0
   37.9250   22.2730   33.1650 C   0  0  0  0  0  0  0  0  0  0  0  0
   38.4730   22.0960   31.7320 C   0  0  0  0  0  0  0  0  0  0  0  0
   38.1980   23.4140   31.0620 C   0  0  0  0  0  0  0  0  0  0  0  0
   39.0690   24.4670   31.6700 C   0  0  0  0  0  0  0  0  0  0  0  0
   39.2840   24.3730   33.1270 C   0  0  1  0  0  0  0  0  0  0  0  0
   40.7620   22.0970   38.5480 H   0  0  0  0  0  0  0  0  0  0  0  0
   41.9080   21.3150   36.4520 H   0  0  0  0  0  0  0  0  0  0  0  0
   38.0210   21.2840   33.6520 H   0  0  0  0  0  0  0  0  0  0  0  0
   36.8900   22.6030   33.0800 H   0  0  0  0  0  0  0  0  0  0  0  0
   39.5310   21.8180   31.7260 H   0  0  0  0  0  0  0  0  0  0  0  0
   37.8390   21.2940   31.2760 H   0  0  0  0  0  0  0  0  0  0  0  0
   37.1190   23.6150   31.0870 H   0  0  0  0  0  0  0  0  0  0  0  0
   38.4600   23.2810   29.9910 H   0  0  0  0  0  0  0  0  0  0  0  0
   38.6160   25.4620   31.4050 H   0  0  0  0  0  0  0  0  0  0  0  0
   40.0390   24.4440   31.1040 H   0  0  0  0  0  0  0  0  0  0  0  0
   40.3960   24.4170   33.3290 H   0  0  0  0  0  0  0  0  0  0  0  0
   41.2240   25.9260   34.8750 Cl  0  0  0  0  0  0  0  0  0  0  0  0
   39.5190   26.3440   34.6630 C   0  0  0  0  0  0  0  0  0  0  0  0
   38.7300   25.5600   33.8380 C   0  0  0  0  0  0  0  0  0  0  0  0
   37.4080   25.9320   33.7100 C   0  0  0  0  0  0  0  0  0  0  0  0
   36.7250   25.3680   33.0810 H   0  0  0  0  0  0  0  0  0  0  0  0
   36.8740   27.0260   34.3580 C   0  0  0  0  0  0  0  0  0  0  0  0
   35.8190   27.2990   34.2370 H   0  0  0  0  0  0  0  0  0  0  0  0
   37.6580   27.8040   35.1760 C   0  0  0  0  0  3  0  0  0  0  0  0
   38.9940   27.4220   35.3020 C   0  0  0  0  0  3  0  0  0  0  0  0
   38.4470   23.5660   38.6260 C   0  0  0  0  0  0  0  0  0  0  0  0
   37.4400   22.6610   38.9740 F   0  0  0  0  0  0  0  0  0  0  0  0
   39.3510   23.7920   39.6100 F   0  0  0  0  0  0  0  0  0  0  0  0
   37.7900   24.7530   38.2550 F   0  0  0  0  0  0  0  0  0  0  0  0
  1  2  1  0  0  0  0
  1 33  1  0  0  0  0
  2 13  1  0  0  0  0
  3 14  1  0  0  0  0
  3  2  2  0  0  0  0
  4  3  1  0  0  0  0
  5  4  2  0  0  0  0
  5  6  1  0  0  0  0
  6  1  2  0  0  0  0
  7  5  1  0  0  0  0
  8 15  1  0  0  0  0
  8  7  1  0  0  0  0
  9  8  1  0  0  0  0
 10 19  1  0  0  0  0
 10 11  1  0  0  0  0
 10  9  1  0  0  0  0
 11 12  1  0  0  0  0
 12 23  1  1  0  0  0
 12  7  1  0  0  0  0
 12 26  1  0  0  0  0
 16  8  1  0  0  0  0
 17  9  1  0  0  0  0
 18  9  1  0  0  0  0
 20 10  1  0  0  0  0
 21 11  1  0  0  0  0
 22 11  1  0  0  0  0
 25 24  1  0  0  0  0
 25 32  1  0  0  0  0
 26 25  2  0  0  0  0
 27 26  1  0  0  0  0
 27 29  2  0  0  0  0
 28 27  1  0  0  0  0
 29 31  1  0  0  0  0
 30 29  1  0  0  0  0
 31 32  2  0  0  0  0
 33 34  1  0  0  0  0
 33 35  1  0  0  0  0
 36 33  1  0  0  0  0
M  END
>  <minimizedAffinity>
-6.31472254

$$$$

 OpenBabel03272500383D

 36 38  0  0  1  0  0  0  0  0999 V2000
   38.5470   24.2770   35.3420 C   0  0  0  0  0  0  0  0  0  0  0  0
   39.7510   23.6490   35.6670 C   0  0  0  0  0  0  0  0  0  0  0  0
   39.9880   22.3820   35.1420 C   0  0  0  0  0  0  0  0  0  0  0  0
   39.0280   21.8330   34.3420 N   0  0  0  0  0  0  0  0  0  0  0  0
   37.8710   22.4790   34.0520 C   0  0  0  0  0  0  0  0  0  0  0  0
   37.6480   23.6910   34.5570 N   0  0  0  0  0  0  0  0  0  0  0  0
   36.9340   21.8120   33.2060 N   0  0  0  0  0  0  0  0  0  0  0  0
   35.9310   20.9730   33.7900 C   0  0  0  0  0  0  0  0  0  0  0  0
   35.9430   19.6980   32.9200 C   0  0  0  0  0  0  0  0  0  0  0  0
   35.3550   20.1370   31.6070 C   0  0  0  0  0  0  0  0  0  0  0  0
   36.3100   21.0640   30.9260 C   0  0  0  0  0  0  0  0  0  0  0  0
   37.0370   22.0080   31.7980 C   0  0  1  0  0  0  0  0  0  0  0  0
   40.5060   24.1030   36.3060 H   0  0  0  0  0  0  0  0  0  0  0  0
   40.8810   21.8170   35.3300 H   0  0  0  0  0  0  0  0  0  0  0  0
   36.2640   20.6580   34.7980 H   0  0  0  0  0  0  0  0  0  0  0  0
   34.9140   21.3630   33.7840 H   0  0  0  0  0  0  0  0  0  0  0  0
   36.9460   19.2710   32.8270 H   0  0  0  0  0  0  0  0  0  0  0  0
   35.2460   18.9890   33.4350 H   0  0  0  0  0  0  0  0  0  0  0  0
   34.3450   20.5310   31.7760 H   0  0  0  0  0  0  0  0  0  0  0  0
   35.2270   19.2160   30.9990 H   0  0  0  0  0  0  0  0  0  0  0  0
   35.7240   21.6260   30.1470 H   0  0  0  0  0  0  0  0  0  0  0  0
   37.0130   20.4200   30.3340 H   0  0  0  0  0  0  0  0  0  0  0  0
   38.1420   21.9290   31.5700 H   0  0  0  0  0  0  0  0  0  0  0  0
   39.3650   23.8600   31.1840 Cl  0  0  0  0  0  0  0  0  0  0  0  0
   37.6680   24.3580   31.1850 C   0  0  0  0  0  0  0  0  0  0  0  0
   36.6920   23.4220   31.4810 C   0  0  0  0  0  0  0  0  0  0  0  0
   35.3850   23.8650   31.4680 C   0  0  0  0  0  0  0  0  0  0  0  0
   34.5620   23.1920   31.6890 H   0  0  0  0  0  0  0  0  0  0  0  0
   35.0420   25.1700   31.1770 C   0  0  0  0  0  0  0  0  0  0  0  0
   33.9950   25.4940   31.1730 H   0  0  0  0  0  0  0  0  0  0  0  0
   36.0130   26.0970   30.8840 C   0  0  0  0  0  3  0  0  0  0  0  0
   37.3310   25.6420   30.8990 C   0  0  0  0  0  3  0  0  0  0  0  0
   38.2740   25.6450   35.9000 C   0  0  0  0  0  0  0  0  0  0  0  0
   39.3700   26.4800   35.6610 F   0  0  0  0  0  0  0  0  0  0  0  0
   37.1070   26.1050   35.3860 F   0  0  0  0  0  0  0  0  0  0  0  0
   38.1950   25.5010   37.2960 F   0  0  0  0  0  0  0  0  0  0  0  0
  1  2  1  0  0  0  0
  1 33  1  0  0  0  0
  2 13  1  0  0  0  0
  3 14  1  0  0  0  0
  3  2  2  0  0  0  0
  4  3  1  0  0  0  0
  5  4  2  0  0  0  0
  5  6  1  0  0  0  0
  6  1  2  0  0  0  0
  7  8  1  0  0  0  0
  7  5  1  0  0  0  0
  8 15  1  0  0  0  0
  9 18  1  0  0  0  0
  9  8  1  0  0  0  0
 10 19  1  0  0  0  0
 10  9  1  0  0  0  0
 11 10  1  0  0  0  0
 11 12  1  0  0  0  0
 12 23  1  6  0  0  0
 12  7  1  0  0  0  0
 16  8  1  0  0  0  0
 17  9  1  0  0  0  0
 20 10  1  0  0  0  0
 21 11  1  0  0  0  0
 22 11  1  0  0  0  0
 24 25  1  0  0  0  0
 25 26  1  0  0  0  0
 26 12  1  0  0  0  0
 27 26  2  0  0  0  0
 27 28  1  0  0  0  0
 29 27  1  0  0  0  0
 30 29  1  0  0  0  0
 31 32  1  0  0  0  0
 31 29  2  0  0  0  0
 32 25  2  0  0  0  0
 33 36  1  0  0  0  0
 34 33  1  0  0  0  0
 35 33  1  0  0  0  0
M  END
>  <minimizedAffinity>
-5.87079096

$$$$

 OpenBabel03272500383D

 36 38  0  0  1  0  0  0  0  0999 V2000
   36.9310   23.4040   32.2290 C   0  0  0  0  0  0  0  0  0  0  0  0
   36.1970   22.2200   32.3320 C   0  0  0  0  0  0  0  0  0  0  0  0
   36.7500   21.1730   33.0620 C   0  0  0  0  0  0  0  0  0  0  0  0
   37.9750   21.3690   33.6340 N   0  0  0  0  0  0  0  0  0  0  0  0
   38.6530   22.5380   33.5080 C   0  0  0  0  0  0  0  0  0  0  0  0
   38.1200   23.5370   32.8080 N   0  0  0  0  0  0  0  0  0  0  0  0
   39.9260   22.6350   34.1460 N   0  0  0  0  0  0  0  0  0  0  0  0
   41.1040   22.2590   33.4240 C   0  0  0  0  0  0  0  0  0  0  0  0
   41.9080   21.3980   34.4230 C   0  0  0  0  0  0  0  0  0  0  0  0
   42.3910   22.3800   35.4550 C   0  0  0  0  0  0  0  0  0  0  0  0
   41.2230   22.8790   36.2450 C   0  0  0  0  0  0  0  0  0  0  0  0
   39.9750   23.1070   35.4890 C   0  0  1  0  0  0  0  0  0  0  0  0
   35.2210   22.0820   31.8700 H   0  0  0  0  0  0  0  0  0  0  0  0
   36.2680   20.2240   33.2020 H   0  0  0  0  0  0  0  0  0  0  0  0
   40.8220   21.5800   32.5960 H   0  0  0  0  0  0  0  0  0  0  0  0
   41.7520   23.0730   33.1000 H   0  0  0  0  0  0  0  0  0  0  0  0
   41.3090   20.5850   34.8430 H   0  0  0  0  0  0  0  0  0  0  0  0
   42.7740   21.0030   33.8340 H   0  0  0  0  0  0  0  0  0  0  0  0
   43.0000   23.1510   34.9670 H   0  0  0  0  0  0  0  0  0  0  0  0
   43.0820   21.8190   36.1200 H   0  0  0  0  0  0  0  0  0  0  0  0
   41.5500   23.8280   36.7530 H   0  0  0  0  0  0  0  0  0  0  0  0
   41.0720   22.1510   37.0860 H   0  0  0  0  0  0  0  0  0  0  0  0
   39.1320   22.5730   36.0190 H   0  0  0  0  0  0  0  0  0  0  0  0
   37.4440   23.7830   37.0270 Cl  0  0  0  0  0  0  0  0  0  0  0  0
   38.4430   24.9710   36.1800 C   0  0  0  0  0  0  0  0  0  0  0  0
   39.5780   24.5430   35.5120 C   0  0  0  0  0  0  0  0  0  0  0  0
   40.3200   25.5120   34.8680 C   0  0  0  0  0  0  0  0  0  0  0  0
   41.2230   25.2570   34.3220 H   0  0  0  0  0  0  0  0  0  0  0  0
   39.9710   26.8470   34.8750 C   0  0  0  0  0  0  0  0  0  0  0  0
   40.5800   27.5960   34.3560 H   0  0  0  0  0  0  0  0  0  0  0  0
   38.8450   27.2700   35.5390 C   0  0  0  0  0  3  0  0  0  0  0  0
   38.0990   26.2850   36.1880 C   0  0  0  0  0  3  0  0  0  0  0  0
   36.3490   24.5460   31.4430 C   0  0  0  0  0  0  0  0  0  0  0  0
   35.1530   24.1440   30.8420 F   0  0  0  0  0  0  0  0  0  0  0  0
   36.2220   25.6210   32.2590 F   0  0  0  0  0  0  0  0  0  0  0  0
   37.2440   24.8070   30.3920 F   0  0  0  0  0  0  0  0  0  0  0  0
  1  2  2  0  0  0  0
  1  6  1  0  0  0  0
  2  3  1  0  0  0  0
  3 14  1  0  0  0  0
  3  4  2  0  0  0  0
  5  4  1  0  0  0  0
  5  7  1  0  0  0  0
  6  5  2  0  0  0  0
  7 12  1  0  0  0  0
  8  7  1  0  0  0  0
  8  9  1  0  0  0  0
  9 17  1  0  0  0  0
  9 10  1  0  0  0  0
 10 20  1  0  0  0  0
 10 11  1  0  0  0  0
 11 21  1  0  0  0  0
 11 22  1  0  0  0  0
 12 26  1  0  0  0  0
 12 23  1  1  0  0  0
 12 11  1  0  0  0  0
 13  2  1  0  0  0  0
 15  8  1  0  0  0  0
 16  8  1  0  0  0  0
 18  9  1  0  0  0  0
 19 10  1  0  0  0  0
 25 32  1  0  0  0  0
 25 24  1  0  0  0  0
 26 25  2  0  0  0  0
 27 29  2  0  0  0  0
 27 26  1  0  0  0  0
 28 27  1  0  0  0  0
 29 31  1  0  0  0  0
 30 29  1  0  0  0  0
 31 32  2  0  0  0  0
 33  1  1  0  0  0  0
 33 35  1  0  0  0  0
 34 33  1  0  0  0  0
 36 33  1  0  0  0  0
M  END
>  <minimizedAffinity>
-5.73086739

$$$$

 OpenBabel03272500383D

 36 38  0  0  1  0  0  0  0  0999 V2000
   38.7620   26.2700   34.0370 C   0  0  0  0  0  0  0  0  0  0  0  0
   38.8310   26.1490   32.6480 C   0  0  0  0  0  0  0  0  0  0  0  0
   39.7370   25.2350   32.1180 C   0  0  0  0  0  0  0  0  0  0  0  0
   40.5000   24.5130   32.9910 N   0  0  0  0  0  0  0  0  0  0  0  0
   40.4000   24.6640   34.3350 C   0  0  0  0  0  0  0  0  0  0  0  0
   39.5320   25.5400   34.8380 N   0  0  0  0  0  0  0  0  0  0  0  0
   41.2460   23.8590   35.1560 N   0  0  0  0  0  0  0  0  0  0  0  0
   42.5370   24.3530   35.5310 C   0  0  0  0  0  0  0  0  0  0  0  0
   43.4870   23.1580   35.3000 C   0  0  0  0  0  0  0  0  0  0  0  0
   43.1240   22.1790   36.3830 C   0  0  0  0  0  0  0  0  0  0  0  0
   41.7590   21.6310   36.1130 C   0  0  0  0  0  0  0  0  0  0  0  0
   40.7690   22.5830   35.5720 C   0  0  1  0  0  0  0  0  0  0  0  0
   38.2140   26.7330   31.9670 H   0  0  0  0  0  0  0  0  0  0  0  0
   39.8660   25.0660   31.0660 H   0  0  0  0  0  0  0  0  0  0  0  0
   42.8500   25.1350   34.8120 H   0  0  0  0  0  0  0  0  0  0  0  0
   42.6510   24.6650   36.5690 H   0  0  0  0  0  0  0  0  0  0  0  0
   43.3940   22.7460   34.2920 H   0  0  0  0  0  0  0  0  0  0  0  0
   44.5140   23.5660   35.4800 H   0  0  0  0  0  0  0  0  0  0  0  0
   43.2630   22.6540   37.3630 H   0  0  0  0  0  0  0  0  0  0  0  0
   43.8750   21.3620   36.3300 H   0  0  0  0  0  0  0  0  0  0  0  0
   41.3870   21.1870   37.0770 H   0  0  0  0  0  0  0  0  0  0  0  0
   41.8990   20.7470   35.4350 H   0  0  0  0  0  0  0  0  0  0  0  0
   40.3010   22.1280   34.6490 H   0  0  0  0  0  0  0  0  0  0  0  0
   37.9940   22.0770   34.4450 Cl  0  0  0  0  0  0  0  0  0  0  0  0
   38.3180   22.5760   36.1100 C   0  0  0  0  0  0  0  0  0  0  0  0
   39.6280   22.7770   36.5110 C   0  0  0  0  0  0  0  0  0  0  0  0
   39.8230   23.1650   37.8210 C   0  0  0  0  0  0  0  0  0  0  0  0
   40.8200   23.3430   38.2110 H   0  0  0  0  0  0  0  0  0  0  0  0
   38.7820   23.3500   38.7070 C   0  0  0  0  0  0  0  0  0  0  0  0
   38.9650   23.6590   39.7420 H   0  0  0  0  0  0  0  0  0  0  0  0
   37.4820   23.1510   38.3070 C   0  0  0  0  0  3  0  0  0  0  0  0
   37.2930   22.7580   36.9820 C   0  0  0  0  0  3  0  0  0  0  0  0
   37.7900   27.2540   34.6260 C   0  0  0  0  0  0  0  0  0  0  0  0
   38.3910   27.9330   35.6900 F   0  0  0  0  0  0  0  0  0  0  0  0
   37.3330   28.0640   33.6400 F   0  0  0  0  0  0  0  0  0  0  0  0
   36.7460   26.4990   35.1890 F   0  0  0  0  0  0  0  0  0  0  0  0
  1 33  1  0  0  0  0
  1  6  1  0  0  0  0
  2  1  2  0  0  0  0
  3  2  1  0  0  0  0
  3  4  2  0  0  0  0
  4  5  1  0  0  0  0
  5  6  2  0  0  0  0
  5  7  1  0  0  0  0
  7  8  1  0  0  0  0
  7 12  1  0  0  0  0
  8 16  1  0  0  0  0
  9 18  1  0  0  0  0
  9  8  1  0  0  0  0
  9 10  1  0  0  0  0
 10 19  1  0  0  0  0
 11 10  1  0  0  0  0
 11 21  1  0  0  0  0
 12 23  1  6  0  0  0
 12 11  1  0  0  0  0
 12 26  1  0  0  0  0
 13  2  1  0  0  0  0
 14  3  1  0  0  0  0
 15  8  1  0  0  0  0
 17  9  1  0  0  0  0
 20 10  1  0  0  0  0
 22 11  1  0  0  0  0
 24 25  1  0  0  0  0
 25 26  2  0  0  0  0
 25 32  1  0  0  0  0
 26 27  1  0  0  0  0
 27 28  1  0  0  0  0
 27 29  2  0  0  0  0
 29 30  1  0  0  0  0
 31 29  1  0  0  0  0
 32 31  2  0  0  0  0
 33 36  1  0  0  0  0
 33 34  1  0  0  0  0
 35 33  1  0  0  0  0
M  END
>  <minimizedAffinity>
-5.6338172

$$$$

 OpenBabel03272500383D

 36 38  0  0  1  0  0  0  0  0999 V2000
   37.1000   21.4990   33.1370 C   0  0  0  0  0  0  0  0  0  0  0  0
   37.7600   20.8230   32.1080 C   0  0  0  0  0  0  0  0  0  0  0  0
   38.8450   21.4530   31.5060 C   0  0  0  0  0  0  0  0  0  0  0  0
   39.1970   22.6920   31.9610 N   0  0  0  0  0  0  0  0  0  0  0  0
   38.5270   23.3110   32.9640 C   0  0  0  0  0  0  0  0  0  0  0  0
   37.4880   22.7060   33.5370 N   0  0  0  0  0  0  0  0  0  0  0  0
   38.9800   24.6060   33.3610 N   0  0  0  0  0  0  0  0  0  0  0  0
   38.4320   25.7670   32.7260 C   0  0  0  0  0  0  0  0  0  0  0  0
   39.6600   26.6500   32.4170 C   0  0  0  0  0  0  0  0  0  0  0  0
   40.1200   27.1340   33.7640 C   0  0  0  0  0  0  0  0  0  0  0  0
   40.6730   25.9810   34.5390 C   0  0  0  0  0  0  0  0  0  0  0  0
   39.9690   24.6930   34.3820 C   0  0  1  0  0  0  0  0  0  0  0  0
   37.4650   19.8350   31.7590 H   0  0  0  0  0  0  0  0  0  0  0  0
   39.4180   21.0190   30.7090 H   0  0  0  0  0  0  0  0  0  0  0  0
   38.0090   25.4790   31.7450 H   0  0  0  0  0  0  0  0  0  0  0  0
   37.7430   26.3640   33.3240 H   0  0  0  0  0  0  0  0  0  0  0  0
   40.4310   26.1070   31.8640 H   0  0  0  0  0  0  0  0  0  0  0  0
   39.2580   27.5070   31.8180 H   0  0  0  0  0  0  0  0  0  0  0  0
   39.3060   27.6880   34.2490 H   0  0  0  0  0  0  0  0  0  0  0  0
   40.9230   27.8780   33.5720 H   0  0  0  0  0  0  0  0  0  0  0  0
   40.6880   26.2880   35.6220 H   0  0  0  0  0  0  0  0  0  0  0  0
   41.7570   25.8990   34.2590 H   0  0  0  0  0  0  0  0  0  0  0  0
   40.7300   23.8970   34.1230 H   0  0  0  0  0  0  0  0  0  0  0  0
   41.1660   22.1810   35.6010 Cl  0  0  0  0  0  0  0  0  0  0  0  0
   39.8380   23.1020   36.3190 C   0  0  0  0  0  0  0  0  0  0  0  0
   39.3760   24.2340   35.6700 C   0  0  0  0  0  0  0  0  0  0  0  0
   38.3380   24.9140   36.2750 C   0  0  0  0  0  0  0  0  0  0  0  0
   37.9200   25.8110   35.8280 H   0  0  0  0  0  0  0  0  0  0  0  0
   37.7740   24.5080   37.4660 C   0  0  0  0  0  0  0  0  0  0  0  0
   36.9510   25.0680   37.9240 H   0  0  0  0  0  0  0  0  0  0  0  0
   38.2340   23.3840   38.1090 C   0  0  0  0  0  3  0  0  0  0  0  0
   39.2830   22.7020   37.4920 C   0  0  0  0  0  3  0  0  0  0  0  0
   35.9250   20.8340   33.7970 C   0  0  0  0  0  0  0  0  0  0  0  0
   35.9200   19.4700   33.4900 F   0  0  0  0  0  0  0  0  0  0  0  0
   35.9590   21.1010   35.1260 F   0  0  0  0  0  0  0  0  0  0  0  0
   34.7710   21.3710   33.1990 F   0  0  0  0  0  0  0  0  0  0  0  0
  1  6  1  0  0  0  0
  1 33  1  0  0  0  0
  2  1  2  0  0  0  0
  3  4  2  0  0  0  0
  3  2  1  0  0  0  0
  4  5  1  0  0  0  0
  5  7  1  0  0  0  0
  5  6  2  0  0  0  0
  7 12  1  0  0  0  0
  8 16  1  0  0  0  0
  8  7  1  0  0  0  0
  9  8  1  0  0  0  0
  9 10  1  0  0  0  0
 10 19  1  0  0  0  0
 10 11  1  0  0  0  0
 11 21  1  0  0  0  0
 12 23  1  6  0  0  0
 12 11  1  0  0  0  0
 12 26  1  0  0  0  0
 13  2  1  0  0  0  0
 14  3  1  0  0  0  0
 15  8  1  0  0  0  0
 17  9  1  0  0  0  0
 18  9  1  0  0  0  0
 20 10  1  0  0  0  0
 22 11  1  0  0  0  0
 24 25  1  0  0  0  0
 25 32  1  0  0  0  0
 26 27  1  0  0  0  0
 26 25  2  0  0  0  0
 27 29  2  0  0  0  0
 28 27  1  0  0  0  0
 29 30  1  0  0  0  0
 29 31  1  0  0  0  0
 32 31  2  0  0  0  0
 33 35  1  0  0  0  0
 34 33  1  0  0  0  0
 36 33  1  0  0  0  0
M  END
>  <minimizedAffinity>
-5.63305092

$$$$

 OpenBabel03272500383D

 36 38  0  0  1  0  0  0  0  0999 V2000
   36.1390   21.1850   33.3130 C   0  0  0  0  0  0  0  0  0  0  0  0
   35.5470   20.7390   34.4970 C   0  0  0  0  0  0  0  0  0  0  0  0
   36.1960   21.0190   35.6960 C   0  0  0  0  0  0  0  0  0  0  0  0
   37.3710   21.7130   35.6390 N   0  0  0  0  0  0  0  0  0  0  0  0
   37.9100   22.1270   34.4660 C   0  0  0  0  0  0  0  0  0  0  0  0
   37.2860   21.8570   33.3210 N   0  0  0  0  0  0  0  0  0  0  0  0
   39.1430   22.8450   34.5220 N   0  0  0  0  0  0  0  0  0  0  0  0
   40.3790   22.1250   34.4530 C   0  0  0  0  0  0  0  0  0  0  0  0
   41.2470   22.7450   35.5700 C   0  0  0  0  0  0  0  0  0  0  0  0
   41.5790   24.1210   35.0640 C   0  0  0  0  0  0  0  0  0  0  0  0
   40.3370   24.9530   35.0480 C   0  0  0  0  0  0  0  0  0  0  0  0
   39.0950   24.2630   34.6460 C   0  0  1  0  0  0  0  0  0  0  0  0
   34.6090   20.1880   34.5230 H   0  0  0  0  0  0  0  0  0  0  0  0
   35.8240   20.7220   36.6580 H   0  0  0  0  0  0  0  0  0  0  0  0
   40.2040   21.0730   34.7520 H   0  0  0  0  0  0  0  0  0  0  0  0
   40.9370   22.2120   33.5210 H   0  0  0  0  0  0  0  0  0  0  0  0
   40.7340   22.7490   36.5360 H   0  0  0  0  0  0  0  0  0  0  0  0
   42.1710   22.1140   35.6030 H   0  0  0  0  0  0  0  0  0  0  0  0
   42.1090   24.0380   34.1060 H   0  0  0  0  0  0  0  0  0  0  0  0
   42.3100   24.5500   35.7810 H   0  0  0  0  0  0  0  0  0  0  0  0
   40.5340   25.8280   34.3680 H   0  0  0  0  0  0  0  0  0  0  0  0
   40.2460   25.4100   36.0690 H   0  0  0  0  0  0  0  0  0  0  0  0
   38.3040   24.4630   35.4280 H   0  0  0  0  0  0  0  0  0  0  0  0
   36.9810   26.4190   34.9810 Cl  0  0  0  0  0  0  0  0  0  0  0  0
   37.5620   25.8270   33.4200 C   0  0  0  0  0  0  0  0  0  0  0  0
   38.5320   24.8390   33.3920 C   0  0  0  0  0  0  0  0  0  0  0  0
   38.9480   24.4150   32.1470 C   0  0  0  0  0  0  0  0  0  0  0  0
   39.7040   23.6440   32.0410 H   0  0  0  0  0  0  0  0  0  0  0  0
   38.4400   24.9330   30.9730 C   0  0  0  0  0  0  0  0  0  0  0  0
   38.7900   24.5780   29.9970 H   0  0  0  0  0  0  0  0  0  0  0  0
   37.4780   25.9140   31.0030 C   0  0  0  0  0  3  0  0  0  0  0  0
   37.0620   26.3380   32.2650 C   0  0  0  0  0  3  0  0  0  0  0  0
   35.4530   20.8910   32.0090 C   0  0  0  0  0  0  0  0  0  0  0  0
   36.2190   19.9900   31.2640 F   0  0  0  0  0  0  0  0  0  0  0  0
   34.1910   20.4640   32.2640 F   0  0  0  0  0  0  0  0  0  0  0  0
   35.4460   22.0920   31.2790 F   0  0  0  0  0  0  0  0  0  0  0  0
  1  6  2  0  0  0  0
  1  2  1  0  0  0  0
  2 13  1  0  0  0  0
  2  3  2  0  0  0  0
  3 14  1  0  0  0  0
  4  3  1  0  0  0  0
  5  7  1  0  0  0  0
  5  4  2  0  0  0  0
  6  5  1  0  0  0  0
  7 12  1  0  0  0  0
  8  7  1  0  0  0  0
  8 15  1  0  0  0  0
  8  9  1  0  0  0  0
  9 18  1  0  0  0  0
  9 17  1  0  0  0  0
 10  9  1  0  0  0  0
 10 20  1  0  0  0  0
 11 10  1  0  0  0  0
 11 22  1  0  0  0  0
 12 11  1  0  0  0  0
 12 23  1  1  0  0  0
 16  8  1  0  0  0  0
 19 10  1  0  0  0  0
 21 11  1  0  0  0  0
 25 24  1  0  0  0  0
 26 25  1  0  0  0  0
 26 12  1  0  0  0  0
 27 26  2  0  0  0  0
 28 27  1  0  0  0  0
 29 31  2  0  0  0  0
 29 27  1  0  0  0  0
 30 29  1  0  0  0  0
 31 32  1  0  0  0  0
 32 25  2  0  0  0  0
 33 35  1  0  0  0  0
 33  1  1  0  0  0  0
 34 33  1  0  0  0  0
 36 33  1  0  0  0  0
M  END
>  <minimizedAffinity>
-5.41690016

$$$$

 OpenBabel03272500383D

 36 38  0  0  1  0  0  0  0  0999 V2000
   37.0680   22.2060   32.4660 C   0  0  0  0  0  0  0  0  0  0  0  0
   37.0820   22.5630   31.1160 C   0  0  0  0  0  0  0  0  0  0  0  0
   37.4320   23.8700   30.7910 C   0  0  0  0  0  0  0  0  0  0  0  0
   37.7420   24.7210   31.8140 N   0  0  0  0  0  0  0  0  0  0  0  0
   37.7140   24.3310   33.1130 C   0  0  0  0  0  0  0  0  0  0  0  0
   37.3780   23.0790   33.4190 N   0  0  0  0  0  0  0  0  0  0  0  0
   38.0550   25.3020   34.1020 N   0  0  0  0  0  0  0  0  0  0  0  0
   37.0240   26.1170   34.6710 C   0  0  0  0  0  0  0  0  0  0  0  0
   37.6130   27.5440   34.6610 C   0  0  0  0  0  0  0  0  0  0  0  0
   38.6920   27.5090   35.7070 C   0  0  0  0  0  0  0  0  0  0  0  0
   39.8110   26.6380   35.2320 C   0  0  0  0  0  0  0  0  0  0  0  0
   39.4210   25.4250   34.4870 C   0  0  1  0  0  0  0  0  0  0  0  0
   36.8330   21.8700   30.3130 H   0  0  0  0  0  0  0  0  0  0  0  0
   37.4740   24.2430   29.7860 H   0  0  0  0  0  0  0  0  0  0  0  0
   36.1570   26.1390   33.9820 H   0  0  0  0  0  0  0  0  0  0  0  0
   36.7400   25.8880   35.6980 H   0  0  0  0  0  0  0  0  0  0  0  0
   37.9760   27.8340   33.6710 H   0  0  0  0  0  0  0  0  0  0  0  0
   36.7740   28.2060   34.9950 H   0  0  0  0  0  0  0  0  0  0  0  0
   38.2520   27.2340   36.6740 H   0  0  0  0  0  0  0  0  0  0  0  0
   39.0510   28.5550   35.8200 H   0  0  0  0  0  0  0  0  0  0  0  0
   40.4200   26.3620   36.1370 H   0  0  0  0  0  0  0  0  0  0  0  0
   40.4920   27.2950   34.6280 H   0  0  0  0  0  0  0  0  0  0  0  0
   40.0030   25.3960   33.5180 H   0  0  0  0  0  0  0  0  0  0  0  0
   41.5390   23.7200   33.1320 Cl  0  0  0  0  0  0  0  0  0  0  0  0
   40.7900   23.3310   34.6860 C   0  0  0  0  0  0  0  0  0  0  0  0
   39.8330   24.1860   35.2060 C   0  0  0  0  0  0  0  0  0  0  0  0
   39.2820   23.8340   36.4200 C   0  0  0  0  0  0  0  0  0  0  0  0
   38.5250   24.4520   36.8930 H   0  0  0  0  0  0  0  0  0  0  0  0
   39.6480   22.6920   37.1030 C   0  0  0  0  0  0  0  0  0  0  0  0
   39.1940   22.4370   38.0670 H   0  0  0  0  0  0  0  0  0  0  0  0
   40.5980   21.8450   36.5860 C   0  0  0  0  0  3  0  0  0  0  0  0
   41.1520   22.2070   35.3580 C   0  0  0  0  0  3  0  0  0  0  0  0
   36.6910   20.7980   32.8350 C   0  0  0  0  0  0  0  0  0  0  0  0
   35.5590   20.4080   32.1130 F   0  0  0  0  0  0  0  0  0  0  0  0
   37.7670   19.9940   32.6520 F   0  0  0  0  0  0  0  0  0  0  0  0
   36.2990   20.8280   34.1840 F   0  0  0  0  0  0  0  0  0  0  0  0
  1 33  1  0  0  0  0
  1  6  1  0  0  0  0
  2  1  2  0  0  0  0
  3  2  1  0  0  0  0
  3  4  2  0  0  0  0
  4  5  1  0  0  0  0
  5  6  2  0  0  0  0
  5  7  1  0  0  0  0
  7 12  1  0  0  0  0
  7  8  1  0  0  0  0
  8 16  1  0  0  0  0
  9  8  1  0  0  0  0
  9 18  1  0  0  0  0
  9 10  1  0  0  0  0
 10 20  1  0  0  0  0
 10 19  1  0  0  0  0
 11 10  1  0  0  0  0
 11 21  1  0  0  0  0
 12 23  1  6  0  0  0
 12 26  1  0  0  0  0
 12 11  1  0  0  0  0
 13  2  1  0  0  0  0
 14  3  1  0  0  0  0
 15  8  1  0  0  0  0
 17  9  1  0  0  0  0
 22 11  1  0  0  0  0
 24 25  1  0  0  0  0
 25 26  2  0  0  0  0
 25 32  1  0  0  0  0
 26 27  1  0  0  0  0
 27 28  1  0  0  0  0
 27 29  2  0  0  0  0
 29 30  1  0  0  0  0
 31 29  1  0  0  0  0
 32 31  2  0  0  0  0
 33 36  1  0  0  0  0
 34 33  1  0  0  0  0
 35 33  1  0  0  0  0
M  END
>  <minimizedAffinity>
-5.34579515

$$$$

 OpenBabel03272500383D

 36 38  0  0  1  0  0  0  0  0999 V2000
   38.4190   24.8960   35.5890 C   0  0  0  0  0  0  0  0  0  0  0  0
   38.3910   26.0870   36.3170 C   0  0  0  0  0  0  0  0  0  0  0  0
   38.7770   27.2560   35.6680 C   0  0  0  0  0  0  0  0  0  0  0  0
   39.1570   27.1640   34.3590 N   0  0  0  0  0  0  0  0  0  0  0  0
   39.1690   25.9840   33.6910 C   0  0  0  0  0  0  0  0  0  0  0  0
   38.7990   24.8680   34.3160 N   0  0  0  0  0  0  0  0  0  0  0  0
   39.5840   26.0020   32.3250 N   0  0  0  0  0  0  0  0  0  0  0  0
   40.9680   25.8140   32.0090 C   0  0  0  0  0  0  0  0  0  0  0  0
   41.2750   26.9070   30.9620 C   0  0  0  0  0  0  0  0  0  0  0  0
   40.5390   26.4590   29.7300 C   0  0  0  0  0  0  0  0  0  0  0  0
   39.0670   26.5700   29.9680 C   0  0  0  0  0  0  0  0  0  0  0  0
   38.5960   26.2100   31.3200 C   0  0  1  0  0  0  0  0  0  0  0  0
   38.0850   26.1420   37.3600 H   0  0  0  0  0  0  0  0  0  0  0  0
   38.7900   28.2220   36.1370 H   0  0  0  0  0  0  0  0  0  0  0  0
   41.5800   26.0620   32.8970 H   0  0  0  0  0  0  0  0  0  0  0  0
   41.2360   24.8540   31.5670 H   0  0  0  0  0  0  0  0  0  0  0  0
   40.9820   27.9020   31.3060 H   0  0  0  0  0  0  0  0  0  0  0  0
   42.3800   26.8440   30.7930 H   0  0  0  0  0  0  0  0  0  0  0  0
   40.9000   25.4660   29.4310 H   0  0  0  0  0  0  0  0  0  0  0  0
   40.8420   27.1520   28.9160 H   0  0  0  0  0  0  0  0  0  0  0  0
   38.5580   25.9300   29.1950 H   0  0  0  0  0  0  0  0  0  0  0  0
   38.7770   27.6200   29.6940 H   0  0  0  0  0  0  0  0  0  0  0  0
   37.9510   27.0510   31.7120 H   0  0  0  0  0  0  0  0  0  0  0  0
   35.6400   26.7700   31.7380 Cl  0  0  0  0  0  0  0  0  0  0  0  0
   36.3210   25.1610   31.4640 C   0  0  0  0  0  0  0  0  0  0  0  0
   37.6870   25.0290   31.2850 C   0  0  0  0  0  0  0  0  0  0  0  0
   38.1630   23.7510   31.0750 C   0  0  0  0  0  0  0  0  0  0  0  0
   39.2230   23.5650   30.9270 H   0  0  0  0  0  0  0  0  0  0  0  0
   37.3410   22.6440   31.0390 C   0  0  0  0  0  0  0  0  0  0  0  0
   37.7470   21.6410   30.8690 H   0  0  0  0  0  0  0  0  0  0  0  0
   35.9850   22.7780   31.2160 C   0  0  0  0  0  3  0  0  0  0  0  0
   35.5100   24.0720   31.4280 C   0  0  0  0  0  3  0  0  0  0  0  0
   38.0070   23.6230   36.2750 C   0  0  0  0  0  0  0  0  0  0  0  0
   39.1290   22.9990   36.8270 F   0  0  0  0  0  0  0  0  0  0  0  0
   37.0330   23.9060   37.1760 F   0  0  0  0  0  0  0  0  0  0  0  0
   37.5370   22.7600   35.2710 F   0  0  0  0  0  0  0  0  0  0  0  0
  1 33  1  0  0  0  0
  1  2  1  0  0  0  0
  2 13  1  0  0  0  0
  3 14  1  0  0  0  0
  3  2  2  0  0  0  0
  4  3  1  0  0  0  0
  5  6  1  0  0  0  0
  5  4  2  0  0  0  0
  6  1  2  0  0  0  0
  7  5  1  0  0  0  0
  8  7  1  0  0  0  0
  8 15  1  0  0  0  0
  9 17  1  0  0  0  0
  9  8  1  0  0  0  0
 10 11  1  0  0  0  0
 10  9  1  0  0  0  0
 11 12  1  0  0  0  0
 12 23  1  1  0  0  0
 12  7  1  0  0  0  0
 16  8  1  0  0  0  0
 18  9  1  0  0  0  0
 19 10  1  0  0  0  0
 20 10  1  0  0  0  0
 21 11  1  0  0  0  0
 22 11  1  0  0  0  0
 25 24  1  0  0  0  0
 26 12  1  0  0  0  0
 26 25  2  0  0  0  0
 27 26  1  0  0  0  0
 28 27  1  0  0  0  0
 29 27  2  0  0  0  0
 29 31  1  0  0  0  0
 30 29  1  0  0  0  0
 31 32  2  0  0  0  0
 32 25  1  0  0  0  0
 33 34  1  0  0  0  0
 33 35  1  0  0  0  0
 36 33  1  0  0  0  0
M  END
>  <minimizedAffinity>
-5.30333662

$$$$
