
 OpenBabel03272510303D

 28 30  0  0  0  0  0  0  0  0999 V2000
   37.4150   31.2330   48.9750 C   0  0  0  0  0  0  0  0  0  0  0  0
   37.7710   32.4870   49.4830 C   0  0  0  0  0  0  0  0  0  0  0  0
   38.6900   33.1970   48.7450 C   0  0  0  0  0  0  0  0  0  0  0  0
   39.1880   32.6650   47.6010 N   0  0  0  0  0  0  0  0  0  0  0  0
   38.8320   31.4500   47.1230 C   0  0  0  0  0  0  0  0  0  0  0  0
   37.9180   30.7190   47.8380 N   0  0  0  0  0  0  0  0  0  0  0  0
   37.3130   32.8110   50.4020 H   0  0  0  0  0  0  0  0  0  0  0  0
   38.9930   34.1730   49.1050 H   0  0  0  0  0  0  0  0  0  0  0  0
   36.3880   30.4400   49.7420 C   0  0  0  0  0  0  0  0  0  0  0  0
   36.2120   29.0210   49.5610 C   0  0  0  0  0  0  0  0  0  0  0  0
   37.0270   29.4790   50.7530 C   0  0  0  0  0  0  0  0  0  0  0  0
   35.5510   31.0370   50.2190 H   0  0  0  0  0  0  0  0  0  0  0  0
   36.8060   28.5410   48.7290 H   0  0  0  0  0  0  0  0  0  0  0  0
   35.2420   28.5390   49.7010 H   0  0  0  0  0  0  0  0  0  0  0  0
   36.5130   29.3140   51.7270 H   0  0  0  0  0  0  0  0  0  0  0  0
   38.1150   29.3040   50.7000 H   0  0  0  0  0  0  0  0  0  0  0  0
   39.3340   30.8470   45.8910 C   0  0  0  0  0  0  0  0  0  0  0  0
   39.5110   29.7550   46.0740 H   0  0  0  0  0  0  0  0  0  0  0  0
   40.3190   31.2990   45.6600 H   0  0  0  0  0  0  0  0  0  0  0  0
   39.1120   28.6100   43.8350 Cl  0  0  0  0  0  0  0  0  0  0  0  0
   38.2730   30.1420   43.7020 C   0  0  0  0  0  0  0  0  0  0  0  0
   38.4730   31.0580   44.7130 C   0  0  0  0  0  0  0  0  0  0  0  0
   37.7700   32.2520   44.5320 C   0  0  0  0  0  0  0  0  0  0  0  0
   37.9020   33.0060   45.3130 H   0  0  0  0  0  0  0  0  0  0  0  0
   36.9370   32.5630   43.4740 C   0  0  0  0  0  0  0  0  0  0  0  0
   36.4580   33.5320   43.4700 H   0  0  0  0  0  0  0  0  0  0  0  0
   36.7890   31.5860   42.4990 C   0  0  0  0  0  3  0  0  0  0  0  0
   37.4590   30.3710   42.6120 C   0  0  0  0  0  3  0  0  0  0  0  0
  1  2  1  0  0  0  0
  1  9  1  0  0  0  0
  2  7  1  0  0  0  0
  3  8  1  0  0  0  0
  3  2  2  0  0  0  0
  4  3  1  0  0  0  0
  5  4  2  0  0  0  0
  5  6  1  0  0  0  0
  6  1  2  0  0  0  0
  9 12  1  0  0  0  0
  9 11  1  0  0  0  0
 10 14  1  0  0  0  0
 10  9  1  0  0  0  0
 10 11  1  0  0  0  0
 11 15  1  0  0  0  0
 13 10  1  0  0  0  0
 16 11  1  0  0  0  0
 17 18  1  0  0  0  0
 17  5  1  0  0  0  0
 19 17  1  0  0  0  0
 21 20  1  0  0  0  0
 21 22  1  0  0  0  0
 22 17  1  0  0  0  0
 23 22  2  0  0  0  0
 23 24  1  0  0  0  0
 25 23  1  0  0  0  0
 26 25  1  0  0  0  0
 27 28  1  0  0  0  0
 27 25  2  0  0  0  0
 28 21  2  0  0  0  0
M  END
>  <minimizedAffinity>
-5.30703449

>  <minimizedRMSD>
0.295366824

$$$$
