
 OpenBabel03272510303D

 28 30  0  0  0  0  0  0  0  0999 V2000
   37.4470   31.3770   49.3030 C   0  0  0  0  0  0  0  0  0  0  0  0
   37.8450   32.6980   49.5300 C   0  0  0  0  0  0  0  0  0  0  0  0
   38.6540   33.2560   48.5660 C   0  0  0  0  0  0  0  0  0  0  0  0
   39.0120   32.5230   47.4830 N   0  0  0  0  0  0  0  0  0  0  0  0
   38.6150   31.2450   47.2790 C   0  0  0  0  0  0  0  0  0  0  0  0
   37.8090   30.6620   48.2240 N   0  0  0  0  0  0  0  0  0  0  0  0
   37.5020   33.1870   50.4250 H   0  0  0  0  0  0  0  0  0  0  0  0
   38.9860   34.2780   48.7030 H   0  0  0  0  0  0  0  0  0  0  0  0
   36.5350   30.7430   50.3240 C   0  0  0  0  0  0  0  0  0  0  0  0
   36.4500   29.3170   50.5060 C   0  0  0  0  0  0  0  0  0  0  0  0
   37.3120   30.0970   51.4790 C   0  0  0  0  0  0  0  0  0  0  0  0
   35.6930   31.3940   50.7130 H   0  0  0  0  0  0  0  0  0  0  0  0
   37.0170   28.6790   49.7670 H   0  0  0  0  0  0  0  0  0  0  0  0
   35.5290   28.8340   50.8410 H   0  0  0  0  0  0  0  0  0  0  0  0
   36.8800   30.1500   52.5040 H   0  0  0  0  0  0  0  0  0  0  0  0
   38.4020   29.9710   51.3770 H   0  0  0  0  0  0  0  0  0  0  0  0
   38.9670   30.4260   46.1220 C   0  0  0  0  0  0  0  0  0  0  0  0
   38.7440   29.3540   46.3630 H   0  0  0  0  0  0  0  0  0  0  0  0
   40.0620   30.4990   45.9640 H   0  0  0  0  0  0  0  0  0  0  0  0
   40.7240   30.9470   43.6890 Cl  0  0  0  0  0  0  0  0  0  0  0  0
   38.9800   31.1060   43.6830 C   0  0  0  0  0  0  0  0  0  0  0  0
   38.3190   30.8370   44.8630 C   0  0  0  0  0  0  0  0  0  0  0  0
   36.9330   30.9890   44.7760 C   0  0  0  0  0  0  0  0  0  0  0  0
   36.3720   30.7840   45.6920 H   0  0  0  0  0  0  0  0  0  0  0  0
   36.2170   31.3670   43.6560 C   0  0  0  0  0  0  0  0  0  0  0  0
   35.1410   31.4430   43.7390 H   0  0  0  0  0  0  0  0  0  0  0  0
   36.9560   31.6200   42.5080 C   0  0  0  0  0  3  0  0  0  0  0  0
   38.3430   31.4900   42.5200 C   0  0  0  0  0  3  0  0  0  0  0  0
  1  2  1  0  0  0  0
  1  9  1  0  0  0  0
  2  7  1  0  0  0  0
  3  8  1  0  0  0  0
  3  2  2  0  0  0  0
  4  3  1  0  0  0  0
  5  4  2  0  0  0  0
  5  6  1  0  0  0  0
  6  1  2  0  0  0  0
  9 10  1  0  0  0  0
  9 12  1  0  0  0  0
  9 11  1  0  0  0  0
 10 14  1  0  0  0  0
 10 11  1  0  0  0  0
 11 15  1  0  0  0  0
 13 10  1  0  0  0  0
 16 11  1  0  0  0  0
 17 18  1  0  0  0  0
 17  5  1  0  0  0  0
 19 17  1  0  0  0  0
 21 20  1  0  0  0  0
 21 22  1  0  0  0  0
 22 17  1  0  0  0  0
 23 22  2  0  0  0  0
 23 24  1  0  0  0  0
 25 26  1  0  0  0  0
 25 23  1  0  0  0  0
 27 28  1  0  0  0  0
 27 25  2  0  0  0  0
 28 21  2  0  0  0  0
M  END
>  <minimizedAffinity>
-5.26728725

>  <minimizedRMSD>
0.457791269

$$$$
