
 OpenBabel03272510303D

 28 30  0  0  0  0  0  0  0  0999 V2000
   37.1380   31.2970   49.2330 C   0  0  0  0  0  0  0  0  0  0  0  0
   37.3300   32.5540   49.8150 C   0  0  0  0  0  0  0  0  0  0  0  0
   38.2730   33.3570   49.2140 C   0  0  0  0  0  0  0  0  0  0  0  0
   38.9440   32.9060   48.1260 N   0  0  0  0  0  0  0  0  0  0  0  0
   38.7450   31.6850   47.5750 C   0  0  0  0  0  0  0  0  0  0  0  0
   37.8120   30.8630   48.1540 N   0  0  0  0  0  0  0  0  0  0  0  0
   36.7410   32.8100   50.6790 H   0  0  0  0  0  0  0  0  0  0  0  0
   38.4530   34.3390   49.6340 H   0  0  0  0  0  0  0  0  0  0  0  0
   36.0920   30.4010   49.8470 C   0  0  0  0  0  0  0  0  0  0  0  0
   36.0850   28.9730   49.6560 C   0  0  0  0  0  0  0  0  0  0  0  0
   36.6660   29.5030   50.9520 C   0  0  0  0  0  0  0  0  0  0  0  0
   35.1390   30.9100   50.1900 H   0  0  0  0  0  0  0  0  0  0  0  0
   36.8400   28.5590   48.9260 H   0  0  0  0  0  0  0  0  0  0  0  0
   35.1570   28.3970   49.6560 H   0  0  0  0  0  0  0  0  0  0  0  0
   36.0320   29.2830   51.8400 H   0  0  0  0  0  0  0  0  0  0  0  0
   37.7610   29.4360   51.0620 H   0  0  0  0  0  0  0  0  0  0  0  0
   39.4370   31.1660   46.3980 C   0  0  0  0  0  0  0  0  0  0  0  0
   39.6280   30.0730   46.5500 H   0  0  0  0  0  0  0  0  0  0  0  0
   40.4270   31.6610   46.3320 H   0  0  0  0  0  0  0  0  0  0  0  0
   40.0830   33.7200   44.8700 Cl  0  0  0  0  0  0  0  0  0  0  0  0
   38.9290   32.5230   44.3210 C   0  0  0  0  0  0  0  0  0  0  0  0
   38.7420   31.4160   45.1220 C   0  0  0  0  0  0  0  0  0  0  0  0
   37.8060   30.5100   44.6150 C   0  0  0  0  0  0  0  0  0  0  0  0
   37.6290   29.6180   45.2230 H   0  0  0  0  0  0  0  0  0  0  0  0
   37.0950   30.6360   43.4370 C   0  0  0  0  0  0  0  0  0  0  0  0
   36.4020   29.8500   43.1730 H   0  0  0  0  0  0  0  0  0  0  0  0
   37.3420   31.7790   42.6880 C   0  0  0  0  0  3  0  0  0  0  0  0
   38.2620   32.7260   43.1310 C   0  0  0  0  0  3  0  0  0  0  0  0
  1  2  1  0  0  0  0
  1  9  1  0  0  0  0
  2  7  1  0  0  0  0
  3  8  1  0  0  0  0
  3  2  2  0  0  0  0
  4  3  1  0  0  0  0
  5  4  2  0  0  0  0
  5  6  1  0  0  0  0
  6  1  2  0  0  0  0
  9 12  1  0  0  0  0
  9 11  1  0  0  0  0
 10 14  1  0  0  0  0
 10  9  1  0  0  0  0
 10 11  1  0  0  0  0
 11 16  1  0  0  0  0
 11 15  1  0  0  0  0
 13 10  1  0  0  0  0
 17 18  1  0  0  0  0
 17  5  1  0  0  0  0
 19 17  1  0  0  0  0
 21 20  1  0  0  0  0
 21 22  1  0  0  0  0
 22 17  1  0  0  0  0
 23 22  2  0  0  0  0
 23 24  1  0  0  0  0
 25 23  1  0  0  0  0
 26 25  1  0  0  0  0
 27 28  1  0  0  0  0
 27 25  2  0  0  0  0
 28 21  2  0  0  0  0
M  END
>  <minimizedAffinity>
-5.64083338

>  <minimizedRMSD>
0.699618697

$$$$
