
 OpenBabel03272500173D

 34 36  0  0  0  0  0  0  0  0999 V2000
   35.1620   29.3120   50.4790 C   0  0  0  0  0  0  0  0  0  0  0  0
   36.1640   30.0810   49.8360 C   0  0  0  0  0  0  0  0  0  0  0  0
   36.1200   30.2320   48.4510 C   0  0  0  0  0  0  0  0  0  0  0  0
   35.0970   29.6200   47.8010 N   0  0  0  0  0  0  0  0  0  0  0  0
   34.1720   28.9080   48.4060 C   0  0  0  0  0  0  0  0  0  0  0  0
   34.1860   28.7430   49.7330 N   0  0  0  0  0  0  0  0  0  0  0  0
   35.2010   29.1960   51.5590 H   0  0  0  0  0  0  0  0  0  0  0  0
   32.7790   30.6620   46.3970 Cl  0  0  0  0  0  0  0  0  0  0  0  0
   32.4150   28.9740   46.6550 C   0  0  0  0  0  0  0  0  0  0  0  0
   33.1220   28.2600   47.6070 C   0  0  0  0  0  0  0  0  0  0  0  0
   32.8690   26.8960   47.8470 C   0  0  0  0  0  0  0  0  0  0  0  0
   31.8680   26.3090   47.0720 C   0  0  0  0  0  0  0  0  0  0  0  0
   31.1570   26.9980   46.1260 C   0  0  0  0  0  0  0  0  0  0  0  0
   29.9230   26.1570   45.2220 Cl  0  0  0  0  0  0  0  0  0  0  0  0
   31.4420   28.3430   45.9240 C   0  0  0  0  0  0  0  0  0  0  0  0
   33.4170   26.3230   48.5910 H   0  0  0  0  0  0  0  0  0  0  0  0
   31.6980   25.2590   47.2830 H   0  0  0  0  0  0  0  0  0  0  0  0
   30.6810   29.1140   44.8980 C   0  0  0  0  0  0  0  0  0  0  0  0
   29.5920   28.3580   44.4480 F   0  0  0  0  0  0  0  0  0  0  0  0
   31.4660   29.5030   43.8580 F   0  0  0  0  0  0  0  0  0  0  0  0
   30.1410   30.2480   45.4910 F   0  0  0  0  0  0  0  0  0  0  0  0
   36.1100   30.0480   45.3710 Cl  0  0  0  0  0  0  0  0  0  0  0  0
   37.2150   31.0120   46.3240 C   0  0  0  0  0  0  0  0  0  0  0  0
   37.0660   31.0300   47.6940 C   0  0  0  0  0  0  0  0  0  0  0  0
   37.9840   31.8390   48.3270 C   0  0  0  0  0  0  0  0  0  0  0  0
   38.0910   31.9890   49.3930 H   0  0  0  0  0  0  0  0  0  0  0  0
   38.9450   32.5550   47.6670 C   0  0  0  0  0  0  0  0  0  0  0  0
   39.6980   33.2130   48.1200 H   0  0  0  0  0  0  0  0  0  0  0  0
   39.0620   32.5120   46.2930 C   0  0  0  0  0  0  0  0  0  0  0  0
   38.1670   31.7140   45.6110 C   0  0  0  0  0  0  0  0  0  0  0  0
   37.2200   30.7210   50.6830 C   0  0  0  0  0  0  0  0  0  0  0  0
   38.4850   30.4190   50.2090 F   0  0  0  0  0  0  0  0  0  0  0  0
   37.0610   32.0870   50.6400 F   0  0  0  0  0  0  0  0  0  0  0  0
   37.1450   30.3310   52.0050 F   0  0  0  0  0  0  0  0  0  0  0  0
  1  7  1  0  0  0  0
  2  1  1  0  0  0  0
  2 31  1  0  0  0  0
  3  2  2  0  0  0  0
  4  5  2  0  0  0  0
  4  3  1  0  0  0  0
  5  6  1  0  0  0  0
  6  1  2  0  0  0  0
  8  9  1  0  0  0  0
  9 10  1  0  0  0  0
 10 11  2  0  0  0  0
 10  5  1  0  0  0  0
 11 16  1  0  0  0  0
 12 17  1  0  0  0  0
 12 11  1  0  0  0  0
 13 12  2  0  0  0  0
 14 13  1  0  0  0  0
 15 13  1  0  0  0  0
 15  9  2  0  0  0  0
 18 21  1  0  0  0  0
 18 15  1  0  0  0  0
 19 18  1  0  0  0  0
 20 18  1  0  0  0  0
 22 23  1  0  0  0  0
 23 24  1  0  0  0  0
 24 25  2  0  0  0  0
 24  3  1  0  0  0  0
 25 26  1  0  0  0  0
 27 28  1  0  0  0  0
 27 25  1  0  0  0  0
 29 27  2  0  0  0  0
 30 29  1  0  0  0  0
 30 23  2  0  0  0  0
 31 34  1  0  0  0  0
 32 31  1  0  0  0  0
 33 31  1  0  0  0  0
M  END
>  <minimizedAffinity>
-7.0480299

>  <minimizedRMSD>
0.512630045

$$$$
