
 OpenBabel03272508353D

 31 33  0  0  0  0  0  0  0  0999 V2000
   37.6530   30.9920   47.8640 C   0  0  0  0  0  0  0  0  0  0  0  0
   36.9850   30.7430   46.7030 C   0  0  0  0  0  0  0  0  0  0  0  0
   37.6390   31.3710   45.6570 C   0  0  0  0  0  0  0  0  0  0  0  0
   38.7010   31.9900   46.2170 N   0  0  0  0  0  0  0  0  0  0  0  0
   38.6950   31.7560   47.5270 N   0  0  0  0  0  0  0  0  0  0  0  0
   36.0720   30.1550   46.5410 H   0  0  0  0  0  0  0  0  0  0  0  0
   37.3390   31.3480   44.6280 H   0  0  0  0  0  0  0  0  0  0  0  0
   37.4390   30.1680   51.5310 C   0  0  0  0  0  0  0  0  0  0  0  0
   37.9180   30.6970   50.3360 C   0  0  0  0  0  0  0  0  0  0  0  0
   37.2270   30.4790   49.1420 C   0  0  0  0  0  0  0  0  0  0  0  0
   36.0960   29.7380   49.2360 N   0  0  0  0  0  0  0  0  0  0  0  0
   35.6530   29.2360   50.4060 C   0  0  0  0  0  0  0  0  0  0  0  0
   36.3210   29.4520   51.5420 N   0  0  0  0  0  0  0  0  0  0  0  0
   38.0720   30.4120   52.3890 H   0  0  0  0  0  0  0  0  0  0  0  0
   38.8280   31.3000   50.2260 H   0  0  0  0  0  0  0  0  0  0  0  0
   34.7530   28.6530   50.4480 H   0  0  0  0  0  0  0  0  0  0  0  0
   39.6610   32.7670   45.4460 C   0  0  0  0  0  0  0  0  0  0  0  0
   39.0650   33.3980   44.7550 H   0  0  0  0  0  0  0  0  0  0  0  0
   40.2940   33.3680   46.1250 H   0  0  0  0  0  0  0  0  0  0  0  0
   40.4970   31.8420   44.5840 C   0  0  0  0  0  0  0  0  0  0  0  0
   41.5470   32.1790   44.6400 H   0  0  0  0  0  0  0  0  0  0  0  0
   40.3930   30.7850   44.8980 H   0  0  0  0  0  0  0  0  0  0  0  0
   41.1240   29.6820   42.4990 Cl  0  0  0  0  0  0  0  0  0  0  0  0
   40.2120   31.1340   42.1570 C   0  0  0  0  0  0  0  0  0  0  0  0
   40.0060   32.0200   43.1930 C   0  0  0  0  0  0  0  0  0  0  0  0
   39.2700   33.1690   42.8770 C   0  0  0  0  0  0  0  0  0  0  0  0
   39.0930   33.8830   43.6800 H   0  0  0  0  0  0  0  0  0  0  0  0
   38.7590   33.4450   41.6140 C   0  0  0  0  0  0  0  0  0  0  0  0
   38.2080   34.3620   41.4880 H   0  0  0  0  0  0  0  0  0  0  0  0
   38.9760   32.5540   40.6090 C   0  0  0  0  0  0  0  0  0  0  0  0
   39.7000   31.4200   40.9110 C   0  0  0  0  0  0  0  0  0  0  0  0
  1 10  1  0  0  0  0
  2  1  1  0  0  0  0
  3  4  1  0  0  0  0
  3  2  2  0  0  0  0
  4  5  1  0  0  0  0
  5  1  2  0  0  0  0
  6  2  1  0  0  0  0
  7  3  1  0  0  0  0
  8 13  1  0  0  0  0
  8 14  1  0  0  0  0
  9  8  2  0  0  0  0
 10 11  2  0  0  0  0
 10  9  1  0  0  0  0
 11 12  1  0  0  0  0
 12 16  1  0  0  0  0
 12 13  2  0  0  0  0
 15  9  1  0  0  0  0
 17 19  1  0  0  0  0
 17  4  1  0  0  0  0
 18 17  1  0  0  0  0
 20 21  1  0  0  0  0
 20 22  1  0  0  0  0
 20 17  1  0  0  0  0
 24 23  1  0  0  0  0
 24 25  1  0  0  0  0
 25 20  1  0  0  0  0
 26 25  2  0  0  0  0
 26 27  1  0  0  0  0
 28 26  1  0  0  0  0
 29 28  1  0  0  0  0
 30 31  1  0  0  0  0
 30 28  2  0  0  0  0
 31 24  2  0  0  0  0
M  END
>  <minimizedAffinity>
-5.53880358

>  <minimizedRMSD>
2.97177219

$$$$
