
 OpenBabel03272502393D

 40 43  0  0  1  0  0  0  0  0999 V2000
   32.1610   27.8030   48.6600 N   0  0  0  0  0  0  0  0  0  0  0  0
   32.8530   26.9640   47.6960 C   0  0  0  0  0  0  0  0  0  0  0  0
   34.2270   27.5630   47.6470 C   0  0  0  0  0  0  0  0  0  0  0  0
   34.1230   28.8950   48.5050 C   0  0  1  0  0  0  0  0  0  0  0  0
   33.1650   28.4570   49.5260 C   0  0  0  0  0  0  0  0  0  0  0  0
   32.9400   25.9100   48.0380 H   0  0  0  0  0  0  0  0  0  0  0  0
   32.3130   27.0450   46.7390 H   0  0  0  0  0  0  0  0  0  0  0  0
   35.0240   26.9460   48.0800 H   0  0  0  0  0  0  0  0  0  0  0  0
   34.4740   27.8750   46.6220 H   0  0  0  0  0  0  0  0  0  0  0  0
   33.7560   29.5730   47.7240 H   0  0  0  0  0  0  0  0  0  0  0  0
   33.5760   27.7500   50.2480 H   0  0  0  0  0  0  0  0  0  0  0  0
   32.6760   29.3110   50.0650 H   0  0  0  0  0  0  0  0  0  0  0  0
   35.9550   30.2910   46.8450 F   0  0  0  0  0  0  0  0  0  0  0  0
   36.2410   29.9700   48.1230 C   0  0  0  0  0  0  0  0  0  0  0  0
   35.4640   29.2400   48.9870 C   0  0  0  0  0  0  0  0  0  0  0  0
   35.9550   28.9790   50.2790 C   0  0  0  0  0  0  0  0  0  0  0  0
   37.1870   29.4390   50.6900 C   0  0  0  0  0  0  0  0  0  0  0  0
   37.9650   30.1790   49.8010 C   0  0  0  0  0  0  0  0  0  0  0  0
   37.4790   30.4410   48.5110 C   0  0  0  0  0  0  0  0  0  0  0  0
   35.2730   28.3970   50.8830 H   0  0  0  0  0  0  0  0  0  0  0  0
   37.4590   29.1790   51.7020 H   0  0  0  0  0  0  0  0  0  0  0  0
   38.9090   30.5140   50.1590 H   0  0  0  0  0  0  0  0  0  0  0  0
   37.7580   33.2030   49.4740 Cl  0  0  0  0  0  0  0  0  0  0  0  0
   38.5580   32.5350   48.0450 C   0  0  0  0  0  0  0  0  0  0  0  0
   38.3700   31.2210   47.6630 C   0  0  0  0  0  0  0  0  0  0  0  0
   39.0260   30.7670   46.5360 C   0  0  0  0  0  0  0  0  0  0  0  0
   38.8550   29.7350   46.2670 H   0  0  0  0  0  0  0  0  0  0  0  0
   39.8510   31.6270   45.8170 C   0  0  0  0  0  0  0  0  0  0  0  0
   40.3600   31.2520   44.9330 H   0  0  0  0  0  0  0  0  0  0  0  0
   40.0080   32.9410   46.2420 C   0  0  0  0  0  0  0  0  0  0  0  0
   39.3590   33.4240   47.3740 C   0  0  0  0  0  0  0  0  0  0  0  0
   30.7680   27.9970   48.7800 C   0  0  0  0  0  0  0  0  0  0  0  0
   30.0840   28.2720   47.5870 C   0  0  0  0  0  0  0  0  0  0  0  0
   28.6980   28.4870   47.6400 C   0  0  0  0  0  0  0  0  0  0  0  0
   28.1100   28.4090   48.8890 N   0  0  0  0  0  0  0  0  0  0  0  0
   28.8030   28.1420   50.0050 C   0  0  0  0  0  0  0  0  0  0  0  0
   30.1270   27.9400   49.9330 N   0  0  0  0  0  0  0  0  0  0  0  0
   30.5050   28.3390   46.6080 H   0  0  0  0  0  0  0  0  0  0  0  0
   28.1290   28.7020   46.7500 H   0  0  0  0  0  0  0  0  0  0  0  0
   28.3010   28.0910   50.9600 H   0  0  0  0  0  0  0  0  0  0  0  0
  1 32  1  0  0  0  0
  1  5  1  0  0  0  0
  2  6  1  0  0  0  0
  2  1  1  0  0  0  0
  3  2  1  0  0  0  0
  3  8  1  0  0  0  0
  3  4  1  0  0  0  0
  4 10  1  6  0  0  0
  4 15  1  0  0  0  0
  4  5  1  0  0  0  0
  5 12  1  0  0  0  0
  5 11  1  0  0  0  0
  7  2  1  0  0  0  0
  9  3  1  0  0  0  0
 13 14  1  0  0  0  0
 14 19  2  0  0  0  0
 14 15  1  0  0  0  0
 15 16  2  0  0  0  0
 16 17  1  0  0  0  0
 16 20  1  0  0  0  0
 17 21  1  0  0  0  0
 18 22  1  0  0  0  0
 18 17  2  0  0  0  0
 19 18  1  0  0  0  0
 24 23  1  0  0  0  0
 25 24  1  0  0  0  0
 25 19  1  0  0  0  0
 26 25  2  0  0  0  0
 27 26  1  0  0  0  0
 28 30  2  0  0  0  0
 28 26  1  0  0  0  0
 29 28  1  0  0  0  0
 30 31  1  0  0  0  0
 31 24  2  0  0  0  0
 32 37  1  0  0  0  0
 33 34  1  0  0  0  0
 33 32  2  0  0  0  0
 34 35  2  0  0  0  0
 35 36  1  0  0  0  0
 36 40  1  0  0  0  0
 37 36  2  0  0  0  0
 38 33  1  0  0  0  0
 39 34  1  0  0  0  0
M  END
>  <minimizedAffinity>
-7.75723553

>  <minimizedRMSD>
3.61615944

$$$$
