
 OpenBabel03272510013D

 21 22  0  0  0  0  0  0  0  0999 V2000
   37.4340   30.1730   51.4080 C   0  0  0  0  0  0  0  0  0  0  0  0
   38.2160   30.7540   50.3830 C   0  0  0  0  0  0  0  0  0  0  0  0
   37.6980   30.7760   49.0980 C   0  0  0  0  0  0  0  0  0  0  0  0
   36.4660   30.2320   48.9210 N   0  0  0  0  0  0  0  0  0  0  0  0
   35.7440   29.6880   49.9020 C   0  0  0  0  0  0  0  0  0  0  0  0
   36.2320   29.6620   51.1370 N   0  0  0  0  0  0  0  0  0  0  0  0
   37.8040   30.1360   52.4260 H   0  0  0  0  0  0  0  0  0  0  0  0
   39.1800   31.1670   50.5820 H   0  0  0  0  0  0  0  0  0  0  0  0
   38.7280   33.6140   49.4570 Cl  0  0  0  0  0  0  0  0  0  0  0  0
   38.9040   32.6210   48.0370 C   0  0  0  0  0  0  0  0  0  0  0  0
   38.4070   31.3470   47.9610 C   0  0  0  0  0  0  0  0  0  0  0  0
   38.6220   30.6800   46.7760 C   0  0  0  0  0  0  0  0  0  0  0  0
   38.2530   29.6710   46.6540 H   0  0  0  0  0  0  0  0  0  0  0  0
   39.2960   31.2430   45.7150 C   0  0  0  0  0  0  0  0  0  0  0  0
   39.4410   30.6760   44.7990 H   0  0  0  0  0  0  0  0  0  0  0  0
   39.7940   32.5270   45.8010 C   0  0  0  0  0  3  0  0  0  0  0  0
   39.5930   33.2310   46.9910 C   0  0  0  0  0  3  0  0  0  0  0  0
   34.4220   29.1310   49.5530 C   0  0  0  0  0  0  0  0  0  0  0  0
   33.4510   29.4220   50.5070 F   0  0  0  0  0  0  0  0  0  0  0  0
   33.9490   29.6420   48.3580 F   0  0  0  0  0  0  0  0  0  0  0  0
   34.4250   27.7550   49.4020 F   0  0  0  0  0  0  0  0  0  0  0  0
  1  7  1  0  0  0  0
  2  8  1  0  0  0  0
  2  1  2  0  0  0  0
  3  2  1  0  0  0  0
  4  3  2  0  0  0  0
  4  5  1  0  0  0  0
  5  6  2  0  0  0  0
  6  1  1  0  0  0  0
 10  9  1  0  0  0  0
 11 10  1  0  0  0  0
 11  3  1  0  0  0  0
 12 11  2  0  0  0  0
 13 12  1  0  0  0  0
 14 16  2  0  0  0  0
 14 12  1  0  0  0  0
 15 14  1  0  0  0  0
 16 17  1  0  0  0  0
 17 10  2  0  0  0  0
 18  5  1  0  0  0  0
 18 19  1  0  0  0  0
 20 18  1  0  0  0  0
 21 18  1  0  0  0  0
M  END
>  <minimizedAffinity>
-6.42814827

>  <minimizedRMSD>
2.13790655

$$$$
