
 OpenBabel03272501283D

 39 42  0  0  1  0  0  0  0  0999 V2000
   36.2470   28.3250   33.0260 C   0  0  0  0  0  0  0  0  0  0  0  0
   36.7680   28.7500   31.7920 C   0  0  0  0  0  0  0  0  0  0  0  0
   35.8790   29.6750   31.2440 C   0  0  0  0  0  0  0  0  0  0  0  0
   34.8820   29.7720   32.1420 N   0  0  0  0  0  0  0  0  0  0  0  0
   35.1190   28.9730   33.1740 N   0  0  0  0  0  0  0  0  0  0  0  0
   37.6670   28.4870   31.2630 H   0  0  0  0  0  0  0  0  0  0  0  0
   35.9580   30.2050   30.3070 H   0  0  0  0  0  0  0  0  0  0  0  0
   32.4780   29.8240   32.3110 N   0  0  0  0  0  0  0  0  0  0  0  0
   31.4810   30.8310   32.6210 C   0  0  0  0  0  0  0  0  0  0  0  0
   32.2130   32.1040   32.9980 C   0  0  0  0  0  0  0  0  0  0  0  0
   33.6420   31.5890   33.1860 C   0  0  0  0  0  0  0  0  0  0  0  0
   33.7070   30.5810   32.0840 C   0  0  1  0  0  0  0  0  0  0  0  0
   32.5840   29.1110   33.0370 H   0  0  0  0  0  0  0  0  0  0  0  0
   30.9000   30.5000   33.5170 H   0  0  0  0  0  0  0  0  0  0  0  0
   30.7650   30.9530   31.7990 H   0  0  0  0  0  0  0  0  0  0  0  0
   31.8700   32.5540   33.9340 H   0  0  0  0  0  0  0  0  0  0  0  0
   32.2090   32.7780   32.1220 H   0  0  0  0  0  0  0  0  0  0  0  0
   33.7140   31.1140   34.1740 H   0  0  0  0  0  0  0  0  0  0  0  0
   34.3650   32.4230   33.0580 H   0  0  0  0  0  0  0  0  0  0  0  0
   33.6690   31.2680   30.8190 N   0  0  0  0  0  0  0  0  0  0  0  0
   34.2300   30.7210   30.1330 H   0  0  0  0  0  0  0  0  0  0  0  0
   34.0130   32.2460   30.9450 H   0  0  0  0  0  0  0  0  0  0  0  0
   37.1250   26.0210   33.3980 C   0  0  0  0  0  0  0  0  0  0  0  0
   36.9570   27.3540   33.8370 C   0  0  0  0  0  0  0  0  0  0  0  0
   37.4890   27.7170   35.0700 C   0  0  0  0  0  0  0  0  0  0  0  0
   38.1370   26.7570   35.7690 N   0  0  0  0  0  0  0  0  0  0  0  0
   38.2920   25.4890   35.3410 C   0  0  0  0  0  0  0  0  0  0  0  0
   37.7690   25.1100   34.1190 N   0  0  0  0  0  0  0  0  0  0  0  0
   36.6910   25.7930   32.4310 H   0  0  0  0  0  0  0  0  0  0  0  0
   37.3930   28.7230   35.4590 H   0  0  0  0  0  0  0  0  0  0  0  0
   40.9320   24.7010   34.1790 Cl  0  0  0  0  0  0  0  0  0  0  0  0
   40.2310   24.0580   35.6400 C   0  0  0  0  0  0  0  0  0  0  0  0
   38.9960   24.4750   36.1180 C   0  0  0  0  0  0  0  0  0  0  0  0
   38.4540   23.9510   37.2850 C   0  0  0  0  0  0  0  0  0  0  0  0
   37.4870   24.3360   37.5790 H   0  0  0  0  0  0  0  0  0  0  0  0
   39.1270   22.9940   38.0120 C   0  0  0  0  0  0  0  0  0  0  0  0
   38.6690   22.6100   38.9170 H   0  0  0  0  0  0  0  0  0  0  0  0
   40.3500   22.5860   37.5290 C   0  0  0  0  0  3  0  0  0  0  0  0
   40.9080   23.0920   36.3740 C   0  0  0  0  0  3  0  0  0  0  0  0
  1  5  2  0  0  0  0
  1 24  1  0  0  0  0
  2  1  1  0  0  0  0
  3  2  2  0  0  0  0
  3  4  1  0  0  0  0
  4  5  1  0  0  0  0
  6  2  1  0  0  0  0
  7  3  1  0  0  0  0
  8  9  1  0  0  0  0
  8 13  1  0  0  0  0
  9 10  1  0  0  0  0
  9 14  1  0  0  0  0
 10 11  1  0  0  0  0
 10 16  1  0  0  0  0
 11 18  1  0  0  0  0
 12 20  1  6  0  0  0
 12  4  1  0  0  0  0
 12  8  1  0  0  0  0
 12 11  1  0  0  0  0
 15  9  1  0  0  0  0
 17 10  1  0  0  0  0
 19 11  1  0  0  0  0
 20 22  1  0  0  0  0
 21 20  1  0  0  0  0
 23 24  2  0  0  0  0
 23 28  1  0  0  0  0
 24 25  1  0  0  0  0
 25 30  1  0  0  0  0
 25 26  2  0  0  0  0
 27 26  1  0  0  0  0
 27 33  1  0  0  0  0
 28 27  2  0  0  0  0
 29 23  1  0  0  0  0
 31 32  1  0  0  0  0
 32 33  2  0  0  0  0
 32 39  1  0  0  0  0
 33 34  1  0  0  0  0
 34 35  1  0  0  0  0
 34 36  2  0  0  0  0
 36 37  1  0  0  0  0
 38 36  1  0  0  0  0
 39 38  2  0  0  0  0
M  END
>  <minimizedAffinity>
-5.89250994

$$$$

 OpenBabel03272501283D

 39 42  0  0  1  0  0  0  0  0999 V2000
   36.7470   27.9420   32.9370 C   0  0  0  0  0  0  0  0  0  0  0  0
   37.1150   28.3010   31.6280 C   0  0  0  0  0  0  0  0  0  0  0  0
   36.2220   29.2770   31.1830 C   0  0  0  0  0  0  0  0  0  0  0  0
   35.3740   29.4660   32.2090 N   0  0  0  0  0  0  0  0  0  0  0  0
   35.7000   28.6740   33.2220 N   0  0  0  0  0  0  0  0  0  0  0  0
   37.9080   27.9630   30.9870 H   0  0  0  0  0  0  0  0  0  0  0  0
   36.2030   29.7800   30.2280 H   0  0  0  0  0  0  0  0  0  0  0  0
   33.9120   30.9610   31.0100 N   0  0  0  0  0  0  0  0  0  0  0  0
   32.5690   31.4750   31.2020 C   0  0  0  0  0  0  0  0  0  0  0  0
   31.9870   30.7980   32.4270 C   0  0  0  0  0  0  0  0  0  0  0  0
   32.9870   29.6610   32.6500 C   0  0  0  0  0  0  0  0  0  0  0  0
   34.2610   30.3570   32.2930 C   0  0  1  0  0  0  0  0  0  0  0  0
   33.9940   30.3030   30.2300 H   0  0  0  0  0  0  0  0  0  0  0  0
   31.9410   31.1820   30.3250 H   0  0  0  0  0  0  0  0  0  0  0  0
   32.5620   32.5710   31.2500 H   0  0  0  0  0  0  0  0  0  0  0  0
   30.9920   30.3710   32.2680 H   0  0  0  0  0  0  0  0  0  0  0  0
   32.0700   31.4940   33.2800 H   0  0  0  0  0  0  0  0  0  0  0  0
   32.7570   28.8510   31.9460 H   0  0  0  0  0  0  0  0  0  0  0  0
   32.9530   29.3300   33.7100 H   0  0  0  0  0  0  0  0  0  0  0  0
   34.5380   31.3640   33.2840 N   0  0  0  0  0  0  0  0  0  0  0  0
   35.5700   31.4530   33.3810 H   0  0  0  0  0  0  0  0  0  0  0  0
   34.0620   31.1110   34.1790 H   0  0  0  0  0  0  0  0  0  0  0  0
   38.3200   27.2980   34.7620 C   0  0  0  0  0  0  0  0  0  0  0  0
   37.4970   26.9390   33.6690 C   0  0  0  0  0  0  0  0  0  0  0  0
   37.4230   25.5980   33.3090 C   0  0  0  0  0  0  0  0  0  0  0  0
   38.1520   24.7220   34.0390 N   0  0  0  0  0  0  0  0  0  0  0  0
   38.9320   25.0740   35.0780 C   0  0  0  0  0  0  0  0  0  0  0  0
   39.0190   26.4020   35.4500 N   0  0  0  0  0  0  0  0  0  0  0  0
   38.3410   28.3560   34.9980 H   0  0  0  0  0  0  0  0  0  0  0  0
   36.8100   25.2620   32.4820 H   0  0  0  0  0  0  0  0  0  0  0  0
   37.4860   23.9960   37.4630 Cl  0  0  0  0  0  0  0  0  0  0  0  0
   39.1010   23.5600   36.9700 C   0  0  0  0  0  0  0  0  0  0  0  0
   39.7070   24.1060   35.8460 C   0  0  0  0  0  0  0  0  0  0  0  0
   40.9950   23.7470   35.4690 C   0  0  0  0  0  0  0  0  0  0  0  0
   41.3840   24.2230   34.5800 H   0  0  0  0  0  0  0  0  0  0  0  0
   41.7190   22.8310   36.2000 C   0  0  0  0  0  0  0  0  0  0  0  0
   42.7200   22.5770   35.8720 H   0  0  0  0  0  0  0  0  0  0  0  0
   41.1090   22.2960   37.3140 C   0  0  0  0  0  3  0  0  0  0  0  0
   39.8320   22.6380   37.7070 C   0  0  0  0  0  3  0  0  0  0  0  0
  1  5  2  0  0  0  0
  1 24  1  0  0  0  0
  2  1  1  0  0  0  0
  3  2  2  0  0  0  0
  3  4  1  0  0  0  0
  4 12  1  0  0  0  0
  4  5  1  0  0  0  0
  6  2  1  0  0  0  0
  7  3  1  0  0  0  0
  8  9  1  0  0  0  0
  8 12  1  0  0  0  0
  9 15  1  0  0  0  0
  9 10  1  0  0  0  0
 10 11  1  0  0  0  0
 10 17  1  0  0  0  0
 11 19  1  0  0  0  0
 12 11  1  0  0  0  0
 12 20  1  1  0  0  0
 13  8  1  0  0  0  0
 14  9  1  0  0  0  0
 16 10  1  0  0  0  0
 18 11  1  0  0  0  0
 20 21  1  0  0  0  0
 20 22  1  0  0  0  0
 23 29  1  0  0  0  0
 23 28  1  0  0  0  0
 24 23  2  0  0  0  0
 25 24  1  0  0  0  0
 25 26  2  0  0  0  0
 26 27  1  0  0  0  0
 27 28  2  0  0  0  0
 27 33  1  0  0  0  0
 30 25  1  0  0  0  0
 32 31  1  0  0  0  0
 32 39  1  0  0  0  0
 33 32  2  0  0  0  0
 34 33  1  0  0  0  0
 34 36  2  0  0  0  0
 35 34  1  0  0  0  0
 36 38  1  0  0  0  0
 37 36  1  0  0  0  0
 38 39  2  0  0  0  0
M  END
>  <minimizedAffinity>
-5.83292913

$$$$

 OpenBabel03272501283D

 39 42  0  0  1  0  0  0  0  0999 V2000
   36.0670   28.2490   32.3950 C   0  0  0  0  0  0  0  0  0  0  0  0
   36.3180   29.1620   31.3560 C   0  0  0  0  0  0  0  0  0  0  0  0
   36.1300   30.4500   31.8590 C   0  0  0  0  0  0  0  0  0  0  0  0
   35.7840   30.2730   33.1460 N   0  0  0  0  0  0  0  0  0  0  0  0
   35.7520   28.9790   33.4350 N   0  0  0  0  0  0  0  0  0  0  0  0
   36.6050   29.0210   30.3290 H   0  0  0  0  0  0  0  0  0  0  0  0
   36.2360   31.3920   31.3420 H   0  0  0  0  0  0  0  0  0  0  0  0
   34.0450   31.3800   34.3950 N   0  0  0  0  0  0  0  0  0  0  0  0
   33.9650   32.0910   35.6570 C   0  0  0  0  0  0  0  0  0  0  0  0
   35.3220   31.9970   36.3260 C   0  0  0  0  0  0  0  0  0  0  0  0
   36.0010   30.9120   35.4850 C   0  0  0  0  0  0  0  0  0  0  0  0
   35.4760   31.2610   34.1300 C   0  0  1  0  0  0  0  0  0  0  0  0
   33.5690   30.4740   34.4000 H   0  0  0  0  0  0  0  0  0  0  0  0
   33.2280   31.5720   36.3180 H   0  0  0  0  0  0  0  0  0  0  0  0
   33.6040   33.1170   35.5170 H   0  0  0  0  0  0  0  0  0  0  0  0
   35.2820   31.6680   37.3680 H   0  0  0  0  0  0  0  0  0  0  0  0
   35.8610   32.9450   36.1510 H   0  0  0  0  0  0  0  0  0  0  0  0
   35.6350   29.9320   35.8210 H   0  0  0  0  0  0  0  0  0  0  0  0
   37.1050   31.0070   35.5650 H   0  0  0  0  0  0  0  0  0  0  0  0
   36.0370   32.5230   33.7220 N   0  0  0  0  0  0  0  0  0  0  0  0
   36.1460   32.5130   32.6870 H   0  0  0  0  0  0  0  0  0  0  0  0
   36.9360   32.6830   34.2290 H   0  0  0  0  0  0  0  0  0  0  0  0
   35.4690   26.1850   31.1300 C   0  0  0  0  0  0  0  0  0  0  0  0
   36.1830   26.8210   32.1720 C   0  0  0  0  0  0  0  0  0  0  0  0
   37.0020   26.0430   32.9820 C   0  0  0  0  0  0  0  0  0  0  0  0
   37.0580   24.7180   32.7140 N   0  0  0  0  0  0  0  0  0  0  0  0
   36.3740   24.1220   31.7180 C   0  0  0  0  0  0  0  0  0  0  0  0
   35.5540   24.8790   30.9030 N   0  0  0  0  0  0  0  0  0  0  0  0
   34.8450   26.8380   30.5300 H   0  0  0  0  0  0  0  0  0  0  0  0
   37.5740   26.4730   33.7960 H   0  0  0  0  0  0  0  0  0  0  0  0
   38.8650   23.3030   30.2810 Cl  0  0  0  0  0  0  0  0  0  0  0  0
   37.5840   22.2340   30.7880 C   0  0  0  0  0  0  0  0  0  0  0  0
   36.4540   22.6900   31.4530 C   0  0  0  0  0  0  0  0  0  0  0  0
   35.4450   21.8230   31.8490 C   0  0  0  0  0  0  0  0  0  0  0  0
   34.6030   22.2690   32.3610 H   0  0  0  0  0  0  0  0  0  0  0  0
   35.5300   20.4720   31.5940 C   0  0  0  0  0  0  0  0  0  0  0  0
   34.7200   19.8280   31.9200 H   0  0  0  0  0  0  0  0  0  0  0  0
   36.6540   20.0290   30.9330 C   0  0  0  0  0  3  0  0  0  0  0  0
   37.6690   20.8720   30.5310 C   0  0  0  0  0  3  0  0  0  0  0  0
  1  5  2  0  0  0  0
  2  3  2  0  0  0  0
  2  1  1  0  0  0  0
  3  4  1  0  0  0  0
  4  5  1  0  0  0  0
  4 12  1  0  0  0  0
  6  2  1  0  0  0  0
  7  3  1  0  0  0  0
  8 13  1  0  0  0  0
  8  9  1  0  0  0  0
  9 14  1  0  0  0  0
  9 10  1  0  0  0  0
 10 16  1  0  0  0  0
 11 19  1  0  0  0  0
 11 18  1  0  0  0  0
 11 10  1  0  0  0  0
 12 20  1  6  0  0  0
 12  8  1  0  0  0  0
 12 11  1  0  0  0  0
 15  9  1  0  0  0  0
 17 10  1  0  0  0  0
 20 22  1  0  0  0  0
 21 20  1  0  0  0  0
 23 24  1  0  0  0  0
 24  1  1  0  0  0  0
 24 25  2  0  0  0  0
 25 30  1  0  0  0  0
 26 25  1  0  0  0  0
 27 26  2  0  0  0  0
 28 23  2  0  0  0  0
 28 27  1  0  0  0  0
 29 23  1  0  0  0  0
 31 32  1  0  0  0  0
 32 33  1  0  0  0  0
 33 27  1  0  0  0  0
 33 34  2  0  0  0  0
 34 35  1  0  0  0  0
 36 34  1  0  0  0  0
 36 37  1  0  0  0  0
 38 36  2  0  0  0  0
 39 32  2  0  0  0  0
 39 38  1  0  0  0  0
M  END
>  <minimizedAffinity>
-5.79561663

$$$$

 OpenBabel03272501283D

 39 42  0  0  1  0  0  0  0  0999 V2000
   38.0310   27.5730   32.0850 C   0  0  0  0  0  0  0  0  0  0  0  0
   36.8220   28.2400   32.3490 C   0  0  0  0  0  0  0  0  0  0  0  0
   36.5560   29.0910   31.2760 C   0  0  0  0  0  0  0  0  0  0  0  0
   37.5830   28.9110   30.4270 N   0  0  0  0  0  0  0  0  0  0  0  0
   38.4320   28.0200   30.9220 N   0  0  0  0  0  0  0  0  0  0  0  0
   36.1420   28.1920   33.1810 H   0  0  0  0  0  0  0  0  0  0  0  0
   35.7150   29.7540   31.1410 H   0  0  0  0  0  0  0  0  0  0  0  0
   36.8990   30.6400   28.8930 N   0  0  0  0  0  0  0  0  0  0  0  0
   37.5290   31.3810   27.8170 C   0  0  0  0  0  0  0  0  0  0  0  0
   38.9870   30.9680   27.7650 C   0  0  0  0  0  0  0  0  0  0  0  0
   39.1400   30.2230   29.0930 C   0  0  0  0  0  0  0  0  0  0  0  0
   37.8150   29.5350   29.1640 C   0  0  1  0  0  0  0  0  0  0  0  0
   36.7070   31.2040   29.7250 H   0  0  0  0  0  0  0  0  0  0  0  0
   37.4970   32.4710   28.0620 H   0  0  0  0  0  0  0  0  0  0  0  0
   36.9910   31.2480   26.8700 H   0  0  0  0  0  0  0  0  0  0  0  0
   39.6860   31.8090   27.7440 H   0  0  0  0  0  0  0  0  0  0  0  0
   39.1100   30.2330   26.9490 H   0  0  0  0  0  0  0  0  0  0  0  0
   39.2550   30.9640   29.8960 H   0  0  0  0  0  0  0  0  0  0  0  0
   39.9970   29.5180   29.0350 H   0  0  0  0  0  0  0  0  0  0  0  0
   37.7500   28.5380   28.1270 N   0  0  0  0  0  0  0  0  0  0  0  0
   37.1660   27.7480   28.4690 H   0  0  0  0  0  0  0  0  0  0  0  0
   38.7180   28.2500   27.8610 H   0  0  0  0  0  0  0  0  0  0  0  0
   38.0840   25.2870   33.0800 C   0  0  0  0  0  0  0  0  0  0  0  0
   38.5710   26.6130   33.0290 C   0  0  0  0  0  0  0  0  0  0  0  0
   39.5830   26.9810   33.9090 C   0  0  0  0  0  0  0  0  0  0  0  0
   40.0350   26.0320   34.7610 N   0  0  0  0  0  0  0  0  0  0  0  0
   39.5650   24.7710   34.8010 C   0  0  0  0  0  0  0  0  0  0  0  0
   38.5580   24.3880   33.9350 N   0  0  0  0  0  0  0  0  0  0  0  0
   37.2960   25.0550   32.3730 H   0  0  0  0  0  0  0  0  0  0  0  0
   39.9970   27.9820   33.9180 H   0  0  0  0  0  0  0  0  0  0  0  0
   37.9730   24.5570   37.3230 Cl  0  0  0  0  0  0  0  0  0  0  0  0
   39.3830   23.6110   36.9270 C   0  0  0  0  0  0  0  0  0  0  0  0
   40.0720   23.7680   35.7320 C   0  0  0  0  0  0  0  0  0  0  0  0
   41.1940   23.0050   35.4340 C   0  0  0  0  0  0  0  0  0  0  0  0
   41.6640   23.1980   34.4800 H   0  0  0  0  0  0  0  0  0  0  0  0
   41.6650   22.0610   36.3200 C   0  0  0  0  0  0  0  0  0  0  0  0
   42.5430   21.4860   36.0500 H   0  0  0  0  0  0  0  0  0  0  0  0
   40.9750   21.9130   37.5030 C   0  0  0  0  0  3  0  0  0  0  0  0
   39.8590   22.6590   37.8200 C   0  0  0  0  0  3  0  0  0  0  0  0
  1  2  1  0  0  0  0
  1 24  1  0  0  0  0
  2  6  1  0  0  0  0
  3  2  2  0  0  0  0
  4  5  1  0  0  0  0
  4  3  1  0  0  0  0
  5  1  2  0  0  0  0
  7  3  1  0  0  0  0
  8 12  1  0  0  0  0
  8 13  1  0  0  0  0
  9 14  1  0  0  0  0
  9  8  1  0  0  0  0
 10  9  1  0  0  0  0
 10 11  1  0  0  0  0
 11 12  1  0  0  0  0
 11 18  1  0  0  0  0
 12 20  1  6  0  0  0
 12  4  1  0  0  0  0
 15  9  1  0  0  0  0
 16 10  1  0  0  0  0
 17 10  1  0  0  0  0
 19 11  1  0  0  0  0
 20 21  1  0  0  0  0
 22 20  1  0  0  0  0
 23 28  1  0  0  0  0
 24 23  2  0  0  0  0
 24 25  1  0  0  0  0
 25 30  1  0  0  0  0
 25 26  2  0  0  0  0
 26 27  1  0  0  0  0
 27 33  1  0  0  0  0
 28 27  2  0  0  0  0
 29 23  1  0  0  0  0
 32 31  1  0  0  0  0
 32 39  1  0  0  0  0
 33 32  2  0  0  0  0
 34 33  1  0  0  0  0
 34 36  2  0  0  0  0
 35 34  1  0  0  0  0
 36 38  1  0  0  0  0
 37 36  1  0  0  0  0
 38 39  2  0  0  0  0
M  END
>  <minimizedAffinity>
-5.71279192

$$$$

 OpenBabel03272501283D

 39 42  0  0  1  0  0  0  0  0999 V2000
   36.0570   27.8600   31.7720 C   0  0  0  0  0  0  0  0  0  0  0  0
   35.8890   28.5730   32.9720 C   0  0  0  0  0  0  0  0  0  0  0  0
   35.8980   29.9340   32.6690 C   0  0  0  0  0  0  0  0  0  0  0  0
   36.0650   29.9930   31.3360 N   0  0  0  0  0  0  0  0  0  0  0  0
   36.1570   28.7680   30.8350 N   0  0  0  0  0  0  0  0  0  0  0  0
   35.7680   28.2470   33.9890 H   0  0  0  0  0  0  0  0  0  0  0  0
   35.7940   30.7710   33.3440 H   0  0  0  0  0  0  0  0  0  0  0  0
   34.8540   31.7940   30.2870 N   0  0  0  0  0  0  0  0  0  0  0  0
   35.1850   33.1150   29.7880 C   0  0  0  0  0  0  0  0  0  0  0  0
   36.6410   33.3810   30.1190 C   0  0  0  0  0  0  0  0  0  0  0  0
   36.9380   32.2550   31.1120 C   0  0  0  0  0  0  0  0  0  0  0  0
   36.1460   31.1460   30.4980 C   0  0  1  0  0  0  0  0  0  0  0  0
   34.2770   31.8050   31.1330 H   0  0  0  0  0  0  0  0  0  0  0  0
   34.5720   33.8720   30.3360 H   0  0  0  0  0  0  0  0  0  0  0  0
   34.9420   33.2140   28.7230 H   0  0  0  0  0  0  0  0  0  0  0  0
   36.8160   34.3440   30.6090 H   0  0  0  0  0  0  0  0  0  0  0  0
   37.2410   33.1980   29.2100 H   0  0  0  0  0  0  0  0  0  0  0  0
   36.5390   32.5410   32.0940 H   0  0  0  0  0  0  0  0  0  0  0  0
   38.0300   32.0500   31.1370 H   0  0  0  0  0  0  0  0  0  0  0  0
   36.7530   30.7760   29.2460 N   0  0  0  0  0  0  0  0  0  0  0  0
   36.6000   29.7570   29.0960 H   0  0  0  0  0  0  0  0  0  0  0  0
   37.7620   31.0430   29.2570 H   0  0  0  0  0  0  0  0  0  0  0  0
   35.2290   25.6640   30.9300 C   0  0  0  0  0  0  0  0  0  0  0  0
   36.0890   26.4100   31.7680 C   0  0  0  0  0  0  0  0  0  0  0  0
   36.9700   25.7200   32.5940 C   0  0  0  0  0  0  0  0  0  0  0  0
   36.9410   24.3690   32.5360 N   0  0  0  0  0  0  0  0  0  0  0  0
   36.1180   23.6670   31.7330 C   0  0  0  0  0  0  0  0  0  0  0  0
   35.2350   24.3360   30.9060 N   0  0  0  0  0  0  0  0  0  0  0  0
   34.5640   26.2510   30.3070 H   0  0  0  0  0  0  0  0  0  0  0  0
   37.6530   26.2360   33.2580 H   0  0  0  0  0  0  0  0  0  0  0  0
   38.4320   22.4920   30.2480 Cl  0  0  0  0  0  0  0  0  0  0  0  0
   37.1540   21.5900   31.0200 C   0  0  0  0  0  0  0  0  0  0  0  0
   36.1090   22.2090   31.6920 C   0  0  0  0  0  0  0  0  0  0  0  0
   35.1000   21.4740   32.3010 C   0  0  0  0  0  0  0  0  0  0  0  0
   34.3280   22.0430   32.8020 H   0  0  0  0  0  0  0  0  0  0  0  0
   35.1010   20.0970   32.2580 C   0  0  0  0  0  0  0  0  0  0  0  0
   34.2950   19.5600   32.7450 H   0  0  0  0  0  0  0  0  0  0  0  0
   36.1400   19.4920   31.5870 C   0  0  0  0  0  3  0  0  0  0  0  0
   37.1540   20.2020   30.9760 C   0  0  0  0  0  3  0  0  0  0  0  0
  1  2  1  0  0  0  0
  2  6  1  0  0  0  0
  3  2  2  0  0  0  0
  3  7  1  0  0  0  0
  4  3  1  0  0  0  0
  5  4  1  0  0  0  0
  5  1  2  0  0  0  0
  8 12  1  0  0  0  0
  8 13  1  0  0  0  0
  9 10  1  0  0  0  0
  9  8  1  0  0  0  0
  9 14  1  0  0  0  0
 10 16  1  0  0  0  0
 10 11  1  0  0  0  0
 11 19  1  0  0  0  0
 11 18  1  0  0  0  0
 12 20  1  6  0  0  0
 12 11  1  0  0  0  0
 12  4  1  0  0  0  0
 15  9  1  0  0  0  0
 17 10  1  0  0  0  0
 20 22  1  0  0  0  0
 21 20  1  0  0  0  0
 23 24  1  0  0  0  0
 24  1  1  0  0  0  0
 24 25  2  0  0  0  0
 25 30  1  0  0  0  0
 26 25  1  0  0  0  0
 27 26  2  0  0  0  0
 28 23  2  0  0  0  0
 28 27  1  0  0  0  0
 29 23  1  0  0  0  0
 31 32  1  0  0  0  0
 32 33  1  0  0  0  0
 33 27  1  0  0  0  0
 33 34  2  0  0  0  0
 34 35  1  0  0  0  0
 36 34  1  0  0  0  0
 36 37  1  0  0  0  0
 38 36  2  0  0  0  0
 39 32  2  0  0  0  0
 39 38  1  0  0  0  0
M  END
>  <minimizedAffinity>
-5.70102358

$$$$

 OpenBabel03272501283D

 39 42  0  0  1  0  0  0  0  0999 V2000
   38.0390   27.4340   31.3770 C   0  0  0  0  0  0  0  0  0  0  0  0
   36.8260   28.0880   31.0970 C   0  0  0  0  0  0  0  0  0  0  0  0
   36.9620   28.7450   29.8740 C   0  0  0  0  0  0  0  0  0  0  0  0
   38.2160   28.4720   29.4710 N   0  0  0  0  0  0  0  0  0  0  0  0
   38.8250   27.7050   30.3660 N   0  0  0  0  0  0  0  0  0  0  0  0
   35.9000   28.1460   31.6410 H   0  0  0  0  0  0  0  0  0  0  0  0
   36.2320   29.3440   29.3510 H   0  0  0  0  0  0  0  0  0  0  0  0
   38.1710   29.9570   27.5730 N   0  0  0  0  0  0  0  0  0  0  0  0
   39.1590   30.5190   26.6710 C   0  0  0  0  0  0  0  0  0  0  0  0
   40.5280   30.0850   27.1590 C   0  0  0  0  0  0  0  0  0  0  0  0
   40.1970   29.5480   28.5540 C   0  0  0  0  0  0  0  0  0  0  0  0
   38.8810   28.8950   28.2810 C   0  0  1  0  0  0  0  0  0  0  0  0
   37.7550   30.6430   28.2090 H   0  0  0  0  0  0  0  0  0  0  0  0
   39.1160   31.6340   26.7380 H   0  0  0  0  0  0  0  0  0  0  0  0
   38.9490   30.2510   25.6290 H   0  0  0  0  0  0  0  0  0  0  0  0
   41.2460   30.9040   27.2520 H   0  0  0  0  0  0  0  0  0  0  0  0
   40.8620   29.2330   26.5390 H   0  0  0  0  0  0  0  0  0  0  0  0
   40.0920   30.4000   29.2390 H   0  0  0  0  0  0  0  0  0  0  0  0
   40.9820   28.8310   28.8790 H   0  0  0  0  0  0  0  0  0  0  0  0
   39.0930   27.7530   27.4290 N   0  0  0  0  0  0  0  0  0  0  0  0
   38.3830   27.0310   27.6660 H   0  0  0  0  0  0  0  0  0  0  0  0
   40.0750   27.4160   27.5390 H   0  0  0  0  0  0  0  0  0  0  0  0
   39.0240   27.1220   33.6460 C   0  0  0  0  0  0  0  0  0  0  0  0
   38.2020   26.6600   32.5930 C   0  0  0  0  0  0  0  0  0  0  0  0
   37.5500   25.4420   32.7470 C   0  0  0  0  0  0  0  0  0  0  0  0
   37.7520   24.7770   33.9080 N   0  0  0  0  0  0  0  0  0  0  0  0
   38.5370   25.2260   34.9060 C   0  0  0  0  0  0  0  0  0  0  0  0
   39.1930   26.4350   34.7700 N   0  0  0  0  0  0  0  0  0  0  0  0
   39.5070   28.0770   33.4730 H   0  0  0  0  0  0  0  0  0  0  0  0
   36.9070   25.0360   31.9760 H   0  0  0  0  0  0  0  0  0  0  0  0
   40.8020   23.2780   34.7950 Cl  0  0  0  0  0  0  0  0  0  0  0  0
   39.7710   23.5610   36.1730 C   0  0  0  0  0  0  0  0  0  0  0  0
   38.7350   24.4860   36.1470 C   0  0  0  0  0  0  0  0  0  0  0  0
   37.9250   24.6980   37.2550 C   0  0  0  0  0  0  0  0  0  0  0  0
   37.1440   25.4380   37.1420 H   0  0  0  0  0  0  0  0  0  0  0  0
   38.1210   23.9950   38.4230 C   0  0  0  0  0  0  0  0  0  0  0  0
   37.4660   24.1900   39.2650 H   0  0  0  0  0  0  0  0  0  0  0  0
   39.1500   23.0800   38.4370 C   0  0  0  0  0  3  0  0  0  0  0  0
   39.9680   22.8520   37.3500 C   0  0  0  0  0  3  0  0  0  0  0  0
  1 24  1  0  0  0  0
  2  1  1  0  0  0  0
  2  6  1  0  0  0  0
  3  2  2  0  0  0  0
  4  3  1  0  0  0  0
  4  5  1  0  0  0  0
  5  1  2  0  0  0  0
  7  3  1  0  0  0  0
  8 13  1  0  0  0  0
  8 12  1  0  0  0  0
  9 14  1  0  0  0  0
  9 10  1  0  0  0  0
  9  8  1  0  0  0  0
 10 16  1  0  0  0  0
 10 11  1  0  0  0  0
 11 19  1  0  0  0  0
 11 18  1  0  0  0  0
 12 20  1  6  0  0  0
 12 11  1  0  0  0  0
 12  4  1  0  0  0  0
 15  9  1  0  0  0  0
 17 10  1  0  0  0  0
 20 22  1  0  0  0  0
 20 21  1  0  0  0  0
 23 28  1  0  0  0  0
 24 25  1  0  0  0  0
 24 23  2  0  0  0  0
 25 26  2  0  0  0  0
 26 27  1  0  0  0  0
 27 33  1  0  0  0  0
 28 27  2  0  0  0  0
 29 23  1  0  0  0  0
 30 25  1  0  0  0  0
 31 32  1  0  0  0  0
 32 39  1  0  0  0  0
 33 32  2  0  0  0  0
 33 34  1  0  0  0  0
 34 36  2  0  0  0  0
 35 34  1  0  0  0  0
 36 38  1  0  0  0  0
 36 37  1  0  0  0  0
 39 38  2  0  0  0  0
M  END
>  <minimizedAffinity>
-5.62384224

$$$$

 OpenBabel03272501283D

 39 42  0  0  1  0  0  0  0  0999 V2000
   37.5470   25.6510   33.7690 C   0  0  0  0  0  0  0  0  0  0  0  0
   38.2420   24.7600   32.9320 C   0  0  0  0  0  0  0  0  0  0  0  0
   38.7650   23.7410   33.7280 C   0  0  0  0  0  0  0  0  0  0  0  0
   38.3780   24.0440   34.9800 N   0  0  0  0  0  0  0  0  0  0  0  0
   37.6680   25.1650   34.9780 N   0  0  0  0  0  0  0  0  0  0  0  0
   38.4100   24.7550   31.8710 H   0  0  0  0  0  0  0  0  0  0  0  0
   39.3530   22.8880   33.4230 H   0  0  0  0  0  0  0  0  0  0  0  0
   40.0610   23.0810   36.4110 N   0  0  0  0  0  0  0  0  0  0  0  0
   40.1580   22.7450   37.8190 C   0  0  0  0  0  0  0  0  0  0  0  0
   38.8880   23.2220   38.4950 C   0  0  0  0  0  0  0  0  0  0  0  0
   38.2850   24.1190   37.4120 C   0  0  0  0  0  0  0  0  0  0  0  0
   38.6400   23.3340   36.1900 C   0  0  1  0  0  0  0  0  0  0  0  0
   40.6490   23.8710   36.1340 H   0  0  0  0  0  0  0  0  0  0  0  0
   41.0110   23.3120   38.2670 H   0  0  0  0  0  0  0  0  0  0  0  0
   40.3700   21.6780   37.9630 H   0  0  0  0  0  0  0  0  0  0  0  0
   39.0610   23.8170   39.3960 H   0  0  0  0  0  0  0  0  0  0  0  0
   38.2180   22.3530   38.6260 H   0  0  0  0  0  0  0  0  0  0  0  0
   38.8020   25.0880   37.4340 H   0  0  0  0  0  0  0  0  0  0  0  0
   37.1890   24.2150   37.5660 H   0  0  0  0  0  0  0  0  0  0  0  0
   37.8870   22.1060   36.1890 N   0  0  0  0  0  0  0  0  0  0  0  0
   37.6900   21.8440   35.2010 H   0  0  0  0  0  0  0  0  0  0  0  0
   37.0220   22.2290   36.7620 H   0  0  0  0  0  0  0  0  0  0  0  0
   36.6460   27.9620   34.0220 C   0  0  0  0  0  0  0  0  0  0  0  0
   36.8880   26.8220   33.2220 C   0  0  0  0  0  0  0  0  0  0  0  0
   36.4790   26.8470   31.8930 C   0  0  0  0  0  0  0  0  0  0  0  0
   35.8710   27.9730   31.4560 N   0  0  0  0  0  0  0  0  0  0  0  0
   35.6450   29.0550   32.2260 C   0  0  0  0  0  0  0  0  0  0  0  0
   36.0440   29.0480   33.5490 N   0  0  0  0  0  0  0  0  0  0  0  0
   36.9850   27.8890   35.0490 H   0  0  0  0  0  0  0  0  0  0  0  0
   36.6370   26.0040   31.2310 H   0  0  0  0  0  0  0  0  0  0  0  0
   32.7230   29.1690   32.8460 Cl  0  0  0  0  0  0  0  0  0  0  0  0
   33.6260   30.3810   31.9760 C   0  0  0  0  0  0  0  0  0  0  0  0
   34.9860   30.2560   31.7260 C   0  0  0  0  0  0  0  0  0  0  0  0
   35.6890   31.2320   31.0310 C   0  0  0  0  0  0  0  0  0  0  0  0
   36.7440   31.0490   30.8840 H   0  0  0  0  0  0  0  0  0  0  0  0
   35.0580   32.3640   30.5630 C   0  0  0  0  0  0  0  0  0  0  0  0
   35.6420   33.1010   30.0260 H   0  0  0  0  0  0  0  0  0  0  0  0
   33.7080   32.4770   30.8160 C   0  0  0  0  0  3  0  0  0  0  0  0
   32.9900   31.5220   31.5040 C   0  0  0  0  0  3  0  0  0  0  0  0
  1  5  2  0  0  0  0
  2  3  2  0  0  0  0
  2  1  1  0  0  0  0
  3  4  1  0  0  0  0
  4 12  1  0  0  0  0
  5  4  1  0  0  0  0
  6  2  1  0  0  0  0
  7  3  1  0  0  0  0
  8  9  1  0  0  0  0
  9 15  1  0  0  0  0
  9 14  1  0  0  0  0
  9 10  1  0  0  0  0
 10 17  1  0  0  0  0
 10 16  1  0  0  0  0
 11 18  1  0  0  0  0
 11 19  1  0  0  0  0
 11 10  1  0  0  0  0
 12 20  1  6  0  0  0
 12  8  1  0  0  0  0
 12 11  1  0  0  0  0
 13  8  1  0  0  0  0
 20 22  1  0  0  0  0
 21 20  1  0  0  0  0
 23 29  1  0  0  0  0
 24  1  1  0  0  0  0
 24 23  2  0  0  0  0
 25 24  1  0  0  0  0
 26 25  2  0  0  0  0
 26 27  1  0  0  0  0
 27 28  2  0  0  0  0
 28 23  1  0  0  0  0
 30 25  1  0  0  0  0
 32 31  1  0  0  0  0
 33 32  1  0  0  0  0
 33 27  1  0  0  0  0
 34 33  2  0  0  0  0
 35 34  1  0  0  0  0
 36 38  2  0  0  0  0
 36 34  1  0  0  0  0
 37 36  1  0  0  0  0
 38 39  1  0  0  0  0
 39 32  2  0  0  0  0
M  END
>  <minimizedAffinity>
-5.62082958

$$$$

 OpenBabel03272501283D

 39 42  0  0  1  0  0  0  0  0999 V2000
   36.8050   24.2260   31.5920 C   0  0  0  0  0  0  0  0  0  0  0  0
   37.9170   23.8850   30.8020 C   0  0  0  0  0  0  0  0  0  0  0  0
   37.8970   22.5040   30.6030 C   0  0  0  0  0  0  0  0  0  0  0  0
   36.8050   22.0740   31.2600 N   0  0  0  0  0  0  0  0  0  0  0  0
   36.1840   23.0990   31.8300 N   0  0  0  0  0  0  0  0  0  0  0  0
   38.7040   24.4800   30.3740 H   0  0  0  0  0  0  0  0  0  0  0  0
   38.5960   21.8980   30.0470 H   0  0  0  0  0  0  0  0  0  0  0  0
   36.9660   19.9790   32.4400 N   0  0  0  0  0  0  0  0  0  0  0  0
   36.0820   18.8550   32.6860 C   0  0  0  0  0  0  0  0  0  0  0  0
   34.7280   19.1970   32.0960 C   0  0  0  0  0  0  0  0  0  0  0  0
   34.8810   20.6970   31.8320 C   0  0  0  0  0  0  0  0  0  0  0  0
   36.3060   20.7420   31.3850 C   0  0  1  0  0  0  0  0  0  0  0  0
   37.1570   20.5430   33.2720 H   0  0  0  0  0  0  0  0  0  0  0  0
   35.9480   18.7360   33.7890 H   0  0  0  0  0  0  0  0  0  0  0  0
   36.5110   17.9180   32.3100 H   0  0  0  0  0  0  0  0  0  0  0  0
   33.8920   19.0380   32.7830 H   0  0  0  0  0  0  0  0  0  0  0  0
   34.6380   18.6890   31.1190 H   0  0  0  0  0  0  0  0  0  0  0  0
   34.7360   21.2340   32.7790 H   0  0  0  0  0  0  0  0  0  0  0  0
   34.1650   21.0170   31.0450 H   0  0  0  0  0  0  0  0  0  0  0  0
   36.4180   20.0760   30.1130 N   0  0  0  0  0  0  0  0  0  0  0  0
   37.1740   20.5390   29.5660 H   0  0  0  0  0  0  0  0  0  0  0  0
   35.4930   20.0930   29.6290 H   0  0  0  0  0  0  0  0  0  0  0  0
   37.2730   26.2120   33.0250 C   0  0  0  0  0  0  0  0  0  0  0  0
   36.5580   25.6050   31.9680 C   0  0  0  0  0  0  0  0  0  0  0  0
   35.6060   26.3620   31.2930 C   0  0  0  0  0  0  0  0  0  0  0  0
   35.4300   27.6390   31.7010 N   0  0  0  0  0  0  0  0  0  0  0  0
   36.1170   28.2080   32.7100 C   0  0  0  0  0  0  0  0  0  0  0  0
   37.0670   27.4720   33.3930 N   0  0  0  0  0  0  0  0  0  0  0  0
   38.0020   25.5770   33.5170 H   0  0  0  0  0  0  0  0  0  0  0  0
   35.0260   25.9520   30.4740 H   0  0  0  0  0  0  0  0  0  0  0  0
   36.6890   30.2150   30.5690 Cl  0  0  0  0  0  0  0  0  0  0  0  0
   36.1500   30.5800   32.1870 C   0  0  0  0  0  0  0  0  0  0  0  0
   35.9050   29.5900   33.1290 C   0  0  0  0  0  0  0  0  0  0  0  0
   35.4770   29.8990   34.4130 C   0  0  0  0  0  0  0  0  0  0  0  0
   35.3120   29.0620   35.0770 H   0  0  0  0  0  0  0  0  0  0  0  0
   35.2790   31.2070   34.7990 C   0  0  0  0  0  0  0  0  0  0  0  0
   34.9440   31.4060   35.8100 H   0  0  0  0  0  0  0  0  0  0  0  0
   35.5260   32.1820   33.8570 C   0  0  0  0  0  3  0  0  0  0  0  0
   35.9510   31.8980   32.5760 C   0  0  0  0  0  3  0  0  0  0  0  0
  1  5  2  0  0  0  0
  1 24  1  0  0  0  0
  2  1  1  0  0  0  0
  3  2  2  0  0  0  0
  3  4  1  0  0  0  0
  4 12  1  0  0  0  0
  4  5  1  0  0  0  0
  6  2  1  0  0  0  0
  7  3  1  0  0  0  0
  8  9  1  0  0  0  0
  8 13  1  0  0  0  0
  9 14  1  0  0  0  0
 10  9  1  0  0  0  0
 10 16  1  0  0  0  0
 11 10  1  0  0  0  0
 11 18  1  0  0  0  0
 12 20  1  6  0  0  0
 12 11  1  0  0  0  0
 12  8  1  0  0  0  0
 15  9  1  0  0  0  0
 17 10  1  0  0  0  0
 19 11  1  0  0  0  0
 21 20  1  0  0  0  0
 22 20  1  0  0  0  0
 23 28  1  0  0  0  0
 23 29  1  0  0  0  0
 24 23  2  0  0  0  0
 25 26  2  0  0  0  0
 25 24  1  0  0  0  0
 26 27  1  0  0  0  0
 27 33  1  0  0  0  0
 27 28  2  0  0  0  0
 30 25  1  0  0  0  0
 31 32  1  0  0  0  0
 32 39  2  0  0  0  0
 32 33  1  0  0  0  0
 33 34  2  0  0  0  0
 34 36  1  0  0  0  0
 34 35  1  0  0  0  0
 36 37  1  0  0  0  0
 38 36  2  0  0  0  0
 39 38  1  0  0  0  0
M  END
>  <minimizedAffinity>
-5.5984807

$$$$

 OpenBabel03272501283D

 39 42  0  0  1  0  0  0  0  0999 V2000
   36.3260   28.4980   33.6370 C   0  0  0  0  0  0  0  0  0  0  0  0
   35.2290   28.9930   34.3640 C   0  0  0  0  0  0  0  0  0  0  0  0
   34.6380   30.0090   33.6130 C   0  0  0  0  0  0  0  0  0  0  0  0
   35.3770   30.0880   32.4920 N   0  0  0  0  0  0  0  0  0  0  0  0
   36.3580   29.1960   32.5300 N   0  0  0  0  0  0  0  0  0  0  0  0
   34.8240   28.7240   35.3220 H   0  0  0  0  0  0  0  0  0  0  0  0
   33.7750   30.6090   33.8620 H   0  0  0  0  0  0  0  0  0  0  0  0
   33.8140   31.2590   31.0800 N   0  0  0  0  0  0  0  0  0  0  0  0
   33.8610   32.4360   30.2320 C   0  0  0  0  0  0  0  0  0  0  0  0
   35.2290   33.0670   30.3950 C   0  0  0  0  0  0  0  0  0  0  0  0
   35.7580   32.3330   31.6300 C   0  0  0  0  0  0  0  0  0  0  0  0
   35.2130   30.9640   31.3770 C   0  0  1  0  0  0  0  0  0  0  0  0
   33.2500   31.3820   31.9250 H   0  0  0  0  0  0  0  0  0  0  0  0
   33.1040   33.1740   30.5960 H   0  0  0  0  0  0  0  0  0  0  0  0
   33.5990   32.1930   29.1940 H   0  0  0  0  0  0  0  0  0  0  0  0
   35.2020   34.1400   30.6020 H   0  0  0  0  0  0  0  0  0  0  0  0
   35.8520   32.7690   29.5320 H   0  0  0  0  0  0  0  0  0  0  0  0
   35.3110   32.7880   32.5230 H   0  0  0  0  0  0  0  0  0  0  0  0
   36.8680   32.3650   31.6430 H   0  0  0  0  0  0  0  0  0  0  0  0
   35.8800   30.3990   30.2330 N   0  0  0  0  0  0  0  0  0  0  0  0
   35.9420   29.3690   30.3650 H   0  0  0  0  0  0  0  0  0  0  0  0
   36.8120   30.8560   30.1140 H   0  0  0  0  0  0  0  0  0  0  0  0
   37.9020   27.6000   35.3480 C   0  0  0  0  0  0  0  0  0  0  0  0
   37.1450   27.4250   34.1670 C   0  0  0  0  0  0  0  0  0  0  0  0
   37.2040   26.1950   33.5210 C   0  0  0  0  0  0  0  0  0  0  0  0
   37.9900   25.2440   34.0750 N   0  0  0  0  0  0  0  0  0  0  0  0
   38.7060   25.4210   35.2010 C   0  0  0  0  0  0  0  0  0  0  0  0
   38.6610   26.6370   35.8570 N   0  0  0  0  0  0  0  0  0  0  0  0
   37.8200   28.5780   35.8110 H   0  0  0  0  0  0  0  0  0  0  0  0
   36.6470   26.0000   32.6130 H   0  0  0  0  0  0  0  0  0  0  0  0
   37.3990   23.9150   37.4290 Cl  0  0  0  0  0  0  0  0  0  0  0  0
   39.0070   23.6320   36.8160 C   0  0  0  0  0  0  0  0  0  0  0  0
   39.5460   24.3760   35.7750 C   0  0  0  0  0  0  0  0  0  0  0  0
   40.8290   24.1350   35.3000 C   0  0  0  0  0  0  0  0  0  0  0  0
   41.1650   24.7640   34.4870 H   0  0  0  0  0  0  0  0  0  0  0  0
   41.6150   23.1450   35.8490 C   0  0  0  0  0  0  0  0  0  0  0  0
   42.6100   22.9890   35.4490 H   0  0  0  0  0  0  0  0  0  0  0  0
   41.0700   22.4140   36.8810 C   0  0  0  0  0  3  0  0  0  0  0  0
   39.7990   22.6340   37.3680 C   0  0  0  0  0  3  0  0  0  0  0  0
  1 24  1  0  0  0  0
  1  2  1  0  0  0  0
  2  6  1  0  0  0  0
  3  7  1  0  0  0  0
  3  2  2  0  0  0  0
  4  5  1  0  0  0  0
  4  3  1  0  0  0  0
  5  1  2  0  0  0  0
  8 12  1  0  0  0  0
  8 13  1  0  0  0  0
  9 10  1  0  0  0  0
  9 14  1  0  0  0  0
  9  8  1  0  0  0  0
 10 16  1  0  0  0  0
 10 11  1  0  0  0  0
 11 19  1  0  0  0  0
 11 18  1  0  0  0  0
 12 20  1  6  0  0  0
 12 11  1  0  0  0  0
 12  4  1  0  0  0  0
 15  9  1  0  0  0  0
 17 10  1  0  0  0  0
 20 21  1  0  0  0  0
 22 20  1  0  0  0  0
 23 29  1  0  0  0  0
 23 28  1  0  0  0  0
 24 23  2  0  0  0  0
 25 26  2  0  0  0  0
 25 24  1  0  0  0  0
 26 27  1  0  0  0  0
 27 33  1  0  0  0  0
 27 28  2  0  0  0  0
 30 25  1  0  0  0  0
 32 39  1  0  0  0  0
 32 31  1  0  0  0  0
 33 32  2  0  0  0  0
 34 33  1  0  0  0  0
 34 36  2  0  0  0  0
 35 34  1  0  0  0  0
 36 38  1  0  0  0  0
 37 36  1  0  0  0  0
 38 39  2  0  0  0  0
M  END
>  <minimizedAffinity>
-5.47471094

$$$$
