
 OpenBabel03262520233D

 32 34  0  0  0  0  0  0  0  0999 V2000
   35.4730   29.3330   48.6470 C   0  0  0  0  0  0  0  0  0  0  0  0
   35.8240   29.0590   49.9660 C   0  0  0  0  0  0  0  0  0  0  0  0
   36.9700   29.4290   50.5900 C   0  0  0  0  0  0  0  0  0  0  0  0
   37.8970   30.1340   49.9130 C   0  0  0  0  0  0  0  0  0  0  0  0
   37.5880   30.4130   48.6370 C   0  0  0  0  0  0  0  0  0  0  0  0
   36.4560   30.0140   48.1170 N   0  0  0  0  0  0  0  0  0  0  0  0
   35.1050   28.4690   50.6160 H   0  0  0  0  0  0  0  0  0  0  0  0
   37.1380   29.1440   51.6720 H   0  0  0  0  0  0  0  0  0  0  0  0
   38.7730   30.4430   50.3800 H   0  0  0  0  0  0  0  0  0  0  0  0
   33.4210   28.2830   49.1670 C   0  0  0  0  0  0  0  0  0  0  0  0
   34.1870   28.9040   48.1300 C   0  0  0  0  0  0  0  0  0  0  0  0
   33.5990   28.9960   46.8960 C   0  0  0  0  0  0  0  0  0  0  0  0
   32.3330   28.4890   46.7570 N   0  0  0  0  0  0  0  0  0  0  0  0
   31.6320   27.9130   47.7310 C   0  0  0  0  0  0  0  0  0  0  0  0
   32.1970   27.8190   48.9370 N   0  0  0  0  0  0  0  0  0  0  0  0
   30.3460   27.4530   47.4000 N   0  0  0  0  0  0  0  0  0  0  0  0
   33.7470   28.1400   50.1750 H   0  0  0  0  0  0  0  0  0  0  0  0
   29.5530   28.0410   47.1300 H   0  0  0  0  0  0  0  0  0  0  0  0
   30.3220   26.4030   47.4710 H   0  0  0  0  0  0  0  0  0  0  0  0
   34.3300   29.6230   45.7960 C   0  0  0  0  0  0  0  0  0  0  0  0
   35.3100   28.8220   45.4250 F   0  0  0  0  0  0  0  0  0  0  0  0
   33.5420   29.9520   44.7110 F   0  0  0  0  0  0  0  0  0  0  0  0
   34.9180   30.8560   46.2060 F   0  0  0  0  0  0  0  0  0  0  0  0
   38.4980   33.3300   49.2940 Cl  0  0  0  0  0  0  0  0  0  0  0  0
   38.8610   32.4650   47.8370 C   0  0  0  0  0  0  0  0  0  0  0  0
   38.4070   31.1890   47.6730 C   0  0  0  0  0  0  0  0  0  0  0  0
   38.8210   30.6380   46.4810 C   0  0  0  0  0  0  0  0  0  0  0  0
   38.5250   29.6130   46.2220 H   0  0  0  0  0  0  0  0  0  0  0  0
   39.5980   31.2730   45.5430 C   0  0  0  0  0  0  0  0  0  0  0  0
   39.8770   30.7760   44.6400 H   0  0  0  0  0  0  0  0  0  0  0  0
   40.0210   32.5590   45.7690 C   0  0  0  0  0  0  0  0  0  0  0  0
   39.6340   33.1550   46.9490 C   0  0  0  0  0  0  0  0  0  0  0  0
  1  2  1  0  0  0  0
  2  3  2  0  0  0  0
  2  7  1  0  0  0  0
  3  8  1  0  0  0  0
  4  9  1  0  0  0  0
  4  3  1  0  0  0  0
  5  4  2  0  0  0  0
  6  5  1  0  0  0  0
  6  1  2  0  0  0  0
 10 17  1  0  0  0  0
 11  1  1  0  0  0  0
 11 10  2  0  0  0  0
 12 11  1  0  0  0  0
 13 12  2  0  0  0  0
 13 14  1  0  0  0  0
 14 15  2  0  0  0  0
 15 10  1  0  0  0  0
 16 19  1  0  0  0  0
 16 14  1  0  0  0  0
 18 16  1  0  0  0  0
 20 23  1  0  0  0  0
 20 12  1  0  0  0  0
 21 20  1  0  0  0  0
 22 20  1  0  0  0  0
 25 24  1  0  0  0  0
 26 25  1  0  0  0  0
 26  5  1  0  0  0  0
 27 26  2  0  0  0  0
 28 27  1  0  0  0  0
 29 31  2  0  0  0  0
 29 27  1  0  0  0  0
 30 29  1  0  0  0  0
 31 32  1  0  0  0  0
 32 25  2  0  0  0  0
M  END
>  <minimizedAffinity>
-6.72570944

>  <minimizedRMSD>
4.05537987

$$$$
