
 OpenBabel03272500203D

 34 36  0  0  0  0  0  0  0  0999 V2000
   36.5440   29.7250   31.5310 C   0  0  0  0  0  0  0  0  0  0  0  0
   35.8630   30.4420   32.5450 C   0  0  0  0  0  0  0  0  0  0  0  0
   35.6230   29.8230   33.7710 C   0  0  0  0  0  0  0  0  0  0  0  0
   36.0690   28.5490   33.9100 N   0  0  0  0  0  0  0  0  0  0  0  0
   36.6990   27.8910   32.9620 C   0  0  0  0  0  0  0  0  0  0  0  0
   36.9450   28.4550   31.7760 N   0  0  0  0  0  0  0  0  0  0  0  0
   36.7280   30.2110   30.5760 H   0  0  0  0  0  0  0  0  0  0  0  0
   38.3370   27.4210   35.4430 Cl  0  0  0  0  0  0  0  0  0  0  0  0
   37.8750   26.1720   34.3140 C   0  0  0  0  0  0  0  0  0  0  0  0
   37.1170   26.5010   33.2040 C   0  0  0  0  0  0  0  0  0  0  0  0
   36.7140   25.5290   32.2690 C   0  0  0  0  0  0  0  0  0  0  0  0
   37.1240   24.2200   32.5250 C   0  0  0  0  0  0  0  0  0  0  0  0
   37.8750   23.8750   33.6160 C   0  0  0  0  0  0  0  0  0  0  0  0
   38.3330   22.2030   33.8280 Cl  0  0  0  0  0  0  0  0  0  0  0  0
   38.2480   24.8680   34.5130 C   0  0  0  0  0  0  0  0  0  0  0  0
   36.1180   25.7740   31.3920 H   0  0  0  0  0  0  0  0  0  0  0  0
   36.7990   23.4970   31.7850 H   0  0  0  0  0  0  0  0  0  0  0  0
   39.0660   24.5150   35.7100 C   0  0  0  0  0  0  0  0  0  0  0  0
   38.5170   25.1120   36.8510 F   0  0  0  0  0  0  0  0  0  0  0  0
   40.3730   24.8610   35.5610 F   0  0  0  0  0  0  0  0  0  0  0  0
   38.9940   23.1440   35.9210 F   0  0  0  0  0  0  0  0  0  0  0  0
   32.5930   29.4220   34.1890 Cl  0  0  0  0  0  0  0  0  0  0  0  0
   33.6250   30.4320   35.1750 C   0  0  0  0  0  0  0  0  0  0  0  0
   34.9740   30.4750   34.8930 C   0  0  0  0  0  0  0  0  0  0  0  0
   35.6800   31.2900   35.7510 C   0  0  0  0  0  0  0  0  0  0  0  0
   36.7380   31.5120   35.7120 H   0  0  0  0  0  0  0  0  0  0  0  0
   35.1060   31.9850   36.7790 C   0  0  0  0  0  0  0  0  0  0  0  0
   35.6180   32.6460   37.4900 H   0  0  0  0  0  0  0  0  0  0  0  0
   33.7500   31.9170   37.0300 C   0  0  0  0  0  3  0  0  0  0  0  0
   32.9970   31.1150   36.1980 C   0  0  0  0  0  3  0  0  0  0  0  0
   35.4500   31.8540   32.2610 C   0  0  0  0  0  0  0  0  0  0  0  0
   36.1760   32.7460   33.0300 F   0  0  0  0  0  0  0  0  0  0  0  0
   35.6920   32.1330   30.9370 F   0  0  0  0  0  0  0  0  0  0  0  0
   34.1060   32.0690   32.4980 F   0  0  0  0  0  0  0  0  0  0  0  0
  1  6  2  0  0  0  0
  1  2  1  0  0  0  0
  2  3  2  0  0  0  0
  3  4  1  0  0  0  0
  3 24  1  0  0  0  0
  5 10  1  0  0  0  0
  5  4  2  0  0  0  0
  6  5  1  0  0  0  0
  7  1  1  0  0  0  0
  9 15  1  0  0  0  0
  9  8  1  0  0  0  0
 10  9  2  0  0  0  0
 11 12  2  0  0  0  0
 11 10  1  0  0  0  0
 12 13  1  0  0  0  0
 13 14  1  0  0  0  0
 13 15  2  0  0  0  0
 15 18  1  0  0  0  0
 16 11  1  0  0  0  0
 17 12  1  0  0  0  0
 18 21  1  0  0  0  0
 18 19  1  0  0  0  0
 20 18  1  0  0  0  0
 22 23  1  0  0  0  0
 23 30  1  0  0  0  0
 24 23  2  0  0  0  0
 24 25  1  0  0  0  0
 25 27  2  0  0  0  0
 26 25  1  0  0  0  0
 27 29  1  0  0  0  0
 27 28  1  0  0  0  0
 30 29  2  0  0  0  0
 31 34  1  0  0  0  0
 31  2  1  0  0  0  0
 31 32  1  0  0  0  0
 33 31  1  0  0  0  0
M  END
>  <minimizedAffinity>
-6.63080311

$$$$

 OpenBabel03272500203D

 34 36  0  0  0  0  0  0  0  0999 V2000
   36.6740   29.4760   31.1580 C   0  0  0  0  0  0  0  0  0  0  0  0
   36.0350   30.2100   32.1880 C   0  0  0  0  0  0  0  0  0  0  0  0
   35.7720   29.5830   33.4060 C   0  0  0  0  0  0  0  0  0  0  0  0
   36.1560   28.2860   33.5220 N   0  0  0  0  0  0  0  0  0  0  0  0
   36.7480   27.6140   32.5590 C   0  0  0  0  0  0  0  0  0  0  0  0
   37.0140   28.1840   31.3800 N   0  0  0  0  0  0  0  0  0  0  0  0
   36.8760   29.9690   30.2100 H   0  0  0  0  0  0  0  0  0  0  0  0
   35.1900   25.6090   30.9430 Cl  0  0  0  0  0  0  0  0  0  0  0  0
   36.4440   25.1960   32.0860 C   0  0  0  0  0  0  0  0  0  0  0  0
   37.0990   26.2020   32.7750 C   0  0  0  0  0  0  0  0  0  0  0  0
   38.1200   25.9200   33.7010 C   0  0  0  0  0  0  0  0  0  0  0  0
   38.4310   24.5710   33.8840 C   0  0  0  0  0  0  0  0  0  0  0  0
   37.7950   23.5620   33.2130 C   0  0  0  0  0  0  0  0  0  0  0  0
   38.2670   21.9120   33.5300 Cl  0  0  0  0  0  0  0  0  0  0  0  0
   36.7930   23.8890   32.3070 C   0  0  0  0  0  0  0  0  0  0  0  0
   38.6430   26.7000   34.2500 H   0  0  0  0  0  0  0  0  0  0  0  0
   39.2210   24.3890   34.6050 H   0  0  0  0  0  0  0  0  0  0  0  0
   36.0860   22.8060   31.5640 C   0  0  0  0  0  0  0  0  0  0  0  0
   37.0210   21.9640   30.9490 F   0  0  0  0  0  0  0  0  0  0  0  0
   35.2020   23.2980   30.6540 F   0  0  0  0  0  0  0  0  0  0  0  0
   35.3920   22.0130   32.4690 F   0  0  0  0  0  0  0  0  0  0  0  0
   32.7310   29.3080   33.8470 Cl  0  0  0  0  0  0  0  0  0  0  0  0
   33.8150   30.2590   34.8360 C   0  0  0  0  0  0  0  0  0  0  0  0
   35.1620   30.2470   34.5420 C   0  0  0  0  0  0  0  0  0  0  0  0
   35.9100   31.0190   35.4030 C   0  0  0  0  0  0  0  0  0  0  0  0
   36.9760   31.1960   35.3570 H   0  0  0  0  0  0  0  0  0  0  0  0
   35.3760   31.7250   36.4460 C   0  0  0  0  0  0  0  0  0  0  0  0
   35.9230   32.3540   37.1610 H   0  0  0  0  0  0  0  0  0  0  0  0
   34.0210   31.7120   36.7090 C   0  0  0  0  0  3  0  0  0  0  0  0
   33.2270   30.9540   35.8740 C   0  0  0  0  0  3  0  0  0  0  0  0
   35.6890   31.6440   31.9290 C   0  0  0  0  0  0  0  0  0  0  0  0
   36.4670   32.4870   32.7040 F   0  0  0  0  0  0  0  0  0  0  0  0
   35.9320   31.9310   30.6070 F   0  0  0  0  0  0  0  0  0  0  0  0
   34.3610   31.9210   32.1830 F   0  0  0  0  0  0  0  0  0  0  0  0
  1  6  2  0  0  0  0
  1  2  1  0  0  0  0
  2  3  2  0  0  0  0
  3  4  1  0  0  0  0
  3 24  1  0  0  0  0
  5 10  1  0  0  0  0
  5  4  2  0  0  0  0
  6  5  1  0  0  0  0
  7  1  1  0  0  0  0
  8  9  1  0  0  0  0
  9 15  2  0  0  0  0
  9 10  1  0  0  0  0
 10 11  2  0  0  0  0
 11 12  1  0  0  0  0
 11 16  1  0  0  0  0
 12 17  1  0  0  0  0
 13 14  1  0  0  0  0
 13 12  2  0  0  0  0
 15 13  1  0  0  0  0
 18 15  1  0  0  0  0
 18 21  1  0  0  0  0
 19 18  1  0  0  0  0
 20 18  1  0  0  0  0
 22 23  1  0  0  0  0
 23 30  1  0  0  0  0
 24 23  2  0  0  0  0
 24 25  1  0  0  0  0
 25 27  2  0  0  0  0
 26 25  1  0  0  0  0
 27 29  1  0  0  0  0
 27 28  1  0  0  0  0
 30 29  2  0  0  0  0
 31 34  1  0  0  0  0
 31  2  1  0  0  0  0
 31 32  1  0  0  0  0
 33 31  1  0  0  0  0
M  END
>  <minimizedAffinity>
-6.57500029

$$$$

 OpenBabel03272500203D

 34 36  0  0  0  0  0  0  0  0999 V2000
   36.5080   29.2820   31.0470 C   0  0  0  0  0  0  0  0  0  0  0  0
   37.3900   28.3030   31.5680 C   0  0  0  0  0  0  0  0  0  0  0  0
   37.1610   27.7930   32.8450 C   0  0  0  0  0  0  0  0  0  0  0  0
   36.0850   28.2800   33.5140 N   0  0  0  0  0  0  0  0  0  0  0  0
   35.2720   29.1890   33.0230 C   0  0  0  0  0  0  0  0  0  0  0  0
   35.4640   29.6990   31.8030 N   0  0  0  0  0  0  0  0  0  0  0  0
   36.6900   29.6780   30.0510 H   0  0  0  0  0  0  0  0  0  0  0  0
   36.0130   30.8460   35.4240 Cl  0  0  0  0  0  0  0  0  0  0  0  0
   34.3770   30.4410   34.9710 C   0  0  0  0  0  0  0  0  0  0  0  0
   34.1500   29.6720   33.8420 C   0  0  0  0  0  0  0  0  0  0  0  0
   32.8490   29.3260   33.4320 C   0  0  0  0  0  0  0  0  0  0  0  0
   31.8050   29.8000   34.2280 C   0  0  0  0  0  0  0  0  0  0  0  0
   32.0080   30.5610   35.3480 C   0  0  0  0  0  0  0  0  0  0  0  0
   30.6230   31.0910   36.2680 Cl  0  0  0  0  0  0  0  0  0  0  0  0
   33.3110   30.8790   35.7130 C   0  0  0  0  0  0  0  0  0  0  0  0
   32.6570   28.7230   32.5480 H   0  0  0  0  0  0  0  0  0  0  0  0
   30.8170   29.5130   33.8850 H   0  0  0  0  0  0  0  0  0  0  0  0
   33.5560   31.7060   36.9290 C   0  0  0  0  0  0  0  0  0  0  0  0
   32.9740   32.9690   36.7690 F   0  0  0  0  0  0  0  0  0  0  0  0
   34.8810   31.8150   37.2210 F   0  0  0  0  0  0  0  0  0  0  0  0
   32.9130   31.1230   38.0130 F   0  0  0  0  0  0  0  0  0  0  0  0
   36.5320   24.8340   32.2400 Cl  0  0  0  0  0  0  0  0  0  0  0  0
   37.7790   25.4010   33.3270 C   0  0  0  0  0  0  0  0  0  0  0  0
   37.9730   26.7600   33.4600 C   0  0  0  0  0  0  0  0  0  0  0  0
   38.9940   27.0780   34.3280 C   0  0  0  0  0  0  0  0  0  0  0  0
   39.3110   28.0690   34.6220 H   0  0  0  0  0  0  0  0  0  0  0  0
   39.7420   26.1440   34.9910 C   0  0  0  0  0  0  0  0  0  0  0  0
   40.5650   26.3400   35.6910 H   0  0  0  0  0  0  0  0  0  0  0  0
   39.5180   24.7920   34.8320 C   0  0  0  0  0  3  0  0  0  0  0  0
   38.5040   24.4200   33.9730 C   0  0  0  0  0  3  0  0  0  0  0  0
   38.5230   27.8390   30.7060 C   0  0  0  0  0  0  0  0  0  0  0  0
   38.2880   26.5630   30.2240 F   0  0  0  0  0  0  0  0  0  0  0  0
   38.6450   28.6880   29.6310 F   0  0  0  0  0  0  0  0  0  0  0  0
   39.7300   27.8350   31.3780 F   0  0  0  0  0  0  0  0  0  0  0  0
  1  2  2  0  0  0  0
  1  6  1  0  0  0  0
  2  3  1  0  0  0  0
  3 24  1  0  0  0  0
  3  4  2  0  0  0  0
  5  4  1  0  0  0  0
  5 10  1  0  0  0  0
  6  5  2  0  0  0  0
  7  1  1  0  0  0  0
  9  8  1  0  0  0  0
  9 15  1  0  0  0  0
 10  9  2  0  0  0  0
 11 10  1  0  0  0  0
 11 12  2  0  0  0  0
 12 13  1  0  0  0  0
 13 15  2  0  0  0  0
 13 14  1  0  0  0  0
 15 18  1  0  0  0  0
 16 11  1  0  0  0  0
 17 12  1  0  0  0  0
 18 20  1  0  0  0  0
 18 21  1  0  0  0  0
 19 18  1  0  0  0  0
 22 23  1  0  0  0  0
 23 24  2  0  0  0  0
 23 30  1  0  0  0  0
 24 25  1  0  0  0  0
 25 26  1  0  0  0  0
 25 27  2  0  0  0  0
 27 28  1  0  0  0  0
 29 27  1  0  0  0  0
 30 29  2  0  0  0  0
 31 34  1  0  0  0  0
 31  2  1  0  0  0  0
 32 31  1  0  0  0  0
 33 31  1  0  0  0  0
M  END
>  <minimizedAffinity>
-6.44810724

$$$$

 OpenBabel03272500203D

 34 36  0  0  0  0  0  0  0  0999 V2000
   36.0410   29.4840   31.7800 C   0  0  0  0  0  0  0  0  0  0  0  0
   35.1660   30.1330   32.6850 C   0  0  0  0  0  0  0  0  0  0  0  0
   35.1230   29.7070   34.0130 C   0  0  0  0  0  0  0  0  0  0  0  0
   35.9410   28.6780   34.3510 N   0  0  0  0  0  0  0  0  0  0  0  0
   36.7500   28.0810   33.5030 C   0  0  0  0  0  0  0  0  0  0  0  0
   36.8150   28.4650   32.2240 N   0  0  0  0  0  0  0  0  0  0  0  0
   36.0700   29.8190   30.7460 H   0  0  0  0  0  0  0  0  0  0  0  0
   36.2220   25.4330   32.1740 Cl  0  0  0  0  0  0  0  0  0  0  0  0
   37.4160   25.6910   33.4210 C   0  0  0  0  0  0  0  0  0  0  0  0
   37.5760   26.9560   33.9630 C   0  0  0  0  0  0  0  0  0  0  0  0
   38.5300   27.2150   34.9650 C   0  0  0  0  0  0  0  0  0  0  0  0
   39.2990   26.1280   35.3810 C   0  0  0  0  0  0  0  0  0  0  0  0
   39.1560   24.8700   34.8590 C   0  0  0  0  0  0  0  0  0  0  0  0
   40.1730   23.5860   35.4630 Cl  0  0  0  0  0  0  0  0  0  0  0  0
   38.2020   24.6620   33.8700 C   0  0  0  0  0  0  0  0  0  0  0  0
   38.6660   28.2030   35.3990 H   0  0  0  0  0  0  0  0  0  0  0  0
   40.0220   26.3620   36.1550 H   0  0  0  0  0  0  0  0  0  0  0  0
   38.0280   23.3000   33.2860 C   0  0  0  0  0  0  0  0  0  0  0  0
   39.2490   22.8430   32.7760 F   0  0  0  0  0  0  0  0  0  0  0  0
   37.0600   23.2690   32.3300 F   0  0  0  0  0  0  0  0  0  0  0  0
   37.6780   22.4140   34.2960 F   0  0  0  0  0  0  0  0  0  0  0  0
   36.3070   31.9870   35.7200 Cl  0  0  0  0  0  0  0  0  0  0  0  0
   34.7040   31.3110   35.9050 C   0  0  0  0  0  0  0  0  0  0  0  0
   34.2980   30.3240   35.0340 C   0  0  0  0  0  0  0  0  0  0  0  0
   33.0130   29.8890   35.2710 C   0  0  0  0  0  0  0  0  0  0  0  0
   32.4860   29.1030   34.7470 H   0  0  0  0  0  0  0  0  0  0  0  0
   32.2170   30.3850   36.2680 C   0  0  0  0  0  0  0  0  0  0  0  0
   31.1900   30.0770   36.5010 H   0  0  0  0  0  0  0  0  0  0  0  0
   32.6600   31.3750   37.1210 C   0  0  0  0  0  3  0  0  0  0  0  0
   33.9430   31.8440   36.9260 C   0  0  0  0  0  3  0  0  0  0  0  0
   34.3370   31.2730   32.1790 C   0  0  0  0  0  0  0  0  0  0  0  0
   34.6480   32.4450   32.8460 F   0  0  0  0  0  0  0  0  0  0  0  0
   34.6000   31.4580   30.8420 F   0  0  0  0  0  0  0  0  0  0  0  0
   32.9820   31.0410   32.3130 F   0  0  0  0  0  0  0  0  0  0  0  0
  1  6  2  0  0  0  0
  1  2  1  0  0  0  0
  2  3  2  0  0  0  0
  3  4  1  0  0  0  0
  3 24  1  0  0  0  0
  5 10  1  0  0  0  0
  5  4  2  0  0  0  0
  6  5  1  0  0  0  0
  7  1  1  0  0  0  0
  8  9  1  0  0  0  0
  9 15  2  0  0  0  0
  9 10  1  0  0  0  0
 10 11  2  0  0  0  0
 11 12  1  0  0  0  0
 11 16  1  0  0  0  0
 12 17  1  0  0  0  0
 13 12  2  0  0  0  0
 13 14  1  0  0  0  0
 15 13  1  0  0  0  0
 18 15  1  0  0  0  0
 18 21  1  0  0  0  0
 19 18  1  0  0  0  0
 20 18  1  0  0  0  0
 22 23  1  0  0  0  0
 23 30  1  0  0  0  0
 24 25  1  0  0  0  0
 24 23  2  0  0  0  0
 25 27  2  0  0  0  0
 26 25  1  0  0  0  0
 27 28  1  0  0  0  0
 27 29  1  0  0  0  0
 30 29  2  0  0  0  0
 31 34  1  0  0  0  0
 31  2  1  0  0  0  0
 31 32  1  0  0  0  0
 33 31  1  0  0  0  0
M  END
>  <minimizedAffinity>
-6.24408007

$$$$

 OpenBabel03272500203D

 34 36  0  0  0  0  0  0  0  0999 V2000
   36.0620   30.2600   31.6370 C   0  0  0  0  0  0  0  0  0  0  0  0
   35.2500   30.8350   32.6450 C   0  0  0  0  0  0  0  0  0  0  0  0
   34.9800   30.1030   33.8010 C   0  0  0  0  0  0  0  0  0  0  0  0
   35.5280   28.8640   33.8810 N   0  0  0  0  0  0  0  0  0  0  0  0
   36.2800   28.3380   32.9400 C   0  0  0  0  0  0  0  0  0  0  0  0
   36.5570   29.0120   31.8190 N   0  0  0  0  0  0  0  0  0  0  0  0
   36.2680   30.8340   30.7370 H   0  0  0  0  0  0  0  0  0  0  0  0
   37.9520   27.8690   35.3980 Cl  0  0  0  0  0  0  0  0  0  0  0  0
   37.5850   26.6480   34.2050 C   0  0  0  0  0  0  0  0  0  0  0  0
   36.8030   26.9740   33.1110 C   0  0  0  0  0  0  0  0  0  0  0  0
   36.4740   26.0230   32.1270 C   0  0  0  0  0  0  0  0  0  0  0  0
   36.9830   24.7380   32.3170 C   0  0  0  0  0  0  0  0  0  0  0  0
   37.7600   24.3950   33.3920 C   0  0  0  0  0  0  0  0  0  0  0  0
   38.3440   22.7550   33.5190 Cl  0  0  0  0  0  0  0  0  0  0  0  0
   38.0570   25.3670   34.3390 C   0  0  0  0  0  0  0  0  0  0  0  0
   35.8610   26.2660   31.2620 H   0  0  0  0  0  0  0  0  0  0  0  0
   36.7130   24.0300   31.5400 H   0  0  0  0  0  0  0  0  0  0  0  0
   38.9010   25.0170   35.5180 C   0  0  0  0  0  0  0  0  0  0  0  0
   38.1820   25.2400   36.6980 F   0  0  0  0  0  0  0  0  0  0  0  0
   40.0780   25.6990   35.5300 F   0  0  0  0  0  0  0  0  0  0  0  0
   39.1790   23.6570   35.4890 F   0  0  0  0  0  0  0  0  0  0  0  0
   36.3570   31.8730   35.9210 Cl  0  0  0  0  0  0  0  0  0  0  0  0
   34.6840   31.3610   35.9600 C   0  0  0  0  0  0  0  0  0  0  0  0
   34.1980   30.6080   34.9130 C   0  0  0  0  0  0  0  0  0  0  0  0
   32.8660   30.2850   35.0530 C   0  0  0  0  0  0  0  0  0  0  0  0
   32.2720   29.6770   34.3840 H   0  0  0  0  0  0  0  0  0  0  0  0
   32.1000   30.6730   36.1180 C   0  0  0  0  0  0  0  0  0  0  0  0
   31.0390   30.4460   36.2800 H   0  0  0  0  0  0  0  0  0  0  0  0
   32.6240   31.4280   37.1480 C   0  0  0  0  0  3  0  0  0  0  0  0
   33.9560   31.7770   37.0570 C   0  0  0  0  0  3  0  0  0  0  0  0
   34.7320   32.2250   32.4330 C   0  0  0  0  0  0  0  0  0  0  0  0
   35.0820   32.6970   31.1800 F   0  0  0  0  0  0  0  0  0  0  0  0
   33.3600   32.2090   32.5170 F   0  0  0  0  0  0  0  0  0  0  0  0
   35.2020   33.1130   33.3790 F   0  0  0  0  0  0  0  0  0  0  0  0
  1  6  2  0  0  0  0
  1  2  1  0  0  0  0
  2  3  2  0  0  0  0
  3  4  1  0  0  0  0
  3 24  1  0  0  0  0
  5 10  1  0  0  0  0
  5  4  2  0  0  0  0
  6  5  1  0  0  0  0
  7  1  1  0  0  0  0
  9 15  1  0  0  0  0
  9  8  1  0  0  0  0
 10  9  2  0  0  0  0
 11 12  2  0  0  0  0
 11 10  1  0  0  0  0
 12 13  1  0  0  0  0
 13 14  1  0  0  0  0
 13 15  2  0  0  0  0
 15 18  1  0  0  0  0
 16 11  1  0  0  0  0
 17 12  1  0  0  0  0
 18 20  1  0  0  0  0
 18 19  1  0  0  0  0
 21 18  1  0  0  0  0
 22 23  1  0  0  0  0
 23 30  1  0  0  0  0
 24 25  1  0  0  0  0
 24 23  2  0  0  0  0
 25 27  2  0  0  0  0
 26 25  1  0  0  0  0
 27 28  1  0  0  0  0
 27 29  1  0  0  0  0
 30 29  2  0  0  0  0
 31 33  1  0  0  0  0
 31  2  1  0  0  0  0
 31 34  1  0  0  0  0
 32 31  1  0  0  0  0
M  END
>  <minimizedAffinity>
-6.23787832

$$$$

 OpenBabel03272500203D

 34 36  0  0  0  0  0  0  0  0999 V2000
   35.6470   28.0800   32.1140 C   0  0  0  0  0  0  0  0  0  0  0  0
   36.5440   27.1200   32.6430 C   0  0  0  0  0  0  0  0  0  0  0  0
   37.0050   27.2680   33.9510 C   0  0  0  0  0  0  0  0  0  0  0  0
   36.5510   28.3450   34.6410 N   0  0  0  0  0  0  0  0  0  0  0  0
   35.7190   29.2320   34.1410 C   0  0  0  0  0  0  0  0  0  0  0  0
   35.2580   29.1190   32.8910 N   0  0  0  0  0  0  0  0  0  0  0  0
   35.2910   27.9610   31.0940 H   0  0  0  0  0  0  0  0  0  0  0  0
   32.8590   29.2260   35.0790 Cl  0  0  0  0  0  0  0  0  0  0  0  0
   34.0150   30.4810   35.4450 C   0  0  0  0  0  0  0  0  0  0  0  0
   35.3090   30.3810   34.9620 C   0  0  0  0  0  0  0  0  0  0  0  0
   36.2780   31.3630   35.2370 C   0  0  0  0  0  0  0  0  0  0  0  0
   35.8600   32.4410   36.0190 C   0  0  0  0  0  0  0  0  0  0  0  0
   34.5860   32.5580   36.5050 C   0  0  0  0  0  0  0  0  0  0  0  0
   34.1780   33.9560   37.4690 Cl  0  0  0  0  0  0  0  0  0  0  0  0
   33.6630   31.5630   36.2100 C   0  0  0  0  0  0  0  0  0  0  0  0
   37.2980   31.2980   34.8640 H   0  0  0  0  0  0  0  0  0  0  0  0
   36.6310   33.1800   36.2100 H   0  0  0  0  0  0  0  0  0  0  0  0
   32.2680   31.6690   36.7290 C   0  0  0  0  0  0  0  0  0  0  0  0
   32.0380   30.6660   37.6770 F   0  0  0  0  0  0  0  0  0  0  0  0
   31.3420   31.6200   35.7330 F   0  0  0  0  0  0  0  0  0  0  0  0
   32.1260   32.8750   37.4030 F   0  0  0  0  0  0  0  0  0  0  0  0
   40.0270   27.3770   33.3410 Cl  0  0  0  0  0  0  0  0  0  0  0  0
   39.2490   26.2190   34.3960 C   0  0  0  0  0  0  0  0  0  0  0  0
   37.8910   26.3260   34.6080 C   0  0  0  0  0  0  0  0  0  0  0  0
   37.4020   25.3700   35.4710 C   0  0  0  0  0  0  0  0  0  0  0  0
   36.3710   25.2260   35.7640 H   0  0  0  0  0  0  0  0  0  0  0  0
   38.1810   24.4120   36.0600 C   0  0  0  0  0  0  0  0  0  0  0  0
   37.8460   23.6290   36.7530 H   0  0  0  0  0  0  0  0  0  0  0  0
   39.5390   24.3380   35.8230 C   0  0  0  0  0  3  0  0  0  0  0  0
   40.0780   25.2730   34.9640 C   0  0  0  0  0  3  0  0  0  0  0  0
   36.9420   25.9660   31.7750 C   0  0  0  0  0  0  0  0  0  0  0  0
   36.8070   24.7670   32.4540 F   0  0  0  0  0  0  0  0  0  0  0  0
   36.1200   25.9300   30.6740 F   0  0  0  0  0  0  0  0  0  0  0  0
   38.2440   26.0670   31.3260 F   0  0  0  0  0  0  0  0  0  0  0  0
  1  2  2  0  0  0  0
  1  6  1  0  0  0  0
  2  3  1  0  0  0  0
  3 24  1  0  0  0  0
  3  4  2  0  0  0  0
  5  4  1  0  0  0  0
  5 10  1  0  0  0  0
  6  5  2  0  0  0  0
  7  1  1  0  0  0  0
  8  9  1  0  0  0  0
  9 15  1  0  0  0  0
 10 11  1  0  0  0  0
 10  9  2  0  0  0  0
 11 12  2  0  0  0  0
 12 17  1  0  0  0  0
 12 13  1  0  0  0  0
 13 14  1  0  0  0  0
 15 13  2  0  0  0  0
 15 18  1  0  0  0  0
 16 11  1  0  0  0  0
 18 21  1  0  0  0  0
 18 19  1  0  0  0  0
 20 18  1  0  0  0  0
 22 23  1  0  0  0  0
 23 24  2  0  0  0  0
 23 30  1  0  0  0  0
 24 25  1  0  0  0  0
 25 26  1  0  0  0  0
 25 27  2  0  0  0  0
 27 28  1  0  0  0  0
 29 27  1  0  0  0  0
 30 29  2  0  0  0  0
 31 32  1  0  0  0  0
 31  2  1  0  0  0  0
 33 31  1  0  0  0  0
 34 31  1  0  0  0  0
M  END
>  <minimizedAffinity>
-6.21484041

$$$$

 OpenBabel03272500203D

 34 36  0  0  0  0  0  0  0  0999 V2000
   36.1530   28.5470   31.9940 C   0  0  0  0  0  0  0  0  0  0  0  0
   35.5520   29.5380   32.8080 C   0  0  0  0  0  0  0  0  0  0  0  0
   35.7580   29.5020   34.1870 C   0  0  0  0  0  0  0  0  0  0  0  0
   36.5380   28.4970   34.6620 N   0  0  0  0  0  0  0  0  0  0  0  0
   37.0910   27.5810   33.8980 C   0  0  0  0  0  0  0  0  0  0  0  0
   36.9130   27.5870   32.5740 N   0  0  0  0  0  0  0  0  0  0  0  0
   35.9890   28.5790   30.9200 H   0  0  0  0  0  0  0  0  0  0  0  0
   39.9100   27.3070   32.8830 Cl  0  0  0  0  0  0  0  0  0  0  0  0
   39.2050   26.3000   34.1220 C   0  0  0  0  0  0  0  0  0  0  0  0
   37.8950   26.5160   34.5150 C   0  0  0  0  0  0  0  0  0  0  0  0
   37.2850   25.7360   35.5150 C   0  0  0  0  0  0  0  0  0  0  0  0
   38.0740   24.7340   36.0830 C   0  0  0  0  0  0  0  0  0  0  0  0
   39.3710   24.5040   35.7070 C   0  0  0  0  0  0  0  0  0  0  0  0
   40.2570   23.2170   36.4860 Cl  0  0  0  0  0  0  0  0  0  0  0  0
   39.9310   25.3010   34.7170 C   0  0  0  0  0  0  0  0  0  0  0  0
   36.2580   25.8940   35.8330 H   0  0  0  0  0  0  0  0  0  0  0  0
   37.5730   24.1500   36.8480 H   0  0  0  0  0  0  0  0  0  0  0  0
   41.3420   25.0690   34.2920 C   0  0  0  0  0  0  0  0  0  0  0  0
   41.7650   26.1140   33.4610 F   0  0  0  0  0  0  0  0  0  0  0  0
   41.5060   23.8650   33.6810 F   0  0  0  0  0  0  0  0  0  0  0  0
   42.1660   25.1120   35.4090 F   0  0  0  0  0  0  0  0  0  0  0  0
   32.8490   29.2180   35.1740 Cl  0  0  0  0  0  0  0  0  0  0  0  0
   33.9380   30.5220   35.5930 C   0  0  0  0  0  0  0  0  0  0  0  0
   35.2280   30.4870   35.1100 C   0  0  0  0  0  0  0  0  0  0  0  0
   35.9900   31.5580   35.5250 C   0  0  0  0  0  0  0  0  0  0  0  0
   37.0150   31.7700   35.2520 H   0  0  0  0  0  0  0  0  0  0  0  0
   35.5180   32.5540   36.3360 C   0  0  0  0  0  0  0  0  0  0  0  0
   36.0780   33.4260   36.6970 H   0  0  0  0  0  0  0  0  0  0  0  0
   34.2180   32.5530   36.8000 C   0  0  0  0  0  3  0  0  0  0  0  0
   33.4130   31.5020   36.4110 C   0  0  0  0  0  3  0  0  0  0  0  0
   34.7360   30.6040   32.1440 C   0  0  0  0  0  0  0  0  0  0  0  0
   35.1680   31.8640   32.5200 F   0  0  0  0  0  0  0  0  0  0  0  0
   34.8770   30.4910   30.7810 F   0  0  0  0  0  0  0  0  0  0  0  0
   33.3910   30.4990   32.4380 F   0  0  0  0  0  0  0  0  0  0  0  0
  1  6  2  0  0  0  0
  1  2  1  0  0  0  0
  2  3  2  0  0  0  0
  3  4  1  0  0  0  0
  3 24  1  0  0  0  0
  5 10  1  0  0  0  0
  5  4  2  0  0  0  0
  6  5  1  0  0  0  0
  7  1  1  0  0  0  0
  8  9  1  0  0  0  0
  9 10  2  0  0  0  0
  9 15  1  0  0  0  0
 10 11  1  0  0  0  0
 11 16  1  0  0  0  0
 11 12  2  0  0  0  0
 12 17  1  0  0  0  0
 13 12  1  0  0  0  0
 13 14  1  0  0  0  0
 15 13  2  0  0  0  0
 18 15  1  0  0  0  0
 18 21  1  0  0  0  0
 19 18  1  0  0  0  0
 20 18  1  0  0  0  0
 22 23  1  0  0  0  0
 23 30  1  0  0  0  0
 24 25  1  0  0  0  0
 24 23  2  0  0  0  0
 25 27  2  0  0  0  0
 26 25  1  0  0  0  0
 27 28  1  0  0  0  0
 27 29  1  0  0  0  0
 30 29  2  0  0  0  0
 31 34  1  0  0  0  0
 31 32  1  0  0  0  0
 31  2  1  0  0  0  0
 33 31  1  0  0  0  0
M  END
>  <minimizedAffinity>
-6.05559254

$$$$

 OpenBabel03272500203D

 34 36  0  0  0  0  0  0  0  0999 V2000
   36.5770   29.0200   30.3230 C   0  0  0  0  0  0  0  0  0  0  0  0
   36.0150   29.8020   31.3620 C   0  0  0  0  0  0  0  0  0  0  0  0
   35.5850   29.1730   32.5300 C   0  0  0  0  0  0  0  0  0  0  0  0
   35.7380   27.8260   32.5910 N   0  0  0  0  0  0  0  0  0  0  0  0
   36.2600   27.1080   31.6200 C   0  0  0  0  0  0  0  0  0  0  0  0
   36.6810   27.6800   30.4880 N   0  0  0  0  0  0  0  0  0  0  0  0
   36.9100   29.5150   29.4140 H   0  0  0  0  0  0  0  0  0  0  0  0
   38.4390   26.1160   33.4430 Cl  0  0  0  0  0  0  0  0  0  0  0  0
   37.3230   25.0830   32.5850 C   0  0  0  0  0  0  0  0  0  0  0  0
   36.3550   25.6480   31.7720 C   0  0  0  0  0  0  0  0  0  0  0  0
   35.4290   24.8580   31.0670 C   0  0  0  0  0  0  0  0  0  0  0  0
   35.5430   23.4770   31.2320 C   0  0  0  0  0  0  0  0  0  0  0  0
   36.4940   22.8990   32.0310 C   0  0  0  0  0  0  0  0  0  0  0  0
   36.5430   21.1580   32.1550 Cl  0  0  0  0  0  0  0  0  0  0  0  0
   37.3860   23.7190   32.7090 C   0  0  0  0  0  0  0  0  0  0  0  0
   34.6640   25.2890   30.4250 H   0  0  0  0  0  0  0  0  0  0  0  0
   34.8160   22.8980   30.6740 H   0  0  0  0  0  0  0  0  0  0  0  0
   38.4300   23.1120   33.5850 C   0  0  0  0  0  0  0  0  0  0  0  0
   38.4710   21.7270   33.3830 F   0  0  0  0  0  0  0  0  0  0  0  0
   38.2360   23.4060   34.8990 F   0  0  0  0  0  0  0  0  0  0  0  0
   39.6770   23.5920   33.2060 F   0  0  0  0  0  0  0  0  0  0  0  0
   32.5270   29.5160   32.7490 Cl  0  0  0  0  0  0  0  0  0  0  0  0
   33.7010   30.1530   33.8790 C   0  0  0  0  0  0  0  0  0  0  0  0
   35.0350   29.8770   33.6730 C   0  0  0  0  0  0  0  0  0  0  0  0
   35.8550   30.4190   34.6390 C   0  0  0  0  0  0  0  0  0  0  0  0
   36.9340   30.3700   34.6760 H   0  0  0  0  0  0  0  0  0  0  0  0
   35.3950   31.1540   35.6970 C   0  0  0  0  0  0  0  0  0  0  0  0
   36.0000   31.6060   36.4930 H   0  0  0  0  0  0  0  0  0  0  0  0
   34.0490   31.4090   35.8700 C   0  0  0  0  0  3  0  0  0  0  0  0
   33.1860   30.8900   34.9270 C   0  0  0  0  0  3  0  0  0  0  0  0
   35.9310   31.2850   31.1690 C   0  0  0  0  0  0  0  0  0  0  0  0
   36.7510   31.9480   32.0650 F   0  0  0  0  0  0  0  0  0  0  0  0
   36.3480   31.5950   29.8960 F   0  0  0  0  0  0  0  0  0  0  0  0
   34.6450   31.7650   31.3190 F   0  0  0  0  0  0  0  0  0  0  0  0
  1  6  2  0  0  0  0
  1  2  1  0  0  0  0
  2  3  2  0  0  0  0
  3  4  1  0  0  0  0
  3 24  1  0  0  0  0
  5 10  1  0  0  0  0
  5  4  2  0  0  0  0
  6  5  1  0  0  0  0
  7  1  1  0  0  0  0
  9 15  1  0  0  0  0
  9  8  1  0  0  0  0
 10  9  2  0  0  0  0
 11 12  2  0  0  0  0
 11 10  1  0  0  0  0
 12 13  1  0  0  0  0
 13 14  1  0  0  0  0
 13 15  2  0  0  0  0
 15 18  1  0  0  0  0
 16 11  1  0  0  0  0
 17 12  1  0  0  0  0
 18 20  1  0  0  0  0
 19 18  1  0  0  0  0
 21 18  1  0  0  0  0
 22 23  1  0  0  0  0
 23 30  1  0  0  0  0
 24 23  2  0  0  0  0
 24 25  1  0  0  0  0
 25 26  1  0  0  0  0
 25 27  2  0  0  0  0
 27 29  1  0  0  0  0
 27 28  1  0  0  0  0
 30 29  2  0  0  0  0
 31 34  1  0  0  0  0
 31  2  1  0  0  0  0
 31 32  1  0  0  0  0
 33 31  1  0  0  0  0
M  END
>  <minimizedAffinity>
-5.9956274

$$$$

 OpenBabel03272500203D

 34 36  0  0  0  0  0  0  0  0999 V2000
   36.3530   30.6400   31.5650 C   0  0  0  0  0  0  0  0  0  0  0  0
   35.5930   31.1200   32.6600 C   0  0  0  0  0  0  0  0  0  0  0  0
   35.4080   30.2980   33.7710 C   0  0  0  0  0  0  0  0  0  0  0  0
   35.9810   29.0680   33.7240 N   0  0  0  0  0  0  0  0  0  0  0  0
   36.6840   28.6310   32.7020 C   0  0  0  0  0  0  0  0  0  0  0  0
   36.8810   29.3940   31.6220 N   0  0  0  0  0  0  0  0  0  0  0  0
   36.4940   31.2840   30.7000 H   0  0  0  0  0  0  0  0  0  0  0  0
   35.1360   26.5370   31.1940 Cl  0  0  0  0  0  0  0  0  0  0  0  0
   36.6080   26.2290   32.0800 C   0  0  0  0  0  0  0  0  0  0  0  0
   37.2410   27.2700   32.7380 C   0  0  0  0  0  0  0  0  0  0  0  0
   38.4330   27.0740   33.4590 C   0  0  0  0  0  0  0  0  0  0  0  0
   38.9370   25.7720   33.4740 C   0  0  0  0  0  0  0  0  0  0  0  0
   38.3260   24.7290   32.8310 C   0  0  0  0  0  0  0  0  0  0  0  0
   39.0480   23.1430   32.9260 Cl  0  0  0  0  0  0  0  0  0  0  0  0
   37.1510   24.9710   32.1300 C   0  0  0  0  0  0  0  0  0  0  0  0
   38.9400   27.8820   33.9800 H   0  0  0  0  0  0  0  0  0  0  0  0
   39.8550   25.6550   34.0400 H   0  0  0  0  0  0  0  0  0  0  0  0
   36.4680   23.8510   31.4220 C   0  0  0  0  0  0  0  0  0  0  0  0
   37.3590   23.2390   30.5320 F   0  0  0  0  0  0  0  0  0  0  0  0
   35.3410   24.2580   30.7780 F   0  0  0  0  0  0  0  0  0  0  0  0
   36.1180   22.8750   32.3470 F   0  0  0  0  0  0  0  0  0  0  0  0
   32.4700   29.4210   34.1100 Cl  0  0  0  0  0  0  0  0  0  0  0  0
   33.3600   30.4300   35.2270 C   0  0  0  0  0  0  0  0  0  0  0  0
   34.6860   30.7000   34.9630 C   0  0  0  0  0  0  0  0  0  0  0  0
   35.2790   31.4880   35.9250 C   0  0  0  0  0  0  0  0  0  0  0  0
   36.2950   31.8600   35.9230 H   0  0  0  0  0  0  0  0  0  0  0  0
   34.6240   31.9550   37.0310 C   0  0  0  0  0  0  0  0  0  0  0  0
   35.0460   32.5840   37.8260 H   0  0  0  0  0  0  0  0  0  0  0  0
   33.2950   31.6630   37.2610 C   0  0  0  0  0  3  0  0  0  0  0  0
   32.6530   30.8780   36.3250 C   0  0  0  0  0  3  0  0  0  0  0  0
   35.0390   32.5090   32.5850 C   0  0  0  0  0  0  0  0  0  0  0  0
   33.6820   32.5160   32.8570 F   0  0  0  0  0  0  0  0  0  0  0  0
   35.6680   33.2930   33.5240 F   0  0  0  0  0  0  0  0  0  0  0  0
   35.2390   33.0920   31.3490 F   0  0  0  0  0  0  0  0  0  0  0  0
  1  6  2  0  0  0  0
  1  2  1  0  0  0  0
  2  3  2  0  0  0  0
  3 24  1  0  0  0  0
  4  3  1  0  0  0  0
  5 10  1  0  0  0  0
  5  4  2  0  0  0  0
  6  5  1  0  0  0  0
  7  1  1  0  0  0  0
  8  9  1  0  0  0  0
  9 15  2  0  0  0  0
  9 10  1  0  0  0  0
 10 11  2  0  0  0  0
 11 12  1  0  0  0  0
 11 16  1  0  0  0  0
 12 17  1  0  0  0  0
 13 14  1  0  0  0  0
 13 12  2  0  0  0  0
 15 13  1  0  0  0  0
 18 15  1  0  0  0  0
 18 21  1  0  0  0  0
 19 18  1  0  0  0  0
 20 18  1  0  0  0  0
 22 23  1  0  0  0  0
 23 30  1  0  0  0  0
 24 23  2  0  0  0  0
 24 25  1  0  0  0  0
 25 27  2  0  0  0  0
 26 25  1  0  0  0  0
 27 29  1  0  0  0  0
 27 28  1  0  0  0  0
 30 29  2  0  0  0  0
 31  2  1  0  0  0  0
 31 32  1  0  0  0  0
 31 33  1  0  0  0  0
 34 31  1  0  0  0  0
M  END
>  <minimizedAffinity>
-5.95692158

$$$$
