
 OpenBabel03272500113D

 21 22  0  0  0  0  0  0  0  0999 V2000
   35.4260   29.2240   50.3630 C   0  0  0  0  0  0  0  0  0  0  0  0
   36.3180   30.1220   49.7520 C   0  0  0  0  0  0  0  0  0  0  0  0
   36.2910   30.2460   48.3460 C   0  0  0  0  0  0  0  0  0  0  0  0
   35.3940   29.4800   47.6630 N   0  0  0  0  0  0  0  0  0  0  0  0
   34.5490   28.6250   48.2870 C   0  0  0  0  0  0  0  0  0  0  0  0
   34.5590   28.4940   49.6110 N   0  0  0  0  0  0  0  0  0  0  0  0
   35.4250   29.1090   51.4440 H   0  0  0  0  0  0  0  0  0  0  0  0
   36.9700   30.9280   47.8920 H   0  0  0  0  0  0  0  0  0  0  0  0
   32.7750   30.2360   46.4670 Cl  0  0  0  0  0  0  0  0  0  0  0  0
   32.7340   28.4750   46.6190 C   0  0  0  0  0  0  0  0  0  0  0  0
   33.6060   27.8260   47.4960 C   0  0  0  0  0  0  0  0  0  0  0  0
   33.5670   26.4470   47.6090 C   0  0  0  0  0  0  0  0  0  0  0  0
   34.2390   25.9270   48.2880 H   0  0  0  0  0  0  0  0  0  0  0  0
   32.6740   25.7270   46.8590 C   0  0  0  0  0  0  0  0  0  0  0  0
   32.5910   24.6550   46.8970 H   0  0  0  0  0  0  0  0  0  0  0  0
   31.8120   26.3730   45.9900 C   0  0  0  0  0  0  0  0  0  0  0  0
   31.8360   27.7470   45.8640 C   0  0  0  0  0  0  0  0  0  0  0  0
   37.2500   30.9020   50.6220 C   0  0  0  0  0  0  0  0  0  0  0  0
   38.5530   30.8180   50.1440 F   0  0  0  0  0  0  0  0  0  0  0  0
   36.8640   32.2340   50.5480 F   0  0  0  0  0  0  0  0  0  0  0  0
   37.2200   30.4910   51.9300 F   0  0  0  0  0  0  0  0  0  0  0  0
  1  7  1  0  0  0  0
  2  1  1  0  0  0  0
  2 18  1  0  0  0  0
  3  2  2  0  0  0  0
  4  5  2  0  0  0  0
  4  3  1  0  0  0  0
  5  6  1  0  0  0  0
  6  1  2  0  0  0  0
  8  3  1  0  0  0  0
  9 10  1  0  0  0  0
 10 11  1  0  0  0  0
 11 12  2  0  0  0  0
 11  5  1  0  0  0  0
 12 13  1  0  0  0  0
 14 15  1  0  0  0  0
 14 12  1  0  0  0  0
 16 14  2  0  0  0  0
 17 16  1  0  0  0  0
 17 10  2  0  0  0  0
 18 21  1  0  0  0  0
 19 18  1  0  0  0  0
 20 18  1  0  0  0  0
M  END
>  <minimizedAffinity>
-5.11964464

>  <minimizedRMSD>
0.454961926

$$$$
