
 OpenBabel03272506253D

 31 33  0  0  0  0  0  0  0  0999 V2000
   40.4900   23.7310   35.3570 C   0  0  0  0  0  0  0  0  0  0  0  0
   41.6060   23.0520   35.7910 C   0  0  0  0  0  0  0  0  0  0  0  0
   42.8680   23.5820   35.8750 C   0  0  0  0  0  0  0  0  0  0  0  0
   43.0560   24.9310   35.4910 C   0  0  0  0  0  0  0  0  0  0  0  0
   41.9360   25.6150   35.0550 C   0  0  0  0  0  0  0  0  0  0  0  0
   40.6850   25.0640   34.9790 C   0  0  0  0  0  0  0  0  0  0  0  0
   41.5610   22.0140   36.1080 H   0  0  0  0  0  0  0  0  0  0  0  0
   43.7350   23.0510   36.2110 H   0  0  0  0  0  0  0  0  0  0  0  0
   44.0250   25.3990   35.5350 H   0  0  0  0  0  0  0  0  0  0  0  0
   42.0020   26.6570   34.7430 H   0  0  0  0  0  0  0  0  0  0  0  0
   40.1300   24.9800   32.0070 Cl  0  0  0  0  0  0  0  0  0  0  0  0
   39.0940   25.7780   33.1970 C   0  0  0  0  0  0  0  0  0  0  0  0
   39.4750   25.7390   34.5220 C   0  0  0  0  0  0  0  0  0  0  0  0
   38.6260   26.3840   35.4320 C   0  0  0  0  0  0  0  0  0  0  0  0
   38.9140   26.3620   36.4950 H   0  0  0  0  0  0  0  0  0  0  0  0
   37.4670   27.0330   35.0620 C   0  0  0  0  0  0  0  0  0  0  0  0
   36.8650   27.5100   35.8530 H   0  0  0  0  0  0  0  0  0  0  0  0
   37.1010   27.0600   33.7340 C   0  0  0  0  0  3  0  0  0  0  0  0
   37.9320   26.4240   32.8100 C   0  0  0  0  0  3  0  0  0  0  0  0
   38.8640   22.4240   34.0960 C   0  0  0  0  0  0  0  0  0  0  0  0
   39.2390   23.0150   35.3360 C   0  0  0  0  0  0  0  0  0  0  0  0
   38.3730   22.8550   36.4190 C   0  0  0  0  0  0  0  0  0  0  0  0
   37.2300   22.1500   36.2280 N   0  0  0  0  0  0  0  0  0  0  0  0
   36.8860   21.5930   35.0360 C   0  0  0  0  0  0  0  0  0  0  0  0
   37.7190   21.7380   33.9650 N   0  0  0  0  0  0  0  0  0  0  0  0
   39.5530   22.5500   33.2450 H   0  0  0  0  0  0  0  0  0  0  0  0
   35.9650   21.0400   34.9350 H   0  0  0  0  0  0  0  0  0  0  0  0
   38.6440   23.4080   37.7500 C   0  0  0  0  0  0  0  0  0  0  0  0
   37.6580   22.9750   38.6630 F   0  0  0  0  0  0  0  0  0  0  0  0
   39.8620   23.1510   38.2920 F   0  0  0  0  0  0  0  0  0  0  0  0
   38.4440   24.8010   37.7410 F   0  0  0  0  0  0  0  0  0  0  0  0
  1  2  1  0  0  0  0
  2  3  2  0  0  0  0
  2  7  1  0  0  0  0
  3  8  1  0  0  0  0
  4  9  1  0  0  0  0
  4  3  1  0  0  0  0
  5  4  2  0  0  0  0
  6  5  1  0  0  0  0
  6  1  2  0  0  0  0
 10  5  1  0  0  0  0
 11 12  1  0  0  0  0
 12 13  1  0  0  0  0
 13  6  1  0  0  0  0
 13 14  2  0  0  0  0
 14 15  1  0  0  0  0
 16 14  1  0  0  0  0
 16 17  1  0  0  0  0
 18 16  2  0  0  0  0
 19 12  2  0  0  0  0
 19 18  1  0  0  0  0
 20 21  1  0  0  0  0
 21  1  1  0  0  0  0
 21 22  2  0  0  0  0
 22 28  1  0  0  0  0
 23 22  1  0  0  0  0
 24 23  2  0  0  0  0
 25 20  2  0  0  0  0
 25 24  1  0  0  0  0
 26 20  1  0  0  0  0
 27 24  1  0  0  0  0
 28 30  1  0  0  0  0
 28 29  1  0  0  0  0
 31 28  1  0  0  0  0
M  END
>  <minimizedAffinity>
-5.62235117

$$$$

 OpenBabel03272506253D

 31 33  0  0  0  0  0  0  0  0999 V2000
   38.8020   25.2130   35.3360 C   0  0  0  0  0  0  0  0  0  0  0  0
   38.7080   26.4500   35.9310 C   0  0  0  0  0  0  0  0  0  0  0  0
   37.9670   27.5010   35.4520 C   0  0  0  0  0  0  0  0  0  0  0  0
   37.2360   27.3160   34.2540 C   0  0  0  0  0  0  0  0  0  0  0  0
   37.3300   26.0720   33.6550 C   0  0  0  0  0  0  0  0  0  0  0  0
   38.0770   25.0380   34.1520 C   0  0  0  0  0  0  0  0  0  0  0  0
   39.2300   26.6870   36.8530 H   0  0  0  0  0  0  0  0  0  0  0  0
   37.8970   28.4630   35.9150 H   0  0  0  0  0  0  0  0  0  0  0  0
   36.6400   28.1050   33.8310 H   0  0  0  0  0  0  0  0  0  0  0  0
   36.7960   25.8540   32.7310 H   0  0  0  0  0  0  0  0  0  0  0  0
   40.0890   24.7620   31.9120 Cl  0  0  0  0  0  0  0  0  0  0  0  0
   39.0930   23.4390   32.5320 C   0  0  0  0  0  0  0  0  0  0  0  0
   38.2130   23.7130   33.5580 C   0  0  0  0  0  0  0  0  0  0  0  0
   37.4430   22.6370   34.0190 C   0  0  0  0  0  0  0  0  0  0  0  0
   36.7350   22.8360   34.8400 H   0  0  0  0  0  0  0  0  0  0  0  0
   37.5310   21.3610   33.5030 C   0  0  0  0  0  0  0  0  0  0  0  0
   36.8830   20.5810   33.9340 H   0  0  0  0  0  0  0  0  0  0  0  0
   38.4170   21.1060   32.4790 C   0  0  0  0  0  3  0  0  0  0  0  0
   39.1950   22.1630   32.0040 C   0  0  0  0  0  3  0  0  0  0  0  0
   40.9050   23.9810   35.4020 C   0  0  0  0  0  0  0  0  0  0  0  0
   39.6270   24.2230   35.9830 C   0  0  0  0  0  0  0  0  0  0  0  0
   39.2810   23.4880   37.1180 C   0  0  0  0  0  0  0  0  0  0  0  0
   40.1770   22.5910   37.6000 N   0  0  0  0  0  0  0  0  0  0  0  0
   41.3930   22.3720   37.0320 C   0  0  0  0  0  0  0  0  0  0  0  0
   41.7510   23.0790   35.9220 N   0  0  0  0  0  0  0  0  0  0  0  0
   41.1750   24.5660   34.5070 H   0  0  0  0  0  0  0  0  0  0  0  0
   42.0720   21.6470   37.4540 H   0  0  0  0  0  0  0  0  0  0  0  0
   38.0000   23.6460   37.8140 C   0  0  0  0  0  0  0  0  0  0  0  0
   37.9880   24.8620   38.5330 F   0  0  0  0  0  0  0  0  0  0  0  0
   36.8730   23.5930   37.0590 F   0  0  0  0  0  0  0  0  0  0  0  0
   37.8930   22.6950   38.8450 F   0  0  0  0  0  0  0  0  0  0  0  0
  1  2  1  0  0  0  0
  1 21  1  0  0  0  0
  2  7  1  0  0  0  0
  3  8  1  0  0  0  0
  3  2  2  0  0  0  0
  4  3  1  0  0  0  0
  5  6  1  0  0  0  0
  5  4  2  0  0  0  0
  6  1  2  0  0  0  0
  9  4  1  0  0  0  0
 10  5  1  0  0  0  0
 11 12  1  0  0  0  0
 12 13  1  0  0  0  0
 13 14  2  0  0  0  0
 13  6  1  0  0  0  0
 14 15  1  0  0  0  0
 16 17  1  0  0  0  0
 16 14  1  0  0  0  0
 18 16  2  0  0  0  0
 19 18  1  0  0  0  0
 19 12  2  0  0  0  0
 20 25  2  0  0  0  0
 20 21  1  0  0  0  0
 21 22  2  0  0  0  0
 22 23  1  0  0  0  0
 22 28  1  0  0  0  0
 24 27  1  0  0  0  0
 24 23  2  0  0  0  0
 25 24  1  0  0  0  0
 26 20  1  0  0  0  0
 28 29  1  0  0  0  0
 28 31  1  0  0  0  0
 30 28  1  0  0  0  0
M  END
>  <minimizedAffinity>
-5.60098553

$$$$

 OpenBabel03272506253D

 31 33  0  0  0  0  0  0  0  0999 V2000
   38.2780   22.6950   34.2780 C   0  0  0  0  0  0  0  0  0  0  0  0
   37.3920   21.6670   34.0460 C   0  0  0  0  0  0  0  0  0  0  0  0
   36.4590   21.6420   33.0400 C   0  0  0  0  0  0  0  0  0  0  0  0
   36.3880   22.7510   32.1630 C   0  0  0  0  0  0  0  0  0  0  0  0
   37.2780   23.7840   32.3960 C   0  0  0  0  0  0  0  0  0  0  0  0
   38.2000   23.7870   33.4070 C   0  0  0  0  0  0  0  0  0  0  0  0
   37.3720   20.7740   34.6640 H   0  0  0  0  0  0  0  0  0  0  0  0
   35.7700   20.8420   32.8630 H   0  0  0  0  0  0  0  0  0  0  0  0
   35.6750   22.7870   31.3580 H   0  0  0  0  0  0  0  0  0  0  0  0
   37.2830   24.6710   31.7620 H   0  0  0  0  0  0  0  0  0  0  0  0
   40.8120   23.7120   31.8860 Cl  0  0  0  0  0  0  0  0  0  0  0  0
   40.3820   24.9470   33.0760 C   0  0  0  0  0  0  0  0  0  0  0  0
   39.1540   24.8520   33.6970 C   0  0  0  0  0  0  0  0  0  0  0  0
   38.8530   25.8490   34.6340 C   0  0  0  0  0  0  0  0  0  0  0  0
   37.8760   25.7910   35.1400 H   0  0  0  0  0  0  0  0  0  0  0  0
   39.7100   26.8840   34.9460 C   0  0  0  0  0  0  0  0  0  0  0  0
   39.3820   27.6220   35.6970 H   0  0  0  0  0  0  0  0  0  0  0  0
   40.9320   26.9630   34.3140 C   0  0  0  0  0  3  0  0  0  0  0  0
   41.2530   25.9800   33.3770 C   0  0  0  0  0  3  0  0  0  0  0  0
   40.4950   22.0640   35.0720 C   0  0  0  0  0  0  0  0  0  0  0  0
   39.1930   22.5500   35.3830 C   0  0  0  0  0  0  0  0  0  0  0  0
   38.9110   22.8410   36.7180 C   0  0  0  0  0  0  0  0  0  0  0  0
   39.8880   22.6450   37.6380 N   0  0  0  0  0  0  0  0  0  0  0  0
   41.1270   22.1800   37.3240 C   0  0  0  0  0  0  0  0  0  0  0  0
   41.4230   21.8900   36.0250 N   0  0  0  0  0  0  0  0  0  0  0  0
   40.7140   21.8390   34.0150 H   0  0  0  0  0  0  0  0  0  0  0  0
   41.8710   22.0430   38.0930 H   0  0  0  0  0  0  0  0  0  0  0  0
   37.6110   23.3510   37.1690 C   0  0  0  0  0  0  0  0  0  0  0  0
   37.6120   23.4970   38.5740 F   0  0  0  0  0  0  0  0  0  0  0  0
   37.1800   24.5180   36.6240 F   0  0  0  0  0  0  0  0  0  0  0  0
   36.6180   22.3730   36.9770 F   0  0  0  0  0  0  0  0  0  0  0  0
  1 21  1  0  0  0  0
  2  1  1  0  0  0  0
  2  7  1  0  0  0  0
  3  2  2  0  0  0  0
  4  5  2  0  0  0  0
  4  3  1  0  0  0  0
  5  6  1  0  0  0  0
  6 13  1  0  0  0  0
  6  1  2  0  0  0  0
  8  3  1  0  0  0  0
  9  4  1  0  0  0  0
 10  5  1  0  0  0  0
 11 12  1  0  0  0  0
 12 19  2  0  0  0  0
 12 13  1  0  0  0  0
 13 14  2  0  0  0  0
 14 16  1  0  0  0  0
 14 15  1  0  0  0  0
 16 17  1  0  0  0  0
 18 16  2  0  0  0  0
 19 18  1  0  0  0  0
 20 21  2  0  0  0  0
 20 25  1  0  0  0  0
 21 22  1  0  0  0  0
 22 28  1  0  0  0  0
 22 23  2  0  0  0  0
 24 23  1  0  0  0  0
 24 27  1  0  0  0  0
 25 24  2  0  0  0  0
 26 20  1  0  0  0  0
 28 29  1  0  0  0  0
 30 28  1  0  0  0  0
 31 28  1  0  0  0  0
M  END
>  <minimizedAffinity>
-5.50462961

$$$$

 OpenBabel03272506253D

 31 33  0  0  0  0  0  0  0  0999 V2000
   38.9810   24.0560   35.7320 C   0  0  0  0  0  0  0  0  0  0  0  0
   38.3070   23.6810   36.8720 C   0  0  0  0  0  0  0  0  0  0  0  0
   38.8610   23.0050   37.9290 C   0  0  0  0  0  0  0  0  0  0  0  0
   40.2310   22.6570   37.8590 C   0  0  0  0  0  0  0  0  0  0  0  0
   40.9100   23.0320   36.7130 C   0  0  0  0  0  0  0  0  0  0  0  0
   40.3350   23.7070   35.6700 C   0  0  0  0  0  0  0  0  0  0  0  0
   37.2550   23.9050   37.0180 H   0  0  0  0  0  0  0  0  0  0  0  0
   38.3340   22.7130   38.8140 H   0  0  0  0  0  0  0  0  0  0  0  0
   40.7180   22.1250   38.6580 H   0  0  0  0  0  0  0  0  0  0  0  0
   41.9670   22.7990   36.5870 H   0  0  0  0  0  0  0  0  0  0  0  0
   40.4800   21.6540   33.4550 Cl  0  0  0  0  0  0  0  0  0  0  0  0
   41.1400   23.2910   33.3480 C   0  0  0  0  0  0  0  0  0  0  0  0
   41.0030   24.1200   34.4410 C   0  0  0  0  0  0  0  0  0  0  0  0
   41.5410   25.4080   34.3150 C   0  0  0  0  0  0  0  0  0  0  0  0
   41.4400   26.0860   35.1780 H   0  0  0  0  0  0  0  0  0  0  0  0
   42.1780   25.8580   33.1770 C   0  0  0  0  0  0  0  0  0  0  0  0
   42.5660   26.8900   33.1750 H   0  0  0  0  0  0  0  0  0  0  0  0
   42.3030   25.0170   32.0940 C   0  0  0  0  0  3  0  0  0  0  0  0
   41.7750   23.7290   32.1980 C   0  0  0  0  0  3  0  0  0  0  0  0
   37.7730   23.9970   33.6140 C   0  0  0  0  0  0  0  0  0  0  0  0
   38.2380   24.7650   34.7200 C   0  0  0  0  0  0  0  0  0  0  0  0
   37.9410   26.1290   34.7330 C   0  0  0  0  0  0  0  0  0  0  0  0
   37.2310   26.6410   33.6970 N   0  0  0  0  0  0  0  0  0  0  0  0
   36.7950   25.8930   32.6480 C   0  0  0  0  0  0  0  0  0  0  0  0
   37.0740   24.5580   32.6170 N   0  0  0  0  0  0  0  0  0  0  0  0
   38.0070   22.9200   33.6110 H   0  0  0  0  0  0  0  0  0  0  0  0
   36.2320   26.3470   31.8480 H   0  0  0  0  0  0  0  0  0  0  0  0
   38.3570   27.0280   35.8140 C   0  0  0  0  0  0  0  0  0  0  0  0
   37.7330   28.2860   35.6620 F   0  0  0  0  0  0  0  0  0  0  0  0
   38.1490   26.6060   37.0870 F   0  0  0  0  0  0  0  0  0  0  0  0
   39.7180   27.3570   35.6690 F   0  0  0  0  0  0  0  0  0  0  0  0
  1  2  1  0  0  0  0
  2  7  1  0  0  0  0
  2  3  2  0  0  0  0
  3  8  1  0  0  0  0
  4  3  1  0  0  0  0
  4  9  1  0  0  0  0
  5  4  2  0  0  0  0
  6  1  2  0  0  0  0
  6  5  1  0  0  0  0
 10  5  1  0  0  0  0
 12 11  1  0  0  0  0
 12 13  1  0  0  0  0
 13  6  1  0  0  0  0
 14 13  2  0  0  0  0
 14 15  1  0  0  0  0
 16 14  1  0  0  0  0
 17 16  1  0  0  0  0
 18 19  1  0  0  0  0
 18 16  2  0  0  0  0
 19 12  2  0  0  0  0
 20 21  1  0  0  0  0
 21 22  2  0  0  0  0
 21  1  1  0  0  0  0
 22 28  1  0  0  0  0
 23 22  1  0  0  0  0
 24 23  2  0  0  0  0
 25 24  1  0  0  0  0
 25 20  2  0  0  0  0
 26 20  1  0  0  0  0
 27 24  1  0  0  0  0
 28 30  1  0  0  0  0
 29 28  1  0  0  0  0
 31 28  1  0  0  0  0
M  END
>  <minimizedAffinity>
-5.44610691

$$$$

 OpenBabel03272506253D

 31 33  0  0  0  0  0  0  0  0999 V2000
   39.4480   24.6360   34.9960 C   0  0  0  0  0  0  0  0  0  0  0  0
   38.9000   25.8680   34.7220 C   0  0  0  0  0  0  0  0  0  0  0  0
   39.6150   27.0130   34.4790 C   0  0  0  0  0  0  0  0  0  0  0  0
   41.0280   26.9400   34.5070 C   0  0  0  0  0  0  0  0  0  0  0  0
   41.5800   25.7020   34.7830 C   0  0  0  0  0  0  0  0  0  0  0  0
   40.8450   24.5720   35.0240 C   0  0  0  0  0  0  0  0  0  0  0  0
   37.8250   26.0240   34.6770 H   0  0  0  0  0  0  0  0  0  0  0  0
   39.1860   27.9710   34.2680 H   0  0  0  0  0  0  0  0  0  0  0  0
   41.6410   27.8060   34.3250 H   0  0  0  0  0  0  0  0  0  0  0  0
   42.6610   25.5670   34.8220 H   0  0  0  0  0  0  0  0  0  0  0  0
   41.4800   22.8030   32.6550 Cl  0  0  0  0  0  0  0  0  0  0  0  0
   41.7160   22.3370   34.3440 C   0  0  0  0  0  0  0  0  0  0  0  0
   41.3770   23.2480   35.3230 C   0  0  0  0  0  0  0  0  0  0  0  0
   41.5790   22.8390   36.6480 C   0  0  0  0  0  0  0  0  0  0  0  0
   41.3160   23.5540   37.4450 H   0  0  0  0  0  0  0  0  0  0  0  0
   42.0860   21.6030   36.9940 C   0  0  0  0  0  0  0  0  0  0  0  0
   42.2090   21.3750   38.0660 H   0  0  0  0  0  0  0  0  0  0  0  0
   42.4190   20.7070   36.0030 C   0  0  0  0  0  3  0  0  0  0  0  0
   42.2270   21.0940   34.6750 C   0  0  0  0  0  3  0  0  0  0  0  0
   38.2250   22.7280   34.0980 C   0  0  0  0  0  0  0  0  0  0  0  0
   38.5410   23.5390   35.2250 C   0  0  0  0  0  0  0  0  0  0  0  0
   37.9510   23.2100   36.4470 C   0  0  0  0  0  0  0  0  0  0  0  0
   37.1150   22.1430   36.4900 N   0  0  0  0  0  0  0  0  0  0  0  0
   36.8240   21.3780   35.4030 C   0  0  0  0  0  0  0  0  0  0  0  0
   37.3900   21.6830   34.2000 N   0  0  0  0  0  0  0  0  0  0  0  0
   38.6950   22.9890   33.1370 H   0  0  0  0  0  0  0  0  0  0  0  0
   36.1530   20.5380   35.4890 H   0  0  0  0  0  0  0  0  0  0  0  0
   38.1980   23.9610   37.6830 C   0  0  0  0  0  0  0  0  0  0  0  0
   39.4440   23.5880   38.2330 F   0  0  0  0  0  0  0  0  0  0  0  0
   38.1610   25.3160   37.6040 F   0  0  0  0  0  0  0  0  0  0  0  0
   37.2990   23.5460   38.6840 F   0  0  0  0  0  0  0  0  0  0  0  0
  1  6  1  0  0  0  0
  1 21  1  0  0  0  0
  2  1  2  0  0  0  0
  3  4  2  0  0  0  0
  3  2  1  0  0  0  0
  4  5  1  0  0  0  0
  5 10  1  0  0  0  0
  5  6  2  0  0  0  0
  6 13  1  0  0  0  0
  7  2  1  0  0  0  0
  8  3  1  0  0  0  0
  9  4  1  0  0  0  0
 11 12  1  0  0  0  0
 12 19  2  0  0  0  0
 12 13  1  0  0  0  0
 13 14  2  0  0  0  0
 14 16  1  0  0  0  0
 14 15  1  0  0  0  0
 16 17  1  0  0  0  0
 18 16  2  0  0  0  0
 19 18  1  0  0  0  0
 20 25  2  0  0  0  0
 20 21  1  0  0  0  0
 21 22  2  0  0  0  0
 22 23  1  0  0  0  0
 22 28  1  0  0  0  0
 24 27  1  0  0  0  0
 24 23  2  0  0  0  0
 25 24  1  0  0  0  0
 26 20  1  0  0  0  0
 28 29  1  0  0  0  0
 28 31  1  0  0  0  0
 30 28  1  0  0  0  0
M  END
>  <minimizedAffinity>
-5.40894842

$$$$

 OpenBabel03272506253D

 31 33  0  0  0  0  0  0  0  0999 V2000
   38.8820   24.1500   35.7580 C   0  0  0  0  0  0  0  0  0  0  0  0
   38.0450   24.6990   36.7040 C   0  0  0  0  0  0  0  0  0  0  0  0
   38.0230   24.3540   38.0320 C   0  0  0  0  0  0  0  0  0  0  0  0
   38.9230   23.3590   38.4810 C   0  0  0  0  0  0  0  0  0  0  0  0
   39.7640   22.8070   37.5320 C   0  0  0  0  0  0  0  0  0  0  0  0
   39.7680   23.1670   36.2110 C   0  0  0  0  0  0  0  0  0  0  0  0
   37.3220   25.4690   36.4550 H   0  0  0  0  0  0  0  0  0  0  0  0
   37.3700   24.7800   38.7640 H   0  0  0  0  0  0  0  0  0  0  0  0
   38.9490   23.0470   39.5110 H   0  0  0  0  0  0  0  0  0  0  0  0
   40.4850   22.0360   37.8020 H   0  0  0  0  0  0  0  0  0  0  0  0
   42.7350   23.6720   36.5030 Cl  0  0  0  0  0  0  0  0  0  0  0  0
   42.0000   22.7610   35.1770 C   0  0  0  0  0  0  0  0  0  0  0  0
   40.6290   22.6140   35.1720 C   0  0  0  0  0  0  0  0  0  0  0  0
   40.0870   21.8850   34.1040 C   0  0  0  0  0  0  0  0  0  0  0  0
   38.9930   21.7550   34.0830 H   0  0  0  0  0  0  0  0  0  0  0  0
   40.8490   21.3320   33.0960 C   0  0  0  0  0  0  0  0  0  0  0  0
   40.3290   20.7750   32.2990 H   0  0  0  0  0  0  0  0  0  0  0  0
   42.2170   21.4890   33.1190 C   0  0  0  0  0  3  0  0  0  0  0  0
   42.7790   22.2110   34.1740 C   0  0  0  0  0  3  0  0  0  0  0  0
   37.8840   23.9250   33.5450 C   0  0  0  0  0  0  0  0  0  0  0  0
   38.7680   24.6370   34.4060 C   0  0  0  0  0  0  0  0  0  0  0  0
   39.4480   25.7340   33.8740 C   0  0  0  0  0  0  0  0  0  0  0  0
   39.2280   26.0580   32.5760 N   0  0  0  0  0  0  0  0  0  0  0  0
   38.3800   25.3670   31.7670 C   0  0  0  0  0  0  0  0  0  0  0  0
   37.7070   24.2920   32.2670 N   0  0  0  0  0  0  0  0  0  0  0  0
   37.3480   23.0620   33.9700 H   0  0  0  0  0  0  0  0  0  0  0  0
   38.2390   25.6660   30.7400 H   0  0  0  0  0  0  0  0  0  0  0  0
   40.3810   26.5530   34.6560 C   0  0  0  0  0  0  0  0  0  0  0  0
   39.6860   27.2290   35.6820 F   0  0  0  0  0  0  0  0  0  0  0  0
   41.4450   25.9200   35.2130 F   0  0  0  0  0  0  0  0  0  0  0  0
   40.8560   27.6210   33.8710 F   0  0  0  0  0  0  0  0  0  0  0  0
  1  6  2  0  0  0  0
  1  2  1  0  0  0  0
  2  3  2  0  0  0  0
  3  4  1  0  0  0  0
  3  8  1  0  0  0  0
  4  9  1  0  0  0  0
  5 10  1  0  0  0  0
  5  4  2  0  0  0  0
  6  5  1  0  0  0  0
  7  2  1  0  0  0  0
 12 11  1  0  0  0  0
 13 12  1  0  0  0  0
 13  6  1  0  0  0  0
 14 13  2  0  0  0  0
 15 14  1  0  0  0  0
 16 18  2  0  0  0  0
 16 14  1  0  0  0  0
 17 16  1  0  0  0  0
 18 19  1  0  0  0  0
 19 12  2  0  0  0  0
 20 26  1  0  0  0  0
 20 21  1  0  0  0  0
 21  1  1  0  0  0  0
 22 21  2  0  0  0  0
 22 28  1  0  0  0  0
 23 22  1  0  0  0  0
 24 25  1  0  0  0  0
 24 23  2  0  0  0  0
 25 20  2  0  0  0  0
 27 24  1  0  0  0  0
 28 30  1  0  0  0  0
 28 29  1  0  0  0  0
 31 28  1  0  0  0  0
M  END
>  <minimizedAffinity>
-5.40138483

$$$$

 OpenBabel03272506253D

 31 33  0  0  0  0  0  0  0  0999 V2000
   40.3650   25.8630   33.8550 C   0  0  0  0  0  0  0  0  0  0  0  0
   41.5570   26.3080   34.3790 C   0  0  0  0  0  0  0  0  0  0  0  0
   42.4080   27.1910   33.7640 C   0  0  0  0  0  0  0  0  0  0  0  0
   42.0480   27.6940   32.4910 C   0  0  0  0  0  0  0  0  0  0  0  0
   40.8490   27.2470   31.9630 C   0  0  0  0  0  0  0  0  0  0  0  0
   40.0170   26.3640   32.5960 C   0  0  0  0  0  0  0  0  0  0  0  0
   41.9180   25.9800   35.3500 H   0  0  0  0  0  0  0  0  0  0  0  0
   43.3360   27.5340   34.1730 H   0  0  0  0  0  0  0  0  0  0  0  0
   42.6770   28.3880   31.9610 H   0  0  0  0  0  0  0  0  0  0  0  0
   40.5050   27.5900   30.9870 H   0  0  0  0  0  0  0  0  0  0  0  0
   40.1500   23.8820   30.8750 Cl  0  0  0  0  0  0  0  0  0  0  0  0
   38.6570   24.7350   31.2880 C   0  0  0  0  0  0  0  0  0  0  0  0
   38.7490   25.8590   32.0810 C   0  0  0  0  0  0  0  0  0  0  0  0
   37.5430   26.5050   32.3840 C   0  0  0  0  0  0  0  0  0  0  0  0
   37.5960   27.4050   33.0180 H   0  0  0  0  0  0  0  0  0  0  0  0
   36.3130   26.0730   31.9330 C   0  0  0  0  0  0  0  0  0  0  0  0
   35.4210   26.6490   32.2270 H   0  0  0  0  0  0  0  0  0  0  0  0
   36.2410   24.9470   31.1430 C   0  0  0  0  0  3  0  0  0  0  0  0
   37.4300   24.2860   30.8290 C   0  0  0  0  0  3  0  0  0  0  0  0
   39.8440   23.5490   34.4210 C   0  0  0  0  0  0  0  0  0  0  0  0
   39.5950   24.9340   34.6440 C   0  0  0  0  0  0  0  0  0  0  0  0
   38.6340   25.2750   35.5970 C   0  0  0  0  0  0  0  0  0  0  0  0
   37.9960   24.2730   36.2520 N   0  0  0  0  0  0  0  0  0  0  0  0
   38.2460   22.9550   36.0270 C   0  0  0  0  0  0  0  0  0  0  0  0
   39.1810   22.6010   35.0990 N   0  0  0  0  0  0  0  0  0  0  0  0
   40.6060   23.2850   33.6700 H   0  0  0  0  0  0  0  0  0  0  0  0
   37.7120   22.1950   36.5750 H   0  0  0  0  0  0  0  0  0  0  0  0
   38.2880   26.6620   35.9240 C   0  0  0  0  0  0  0  0  0  0  0  0
   38.1300   26.8030   37.3210 F   0  0  0  0  0  0  0  0  0  0  0  0
   39.1380   27.6310   35.4960 F   0  0  0  0  0  0  0  0  0  0  0  0
   36.9960   26.9590   35.4520 F   0  0  0  0  0  0  0  0  0  0  0  0
  1  2  1  0  0  0  0
  1 21  1  0  0  0  0
  2  7  1  0  0  0  0
  3  8  1  0  0  0  0
  3  2  2  0  0  0  0
  4  3  1  0  0  0  0
  5  4  2  0  0  0  0
  5  6  1  0  0  0  0
  6  1  2  0  0  0  0
  9  4  1  0  0  0  0
 10  5  1  0  0  0  0
 11 12  1  0  0  0  0
 12 13  1  0  0  0  0
 13 14  2  0  0  0  0
 13  6  1  0  0  0  0
 14 15  1  0  0  0  0
 16 17  1  0  0  0  0
 16 14  1  0  0  0  0
 18 16  2  0  0  0  0
 19 18  1  0  0  0  0
 19 12  2  0  0  0  0
 20 21  2  0  0  0  0
 20 25  1  0  0  0  0
 21 22  1  0  0  0  0
 22 28  1  0  0  0  0
 22 23  2  0  0  0  0
 24 23  1  0  0  0  0
 24 27  1  0  0  0  0
 25 24  2  0  0  0  0
 26 20  1  0  0  0  0
 28 29  1  0  0  0  0
 30 28  1  0  0  0  0
 31 28  1  0  0  0  0
M  END
>  <minimizedAffinity>
-5.31450224

$$$$

 OpenBabel03272506253D

 31 33  0  0  0  0  0  0  0  0999 V2000
   38.3620   23.9660   33.4510 C   0  0  0  0  0  0  0  0  0  0  0  0
   37.5190   24.1590   32.3800 C   0  0  0  0  0  0  0  0  0  0  0  0
   36.5700   23.2650   31.9530 C   0  0  0  0  0  0  0  0  0  0  0  0
   36.4320   22.0450   32.6560 C   0  0  0  0  0  0  0  0  0  0  0  0
   37.2790   21.8490   33.7320 C   0  0  0  0  0  0  0  0  0  0  0  0
   38.2200   22.7560   34.1400 C   0  0  0  0  0  0  0  0  0  0  0  0
   37.5480   25.0640   31.7800 H   0  0  0  0  0  0  0  0  0  0  0  0
   35.9170   23.4170   31.1180 H   0  0  0  0  0  0  0  0  0  0  0  0
   35.7060   21.3060   32.3650 H   0  0  0  0  0  0  0  0  0  0  0  0
   37.2330   20.9340   34.3230 H   0  0  0  0  0  0  0  0  0  0  0  0
   40.8670   21.4230   33.5400 Cl  0  0  0  0  0  0  0  0  0  0  0  0
   40.3810   22.0110   35.1350 C   0  0  0  0  0  0  0  0  0  0  0  0
   39.1380   22.5960   35.2620 C   0  0  0  0  0  0  0  0  0  0  0  0
   38.7920   23.0480   36.5420 C   0  0  0  0  0  0  0  0  0  0  0  0
   37.8040   23.5190   36.6630 H   0  0  0  0  0  0  0  0  0  0  0  0
   39.6200   22.9310   37.6400 C   0  0  0  0  0  0  0  0  0  0  0  0
   39.2570   23.3180   38.6070 H   0  0  0  0  0  0  0  0  0  0  0  0
   40.8570   22.3440   37.4940 C   0  0  0  0  0  3  0  0  0  0  0  0
   41.2240   21.8880   36.2270 C   0  0  0  0  0  3  0  0  0  0  0  0
   40.6060   24.8870   33.2050 C   0  0  0  0  0  0  0  0  0  0  0  0
   39.3000   25.0160   33.7590 C   0  0  0  0  0  0  0  0  0  0  0  0
   39.0380   26.1360   34.5490 C   0  0  0  0  0  0  0  0  0  0  0  0
   40.0370   27.0330   34.7430 N   0  0  0  0  0  0  0  0  0  0  0  0
   41.2790   26.8940   34.2060 C   0  0  0  0  0  0  0  0  0  0  0  0
   41.5560   25.8070   33.4310 N   0  0  0  0  0  0  0  0  0  0  0  0
   40.8070   24.0030   32.5790 H   0  0  0  0  0  0  0  0  0  0  0  0
   42.0410   27.6370   34.3900 H   0  0  0  0  0  0  0  0  0  0  0  0
   37.7350   26.3890   35.1730 C   0  0  0  0  0  0  0  0  0  0  0  0
   36.7850   26.7290   34.1840 F   0  0  0  0  0  0  0  0  0  0  0  0
   37.2100   25.3990   35.9390 F   0  0  0  0  0  0  0  0  0  0  0  0
   37.7910   27.5670   35.9420 F   0  0  0  0  0  0  0  0  0  0  0  0
  1 21  1  0  0  0  0
  1  6  1  0  0  0  0
  2  1  2  0  0  0  0
  3  2  1  0  0  0  0
  3  4  2  0  0  0  0
  4  5  1  0  0  0  0
  5  6  2  0  0  0  0
  5 10  1  0  0  0  0
  6 13  1  0  0  0  0
  7  2  1  0  0  0  0
  8  3  1  0  0  0  0
  9  4  1  0  0  0  0
 11 12  1  0  0  0  0
 12 13  2  0  0  0  0
 12 19  1  0  0  0  0
 13 14  1  0  0  0  0
 14 15  1  0  0  0  0
 14 16  2  0  0  0  0
 16 17  1  0  0  0  0
 18 16  1  0  0  0  0
 19 18  2  0  0  0  0
 20 25  2  0  0  0  0
 20 21  1  0  0  0  0
 21 22  2  0  0  0  0
 22 23  1  0  0  0  0
 22 28  1  0  0  0  0
 24 27  1  0  0  0  0
 24 23  2  0  0  0  0
 25 24  1  0  0  0  0
 26 20  1  0  0  0  0
 28 30  1  0  0  0  0
 28 31  1  0  0  0  0
 29 28  1  0  0  0  0
M  END
>  <minimizedAffinity>
-5.2108922

$$$$

 OpenBabel03272506253D

 31 33  0  0  0  0  0  0  0  0999 V2000
   40.7140   24.2810   35.4100 C   0  0  0  0  0  0  0  0  0  0  0  0
   41.8760   23.5890   35.6660 C   0  0  0  0  0  0  0  0  0  0  0  0
   43.1410   24.0450   35.3990 C   0  0  0  0  0  0  0  0  0  0  0  0
   43.2830   25.3260   34.8130 C   0  0  0  0  0  0  0  0  0  0  0  0
   42.1160   26.0230   34.5540 C   0  0  0  0  0  0  0  0  0  0  0  0
   40.8630   25.5460   34.8300 C   0  0  0  0  0  0  0  0  0  0  0  0
   41.8690   22.6000   36.1150 H   0  0  0  0  0  0  0  0  0  0  0  0
   44.0430   23.5030   35.5970 H   0  0  0  0  0  0  0  0  0  0  0  0
   44.2510   25.7340   34.5800 H   0  0  0  0  0  0  0  0  0  0  0  0
   42.1450   27.0150   34.1050 H   0  0  0  0  0  0  0  0  0  0  0  0
   39.8520   25.4950   31.9810 Cl  0  0  0  0  0  0  0  0  0  0  0  0
   39.0230   26.2930   33.3230 C   0  0  0  0  0  0  0  0  0  0  0  0
   39.6050   26.2370   34.5720 C   0  0  0  0  0  0  0  0  0  0  0  0
   38.9150   26.8820   35.6080 C   0  0  0  0  0  0  0  0  0  0  0  0
   39.3650   26.8480   36.6140 H   0  0  0  0  0  0  0  0  0  0  0  0
   37.7200   27.5460   35.4280 C   0  0  0  0  0  0  0  0  0  0  0  0
   37.2540   28.0220   36.3070 H   0  0  0  0  0  0  0  0  0  0  0  0
   37.1530   27.5900   34.1740 C   0  0  0  0  0  3  0  0  0  0  0  0
   37.8220   26.9540   33.1270 C   0  0  0  0  0  3  0  0  0  0  0  0
   38.8500   24.0800   36.9670 C   0  0  0  0  0  0  0  0  0  0  0  0
   39.4680   23.6470   35.7600 C   0  0  0  0  0  0  0  0  0  0  0  0
   38.8240   22.6520   35.0220 C   0  0  0  0  0  0  0  0  0  0  0  0
   37.6540   22.1570   35.4950 N   0  0  0  0  0  0  0  0  0  0  0  0
   37.0770   22.5820   36.6520 C   0  0  0  0  0  0  0  0  0  0  0  0
   37.6890   23.5540   37.3870 N   0  0  0  0  0  0  0  0  0  0  0  0
   39.3600   24.8680   37.5440 H   0  0  0  0  0  0  0  0  0  0  0  0
   36.1430   22.1570   36.9860 H   0  0  0  0  0  0  0  0  0  0  0  0
   39.3530   22.1230   33.7600 C   0  0  0  0  0  0  0  0  0  0  0  0
   38.4930   21.1200   33.2600 F   0  0  0  0  0  0  0  0  0  0  0  0
   39.5860   23.0140   32.7630 F   0  0  0  0  0  0  0  0  0  0  0  0
   40.5370   21.4000   34.0000 F   0  0  0  0  0  0  0  0  0  0  0  0
  1  2  1  0  0  0  0
  1 21  1  0  0  0  0
  2  7  1  0  0  0  0
  3  8  1  0  0  0  0
  3  2  2  0  0  0  0
  4  3  1  0  0  0  0
  5  4  2  0  0  0  0
  5  6  1  0  0  0  0
  6  1  2  0  0  0  0
  9  4  1  0  0  0  0
 10  5  1  0  0  0  0
 11 12  1  0  0  0  0
 12 13  1  0  0  0  0
 13  6  1  0  0  0  0
 13 14  2  0  0  0  0
 14 15  1  0  0  0  0
 16 14  1  0  0  0  0
 16 17  1  0  0  0  0
 18 16  2  0  0  0  0
 19 12  2  0  0  0  0
 19 18  1  0  0  0  0
 20 25  1  0  0  0  0
 20 26  1  0  0  0  0
 21 20  2  0  0  0  0
 22 23  2  0  0  0  0
 22 21  1  0  0  0  0
 23 24  1  0  0  0  0
 24 27  1  0  0  0  0
 24 25  2  0  0  0  0
 28 31  1  0  0  0  0
 28 22  1  0  0  0  0
 29 28  1  0  0  0  0
 30 28  1  0  0  0  0
M  END
>  <minimizedAffinity>
-5.20163536

$$$$
