
 OpenBabel03272508453D

 27 29  0  0  0  0  0  0  0  0999 V2000
   35.9700   29.8120   49.2030 C   0  0  0  0  0  0  0  0  0  0  0  0
   36.9420   29.6560   50.1820 C   0  0  0  0  0  0  0  0  0  0  0  0
   38.0540   30.2450   49.5910 C   0  0  0  0  0  0  0  0  0  0  0  0
   37.7260   30.7090   48.3430 C   0  0  0  0  0  0  0  0  0  0  0  0
   36.4650   30.4320   48.1410 O   0  0  0  0  0  0  0  0  0  0  0  0
   36.8700   29.2000   51.1520 H   0  0  0  0  0  0  0  0  0  0  0  0
   39.0310   30.3020   50.0960 H   0  0  0  0  0  0  0  0  0  0  0  0
   38.4990   33.5760   49.0480 Cl  0  0  0  0  0  0  0  0  0  0  0  0
   39.0360   32.6800   47.6400 C   0  0  0  0  0  0  0  0  0  0  0  0
   38.6240   31.3860   47.4160 C   0  0  0  0  0  0  0  0  0  0  0  0
   39.0830   30.7350   46.2910 C   0  0  0  0  0  0  0  0  0  0  0  0
   38.7360   29.7180   46.1500 H   0  0  0  0  0  0  0  0  0  0  0  0
   39.9310   31.2920   45.3610 C   0  0  0  0  0  0  0  0  0  0  0  0
   40.2180   30.6720   44.5160 H   0  0  0  0  0  0  0  0  0  0  0  0
   40.3370   32.6050   45.6050 C   0  0  0  0  0  3  0  0  0  0  0  0
   39.8930   33.2760   46.7240 C   0  0  0  0  0  3  0  0  0  0  0  0
   34.5820   29.3420   49.3500 C   0  0  0  0  0  0  0  0  0  0  0  0
   33.9760   29.6160   50.4190 O   0  0  0  0  0  0  0  0  0  0  0  0
   33.5300   26.4920   47.3530 C   0  0  0  0  0  0  0  0  0  0  0  0
   32.8260   27.0910   46.2900 C   0  0  0  0  0  0  0  0  0  0  0  0
   32.7140   28.4830   46.2590 C   0  0  0  0  0  0  0  0  0  0  0  0
   33.2940   29.1760   47.2650 N   0  0  0  0  0  0  0  0  0  0  0  0
   33.9610   28.5880   48.2720 C   0  0  0  0  0  0  0  0  0  0  0  0
   34.0720   27.2550   48.3080 N   0  0  0  0  0  0  0  0  0  0  0  0
   33.6370   25.4170   47.4090 H   0  0  0  0  0  0  0  0  0  0  0  0
   32.3950   26.4700   45.5290 H   0  0  0  0  0  0  0  0  0  0  0  0
   32.1790   28.9740   45.4550 H   0  0  0  0  0  0  0  0  0  0  0  0
  1 17  1  0  0  0  0
  1  2  2  0  0  0  0
  2  6  1  0  0  0  0
  3  7  1  0  0  0  0
  3  2  1  0  0  0  0
  4  3  2  0  0  0  0
  5  4  1  0  0  0  0
  5  1  1  0  0  0  0
  9  8  1  0  0  0  0
 10  9  1  0  0  0  0
 10  4  1  0  0  0  0
 11 10  2  0  0  0  0
 12 11  1  0  0  0  0
 13 15  2  0  0  0  0
 13 11  1  0  0  0  0
 14 13  1  0  0  0  0
 15 16  1  0  0  0  0
 16  9  2  0  0  0  0
 17 18  2  0  0  0  0
 19 25  1  0  0  0  0
 19 24  1  0  0  0  0
 20 19  2  0  0  0  0
 21 20  1  0  0  0  0
 21 22  2  0  0  0  0
 22 23  1  0  0  0  0
 23 24  2  0  0  0  0
 23 17  1  0  0  0  0
 26 20  1  0  0  0  0
 27 21  1  0  0  0  0
M  END
>  <minimizedAffinity>
-6.0478034

>  <minimizedRMSD>
2.97742748

$$$$
