
 OpenBabel03272508453D

 27 29  0  0  0  0  0  0  0  0999 V2000
   35.6560   29.6550   49.6500 C   0  0  0  0  0  0  0  0  0  0  0  0
   36.6950   29.3560   50.5210 C   0  0  0  0  0  0  0  0  0  0  0  0
   37.7920   29.9150   49.8760 C   0  0  0  0  0  0  0  0  0  0  0  0
   37.3920   30.4980   48.7010 C   0  0  0  0  0  0  0  0  0  0  0  0
   36.1020   30.3240   48.5960 O   0  0  0  0  0  0  0  0  0  0  0  0
   36.6730   28.8290   51.4580 H   0  0  0  0  0  0  0  0  0  0  0  0
   38.8100   29.8660   50.2930 H   0  0  0  0  0  0  0  0  0  0  0  0
   38.2280   33.3430   49.4280 Cl  0  0  0  0  0  0  0  0  0  0  0  0
   38.6900   32.4710   47.9790 C   0  0  0  0  0  0  0  0  0  0  0  0
   38.2550   31.1860   47.7490 C   0  0  0  0  0  0  0  0  0  0  0  0
   38.6540   30.5540   46.5890 C   0  0  0  0  0  0  0  0  0  0  0  0
   38.2900   29.5430   46.4450 H   0  0  0  0  0  0  0  0  0  0  0  0
   39.4660   31.1220   45.6330 C   0  0  0  0  0  0  0  0  0  0  0  0
   39.7060   30.5160   44.7650 H   0  0  0  0  0  0  0  0  0  0  0  0
   39.8960   32.4250   45.8850 C   0  0  0  0  0  3  0  0  0  0  0  0
   39.5100   33.0780   47.0360 C   0  0  0  0  0  3  0  0  0  0  0  0
   34.2550   29.2680   49.8890 C   0  0  0  0  0  0  0  0  0  0  0  0
   33.6330   29.8470   50.8170 O   0  0  0  0  0  0  0  0  0  0  0  0
   31.6710   27.1990   48.3870 C   0  0  0  0  0  0  0  0  0  0  0  0
   32.3990   26.3520   47.5290 C   0  0  0  0  0  0  0  0  0  0  0  0
   33.7890   26.4930   47.4660 C   0  0  0  0  0  0  0  0  0  0  0  0
   34.3510   27.4460   48.2430 N   0  0  0  0  0  0  0  0  0  0  0  0
   33.6410   28.2460   49.0570 C   0  0  0  0  0  0  0  0  0  0  0  0
   32.3100   28.1160   49.1200 N   0  0  0  0  0  0  0  0  0  0  0  0
   30.5940   27.1170   48.4610 H   0  0  0  0  0  0  0  0  0  0  0  0
   31.8780   25.6200   46.9450 H   0  0  0  0  0  0  0  0  0  0  0  0
   34.3770   25.8580   46.8160 H   0  0  0  0  0  0  0  0  0  0  0  0
  1 17  1  0  0  0  0
  1  2  2  0  0  0  0
  2  6  1  0  0  0  0
  3  7  1  0  0  0  0
  3  2  1  0  0  0  0
  4  3  2  0  0  0  0
  5  4  1  0  0  0  0
  5  1  1  0  0  0  0
  9  8  1  0  0  0  0
 10  9  1  0  0  0  0
 10  4  1  0  0  0  0
 11 10  2  0  0  0  0
 12 11  1  0  0  0  0
 13 15  2  0  0  0  0
 13 11  1  0  0  0  0
 14 13  1  0  0  0  0
 15 16  1  0  0  0  0
 16  9  2  0  0  0  0
 17 18  2  0  0  0  0
 19 25  1  0  0  0  0
 19 24  1  0  0  0  0
 20 19  2  0  0  0  0
 21 20  1  0  0  0  0
 21 22  2  0  0  0  0
 22 23  1  0  0  0  0
 23 24  2  0  0  0  0
 23 17  1  0  0  0  0
 26 20  1  0  0  0  0
 27 21  1  0  0  0  0
M  END
>  <minimizedAffinity>
-6.2139616

>  <minimizedRMSD>
3.18053055

$$$$
