
 OpenBabel03272510083D

 44 48  0  0  0  0  0  0  0  0999 V2000
   35.4400   30.1570   46.7040 C   0  0  0  0  0  0  0  0  0  0  0  0
   35.8340   30.6550   47.9050 N   0  0  0  0  0  0  0  0  0  0  0  0
   37.0390   31.2460   48.0150 C   0  0  0  0  0  0  0  0  0  0  0  0
   37.9270   31.3880   46.9830 N   0  0  0  0  0  0  0  0  0  0  0  0
   37.5610   30.9040   45.7840 C   0  0  0  0  0  0  0  0  0  0  0  0
   38.3890   30.9820   44.6760 C   0  0  0  0  0  0  0  0  0  0  0  0
   37.9810   30.4510   43.4400 C   0  0  0  0  0  0  0  0  0  0  0  0
   36.7270   29.8390   43.3410 C   0  0  0  0  0  0  0  0  0  0  0  0
   35.9370   29.7890   44.4820 C   0  0  0  0  0  0  0  0  0  0  0  0
   36.3360   30.3050   45.6780 C   0  0  0  0  0  0  0  0  0  0  0  0
   37.4370   31.6730   48.9450 H   0  0  0  0  0  0  0  0  0  0  0  0
   39.3300   31.4720   44.8640 H   0  0  0  0  0  0  0  0  0  0  0  0
   38.7230   30.5880   42.6850 H   0  0  0  0  0  0  0  0  0  0  0  0
   36.6340   29.5140   42.3310 H   0  0  0  0  0  0  0  0  0  0  0  0
   33.8000   28.2120   46.9670 C   0  0  0  0  0  0  0  0  0  0  0  0
   34.1510   29.5610   46.6940 C   0  0  0  0  0  0  0  0  0  0  0  0
   33.1220   30.4500   46.3530 C   0  0  0  0  0  0  0  0  0  0  0  0
   31.8350   30.0200   46.2840 N   0  0  0  0  0  0  0  0  0  0  0  0
   31.5600   28.7060   46.5540 C   0  0  0  0  0  0  0  0  0  0  0  0
   32.5140   27.8270   46.8880 N   0  0  0  0  0  0  0  0  0  0  0  0
   30.1860   28.2830   46.4340 N   0  0  0  0  0  0  0  0  0  0  0  0
   29.1060   28.8140   47.2110 C   0  0  0  0  0  0  0  0  0  0  0  0
   27.8710   28.2760   46.5570 C   0  0  0  0  0  0  0  0  0  0  0  0
   28.3030   27.6190   45.2610 C   0  0  0  0  0  0  0  0  0  0  0  0
   29.7100   27.2480   45.4950 C   0  0  0  0  0  0  0  0  0  0  0  0
   34.6430   27.5890   47.2270 H   0  0  0  0  0  0  0  0  0  0  0  0
   33.2180   31.4800   46.1310 H   0  0  0  0  0  0  0  0  0  0  0  0
   29.1780   28.4050   48.2360 H   0  0  0  0  0  0  0  0  0  0  0  0
   29.1070   29.9260   47.2530 H   0  0  0  0  0  0  0  0  0  0  0  0
   27.1600   29.0870   46.3250 H   0  0  0  0  0  0  0  0  0  0  0  0
   27.4160   27.4720   47.1800 H   0  0  0  0  0  0  0  0  0  0  0  0
   28.2520   28.3490   44.4070 H   0  0  0  0  0  0  0  0  0  0  0  0
   27.6930   26.6960   45.0490 H   0  0  0  0  0  0  0  0  0  0  0  0
   30.3080   27.2960   44.5690 H   0  0  0  0  0  0  0  0  0  0  0  0
   29.8400   26.2430   45.9580 H   0  0  0  0  0  0  0  0  0  0  0  0
   34.1450   31.7430   43.2420 Cl  0  0  0  0  0  0  0  0  0  0  0  0
   33.7930   30.0060   43.3150 C   0  0  0  0  0  0  0  0  0  0  0  0
   34.7340   29.1550   43.9600 C   0  0  0  0  0  0  0  0  0  0  0  0
   34.3320   27.8290   43.9310 C   0  0  0  0  0  0  0  0  0  0  0  0
   35.0780   27.1900   44.4370 H   0  0  0  0  0  0  0  0  0  0  0  0
   33.1820   27.3360   43.3680 C   0  0  0  0  0  0  0  0  0  0  0  0
   33.0200   26.2900   43.4320 H   0  0  0  0  0  0  0  0  0  0  0  0
   32.3560   28.2670   42.7770 C   0  0  0  0  0  3  0  0  0  0  0  0
   32.6120   29.6180   42.7200 C   0  0  0  0  0  3  0  0  0  0  0  0
  1  2  1  0  0  0  0
  2  3  2  0  0  0  0
  3 11  1  0  0  0  0
  4  3  1  0  0  0  0
  5  4  2  0  0  0  0
  6 12  1  0  0  0  0
  6  5  1  0  0  0  0
  7  6  2  0  0  0  0
  8  7  1  0  0  0  0
  8  9  2  0  0  0  0
  9 10  1  0  0  0  0
 10  5  1  0  0  0  0
 10  1  2  0  0  0  0
 13  7  1  0  0  0  0
 14  8  1  0  0  0  0
 15 26  1  0  0  0  0
 16  1  1  0  0  0  0
 16 15  2  0  0  0  0
 17 16  1  0  0  0  0
 18 17  2  0  0  0  0
 18 19  1  0  0  0  0
 19 20  2  0  0  0  0
 20 15  1  0  0  0  0
 21 19  1  0  0  0  0
 21 22  1  0  0  0  0
 22 29  1  0  0  0  0
 22 28  1  0  0  0  0
 23 31  1  0  0  0  0
 23 22  1  0  0  0  0
 24 25  1  0  0  0  0
 24 23  1  0  0  0  0
 25 35  1  0  0  0  0
 25 21  1  0  0  0  0
 27 17  1  0  0  0  0
 30 23  1  0  0  0  0
 32 24  1  0  0  0  0
 33 24  1  0  0  0  0
 34 25  1  0  0  0  0
 36 37  1  0  0  0  0
 37 38  1  0  0  0  0
 38  9  1  0  0  0  0
 39 38  2  0  0  0  0
 39 40  1  0  0  0  0
 41 42  1  0  0  0  0
 41 39  1  0  0  0  0
 43 41  2  0  0  0  0
 44 43  1  0  0  0  0
 44 37  2  0  0  0  0
M  END
>  <minimizedAffinity>
-4.55438423

>  <minimizedRMSD>
3.2291038

$$$$
