
 OpenBabel03272502573D

 42 45  0  0  0  0  0  0  0  0999 V2000
   38.0040   26.8960   33.5160 C   0  0  0  0  0  0  0  0  0  0  0  0
   39.1600   26.8750   32.7280 C   0  0  0  0  0  0  0  0  0  0  0  0
   40.2010   26.0150   33.0290 C   0  0  0  0  0  0  0  0  0  0  0  0
   40.0210   25.2030   34.1340 C   0  0  0  0  0  0  0  0  0  0  0  0
   38.8850   25.2180   34.9150 C   0  0  0  0  0  0  0  0  0  0  0  0
   37.8920   26.0760   34.5820 N   0  0  0  0  0  0  0  0  0  0  0  0
   38.8200   24.3400   36.0160 N   0  0  0  0  0  0  0  0  0  0  0  0
   40.0240   23.6990   36.4720 C   0  0  0  0  0  0  0  0  0  0  0  0
   39.6370   22.7370   37.5720 C   0  0  0  0  0  0  0  0  0  0  0  0
   38.9420   23.4820   38.6930 C   0  0  0  0  0  0  0  0  0  0  0  0
   37.7980   24.3020   38.1900 C   0  0  0  0  0  0  0  0  0  0  0  0
   37.5840   24.0390   36.7270 C   0  0  0  0  0  0  0  0  0  0  0  0
   39.2150   27.5440   31.8820 H   0  0  0  0  0  0  0  0  0  0  0  0
   41.0770   26.0230   32.4030 H   0  0  0  0  0  0  0  0  0  0  0  0
   40.9000   24.5570   34.2940 H   0  0  0  0  0  0  0  0  0  0  0  0
   40.5190   23.1030   35.6580 H   0  0  0  0  0  0  0  0  0  0  0  0
   40.7630   24.4080   36.9270 H   0  0  0  0  0  0  0  0  0  0  0  0
   39.0440   21.8780   37.2070 H   0  0  0  0  0  0  0  0  0  0  0  0
   40.5780   22.3130   38.0180 H   0  0  0  0  0  0  0  0  0  0  0  0
   39.6740   24.0470   39.2940 H   0  0  0  0  0  0  0  0  0  0  0  0
   38.5270   22.7070   39.3910 H   0  0  0  0  0  0  0  0  0  0  0  0
   36.8310   24.0420   38.7000 H   0  0  0  0  0  0  0  0  0  0  0  0
   37.9490   25.3950   38.3550 H   0  0  0  0  0  0  0  0  0  0  0  0
   37.4140   22.9480   36.6000 H   0  0  0  0  0  0  0  0  0  0  0  0
   36.7410   24.6330   36.3180 H   0  0  0  0  0  0  0  0  0  0  0  0
   35.4580   28.6930   31.5980 C   0  0  0  0  0  0  0  0  0  0  0  0
   34.9100   29.5630   32.5670 C   0  0  0  0  0  0  0  0  0  0  0  0
   35.4150   29.5210   33.8450 C   0  0  0  0  0  0  0  0  0  0  0  0
   36.4220   28.6330   34.0940 N   0  0  0  0  0  0  0  0  0  0  0  0
   36.9380   27.8100   33.1690 C   0  0  0  0  0  0  0  0  0  0  0  0
   36.4450   27.8540   31.9300 N   0  0  0  0  0  0  0  0  0  0  0  0
   35.0400   28.7470   30.5930 H   0  0  0  0  0  0  0  0  0  0  0  0
   34.1130   30.2470   32.3130 H   0  0  0  0  0  0  0  0  0  0  0  0
   32.5580   29.1730   34.5410 Cl  0  0  0  0  0  0  0  0  0  0  0  0
   33.6490   30.3020   35.3500 C   0  0  0  0  0  0  0  0  0  0  0  0
   34.9440   30.3520   34.9180 C   0  0  0  0  0  0  0  0  0  0  0  0
   35.7440   31.2520   35.5880 C   0  0  0  0  0  0  0  0  0  0  0  0
   36.7760   31.3720   35.3300 H   0  0  0  0  0  0  0  0  0  0  0  0
   35.3350   32.0680   36.6220 C   0  0  0  0  0  0  0  0  0  0  0  0
   35.9910   32.7610   37.1230 H   0  0  0  0  0  0  0  0  0  0  0  0
   34.0010   31.9810   37.0290 C   0  0  0  0  0  3  0  0  0  0  0  0
   33.1750   31.0980   36.3860 C   0  0  0  0  0  3  0  0  0  0  0  0
  1  6  1  0  0  0  0
  2  3  1  0  0  0  0
  2  1  2  0  0  0  0
  3  4  2  0  0  0  0
  4 15  1  0  0  0  0
  4  5  1  0  0  0  0
  5  7  1  0  0  0  0
  6  5  2  0  0  0  0
  7  8  1  0  0  0  0
  7 12  1  0  0  0  0
  8 17  1  0  0  0  0
  8  9  1  0  0  0  0
  9 19  1  0  0  0  0
  9 10  1  0  0  0  0
 10 20  1  0  0  0  0
 10 21  1  0  0  0  0
 11 23  1  0  0  0  0
 11 10  1  0  0  0  0
 11 22  1  0  0  0  0
 12 11  1  0  0  0  0
 13  2  1  0  0  0  0
 14  3  1  0  0  0  0
 16  8  1  0  0  0  0
 18  9  1  0  0  0  0
 24 12  1  0  0  0  0
 25 12  1  0  0  0  0
 26 31  2  0  0  0  0
 26 27  1  0  0  0  0
 27 28  2  0  0  0  0
 28 29  1  0  0  0  0
 28 36  1  0  0  0  0
 30  1  1  0  0  0  0
 30 29  2  0  0  0  0
 31 30  1  0  0  0  0
 32 26  1  0  0  0  0
 33 27  1  0  0  0  0
 34 35  1  0  0  0  0
 35 42  1  0  0  0  0
 36 35  2  0  0  0  0
 36 37  1  0  0  0  0
 37 39  2  0  0  0  0
 38 37  1  0  0  0  0
 39 41  1  0  0  0  0
 39 40  1  0  0  0  0
 42 41  2  0  0  0  0
M  END
>  <minimizedAffinity>
-6.76371622

$$$$

 OpenBabel03272502573D

 42 45  0  0  0  0  0  0  0  0999 V2000
   37.3420   26.6940   33.7220 C   0  0  0  0  0  0  0  0  0  0  0  0
   38.1540   26.6170   34.8580 C   0  0  0  0  0  0  0  0  0  0  0  0
   38.7190   25.4130   35.2390 C   0  0  0  0  0  0  0  0  0  0  0  0
   38.4290   24.3230   34.4380 C   0  0  0  0  0  0  0  0  0  0  0  0
   37.6300   24.3910   33.3170 C   0  0  0  0  0  0  0  0  0  0  0  0
   37.0990   25.5910   32.9820 N   0  0  0  0  0  0  0  0  0  0  0  0
   37.4100   23.2090   32.5800 N   0  0  0  0  0  0  0  0  0  0  0  0
   37.7500   21.9420   33.1720 C   0  0  0  0  0  0  0  0  0  0  0  0
   37.5220   20.8770   32.1240 C   0  0  0  0  0  0  0  0  0  0  0  0
   36.0810   20.9070   31.6570 C   0  0  0  0  0  0  0  0  0  0  0  0
   35.6680   22.2740   31.2160 C   0  0  0  0  0  0  0  0  0  0  0  0
   36.8520   23.1980   31.2340 C   0  0  0  0  0  0  0  0  0  0  0  0
   38.3280   27.5200   35.4250 H   0  0  0  0  0  0  0  0  0  0  0  0
   39.3390   25.3860   36.1190 H   0  0  0  0  0  0  0  0  0  0  0  0
   38.9210   23.4130   34.8200 H   0  0  0  0  0  0  0  0  0  0  0  0
   38.8310   21.8950   33.4750 H   0  0  0  0  0  0  0  0  0  0  0  0
   37.0990   21.6670   34.0400 H   0  0  0  0  0  0  0  0  0  0  0  0
   38.2380   20.9370   31.2820 H   0  0  0  0  0  0  0  0  0  0  0  0
   37.6720   19.8710   32.6040 H   0  0  0  0  0  0  0  0  0  0  0  0
   35.4200   20.4570   32.4170 H   0  0  0  0  0  0  0  0  0  0  0  0
   36.0130   20.2250   30.7690 H   0  0  0  0  0  0  0  0  0  0  0  0
   35.2810   22.2810   30.1600 H   0  0  0  0  0  0  0  0  0  0  0  0
   34.8520   22.6990   31.8460 H   0  0  0  0  0  0  0  0  0  0  0  0
   37.6360   22.7570   30.5800 H   0  0  0  0  0  0  0  0  0  0  0  0
   36.5810   24.2240   30.9120 H   0  0  0  0  0  0  0  0  0  0  0  0
   36.3320   29.6110   31.7560 C   0  0  0  0  0  0  0  0  0  0  0  0
   35.6610   30.4020   32.7150 C   0  0  0  0  0  0  0  0  0  0  0  0
   35.5660   29.9300   34.0030 C   0  0  0  0  0  0  0  0  0  0  0  0
   36.1330   28.7160   34.2710 N   0  0  0  0  0  0  0  0  0  0  0  0
   36.7690   27.9710   33.3560 C   0  0  0  0  0  0  0  0  0  0  0  0
   36.8590   28.4320   32.1070 N   0  0  0  0  0  0  0  0  0  0  0  0
   36.3930   30.0080   30.7430 H   0  0  0  0  0  0  0  0  0  0  0  0
   35.2310   31.3560   32.4470 H   0  0  0  0  0  0  0  0  0  0  0  0
   32.6800   29.3450   34.3060 Cl  0  0  0  0  0  0  0  0  0  0  0  0
   33.5800   30.4700   35.3290 C   0  0  0  0  0  0  0  0  0  0  0  0
   34.9110   30.6370   35.0680 C   0  0  0  0  0  0  0  0  0  0  0  0
   35.5560   31.5270   35.8970 C   0  0  0  0  0  0  0  0  0  0  0  0
   36.6000   31.7330   35.7820 H   0  0  0  0  0  0  0  0  0  0  0  0
   34.9680   32.2270   36.9300 C   0  0  0  0  0  0  0  0  0  0  0  0
   35.5060   32.9160   37.5600 H   0  0  0  0  0  0  0  0  0  0  0  0
   33.6040   32.0230   37.1590 C   0  0  0  0  0  3  0  0  0  0  0  0
   32.9280   31.1460   36.3530 C   0  0  0  0  0  3  0  0  0  0  0  0
  1  2  1  0  0  0  0
  2  3  2  0  0  0  0
  2 13  1  0  0  0  0
  3 14  1  0  0  0  0
  4 15  1  0  0  0  0
  4  3  1  0  0  0  0
  5  4  2  0  0  0  0
  6  5  1  0  0  0  0
  6  1  2  0  0  0  0
  7  8  1  0  0  0  0
  7  5  1  0  0  0  0
  8 16  1  0  0  0  0
  8 17  1  0  0  0  0
  9 19  1  0  0  0  0
  9  8  1  0  0  0  0
 10  9  1  0  0  0  0
 10 20  1  0  0  0  0
 11 12  1  0  0  0  0
 11 10  1  0  0  0  0
 11 23  1  0  0  0  0
 12  7  1  0  0  0  0
 18  9  1  0  0  0  0
 21 10  1  0  0  0  0
 22 11  1  0  0  0  0
 24 12  1  0  0  0  0
 25 12  1  0  0  0  0
 26 31  2  0  0  0  0
 26 27  1  0  0  0  0
 27 28  2  0  0  0  0
 28 29  1  0  0  0  0
 28 36  1  0  0  0  0
 30  1  1  0  0  0  0
 30 29  2  0  0  0  0
 31 30  1  0  0  0  0
 32 26  1  0  0  0  0
 33 27  1  0  0  0  0
 34 35  1  0  0  0  0
 35 42  1  0  0  0  0
 36 35  2  0  0  0  0
 36 37  1  0  0  0  0
 37 39  2  0  0  0  0
 38 37  1  0  0  0  0
 39 41  1  0  0  0  0
 39 40  1  0  0  0  0
 42 41  2  0  0  0  0
M  END
>  <minimizedAffinity>
-6.7255578

$$$$

 OpenBabel03272502573D

 42 45  0  0  0  0  0  0  0  0999 V2000
   36.2820   26.5640   32.0080 C   0  0  0  0  0  0  0  0  0  0  0  0
   35.6350   25.7420   31.0790 C   0  0  0  0  0  0  0  0  0  0  0  0
   35.8430   24.3750   31.0850 C   0  0  0  0  0  0  0  0  0  0  0  0
   36.7110   23.8940   32.0490 C   0  0  0  0  0  0  0  0  0  0  0  0
   37.3510   24.6960   32.9680 C   0  0  0  0  0  0  0  0  0  0  0  0
   37.1170   26.0300   32.9240 N   0  0  0  0  0  0  0  0  0  0  0  0
   38.2120   24.0860   33.9030 N   0  0  0  0  0  0  0  0  0  0  0  0
   38.6360   22.7290   33.6820 C   0  0  0  0  0  0  0  0  0  0  0  0
   39.4430   22.3050   34.8880 C   0  0  0  0  0  0  0  0  0  0  0  0
   40.6240   23.2350   35.0760 C   0  0  0  0  0  0  0  0  0  0  0  0
   40.2010   24.6680   35.1170 C   0  0  0  0  0  0  0  0  0  0  0  0
   38.7020   24.7610   35.0980 C   0  0  0  0  0  0  0  0  0  0  0  0
   34.9730   26.2040   30.3620 H   0  0  0  0  0  0  0  0  0  0  0  0
   35.3310   23.7690   30.3570 H   0  0  0  0  0  0  0  0  0  0  0  0
   36.8120   22.7980   31.9740 H   0  0  0  0  0  0  0  0  0  0  0  0
   37.7650   22.0250   33.5910 H   0  0  0  0  0  0  0  0  0  0  0  0
   39.3140   22.6120   32.7980 H   0  0  0  0  0  0  0  0  0  0  0  0
   38.8330   22.2080   35.8050 H   0  0  0  0  0  0  0  0  0  0  0  0
   39.8780   21.2890   34.6820 H   0  0  0  0  0  0  0  0  0  0  0  0
   41.4100   23.0170   34.3340 H   0  0  0  0  0  0  0  0  0  0  0  0
   41.0810   22.9840   36.0690 H   0  0  0  0  0  0  0  0  0  0  0  0
   40.5350   25.1830   36.0590 H   0  0  0  0  0  0  0  0  0  0  0  0
   40.6240   25.2650   34.2740 H   0  0  0  0  0  0  0  0  0  0  0  0
   38.3150   24.1780   35.9610 H   0  0  0  0  0  0  0  0  0  0  0  0
   38.3520   25.8130   35.1260 H   0  0  0  0  0  0  0  0  0  0  0  0
   35.9920   30.0040   30.7950 C   0  0  0  0  0  0  0  0  0  0  0  0
   35.5660   30.6950   31.9510 C   0  0  0  0  0  0  0  0  0  0  0  0
   35.3860   29.9820   33.1130 C   0  0  0  0  0  0  0  0  0  0  0  0
   35.6360   28.6390   33.0700 N   0  0  0  0  0  0  0  0  0  0  0  0
   36.0400   27.9900   31.9700 C   0  0  0  0  0  0  0  0  0  0  0  0
   36.2130   28.6850   30.8440 N   0  0  0  0  0  0  0  0  0  0  0  0
   36.1260   30.5930   29.8880 H   0  0  0  0  0  0  0  0  0  0  0  0
   35.3840   31.7600   31.9270 H   0  0  0  0  0  0  0  0  0  0  0  0
   32.5160   29.6220   33.7400 Cl  0  0  0  0  0  0  0  0  0  0  0  0
   33.6610   30.4820   34.7750 C   0  0  0  0  0  0  0  0  0  0  0  0
   34.9570   30.5670   34.3520 C   0  0  0  0  0  0  0  0  0  0  0  0
   35.7990   31.2500   35.2010 C   0  0  0  0  0  0  0  0  0  0  0  0
   36.8360   31.3760   34.9670 H   0  0  0  0  0  0  0  0  0  0  0  0
   35.4310   31.8270   36.3990 C   0  0  0  0  0  0  0  0  0  0  0  0
   36.1200   32.3540   37.0380 H   0  0  0  0  0  0  0  0  0  0  0  0
   34.0940   31.7130   36.7900 C   0  0  0  0  0  3  0  0  0  0  0  0
   33.2250   31.0420   35.9710 C   0  0  0  0  0  3  0  0  0  0  0  0
  1  6  1  0  0  0  0
  2  3  1  0  0  0  0
  2  1  2  0  0  0  0
  3  4  2  0  0  0  0
  4  5  1  0  0  0  0
  5  7  1  0  0  0  0
  6  5  2  0  0  0  0
  7 12  1  0  0  0  0
  8  7  1  0  0  0  0
  8  9  1  0  0  0  0
  9 10  1  0  0  0  0
  9 18  1  0  0  0  0
 10 11  1  0  0  0  0
 10 21  1  0  0  0  0
 11 22  1  0  0  0  0
 12 11  1  0  0  0  0
 12 25  1  0  0  0  0
 12 24  1  0  0  0  0
 13  2  1  0  0  0  0
 14  3  1  0  0  0  0
 15  4  1  0  0  0  0
 16  8  1  0  0  0  0
 17  8  1  0  0  0  0
 19  9  1  0  0  0  0
 20 10  1  0  0  0  0
 23 11  1  0  0  0  0
 26 31  2  0  0  0  0
 26 27  1  0  0  0  0
 27 28  2  0  0  0  0
 28 36  1  0  0  0  0
 29 28  1  0  0  0  0
 30  1  1  0  0  0  0
 30 29  2  0  0  0  0
 31 30  1  0  0  0  0
 32 26  1  0  0  0  0
 33 27  1  0  0  0  0
 34 35  1  0  0  0  0
 35 42  1  0  0  0  0
 36 35  2  0  0  0  0
 36 37  1  0  0  0  0
 37 39  2  0  0  0  0
 38 37  1  0  0  0  0
 39 41  1  0  0  0  0
 39 40  1  0  0  0  0
 42 41  2  0  0  0  0
M  END
>  <minimizedAffinity>
-6.38288832

$$$$

 OpenBabel03272502573D

 42 45  0  0  0  0  0  0  0  0999 V2000
   36.9910   27.1470   32.7800 C   0  0  0  0  0  0  0  0  0  0  0  0
   36.3750   27.8910   33.7910 C   0  0  0  0  0  0  0  0  0  0  0  0
   36.0110   29.2080   33.5740 C   0  0  0  0  0  0  0  0  0  0  0  0
   36.2940   29.7200   32.3210 C   0  0  0  0  0  0  0  0  0  0  0  0
   36.9000   28.9940   31.3180 C   0  0  0  0  0  0  0  0  0  0  0  0
   37.2380   27.7080   31.5770 N   0  0  0  0  0  0  0  0  0  0  0  0
   37.1340   29.6270   30.0810 N   0  0  0  0  0  0  0  0  0  0  0  0
   37.0290   31.0600   29.9990 C   0  0  0  0  0  0  0  0  0  0  0  0
   37.2100   31.4450   28.5480 C   0  0  0  0  0  0  0  0  0  0  0  0
   38.5510   30.9530   28.0430 C   0  0  0  0  0  0  0  0  0  0  0  0
   38.7390   29.4920   28.3000 C   0  0  0  0  0  0  0  0  0  0  0  0
   37.4780   28.9040   28.8640 C   0  0  0  0  0  0  0  0  0  0  0  0
   36.1920   27.4090   34.7410 H   0  0  0  0  0  0  0  0  0  0  0  0
   35.5390   29.7540   34.3730 H   0  0  0  0  0  0  0  0  0  0  0  0
   35.9690   30.7710   32.2440 H   0  0  0  0  0  0  0  0  0  0  0  0
   36.0190   31.4290   30.3240 H   0  0  0  0  0  0  0  0  0  0  0  0
   37.8310   31.6000   30.5640 H   0  0  0  0  0  0  0  0  0  0  0  0
   36.3720   31.1160   27.9040 H   0  0  0  0  0  0  0  0  0  0  0  0
   37.2460   32.5670   28.4810 H   0  0  0  0  0  0  0  0  0  0  0  0
   39.3660   31.5890   28.4290 H   0  0  0  0  0  0  0  0  0  0  0  0
   38.5580   31.1090   26.9320 H   0  0  0  0  0  0  0  0  0  0  0  0
   38.9590   28.9200   27.3580 H   0  0  0  0  0  0  0  0  0  0  0  0
   39.5910   29.2850   28.9910 H   0  0  0  0  0  0  0  0  0  0  0  0
   36.6570   29.1070   28.1430 H   0  0  0  0  0  0  0  0  0  0  0  0
   37.5820   27.8190   29.0690 H   0  0  0  0  0  0  0  0  0  0  0  0
   37.7030   23.5890   32.3020 C   0  0  0  0  0  0  0  0  0  0  0  0
   38.0660   23.1780   33.6030 C   0  0  0  0  0  0  0  0  0  0  0  0
   38.0620   24.1140   34.6110 C   0  0  0  0  0  0  0  0  0  0  0  0
   37.7030   25.3900   34.2820 N   0  0  0  0  0  0  0  0  0  0  0  0
   37.3590   25.7730   33.0450 C   0  0  0  0  0  0  0  0  0  0  0  0
   37.3640   24.8630   32.0690 N   0  0  0  0  0  0  0  0  0  0  0  0
   37.7150   22.8290   31.5220 H   0  0  0  0  0  0  0  0  0  0  0  0
   38.3410   22.1530   33.8070 H   0  0  0  0  0  0  0  0  0  0  0  0
   40.6820   22.7850   34.9780 Cl  0  0  0  0  0  0  0  0  0  0  0  0
   39.5890   23.2110   36.2990 C   0  0  0  0  0  0  0  0  0  0  0  0
   38.4110   23.8230   35.9740 C   0  0  0  0  0  0  0  0  0  0  0  0
   37.6030   24.1290   37.0460 C   0  0  0  0  0  0  0  0  0  0  0  0
   36.6560   24.6100   36.9050 H   0  0  0  0  0  0  0  0  0  0  0  0
   37.8970   23.8680   38.3680 C   0  0  0  0  0  0  0  0  0  0  0  0
   37.2380   24.1240   39.1820 H   0  0  0  0  0  0  0  0  0  0  0  0
   39.1130   23.2420   38.6520 C   0  0  0  0  0  3  0  0  0  0  0  0
   39.9440   22.9210   37.6110 C   0  0  0  0  0  3  0  0  0  0  0  0
  1 30  1  0  0  0  0
  1  2  1  0  0  0  0
  2 13  1  0  0  0  0
  3  2  2  0  0  0  0
  3 14  1  0  0  0  0
  4  3  1  0  0  0  0
  5  6  1  0  0  0  0
  5  4  2  0  0  0  0
  6  1  2  0  0  0  0
  7  5  1  0  0  0  0
  8  7  1  0  0  0  0
  8 16  1  0  0  0  0
  8 17  1  0  0  0  0
  9  8  1  0  0  0  0
 10 11  1  0  0  0  0
 10 20  1  0  0  0  0
 10  9  1  0  0  0  0
 11 12  1  0  0  0  0
 11 23  1  0  0  0  0
 12 25  1  0  0  0  0
 12  7  1  0  0  0  0
 15  4  1  0  0  0  0
 18  9  1  0  0  0  0
 19  9  1  0  0  0  0
 21 10  1  0  0  0  0
 22 11  1  0  0  0  0
 24 12  1  0  0  0  0
 26 27  1  0  0  0  0
 27 33  1  0  0  0  0
 27 28  2  0  0  0  0
 28 36  1  0  0  0  0
 29 28  1  0  0  0  0
 30 29  2  0  0  0  0
 31 26  2  0  0  0  0
 31 30  1  0  0  0  0
 32 26  1  0  0  0  0
 34 35  1  0  0  0  0
 35 42  1  0  0  0  0
 36 35  2  0  0  0  0
 36 37  1  0  0  0  0
 37 39  2  0  0  0  0
 38 37  1  0  0  0  0
 39 41  1  0  0  0  0
 39 40  1  0  0  0  0
 42 41  2  0  0  0  0
M  END
>  <minimizedAffinity>
-6.18306541

$$$$

 OpenBabel03272502573D

 42 45  0  0  0  0  0  0  0  0999 V2000
   38.3710   24.3550   35.1290 C   0  0  0  0  0  0  0  0  0  0  0  0
   37.7510   24.5200   36.3720 C   0  0  0  0  0  0  0  0  0  0  0  0
   38.2940   23.9510   37.5100 C   0  0  0  0  0  0  0  0  0  0  0  0
   39.4590   23.2270   37.3330 C   0  0  0  0  0  0  0  0  0  0  0  0
   40.0770   23.0610   36.1130 C   0  0  0  0  0  0  0  0  0  0  0  0
   39.5100   23.6370   35.0260 N   0  0  0  0  0  0  0  0  0  0  0  0
   41.2640   22.3030   36.0620 N   0  0  0  0  0  0  0  0  0  0  0  0
   41.6180   21.4820   37.1890 C   0  0  0  0  0  0  0  0  0  0  0  0
   42.9790   20.8870   36.9060 C   0  0  0  0  0  0  0  0  0  0  0  0
   42.9380   20.0840   35.6220 C   0  0  0  0  0  0  0  0  0  0  0  0
   42.3900   20.8830   34.4850 C   0  0  0  0  0  0  0  0  0  0  0  0
   42.1660   22.3040   34.9180 C   0  0  0  0  0  0  0  0  0  0  0  0
   36.8420   25.1020   36.4170 H   0  0  0  0  0  0  0  0  0  0  0  0
   37.7920   24.0950   38.4510 H   0  0  0  0  0  0  0  0  0  0  0  0
   39.8130   22.8140   38.2930 H   0  0  0  0  0  0  0  0  0  0  0  0
   41.6990   22.0800   38.1370 H   0  0  0  0  0  0  0  0  0  0  0  0
   40.9270   20.6150   37.3450 H   0  0  0  0  0  0  0  0  0  0  0  0
   43.7900   21.6390   36.9060 H   0  0  0  0  0  0  0  0  0  0  0  0
   43.2200   20.1530   37.7240 H   0  0  0  0  0  0  0  0  0  0  0  0
   42.4270   19.1190   35.7850 H   0  0  0  0  0  0  0  0  0  0  0  0
   43.9980   19.8150   35.3730 H   0  0  0  0  0  0  0  0  0  0  0  0
   43.1010   20.9290   33.6150 H   0  0  0  0  0  0  0  0  0  0  0  0
   41.4390   20.4600   34.0820 H   0  0  0  0  0  0  0  0  0  0  0  0
   43.1350   22.7010   35.2900 H   0  0  0  0  0  0  0  0  0  0  0  0
   41.7570   22.9270   34.0960 H   0  0  0  0  0  0  0  0  0  0  0  0
   37.0710   24.8300   31.7410 C   0  0  0  0  0  0  0  0  0  0  0  0
   36.6280   26.1710   31.7750 C   0  0  0  0  0  0  0  0  0  0  0  0
   36.7800   26.8820   32.9420 C   0  0  0  0  0  0  0  0  0  0  0  0
   37.3550   26.2380   34.0000 N   0  0  0  0  0  0  0  0  0  0  0  0
   37.7730   24.9650   33.9610 C   0  0  0  0  0  0  0  0  0  0  0  0
   37.6240   24.2780   32.8280 N   0  0  0  0  0  0  0  0  0  0  0  0
   36.9380   24.2890   30.8050 H   0  0  0  0  0  0  0  0  0  0  0  0
   36.1810   26.6310   30.9050 H   0  0  0  0  0  0  0  0  0  0  0  0
   37.0980   28.5790   30.5360 Cl  0  0  0  0  0  0  0  0  0  0  0  0
   36.4590   29.1520   32.0810 C   0  0  0  0  0  0  0  0  0  0  0  0
   36.3710   28.2500   33.1030 C   0  0  0  0  0  0  0  0  0  0  0  0
   35.8670   28.7570   34.2800 C   0  0  0  0  0  0  0  0  0  0  0  0
   35.7550   28.1370   35.1460 H   0  0  0  0  0  0  0  0  0  0  0  0
   35.4630   30.0600   34.4800 C   0  0  0  0  0  0  0  0  0  0  0  0
   35.0720   30.4220   35.4180 H   0  0  0  0  0  0  0  0  0  0  0  0
   35.5710   30.9460   33.4050 C   0  0  0  0  0  3  0  0  0  0  0  0
   36.0690   30.4790   32.2180 C   0  0  0  0  0  3  0  0  0  0  0  0
  1  2  1  0  0  0  0
  2 13  1  0  0  0  0
  2  3  2  0  0  0  0
  3 14  1  0  0  0  0
  4  3  1  0  0  0  0
  4 15  1  0  0  0  0
  5  4  2  0  0  0  0
  6  1  2  0  0  0  0
  6  5  1  0  0  0  0
  7  5  1  0  0  0  0
  7  8  1  0  0  0  0
  8 17  1  0  0  0  0
  8 16  1  0  0  0  0
  9 18  1  0  0  0  0
  9  8  1  0  0  0  0
  9 19  1  0  0  0  0
 10 20  1  0  0  0  0
 10  9  1  0  0  0  0
 11 12  1  0  0  0  0
 11 10  1  0  0  0  0
 12 24  1  0  0  0  0
 12  7  1  0  0  0  0
 21 10  1  0  0  0  0
 22 11  1  0  0  0  0
 23 11  1  0  0  0  0
 25 12  1  0  0  0  0
 26 27  2  0  0  0  0
 26 31  1  0  0  0  0
 27 28  1  0  0  0  0
 28 36  1  0  0  0  0
 28 29  2  0  0  0  0
 30 29  1  0  0  0  0
 30  1  1  0  0  0  0
 31 30  2  0  0  0  0
 32 26  1  0  0  0  0
 33 27  1  0  0  0  0
 34 35  1  0  0  0  0
 35 42  2  0  0  0  0
 35 36  1  0  0  0  0
 36 37  2  0  0  0  0
 37 39  1  0  0  0  0
 37 38  1  0  0  0  0
 39 40  1  0  0  0  0
 41 39  2  0  0  0  0
 42 41  1  0  0  0  0
M  END
>  <minimizedAffinity>
-6.08348417

$$$$

 OpenBabel03272502573D

 42 45  0  0  0  0  0  0  0  0999 V2000
   38.0340   25.6330   31.8300 C   0  0  0  0  0  0  0  0  0  0  0  0
   38.9780   25.6830   30.7990 C   0  0  0  0  0  0  0  0  0  0  0  0
   39.1660   26.8460   30.0740 C   0  0  0  0  0  0  0  0  0  0  0  0
   38.3750   27.9230   30.4320 C   0  0  0  0  0  0  0  0  0  0  0  0
   37.4440   27.8820   31.4470 C   0  0  0  0  0  0  0  0  0  0  0  0
   37.2940   26.7210   32.1300 N   0  0  0  0  0  0  0  0  0  0  0  0
   36.6990   29.0470   31.7200 N   0  0  0  0  0  0  0  0  0  0  0  0
   36.7010   30.1190   30.7600 C   0  0  0  0  0  0  0  0  0  0  0  0
   35.9280   31.2690   31.3630 C   0  0  0  0  0  0  0  0  0  0  0  0
   34.5190   30.8270   31.7030 C   0  0  0  0  0  0  0  0  0  0  0  0
   34.5140   29.5960   32.5510 C   0  0  0  0  0  0  0  0  0  0  0  0
   35.9190   29.2320   32.9360 C   0  0  0  0  0  0  0  0  0  0  0  0
   39.5520   24.7930   30.5870 H   0  0  0  0  0  0  0  0  0  0  0  0
   39.9000   26.8530   29.2860 H   0  0  0  0  0  0  0  0  0  0  0  0
   38.5970   28.8000   29.8010 H   0  0  0  0  0  0  0  0  0  0  0  0
   37.7400   30.4860   30.5390 H   0  0  0  0  0  0  0  0  0  0  0  0
   36.1780   29.8620   29.8030 H   0  0  0  0  0  0  0  0  0  0  0  0
   36.4430   31.7330   32.2250 H   0  0  0  0  0  0  0  0  0  0  0  0
   35.8210   32.0710   30.5820 H   0  0  0  0  0  0  0  0  0  0  0  0
   33.9070   30.7500   30.7890 H   0  0  0  0  0  0  0  0  0  0  0  0
   34.0530   31.6550   32.2990 H   0  0  0  0  0  0  0  0  0  0  0  0
   33.9530   29.7460   33.5140 H   0  0  0  0  0  0  0  0  0  0  0  0
   34.0280   28.7280   32.0440 H   0  0  0  0  0  0  0  0  0  0  0  0
   36.3650   30.1070   33.4580 H   0  0  0  0  0  0  0  0  0  0  0  0
   35.9520   28.3200   33.5670 H   0  0  0  0  0  0  0  0  0  0  0  0
   37.2570   22.1470   32.6290 C   0  0  0  0  0  0  0  0  0  0  0  0
   37.5650   22.0790   34.0060 C   0  0  0  0  0  0  0  0  0  0  0  0
   38.0280   23.2130   34.6310 C   0  0  0  0  0  0  0  0  0  0  0  0
   38.1600   24.3400   33.8710 N   0  0  0  0  0  0  0  0  0  0  0  0
   37.8650   24.3980   32.5640 C   0  0  0  0  0  0  0  0  0  0  0  0
   37.4160   23.2960   31.9610 N   0  0  0  0  0  0  0  0  0  0  0  0
   36.8920   21.2340   32.1590 H   0  0  0  0  0  0  0  0  0  0  0  0
   37.4400   21.1590   34.5590 H   0  0  0  0  0  0  0  0  0  0  0  0
   40.6850   22.0970   35.3090 Cl  0  0  0  0  0  0  0  0  0  0  0  0
   39.5700   22.7970   36.4870 C   0  0  0  0  0  0  0  0  0  0  0  0
   38.3760   23.2730   36.0230 C   0  0  0  0  0  0  0  0  0  0  0  0
   37.5510   23.8040   36.9890 C   0  0  0  0  0  0  0  0  0  0  0  0
   36.5910   24.2060   36.7360 H   0  0  0  0  0  0  0  0  0  0  0  0
   37.8430   23.8830   38.3350 C   0  0  0  0  0  0  0  0  0  0  0  0
   37.1710   24.3070   39.0630 H   0  0  0  0  0  0  0  0  0  0  0  0
   39.0770   23.3830   38.7620 C   0  0  0  0  0  3  0  0  0  0  0  0
   39.9240   22.8450   37.8300 C   0  0  0  0  0  3  0  0  0  0  0  0
  1  6  1  0  0  0  0
  1 30  1  0  0  0  0
  2  1  2  0  0  0  0
  3  4  2  0  0  0  0
  3  2  1  0  0  0  0
  4  5  1  0  0  0  0
  5  7  1  0  0  0  0
  5  6  2  0  0  0  0
  7 12  1  0  0  0  0
  8  9  1  0  0  0  0
  8  7  1  0  0  0  0
  9 10  1  0  0  0  0
  9 18  1  0  0  0  0
 10 21  1  0  0  0  0
 10 11  1  0  0  0  0
 11 12  1  0  0  0  0
 11 22  1  0  0  0  0
 12 24  1  0  0  0  0
 12 25  1  0  0  0  0
 13  2  1  0  0  0  0
 14  3  1  0  0  0  0
 15  4  1  0  0  0  0
 16  8  1  0  0  0  0
 17  8  1  0  0  0  0
 19  9  1  0  0  0  0
 20 10  1  0  0  0  0
 23 11  1  0  0  0  0
 26 27  1  0  0  0  0
 27 33  1  0  0  0  0
 27 28  2  0  0  0  0
 28 36  1  0  0  0  0
 29 28  1  0  0  0  0
 30 29  2  0  0  0  0
 31 30  1  0  0  0  0
 31 26  2  0  0  0  0
 32 26  1  0  0  0  0
 34 35  1  0  0  0  0
 35 42  1  0  0  0  0
 36 35  2  0  0  0  0
 36 37  1  0  0  0  0
 37 39  2  0  0  0  0
 38 37  1  0  0  0  0
 39 41  1  0  0  0  0
 39 40  1  0  0  0  0
 42 41  2  0  0  0  0
M  END
>  <minimizedAffinity>
-6.06109762

$$$$

 OpenBabel03272502573D

 42 45  0  0  0  0  0  0  0  0999 V2000
   37.7570   25.8550   32.6100 C   0  0  0  0  0  0  0  0  0  0  0  0
   38.3610   25.9980   31.3570 C   0  0  0  0  0  0  0  0  0  0  0  0
   38.2330   27.1770   30.6450 C   0  0  0  0  0  0  0  0  0  0  0  0
   37.4850   28.1740   31.2450 C   0  0  0  0  0  0  0  0  0  0  0  0
   36.8870   28.0410   32.4800 C   0  0  0  0  0  0  0  0  0  0  0  0
   37.0400   26.8680   33.1410 N   0  0  0  0  0  0  0  0  0  0  0  0
   36.1500   29.1310   32.9880 N   0  0  0  0  0  0  0  0  0  0  0  0
   35.7860   30.2020   32.0990 C   0  0  0  0  0  0  0  0  0  0  0  0
   35.1170   31.2720   32.9320 C   0  0  0  0  0  0  0  0  0  0  0  0
   33.9070   30.6980   33.6410 C   0  0  0  0  0  0  0  0  0  0  0  0
   34.2510   29.4680   34.4180 C   0  0  0  0  0  0  0  0  0  0  0  0
   35.7340   29.2360   34.3800 C   0  0  0  0  0  0  0  0  0  0  0  0
   38.9280   25.1670   30.9640 H   0  0  0  0  0  0  0  0  0  0  0  0
   38.7100   27.2570   29.6830 H   0  0  0  0  0  0  0  0  0  0  0  0
   37.4400   29.0710   30.6050 H   0  0  0  0  0  0  0  0  0  0  0  0
   36.6830   30.6650   31.6070 H   0  0  0  0  0  0  0  0  0  0  0  0
   35.0370   29.9020   31.3210 H   0  0  0  0  0  0  0  0  0  0  0  0
   35.8120   31.7780   33.6280 H   0  0  0  0  0  0  0  0  0  0  0  0
   34.7230   32.0650   32.2380 H   0  0  0  0  0  0  0  0  0  0  0  0
   33.0700   30.5690   32.9350 H   0  0  0  0  0  0  0  0  0  0  0  0
   33.5580   31.4770   34.3700 H   0  0  0  0  0  0  0  0  0  0  0  0
   33.9760   29.5610   35.5040 H   0  0  0  0  0  0  0  0  0  0  0  0
   33.7190   28.5620   34.0420 H   0  0  0  0  0  0  0  0  0  0  0  0
   36.2300   30.1450   34.7820 H   0  0  0  0  0  0  0  0  0  0  0  0
   36.0250   28.3280   34.9460 H   0  0  0  0  0  0  0  0  0  0  0  0
   38.7560   23.3980   35.1320 C   0  0  0  0  0  0  0  0  0  0  0  0
   38.1750   22.2090   34.6400 C   0  0  0  0  0  0  0  0  0  0  0  0
   37.4590   22.2660   33.4670 C   0  0  0  0  0  0  0  0  0  0  0  0
   37.3580   23.4810   32.8510 N   0  0  0  0  0  0  0  0  0  0  0  0
   37.9130   24.6060   33.3240 C   0  0  0  0  0  0  0  0  0  0  0  0
   38.6060   24.5470   34.4620 N   0  0  0  0  0  0  0  0  0  0  0  0
   39.3180   23.3250   36.0630 H   0  0  0  0  0  0  0  0  0  0  0  0
   38.2880   21.2740   35.1690 H   0  0  0  0  0  0  0  0  0  0  0  0
   35.5670   20.8130   35.2200 Cl  0  0  0  0  0  0  0  0  0  0  0  0
   35.9230   20.3610   33.5500 C   0  0  0  0  0  0  0  0  0  0  0  0
   36.8210   21.1290   32.8640 C   0  0  0  0  0  0  0  0  0  0  0  0
   37.0570   20.7250   31.5680 C   0  0  0  0  0  0  0  0  0  0  0  0
   37.7430   21.2560   30.9400 H   0  0  0  0  0  0  0  0  0  0  0  0
   36.4680   19.6430   30.9490 C   0  0  0  0  0  0  0  0  0  0  0  0
   36.6770   19.3570   29.9310 H   0  0  0  0  0  0  0  0  0  0  0  0
   35.5550   18.8870   31.6910 C   0  0  0  0  0  3  0  0  0  0  0  0
   35.2960   19.2570   32.9840 C   0  0  0  0  0  3  0  0  0  0  0  0
  1  6  1  0  0  0  0
  1 30  1  0  0  0  0
  2  1  2  0  0  0  0
  3  4  2  0  0  0  0
  3  2  1  0  0  0  0
  4  5  1  0  0  0  0
  5  7  1  0  0  0  0
  5  6  2  0  0  0  0
  7 12  1  0  0  0  0
  8  9  1  0  0  0  0
  8  7  1  0  0  0  0
  9 18  1  0  0  0  0
  9 10  1  0  0  0  0
 10 21  1  0  0  0  0
 10 11  1  0  0  0  0
 11 22  1  0  0  0  0
 12 11  1  0  0  0  0
 12 24  1  0  0  0  0
 12 25  1  0  0  0  0
 13  2  1  0  0  0  0
 14  3  1  0  0  0  0
 15  4  1  0  0  0  0
 16  8  1  0  0  0  0
 17  8  1  0  0  0  0
 19  9  1  0  0  0  0
 20 10  1  0  0  0  0
 23 11  1  0  0  0  0
 26 32  1  0  0  0  0
 27 26  1  0  0  0  0
 27 33  1  0  0  0  0
 28 27  2  0  0  0  0
 29 30  2  0  0  0  0
 29 28  1  0  0  0  0
 30 31  1  0  0  0  0
 31 26  2  0  0  0  0
 35 34  1  0  0  0  0
 36 28  1  0  0  0  0
 36 35  2  0  0  0  0
 37 36  1  0  0  0  0
 38 37  1  0  0  0  0
 39 37  2  0  0  0  0
 39 41  1  0  0  0  0
 40 39  1  0  0  0  0
 41 42  2  0  0  0  0
 42 35  1  0  0  0  0
M  END
>  <minimizedAffinity>
-6.01020765

$$$$

 OpenBabel03272502573D

 42 45  0  0  0  0  0  0  0  0999 V2000
   37.5320   25.7660   32.1630 C   0  0  0  0  0  0  0  0  0  0  0  0
   38.1970   26.0100   30.9580 C   0  0  0  0  0  0  0  0  0  0  0  0
   38.2130   27.2780   30.4070 C   0  0  0  0  0  0  0  0  0  0  0  0
   37.5400   28.2580   31.1140 C   0  0  0  0  0  0  0  0  0  0  0  0
   36.8820   28.0260   32.3030 C   0  0  0  0  0  0  0  0  0  0  0  0
   36.8940   26.7680   32.8050 N   0  0  0  0  0  0  0  0  0  0  0  0
   36.2340   29.1090   32.9310 N   0  0  0  0  0  0  0  0  0  0  0  0
   36.0110   30.3190   32.1840 C   0  0  0  0  0  0  0  0  0  0  0  0
   35.4150   31.3330   33.1330 C   0  0  0  0  0  0  0  0  0  0  0  0
   34.1280   30.7970   33.7260 C   0  0  0  0  0  0  0  0  0  0  0  0
   34.3190   29.4480   34.3410 C   0  0  0  0  0  0  0  0  0  0  0  0
   35.7730   29.0740   34.3120 C   0  0  0  0  0  0  0  0  0  0  0  0
   38.6970   25.1840   30.4730 H   0  0  0  0  0  0  0  0  0  0  0  0
   38.7340   27.4340   29.4770 H   0  0  0  0  0  0  0  0  0  0  0  0
   37.6080   29.2310   30.5980 H   0  0  0  0  0  0  0  0  0  0  0  0
   36.9680   30.7500   31.7830 H   0  0  0  0  0  0  0  0  0  0  0  0
   35.2690   30.2000   31.3530 H   0  0  0  0  0  0  0  0  0  0  0  0
   36.1270   31.6710   33.9100 H   0  0  0  0  0  0  0  0  0  0  0  0
   35.1270   32.2450   32.5410 H   0  0  0  0  0  0  0  0  0  0  0  0
   33.3110   30.8460   32.9860 H   0  0  0  0  0  0  0  0  0  0  0  0
   33.8260   31.5060   34.5420 H   0  0  0  0  0  0  0  0  0  0  0  0
   34.0100   29.4250   35.4210 H   0  0  0  0  0  0  0  0  0  0  0  0
   33.7190   28.6570   33.8320 H   0  0  0  0  0  0  0  0  0  0  0  0
   36.3380   29.8690   34.8460 H   0  0  0  0  0  0  0  0  0  0  0  0
   35.9520   28.0750   34.7600 H   0  0  0  0  0  0  0  0  0  0  0  0
   36.7300   22.2370   32.7090 C   0  0  0  0  0  0  0  0  0  0  0  0
   37.5900   21.8950   33.7770 C   0  0  0  0  0  0  0  0  0  0  0  0
   38.4200   22.8660   34.2860 C   0  0  0  0  0  0  0  0  0  0  0  0
   38.3560   24.1070   33.7200 N   0  0  0  0  0  0  0  0  0  0  0  0
   37.5370   24.4250   32.7080 C   0  0  0  0  0  0  0  0  0  0  0  0
   36.7330   23.4810   32.2160 N   0  0  0  0  0  0  0  0  0  0  0  0
   36.0830   21.4490   32.3240 H   0  0  0  0  0  0  0  0  0  0  0  0
   37.5970   20.8950   34.1870 H   0  0  0  0  0  0  0  0  0  0  0  0
   37.3980   23.5980   36.9670 Cl  0  0  0  0  0  0  0  0  0  0  0  0
   39.0080   22.9360   36.6620 C   0  0  0  0  0  0  0  0  0  0  0  0
   39.3380   22.6450   35.3690 C   0  0  0  0  0  0  0  0  0  0  0  0
   40.6050   22.1340   35.1960 C   0  0  0  0  0  0  0  0  0  0  0  0
   40.9680   21.8720   34.2230 H   0  0  0  0  0  0  0  0  0  0  0  0
   41.5190   21.9060   36.2030 C   0  0  0  0  0  0  0  0  0  0  0  0
   42.5040   21.5030   36.0300 H   0  0  0  0  0  0  0  0  0  0  0  0
   41.1350   22.2180   37.5110 C   0  0  0  0  0  3  0  0  0  0  0  0
   39.8830   22.7300   37.7220 C   0  0  0  0  0  3  0  0  0  0  0  0
  1 30  1  0  0  0  0
  1  6  1  0  0  0  0
  2  1  2  0  0  0  0
  3  2  1  0  0  0  0
  3  4  2  0  0  0  0
  4  5  1  0  0  0  0
  5  6  2  0  0  0  0
  5  7  1  0  0  0  0
  7 12  1  0  0  0  0
  8  7  1  0  0  0  0
  8  9  1  0  0  0  0
  9 10  1  0  0  0  0
  9 18  1  0  0  0  0
 10 11  1  0  0  0  0
 10 21  1  0  0  0  0
 11 22  1  0  0  0  0
 12 11  1  0  0  0  0
 12 25  1  0  0  0  0
 12 24  1  0  0  0  0
 13  2  1  0  0  0  0
 14  3  1  0  0  0  0
 15  4  1  0  0  0  0
 16  8  1  0  0  0  0
 17  8  1  0  0  0  0
 19  9  1  0  0  0  0
 20 10  1  0  0  0  0
 23 11  1  0  0  0  0
 26 27  1  0  0  0  0
 27 33  1  0  0  0  0
 27 28  2  0  0  0  0
 28 36  1  0  0  0  0
 29 28  1  0  0  0  0
 30 29  2  0  0  0  0
 31 30  1  0  0  0  0
 31 26  2  0  0  0  0
 32 26  1  0  0  0  0
 35 34  1  0  0  0  0
 35 42  1  0  0  0  0
 36 35  2  0  0  0  0
 37 36  1  0  0  0  0
 37 39  2  0  0  0  0
 38 37  1  0  0  0  0
 39 41  1  0  0  0  0
 40 39  1  0  0  0  0
 41 42  2  0  0  0  0
M  END
>  <minimizedAffinity>
-5.97816372

$$$$

 OpenBabel03272502573D

 42 45  0  0  0  0  0  0  0  0999 V2000
   35.3500   29.3390   32.0120 C   0  0  0  0  0  0  0  0  0  0  0  0
   35.7800   29.6900   30.7280 C   0  0  0  0  0  0  0  0  0  0  0  0
   37.0020   29.2510   30.2510 C   0  0  0  0  0  0  0  0  0  0  0  0
   37.7460   28.4640   31.1110 C   0  0  0  0  0  0  0  0  0  0  0  0
   37.3300   28.1130   32.3770 C   0  0  0  0  0  0  0  0  0  0  0  0
   36.1260   28.5660   32.8020 N   0  0  0  0  0  0  0  0  0  0  0  0
   38.1780   27.3030   33.1600 N   0  0  0  0  0  0  0  0  0  0  0  0
   39.5480   27.1320   32.7560 C   0  0  0  0  0  0  0  0  0  0  0  0
   40.1770   26.1330   33.7010 C   0  0  0  0  0  0  0  0  0  0  0  0
   40.0730   26.6300   35.1280 C   0  0  0  0  0  0  0  0  0  0  0  0
   38.6680   26.9890   35.4900 C   0  0  0  0  0  0  0  0  0  0  0  0
   37.7390   26.6200   34.3690 C   0  0  0  0  0  0  0  0  0  0  0  0
   35.1330   30.3080   30.1240 H   0  0  0  0  0  0  0  0  0  0  0  0
   37.3040   29.5390   29.2580 H   0  0  0  0  0  0  0  0  0  0  0  0
   38.6990   28.1650   30.6440 H   0  0  0  0  0  0  0  0  0  0  0  0
   39.6320   26.7160   31.7160 H   0  0  0  0  0  0  0  0  0  0  0  0
   40.1600   28.0660   32.8430 H   0  0  0  0  0  0  0  0  0  0  0  0
   39.7720   25.1100   33.5810 H   0  0  0  0  0  0  0  0  0  0  0  0
   41.2760   26.0730   33.4720 H   0  0  0  0  0  0  0  0  0  0  0  0
   40.8070   27.4330   35.3120 H   0  0  0  0  0  0  0  0  0  0  0  0
   40.3920   25.7840   35.7910 H   0  0  0  0  0  0  0  0  0  0  0  0
   38.3060   26.4290   36.3950 H   0  0  0  0  0  0  0  0  0  0  0  0
   38.5510   28.0730   35.7310 H   0  0  0  0  0  0  0  0  0  0  0  0
   37.8630   25.5330   34.1710 H   0  0  0  0  0  0  0  0  0  0  0  0
   36.6850   26.8740   34.6040 H   0  0  0  0  0  0  0  0  0  0  0  0
   32.2200   31.2220   32.2330 C   0  0  0  0  0  0  0  0  0  0  0  0
   31.6310   30.6890   33.4010 C   0  0  0  0  0  0  0  0  0  0  0  0
   32.3060   29.7060   34.0860 C   0  0  0  0  0  0  0  0  0  0  0  0
   33.5130   29.3070   33.5860 N   0  0  0  0  0  0  0  0  0  0  0  0
   34.0670   29.8180   32.4770 C   0  0  0  0  0  0  0  0  0  0  0  0
   33.4090   30.7720   31.8150 N   0  0  0  0  0  0  0  0  0  0  0  0
   31.6650   32.0000   31.7100 H   0  0  0  0  0  0  0  0  0  0  0  0
   30.6720   31.0440   33.7520 H   0  0  0  0  0  0  0  0  0  0  0  0
   33.0500   31.0730   36.6040 Cl  0  0  0  0  0  0  0  0  0  0  0  0
   32.0770   29.6010   36.5210 C   0  0  0  0  0  0  0  0  0  0  0  0
   31.8140   29.0840   35.2840 C   0  0  0  0  0  0  0  0  0  0  0  0
   31.0530   27.9360   35.2860 C   0  0  0  0  0  0  0  0  0  0  0  0
   30.7880   27.4470   34.3700 H   0  0  0  0  0  0  0  0  0  0  0  0
   30.5610   27.3060   36.4090 C   0  0  0  0  0  0  0  0  0  0  0  0
   29.9660   26.4070   36.3710 H   0  0  0  0  0  0  0  0  0  0  0  0
   30.8550   27.8720   37.6530 C   0  0  0  0  0  3  0  0  0  0  0  0
   31.6110   29.0140   37.6910 C   0  0  0  0  0  3  0  0  0  0  0  0
  1 30  1  0  0  0  0
  1  6  1  0  0  0  0
  2  1  2  0  0  0  0
  3  2  1  0  0  0  0
  3  4  2  0  0  0  0
  4  5  1  0  0  0  0
  5  6  2  0  0  0  0
  5  7  1  0  0  0  0
  7 12  1  0  0  0  0
  8 17  1  0  0  0  0
  8  7  1  0  0  0  0
  8  9  1  0  0  0  0
  9 10  1  0  0  0  0
 10 20  1  0  0  0  0
 10 11  1  0  0  0  0
 10 21  1  0  0  0  0
 11 23  1  0  0  0  0
 11 22  1  0  0  0  0
 12 25  1  0  0  0  0
 12 11  1  0  0  0  0
 13  2  1  0  0  0  0
 14  3  1  0  0  0  0
 15  4  1  0  0  0  0
 16  8  1  0  0  0  0
 18  9  1  0  0  0  0
 19  9  1  0  0  0  0
 24 12  1  0  0  0  0
 26 27  1  0  0  0  0
 27 33  1  0  0  0  0
 27 28  2  0  0  0  0
 28 36  1  0  0  0  0
 29 28  1  0  0  0  0
 30 29  2  0  0  0  0
 31 26  2  0  0  0  0
 31 30  1  0  0  0  0
 32 26  1  0  0  0  0
 35 34  1  0  0  0  0
 35 42  1  0  0  0  0
 36 37  1  0  0  0  0
 36 35  2  0  0  0  0
 37 39  2  0  0  0  0
 38 37  1  0  0  0  0
 39 41  1  0  0  0  0
 40 39  1  0  0  0  0
 41 42  2  0  0  0  0
M  END
>  <minimizedAffinity>
-5.96865797

$$$$
