
 OpenBabel03262523013D

 26 28  0  0  0  0  0  0  0  0999 V2000
   37.5960   31.1280   49.5830 C   0  0  0  0  0  0  0  0  0  0  0  0
   37.8310   30.7080   50.8500 C   0  0  0  0  0  0  0  0  0  0  0  0
   37.0340   29.7690   51.4210 C   0  0  0  0  0  0  0  0  0  0  0  0
   35.9920   29.2460   50.7150 N   0  0  0  0  0  0  0  0  0  0  0  0
   35.7790   29.6750   49.4700 C   0  0  0  0  0  0  0  0  0  0  0  0
   36.5610   30.6130   48.8740 N   0  0  0  0  0  0  0  0  0  0  0  0
   38.6600   31.1460   51.3640 H   0  0  0  0  0  0  0  0  0  0  0  0
   37.2830   29.4830   52.4380 H   0  0  0  0  0  0  0  0  0  0  0  0
   39.5220   34.1880   48.9280 C   0  0  0  0  0  0  0  0  0  0  0  0
   39.9570   33.9980   47.5970 C   0  0  0  0  0  0  0  0  0  0  0  0
   39.5720   32.8090   46.9560 C   0  0  0  0  0  0  0  0  0  0  0  0
   38.8120   31.9230   47.6470 N   0  0  0  0  0  0  0  0  0  0  0  0
   38.4090   32.1270   48.9130 C   0  0  0  0  0  0  0  0  0  0  0  0
   38.7720   33.2750   49.5540 N   0  0  0  0  0  0  0  0  0  0  0  0
   39.8450   35.1190   49.3770 H   0  0  0  0  0  0  0  0  0  0  0  0
   40.5640   34.7050   47.0480 H   0  0  0  0  0  0  0  0  0  0  0  0
   39.8990   32.6500   45.9380 H   0  0  0  0  0  0  0  0  0  0  0  0
   35.8040   30.2320   46.5520 Cl  0  0  0  0  0  0  0  0  0  0  0  0
   34.5390   29.2920   47.3490 C   0  0  0  0  0  0  0  0  0  0  0  0
   34.6650   29.1200   48.7050 C   0  0  0  0  0  0  0  0  0  0  0  0
   33.6870   28.3890   49.3490 C   0  0  0  0  0  0  0  0  0  0  0  0
   33.7380   28.2260   50.4010 H   0  0  0  0  0  0  0  0  0  0  0  0
   32.6350   27.8690   48.6060 C   0  0  0  0  0  0  0  0  0  0  0  0
   31.8630   27.2930   49.1130 H   0  0  0  0  0  0  0  0  0  0  0  0
   32.5520   28.0720   47.2390 C   0  0  0  0  0  0  0  0  0  0  0  0
   33.5270   28.8080   46.5560 C   0  0  0  0  0  0  0  0  0  0  0  0
  1  2  1  0  0  0  0
  2  7  1  0  0  0  0
  2  3  2  0  0  0  0
  3  8  1  0  0  0  0
  4  3  1  0  0  0  0
  5  4  2  0  0  0  0
  6  5  1  0  0  0  0
  6  1  2  0  0  0  0
  9 15  1  0  0  0  0
  9 14  1  0  0  0  0
 10  9  2  0  0  0  0
 11 10  1  0  0  0  0
 11 12  2  0  0  0  0
 12 13  1  0  0  0  0
 13 14  2  0  0  0  0
 13  1  1  0  0  0  0
 16 10  1  0  0  0  0
 17 11  1  0  0  0  0
 18 19  1  0  0  0  0
 19 20  1  0  0  0  0
 20 21  2  0  0  0  0
 20  5  1  0  0  0  0
 21 22  1  0  0  0  0
 23 24  1  0  0  0  0
 23 21  1  0  0  0  0
 25 23  2  0  0  0  0
 26 25  1  0  0  0  0
 26 19  2  0  0  0  0
M  END
>  <minimizedAffinity>
-5.99445105

>  <minimizedRMSD>
2.5431385

$$$$
