
 OpenBabel03272508453D

 27 29  0  0  0  0  0  0  0  0999 V2000
   35.6560   29.6560   49.6510 C   0  0  0  0  0  0  0  0  0  0  0  0
   36.6950   29.3580   50.5230 C   0  0  0  0  0  0  0  0  0  0  0  0
   37.7920   29.9170   49.8770 C   0  0  0  0  0  0  0  0  0  0  0  0
   37.3930   30.4990   48.7020 C   0  0  0  0  0  0  0  0  0  0  0  0
   36.1020   30.3240   48.5970 O   0  0  0  0  0  0  0  0  0  0  0  0
   36.6730   28.8320   51.4600 H   0  0  0  0  0  0  0  0  0  0  0  0
   38.8100   29.8680   50.2940 H   0  0  0  0  0  0  0  0  0  0  0  0
   38.2300   33.3440   49.4270 Cl  0  0  0  0  0  0  0  0  0  0  0  0
   38.6900   32.4710   47.9790 C   0  0  0  0  0  0  0  0  0  0  0  0
   38.2550   31.1860   47.7490 C   0  0  0  0  0  0  0  0  0  0  0  0
   38.6530   30.5540   46.5900 C   0  0  0  0  0  0  0  0  0  0  0  0
   38.2890   29.5430   46.4450 H   0  0  0  0  0  0  0  0  0  0  0  0
   39.4640   31.1210   45.6330 C   0  0  0  0  0  0  0  0  0  0  0  0
   39.7040   30.5150   44.7640 H   0  0  0  0  0  0  0  0  0  0  0  0
   39.8950   32.4240   45.8840 C   0  0  0  0  0  3  0  0  0  0  0  0
   39.5100   33.0770   47.0360 C   0  0  0  0  0  3  0  0  0  0  0  0
   34.2560   29.2690   49.8900 C   0  0  0  0  0  0  0  0  0  0  0  0
   33.6330   29.8470   50.8190 O   0  0  0  0  0  0  0  0  0  0  0  0
   31.6710   27.2000   48.3870 C   0  0  0  0  0  0  0  0  0  0  0  0
   32.4000   26.3530   47.5290 C   0  0  0  0  0  0  0  0  0  0  0  0
   33.7900   26.4940   47.4680 C   0  0  0  0  0  0  0  0  0  0  0  0
   34.3520   27.4470   48.2450 N   0  0  0  0  0  0  0  0  0  0  0  0
   33.6410   28.2470   49.0580 C   0  0  0  0  0  0  0  0  0  0  0  0
   32.3110   28.1170   49.1210 N   0  0  0  0  0  0  0  0  0  0  0  0
   30.5950   27.1190   48.4600 H   0  0  0  0  0  0  0  0  0  0  0  0
   31.8790   25.6210   46.9450 H   0  0  0  0  0  0  0  0  0  0  0  0
   34.3780   25.8580   46.8180 H   0  0  0  0  0  0  0  0  0  0  0  0
  1 17  1  0  0  0  0
  1  2  2  0  0  0  0
  2  6  1  0  0  0  0
  3  7  1  0  0  0  0
  3  2  1  0  0  0  0
  4  3  2  0  0  0  0
  5  4  1  0  0  0  0
  5  1  1  0  0  0  0
  9  8  1  0  0  0  0
 10  9  1  0  0  0  0
 10  4  1  0  0  0  0
 11 10  2  0  0  0  0
 12 11  1  0  0  0  0
 13 15  2  0  0  0  0
 13 11  1  0  0  0  0
 14 13  1  0  0  0  0
 15 16  1  0  0  0  0
 16  9  2  0  0  0  0
 17 18  2  0  0  0  0
 19 25  1  0  0  0  0
 19 24  1  0  0  0  0
 20 19  2  0  0  0  0
 21 20  1  0  0  0  0
 21 22  2  0  0  0  0
 22 23  1  0  0  0  0
 23 24  2  0  0  0  0
 23 17  1  0  0  0  0
 26 20  1  0  0  0  0
 27 21  1  0  0  0  0
M  END
>  <minimizedAffinity>
-6.21712446

>  <minimizedRMSD>
3.20463324

$$$$
