
 OpenBabel03272502383D

 30 32  0  0  1  0  0  0  0  0999 V2000
   36.4310   27.8850   32.6570 N   0  0  0  0  0  0  0  0  0  0  0  0
   36.6450   29.0340   31.7880 C   0  0  0  0  0  0  0  0  0  0  0  0
   35.8480   30.1310   32.4870 C   0  0  0  0  0  0  0  0  0  0  0  0
   35.1800   29.4750   33.6700 C   0  0  1  0  0  0  0  0  0  0  0  0
   36.2190   28.4170   34.0060 C   0  0  0  0  0  0  0  0  0  0  0  0
   36.3280   28.8860   30.7570 H   0  0  0  0  0  0  0  0  0  0  0  0
   37.7010   29.3490   31.8030 H   0  0  0  0  0  0  0  0  0  0  0  0
   35.1060   30.5520   31.7890 H   0  0  0  0  0  0  0  0  0  0  0  0
   36.5030   30.9590   32.8350 H   0  0  0  0  0  0  0  0  0  0  0  0
   34.2690   28.9350   33.3360 H   0  0  0  0  0  0  0  0  0  0  0  0
   35.7820   27.6090   34.6270 H   0  0  0  0  0  0  0  0  0  0  0  0
   37.1420   28.8170   34.4280 H   0  0  0  0  0  0  0  0  0  0  0  0
   36.4280   26.5170   32.2880 C   0  0  0  0  0  0  0  0  0  0  0  0
   35.4990   26.1280   31.3270 C   0  0  0  0  0  0  0  0  0  0  0  0
   35.4590   24.7800   30.9300 C   0  0  0  0  0  0  0  0  0  0  0  0
   36.3650   23.9320   31.5370 N   0  0  0  0  0  0  0  0  0  0  0  0
   37.2450   24.3560   32.4630 C   0  0  0  0  0  0  0  0  0  0  0  0
   37.2730   25.6550   32.8370 N   0  0  0  0  0  0  0  0  0  0  0  0
   34.7770   26.7620   30.8300 H   0  0  0  0  0  0  0  0  0  0  0  0
   34.7700   24.4160   30.1960 H   0  0  0  0  0  0  0  0  0  0  0  0
   37.9020   23.6030   32.8670 H   0  0  0  0  0  0  0  0  0  0  0  0
   32.3280   29.3360   34.5170 Cl  0  0  0  0  0  0  0  0  0  0  0  0
   33.6020   30.3380   35.2240 C   0  0  0  0  0  0  0  0  0  0  0  0
   34.9250   30.3770   34.8020 C   0  0  0  0  0  0  0  0  0  0  0  0
   35.7980   31.2150   35.4600 C   0  0  0  0  0  0  0  0  0  0  0  0
   36.7970   31.1950   35.0840 H   0  0  0  0  0  0  0  0  0  0  0  0
   35.3860   32.0020   36.5150 C   0  0  0  0  0  0  0  0  0  0  0  0
   36.1530   32.6390   36.9800 H   0  0  0  0  0  0  0  0  0  0  0  0
   34.0540   31.9460   36.9210 C   0  0  0  0  0  3  0  0  0  0  0  0
   33.1630   31.1250   36.2890 C   0  0  0  0  0  3  0  0  0  0  0  0
  1  5  1  0  0  0  0
  2  7  1  0  0  0  0
  2  3  1  0  0  0  0
  2  1  1  0  0  0  0
  3  9  1  0  0  0  0
  3  4  1  0  0  0  0
  4 10  1  6  0  0  0
  4  5  1  0  0  0  0
  4 24  1  0  0  0  0
  5 12  1  0  0  0  0
  5 11  1  0  0  0  0
  6  2  1  0  0  0  0
  8  3  1  0  0  0  0
 13  1  1  0  0  0  0
 13 18  1  0  0  0  0
 14 13  2  0  0  0  0
 15 14  1  0  0  0  0
 15 16  2  0  0  0  0
 16 17  1  0  0  0  0
 17 18  2  0  0  0  0
 17 21  1  0  0  0  0
 19 14  1  0  0  0  0
 20 15  1  0  0  0  0
 22 23  1  0  0  0  0
 23 30  1  0  0  0  0
 24 23  2  0  0  0  0
 24 25  1  0  0  0  0
 25 27  2  0  0  0  0
 26 25  1  0  0  0  0
 27 29  1  0  0  0  0
 27 28  1  0  0  0  0
 30 29  2  0  0  0  0
M  END
>  <minimizedAffinity>
-5.18402815

$$$$

 OpenBabel03272502383D

 30 32  0  0  1  0  0  0  0  0999 V2000
   35.9550   29.3900   31.8540 N   0  0  0  0  0  0  0  0  0  0  0  0
   35.9500   28.1470   32.6130 C   0  0  0  0  0  0  0  0  0  0  0  0
   35.8540   28.6390   34.0540 C   0  0  0  0  0  0  0  0  0  0  0  0
   35.8900   30.1460   33.9860 C   0  0  1  0  0  0  0  0  0  0  0  0
   35.2030   30.3650   32.6470 C   0  0  0  0  0  0  0  0  0  0  0  0
   36.8210   27.5140   32.4500 H   0  0  0  0  0  0  0  0  0  0  0  0
   35.0340   27.5660   32.4130 H   0  0  0  0  0  0  0  0  0  0  0  0
   36.6990   28.2430   34.6390 H   0  0  0  0  0  0  0  0  0  0  0  0
   34.9120   28.3060   34.5410 H   0  0  0  0  0  0  0  0  0  0  0  0
   36.9380   30.4920   33.8680 H   0  0  0  0  0  0  0  0  0  0  0  0
   35.4220   31.3750   32.2450 H   0  0  0  0  0  0  0  0  0  0  0  0
   34.1350   30.1390   32.6520 H   0  0  0  0  0  0  0  0  0  0  0  0
   36.5620   29.6250   30.5950 C   0  0  0  0  0  0  0  0  0  0  0  0
   36.5940   30.9430   30.1490 C   0  0  0  0  0  0  0  0  0  0  0  0
   37.1860   31.2240   28.9060 C   0  0  0  0  0  0  0  0  0  0  0  0
   37.7010   30.1470   28.2130 N   0  0  0  0  0  0  0  0  0  0  0  0
   37.6480   28.8870   28.6860 C   0  0  0  0  0  0  0  0  0  0  0  0
   37.0740   28.6310   29.8830 N   0  0  0  0  0  0  0  0  0  0  0  0
   36.2020   31.8100   30.6640 H   0  0  0  0  0  0  0  0  0  0  0  0
   37.2420   32.2150   28.5060 H   0  0  0  0  0  0  0  0  0  0  0  0
   38.0820   28.1300   28.0560 H   0  0  0  0  0  0  0  0  0  0  0  0
   33.0130   29.3770   34.0370 Cl  0  0  0  0  0  0  0  0  0  0  0  0
   33.8400   30.4860   35.1400 C   0  0  0  0  0  0  0  0  0  0  0  0
   35.1860   30.8210   35.0850 C   0  0  0  0  0  0  0  0  0  0  0  0
   35.6790   31.7040   36.0210 C   0  0  0  0  0  0  0  0  0  0  0  0
   36.7200   31.9170   35.9210 H   0  0  0  0  0  0  0  0  0  0  0  0
   34.8690   32.2490   36.9950 C   0  0  0  0  0  0  0  0  0  0  0  0
   35.3510   32.9440   37.7000 H   0  0  0  0  0  0  0  0  0  0  0  0
   33.5210   31.8980   37.0300 C   0  0  0  0  0  3  0  0  0  0  0  0
   33.0020   31.0250   36.1150 C   0  0  0  0  0  3  0  0  0  0  0  0
  1  2  1  0  0  0  0
  1  5  1  0  0  0  0
  2  3  1  0  0  0  0
  3  9  1  0  0  0  0
  3  8  1  0  0  0  0
  4 10  1  6  0  0  0
  4  3  1  0  0  0  0
  4 24  1  0  0  0  0
  5 12  1  0  0  0  0
  5  4  1  0  0  0  0
  6  2  1  0  0  0  0
  7  2  1  0  0  0  0
 11  5  1  0  0  0  0
 13  1  1  0  0  0  0
 14 13  1  0  0  0  0
 14 19  1  0  0  0  0
 15 14  2  0  0  0  0
 16 17  2  0  0  0  0
 16 15  1  0  0  0  0
 17 18  1  0  0  0  0
 18 13  2  0  0  0  0
 20 15  1  0  0  0  0
 21 17  1  0  0  0  0
 22 23  1  0  0  0  0
 23 30  1  0  0  0  0
 24 23  2  0  0  0  0
 24 25  1  0  0  0  0
 25 27  2  0  0  0  0
 26 25  1  0  0  0  0
 27 29  1  0  0  0  0
 27 28  1  0  0  0  0
 30 29  2  0  0  0  0
M  END
>  <minimizedAffinity>
-4.98291969

$$$$

 OpenBabel03272502383D

 30 32  0  0  1  0  0  0  0  0999 V2000
   36.0350   29.0910   32.0310 N   0  0  0  0  0  0  0  0  0  0  0  0
   36.5410   28.0870   32.9580 C   0  0  0  0  0  0  0  0  0  0  0  0
   36.0990   28.6330   34.3120 C   0  0  0  0  0  0  0  0  0  0  0  0
   35.4340   29.9590   34.0330 C   0  0  1  0  0  0  0  0  0  0  0  0
   34.8470   29.6750   32.6590 C   0  0  0  0  0  0  0  0  0  0  0  0
   37.6180   27.9290   32.9080 H   0  0  0  0  0  0  0  0  0  0  0  0
   36.0240   27.1240   32.8180 H   0  0  0  0  0  0  0  0  0  0  0  0
   36.9750   28.7530   34.9690 H   0  0  0  0  0  0  0  0  0  0  0  0
   35.3810   27.9510   34.8170 H   0  0  0  0  0  0  0  0  0  0  0  0
   36.2070   30.7450   33.8950 H   0  0  0  0  0  0  0  0  0  0  0  0
   34.6060   30.6170   32.1240 H   0  0  0  0  0  0  0  0  0  0  0  0
   34.0120   28.9730   32.6680 H   0  0  0  0  0  0  0  0  0  0  0  0
   36.5720   29.4430   30.7680 C   0  0  0  0  0  0  0  0  0  0  0  0
   36.5440   30.7920   30.4270 C   0  0  0  0  0  0  0  0  0  0  0  0
   37.0660   31.1870   29.1840 C   0  0  0  0  0  0  0  0  0  0  0  0
   37.5770   30.1840   28.3830 N   0  0  0  0  0  0  0  0  0  0  0  0
   37.5830   28.8910   28.7570 C   0  0  0  0  0  0  0  0  0  0  0  0
   37.0760   28.5240   29.9560 N   0  0  0  0  0  0  0  0  0  0  0  0
   36.1540   31.6030   31.0270 H   0  0  0  0  0  0  0  0  0  0  0  0
   37.0740   32.2080   28.8610 H   0  0  0  0  0  0  0  0  0  0  0  0
   38.0070   28.1990   28.0500 H   0  0  0  0  0  0  0  0  0  0  0  0
   36.4060   32.1380   35.8150 Cl  0  0  0  0  0  0  0  0  0  0  0  0
   34.8210   31.3550   35.8560 C   0  0  0  0  0  0  0  0  0  0  0  0
   34.4020   30.3390   35.0070 C   0  0  0  0  0  0  0  0  0  0  0  0
   33.1320   29.8320   35.1690 C   0  0  0  0  0  0  0  0  0  0  0  0
   32.8750   29.0550   34.4850 H   0  0  0  0  0  0  0  0  0  0  0  0
   32.2830   30.3120   36.1460 C   0  0  0  0  0  0  0  0  0  0  0  0
   31.2870   29.8470   36.2010 H   0  0  0  0  0  0  0  0  0  0  0  0
   32.7260   31.3310   36.9870 C   0  0  0  0  0  3  0  0  0  0  0  0
   33.9810   31.8540   36.8510 C   0  0  0  0  0  3  0  0  0  0  0  0
  1  5  1  0  0  0  0
  1  2  1  0  0  0  0
  2  3  1  0  0  0  0
  3  9  1  0  0  0  0
  3  8  1  0  0  0  0
  4 10  1  6  0  0  0
  4  3  1  0  0  0  0
  4 24  1  0  0  0  0
  5 12  1  0  0  0  0
  5  4  1  0  0  0  0
  6  2  1  0  0  0  0
  7  2  1  0  0  0  0
 11  5  1  0  0  0  0
 13  1  1  0  0  0  0
 14 13  1  0  0  0  0
 14 19  1  0  0  0  0
 15 14  2  0  0  0  0
 16 17  2  0  0  0  0
 16 15  1  0  0  0  0
 17 18  1  0  0  0  0
 18 13  2  0  0  0  0
 20 15  1  0  0  0  0
 21 17  1  0  0  0  0
 22 23  1  0  0  0  0
 23 30  1  0  0  0  0
 24 25  1  0  0  0  0
 24 23  2  0  0  0  0
 25 27  2  0  0  0  0
 26 25  1  0  0  0  0
 27 28  1  0  0  0  0
 27 29  1  0  0  0  0
 30 29  2  0  0  0  0
M  END
>  <minimizedAffinity>
-4.98173523

$$$$

 OpenBabel03272502383D

 30 32  0  0  1  0  0  0  0  0999 V2000
   38.4560   25.5160   33.1530 N   0  0  0  0  0  0  0  0  0  0  0  0
   39.1440   26.6810   33.6920 C   0  0  0  0  0  0  0  0  0  0  0  0
   39.8210   26.1190   34.9390 C   0  0  0  0  0  0  0  0  0  0  0  0
   39.3870   24.6770   35.0380 C   0  0  1  0  0  0  0  0  0  0  0  0
   39.2380   24.3460   33.5610 C   0  0  0  0  0  0  0  0  0  0  0  0
   38.4930   27.5250   33.9200 H   0  0  0  0  0  0  0  0  0  0  0  0
   39.9480   27.0130   33.0150 H   0  0  0  0  0  0  0  0  0  0  0  0
   39.5050   26.6950   35.8230 H   0  0  0  0  0  0  0  0  0  0  0  0
   40.9280   26.1760   34.8670 H   0  0  0  0  0  0  0  0  0  0  0  0
   38.3710   24.6200   35.4820 H   0  0  0  0  0  0  0  0  0  0  0  0
   38.6070   23.4450   33.4140 H   0  0  0  0  0  0  0  0  0  0  0  0
   40.1830   24.2870   33.0200 H   0  0  0  0  0  0  0  0  0  0  0  0
   37.2670   25.5000   32.3820 C   0  0  0  0  0  0  0  0  0  0  0  0
   36.7490   24.2520   32.0510 C   0  0  0  0  0  0  0  0  0  0  0  0
   35.5710   24.1880   31.2880 C   0  0  0  0  0  0  0  0  0  0  0  0
   35.0090   25.3950   30.9210 N   0  0  0  0  0  0  0  0  0  0  0  0
   35.5480   26.5800   31.2650 C   0  0  0  0  0  0  0  0  0  0  0  0
   36.6820   26.6270   31.9990 N   0  0  0  0  0  0  0  0  0  0  0  0
   37.1590   23.2880   32.3210 H   0  0  0  0  0  0  0  0  0  0  0  0
   35.1200   23.2600   31.0000 H   0  0  0  0  0  0  0  0  0  0  0  0
   35.0210   27.4540   30.9210 H   0  0  0  0  0  0  0  0  0  0  0  0
   38.0890   23.1640   37.2490 Cl  0  0  0  0  0  0  0  0  0  0  0  0
   39.7820   23.0730   36.7460 C   0  0  0  0  0  0  0  0  0  0  0  0
   40.3530   23.7960   35.7070 C   0  0  0  0  0  0  0  0  0  0  0  0
   41.6920   23.6120   35.4390 C   0  0  0  0  0  0  0  0  0  0  0  0
   42.0650   24.1970   34.6300 H   0  0  0  0  0  0  0  0  0  0  0  0
   42.4600   22.7330   36.1750 C   0  0  0  0  0  0  0  0  0  0  0  0
   43.5200   22.6510   35.8890 H   0  0  0  0  0  0  0  0  0  0  0  0
   41.8650   22.0190   37.2130 C   0  0  0  0  0  3  0  0  0  0  0  0
   40.5390   22.1800   37.5040 C   0  0  0  0  0  3  0  0  0  0  0  0
  1  5  1  0  0  0  0
  1  2  1  0  0  0  0
  2  6  1  0  0  0  0
  2  3  1  0  0  0  0
  3  4  1  0  0  0  0
  3  8  1  0  0  0  0
  4 10  1  1  0  0  0
  4 24  1  0  0  0  0
  5  4  1  0  0  0  0
  7  2  1  0  0  0  0
  9  3  1  0  0  0  0
 11  5  1  0  0  0  0
 12  5  1  0  0  0  0
 13  1  1  0  0  0  0
 14 19  1  0  0  0  0
 14 13  1  0  0  0  0
 15 14  2  0  0  0  0
 16 17  2  0  0  0  0
 16 15  1  0  0  0  0
 17 18  1  0  0  0  0
 18 13  2  0  0  0  0
 20 15  1  0  0  0  0
 21 17  1  0  0  0  0
 23 22  1  0  0  0  0
 23 30  1  0  0  0  0
 24 23  2  0  0  0  0
 25 24  1  0  0  0  0
 25 27  2  0  0  0  0
 26 25  1  0  0  0  0
 27 29  1  0  0  0  0
 28 27  1  0  0  0  0
 29 30  2  0  0  0  0
M  END
>  <minimizedAffinity>
-4.86855316

$$$$

 OpenBabel03272502383D

 30 32  0  0  1  0  0  0  0  0999 V2000
   38.3530   24.2960   34.3940 N   0  0  0  0  0  0  0  0  0  0  0  0
   37.8660   23.4260   33.3330 C   0  0  0  0  0  0  0  0  0  0  0  0
   37.1200   24.3990   32.4230 C   0  0  0  0  0  0  0  0  0  0  0  0
   37.1890   25.7440   33.1020 C   0  0  1  0  0  0  0  0  0  0  0  0
   38.5370   25.6210   33.7960 C   0  0  0  0  0  0  0  0  0  0  0  0
   37.2310   22.6100   33.6730 H   0  0  0  0  0  0  0  0  0  0  0  0
   38.7030   23.0170   32.7430 H   0  0  0  0  0  0  0  0  0  0  0  0
   36.0780   24.0640   32.2980 H   0  0  0  0  0  0  0  0  0  0  0  0
   37.5870   24.4610   31.4160 H   0  0  0  0  0  0  0  0  0  0  0  0
   36.4210   25.8010   33.9030 H   0  0  0  0  0  0  0  0  0  0  0  0
   38.6320   26.3580   34.6200 H   0  0  0  0  0  0  0  0  0  0  0  0
   39.3910   25.6380   33.1170 H   0  0  0  0  0  0  0  0  0  0  0  0
   38.6050   23.9460   35.7450 C   0  0  0  0  0  0  0  0  0  0  0  0
   37.7510   24.4810   36.7030 C   0  0  0  0  0  0  0  0  0  0  0  0
   37.9640   24.1620   38.0550 C   0  0  0  0  0  0  0  0  0  0  0  0
   39.0260   23.3220   38.3290 N   0  0  0  0  0  0  0  0  0  0  0  0
   39.8260   22.8280   37.3660 C   0  0  0  0  0  0  0  0  0  0  0  0
   39.6110   23.1450   36.0690 N   0  0  0  0  0  0  0  0  0  0  0  0
   36.9110   25.1400   36.5270 H   0  0  0  0  0  0  0  0  0  0  0  0
   37.3440   24.5400   38.8410 H   0  0  0  0  0  0  0  0  0  0  0  0
   40.6220   22.1840   37.7000 H   0  0  0  0  0  0  0  0  0  0  0  0
   36.2110   28.1840   34.5020 Cl  0  0  0  0  0  0  0  0  0  0  0  0
   36.6900   28.0490   32.8050 C   0  0  0  0  0  0  0  0  0  0  0  0
   37.1430   26.8920   32.1850 C   0  0  0  0  0  0  0  0  0  0  0  0
   37.4780   26.9510   30.8510 C   0  0  0  0  0  0  0  0  0  0  0  0
   37.8170   26.0280   30.4380 H   0  0  0  0  0  0  0  0  0  0  0  0
   37.3740   28.1250   30.1330 C   0  0  0  0  0  0  0  0  0  0  0  0
   37.6640   28.0780   29.0720 H   0  0  0  0  0  0  0  0  0  0  0  0
   36.9170   29.2740   30.7760 C   0  0  0  0  0  3  0  0  0  0  0  0
   36.5760   29.2470   32.0990 C   0  0  0  0  0  3  0  0  0  0  0  0
  1 13  1  0  0  0  0
  2  6  1  0  0  0  0
  2  1  1  0  0  0  0
  3  4  1  0  0  0  0
  3  2  1  0  0  0  0
  4  5  1  0  0  0  0
  4 10  1  1  0  0  0
  5  1  1  0  0  0  0
  5 11  1  0  0  0  0
  7  2  1  0  0  0  0
  8  3  1  0  0  0  0
  9  3  1  0  0  0  0
 12  5  1  0  0  0  0
 13 18  2  0  0  0  0
 13 14  1  0  0  0  0
 14 15  2  0  0  0  0
 15 16  1  0  0  0  0
 15 20  1  0  0  0  0
 17 21  1  0  0  0  0
 17 16  2  0  0  0  0
 18 17  1  0  0  0  0
 19 14  1  0  0  0  0
 23 22  1  0  0  0  0
 24 23  1  0  0  0  0
 24  4  1  0  0  0  0
 25 24  2  0  0  0  0
 26 25  1  0  0  0  0
 27 29  2  0  0  0  0
 27 25  1  0  0  0  0
 28 27  1  0  0  0  0
 29 30  1  0  0  0  0
 30 23  2  0  0  0  0
M  END
>  <minimizedAffinity>
-4.81782341

$$$$

 OpenBabel03272502383D

 30 32  0  0  1  0  0  0  0  0999 V2000
   37.4190   24.6070   32.5690 N   0  0  0  0  0  0  0  0  0  0  0  0
   38.6750   24.0420   33.0430 C   0  0  0  0  0  0  0  0  0  0  0  0
   38.3360   22.5620   33.1950 C   0  0  0  0  0  0  0  0  0  0  0  0
   36.8710   22.4310   32.8600 C   0  0  1  0  0  0  0  0  0  0  0  0
   36.7360   23.5420   31.8300 C   0  0  0  0  0  0  0  0  0  0  0  0
   39.0460   24.4780   33.9700 H   0  0  0  0  0  0  0  0  0  0  0  0
   39.4570   24.1120   32.2690 H   0  0  0  0  0  0  0  0  0  0  0  0
   38.5430   22.2380   34.2280 H   0  0  0  0  0  0  0  0  0  0  0  0
   38.9390   21.9290   32.5080 H   0  0  0  0  0  0  0  0  0  0  0  0
   36.2560   22.7290   33.7350 H   0  0  0  0  0  0  0  0  0  0  0  0
   35.6760   23.8420   31.7010 H   0  0  0  0  0  0  0  0  0  0  0  0
   37.2310   23.3320   30.8810 H   0  0  0  0  0  0  0  0  0  0  0  0
   36.9390   25.9250   32.7720 C   0  0  0  0  0  0  0  0  0  0  0  0
   36.2210   26.5000   31.7280 C   0  0  0  0  0  0  0  0  0  0  0  0
   35.7260   27.8050   31.8850 C   0  0  0  0  0  0  0  0  0  0  0  0
   35.9960   28.4260   33.0890 N   0  0  0  0  0  0  0  0  0  0  0  0
   36.6960   27.8280   34.0720 C   0  0  0  0  0  0  0  0  0  0  0  0
   37.1670   26.5710   33.9070 N   0  0  0  0  0  0  0  0  0  0  0  0
   35.9900   26.0460   30.7740 H   0  0  0  0  0  0  0  0  0  0  0  0
   35.1660   28.3050   31.1210 H   0  0  0  0  0  0  0  0  0  0  0  0
   36.8430   28.4100   34.9650 H   0  0  0  0  0  0  0  0  0  0  0  0
   35.6070   20.7340   34.9550 Cl  0  0  0  0  0  0  0  0  0  0  0  0
   35.8930   20.3020   33.2640 C   0  0  0  0  0  0  0  0  0  0  0  0
   36.4870   21.1210   32.3130 C   0  0  0  0  0  0  0  0  0  0  0  0
   36.6390   20.6360   31.0330 C   0  0  0  0  0  0  0  0  0  0  0  0
   37.1020   21.3160   30.3540 H   0  0  0  0  0  0  0  0  0  0  0  0
   36.2170   19.3690   30.6880 C   0  0  0  0  0  0  0  0  0  0  0  0
   36.3790   19.0660   29.6420 H   0  0  0  0  0  0  0  0  0  0  0  0
   35.6240   18.5650   31.6590 C   0  0  0  0  0  3  0  0  0  0  0  0
   35.4590   19.0180   32.9380 C   0  0  0  0  0  3  0  0  0  0  0  0
  1 13  1  0  0  0  0
  1  2  1  0  0  0  0
  2  3  1  0  0  0  0
  2  6  1  0  0  0  0
  3  8  1  0  0  0  0
  4  3  1  0  0  0  0
  4 10  1  1  0  0  0
  5  1  1  0  0  0  0
  5  4  1  0  0  0  0
  7  2  1  0  0  0  0
  9  3  1  0  0  0  0
 11  5  1  0  0  0  0
 12  5  1  0  0  0  0
 13 18  1  0  0  0  0
 14 15  1  0  0  0  0
 14 13  2  0  0  0  0
 15 16  2  0  0  0  0
 16 17  1  0  0  0  0
 17 21  1  0  0  0  0
 18 17  2  0  0  0  0
 19 14  1  0  0  0  0
 20 15  1  0  0  0  0
 23 22  1  0  0  0  0
 24  4  1  0  0  0  0
 24 23  2  0  0  0  0
 25 24  1  0  0  0  0
 26 25  1  0  0  0  0
 27 25  2  0  0  0  0
 27 29  1  0  0  0  0
 28 27  1  0  0  0  0
 29 30  2  0  0  0  0
 30 23  1  0  0  0  0
M  END
>  <minimizedAffinity>
-4.72311401

$$$$

 OpenBabel03272502383D

 30 32  0  0  1  0  0  0  0  0999 V2000
   37.7510   25.4210   32.7870 N   0  0  0  0  0  0  0  0  0  0  0  0
   37.3700   24.0410   32.5200 C   0  0  0  0  0  0  0  0  0  0  0  0
   37.8990   23.3070   33.7490 C   0  0  0  0  0  0  0  0  0  0  0  0
   38.6120   24.3440   34.5820 C   0  0  1  0  0  0  0  0  0  0  0  0
   37.7790   25.5700   34.2440 C   0  0  0  0  0  0  0  0  0  0  0  0
   37.7690   23.6330   31.5920 H   0  0  0  0  0  0  0  0  0  0  0  0
   36.2740   23.9250   32.5280 H   0  0  0  0  0  0  0  0  0  0  0  0
   38.5850   22.5030   33.4350 H   0  0  0  0  0  0  0  0  0  0  0  0
   37.0780   22.8480   34.3400 H   0  0  0  0  0  0  0  0  0  0  0  0
   39.6280   24.5240   34.1700 H   0  0  0  0  0  0  0  0  0  0  0  0
   38.3280   26.5050   34.4810 H   0  0  0  0  0  0  0  0  0  0  0  0
   36.7730   25.5560   34.6670 H   0  0  0  0  0  0  0  0  0  0  0  0
   38.0410   26.4320   31.8370 C   0  0  0  0  0  0  0  0  0  0  0  0
   37.2720   27.5900   31.8980 C   0  0  0  0  0  0  0  0  0  0  0  0
   37.5230   28.6190   30.9750 C   0  0  0  0  0  0  0  0  0  0  0  0
   38.5350   28.3940   30.0620 N   0  0  0  0  0  0  0  0  0  0  0  0
   39.2530   27.2550   30.0420 C   0  0  0  0  0  0  0  0  0  0  0  0
   39.0000   26.2720   30.9360 N   0  0  0  0  0  0  0  0  0  0  0  0
   36.4740   27.8010   32.5970 H   0  0  0  0  0  0  0  0  0  0  0  0
   36.9690   29.5350   30.9680 H   0  0  0  0  0  0  0  0  0  0  0  0
   40.0160   27.1940   29.2840 H   0  0  0  0  0  0  0  0  0  0  0  0
   40.9090   22.5910   35.3060 Cl  0  0  0  0  0  0  0  0  0  0  0  0
   39.6820   23.2470   36.3980 C   0  0  0  0  0  0  0  0  0  0  0  0
   38.6230   24.0630   36.0240 C   0  0  0  0  0  0  0  0  0  0  0  0
   37.7500   24.4920   36.9990 C   0  0  0  0  0  0  0  0  0  0  0  0
   36.9600   25.1140   36.6430 H   0  0  0  0  0  0  0  0  0  0  0  0
   37.9100   24.1290   38.3210 C   0  0  0  0  0  0  0  0  0  0  0  0
   37.1640   24.5200   39.0300 H   0  0  0  0  0  0  0  0  0  0  0  0
   38.9810   23.3090   38.6730 C   0  0  0  0  0  3  0  0  0  0  0  0
   39.8640   22.8670   37.7280 C   0  0  0  0  0  3  0  0  0  0  0  0
  1  5  1  0  0  0  0
  2  7  1  0  0  0  0
  2  1  1  0  0  0  0
  2  3  1  0  0  0  0
  3  9  1  0  0  0  0
  3  4  1  0  0  0  0
  4 10  1  6  0  0  0
  4 24  1  0  0  0  0
  5 11  1  0  0  0  0
  5  4  1  0  0  0  0
  5 12  1  0  0  0  0
  6  2  1  0  0  0  0
  8  3  1  0  0  0  0
 13 14  1  0  0  0  0
 13  1  1  0  0  0  0
 14 19  1  0  0  0  0
 15 14  2  0  0  0  0
 16 15  1  0  0  0  0
 17 16  2  0  0  0  0
 17 18  1  0  0  0  0
 18 13  2  0  0  0  0
 20 15  1  0  0  0  0
 21 17  1  0  0  0  0
 22 23  1  0  0  0  0
 23 30  1  0  0  0  0
 24 23  2  0  0  0  0
 24 25  1  0  0  0  0
 25 27  2  0  0  0  0
 26 25  1  0  0  0  0
 27 29  1  0  0  0  0
 27 28  1  0  0  0  0
 30 29  2  0  0  0  0
M  END
>  <minimizedAffinity>
-4.7217474

$$$$

 OpenBabel03272502383D

 30 32  0  0  1  0  0  0  0  0999 V2000
   38.7290   26.0780   35.1730 N   0  0  0  0  0  0  0  0  0  0  0  0
   39.5240   26.5050   34.0300 C   0  0  0  0  0  0  0  0  0  0  0  0
   38.5200   27.3080   33.2080 C   0  0  0  0  0  0  0  0  0  0  0  0
   37.2020   27.2000   33.9350 C   0  0  1  0  0  0  0  0  0  0  0  0
   37.7000   27.1020   35.3690 C   0  0  0  0  0  0  0  0  0  0  0  0
   39.9670   25.6900   33.4590 H   0  0  0  0  0  0  0  0  0  0  0  0
   40.3160   27.2060   34.3400 H   0  0  0  0  0  0  0  0  0  0  0  0
   38.4540   26.8900   32.1910 H   0  0  0  0  0  0  0  0  0  0  0  0
   38.8170   28.3760   33.1240 H   0  0  0  0  0  0  0  0  0  0  0  0
   36.7190   26.2290   33.6970 H   0  0  0  0  0  0  0  0  0  0  0  0
   36.9200   26.6800   36.0360 H   0  0  0  0  0  0  0  0  0  0  0  0
   38.1250   28.0290   35.7570 H   0  0  0  0  0  0  0  0  0  0  0  0
   38.9040   24.9080   35.9530 C   0  0  0  0  0  0  0  0  0  0  0  0
   38.0140   24.7150   37.0050 C   0  0  0  0  0  0  0  0  0  0  0  0
   38.1490   23.5690   37.8060 C   0  0  0  0  0  0  0  0  0  0  0  0
   39.1770   22.7060   37.4770 N   0  0  0  0  0  0  0  0  0  0  0  0
   40.0150   22.9360   36.4480 C   0  0  0  0  0  0  0  0  0  0  0  0
   39.8730   24.0440   35.6860 N   0  0  0  0  0  0  0  0  0  0  0  0
   37.1990   25.3670   37.2910 H   0  0  0  0  0  0  0  0  0  0  0  0
   37.4990   23.3610   38.6300 H   0  0  0  0  0  0  0  0  0  0  0  0
   40.7780   22.1930   36.2880 H   0  0  0  0  0  0  0  0  0  0  0  0
   35.8100   27.0210   31.3090 Cl  0  0  0  0  0  0  0  0  0  0  0  0
   35.6360   28.2960   32.5220 C   0  0  0  0  0  0  0  0  0  0  0  0
   36.3040   28.3460   33.7390 C   0  0  0  0  0  0  0  0  0  0  0  0
   36.0580   29.4110   34.5770 C   0  0  0  0  0  0  0  0  0  0  0  0
   36.6030   29.3870   35.4940 H   0  0  0  0  0  0  0  0  0  0  0  0
   35.1720   30.4110   34.2320 C   0  0  0  0  0  0  0  0  0  0  0  0
   35.0390   31.2220   34.9650 H   0  0  0  0  0  0  0  0  0  0  0  0
   34.5150   30.3400   33.0060 C   0  0  0  0  0  3  0  0  0  0  0  0
   34.7370   29.2960   32.1520 C   0  0  0  0  0  3  0  0  0  0  0  0
  1  5  1  0  0  0  0
  1 13  1  0  0  0  0
  2  7  1  0  0  0  0
  2  1  1  0  0  0  0
  3  4  1  0  0  0  0
  3  2  1  0  0  0  0
  4 10  1  6  0  0  0
  4  5  1  0  0  0  0
  5 12  1  0  0  0  0
  5 11  1  0  0  0  0
  6  2  1  0  0  0  0
  8  3  1  0  0  0  0
  9  3  1  0  0  0  0
 13 14  1  0  0  0  0
 14 19  1  0  0  0  0
 14 15  2  0  0  0  0
 15 20  1  0  0  0  0
 16 15  1  0  0  0  0
 17 16  2  0  0  0  0
 18 13  2  0  0  0  0
 18 17  1  0  0  0  0
 21 17  1  0  0  0  0
 22 23  1  0  0  0  0
 23 24  1  0  0  0  0
 24  4  1  0  0  0  0
 24 25  2  0  0  0  0
 25 26  1  0  0  0  0
 27 25  1  0  0  0  0
 27 28  1  0  0  0  0
 29 27  2  0  0  0  0
 30 23  2  0  0  0  0
 30 29  1  0  0  0  0
M  END
>  <minimizedAffinity>
-4.69383764

$$$$

 OpenBabel03272502383D

 30 32  0  0  1  0  0  0  0  0999 V2000
   38.3140   27.0680   33.9390 N   0  0  0  0  0  0  0  0  0  0  0  0
   38.0540   27.4980   35.3060 C   0  0  0  0  0  0  0  0  0  0  0  0
   38.4780   26.2810   36.1230 C   0  0  0  0  0  0  0  0  0  0  0  0
   38.8770   25.2230   35.1240 C   0  0  1  0  0  0  0  0  0  0  0  0
   39.4160   26.1050   34.0080 C   0  0  0  0  0  0  0  0  0  0  0  0
   37.0220   27.7870   35.5010 H   0  0  0  0  0  0  0  0  0  0  0  0
   38.7250   28.3240   35.5940 H   0  0  0  0  0  0  0  0  0  0  0  0
   37.6380   25.9450   36.7510 H   0  0  0  0  0  0  0  0  0  0  0  0
   39.3370   26.5120   36.7900 H   0  0  0  0  0  0  0  0  0  0  0  0
   37.9700   24.7220   34.7250 H   0  0  0  0  0  0  0  0  0  0  0  0
   39.4510   25.5560   33.0450 H   0  0  0  0  0  0  0  0  0  0  0  0
   40.3610   26.5960   34.2450 H   0  0  0  0  0  0  0  0  0  0  0  0
   37.6430   27.4890   32.7640 C   0  0  0  0  0  0  0  0  0  0  0  0
   38.3230   27.3290   31.5610 C   0  0  0  0  0  0  0  0  0  0  0  0
   37.6970   27.7320   30.3690 C   0  0  0  0  0  0  0  0  0  0  0  0
   36.4280   28.2660   30.4910 N   0  0  0  0  0  0  0  0  0  0  0  0
   35.8100   28.4010   31.6790 C   0  0  0  0  0  0  0  0  0  0  0  0
   36.4250   28.0090   32.8180 N   0  0  0  0  0  0  0  0  0  0  0  0
   39.3130   26.9150   31.4270 H   0  0  0  0  0  0  0  0  0  0  0  0
   38.1640   27.6370   29.4110 H   0  0  0  0  0  0  0  0  0  0  0  0
   34.8230   28.8310   31.6490 H   0  0  0  0  0  0  0  0  0  0  0  0
   37.6190   23.1180   36.8130 Cl  0  0  0  0  0  0  0  0  0  0  0  0
   39.3330   23.2750   36.4050 C   0  0  0  0  0  0  0  0  0  0  0  0
   39.8850   24.2730   35.6130 C   0  0  0  0  0  0  0  0  0  0  0  0
   41.2440   24.2560   35.3900 C   0  0  0  0  0  0  0  0  0  0  0  0
   41.6010   25.0510   34.7730 H   0  0  0  0  0  0  0  0  0  0  0  0
   42.0520   23.2780   35.9320 C   0  0  0  0  0  0  0  0  0  0  0  0
   43.1250   23.3440   35.6990 H   0  0  0  0  0  0  0  0  0  0  0  0
   41.4760   22.2870   36.7240 C   0  0  0  0  0  3  0  0  0  0  0  0
   40.1300   22.2760   36.9650 C   0  0  0  0  0  3  0  0  0  0  0  0
  1  5  1  0  0  0  0
  1  2  1  0  0  0  0
  2  6  1  0  0  0  0
  2  7  1  0  0  0  0
  2  3  1  0  0  0  0
  3  8  1  0  0  0  0
  3  9  1  0  0  0  0
  4 10  1  6  0  0  0
  4 24  1  0  0  0  0
  4  3  1  0  0  0  0
  5 12  1  0  0  0  0
  5  4  1  0  0  0  0
 11  5  1  0  0  0  0
 13 18  1  0  0  0  0
 13  1  1  0  0  0  0
 14 13  2  0  0  0  0
 15 16  2  0  0  0  0
 15 14  1  0  0  0  0
 16 17  1  0  0  0  0
 17 18  2  0  0  0  0
 19 14  1  0  0  0  0
 20 15  1  0  0  0  0
 21 17  1  0  0  0  0
 23 22  1  0  0  0  0
 23 30  1  0  0  0  0
 24 23  2  0  0  0  0
 25 24  1  0  0  0  0
 25 27  2  0  0  0  0
 26 25  1  0  0  0  0
 27 29  1  0  0  0  0
 28 27  1  0  0  0  0
 29 30  2  0  0  0  0
M  END
>  <minimizedAffinity>
-4.65379286

$$$$
