
 OpenBabel03272509143D

 40 43  0  0  1  0  0  0  0  0999 V2000
   40.4580   24.7130   33.4620 N   0  0  0  0  0  0  0  0  0  0  0  0
   41.8930   24.4520   33.7480 C   0  0  0  0  0  0  0  0  0  0  0  0
   42.1080   25.3190   34.9850 C   0  0  0  0  0  0  0  0  0  0  0  0
   41.2350   26.5230   34.7330 C   0  0  0  0  0  0  0  0  0  0  0  0
   40.4200   26.1660   33.5040 C   0  0  2  0  0  0  0  0  0  0  0  0
   42.4920   24.7960   32.8880 H   0  0  0  0  0  0  0  0  0  0  0  0
   42.0480   23.3880   33.9910 H   0  0  0  0  0  0  0  0  0  0  0  0
   41.7690   24.7500   35.8630 H   0  0  0  0  0  0  0  0  0  0  0  0
   43.1710   25.6260   35.0480 H   0  0  0  0  0  0  0  0  0  0  0  0
   40.5190   26.6310   35.5750 H   0  0  0  0  0  0  0  0  0  0  0  0
   41.8440   27.4380   34.5680 H   0  0  0  0  0  0  0  0  0  0  0  0
   40.9650   26.5170   32.6150 H   0  0  0  0  0  0  0  0  0  0  0  0
   39.5400   27.3130   30.9370 Cl  0  0  0  0  0  0  0  0  0  0  0  0
   38.5650   27.3150   32.4130 C   0  0  0  0  0  0  0  0  0  0  0  0
   39.0570   26.7390   33.5930 C   0  0  0  0  0  0  0  0  0  0  0  0
   38.2110   26.8000   34.6760 C   0  0  0  0  0  0  0  0  0  0  0  0
   38.5940   26.3640   35.5760 H   0  0  0  0  0  0  0  0  0  0  0  0
   36.9710   27.3960   34.5670 C   0  0  0  0  0  0  0  0  0  0  0  0
   36.3980   27.3820   35.4850 H   0  0  0  0  0  0  0  0  0  0  0  0
   36.5060   27.9580   33.3960 C   0  0  0  0  0  3  0  0  0  0  0  0
   37.3370   27.9090   32.2960 C   0  0  0  0  0  3  0  0  0  0  0  0
   38.9160   23.8850   31.8260 C   0  0  0  0  0  0  0  0  0  0  0  0
   39.2980   23.9390   33.2020 C   0  0  0  0  0  0  0  0  0  0  0  0
   38.4900   23.2640   34.1190 C   0  0  0  0  0  0  0  0  0  0  0  0
   37.3900   22.5960   33.6740 N   0  0  0  0  0  0  0  0  0  0  0  0
   37.0700   22.5760   32.3610 C   0  0  0  0  0  0  0  0  0  0  0  0
   37.8180   23.2090   31.4520 N   0  0  0  0  0  0  0  0  0  0  0  0
   39.4870   24.3730   31.0510 H   0  0  0  0  0  0  0  0  0  0  0  0
   36.1790   22.0240   32.0940 H   0  0  0  0  0  0  0  0  0  0  0  0
   38.7950   23.2440   35.5230 C   0  0  0  0  0  0  0  0  0  0  0  0
   38.0040   23.9560   36.3950 C   0  0  0  0  0  0  0  0  0  0  0  0
   38.2230   23.9900   37.7600 C   0  0  0  0  0  0  0  0  0  0  0  0
   39.2990   23.2610   38.2380 C   0  0  0  0  0  0  0  0  0  0  0  0
   40.1410   22.5190   37.4200 C   0  0  0  0  0  0  0  0  0  0  0  0
   39.8480   22.5390   36.0490 C   0  0  0  0  0  0  0  0  0  0  0  0
   37.1790   24.5110   36.0070 H   0  0  0  0  0  0  0  0  0  0  0  0
   37.5770   24.5640   38.4160 H   0  0  0  0  0  0  0  0  0  0  0  0
   39.4590   23.2960   39.3060 H   0  0  0  0  0  0  0  0  0  0  0  0
   40.9620   21.9700   37.8410 H   0  0  0  0  0  0  0  0  0  0  0  0
   40.4880   21.9640   35.3660 H   0  0  0  0  0  0  0  0  0  0  0  0
  1  5  1  0  0  0  0
  1  2  1  0  0  0  0
  2  7  1  0  0  0  0
  2  3  1  0  0  0  0
  3  9  1  0  0  0  0
  3  8  1  0  0  0  0
  4  3  1  0  0  0  0
  4 10  1  0  0  0  0
  5 12  1  6  0  0  0
  5 15  1  0  0  0  0
  5  4  1  0  0  0  0
  6  2  1  0  0  0  0
 11  4  1  0  0  0  0
 13 14  1  0  0  0  0
 14 15  1  0  0  0  0
 15 16  2  0  0  0  0
 16 17  1  0  0  0  0
 18 16  1  0  0  0  0
 18 19  1  0  0  0  0
 20 18  2  0  0  0  0
 21 14  2  0  0  0  0
 21 20  1  0  0  0  0
 22 23  1  0  0  0  0
 23  1  1  0  0  0  0
 23 24  2  0  0  0  0
 24 30  1  0  0  0  0
 25 24  1  0  0  0  0
 26 25  2  0  0  0  0
 27 22  2  0  0  0  0
 27 26  1  0  0  0  0
 28 22  1  0  0  0  0
 29 26  1  0  0  0  0
 30 35  2  0  0  0  0
 30 31  1  0  0  0  0
 31 32  2  0  0  0  0
 32 33  1  0  0  0  0
 32 37  1  0  0  0  0
 33 38  1  0  0  0  0
 34 39  1  0  0  0  0
 34 33  2  0  0  0  0
 35 34  1  0  0  0  0
 36 31  1  0  0  0  0
 40 35  1  0  0  0  0
M  END
>  <minimizedAffinity>
-5.71443653

$$$$

 OpenBabel03272509143D

 40 43  0  0  1  0  0  0  0  0999 V2000
   38.1590   25.6510   33.8350 N   0  0  0  0  0  0  0  0  0  0  0  0
   37.1190   26.7110   33.9090 C   0  0  0  0  0  0  0  0  0  0  0  0
   37.5870   27.4960   35.1290 C   0  0  0  0  0  0  0  0  0  0  0  0
   38.1490   26.4360   36.0440 C   0  0  0  0  0  0  0  0  0  0  0  0
   38.1730   25.1700   35.2070 C   0  0  2  0  0  0  0  0  0  0  0  0
   36.1390   26.2310   34.0710 H   0  0  0  0  0  0  0  0  0  0  0  0
   37.1530   27.3430   33.0060 H   0  0  0  0  0  0  0  0  0  0  0  0
   38.3660   28.2020   34.8030 H   0  0  0  0  0  0  0  0  0  0  0  0
   36.7220   27.9940   35.6100 H   0  0  0  0  0  0  0  0  0  0  0  0
   39.2040   26.6860   36.2820 H   0  0  0  0  0  0  0  0  0  0  0  0
   37.5220   26.3120   36.9540 H   0  0  0  0  0  0  0  0  0  0  0  0
   37.2230   24.6380   35.3600 H   0  0  0  0  0  0  0  0  0  0  0  0
   37.3990   22.7220   36.6520 Cl  0  0  0  0  0  0  0  0  0  0  0  0
   39.0670   23.1540   36.2500 C   0  0  0  0  0  0  0  0  0  0  0  0
   39.3480   24.3370   35.5510 C   0  0  0  0  0  0  0  0  0  0  0  0
   40.6790   24.5670   35.2950 C   0  0  0  0  0  0  0  0  0  0  0  0
   40.8900   25.4740   34.7670 H   0  0  0  0  0  0  0  0  0  0  0  0
   41.6420   23.6710   35.7150 C   0  0  0  0  0  0  0  0  0  0  0  0
   42.6520   23.9610   35.4550 H   0  0  0  0  0  0  0  0  0  0  0  0
   41.3440   22.5120   36.4010 C   0  0  0  0  0  3  0  0  0  0  0  0
   40.0140   22.2590   36.6700 C   0  0  0  0  0  3  0  0  0  0  0  0
   40.1690   25.8980   32.5550 C   0  0  0  0  0  0  0  0  0  0  0  0
   39.0130   25.1070   32.8410 C   0  0  0  0  0  0  0  0  0  0  0  0
   38.8420   23.9330   32.1070 C   0  0  0  0  0  0  0  0  0  0  0  0
   39.7650   23.5940   31.1650 N   0  0  0  0  0  0  0  0  0  0  0  0
   40.8420   24.3770   30.9300 C   0  0  0  0  0  0  0  0  0  0  0  0
   41.0420   25.5090   31.6120 N   0  0  0  0  0  0  0  0  0  0  0  0
   40.3820   26.8170   33.0790 H   0  0  0  0  0  0  0  0  0  0  0  0
   41.5240   24.0340   30.1640 H   0  0  0  0  0  0  0  0  0  0  0  0
   37.7220   23.0600   32.3280 C   0  0  0  0  0  0  0  0  0  0  0  0
   36.5420   23.2970   31.6620 C   0  0  0  0  0  0  0  0  0  0  0  0
   35.4170   22.5070   31.8120 C   0  0  0  0  0  0  0  0  0  0  0  0
   35.5180   21.4350   32.6840 C   0  0  0  0  0  0  0  0  0  0  0  0
   36.6740   21.1340   33.3910 C   0  0  0  0  0  0  0  0  0  0  0  0
   37.7680   21.9850   33.1790 C   0  0  0  0  0  0  0  0  0  0  0  0
   36.4840   24.1280   30.9940 H   0  0  0  0  0  0  0  0  0  0  0  0
   34.5030   22.7260   31.2690 H   0  0  0  0  0  0  0  0  0  0  0  0
   34.6320   20.8270   32.7920 H   0  0  0  0  0  0  0  0  0  0  0  0
   36.7010   20.2910   34.0540 H   0  0  0  0  0  0  0  0  0  0  0  0
   38.7030   21.7830   33.7180 H   0  0  0  0  0  0  0  0  0  0  0  0
  1  2  1  0  0  0  0
  1  5  1  0  0  0  0
  2  6  1  0  0  0  0
  2  3  1  0  0  0  0
  3  9  1  0  0  0  0
  3  4  1  0  0  0  0
  4 10  1  0  0  0  0
  4 11  1  0  0  0  0
  5 12  1  1  0  0  0
  5 15  1  0  0  0  0
  5  4  1  0  0  0  0
  7  2  1  0  0  0  0
  8  3  1  0  0  0  0
 14 13  1  0  0  0  0
 14 21  1  0  0  0  0
 15 14  2  0  0  0  0
 16 15  1  0  0  0  0
 16 18  2  0  0  0  0
 17 16  1  0  0  0  0
 18 20  1  0  0  0  0
 19 18  1  0  0  0  0
 20 21  2  0  0  0  0
 22 23  1  0  0  0  0
 22 28  1  0  0  0  0
 23  1  1  0  0  0  0
 24 30  1  0  0  0  0
 24 23  2  0  0  0  0
 25 24  1  0  0  0  0
 26 25  2  0  0  0  0
 26 27  1  0  0  0  0
 27 22  2  0  0  0  0
 29 26  1  0  0  0  0
 30 35  1  0  0  0  0
 31 32  1  0  0  0  0
 31 30  2  0  0  0  0
 32 33  2  0  0  0  0
 33 38  1  0  0  0  0
 33 34  1  0  0  0  0
 34 39  1  0  0  0  0
 35 34  2  0  0  0  0
 35 40  1  0  0  0  0
 36 31  1  0  0  0  0
 37 32  1  0  0  0  0
M  END
>  <minimizedAffinity>
-5.33393621

$$$$

 OpenBabel03272509143D

 40 43  0  0  1  0  0  0  0  0999 V2000
   40.2890   26.6330   32.4640 N   0  0  0  0  0  0  0  0  0  0  0  0
   41.2920   27.6330   32.0140 C   0  0  0  0  0  0  0  0  0  0  0  0
   42.4950   27.2460   32.8670 C   0  0  0  0  0  0  0  0  0  0  0  0
   41.8820   26.8110   34.1740 C   0  0  0  0  0  0  0  0  0  0  0  0
   40.3890   26.7610   33.9090 C   0  0  2  0  0  0  0  0  0  0  0  0
   40.9150   28.6420   32.2550 H   0  0  0  0  0  0  0  0  0  0  0  0
   41.5170   27.4950   30.9430 H   0  0  0  0  0  0  0  0  0  0  0  0
   43.0150   26.4150   32.3680 H   0  0  0  0  0  0  0  0  0  0  0  0
   43.1420   28.1320   33.0260 H   0  0  0  0  0  0  0  0  0  0  0  0
   42.2060   25.7730   34.3970 H   0  0  0  0  0  0  0  0  0  0  0  0
   42.1270   27.5210   34.9940 H   0  0  0  0  0  0  0  0  0  0  0  0
   39.9600   27.7410   34.1640 H   0  0  0  0  0  0  0  0  0  0  0  0
   38.2790   27.7320   35.7220 Cl  0  0  0  0  0  0  0  0  0  0  0  0
   38.7470   26.0340   35.5600 C   0  0  0  0  0  0  0  0  0  0  0  0
   39.7580   25.6550   34.6650 C   0  0  0  0  0  0  0  0  0  0  0  0
   40.0360   24.3080   34.6250 C   0  0  0  0  0  0  0  0  0  0  0  0
   40.8120   24.0250   33.9450 H   0  0  0  0  0  0  0  0  0  0  0  0
   39.3440   23.4240   35.4280 C   0  0  0  0  0  0  0  0  0  0  0  0
   39.6510   22.3930   35.3070 H   0  0  0  0  0  0  0  0  0  0  0  0
   38.3520   23.8170   36.3020 C   0  0  0  0  0  3  0  0  0  0  0  0
   38.0550   25.1640   36.3600 C   0  0  0  0  0  3  0  0  0  0  0  0
   39.9730   24.4440   31.5430 C   0  0  0  0  0  0  0  0  0  0  0  0
   39.3970   25.7150   31.8510 C   0  0  0  0  0  0  0  0  0  0  0  0
   38.0620   25.9170   31.4970 C   0  0  0  0  0  0  0  0  0  0  0  0
   37.3750   24.9150   30.8830 N   0  0  0  0  0  0  0  0  0  0  0  0
   37.9660   23.7300   30.6110 C   0  0  0  0  0  0  0  0  0  0  0  0
   39.2420   23.4970   30.9350 N   0  0  0  0  0  0  0  0  0  0  0  0
   40.9960   24.2010   31.7870 H   0  0  0  0  0  0  0  0  0  0  0  0
   37.3490   22.9890   30.1190 H   0  0  0  0  0  0  0  0  0  0  0  0
   37.3850   27.1540   31.7770 C   0  0  0  0  0  0  0  0  0  0  0  0
   37.5330   28.2130   30.9120 C   0  0  0  0  0  0  0  0  0  0  0  0
   36.9170   29.4360   31.1010 C   0  0  0  0  0  0  0  0  0  0  0  0
   36.1190   29.5660   32.2270 C   0  0  0  0  0  0  0  0  0  0  0  0
   35.9230   28.5420   33.1440 C   0  0  0  0  0  0  0  0  0  0  0  0
   36.5840   27.3350   32.8760 C   0  0  0  0  0  0  0  0  0  0  0  0
   38.1510   28.0930   30.0500 H   0  0  0  0  0  0  0  0  0  0  0  0
   37.0580   30.2490   30.3970 H   0  0  0  0  0  0  0  0  0  0  0  0
   35.6440   30.5270   32.3630 H   0  0  0  0  0  0  0  0  0  0  0  0
   35.2950   28.6940   34.0010 H   0  0  0  0  0  0  0  0  0  0  0  0
   36.4550   26.4990   33.5750 H   0  0  0  0  0  0  0  0  0  0  0  0
  1  5  1  0  0  0  0
  2  6  1  0  0  0  0
  2  1  1  0  0  0  0
  2  3  1  0  0  0  0
  3  9  1  0  0  0  0
  3  4  1  0  0  0  0
  4 10  1  0  0  0  0
  4 11  1  0  0  0  0
  5 12  1  1  0  0  0
  5  4  1  0  0  0  0
  5 15  1  0  0  0  0
  7  2  1  0  0  0  0
  8  3  1  0  0  0  0
 14 13  1  0  0  0  0
 14 21  1  0  0  0  0
 15 14  2  0  0  0  0
 16 15  1  0  0  0  0
 16 18  2  0  0  0  0
 17 16  1  0  0  0  0
 18 20  1  0  0  0  0
 19 18  1  0  0  0  0
 20 21  2  0  0  0  0
 22 28  1  0  0  0  0
 22 23  1  0  0  0  0
 23  1  1  0  0  0  0
 24 30  1  0  0  0  0
 24 23  2  0  0  0  0
 25 24  1  0  0  0  0
 26 25  2  0  0  0  0
 26 27  1  0  0  0  0
 27 22  2  0  0  0  0
 29 26  1  0  0  0  0
 30 35  1  0  0  0  0
 31 32  1  0  0  0  0
 31 30  2  0  0  0  0
 32 33  2  0  0  0  0
 33 38  1  0  0  0  0
 33 34  1  0  0  0  0
 34 39  1  0  0  0  0
 35 34  2  0  0  0  0
 35 40  1  0  0  0  0
 36 31  1  0  0  0  0
 37 32  1  0  0  0  0
M  END
>  <minimizedAffinity>
-5.22458887

$$$$

 OpenBabel03272509143D

 40 43  0  0  1  0  0  0  0  0999 V2000
   37.2390   26.9670   32.3630 N   0  0  0  0  0  0  0  0  0  0  0  0
   35.8770   27.5510   32.4840 C   0  0  0  0  0  0  0  0  0  0  0  0
   36.0770   28.5230   33.6420 C   0  0  0  0  0  0  0  0  0  0  0  0
   37.0560   27.8110   34.5420 C   0  0  0  0  0  0  0  0  0  0  0  0
   37.5170   26.6060   33.7440 C   0  0  2  0  0  0  0  0  0  0  0  0
   35.1690   26.7430   32.7330 H   0  0  0  0  0  0  0  0  0  0  0  0
   35.6120   28.0960   31.5630 H   0  0  0  0  0  0  0  0  0  0  0  0
   36.5030   29.4530   33.2380 H   0  0  0  0  0  0  0  0  0  0  0  0
   35.1160   28.6780   34.1710 H   0  0  0  0  0  0  0  0  0  0  0  0
   37.9440   28.4590   34.6930 H   0  0  0  0  0  0  0  0  0  0  0  0
   36.5790   27.5080   35.5000 H   0  0  0  0  0  0  0  0  0  0  0  0
   36.8560   25.7600   33.9830 H   0  0  0  0  0  0  0  0  0  0  0  0
   37.8990   23.8230   34.6330 Cl  0  0  0  0  0  0  0  0  0  0  0  0
   39.2080   25.0010   34.4610 C   0  0  0  0  0  0  0  0  0  0  0  0
   38.9400   26.3050   34.0220 C   0  0  0  0  0  0  0  0  0  0  0  0
   40.0350   27.1320   33.9270 C   0  0  0  0  0  0  0  0  0  0  0  0
   39.8250   28.1290   33.5980 H   0  0  0  0  0  0  0  0  0  0  0  0
   41.2950   26.6700   34.2500 C   0  0  0  0  0  0  0  0  0  0  0  0
   42.0750   27.4110   34.1350 H   0  0  0  0  0  0  0  0  0  0  0  0
   41.5380   25.3810   34.6790 C   0  0  0  0  0  3  0  0  0  0  0  0
   40.4540   24.5330   34.7830 C   0  0  0  0  0  3  0  0  0  0  0  0
   38.9180   27.8920   30.9270 C   0  0  0  0  0  0  0  0  0  0  0  0
   38.1770   26.7370   31.3230 C   0  0  0  0  0  0  0  0  0  0  0  0
   38.4300   25.5460   30.6410 C   0  0  0  0  0  0  0  0  0  0  0  0
   39.3560   25.5330   29.6420 N   0  0  0  0  0  0  0  0  0  0  0  0
   40.0310   26.6550   29.3030 C   0  0  0  0  0  0  0  0  0  0  0  0
   39.8170   27.8140   29.9330 N   0  0  0  0  0  0  0  0  0  0  0  0
   38.7900   28.8510   31.4050 H   0  0  0  0  0  0  0  0  0  0  0  0
   40.7460   26.5570   28.4970 H   0  0  0  0  0  0  0  0  0  0  0  0
   37.7500   24.3240   30.9730 C   0  0  0  0  0  0  0  0  0  0  0  0
   36.3740   24.3050   30.9960 C   0  0  0  0  0  0  0  0  0  0  0  0
   35.6390   23.1750   31.3020 C   0  0  0  0  0  0  0  0  0  0  0  0
   36.3540   22.0250   31.5930 C   0  0  0  0  0  0  0  0  0  0  0  0
   37.7410   21.9680   31.5900 C   0  0  0  0  0  0  0  0  0  0  0  0
   38.4090   23.1580   31.2690 C   0  0  0  0  0  0  0  0  0  0  0  0
   35.8420   25.2020   30.7680 H   0  0  0  0  0  0  0  0  0  0  0  0
   34.5540   23.1990   31.3100 H   0  0  0  0  0  0  0  0  0  0  0  0
   35.7670   21.1490   31.8310 H   0  0  0  0  0  0  0  0  0  0  0  0
   38.2480   21.0510   31.8230 H   0  0  0  0  0  0  0  0  0  0  0  0
   39.5070   23.1580   31.2530 H   0  0  0  0  0  0  0  0  0  0  0  0
  1  2  1  0  0  0  0
  1  5  1  0  0  0  0
  2  6  1  0  0  0  0
  2  3  1  0  0  0  0
  3  9  1  0  0  0  0
  3  4  1  0  0  0  0
  4 10  1  0  0  0  0
  4 11  1  0  0  0  0
  5 12  1  1  0  0  0
  5 15  1  0  0  0  0
  5  4  1  0  0  0  0
  7  2  1  0  0  0  0
  8  3  1  0  0  0  0
 14 13  1  0  0  0  0
 14 21  1  0  0  0  0
 15 14  2  0  0  0  0
 16 15  1  0  0  0  0
 16 18  2  0  0  0  0
 17 16  1  0  0  0  0
 18 20  1  0  0  0  0
 19 18  1  0  0  0  0
 20 21  2  0  0  0  0
 22 23  1  0  0  0  0
 22 28  1  0  0  0  0
 23  1  1  0  0  0  0
 24 30  1  0  0  0  0
 24 23  2  0  0  0  0
 25 24  1  0  0  0  0
 26 25  2  0  0  0  0
 26 27  1  0  0  0  0
 27 22  2  0  0  0  0
 29 26  1  0  0  0  0
 30 31  2  0  0  0  0
 30 35  1  0  0  0  0
 31 32  1  0  0  0  0
 32 37  1  0  0  0  0
 32 33  2  0  0  0  0
 33 38  1  0  0  0  0
 34 33  1  0  0  0  0
 34 39  1  0  0  0  0
 35 34  2  0  0  0  0
 36 31  1  0  0  0  0
 40 35  1  0  0  0  0
M  END
>  <minimizedAffinity>
-5.15228033

$$$$

 OpenBabel03272509143D

 40 43  0  0  1  0  0  0  0  0999 V2000
   40.9490   24.6730   34.1570 N   0  0  0  0  0  0  0  0  0  0  0  0
   42.4020   24.4910   33.9030 C   0  0  0  0  0  0  0  0  0  0  0  0
   42.9740   25.7400   34.5650 C   0  0  0  0  0  0  0  0  0  0  0  0
   41.9310   26.7960   34.2960 C   0  0  0  0  0  0  0  0  0  0  0  0
   40.7520   26.0430   33.7110 C   0  0  2  0  0  0  0  0  0  0  0  0
   42.5700   24.4810   32.8130 H   0  0  0  0  0  0  0  0  0  0  0  0
   42.7680   23.5830   34.4100 H   0  0  0  0  0  0  0  0  0  0  0  0
   43.0780   25.5390   35.6410 H   0  0  0  0  0  0  0  0  0  0  0  0
   43.9310   26.0170   34.0790 H   0  0  0  0  0  0  0  0  0  0  0  0
   41.5940   27.2240   35.2640 H   0  0  0  0  0  0  0  0  0  0  0  0
   42.3100   27.5710   33.5940 H   0  0  0  0  0  0  0  0  0  0  0  0
   40.8580   26.0310   32.6160 H   0  0  0  0  0  0  0  0  0  0  0  0
   39.0910   26.8690   31.4230 Cl  0  0  0  0  0  0  0  0  0  0  0  0
   38.6250   27.0800   33.1160 C   0  0  0  0  0  0  0  0  0  0  0  0
   39.4730   26.6490   34.1470 C   0  0  0  0  0  0  0  0  0  0  0  0
   39.0060   26.8650   35.4230 C   0  0  0  0  0  0  0  0  0  0  0  0
   39.6590   26.5410   36.2070 H   0  0  0  0  0  0  0  0  0  0  0  0
   37.7810   27.4670   35.6310 C   0  0  0  0  0  0  0  0  0  0  0  0
   37.5230   27.5820   36.6760 H   0  0  0  0  0  0  0  0  0  0  0  0
   36.9620   27.8830   34.6020 C   0  0  0  0  0  3  0  0  0  0  0  0
   37.4090   27.6780   33.3130 C   0  0  0  0  0  3  0  0  0  0  0  0
   39.9110   23.7230   36.0960 C   0  0  0  0  0  0  0  0  0  0  0  0
   39.8840   23.8920   34.6770 C   0  0  0  0  0  0  0  0  0  0  0  0
   38.8560   23.2610   33.9750 C   0  0  0  0  0  0  0  0  0  0  0  0
   37.9370   22.5230   34.6570 N   0  0  0  0  0  0  0  0  0  0  0  0
   38.0060   22.3920   36.0010 C   0  0  0  0  0  0  0  0  0  0  0  0
   38.9750   22.9810   36.7090 N   0  0  0  0  0  0  0  0  0  0  0  0
   40.6660   24.1810   36.7170 H   0  0  0  0  0  0  0  0  0  0  0  0
   37.2380   21.7870   36.4620 H   0  0  0  0  0  0  0  0  0  0  0  0
   38.7310   23.3800   32.5480 C   0  0  0  0  0  0  0  0  0  0  0  0
   39.8030   23.0560   31.7490 C   0  0  0  0  0  0  0  0  0  0  0  0
   39.7700   23.1380   30.3690 C   0  0  0  0  0  0  0  0  0  0  0  0
   38.5840   23.5730   29.7980 C   0  0  0  0  0  0  0  0  0  0  0  0
   37.4630   23.9180   30.5390 C   0  0  0  0  0  0  0  0  0  0  0  0
   37.5820   23.8050   31.9320 C   0  0  0  0  0  0  0  0  0  0  0  0
   40.7070   22.7230   32.2090 H   0  0  0  0  0  0  0  0  0  0  0  0
   40.6360   22.8730   29.7720 H   0  0  0  0  0  0  0  0  0  0  0  0
   38.5720   23.6330   28.7190 H   0  0  0  0  0  0  0  0  0  0  0  0
   36.5680   24.2490   30.0480 H   0  0  0  0  0  0  0  0  0  0  0  0
   36.7170   24.0670   32.5560 H   0  0  0  0  0  0  0  0  0  0  0  0
  1 23  1  0  0  0  0
  2  1  1  0  0  0  0
  2  7  1  0  0  0  0
  2  3  1  0  0  0  0
  3  8  1  0  0  0  0
  4  3  1  0  0  0  0
  4 10  1  0  0  0  0
  5 12  1  6  0  0  0
  5 15  1  0  0  0  0
  5  1  1  0  0  0  0
  5  4  1  0  0  0  0
  6  2  1  0  0  0  0
  9  3  1  0  0  0  0
 11  4  1  0  0  0  0
 13 14  1  0  0  0  0
 14 21  2  0  0  0  0
 14 15  1  0  0  0  0
 15 16  2  0  0  0  0
 16 18  1  0  0  0  0
 16 17  1  0  0  0  0
 18 19  1  0  0  0  0
 20 18  2  0  0  0  0
 21 20  1  0  0  0  0
 22 27  1  0  0  0  0
 22 28  1  0  0  0  0
 23 22  2  0  0  0  0
 24 25  2  0  0  0  0
 24 23  1  0  0  0  0
 25 26  1  0  0  0  0
 26 29  1  0  0  0  0
 26 27  2  0  0  0  0
 30 24  1  0  0  0  0
 31 36  1  0  0  0  0
 31 30  2  0  0  0  0
 32 31  1  0  0  0  0
 33 32  2  0  0  0  0
 33 34  1  0  0  0  0
 34 35  2  0  0  0  0
 35 30  1  0  0  0  0
 35 40  1  0  0  0  0
 37 32  1  0  0  0  0
 38 33  1  0  0  0  0
 39 34  1  0  0  0  0
M  END
>  <minimizedAffinity>
-5.14531612

$$$$

 OpenBabel03272509143D

 40 43  0  0  1  0  0  0  0  0999 V2000
   38.8720   22.8020   31.5480 N   0  0  0  0  0  0  0  0  0  0  0  0
   39.5380   21.7230   30.7720 C   0  0  0  0  0  0  0  0  0  0  0  0
   39.8300   20.7080   31.8710 C   0  0  0  0  0  0  0  0  0  0  0  0
   40.1510   21.5620   33.0720 C   0  0  0  0  0  0  0  0  0  0  0  0
   39.8050   22.9780   32.6490 C   0  0  2  0  0  0  0  0  0  0  0  0
   40.4610   22.1310   30.3240 H   0  0  0  0  0  0  0  0  0  0  0  0
   38.8420   21.3000   30.0300 H   0  0  0  0  0  0  0  0  0  0  0  0
   38.9210   20.1090   32.0330 H   0  0  0  0  0  0  0  0  0  0  0  0
   40.7100   20.0960   31.5930 H   0  0  0  0  0  0  0  0  0  0  0  0
   39.4620   21.2950   33.9000 H   0  0  0  0  0  0  0  0  0  0  0  0
   41.2210   21.4720   33.3600 H   0  0  0  0  0  0  0  0  0  0  0  0
   40.7070   23.4400   32.2210 H   0  0  0  0  0  0  0  0  0  0  0  0
   40.9450   25.6910   32.7810 Cl  0  0  0  0  0  0  0  0  0  0  0  0
   39.7640   25.0520   33.9320 C   0  0  0  0  0  0  0  0  0  0  0  0
   39.2640   23.7500   33.7920 C   0  0  0  0  0  0  0  0  0  0  0  0
   38.3520   23.3630   34.7450 C   0  0  0  0  0  0  0  0  0  0  0  0
   37.9780   22.3650   34.6380 H   0  0  0  0  0  0  0  0  0  0  0  0
   37.9810   24.2270   35.7550 C   0  0  0  0  0  0  0  0  0  0  0  0
   37.2570   23.8100   36.4430 H   0  0  0  0  0  0  0  0  0  0  0  0
   38.4840   25.5060   35.8750 C   0  0  0  0  0  3  0  0  0  0  0  0
   39.4020   25.9170   34.9300 C   0  0  0  0  0  3  0  0  0  0  0  0
   37.8870   24.9330   31.0730 C   0  0  0  0  0  0  0  0  0  0  0  0
   37.6820   23.5680   31.4430 C   0  0  0  0  0  0  0  0  0  0  0  0
   36.3700   23.1580   31.6830 C   0  0  0  0  0  0  0  0  0  0  0  0
   35.3560   24.0590   31.5580 N   0  0  0  0  0  0  0  0  0  0  0  0
   35.6020   25.3410   31.2070 C   0  0  0  0  0  0  0  0  0  0  0  0
   36.8440   25.7720   30.9680 N   0  0  0  0  0  0  0  0  0  0  0  0
   38.8680   25.3330   30.8640 H   0  0  0  0  0  0  0  0  0  0  0  0
   34.7390   25.9900   31.1330 H   0  0  0  0  0  0  0  0  0  0  0  0
   36.0560   21.8040   32.0460 C   0  0  0  0  0  0  0  0  0  0  0  0
   35.9250   20.8550   31.0580 C   0  0  0  0  0  0  0  0  0  0  0  0
   35.6280   19.5300   31.3160 C   0  0  0  0  0  0  0  0  0  0  0  0
   35.4590   19.1760   32.6450 C   0  0  0  0  0  0  0  0  0  0  0  0
   35.5750   20.0770   33.6950 C   0  0  0  0  0  0  0  0  0  0  0  0
   35.8790   21.4000   33.3440 C   0  0  0  0  0  0  0  0  0  0  0  0
   36.0590   21.1480   30.0400 H   0  0  0  0  0  0  0  0  0  0  0  0
   35.5330   18.8100   30.5100 H   0  0  0  0  0  0  0  0  0  0  0  0
   35.2270   18.1370   32.8330 H   0  0  0  0  0  0  0  0  0  0  0  0
   35.4350   19.7510   34.7080 H   0  0  0  0  0  0  0  0  0  0  0  0
   35.9800   22.1450   34.1440 H   0  0  0  0  0  0  0  0  0  0  0  0
  1  5  1  0  0  0  0
  2  1  1  0  0  0  0
  2  3  1  0  0  0  0
  3  8  1  0  0  0  0
  3  4  1  0  0  0  0
  4 11  1  0  0  0  0
  4 10  1  0  0  0  0
  5 12  1  6  0  0  0
  5  4  1  0  0  0  0
  5 15  1  0  0  0  0
  6  2  1  0  0  0  0
  7  2  1  0  0  0  0
  9  3  1  0  0  0  0
 13 14  1  0  0  0  0
 14 21  1  0  0  0  0
 15 14  2  0  0  0  0
 15 16  1  0  0  0  0
 16 18  2  0  0  0  0
 17 16  1  0  0  0  0
 18 20  1  0  0  0  0
 18 19  1  0  0  0  0
 21 20  2  0  0  0  0
 22 23  1  0  0  0  0
 23  1  1  0  0  0  0
 23 24  2  0  0  0  0
 24 30  1  0  0  0  0
 25 24  1  0  0  0  0
 26 25  2  0  0  0  0
 27 22  2  0  0  0  0
 27 26  1  0  0  0  0
 28 22  1  0  0  0  0
 29 26  1  0  0  0  0
 30 35  1  0  0  0  0
 31 32  1  0  0  0  0
 31 30  2  0  0  0  0
 32 33  2  0  0  0  0
 33 38  1  0  0  0  0
 33 34  1  0  0  0  0
 34 39  1  0  0  0  0
 35 34  2  0  0  0  0
 35 40  1  0  0  0  0
 36 31  1  0  0  0  0
 37 32  1  0  0  0  0
M  END
>  <minimizedAffinity>
-5.13561678

$$$$

 OpenBabel03272509143D

 40 43  0  0  1  0  0  0  0  0999 V2000
   38.4240   23.8600   33.6090 N   0  0  0  0  0  0  0  0  0  0  0  0
   38.0590   23.2870   32.2860 C   0  0  0  0  0  0  0  0  0  0  0  0
   37.0220   22.2460   32.6930 C   0  0  0  0  0  0  0  0  0  0  0  0
   37.5330   21.7310   34.0160 C   0  0  0  0  0  0  0  0  0  0  0  0
   38.6800   22.6540   34.3800 C   0  0  2  0  0  0  0  0  0  0  0  0
   38.9600   22.8290   31.8420 H   0  0  0  0  0  0  0  0  0  0  0  0
   37.6010   24.0600   31.6470 H   0  0  0  0  0  0  0  0  0  0  0  0
   36.0530   22.7550   32.8050 H   0  0  0  0  0  0  0  0  0  0  0  0
   37.0010   21.4260   31.9480 H   0  0  0  0  0  0  0  0  0  0  0  0
   36.7460   21.8730   34.7860 H   0  0  0  0  0  0  0  0  0  0  0  0
   37.8680   20.6740   33.9370 H   0  0  0  0  0  0  0  0  0  0  0  0
   39.6100   22.2230   33.9820 H   0  0  0  0  0  0  0  0  0  0  0  0
   41.3080   21.9230   35.4930 Cl  0  0  0  0  0  0  0  0  0  0  0  0
   39.9550   22.5330   36.4560 C   0  0  0  0  0  0  0  0  0  0  0  0
   38.7380   22.8670   35.8450 C   0  0  0  0  0  0  0  0  0  0  0  0
   37.7600   23.3310   36.6930 C   0  0  0  0  0  0  0  0  0  0  0  0
   36.8310   23.5780   36.2230 H   0  0  0  0  0  0  0  0  0  0  0  0
   38.0010   23.4450   38.0470 C   0  0  0  0  0  0  0  0  0  0  0  0
   37.1560   23.8210   38.6110 H   0  0  0  0  0  0  0  0  0  0  0  0
   39.2060   23.1110   38.6290 C   0  0  0  0  0  3  0  0  0  0  0  0
   40.2030   22.6430   37.7980 C   0  0  0  0  0  3  0  0  0  0  0  0
   37.2990   25.7740   34.5100 C   0  0  0  0  0  0  0  0  0  0  0  0
   38.5440   25.1550   34.1770 C   0  0  0  0  0  0  0  0  0  0  0  0
   39.7090   25.8860   34.4150 C   0  0  0  0  0  0  0  0  0  0  0  0
   39.6150   27.1380   34.9440 N   0  0  0  0  0  0  0  0  0  0  0  0
   38.4130   27.6800   35.2400 C   0  0  0  0  0  0  0  0  0  0  0  0
   37.2750   27.0120   35.0280 N   0  0  0  0  0  0  0  0  0  0  0  0
   36.3520   25.2780   34.3640 H   0  0  0  0  0  0  0  0  0  0  0  0
   38.4280   28.6800   35.6550 H   0  0  0  0  0  0  0  0  0  0  0  0
   41.0100   25.3480   34.1300 C   0  0  0  0  0  0  0  0  0  0  0  0
   41.9720   25.3560   35.1130 C   0  0  0  0  0  0  0  0  0  0  0  0
   43.2480   24.8570   34.9270 C   0  0  0  0  0  0  0  0  0  0  0  0
   43.5370   24.3320   33.6780 C   0  0  0  0  0  0  0  0  0  0  0  0
   42.6190   24.2900   32.6370 C   0  0  0  0  0  0  0  0  0  0  0  0
   41.3490   24.8160   32.9120 C   0  0  0  0  0  0  0  0  0  0  0  0
   41.7300   25.7650   36.0690 H   0  0  0  0  0  0  0  0  0  0  0  0
   43.9810   24.8810   35.7270 H   0  0  0  0  0  0  0  0  0  0  0  0
   44.5380   23.9460   33.5450 H   0  0  0  0  0  0  0  0  0  0  0  0
   42.8930   23.8720   31.6880 H   0  0  0  0  0  0  0  0  0  0  0  0
   40.5910   24.8020   32.1170 H   0  0  0  0  0  0  0  0  0  0  0  0
  1 23  1  0  0  0  0
  1  5  1  0  0  0  0
  2  3  1  0  0  0  0
  2  1  1  0  0  0  0
  3  8  1  0  0  0  0
  3  4  1  0  0  0  0
  4  5  1  0  0  0  0
  4 10  1  0  0  0  0
  5 12  1  6  0  0  0
  5 15  1  0  0  0  0
  6  2  1  0  0  0  0
  7  2  1  0  0  0  0
  9  3  1  0  0  0  0
 11  4  1  0  0  0  0
 13 14  1  0  0  0  0
 14 21  1  0  0  0  0
 15 14  2  0  0  0  0
 15 16  1  0  0  0  0
 16 18  2  0  0  0  0
 17 16  1  0  0  0  0
 18 19  1  0  0  0  0
 18 20  1  0  0  0  0
 21 20  2  0  0  0  0
 22 27  1  0  0  0  0
 23 24  1  0  0  0  0
 23 22  2  0  0  0  0
 24 25  2  0  0  0  0
 25 26  1  0  0  0  0
 26 29  1  0  0  0  0
 27 26  2  0  0  0  0
 28 22  1  0  0  0  0
 30 24  1  0  0  0  0
 30 31  1  0  0  0  0
 31 36  1  0  0  0  0
 32 31  2  0  0  0  0
 32 37  1  0  0  0  0
 33 32  1  0  0  0  0
 34 35  1  0  0  0  0
 34 33  2  0  0  0  0
 35 30  2  0  0  0  0
 38 33  1  0  0  0  0
 39 34  1  0  0  0  0
 40 35  1  0  0  0  0
M  END
>  <minimizedAffinity>
-5.05411911

$$$$

 OpenBabel03272509143D

 40 43  0  0  1  0  0  0  0  0999 V2000
   37.8260   25.1380   34.4700 N   0  0  0  0  0  0  0  0  0  0  0  0
   37.0240   26.3880   34.4030 C   0  0  0  0  0  0  0  0  0  0  0  0
   38.0600   27.4240   34.8230 C   0  0  0  0  0  0  0  0  0  0  0  0
   38.8920   26.7010   35.8540 C   0  0  0  0  0  0  0  0  0  0  0  0
   38.4290   25.2580   35.7870 C   0  0  2  0  0  0  0  0  0  0  0  0
   36.1930   26.3110   35.1240 H   0  0  0  0  0  0  0  0  0  0  0  0
   36.6900   26.5730   33.3690 H   0  0  0  0  0  0  0  0  0  0  0  0
   38.6560   27.6900   33.9380 H   0  0  0  0  0  0  0  0  0  0  0  0
   37.5540   28.2950   35.2860 H   0  0  0  0  0  0  0  0  0  0  0  0
   39.9550   26.7150   35.5340 H   0  0  0  0  0  0  0  0  0  0  0  0
   38.7450   27.1310   36.8680 H   0  0  0  0  0  0  0  0  0  0  0  0
   37.6150   25.1220   36.5150 H   0  0  0  0  0  0  0  0  0  0  0  0
   37.8650   23.3810   37.9870 Cl  0  0  0  0  0  0  0  0  0  0  0  0
   39.3760   23.4100   37.0680 C   0  0  0  0  0  0  0  0  0  0  0  0
   39.5600   24.3320   36.0280 C   0  0  0  0  0  0  0  0  0  0  0  0
   40.7740   24.2610   35.3850 C   0  0  0  0  0  0  0  0  0  0  0  0
   40.9130   24.9710   34.5970 H   0  0  0  0  0  0  0  0  0  0  0  0
   41.7190   23.3310   35.7680 C   0  0  0  0  0  0  0  0  0  0  0  0
   42.6320   23.3720   35.1890 H   0  0  0  0  0  0  0  0  0  0  0  0
   41.5180   22.4310   36.7940 C   0  0  0  0  0  3  0  0  0  0  0  0
   40.3070   22.4830   37.4550 C   0  0  0  0  0  3  0  0  0  0  0  0
   37.5800   22.7820   34.1140 C   0  0  0  0  0  0  0  0  0  0  0  0
   38.0830   24.0270   33.6250 C   0  0  0  0  0  0  0  0  0  0  0  0
   38.7790   24.0080   32.4150 C   0  0  0  0  0  0  0  0  0  0  0  0
   38.9490   22.8250   31.7620 N   0  0  0  0  0  0  0  0  0  0  0  0
   38.4550   21.6730   32.2670 C   0  0  0  0  0  0  0  0  0  0  0  0
   37.7830   21.6490   33.4210 N   0  0  0  0  0  0  0  0  0  0  0  0
   37.0260   22.7060   35.0360 H   0  0  0  0  0  0  0  0  0  0  0  0
   38.6370   20.7790   31.6840 H   0  0  0  0  0  0  0  0  0  0  0  0
   39.3110   25.2080   31.8310 C   0  0  0  0  0  0  0  0  0  0  0  0
   38.5390   25.9270   30.9480 C   0  0  0  0  0  0  0  0  0  0  0  0
   38.9690   27.0930   30.3420 C   0  0  0  0  0  0  0  0  0  0  0  0
   40.2450   27.5280   30.6620 C   0  0  0  0  0  0  0  0  0  0  0  0
   41.0820   26.8560   31.5420 C   0  0  0  0  0  0  0  0  0  0  0  0
   40.5670   25.6830   32.1120 C   0  0  0  0  0  0  0  0  0  0  0  0
   37.5580   25.5750   30.7160 H   0  0  0  0  0  0  0  0  0  0  0  0
   38.3310   27.6330   29.6510 H   0  0  0  0  0  0  0  0  0  0  0  0
   40.5690   28.4400   30.1810 H   0  0  0  0  0  0  0  0  0  0  0  0
   42.0620   27.2360   31.7560 H   0  0  0  0  0  0  0  0  0  0  0  0
   41.1950   25.1210   32.8150 H   0  0  0  0  0  0  0  0  0  0  0  0
  1  5  1  0  0  0  0
  2  1  1  0  0  0  0
  2  3  1  0  0  0  0
  2  6  1  0  0  0  0
  3  9  1  0  0  0  0
  3  4  1  0  0  0  0
  4 11  1  0  0  0  0
  5  4  1  0  0  0  0
  5 15  1  0  0  0  0
  5 12  1  1  0  0  0
  7  2  1  0  0  0  0
  8  3  1  0  0  0  0
 10  4  1  0  0  0  0
 14 21  1  0  0  0  0
 14 13  1  0  0  0  0
 15 14  2  0  0  0  0
 16 18  2  0  0  0  0
 16 15  1  0  0  0  0
 17 16  1  0  0  0  0
 18 20  1  0  0  0  0
 19 18  1  0  0  0  0
 20 21  2  0  0  0  0
 22 28  1  0  0  0  0
 23 22  1  0  0  0  0
 23  1  1  0  0  0  0
 24 23  2  0  0  0  0
 25 26  2  0  0  0  0
 25 24  1  0  0  0  0
 26 27  1  0  0  0  0
 27 22  2  0  0  0  0
 29 26  1  0  0  0  0
 30 35  1  0  0  0  0
 30 24  1  0  0  0  0
 31 30  2  0  0  0  0
 32 33  2  0  0  0  0
 32 31  1  0  0  0  0
 33 34  1  0  0  0  0
 34 39  1  0  0  0  0
 34 35  2  0  0  0  0
 35 40  1  0  0  0  0
 36 31  1  0  0  0  0
 37 32  1  0  0  0  0
 38 33  1  0  0  0  0
M  END
>  <minimizedAffinity>
-5.05052328

$$$$

 OpenBabel03272509143D

 40 43  0  0  1  0  0  0  0  0999 V2000
   39.4030   24.3200   32.2560 N   0  0  0  0  0  0  0  0  0  0  0  0
   38.7330   24.2120   30.9330 C   0  0  0  0  0  0  0  0  0  0  0  0
   37.2730   24.0830   31.3530 C   0  0  0  0  0  0  0  0  0  0  0  0
   37.3370   23.2760   32.6260 C   0  0  0  0  0  0  0  0  0  0  0  0
   38.8130   23.1960   32.9650 C   0  0  2  0  0  0  0  0  0  0  0  0
   39.1040   23.3060   30.4240 H   0  0  0  0  0  0  0  0  0  0  0  0
   38.8870   25.1350   30.3500 H   0  0  0  0  0  0  0  0  0  0  0  0
   36.8790   25.0930   31.5340 H   0  0  0  0  0  0  0  0  0  0  0  0
   36.7080   23.5280   30.5780 H   0  0  0  0  0  0  0  0  0  0  0  0
   36.8480   23.8490   33.4410 H   0  0  0  0  0  0  0  0  0  0  0  0
   36.8940   22.2650   32.4880 H   0  0  0  0  0  0  0  0  0  0  0  0
   39.2250   22.2860   32.5020 H   0  0  0  0  0  0  0  0  0  0  0  0
   40.9730   21.3780   33.8090 Cl  0  0  0  0  0  0  0  0  0  0  0  0
   40.0240   22.3770   34.9180 C   0  0  0  0  0  0  0  0  0  0  0  0
   39.0170   23.2230   34.4320 C   0  0  0  0  0  0  0  0  0  0  0  0
   38.3460   23.9510   35.3870 C   0  0  0  0  0  0  0  0  0  0  0  0
   37.5750   24.5910   35.0110 H   0  0  0  0  0  0  0  0  0  0  0  0
   38.6720   23.8280   36.7220 C   0  0  0  0  0  0  0  0  0  0  0  0
   38.0760   24.4500   37.3760 H   0  0  0  0  0  0  0  0  0  0  0  0
   39.6670   22.9890   37.1810 C   0  0  0  0  0  3  0  0  0  0  0  0
   40.3540   22.2480   36.2410 C   0  0  0  0  0  3  0  0  0  0  0  0
   41.6820   24.6580   32.9100 C   0  0  0  0  0  0  0  0  0  0  0  0
   40.3520   25.1790   32.8680 C   0  0  0  0  0  0  0  0  0  0  0  0
   40.1340   26.4310   33.4450 C   0  0  0  0  0  0  0  0  0  0  0  0
   41.1780   27.0940   34.0160 N   0  0  0  0  0  0  0  0  0  0  0  0
   42.4180   26.5570   34.0320 C   0  0  0  0  0  0  0  0  0  0  0  0
   42.6680   25.3620   33.4900 N   0  0  0  0  0  0  0  0  0  0  0  0
   41.9400   23.7020   32.4830 H   0  0  0  0  0  0  0  0  0  0  0  0
   43.1890   27.1490   34.5080 H   0  0  0  0  0  0  0  0  0  0  0  0
   38.8370   27.0500   33.4410 C   0  0  0  0  0  0  0  0  0  0  0  0
   38.1480   27.1770   34.6250 C   0  0  0  0  0  0  0  0  0  0  0  0
   36.8980   27.7610   34.7140 C   0  0  0  0  0  0  0  0  0  0  0  0
   36.3420   28.2280   33.5340 C   0  0  0  0  0  0  0  0  0  0  0  0
   36.9760   28.1340   32.3030 C   0  0  0  0  0  0  0  0  0  0  0  0
   38.2410   27.5290   32.3030 C   0  0  0  0  0  0  0  0  0  0  0  0
   38.5940   26.8120   35.5230 H   0  0  0  0  0  0  0  0  0  0  0  0
   36.3850   27.8440   35.6670 H   0  0  0  0  0  0  0  0  0  0  0  0
   35.3650   28.6820   33.6180 H   0  0  0  0  0  0  0  0  0  0  0  0
   36.5020   28.5120   31.4180 H   0  0  0  0  0  0  0  0  0  0  0  0
   38.7780   27.4350   31.3500 H   0  0  0  0  0  0  0  0  0  0  0  0
  1 23  1  0  0  0  0
  1  5  1  0  0  0  0
  2  3  1  0  0  0  0
  2  1  1  0  0  0  0
  3  8  1  0  0  0  0
  3  4  1  0  0  0  0
  4  5  1  0  0  0  0
  4 10  1  0  0  0  0
  5 12  1  6  0  0  0
  5 15  1  0  0  0  0
  6  2  1  0  0  0  0
  7  2  1  0  0  0  0
  9  3  1  0  0  0  0
 11  4  1  0  0  0  0
 13 14  1  0  0  0  0
 14 21  1  0  0  0  0
 15 14  2  0  0  0  0
 15 16  1  0  0  0  0
 16 18  2  0  0  0  0
 17 16  1  0  0  0  0
 18 20  1  0  0  0  0
 18 19  1  0  0  0  0
 21 20  2  0  0  0  0
 22 27  1  0  0  0  0
 23 22  2  0  0  0  0
 23 24  1  0  0  0  0
 24 25  2  0  0  0  0
 25 26  1  0  0  0  0
 26 29  1  0  0  0  0
 27 26  2  0  0  0  0
 28 22  1  0  0  0  0
 30 24  1  0  0  0  0
 30 31  1  0  0  0  0
 31 32  2  0  0  0  0
 31 36  1  0  0  0  0
 32 37  1  0  0  0  0
 33 38  1  0  0  0  0
 33 32  1  0  0  0  0
 34 33  2  0  0  0  0
 35 34  1  0  0  0  0
 35 30  2  0  0  0  0
 39 34  1  0  0  0  0
 40 35  1  0  0  0  0
M  END
>  <minimizedAffinity>
-5.04036713

$$$$
