
 OpenBabel03272508443D

 27 29  0  0  0  0  0  0  0  0999 V2000
   35.7810   30.1710   49.9880 C   0  0  0  0  0  0  0  0  0  0  0  0
   36.7200   29.7960   50.9400 C   0  0  0  0  0  0  0  0  0  0  0  0
   37.8160   30.5810   50.6000 C   0  0  0  0  0  0  0  0  0  0  0  0
   37.5100   31.3580   49.5130 C   0  0  0  0  0  0  0  0  0  0  0  0
   36.2790   31.0870   49.1700 O   0  0  0  0  0  0  0  0  0  0  0  0
   36.6360   29.0830   51.7400 H   0  0  0  0  0  0  0  0  0  0  0  0
   38.7640   30.5420   51.1570 H   0  0  0  0  0  0  0  0  0  0  0  0
   38.4340   30.6560   46.6890 Cl  0  0  0  0  0  0  0  0  0  0  0  0
   38.8770   32.0900   47.5910 C   0  0  0  0  0  0  0  0  0  0  0  0
   38.4020   32.3110   48.8640 C   0  0  0  0  0  0  0  0  0  0  0  0
   38.7870   33.4610   49.5210 C   0  0  0  0  0  0  0  0  0  0  0  0
   38.3930   33.5970   50.5210 H   0  0  0  0  0  0  0  0  0  0  0  0
   39.6240   34.4170   48.9910 C   0  0  0  0  0  0  0  0  0  0  0  0
   39.8510   35.2780   49.6120 H   0  0  0  0  0  0  0  0  0  0  0  0
   40.0950   34.1760   47.6990 C   0  0  0  0  0  0  0  0  0  0  0  0
   39.7230   33.0340   47.0230 C   0  0  0  0  0  0  0  0  0  0  0  0
   34.4210   29.6100   49.9190 C   0  0  0  0  0  0  0  0  0  0  0  0
   33.6630   29.7770   50.9090 O   0  0  0  0  0  0  0  0  0  0  0  0
   32.7160   27.1630   47.8400 C   0  0  0  0  0  0  0  0  0  0  0  0
   33.1550   27.4870   46.5420 C   0  0  0  0  0  0  0  0  0  0  0  0
   34.0430   28.5540   46.3790 C   0  0  0  0  0  0  0  0  0  0  0  0
   34.4290   29.2150   47.4940 N   0  0  0  0  0  0  0  0  0  0  0  0
   34.0000   28.8930   48.7260 C   0  0  0  0  0  0  0  0  0  0  0  0
   33.1490   27.8720   48.8870 N   0  0  0  0  0  0  0  0  0  0  0  0
   32.0290   26.3430   48.0030 H   0  0  0  0  0  0  0  0  0  0  0  0
   32.8020   26.9130   45.7080 H   0  0  0  0  0  0  0  0  0  0  0  0
   34.3990   28.8290   45.3940 H   0  0  0  0  0  0  0  0  0  0  0  0
  1  2  2  0  0  0  0
  2  6  1  0  0  0  0
  3  2  1  0  0  0  0
  3  7  1  0  0  0  0
  4  3  2  0  0  0  0
  5  4  1  0  0  0  0
  5  1  1  0  0  0  0
  8  9  1  0  0  0  0
  9 10  1  0  0  0  0
 10  4  1  0  0  0  0
 10 11  2  0  0  0  0
 11 12  1  0  0  0  0
 13 11  1  0  0  0  0
 13 14  1  0  0  0  0
 15 13  2  0  0  0  0
 16  9  2  0  0  0  0
 16 15  1  0  0  0  0
 17  1  1  0  0  0  0
 17 18  2  0  0  0  0
 19 25  1  0  0  0  0
 19 24  1  0  0  0  0
 20 19  2  0  0  0  0
 21 20  1  0  0  0  0
 21 22  2  0  0  0  0
 22 23  1  0  0  0  0
 23 24  2  0  0  0  0
 23 17  1  0  0  0  0
 26 20  1  0  0  0  0
 27 21  1  0  0  0  0
M  END
>  <minimizedAffinity>
-6.27797031

>  <minimizedRMSD>
2.2040782

$$$$
