
 OpenBabel03272501503D

 20 21  0  0  0  0  0  0  0  0999 V2000
   40.8990   23.0760   36.2450 C   0  0  0  0  0  0  0  0  0  0  0  0
   40.2670   24.1180   35.5260 C   0  0  0  0  0  0  0  0  0  0  0  0
   39.0470   24.6100   36.0180 C   0  0  0  0  0  0  0  0  0  0  0  0
   38.5500   24.0470   37.1610 N   0  0  0  0  0  0  0  0  0  0  0  0
   39.1850   23.0620   37.8060 C   0  0  0  0  0  0  0  0  0  0  0  0
   40.3570   22.5560   37.3760 N   0  0  0  0  0  0  0  0  0  0  0  0
   38.5140   22.6100   38.9700 N   0  0  0  0  0  0  0  0  0  0  0  0
   41.8350   22.6770   35.8950 H   0  0  0  0  0  0  0  0  0  0  0  0
   40.7130   24.5160   34.6310 H   0  0  0  0  0  0  0  0  0  0  0  0
   37.4750   22.5750   39.0550 H   0  0  0  0  0  0  0  0  0  0  0  0
   39.0900   22.2950   39.7840 H   0  0  0  0  0  0  0  0  0  0  0  0
   37.8740   23.7650   33.4530 Cl  0  0  0  0  0  0  0  0  0  0  0  0
   37.7460   25.3920   34.1200 C   0  0  0  0  0  0  0  0  0  0  0  0
   38.3350   25.6810   35.3340 C   0  0  0  0  0  0  0  0  0  0  0  0
   38.1970   26.9510   35.7840 C   0  0  0  0  0  0  0  0  0  0  0  0
   38.6340   27.2240   36.7190 H   0  0  0  0  0  0  0  0  0  0  0  0
   37.5010   27.9320   35.0800 C   0  0  0  0  0  0  0  0  0  0  0  0
   37.4230   28.9390   35.4970 H   0  0  0  0  0  0  0  0  0  0  0  0
   36.9250   27.5970   33.8660 C   0  0  0  0  0  3  0  0  0  0  0  0
   37.0490   26.3190   33.3820 C   0  0  0  0  0  3  0  0  0  0  0  0
  1  6  1  0  0  0  0
  2  3  1  0  0  0  0
  2  1  2  0  0  0  0
  3  4  2  0  0  0  0
  4  5  1  0  0  0  0
  5  7  1  0  0  0  0
  6  5  2  0  0  0  0
  7 10  1  0  0  0  0
  7 11  1  0  0  0  0
  8  1  1  0  0  0  0
  9  2  1  0  0  0  0
 12 13  1  0  0  0  0
 13 14  1  0  0  0  0
 14 15  2  0  0  0  0
 14  3  1  0  0  0  0
 15 16  1  0  0  0  0
 17 18  1  0  0  0  0
 17 15  1  0  0  0  0
 19 17  2  0  0  0  0
 20 19  1  0  0  0  0
 20 13  2  0  0  0  0
M  END
>  <minimizedAffinity>
-4.77083111

$$$$

 OpenBabel03272501503D

 20 21  0  0  0  0  0  0  0  0999 V2000
   37.8410   24.1220   38.0410 C   0  0  0  0  0  0  0  0  0  0  0  0
   38.0670   24.9100   36.8870 C   0  0  0  0  0  0  0  0  0  0  0  0
   39.1640   24.5850   36.0740 C   0  0  0  0  0  0  0  0  0  0  0  0
   39.9440   23.5270   36.4520 N   0  0  0  0  0  0  0  0  0  0  0  0
   39.6900   22.8120   37.5540 C   0  0  0  0  0  0  0  0  0  0  0  0
   38.6510   23.0820   38.3660 N   0  0  0  0  0  0  0  0  0  0  0  0
   40.6080   21.7560   37.7790 N   0  0  0  0  0  0  0  0  0  0  0  0
   37.0080   24.3460   38.6850 H   0  0  0  0  0  0  0  0  0  0  0  0
   37.4130   25.7310   36.6470 H   0  0  0  0  0  0  0  0  0  0  0  0
   41.6210   21.8140   37.5320 H   0  0  0  0  0  0  0  0  0  0  0  0
   40.2530   20.8740   38.2150 H   0  0  0  0  0  0  0  0  0  0  0  0
   37.9370   23.4470   33.6500 Cl  0  0  0  0  0  0  0  0  0  0  0  0
   38.9350   24.9010   33.6750 C   0  0  0  0  0  0  0  0  0  0  0  0
   39.4620   25.3480   34.8690 C   0  0  0  0  0  0  0  0  0  0  0  0
   40.2190   26.4700   34.8120 C   0  0  0  0  0  0  0  0  0  0  0  0
   40.6490   26.8560   35.7090 H   0  0  0  0  0  0  0  0  0  0  0  0
   40.4670   27.1550   33.6230 C   0  0  0  0  0  0  0  0  0  0  0  0
   41.0850   28.0560   33.6430 H   0  0  0  0  0  0  0  0  0  0  0  0
   39.9170   26.6710   32.4490 C   0  0  0  0  0  3  0  0  0  0  0  0
   39.1470   25.5350   32.4740 C   0  0  0  0  0  3  0  0  0  0  0  0
  1  6  1  0  0  0  0
  1  8  1  0  0  0  0
  2  1  2  0  0  0  0
  3  4  2  0  0  0  0
  3  2  1  0  0  0  0
  4  5  1  0  0  0  0
  5  7  1  0  0  0  0
  5  6  2  0  0  0  0
  7 11  1  0  0  0  0
  9  2  1  0  0  0  0
 10  7  1  0  0  0  0
 12 13  1  0  0  0  0
 13 14  1  0  0  0  0
 14  3  1  0  0  0  0
 15 14  2  0  0  0  0
 15 16  1  0  0  0  0
 17 18  1  0  0  0  0
 17 15  1  0  0  0  0
 19 20  1  0  0  0  0
 19 17  2  0  0  0  0
 20 13  2  0  0  0  0
M  END
>  <minimizedAffinity>
-4.64037895

$$$$

 OpenBabel03272501503D

 20 21  0  0  0  0  0  0  0  0999 V2000
   41.1720   23.1300   36.2990 C   0  0  0  0  0  0  0  0  0  0  0  0
   40.4720   23.8220   35.2830 C   0  0  0  0  0  0  0  0  0  0  0  0
   39.1190   24.1220   35.5050 C   0  0  0  0  0  0  0  0  0  0  0  0
   38.5660   23.7220   36.6900 N   0  0  0  0  0  0  0  0  0  0  0  0
   39.2700   23.0690   37.6210 C   0  0  0  0  0  0  0  0  0  0  0  0
   40.5700   22.7590   37.4580 N   0  0  0  0  0  0  0  0  0  0  0  0
   38.5240   22.7410   38.7810 N   0  0  0  0  0  0  0  0  0  0  0  0
   42.2120   22.8860   36.1590 H   0  0  0  0  0  0  0  0  0  0  0  0
   40.9690   24.1070   34.3700 H   0  0  0  0  0  0  0  0  0  0  0  0
   37.5110   22.4930   38.7600 H   0  0  0  0  0  0  0  0  0  0  0  0
   39.0150   22.7480   39.7050 H   0  0  0  0  0  0  0  0  0  0  0  0
   38.7230   26.9670   36.1530 Cl  0  0  0  0  0  0  0  0  0  0  0  0
   38.0840   26.1740   34.7130 C   0  0  0  0  0  0  0  0  0  0  0  0
   38.3300   24.8320   34.5060 C   0  0  0  0  0  0  0  0  0  0  0  0
   37.8080   24.2900   33.3800 C   0  0  0  0  0  0  0  0  0  0  0  0
   37.9710   23.2550   33.1750 H   0  0  0  0  0  0  0  0  0  0  0  0
   37.0600   25.0260   32.4620 C   0  0  0  0  0  0  0  0  0  0  0  0
   36.6670   24.5310   31.5710 H   0  0  0  0  0  0  0  0  0  0  0  0
   36.8390   26.3700   32.7100 C   0  0  0  0  0  3  0  0  0  0  0  0
   37.3540   26.9480   33.8440 C   0  0  0  0  0  3  0  0  0  0  0  0
  1  6  1  0  0  0  0
  2  3  1  0  0  0  0
  2  1  2  0  0  0  0
  3  4  2  0  0  0  0
  4  5  1  0  0  0  0
  5  7  1  0  0  0  0
  6  5  2  0  0  0  0
  7 11  1  0  0  0  0
  8  1  1  0  0  0  0
  9  2  1  0  0  0  0
 10  7  1  0  0  0  0
 13 12  1  0  0  0  0
 14 13  1  0  0  0  0
 14  3  1  0  0  0  0
 15 14  2  0  0  0  0
 16 15  1  0  0  0  0
 17 19  2  0  0  0  0
 17 15  1  0  0  0  0
 18 17  1  0  0  0  0
 19 20  1  0  0  0  0
 20 13  2  0  0  0  0
M  END
>  <minimizedAffinity>
-4.56953526

$$$$

 OpenBabel03272501503D

 20 21  0  0  0  0  0  0  0  0999 V2000
   38.1900   23.9000   37.8080 C   0  0  0  0  0  0  0  0  0  0  0  0
   37.6300   23.6290   36.5370 C   0  0  0  0  0  0  0  0  0  0  0  0
   38.2420   22.6450   35.7450 C   0  0  0  0  0  0  0  0  0  0  0  0
   39.3430   22.0140   36.2550 N   0  0  0  0  0  0  0  0  0  0  0  0
   39.8370   22.3050   37.4640 C   0  0  0  0  0  0  0  0  0  0  0  0
   39.2860   23.2390   38.2620 N   0  0  0  0  0  0  0  0  0  0  0  0
   40.9800   21.5450   37.8170 N   0  0  0  0  0  0  0  0  0  0  0  0
   37.7440   24.6480   38.4400 H   0  0  0  0  0  0  0  0  0  0  0  0
   36.7600   24.1650   36.1960 H   0  0  0  0  0  0  0  0  0  0  0  0
   41.6980   21.2340   37.1260 H   0  0  0  0  0  0  0  0  0  0  0  0
   41.1100   21.2820   38.8210 H   0  0  0  0  0  0  0  0  0  0  0  0
   35.9480   20.8010   35.8370 Cl  0  0  0  0  0  0  0  0  0  0  0  0
   36.6470   21.4500   34.3540 C   0  0  0  0  0  0  0  0  0  0  0  0
   37.7240   22.3090   34.4250 C   0  0  0  0  0  0  0  0  0  0  0  0
   38.2090   22.7670   33.2470 C   0  0  0  0  0  0  0  0  0  0  0  0
   39.0420   23.4350   33.2490 H   0  0  0  0  0  0  0  0  0  0  0  0
   37.6670   22.4070   32.0140 C   0  0  0  0  0  0  0  0  0  0  0  0
   38.1020   22.8120   31.0970 H   0  0  0  0  0  0  0  0  0  0  0  0
   36.5850   21.5430   31.9900 C   0  0  0  0  0  3  0  0  0  0  0  0
   36.0720   21.0600   33.1690 C   0  0  0  0  0  3  0  0  0  0  0  0
  1  6  1  0  0  0  0
  1  8  1  0  0  0  0
  2  1  2  0  0  0  0
  3  4  2  0  0  0  0
  3  2  1  0  0  0  0
  4  5  1  0  0  0  0
  5  7  1  0  0  0  0
  5  6  2  0  0  0  0
  7 11  1  0  0  0  0
  9  2  1  0  0  0  0
 10  7  1  0  0  0  0
 13 14  1  0  0  0  0
 13 12  1  0  0  0  0
 14  3  1  0  0  0  0
 15 16  1  0  0  0  0
 15 14  2  0  0  0  0
 17 15  1  0  0  0  0
 18 17  1  0  0  0  0
 19 17  2  0  0  0  0
 19 20  1  0  0  0  0
 20 13  2  0  0  0  0
M  END
>  <minimizedAffinity>
-4.47606802

$$$$

 OpenBabel03272501503D

 20 21  0  0  0  0  0  0  0  0999 V2000
   36.6260   28.0250   33.0830 C   0  0  0  0  0  0  0  0  0  0  0  0
   36.0890   28.6940   34.2080 C   0  0  0  0  0  0  0  0  0  0  0  0
   35.4640   29.9330   33.9990 C   0  0  0  0  0  0  0  0  0  0  0  0
   35.4170   30.4130   32.7190 N   0  0  0  0  0  0  0  0  0  0  0  0
   35.9400   29.7420   31.6860 C   0  0  0  0  0  0  0  0  0  0  0  0
   36.5480   28.5500   31.8330 N   0  0  0  0  0  0  0  0  0  0  0  0
   35.7910   30.4000   30.4390 N   0  0  0  0  0  0  0  0  0  0  0  0
   37.1110   27.0720   33.2090 H   0  0  0  0  0  0  0  0  0  0  0  0
   36.1610   28.2590   35.1910 H   0  0  0  0  0  0  0  0  0  0  0  0
   35.8170   31.4380   30.3310 H   0  0  0  0  0  0  0  0  0  0  0  0
   35.6490   29.8150   29.5840 H   0  0  0  0  0  0  0  0  0  0  0  0
   32.6000   29.3800   34.4030 Cl  0  0  0  0  0  0  0  0  0  0  0  0
   33.5480   30.4980   35.3830 C   0  0  0  0  0  0  0  0  0  0  0  0
   34.8870   30.6830   35.1070 C   0  0  0  0  0  0  0  0  0  0  0  0
   35.5510   31.5570   35.9000 C   0  0  0  0  0  0  0  0  0  0  0  0
   36.5890   31.7350   35.7270 H   0  0  0  0  0  0  0  0  0  0  0  0
   34.9390   32.2450   36.9470 C   0  0  0  0  0  0  0  0  0  0  0  0
   35.5300   32.9360   37.5530 H   0  0  0  0  0  0  0  0  0  0  0  0
   33.5930   32.0270   37.1890 C   0  0  0  0  0  3  0  0  0  0  0  0
   32.8920   31.1480   36.4010 C   0  0  0  0  0  3  0  0  0  0  0  0
  1  8  1  0  0  0  0
  1  2  1  0  0  0  0
  2  9  1  0  0  0  0
  3  2  2  0  0  0  0
  3 14  1  0  0  0  0
  4  3  1  0  0  0  0
  5  6  1  0  0  0  0
  5  4  2  0  0  0  0
  6  1  2  0  0  0  0
  7  5  1  0  0  0  0
 10  7  1  0  0  0  0
 11  7  1  0  0  0  0
 12 13  1  0  0  0  0
 13 20  1  0  0  0  0
 14 13  2  0  0  0  0
 14 15  1  0  0  0  0
 15 17  2  0  0  0  0
 16 15  1  0  0  0  0
 17 19  1  0  0  0  0
 17 18  1  0  0  0  0
 20 19  2  0  0  0  0
M  END
>  <minimizedAffinity>
-4.44886017

$$$$

 OpenBabel03272501503D

 20 21  0  0  0  0  0  0  0  0999 V2000
   37.4790   27.7710   34.8660 C   0  0  0  0  0  0  0  0  0  0  0  0
   38.1350   26.8570   35.7240 C   0  0  0  0  0  0  0  0  0  0  0  0
   38.2150   25.5160   35.3170 C   0  0  0  0  0  0  0  0  0  0  0  0
   37.6510   25.1810   34.1170 N   0  0  0  0  0  0  0  0  0  0  0  0
   37.0400   26.0820   33.3400 C   0  0  0  0  0  0  0  0  0  0  0  0
   36.9370   27.3800   33.6830 N   0  0  0  0  0  0  0  0  0  0  0  0
   36.5200   25.5450   32.1360 N   0  0  0  0  0  0  0  0  0  0  0  0
   37.4000   28.8070   35.1480 H   0  0  0  0  0  0  0  0  0  0  0  0
   38.5570   27.1880   36.6580 H   0  0  0  0  0  0  0  0  0  0  0  0
   36.1280   24.5800   32.0600 H   0  0  0  0  0  0  0  0  0  0  0  0
   36.5290   26.1450   31.2800 H   0  0  0  0  0  0  0  0  0  0  0  0
   40.8130   24.6480   34.2350 Cl  0  0  0  0  0  0  0  0  0  0  0  0
   40.1010   24.0390   35.7290 C   0  0  0  0  0  0  0  0  0  0  0  0
   38.8750   24.5150   36.1460 C   0  0  0  0  0  0  0  0  0  0  0  0
   38.3900   24.0020   37.3010 C   0  0  0  0  0  0  0  0  0  0  0  0
   37.4460   24.3380   37.6660 H   0  0  0  0  0  0  0  0  0  0  0  0
   39.0730   23.0430   38.0490 C   0  0  0  0  0  0  0  0  0  0  0  0
   38.6290   22.6690   38.9750 H   0  0  0  0  0  0  0  0  0  0  0  0
   40.3010   22.5950   37.5930 C   0  0  0  0  0  3  0  0  0  0  0  0
   40.8190   23.0950   36.4240 C   0  0  0  0  0  3  0  0  0  0  0  0
  1  8  1  0  0  0  0
  1  2  1  0  0  0  0
  2  9  1  0  0  0  0
  3  2  2  0  0  0  0
  3 14  1  0  0  0  0
  4  3  1  0  0  0  0
  5  6  1  0  0  0  0
  5  4  2  0  0  0  0
  6  1  2  0  0  0  0
  7  5  1  0  0  0  0
 10  7  1  0  0  0  0
 11  7  1  0  0  0  0
 12 13  1  0  0  0  0
 13 14  2  0  0  0  0
 13 20  1  0  0  0  0
 14 15  1  0  0  0  0
 15 16  1  0  0  0  0
 15 17  2  0  0  0  0
 17 18  1  0  0  0  0
 19 17  1  0  0  0  0
 20 19  2  0  0  0  0
M  END
>  <minimizedAffinity>
-4.32254457

$$$$

 OpenBabel03272501503D

 20 21  0  0  0  0  0  0  0  0999 V2000
   40.6360   26.4140   33.6190 C   0  0  0  0  0  0  0  0  0  0  0  0
   39.6130   25.9200   32.7760 C   0  0  0  0  0  0  0  0  0  0  0  0
   38.2860   26.0210   33.2230 C   0  0  0  0  0  0  0  0  0  0  0  0
   38.0700   26.5910   34.4470 N   0  0  0  0  0  0  0  0  0  0  0  0
   39.0720   27.0440   35.2100 C   0  0  0  0  0  0  0  0  0  0  0  0
   40.3610   26.9710   34.8260 N   0  0  0  0  0  0  0  0  0  0  0  0
   38.6500   27.6020   36.4430 N   0  0  0  0  0  0  0  0  0  0  0  0
   41.6640   26.3520   33.3050 H   0  0  0  0  0  0  0  0  0  0  0  0
   39.8530   25.4810   31.8220 H   0  0  0  0  0  0  0  0  0  0  0  0
   37.8300   27.2460   36.9820 H   0  0  0  0  0  0  0  0  0  0  0  0
   39.1870   28.4100   36.8310 H   0  0  0  0  0  0  0  0  0  0  0  0
   36.8260   28.1770   31.8480 Cl  0  0  0  0  0  0  0  0  0  0  0  0
   36.4250   26.4640   31.7230 C   0  0  0  0  0  0  0  0  0  0  0  0
   37.1780   25.5350   32.4120 C   0  0  0  0  0  0  0  0  0  0  0  0
   36.8120   24.2380   32.2700 C   0  0  0  0  0  0  0  0  0  0  0  0
   37.3630   23.4810   32.7820 H   0  0  0  0  0  0  0  0  0  0  0  0
   35.7380   23.8380   31.4760 C   0  0  0  0  0  0  0  0  0  0  0  0
   35.4930   22.7750   31.4010 H   0  0  0  0  0  0  0  0  0  0  0  0
   35.0120   24.8050   30.8020 C   0  0  0  0  0  3  0  0  0  0  0  0
   35.3570   26.1280   30.9280 C   0  0  0  0  0  3  0  0  0  0  0  0
  1  6  1  0  0  0  0
  2  3  1  0  0  0  0
  2  1  2  0  0  0  0
  3  4  2  0  0  0  0
  4  5  1  0  0  0  0
  5  7  1  0  0  0  0
  6  5  2  0  0  0  0
  7 11  1  0  0  0  0
  7 10  1  0  0  0  0
  8  1  1  0  0  0  0
  9  2  1  0  0  0  0
 13 12  1  0  0  0  0
 13 14  1  0  0  0  0
 14  3  1  0  0  0  0
 15 14  2  0  0  0  0
 15 16  1  0  0  0  0
 17 15  1  0  0  0  0
 18 17  1  0  0  0  0
 19 20  1  0  0  0  0
 19 17  2  0  0  0  0
 20 13  2  0  0  0  0
M  END
>  <minimizedAffinity>
-4.29511118

$$$$

 OpenBabel03272501503D

 20 21  0  0  0  0  0  0  0  0999 V2000
   36.4740   28.4740   32.9820 C   0  0  0  0  0  0  0  0  0  0  0  0
   35.7560   28.8880   34.1290 C   0  0  0  0  0  0  0  0  0  0  0  0
   34.9010   29.9940   34.0040 C   0  0  0  0  0  0  0  0  0  0  0  0
   34.8210   30.6000   32.7810 N   0  0  0  0  0  0  0  0  0  0  0  0
   35.5210   30.1710   31.7250 C   0  0  0  0  0  0  0  0  0  0  0  0
   36.3530   29.1150   31.7910 N   0  0  0  0  0  0  0  0  0  0  0  0
   35.3040   30.9260   30.5450 N   0  0  0  0  0  0  0  0  0  0  0  0
   37.1380   27.6280   33.0440 H   0  0  0  0  0  0  0  0  0  0  0  0
   35.8670   28.3650   35.0640 H   0  0  0  0  0  0  0  0  0  0  0  0
   35.1220   31.9540   30.5470 H   0  0  0  0  0  0  0  0  0  0  0  0
   35.3280   30.4280   29.6260 H   0  0  0  0  0  0  0  0  0  0  0  0
   36.3330   32.0130   35.5990 Cl  0  0  0  0  0  0  0  0  0  0  0  0
   34.7070   31.4320   35.9540 C   0  0  0  0  0  0  0  0  0  0  0  0
   34.1270   30.4820   35.1390 C   0  0  0  0  0  0  0  0  0  0  0  0
   32.8770   30.0820   35.4720 C   0  0  0  0  0  0  0  0  0  0  0  0
   32.3860   29.3490   34.8720 H   0  0  0  0  0  0  0  0  0  0  0  0
   32.1900   30.5890   36.5740 C   0  0  0  0  0  0  0  0  0  0  0  0
   31.1810   30.2270   36.7900 H   0  0  0  0  0  0  0  0  0  0  0  0
   32.8090   31.5420   37.3640 C   0  0  0  0  0  3  0  0  0  0  0  0
   34.0770   31.9670   37.0520 C   0  0  0  0  0  3  0  0  0  0  0  0
  1  8  1  0  0  0  0
  1  2  1  0  0  0  0
  2  9  1  0  0  0  0
  3  2  2  0  0  0  0
  3 14  1  0  0  0  0
  4  3  1  0  0  0  0
  5  6  1  0  0  0  0
  5  4  2  0  0  0  0
  6  1  2  0  0  0  0
  7 10  1  0  0  0  0
  7  5  1  0  0  0  0
 11  7  1  0  0  0  0
 12 13  1  0  0  0  0
 13 20  1  0  0  0  0
 14 15  1  0  0  0  0
 14 13  2  0  0  0  0
 15 17  2  0  0  0  0
 16 15  1  0  0  0  0
 17 18  1  0  0  0  0
 17 19  1  0  0  0  0
 20 19  2  0  0  0  0
M  END
>  <minimizedAffinity>
-4.29389668

$$$$

 OpenBabel03272501503D

 20 21  0  0  0  0  0  0  0  0999 V2000
   37.7250   27.5140   35.1100 C   0  0  0  0  0  0  0  0  0  0  0  0
   38.5860   26.6080   35.7740 C   0  0  0  0  0  0  0  0  0  0  0  0
   38.7540   25.3320   35.2150 C   0  0  0  0  0  0  0  0  0  0  0  0
   38.0720   25.0480   34.0640 N   0  0  0  0  0  0  0  0  0  0  0  0
   37.2670   25.9380   33.4730 C   0  0  0  0  0  0  0  0  0  0  0  0
   37.0730   27.1750   33.9680 N   0  0  0  0  0  0  0  0  0  0  0  0
   36.6490   25.4590   32.2910 N   0  0  0  0  0  0  0  0  0  0  0  0
   37.5740   28.5010   35.5130 H   0  0  0  0  0  0  0  0  0  0  0  0
   39.0930   26.8970   36.6790 H   0  0  0  0  0  0  0  0  0  0  0  0
   36.3570   24.4660   32.1580 H   0  0  0  0  0  0  0  0  0  0  0  0
   36.4780   26.1360   31.5120 H   0  0  0  0  0  0  0  0  0  0  0  0
   37.4460   23.8560   37.4010 Cl  0  0  0  0  0  0  0  0  0  0  0  0
   39.1090   23.5940   36.8770 C   0  0  0  0  0  0  0  0  0  0  0  0
   39.6240   24.3440   35.8390 C   0  0  0  0  0  0  0  0  0  0  0  0
   40.9080   24.0890   35.4910 C   0  0  0  0  0  0  0  0  0  0  0  0
   41.3520   24.6420   34.6940 H   0  0  0  0  0  0  0  0  0  0  0  0
   41.6890   23.1270   36.1310 C   0  0  0  0  0  0  0  0  0  0  0  0
   42.7190   22.9680   35.8030 H   0  0  0  0  0  0  0  0  0  0  0  0
   41.1300   22.3980   37.1660 C   0  0  0  0  0  3  0  0  0  0  0  0
   39.8310   22.6340   37.5430 C   0  0  0  0  0  3  0  0  0  0  0  0
  1  8  1  0  0  0  0
  1  2  1  0  0  0  0
  2  9  1  0  0  0  0
  3  2  2  0  0  0  0
  3 14  1  0  0  0  0
  4  3  1  0  0  0  0
  5  6  1  0  0  0  0
  5  4  2  0  0  0  0
  6  1  2  0  0  0  0
  7  5  1  0  0  0  0
 10  7  1  0  0  0  0
 11  7  1  0  0  0  0
 13 12  1  0  0  0  0
 13 20  1  0  0  0  0
 14 13  2  0  0  0  0
 15 14  1  0  0  0  0
 15 17  2  0  0  0  0
 16 15  1  0  0  0  0
 17 19  1  0  0  0  0
 18 17  1  0  0  0  0
 19 20  2  0  0  0  0
M  END
>  <minimizedAffinity>
-4.29276752

$$$$
