
 OpenBabel03272509133D

 40 43  0  0  1  0  0  0  0  0999 V2000
   37.1750   31.7740   48.2040 N   0  0  0  0  0  0  0  0  0  0  0  0
   38.2830   32.7090   48.5340 C   0  0  0  0  0  0  0  0  0  0  0  0
   38.8890   32.0260   49.7560 C   0  0  0  0  0  0  0  0  0  0  0  0
   37.6950   31.4370   50.4650 C   0  0  0  0  0  0  0  0  0  0  0  0
   36.5370   31.6210   49.5020 C   0  0  2  0  0  0  0  0  0  0  0  0
   37.8510   33.6940   48.7770 H   0  0  0  0  0  0  0  0  0  0  0  0
   39.0140   32.7420   47.7090 H   0  0  0  0  0  0  0  0  0  0  0  0
   39.5770   31.2430   49.4040 H   0  0  0  0  0  0  0  0  0  0  0  0
   39.3810   32.7800   50.4010 H   0  0  0  0  0  0  0  0  0  0  0  0
   37.8480   30.3440   50.5820 H   0  0  0  0  0  0  0  0  0  0  0  0
   37.5050   31.9490   51.4340 H   0  0  0  0  0  0  0  0  0  0  0  0
   36.0520   32.5830   49.7250 H   0  0  0  0  0  0  0  0  0  0  0  0
   37.9450   29.0530   49.8270 Cl  0  0  0  0  0  0  0  0  0  0  0  0
   36.1860   29.2180   49.7350 C   0  0  0  0  0  0  0  0  0  0  0  0
   35.5950   30.4810   49.5890 C   0  0  0  0  0  0  0  0  0  0  0  0
   34.2220   30.4850   49.5280 C   0  0  0  0  0  0  0  0  0  0  0  0
   33.7750   31.4510   49.4080 H   0  0  0  0  0  0  0  0  0  0  0  0
   33.5100   29.3060   49.6090 C   0  0  0  0  0  0  0  0  0  0  0  0
   32.4370   29.4360   49.5500 H   0  0  0  0  0  0  0  0  0  0  0  0
   34.1120   28.0720   49.7540 C   0  0  0  0  0  3  0  0  0  0  0  0
   35.4900   28.0420   49.8170 C   0  0  0  0  0  3  0  0  0  0  0  0
   35.3940   30.5350   47.1890 C   0  0  0  0  0  0  0  0  0  0  0  0
   36.6990   31.1010   47.0490 C   0  0  0  0  0  0  0  0  0  0  0  0
   37.3550   30.9090   45.8320 C   0  0  0  0  0  0  0  0  0  0  0  0
   36.7380   30.2020   44.8450 N   0  0  0  0  0  0  0  0  0  0  0  0
   35.5030   29.6840   45.0270 C   0  0  0  0  0  0  0  0  0  0  0  0
   34.8420   29.8460   46.1770 N   0  0  0  0  0  0  0  0  0  0  0  0
   34.8140   30.6400   48.0930 H   0  0  0  0  0  0  0  0  0  0  0  0
   35.0880   29.1340   44.1930 H   0  0  0  0  0  0  0  0  0  0  0  0
   38.6630   31.4520   45.5850 C   0  0  0  0  0  0  0  0  0  0  0  0
   38.7790   32.7090   45.0400 C   0  0  0  0  0  0  0  0  0  0  0  0
   39.9960   33.3090   44.7730 C   0  0  0  0  0  0  0  0  0  0  0  0
   41.1320   32.5780   45.0810 C   0  0  0  0  0  0  0  0  0  0  0  0
   41.0940   31.3050   45.6320 C   0  0  0  0  0  0  0  0  0  0  0  0
   39.8200   30.7720   45.8720 C   0  0  0  0  0  0  0  0  0  0  0  0
   37.8910   33.2550   44.8110 H   0  0  0  0  0  0  0  0  0  0  0  0
   40.0470   34.3030   44.3420 H   0  0  0  0  0  0  0  0  0  0  0  0
   42.0770   33.0580   44.8660 H   0  0  0  0  0  0  0  0  0  0  0  0
   42.0050   30.7810   45.8520 H   0  0  0  0  0  0  0  0  0  0  0  0
   39.7440   29.7670   46.3080 H   0  0  0  0  0  0  0  0  0  0  0  0
  1  2  1  0  0  0  0
  1  5  1  0  0  0  0
  2  6  1  0  0  0  0
  2  3  1  0  0  0  0
  3  9  1  0  0  0  0
  3  4  1  0  0  0  0
  4 10  1  0  0  0  0
  4 11  1  0  0  0  0
  5 15  1  0  0  0  0
  5 12  1  1  0  0  0
  5  4  1  0  0  0  0
  7  2  1  0  0  0  0
  8  3  1  0  0  0  0
 14 21  1  0  0  0  0
 14 13  1  0  0  0  0
 15 14  2  0  0  0  0
 16 15  1  0  0  0  0
 16 18  2  0  0  0  0
 17 16  1  0  0  0  0
 18 20  1  0  0  0  0
 19 18  1  0  0  0  0
 20 21  2  0  0  0  0
 22 28  1  0  0  0  0
 23 22  1  0  0  0  0
 23  1  1  0  0  0  0
 24 23  2  0  0  0  0
 25 26  2  0  0  0  0
 25 24  1  0  0  0  0
 26 27  1  0  0  0  0
 27 22  2  0  0  0  0
 29 26  1  0  0  0  0
 30 24  1  0  0  0  0
 30 35  1  0  0  0  0
 31 30  2  0  0  0  0
 32 31  1  0  0  0  0
 32 33  2  0  0  0  0
 33 34  1  0  0  0  0
 34 39  1  0  0  0  0
 34 35  2  0  0  0  0
 35 40  1  0  0  0  0
 36 31  1  0  0  0  0
 37 32  1  0  0  0  0
 38 33  1  0  0  0  0
M  END
>  <minimizedAffinity>
-5.40834951

>  <minimizedRMSD>
1.2923156

$$$$
