
 OpenBabel03272509133D

 40 43  0  0  1  0  0  0  0  0999 V2000
   35.9150   30.5950   47.8570 N   0  0  0  0  0  0  0  0  0  0  0  0
   37.0130   31.3140   48.5550 C   0  0  0  0  0  0  0  0  0  0  0  0
   37.7640   30.1520   49.1960 C   0  0  0  0  0  0  0  0  0  0  0  0
   36.6710   29.1810   49.5670 C   0  0  0  0  0  0  0  0  0  0  0  0
   35.4160   29.7370   48.9200 C   0  0  2  0  0  0  0  0  0  0  0  0
   36.5680   31.9900   49.3060 H   0  0  0  0  0  0  0  0  0  0  0  0
   37.6550   31.8340   47.8250 H   0  0  0  0  0  0  0  0  0  0  0  0
   38.4430   29.7280   48.4420 H   0  0  0  0  0  0  0  0  0  0  0  0
   38.2880   30.5010   50.1080 H   0  0  0  0  0  0  0  0  0  0  0  0
   36.8780   28.2030   49.0830 H   0  0  0  0  0  0  0  0  0  0  0  0
   36.5590   29.0970   50.6700 H   0  0  0  0  0  0  0  0  0  0  0  0
   34.9180   30.3980   49.6450 H   0  0  0  0  0  0  0  0  0  0  0  0
   32.9330   29.5820   50.4990 Cl  0  0  0  0  0  0  0  0  0  0  0  0
   33.3330   28.4920   49.1640 C   0  0  0  0  0  0  0  0  0  0  0  0
   34.5340   28.6420   48.4570 C   0  0  0  0  0  0  0  0  0  0  0  0
   34.7360   27.7370   47.4410 C   0  0  0  0  0  0  0  0  0  0  0  0
   35.6580   27.8490   46.9090 H   0  0  0  0  0  0  0  0  0  0  0  0
   33.7960   26.7650   47.1670 C   0  0  0  0  0  0  0  0  0  0  0  0
   34.0670   26.1130   46.3460 H   0  0  0  0  0  0  0  0  0  0  0  0
   32.6180   26.6350   47.8760 C   0  0  0  0  0  3  0  0  0  0  0  0
   32.3940   27.5310   48.9000 C   0  0  0  0  0  3  0  0  0  0  0  0
   33.9440   30.3420   46.5190 C   0  0  0  0  0  0  0  0  0  0  0  0
   35.3520   30.5810   46.5540 C   0  0  0  0  0  0  0  0  0  0  0  0
   36.0070   30.7410   45.3320 C   0  0  0  0  0  0  0  0  0  0  0  0
   35.2910   30.6620   44.1760 N   0  0  0  0  0  0  0  0  0  0  0  0
   33.9590   30.4320   44.1960 C   0  0  0  0  0  0  0  0  0  0  0  0
   33.2960   30.2750   45.3450 N   0  0  0  0  0  0  0  0  0  0  0  0
   33.3590   30.2130   47.4170 H   0  0  0  0  0  0  0  0  0  0  0  0
   33.4680   30.3830   43.2330 H   0  0  0  0  0  0  0  0  0  0  0  0
   37.4190   31.0000   45.2590 C   0  0  0  0  0  0  0  0  0  0  0  0
   37.8600   32.2990   45.1590 C   0  0  0  0  0  0  0  0  0  0  0  0
   39.1980   32.6400   45.0870 C   0  0  0  0  0  0  0  0  0  0  0  0
   40.1100   31.5970   45.1180 C   0  0  0  0  0  0  0  0  0  0  0  0
   39.7400   30.2630   45.2170 C   0  0  0  0  0  0  0  0  0  0  0  0
   38.3630   30.0060   45.2870 C   0  0  0  0  0  0  0  0  0  0  0  0
   37.1410   33.0880   45.1360 H   0  0  0  0  0  0  0  0  0  0  0  0
   39.5080   33.6770   45.0080 H   0  0  0  0  0  0  0  0  0  0  0  0
   41.1520   31.8780   45.0610 H   0  0  0  0  0  0  0  0  0  0  0  0
   40.4870   29.4930   45.2380 H   0  0  0  0  0  0  0  0  0  0  0  0
   38.0270   28.9640   45.3660 H   0  0  0  0  0  0  0  0  0  0  0  0
  1  2  1  0  0  0  0
  1  5  1  0  0  0  0
  2  3  1  0  0  0  0
  2  6  1  0  0  0  0
  3  4  1  0  0  0  0
  3  9  1  0  0  0  0
  4 11  1  0  0  0  0
  5  4  1  0  0  0  0
  5 12  1  1  0  0  0
  7  2  1  0  0  0  0
  8  3  1  0  0  0  0
 10  4  1  0  0  0  0
 14 13  1  0  0  0  0
 15  5  1  0  0  0  0
 15 14  2  0  0  0  0
 16 15  1  0  0  0  0
 17 16  1  0  0  0  0
 18 16  2  0  0  0  0
 18 20  1  0  0  0  0
 19 18  1  0  0  0  0
 20 21  2  0  0  0  0
 21 14  1  0  0  0  0
 22 23  1  0  0  0  0
 22 28  1  0  0  0  0
 23  1  1  0  0  0  0
 24 23  2  0  0  0  0
 25 26  2  0  0  0  0
 25 24  1  0  0  0  0
 26 27  1  0  0  0  0
 27 22  2  0  0  0  0
 29 26  1  0  0  0  0
 30 35  1  0  0  0  0
 30 24  1  0  0  0  0
 31 30  2  0  0  0  0
 32 33  2  0  0  0  0
 32 31  1  0  0  0  0
 33 34  1  0  0  0  0
 34 39  1  0  0  0  0
 34 35  2  0  0  0  0
 35 40  1  0  0  0  0
 36 31  1  0  0  0  0
 37 32  1  0  0  0  0
 38 33  1  0  0  0  0
M  END
>  <minimizedAffinity>
-4.45854235

>  <minimizedRMSD>
2.02094865

$$$$
