
 OpenBabel03272509543D

 43 46  0  0  0  0  0  0  0  0999 V2000
   34.0830   28.9250   48.3240 C   0  0  0  0  0  0  0  0  0  0  0  0
   34.6830   29.5570   47.6390 H   0  0  0  0  0  0  0  0  0  0  0  0
   33.4130   29.6340   48.8840 H   0  0  0  0  0  0  0  0  0  0  0  0
   33.2830   27.8610   47.6270 C   0  0  0  0  0  0  0  0  0  0  0  0
   33.3400   28.0990   46.5280 H   0  0  0  0  0  0  0  0  0  0  0  0
   33.6780   26.8450   47.7350 H   0  0  0  0  0  0  0  0  0  0  0  0
   31.8410   27.9290   47.9620 C   0  0  0  0  0  0  0  0  0  0  0  0
   31.4660   27.7890   49.2840 C   0  0  0  0  0  0  0  0  0  0  0  0
   30.1700   27.8350   49.7010 C   0  0  0  0  0  0  0  0  0  0  0  0
   29.2110   28.0240   48.7900 N   0  0  0  0  0  0  0  0  0  0  0  0
   29.5750   28.1610   47.4920 C   0  0  0  0  0  0  0  0  0  0  0  0
   30.8520   28.1210   47.0420 N   0  0  0  0  0  0  0  0  0  0  0  0
   32.2150   27.6320   50.0740 H   0  0  0  0  0  0  0  0  0  0  0  0
   29.8920   27.7250   50.7420 H   0  0  0  0  0  0  0  0  0  0  0  0
   28.3450   25.6330   46.3040 Cl  0  0  0  0  0  0  0  0  0  0  0  0
   27.8680   27.2760   45.9290 C   0  0  0  0  0  0  0  0  0  0  0  0
   28.4960   28.3660   46.5290 C   0  0  0  0  0  0  0  0  0  0  0  0
   28.0940   29.6460   46.2090 C   0  0  0  0  0  0  0  0  0  0  0  0
   28.5710   30.5040   46.6670 H   0  0  0  0  0  0  0  0  0  0  0  0
   27.0680   29.8670   45.2950 C   0  0  0  0  0  0  0  0  0  0  0  0
   26.7990   30.8950   45.0860 H   0  0  0  0  0  0  0  0  0  0  0  0
   26.4190   28.8190   44.6770 C   0  0  0  0  0  3  0  0  0  0  0  0
   26.8620   27.5800   45.0330 C   0  0  0  0  0  3  0  0  0  0  0  0
   35.0000   28.3300   49.2400 O   0  0  0  0  0  0  0  0  0  0  0  0
   37.2080   30.0860   51.4920 C   0  0  0  0  0  0  0  0  0  0  0  0
   37.9800   30.8160   50.5630 C   0  0  0  0  0  0  0  0  0  0  0  0
   37.6970   30.6630   49.2090 C   0  0  0  0  0  0  0  0  0  0  0  0
   36.6690   29.7950   48.9030 N   0  0  0  0  0  0  0  0  0  0  0  0
   35.9600   29.1220   49.7920 C   0  0  0  0  0  0  0  0  0  0  0  0
   36.2340   29.2700   51.1120 N   0  0  0  0  0  0  0  0  0  0  0  0
   37.5060   30.2740   52.5030 H   0  0  0  0  0  0  0  0  0  0  0  0
   38.7770   31.4920   50.7490 H   0  0  0  0  0  0  0  0  0  0  0  0
   38.8150   33.3280   49.1670 F   0  0  0  0  0  0  0  0  0  0  0  0
   38.8960   32.5620   48.0770 C   0  0  0  0  0  0  0  0  0  0  0  0
   38.3630   31.3120   48.1200 C   0  0  0  0  0  0  0  0  0  0  0  0
   38.5070   30.6150   46.9310 C   0  0  0  0  0  0  0  0  0  0  0  0
   39.1280   31.1320   45.8170 C   0  0  0  0  0  0  0  0  0  0  0  0
   39.6500   32.4020   45.8240 C   0  0  0  0  0  0  0  0  0  0  0  0
   39.5270   33.1310   46.9910 C   0  0  0  0  0  0  0  0  0  0  0  0
   38.1460   29.6050   46.7770 H   0  0  0  0  0  0  0  0  0  0  0  0
   39.2440   30.5940   44.8850 H   0  0  0  0  0  0  0  0  0  0  0  0
   40.1390   32.8370   44.9770 H   0  0  0  0  0  0  0  0  0  0  0  0
   39.9310   34.1330   47.0210 H   0  0  0  0  0  0  0  0  0  0  0  0
  1  3  1  0  0  0  0
  1 24  1  0  0  0  0
  2  1  1  0  0  0  0
  4  6  1  0  0  0  0
  4  7  1  0  0  0  0
  4  1  1  0  0  0  0
  5  4  1  0  0  0  0
  7  8  1  0  0  0  0
  8  9  2  0  0  0  0
  8 13  1  0  0  0  0
  9 14  1  0  0  0  0
 10  9  1  0  0  0  0
 11 10  2  0  0  0  0
 12 11  1  0  0  0  0
 12  7  2  0  0  0  0
 16 15  1  0  0  0  0
 16 17  1  0  0  0  0
 17 11  1  0  0  0  0
 18 17  2  0  0  0  0
 18 19  1  0  0  0  0
 20 18  1  0  0  0  0
 21 20  1  0  0  0  0
 22 23  1  0  0  0  0
 22 20  2  0  0  0  0
 23 16  2  0  0  0  0
 24 29  1  0  0  0  0
 25 31  1  0  0  0  0
 26 32  1  0  0  0  0
 26 25  2  0  0  0  0
 27 26  1  0  0  0  0
 28 27  2  0  0  0  0
 28 29  1  0  0  0  0
 29 30  2  0  0  0  0
 30 25  1  0  0  0  0
 34 35  1  0  0  0  0
 34 33  1  0  0  0  0
 35 27  1  0  0  0  0
 36 35  2  0  0  0  0
 37 38  2  0  0  0  0
 37 36  1  0  0  0  0
 38 39  1  0  0  0  0
 39 43  1  0  0  0  0
 39 34  2  0  0  0  0
 40 36  1  0  0  0  0
 41 37  1  0  0  0  0
 42 38  1  0  0  0  0
M  END
>  <minimizedAffinity>
-6.95680332

>  <minimizedRMSD>
1.27821255

$$$$
