
 OpenBabel03262522533D

 33 36  0  0  0  0  0  0  0  0999 V2000
   36.5820   28.0580   33.4930 C   0  0  0  0  0  0  0  0  0  0  0  0
   36.5580   28.4490   32.2080 C   0  0  0  0  0  0  0  0  0  0  0  0
   35.9200   29.6360   31.9300 C   0  0  0  0  0  0  0  0  0  0  0  0
   35.3320   30.3960   32.8960 N   0  0  0  0  0  0  0  0  0  0  0  0
   35.4120   29.9150   34.1580 C   0  0  0  0  0  0  0  0  0  0  0  0
   36.0180   28.7640   34.5010 N   0  0  0  0  0  0  0  0  0  0  0  0
   36.9970   27.9030   31.3980 H   0  0  0  0  0  0  0  0  0  0  0  0
   35.8400   30.0490   30.9220 H   0  0  0  0  0  0  0  0  0  0  0  0
   32.5380   29.3740   34.5950 Cl  0  0  0  0  0  0  0  0  0  0  0  0
   33.4480   30.5710   35.5300 C   0  0  0  0  0  0  0  0  0  0  0  0
   34.7880   30.7140   35.2120 C   0  0  0  0  0  0  0  0  0  0  0  0
   35.5360   31.6400   35.9210 C   0  0  0  0  0  0  0  0  0  0  0  0
   36.5900   31.7990   35.7190 H   0  0  0  0  0  0  0  0  0  0  0  0
   34.9350   32.4040   36.9280 C   0  0  0  0  0  0  0  0  0  0  0  0
   35.4770   33.1340   37.5040 H   0  0  0  0  0  0  0  0  0  0  0  0
   33.5980   32.2280   37.2130 C   0  0  0  0  0  3  0  0  0  0  0  0
   32.8480   31.3160   36.5190 C   0  0  0  0  0  3  0  0  0  0  0  0
   38.5480   24.8270   35.0170 C   0  0  0  0  0  0  0  0  0  0  0  0
   38.0180   24.6160   33.8140 C   0  0  0  0  0  0  0  0  0  0  0  0
   37.3260   25.6330   33.1890 C   0  0  0  0  0  0  0  0  0  0  0  0
   37.2390   26.8050   33.8760 C   0  0  0  0  0  0  0  0  0  0  0  0
   38.1480   26.4460   35.4110 S   0  0  0  0  0  0  0  0  0  0  0  0
   38.1370   23.6290   33.3290 H   0  0  0  0  0  0  0  0  0  0  0  0
   36.8600   25.5630   32.2150 H   0  0  0  0  0  0  0  0  0  0  0  0
   39.5650   22.8590   37.9090 C   0  0  0  0  0  0  0  0  0  0  0  0
   40.7110   22.1980   37.4810 C   0  0  0  0  0  0  0  0  0  0  0  0
   41.1480   22.4410   36.1570 C   0  0  0  0  0  0  0  0  0  0  0  0
   40.4240   23.3010   35.3780 N   0  0  0  0  0  0  0  0  0  0  0  0
   39.3200   23.9040   35.8660 C   0  0  0  0  0  0  0  0  0  0  0  0
   38.8850   23.7000   37.1000 N   0  0  0  0  0  0  0  0  0  0  0  0
   39.1700   22.7250   38.9090 H   0  0  0  0  0  0  0  0  0  0  0  0
   41.2250   21.5420   38.1410 H   0  0  0  0  0  0  0  0  0  0  0  0
   42.0280   21.9470   35.7960 H   0  0  0  0  0  0  0  0  0  0  0  0
  1 21  1  0  0  0  0
  1  6  1  0  0  0  0
  2  1  2  0  0  0  0
  3  2  1  0  0  0  0
  3  4  2  0  0  0  0
  4  5  1  0  0  0  0
  5  6  2  0  0  0  0
  5 11  1  0  0  0  0
  7  2  1  0  0  0  0
  8  3  1  0  0  0  0
  9 10  1  0  0  0  0
 10 17  1  0  0  0  0
 11 10  2  0  0  0  0
 11 12  1  0  0  0  0
 12 14  2  0  0  0  0
 13 12  1  0  0  0  0
 14 16  1  0  0  0  0
 14 15  1  0  0  0  0
 17 16  2  0  0  0  0
 18 22  1  0  0  0  0
 18 29  1  0  0  0  0
 19 18  2  0  0  0  0
 20 19  1  0  0  0  0
 20 21  2  0  0  0  0
 21 22  1  0  0  0  0
 23 19  1  0  0  0  0
 24 20  1  0  0  0  0
 25 31  1  0  0  0  0
 26 25  1  0  0  0  0
 26 32  1  0  0  0  0
 27 26  2  0  0  0  0
 28 29  2  0  0  0  0
 28 27  1  0  0  0  0
 29 30  1  0  0  0  0
 30 25  2  0  0  0  0
 33 27  1  0  0  0  0
M  END
>  <minimizedAffinity>
-6.3878746

$$$$

 OpenBabel03262522533D

 33 36  0  0  0  0  0  0  0  0999 V2000
   36.4170   28.2070   33.5300 C   0  0  0  0  0  0  0  0  0  0  0  0
   36.5040   28.7120   32.2890 C   0  0  0  0  0  0  0  0  0  0  0  0
   35.7890   29.8590   32.0320 C   0  0  0  0  0  0  0  0  0  0  0  0
   35.0210   30.4710   32.9770 N   0  0  0  0  0  0  0  0  0  0  0  0
   35.0010   29.8840   34.1950 C   0  0  0  0  0  0  0  0  0  0  0  0
   35.6740   28.7630   34.5150 N   0  0  0  0  0  0  0  0  0  0  0  0
   37.0860   28.2840   31.4980 H   0  0  0  0  0  0  0  0  0  0  0  0
   35.7870   30.3560   31.0590 H   0  0  0  0  0  0  0  0  0  0  0  0
   36.3940   31.9540   35.7820 Cl  0  0  0  0  0  0  0  0  0  0  0  0
   34.7000   31.5110   36.0470 C   0  0  0  0  0  0  0  0  0  0  0  0
   34.1840   30.5230   35.2250 C   0  0  0  0  0  0  0  0  0  0  0  0
   32.8620   30.1480   35.4000 C   0  0  0  0  0  0  0  0  0  0  0  0
   32.3990   29.3810   34.7890 H   0  0  0  0  0  0  0  0  0  0  0  0
   32.0830   30.7620   36.3880 C   0  0  0  0  0  0  0  0  0  0  0  0
   31.0530   30.5020   36.5600 H   0  0  0  0  0  0  0  0  0  0  0  0
   32.6370   31.7420   37.1840 C   0  0  0  0  0  3  0  0  0  0  0  0
   33.9440   32.1220   37.0200 C   0  0  0  0  0  3  0  0  0  0  0  0
   38.5140   25.0380   35.0130 C   0  0  0  0  0  0  0  0  0  0  0  0
   38.1180   24.8790   33.7510 C   0  0  0  0  0  0  0  0  0  0  0  0
   37.3990   25.8810   33.1340 C   0  0  0  0  0  0  0  0  0  0  0  0
   37.1450   26.9860   33.8890 C   0  0  0  0  0  0  0  0  0  0  0  0
   37.9370   26.5840   35.4770 S   0  0  0  0  0  0  0  0  0  0  0  0
   38.3690   23.9460   33.2130 H   0  0  0  0  0  0  0  0  0  0  0  0
   37.0330   25.8500   32.1150 H   0  0  0  0  0  0  0  0  0  0  0  0
   39.4440   22.9620   37.8580 C   0  0  0  0  0  0  0  0  0  0  0  0
   40.6670   22.4140   37.4890 C   0  0  0  0  0  0  0  0  0  0  0  0
   41.1870   22.7720   36.2240 C   0  0  0  0  0  0  0  0  0  0  0  0
   40.4660   23.6290   35.4390 N   0  0  0  0  0  0  0  0  0  0  0  0
   39.2840   24.1190   35.8680 C   0  0  0  0  0  0  0  0  0  0  0  0
   38.7680   23.8050   37.0460 N   0  0  0  0  0  0  0  0  0  0  0  0
   38.9810   22.7360   38.8110 H   0  0  0  0  0  0  0  0  0  0  0  0
   41.1750   21.7540   38.1500 H   0  0  0  0  0  0  0  0  0  0  0  0
   42.1290   22.3660   35.9090 H   0  0  0  0  0  0  0  0  0  0  0  0
  1 21  1  0  0  0  0
  1  6  1  0  0  0  0
  2  1  2  0  0  0  0
  3  2  1  0  0  0  0
  3  4  2  0  0  0  0
  4  5  1  0  0  0  0
  5  6  2  0  0  0  0
  5 11  1  0  0  0  0
  7  2  1  0  0  0  0
  8  3  1  0  0  0  0
  9 10  1  0  0  0  0
 10 17  1  0  0  0  0
 11 12  1  0  0  0  0
 11 10  2  0  0  0  0
 12 14  2  0  0  0  0
 13 12  1  0  0  0  0
 14 15  1  0  0  0  0
 14 16  1  0  0  0  0
 17 16  2  0  0  0  0
 18 22  1  0  0  0  0
 18 29  1  0  0  0  0
 19 18  2  0  0  0  0
 20 19  1  0  0  0  0
 20 21  2  0  0  0  0
 21 22  1  0  0  0  0
 23 19  1  0  0  0  0
 24 20  1  0  0  0  0
 25 31  1  0  0  0  0
 26 25  1  0  0  0  0
 26 32  1  0  0  0  0
 27 26  2  0  0  0  0
 28 29  2  0  0  0  0
 28 27  1  0  0  0  0
 29 30  1  0  0  0  0
 30 25  2  0  0  0  0
 33 27  1  0  0  0  0
M  END
>  <minimizedAffinity>
-6.25863266

$$$$

 OpenBabel03262522533D

 33 36  0  0  0  0  0  0  0  0999 V2000
   36.1430   28.0710   32.1680 C   0  0  0  0  0  0  0  0  0  0  0  0
   36.2970   28.7650   31.0290 C   0  0  0  0  0  0  0  0  0  0  0  0
   35.9880   30.1050   31.0700 C   0  0  0  0  0  0  0  0  0  0  0  0
   35.5430   30.7210   32.2010 N   0  0  0  0  0  0  0  0  0  0  0  0
   35.4230   29.9340   33.2950 C   0  0  0  0  0  0  0  0  0  0  0  0
   35.7070   28.6190   33.3260 N   0  0  0  0  0  0  0  0  0  0  0  0
   36.6400   28.3470   30.1040 H   0  0  0  0  0  0  0  0  0  0  0  0
   36.0750   30.7640   30.2030 H   0  0  0  0  0  0  0  0  0  0  0  0
   32.5310   29.6160   33.8250 Cl  0  0  0  0  0  0  0  0  0  0  0  0
   33.6180   30.5090   34.9010 C   0  0  0  0  0  0  0  0  0  0  0  0
   34.9480   30.5730   34.5210 C   0  0  0  0  0  0  0  0  0  0  0  0
   35.8310   31.2620   35.3370 C   0  0  0  0  0  0  0  0  0  0  0  0
   36.8850   31.3490   35.0940 H   0  0  0  0  0  0  0  0  0  0  0  0
   35.3720   31.8740   36.5090 C   0  0  0  0  0  0  0  0  0  0  0  0
   36.0220   32.4190   37.1720 H   0  0  0  0  0  0  0  0  0  0  0  0
   34.0400   31.7840   36.8490 C   0  0  0  0  0  3  0  0  0  0  0  0
   33.1560   31.1050   36.0520 C   0  0  0  0  0  3  0  0  0  0  0  0
   36.5950   24.0250   31.9310 C   0  0  0  0  0  0  0  0  0  0  0  0
   37.4470   24.6130   32.7680 C   0  0  0  0  0  0  0  0  0  0  0  0
   37.3970   25.9810   32.9380 C   0  0  0  0  0  0  0  0  0  0  0  0
   36.4490   26.6380   32.2120 C   0  0  0  0  0  0  0  0  0  0  0  0
   35.6360   25.2940   31.2930 S   0  0  0  0  0  0  0  0  0  0  0  0
   38.1860   24.0000   33.3170 H   0  0  0  0  0  0  0  0  0  0  0  0
   38.0420   26.5530   33.5920 H   0  0  0  0  0  0  0  0  0  0  0  0
   37.3640   20.7270   30.5880 C   0  0  0  0  0  0  0  0  0  0  0  0
   36.2660   19.9530   30.9470 C   0  0  0  0  0  0  0  0  0  0  0  0
   35.2300   20.5870   31.6710 C   0  0  0  0  0  0  0  0  0  0  0  0
   35.3630   21.9130   31.9770 N   0  0  0  0  0  0  0  0  0  0  0  0
   36.4610   22.5970   31.5940 C   0  0  0  0  0  0  0  0  0  0  0  0
   37.4490   22.0350   30.9150 N   0  0  0  0  0  0  0  0  0  0  0  0
   38.1970   20.3130   30.0330 H   0  0  0  0  0  0  0  0  0  0  0  0
   36.2280   18.9250   30.6760 H   0  0  0  0  0  0  0  0  0  0  0  0
   34.3690   20.0170   31.9630 H   0  0  0  0  0  0  0  0  0  0  0  0
  1 21  1  0  0  0  0
  1  6  1  0  0  0  0
  2  3  1  0  0  0  0
  2  1  2  0  0  0  0
  3  4  2  0  0  0  0
  4  5  1  0  0  0  0
  5  6  2  0  0  0  0
  5 11  1  0  0  0  0
  7  2  1  0  0  0  0
  8  3  1  0  0  0  0
  9 10  1  0  0  0  0
 10 17  1  0  0  0  0
 11 10  2  0  0  0  0
 11 12  1  0  0  0  0
 12 14  2  0  0  0  0
 13 12  1  0  0  0  0
 14 16  1  0  0  0  0
 14 15  1  0  0  0  0
 17 16  2  0  0  0  0
 18 19  2  0  0  0  0
 19 20  1  0  0  0  0
 19 23  1  0  0  0  0
 20 24  1  0  0  0  0
 21 20  2  0  0  0  0
 22 18  1  0  0  0  0
 22 21  1  0  0  0  0
 25 30  2  0  0  0  0
 25 26  1  0  0  0  0
 26 27  2  0  0  0  0
 27 33  1  0  0  0  0
 27 28  1  0  0  0  0
 29 18  1  0  0  0  0
 29 28  2  0  0  0  0
 30 29  1  0  0  0  0
 31 25  1  0  0  0  0
 32 26  1  0  0  0  0
M  END
>  <minimizedAffinity>
-5.99653101

$$$$

 OpenBabel03262522533D

 33 36  0  0  0  0  0  0  0  0999 V2000
   35.9600   28.1430   31.7630 C   0  0  0  0  0  0  0  0  0  0  0  0
   36.4410   28.9100   30.7700 C   0  0  0  0  0  0  0  0  0  0  0  0
   36.4380   30.2700   30.9780 C   0  0  0  0  0  0  0  0  0  0  0  0
   35.9720   30.8350   32.1270 N   0  0  0  0  0  0  0  0  0  0  0  0
   35.5090   29.9770   33.0640 C   0  0  0  0  0  0  0  0  0  0  0  0
   35.4820   28.6380   32.9280 N   0  0  0  0  0  0  0  0  0  0  0  0
   36.8220   28.5350   29.8420 H   0  0  0  0  0  0  0  0  0  0  0  0
   36.8050   30.9870   30.2400 H   0  0  0  0  0  0  0  0  0  0  0  0
   32.5730   29.8620   33.3900 Cl  0  0  0  0  0  0  0  0  0  0  0  0
   33.6510   30.5800   34.5970 C   0  0  0  0  0  0  0  0  0  0  0  0
   35.0040   30.5610   34.3060 C   0  0  0  0  0  0  0  0  0  0  0  0
   35.8820   31.1120   35.2250 C   0  0  0  0  0  0  0  0  0  0  0  0
   36.9530   31.1280   35.0550 H   0  0  0  0  0  0  0  0  0  0  0  0
   35.3940   31.6710   36.4120 C   0  0  0  0  0  0  0  0  0  0  0  0
   36.0390   32.1110   37.1540 H   0  0  0  0  0  0  0  0  0  0  0  0
   34.0390   31.6680   36.6620 C   0  0  0  0  0  3  0  0  0  0  0  0
   33.1610   31.1250   35.7610 C   0  0  0  0  0  3  0  0  0  0  0  0
   36.3150   24.0810   31.6760 C   0  0  0  0  0  0  0  0  0  0  0  0
   35.2580   24.5430   31.0110 C   0  0  0  0  0  0  0  0  0  0  0  0
   35.0260   25.9020   30.9650 C   0  0  0  0  0  0  0  0  0  0  0  0
   35.9250   26.6840   31.6240 C   0  0  0  0  0  0  0  0  0  0  0  0
   37.0980   25.4700   32.3050 S   0  0  0  0  0  0  0  0  0  0  0  0
   34.5780   23.8340   30.5040 H   0  0  0  0  0  0  0  0  0  0  0  0
   34.1980   26.3770   30.4530 H   0  0  0  0  0  0  0  0  0  0  0  0
   38.2720   21.2230   32.8040 C   0  0  0  0  0  0  0  0  0  0  0  0
   37.6270   20.1290   32.2370 C   0  0  0  0  0  0  0  0  0  0  0  0
   36.4870   20.3840   31.4400 C   0  0  0  0  0  0  0  0  0  0  0  0
   36.0830   21.6800   31.2750 N   0  0  0  0  0  0  0  0  0  0  0  0
   36.7610   22.6890   31.8590 C   0  0  0  0  0  0  0  0  0  0  0  0
   37.8320   22.4850   32.6100 N   0  0  0  0  0  0  0  0  0  0  0  0
   39.1510   21.1070   33.4250 H   0  0  0  0  0  0  0  0  0  0  0  0
   37.9970   19.1460   32.4080 H   0  0  0  0  0  0  0  0  0  0  0  0
   35.9670   19.5620   30.9890 H   0  0  0  0  0  0  0  0  0  0  0  0
  1  6  1  0  0  0  0
  2  3  1  0  0  0  0
  2  1  2  0  0  0  0
  3  4  2  0  0  0  0
  4  5  1  0  0  0  0
  5 11  1  0  0  0  0
  6  5  2  0  0  0  0
  7  2  1  0  0  0  0
  8  3  1  0  0  0  0
  9 10  1  0  0  0  0
 10 17  1  0  0  0  0
 11 10  2  0  0  0  0
 11 12  1  0  0  0  0
 12 14  2  0  0  0  0
 13 12  1  0  0  0  0
 14 16  1  0  0  0  0
 14 15  1  0  0  0  0
 17 16  2  0  0  0  0
 18 29  1  0  0  0  0
 18 22  1  0  0  0  0
 19 18  2  0  0  0  0
 20 19  1  0  0  0  0
 20 21  2  0  0  0  0
 21  1  1  0  0  0  0
 21 22  1  0  0  0  0
 23 19  1  0  0  0  0
 24 20  1  0  0  0  0
 25 31  1  0  0  0  0
 26 32  1  0  0  0  0
 26 25  2  0  0  0  0
 27 26  1  0  0  0  0
 28 27  2  0  0  0  0
 28 29  1  0  0  0  0
 29 30  2  0  0  0  0
 30 25  1  0  0  0  0
 33 27  1  0  0  0  0
M  END
>  <minimizedAffinity>
-5.813694

$$$$

 OpenBabel03262522533D

 33 36  0  0  0  0  0  0  0  0999 V2000
   36.4920   28.3700   33.3750 C   0  0  0  0  0  0  0  0  0  0  0  0
   36.5270   28.9030   32.1430 C   0  0  0  0  0  0  0  0  0  0  0  0
   35.7760   30.0370   31.9350 C   0  0  0  0  0  0  0  0  0  0  0  0
   35.0240   30.6090   32.9170 N   0  0  0  0  0  0  0  0  0  0  0  0
   35.0570   29.9960   34.1220 C   0  0  0  0  0  0  0  0  0  0  0  0
   35.7670   28.8860   34.3950 N   0  0  0  0  0  0  0  0  0  0  0  0
   37.0930   28.5080   31.3250 H   0  0  0  0  0  0  0  0  0  0  0  0
   35.7300   30.5550   30.9740 H   0  0  0  0  0  0  0  0  0  0  0  0
   36.4230   32.1190   35.6600 Cl  0  0  0  0  0  0  0  0  0  0  0  0
   34.7650   31.5980   35.9970 C   0  0  0  0  0  0  0  0  0  0  0  0
   34.2580   30.5920   35.1920 C   0  0  0  0  0  0  0  0  0  0  0  0
   32.9630   30.1550   35.4220 C   0  0  0  0  0  0  0  0  0  0  0  0
   32.5100   29.3700   34.8260 H   0  0  0  0  0  0  0  0  0  0  0  0
   32.2020   30.7270   36.4480 C   0  0  0  0  0  0  0  0  0  0  0  0
   31.1930   30.4190   36.6620 H   0  0  0  0  0  0  0  0  0  0  0  0
   32.7450   31.7280   37.2250 C   0  0  0  0  0  3  0  0  0  0  0  0
   34.0250   32.1680   37.0070 C   0  0  0  0  0  3  0  0  0  0  0  0
   38.9160   25.3160   34.5710 C   0  0  0  0  0  0  0  0  0  0  0  0
   38.0050   24.9580   33.6690 C   0  0  0  0  0  0  0  0  0  0  0  0
   37.1230   25.9010   33.1840 C   0  0  0  0  0  0  0  0  0  0  0  0
   37.2610   27.1610   33.6830 C   0  0  0  0  0  0  0  0  0  0  0  0
   38.6530   26.9880   34.8430 S   0  0  0  0  0  0  0  0  0  0  0  0
   37.9630   23.9100   33.3200 H   0  0  0  0  0  0  0  0  0  0  0  0
   36.3480   25.7120   32.4520 H   0  0  0  0  0  0  0  0  0  0  0  0
   42.1940   24.0640   35.5520 C   0  0  0  0  0  0  0  0  0  0  0  0
   41.9070   23.0080   36.4110 C   0  0  0  0  0  0  0  0  0  0  0  0
   40.5450   22.7180   36.6560 C   0  0  0  0  0  0  0  0  0  0  0  0
   39.5930   23.4850   36.0440 N   0  0  0  0  0  0  0  0  0  0  0  0
   39.9510   24.4950   35.2240 C   0  0  0  0  0  0  0  0  0  0  0  0
   41.2160   24.7930   34.9710 N   0  0  0  0  0  0  0  0  0  0  0  0
   43.2120   24.3450   35.3150 H   0  0  0  0  0  0  0  0  0  0  0  0
   42.6990   22.4520   36.8530 H   0  0  0  0  0  0  0  0  0  0  0  0
   40.2900   21.9100   37.3140 H   0  0  0  0  0  0  0  0  0  0  0  0
  1 21  1  0  0  0  0
  1  6  1  0  0  0  0
  2  1  2  0  0  0  0
  3  2  1  0  0  0  0
  3  4  2  0  0  0  0
  4  5  1  0  0  0  0
  5  6  2  0  0  0  0
  5 11  1  0  0  0  0
  7  2  1  0  0  0  0
  8  3  1  0  0  0  0
  9 10  1  0  0  0  0
 10 17  1  0  0  0  0
 11 12  1  0  0  0  0
 11 10  2  0  0  0  0
 12 14  2  0  0  0  0
 13 12  1  0  0  0  0
 14 15  1  0  0  0  0
 14 16  1  0  0  0  0
 17 16  2  0  0  0  0
 18 22  1  0  0  0  0
 18 29  1  0  0  0  0
 19 18  2  0  0  0  0
 20 19  1  0  0  0  0
 20 21  2  0  0  0  0
 21 22  1  0  0  0  0
 23 19  1  0  0  0  0
 24 20  1  0  0  0  0
 25 26  1  0  0  0  0
 26 27  2  0  0  0  0
 26 32  1  0  0  0  0
 27 33  1  0  0  0  0
 28 27  1  0  0  0  0
 29 28  2  0  0  0  0
 30 29  1  0  0  0  0
 30 25  2  0  0  0  0
 31 25  1  0  0  0  0
M  END
>  <minimizedAffinity>
-5.80067682

$$$$

 OpenBabel03262522533D

 33 36  0  0  0  0  0  0  0  0999 V2000
   37.1290   26.5250   31.8180 C   0  0  0  0  0  0  0  0  0  0  0  0
   38.1640   26.6430   30.9690 C   0  0  0  0  0  0  0  0  0  0  0  0
   38.6990   25.4760   30.4740 C   0  0  0  0  0  0  0  0  0  0  0  0
   38.2200   24.2470   30.8150 N   0  0  0  0  0  0  0  0  0  0  0  0
   37.1760   24.2360   31.6750 C   0  0  0  0  0  0  0  0  0  0  0  0
   36.6050   25.3370   32.1980 N   0  0  0  0  0  0  0  0  0  0  0  0
   38.5920   27.5740   30.6580 H   0  0  0  0  0  0  0  0  0  0  0  0
   39.5410   25.4540   29.7780 H   0  0  0  0  0  0  0  0  0  0  0  0
   38.3170   23.1020   34.1560 Cl  0  0  0  0  0  0  0  0  0  0  0  0
   37.0840   22.2730   33.1940 C   0  0  0  0  0  0  0  0  0  0  0  0
   36.6440   22.9280   32.0560 C   0  0  0  0  0  0  0  0  0  0  0  0
   35.6790   22.3130   31.2750 C   0  0  0  0  0  0  0  0  0  0  0  0
   35.2940   22.7750   30.3720 H   0  0  0  0  0  0  0  0  0  0  0  0
   35.1740   21.0610   31.6420 C   0  0  0  0  0  0  0  0  0  0  0  0
   34.4240   20.5460   31.0660 H   0  0  0  0  0  0  0  0  0  0  0  0
   35.6390   20.4440   32.7830 C   0  0  0  0  0  3  0  0  0  0  0  0
   36.5930   21.0420   33.5640 C   0  0  0  0  0  3  0  0  0  0  0  0
   35.5080   29.6340   33.9000 C   0  0  0  0  0  0  0  0  0  0  0  0
   35.4010   29.7570   32.5790 C   0  0  0  0  0  0  0  0  0  0  0  0
   35.9110   28.7700   31.7610 C   0  0  0  0  0  0  0  0  0  0  0  0
   36.5000   27.7170   32.3930 C   0  0  0  0  0  0  0  0  0  0  0  0
   36.3210   28.1460   34.1520 S   0  0  0  0  0  0  0  0  0  0  0  0
   34.9060   30.6490   32.1510 H   0  0  0  0  0  0  0  0  0  0  0  0
   35.8750   28.7750   30.6790 H   0  0  0  0  0  0  0  0  0  0  0  0
   35.5410   32.2420   36.4440 C   0  0  0  0  0  0  0  0  0  0  0  0
   34.2350   32.2640   36.9190 C   0  0  0  0  0  0  0  0  0  0  0  0
   33.3170   31.3530   36.3480 C   0  0  0  0  0  0  0  0  0  0  0  0
   33.7590   30.5080   35.3680 N   0  0  0  0  0  0  0  0  0  0  0  0
   35.0440   30.5470   34.9590 C   0  0  0  0  0  0  0  0  0  0  0  0
   35.9290   31.3870   35.4720 N   0  0  0  0  0  0  0  0  0  0  0  0
   36.3010   32.9090   36.8320 H   0  0  0  0  0  0  0  0  0  0  0  0
   33.9590   32.9490   37.6850 H   0  0  0  0  0  0  0  0  0  0  0  0
   32.3010   31.3450   36.6930 H   0  0  0  0  0  0  0  0  0  0  0  0
  1  6  1  0  0  0  0
  1 21  1  0  0  0  0
  2  1  2  0  0  0  0
  3  4  2  0  0  0  0
  3  2  1  0  0  0  0
  4  5  1  0  0  0  0
  5 11  1  0  0  0  0
  5  6  2  0  0  0  0
  7  2  1  0  0  0  0
  8  3  1  0  0  0  0
 10 17  1  0  0  0  0
 10  9  1  0  0  0  0
 11 10  2  0  0  0  0
 12 14  2  0  0  0  0
 12 11  1  0  0  0  0
 13 12  1  0  0  0  0
 14 16  1  0  0  0  0
 15 14  1  0  0  0  0
 16 17  2  0  0  0  0
 18 22  1  0  0  0  0
 18 29  1  0  0  0  0
 19 18  2  0  0  0  0
 20 21  2  0  0  0  0
 20 19  1  0  0  0  0
 21 22  1  0  0  0  0
 23 19  1  0  0  0  0
 24 20  1  0  0  0  0
 25 31  1  0  0  0  0
 25 26  1  0  0  0  0
 26 32  1  0  0  0  0
 27 33  1  0  0  0  0
 27 26  2  0  0  0  0
 28 27  1  0  0  0  0
 29 28  2  0  0  0  0
 29 30  1  0  0  0  0
 30 25  2  0  0  0  0
M  END
>  <minimizedAffinity>
-5.66431665

$$$$

 OpenBabel03262522533D

 33 36  0  0  0  0  0  0  0  0999 V2000
   35.8470   28.7290   32.5050 C   0  0  0  0  0  0  0  0  0  0  0  0
   36.0660   29.5810   31.4900 C   0  0  0  0  0  0  0  0  0  0  0  0
   35.5860   30.8620   31.6380 C   0  0  0  0  0  0  0  0  0  0  0  0
   34.9180   31.2710   32.7530 N   0  0  0  0  0  0  0  0  0  0  0  0
   34.7510   30.3370   33.7190 C   0  0  0  0  0  0  0  0  0  0  0  0
   35.1920   29.0680   33.6390 N   0  0  0  0  0  0  0  0  0  0  0  0
   36.5810   29.3300   30.5850 H   0  0  0  0  0  0  0  0  0  0  0  0
   35.7070   31.6370   30.8770 H   0  0  0  0  0  0  0  0  0  0  0  0
   36.3860   31.8220   35.6840 Cl  0  0  0  0  0  0  0  0  0  0  0  0
   34.6720   31.4550   35.9340 C   0  0  0  0  0  0  0  0  0  0  0  0
   34.0370   30.7520   34.9250 C   0  0  0  0  0  0  0  0  0  0  0  0
   32.6950   30.4460   35.0820 C   0  0  0  0  0  0  0  0  0  0  0  0
   32.1410   29.8970   34.3280 H   0  0  0  0  0  0  0  0  0  0  0  0
   32.0150   30.8440   36.2390 C   0  0  0  0  0  0  0  0  0  0  0  0
   30.9730   30.6280   36.4030 H   0  0  0  0  0  0  0  0  0  0  0  0
   32.6860   31.5430   37.2190 C   0  0  0  0  0  3  0  0  0  0  0  0
   34.0130   31.8530   37.0750 C   0  0  0  0  0  3  0  0  0  0  0  0
   36.7640   24.7950   31.9460 C   0  0  0  0  0  0  0  0  0  0  0  0
   37.5810   25.4230   32.7890 C   0  0  0  0  0  0  0  0  0  0  0  0
   37.3770   26.7590   33.0630 C   0  0  0  0  0  0  0  0  0  0  0  0
   36.3230   27.3450   32.4290 C   0  0  0  0  0  0  0  0  0  0  0  0
   35.6310   25.9800   31.4450 S   0  0  0  0  0  0  0  0  0  0  0  0
   38.4140   24.8690   33.2600 H   0  0  0  0  0  0  0  0  0  0  0  0
   37.9820   27.3590   33.7310 H   0  0  0  0  0  0  0  0  0  0  0  0
   38.0150   21.5860   30.7590 C   0  0  0  0  0  0  0  0  0  0  0  0
   36.8790   20.7860   30.6930 C   0  0  0  0  0  0  0  0  0  0  0  0
   35.6470   21.3700   31.0670 C   0  0  0  0  0  0  0  0  0  0  0  0
   35.6390   22.6770   31.4700 N   0  0  0  0  0  0  0  0  0  0  0  0
   36.7840   23.3890   31.5080 C   0  0  0  0  0  0  0  0  0  0  0  0
   37.9540   22.8730   31.1650 N   0  0  0  0  0  0  0  0  0  0  0  0
   38.9940   21.2100   30.4890 H   0  0  0  0  0  0  0  0  0  0  0  0
   36.9580   19.7760   30.3700 H   0  0  0  0  0  0  0  0  0  0  0  0
   34.7520   20.7800   31.0270 H   0  0  0  0  0  0  0  0  0  0  0  0
  1  6  1  0  0  0  0
  2  3  1  0  0  0  0
  2  1  2  0  0  0  0
  3  4  2  0  0  0  0
  4  5  1  0  0  0  0
  5 11  1  0  0  0  0
  6  5  2  0  0  0  0
  7  2  1  0  0  0  0
  8  3  1  0  0  0  0
  9 10  1  0  0  0  0
 10 17  1  0  0  0  0
 11 12  1  0  0  0  0
 11 10  2  0  0  0  0
 12 14  2  0  0  0  0
 13 12  1  0  0  0  0
 14 15  1  0  0  0  0
 14 16  1  0  0  0  0
 17 16  2  0  0  0  0
 18 19  2  0  0  0  0
 19 20  1  0  0  0  0
 19 23  1  0  0  0  0
 20 24  1  0  0  0  0
 21  1  1  0  0  0  0
 21 20  2  0  0  0  0
 22 18  1  0  0  0  0
 22 21  1  0  0  0  0
 25 30  1  0  0  0  0
 26 25  2  0  0  0  0
 26 27  1  0  0  0  0
 27 28  2  0  0  0  0
 28 29  1  0  0  0  0
 29 18  1  0  0  0  0
 30 29  2  0  0  0  0
 31 25  1  0  0  0  0
 32 26  1  0  0  0  0
 33 27  1  0  0  0  0
M  END
>  <minimizedAffinity>
-5.65811443

$$$$

 OpenBabel03262522533D

 33 36  0  0  0  0  0  0  0  0999 V2000
   36.4770   28.0730   32.3510 C   0  0  0  0  0  0  0  0  0  0  0  0
   36.9980   28.4160   31.1610 C   0  0  0  0  0  0  0  0  0  0  0  0
   36.4260   29.4890   30.5180 C   0  0  0  0  0  0  0  0  0  0  0  0
   35.3780   30.1850   31.0420 N   0  0  0  0  0  0  0  0  0  0  0  0
   34.9270   29.7600   32.2450 C   0  0  0  0  0  0  0  0  0  0  0  0
   35.4390   28.7200   32.9290 N   0  0  0  0  0  0  0  0  0  0  0  0
   37.8180   27.9140   30.6890 H   0  0  0  0  0  0  0  0  0  0  0  0
   36.7680   29.8550   29.5470 H   0  0  0  0  0  0  0  0  0  0  0  0
   35.6880   31.9790   34.0440 Cl  0  0  0  0  0  0  0  0  0  0  0  0
   34.0060   31.5570   33.6900 C   0  0  0  0  0  0  0  0  0  0  0  0
   33.8040   30.4920   32.8280 C   0  0  0  0  0  0  0  0  0  0  0  0
   32.5020   30.1300   32.5250 C   0  0  0  0  0  0  0  0  0  0  0  0
   32.2790   29.3050   31.8570 H   0  0  0  0  0  0  0  0  0  0  0  0
   31.4300   30.8330   33.0860 C   0  0  0  0  0  0  0  0  0  0  0  0
   30.4020   30.5860   32.8790 H   0  0  0  0  0  0  0  0  0  0  0  0
   31.6750   31.8870   33.9390 C   0  0  0  0  0  3  0  0  0  0  0  0
   32.9590   32.2550   34.2460 C   0  0  0  0  0  3  0  0  0  0  0  0
   37.9400   25.2320   34.8850 C   0  0  0  0  0  0  0  0  0  0  0  0
   37.9230   24.8560   33.6080 C   0  0  0  0  0  0  0  0  0  0  0  0
   37.4510   25.7290   32.6500 C   0  0  0  0  0  0  0  0  0  0  0  0
   37.0260   26.9410   33.1040 C   0  0  0  0  0  0  0  0  0  0  0  0
   37.3070   26.8250   34.8980 S   0  0  0  0  0  0  0  0  0  0  0  0
   38.2870   23.8500   33.3280 H   0  0  0  0  0  0  0  0  0  0  0  0
   37.3950   25.5210   31.5890 H   0  0  0  0  0  0  0  0  0  0  0  0
   38.1500   24.0300   38.3180 C   0  0  0  0  0  0  0  0  0  0  0  0
   39.1940   23.1120   38.2900 C   0  0  0  0  0  0  0  0  0  0  0  0
   39.8460   22.9030   37.0520 C   0  0  0  0  0  0  0  0  0  0  0  0
   39.4170   23.6070   35.9610 N   0  0  0  0  0  0  0  0  0  0  0  0
   38.3950   24.4810   36.0680 C   0  0  0  0  0  0  0  0  0  0  0  0
   37.7630   24.7010   37.2110 N   0  0  0  0  0  0  0  0  0  0  0  0
   37.6030   24.2440   39.2280 H   0  0  0  0  0  0  0  0  0  0  0  0
   39.4760   22.5990   39.1780 H   0  0  0  0  0  0  0  0  0  0  0  0
   40.6550   22.2020   36.9960 H   0  0  0  0  0  0  0  0  0  0  0  0
  1  6  1  0  0  0  0
  1 21  1  0  0  0  0
  2  1  2  0  0  0  0
  3  4  2  0  0  0  0
  3  2  1  0  0  0  0
  4  5  1  0  0  0  0
  5 11  1  0  0  0  0
  5  6  2  0  0  0  0
  7  2  1  0  0  0  0
  8  3  1  0  0  0  0
 10  9  1  0  0  0  0
 10 17  1  0  0  0  0
 11 10  2  0  0  0  0
 12 11  1  0  0  0  0
 12 14  2  0  0  0  0
 13 12  1  0  0  0  0
 14 16  1  0  0  0  0
 15 14  1  0  0  0  0
 16 17  2  0  0  0  0
 18 22  1  0  0  0  0
 18 29  1  0  0  0  0
 19 18  2  0  0  0  0
 20 21  2  0  0  0  0
 20 19  1  0  0  0  0
 21 22  1  0  0  0  0
 23 19  1  0  0  0  0
 24 20  1  0  0  0  0
 25 31  1  0  0  0  0
 26 25  1  0  0  0  0
 26 32  1  0  0  0  0
 27 26  2  0  0  0  0
 28 29  2  0  0  0  0
 28 27  1  0  0  0  0
 29 30  1  0  0  0  0
 30 25  2  0  0  0  0
 33 27  1  0  0  0  0
M  END
>  <minimizedAffinity>
-5.52357531

$$$$

 OpenBabel03262522533D

 33 36  0  0  0  0  0  0  0  0999 V2000
   36.2060   27.4110   31.1320 C   0  0  0  0  0  0  0  0  0  0  0  0
   36.8180   28.2620   30.2920 C   0  0  0  0  0  0  0  0  0  0  0  0
   36.4600   29.5880   30.3800 C   0  0  0  0  0  0  0  0  0  0  0  0
   35.5310   30.0390   31.2690 N   0  0  0  0  0  0  0  0  0  0  0  0
   34.9740   29.1030   32.0700 C   0  0  0  0  0  0  0  0  0  0  0  0
   35.2750   27.7910   32.0380 N   0  0  0  0  0  0  0  0  0  0  0  0
   37.5550   27.9780   29.5690 H   0  0  0  0  0  0  0  0  0  0  0  0
   36.8930   30.3660   29.7470 H   0  0  0  0  0  0  0  0  0  0  0  0
   36.0230   29.6860   34.7720 Cl  0  0  0  0  0  0  0  0  0  0  0  0
   34.3170   29.8750   34.3370 C   0  0  0  0  0  0  0  0  0  0  0  0
   33.9740   29.5630   33.0320 C   0  0  0  0  0  0  0  0  0  0  0  0
   32.6490   29.6980   32.6520 C   0  0  0  0  0  0  0  0  0  0  0  0
   32.3170   29.4690   31.6440 H   0  0  0  0  0  0  0  0  0  0  0  0
   31.6950   30.1380   33.5760 C   0  0  0  0  0  0  0  0  0  0  0  0
   30.6540   30.2580   33.3240 H   0  0  0  0  0  0  0  0  0  0  0  0
   32.0800   30.4390   34.8640 C   0  0  0  0  0  3  0  0  0  0  0  0
   33.3870   30.3100   35.2530 C   0  0  0  0  0  3  0  0  0  0  0  0
   36.5730   23.3490   31.1530 C   0  0  0  0  0  0  0  0  0  0  0  0
   37.7180   23.9920   30.9290 C   0  0  0  0  0  0  0  0  0  0  0  0
   37.7270   25.3710   30.8970 C   0  0  0  0  0  0  0  0  0  0  0  0
   36.5270   25.9810   31.1040 C   0  0  0  0  0  0  0  0  0  0  0  0
   35.3930   24.5780   31.3440 S   0  0  0  0  0  0  0  0  0  0  0  0
   38.6470   23.4150   30.7690 H   0  0  0  0  0  0  0  0  0  0  0  0
   38.6010   25.9860   30.7230 H   0  0  0  0  0  0  0  0  0  0  0  0
   34.9630   20.1820   31.9570 C   0  0  0  0  0  0  0  0  0  0  0  0
   35.8060   19.2260   31.4030 C   0  0  0  0  0  0  0  0  0  0  0  0
   36.9650   19.6860   30.7350 C   0  0  0  0  0  0  0  0  0  0  0  0
   37.1890   21.0330   30.6700 N   0  0  0  0  0  0  0  0  0  0  0  0
   36.3220   21.9000   31.2320 C   0  0  0  0  0  0  0  0  0  0  0  0
   35.2290   21.5040   31.8650 N   0  0  0  0  0  0  0  0  0  0  0  0
   34.0570   19.9080   32.4840 H   0  0  0  0  0  0  0  0  0  0  0  0
   35.5700   18.1930   31.4930 H   0  0  0  0  0  0  0  0  0  0  0  0
   37.6360   18.9730   30.2970 H   0  0  0  0  0  0  0  0  0  0  0  0
  1  6  1  0  0  0  0
  2  3  1  0  0  0  0
  2  1  2  0  0  0  0
  3  4  2  0  0  0  0
  4  5  1  0  0  0  0
  5 11  1  0  0  0  0
  6  5  2  0  0  0  0
  7  2  1  0  0  0  0
  8  3  1  0  0  0  0
 10  9  1  0  0  0  0
 10 17  1  0  0  0  0
 11 10  2  0  0  0  0
 12 11  1  0  0  0  0
 12 14  2  0  0  0  0
 13 12  1  0  0  0  0
 14 16  1  0  0  0  0
 15 14  1  0  0  0  0
 16 17  2  0  0  0  0
 18 29  1  0  0  0  0
 18 22  1  0  0  0  0
 19 18  2  0  0  0  0
 20 19  1  0  0  0  0
 20 21  2  0  0  0  0
 21  1  1  0  0  0  0
 21 22  1  0  0  0  0
 23 19  1  0  0  0  0
 24 20  1  0  0  0  0
 25 31  1  0  0  0  0
 26 32  1  0  0  0  0
 26 25  2  0  0  0  0
 27 26  1  0  0  0  0
 28 27  2  0  0  0  0
 28 29  1  0  0  0  0
 29 30  2  0  0  0  0
 30 25  1  0  0  0  0
 33 27  1  0  0  0  0
M  END
>  <minimizedAffinity>
-5.46336985

$$$$
