
 OpenBabel03272510333D

 28 30  0  0  0  0  0  0  0  0999 V2000
   36.0390   30.1820   47.1800 C   0  0  0  0  0  0  0  0  0  0  0  0
   35.4250   30.1730   45.9590 C   0  0  0  0  0  0  0  0  0  0  0  0
   34.3390   29.3500   45.6980 C   0  0  0  0  0  0  0  0  0  0  0  0
   33.8840   28.5280   46.7110 C   0  0  0  0  0  0  0  0  0  0  0  0
   34.4860   28.5160   47.9610 C   0  0  0  0  0  0  0  0  0  0  0  0
   35.5670   29.3510   48.1820 C   0  0  0  0  0  0  0  0  0  0  0  0
   35.7800   30.8170   45.1590 H   0  0  0  0  0  0  0  0  0  0  0  0
   33.8900   29.3840   44.7110 H   0  0  0  0  0  0  0  0  0  0  0  0
   33.0340   27.9020   46.4650 H   0  0  0  0  0  0  0  0  0  0  0  0
   34.0870   27.8470   48.7260 H   0  0  0  0  0  0  0  0  0  0  0  0
   38.0900   32.8150   48.6220 C   0  0  0  0  0  0  0  0  0  0  0  0
   39.2350   32.8450   47.8280 C   0  0  0  0  0  0  0  0  0  0  0  0
   39.2920   31.9160   46.7540 C   0  0  0  0  0  0  0  0  0  0  0  0
   38.2480   31.0590   46.5580 N   0  0  0  0  0  0  0  0  0  0  0  0
   37.1670   31.0760   47.3590 C   0  0  0  0  0  0  0  0  0  0  0  0
   37.1000   31.9570   48.3850 N   0  0  0  0  0  0  0  0  0  0  0  0
   38.0800   33.5340   49.4290 H   0  0  0  0  0  0  0  0  0  0  0  0
   40.0710   33.4940   47.9450 H   0  0  0  0  0  0  0  0  0  0  0  0
   40.1250   31.8300   46.0560 H   0  0  0  0  0  0  0  0  0  0  0  0
   33.6500   29.7900   50.3800 Cl  0  0  0  0  0  0  0  0  0  0  0  0
   35.3860   29.5550   50.5700 C   0  0  0  0  0  0  0  0  0  0  0  0
   36.2170   29.3550   49.4880 C   0  0  0  0  0  0  0  0  0  0  0  0
   37.5850   29.1730   49.6670 C   0  0  0  0  0  0  0  0  0  0  0  0
   38.1760   29.0220   48.7850 H   0  0  0  0  0  0  0  0  0  0  0  0
   38.0740   29.1970   50.9460 C   0  0  0  0  0  0  0  0  0  0  0  0
   39.1290   29.0590   51.1180 H   0  0  0  0  0  0  0  0  0  0  0  0
   37.2820   29.3930   52.0340 C   0  0  0  0  0  3  0  0  0  0  0  0
   35.9180   29.5740   51.8460 C   0  0  0  0  0  3  0  0  0  0  0  0
  1 15  1  0  0  0  0
  1  6  1  0  0  0  0
  2  1  2  0  0  0  0
  3  2  1  0  0  0  0
  3  4  2  0  0  0  0
  4  5  1  0  0  0  0
  5  6  2  0  0  0  0
  5 10  1  0  0  0  0
  6 22  1  0  0  0  0
  7  2  1  0  0  0  0
  8  3  1  0  0  0  0
  9  4  1  0  0  0  0
 11 17  1  0  0  0  0
 12 18  1  0  0  0  0
 12 11  2  0  0  0  0
 13 12  1  0  0  0  0
 14 13  2  0  0  0  0
 14 15  1  0  0  0  0
 15 16  2  0  0  0  0
 16 11  1  0  0  0  0
 19 13  1  0  0  0  0
 20 21  1  0  0  0  0
 21 28  1  0  0  0  0
 22 23  1  0  0  0  0
 22 21  2  0  0  0  0
 23 25  2  0  0  0  0
 24 23  1  0  0  0  0
 25 26  1  0  0  0  0
 25 27  1  0  0  0  0
 28 27  2  0  0  0  0
M  END
>  <minimizedAffinity>
-4.84889174

>  <minimizedRMSD>
1.49410355

$$$$
