
 OpenBabel03262522103D

 29 31  0  0  0  0  0  0  0  0999 V2000
   37.6300   25.3680   32.6910 C   0  0  0  0  0  0  0  0  0  0  0  0
   38.3110   26.5270   32.3890 C   0  0  0  0  0  0  0  0  0  0  0  0
   39.1500   27.0960   33.3400 C   0  0  0  0  0  0  0  0  0  0  0  0
   39.2220   26.4050   34.5640 C   0  0  0  0  0  0  0  0  0  0  0  0
   38.5300   25.2550   34.8360 C   0  0  0  0  0  0  0  0  0  0  0  0
   37.7250   24.7330   33.8830 N   0  0  0  0  0  0  0  0  0  0  0  0
   38.2070   27.0040   31.4240 H   0  0  0  0  0  0  0  0  0  0  0  0
   39.6970   27.9900   33.1530 H   0  0  0  0  0  0  0  0  0  0  0  0
   39.8830   26.8800   35.2760 H   0  0  0  0  0  0  0  0  0  0  0  0
   40.5920   23.1540   34.9060 Cl  0  0  0  0  0  0  0  0  0  0  0  0
   39.5960   23.5750   36.2850 C   0  0  0  0  0  0  0  0  0  0  0  0
   38.6530   24.5900   36.1280 C   0  0  0  0  0  0  0  0  0  0  0  0
   37.9130   24.8710   37.2310 C   0  0  0  0  0  0  0  0  0  0  0  0
   37.1730   25.6330   37.1840 H   0  0  0  0  0  0  0  0  0  0  0  0
   38.1040   24.1780   38.4240 C   0  0  0  0  0  0  0  0  0  0  0  0
   37.4710   24.4590   39.2710 H   0  0  0  0  0  0  0  0  0  0  0  0
   39.0440   23.1860   38.5400 C   0  0  0  0  0  3  0  0  0  0  0  0
   39.8230   22.8630   37.4420 C   0  0  0  0  0  3  0  0  0  0  0  0
   36.7690   24.8170   31.6430 C   0  0  0  0  0  0  0  0  0  0  0  0
   36.0160   25.5220   30.9730 O   0  0  0  0  0  0  0  0  0  0  0  0
   35.5880   22.6390   31.5230 C   0  0  0  0  0  0  0  0  0  0  0  0
   36.7600   23.3760   31.3340 C   0  0  0  0  0  0  0  0  0  0  0  0
   37.8850   22.7090   30.8540 C   0  0  0  0  0  0  0  0  0  0  0  0
   37.8000   21.3720   30.5890 N   0  0  0  0  0  0  0  0  0  0  0  0
   36.6540   20.6870   30.7830 C   0  0  0  0  0  0  0  0  0  0  0  0
   35.5820   21.3060   31.2370 N   0  0  0  0  0  0  0  0  0  0  0  0
   34.7060   23.1430   31.8960 H   0  0  0  0  0  0  0  0  0  0  0  0
   38.7830   23.2640   30.7060 H   0  0  0  0  0  0  0  0  0  0  0  0
   36.5270   19.6420   30.5940 H   0  0  0  0  0  0  0  0  0  0  0  0
  1  6  1  0  0  0  0
  2  1  2  0  0  0  0
  2  3  1  0  0  0  0
  3  4  2  0  0  0  0
  4  5  1  0  0  0  0
  4  9  1  0  0  0  0
  5 12  1  0  0  0  0
  6  5  2  0  0  0  0
  7  2  1  0  0  0  0
  8  3  1  0  0  0  0
 10 11  1  0  0  0  0
 11 18  1  0  0  0  0
 12 11  2  0  0  0  0
 12 13  1  0  0  0  0
 13 15  2  0  0  0  0
 14 13  1  0  0  0  0
 15 17  1  0  0  0  0
 15 16  1  0  0  0  0
 18 17  2  0  0  0  0
 19  1  1  0  0  0  0
 20 19  2  0  0  0  0
 21 27  1  0  0  0  0
 22 21  1  0  0  0  0
 22 19  1  0  0  0  0
 23 22  2  0  0  0  0
 24 25  2  0  0  0  0
 24 23  1  0  0  0  0
 25 26  1  0  0  0  0
 26 21  2  0  0  0  0
 28 23  1  0  0  0  0
 29 25  1  0  0  0  0
M  END
>  <minimizedAffinity>
-5.48402023

$$$$

 OpenBabel03262522103D

 29 31  0  0  0  0  0  0  0  0999 V2000
   36.4910   28.3120   32.7920 C   0  0  0  0  0  0  0  0  0  0  0  0
   36.3470   28.8460   31.5310 C   0  0  0  0  0  0  0  0  0  0  0  0
   35.6710   30.0510   31.3690 C   0  0  0  0  0  0  0  0  0  0  0  0
   35.1820   30.6250   32.5570 C   0  0  0  0  0  0  0  0  0  0  0  0
   35.3390   30.0680   33.7990 C   0  0  0  0  0  0  0  0  0  0  0  0
   36.0040   28.8960   33.9130 N   0  0  0  0  0  0  0  0  0  0  0  0
   36.7510   28.3480   30.6600 H   0  0  0  0  0  0  0  0  0  0  0  0
   35.5350   30.5030   30.4150 H   0  0  0  0  0  0  0  0  0  0  0  0
   34.6620   31.5590   32.3890 H   0  0  0  0  0  0  0  0  0  0  0  0
   32.5420   29.3660   34.3880 Cl  0  0  0  0  0  0  0  0  0  0  0  0
   33.4880   30.4660   35.3710 C   0  0  0  0  0  0  0  0  0  0  0  0
   34.8050   30.7200   34.9890 C   0  0  0  0  0  0  0  0  0  0  0  0
   35.4860   31.5790   35.7900 C   0  0  0  0  0  0  0  0  0  0  0  0
   36.4960   31.8200   35.5580 H   0  0  0  0  0  0  0  0  0  0  0  0
   34.8870   32.1530   36.9080 C   0  0  0  0  0  0  0  0  0  0  0  0
   35.4980   32.8360   37.5060 H   0  0  0  0  0  0  0  0  0  0  0  0
   33.5880   31.8770   37.2520 C   0  0  0  0  0  3  0  0  0  0  0  0
   32.8520   31.0070   36.4670 C   0  0  0  0  0  3  0  0  0  0  0  0
   37.2190   27.0460   32.8930 C   0  0  0  0  0  0  0  0  0  0  0  0
   36.6900   25.9620   32.6520 O   0  0  0  0  0  0  0  0  0  0  0  0
   38.9690   26.8150   34.6350 C   0  0  0  0  0  0  0  0  0  0  0  0
   38.6380   27.0050   33.2910 C   0  0  0  0  0  0  0  0  0  0  0  0
   39.6750   27.1490   32.3720 C   0  0  0  0  0  0  0  0  0  0  0  0
   40.9660   27.0980   32.8160 N   0  0  0  0  0  0  0  0  0  0  0  0
   41.2550   26.9140   34.1210 C   0  0  0  0  0  0  0  0  0  0  0  0
   40.2830   26.7770   35.0010 N   0  0  0  0  0  0  0  0  0  0  0  0
   38.1750   26.7020   35.3600 H   0  0  0  0  0  0  0  0  0  0  0  0
   39.4300   27.2930   31.3440 H   0  0  0  0  0  0  0  0  0  0  0  0
   42.2430   26.8660   34.5280 H   0  0  0  0  0  0  0  0  0  0  0  0
  1 19  1  0  0  0  0
  1  6  1  0  0  0  0
  2  1  2  0  0  0  0
  3  2  1  0  0  0  0
  3  4  2  0  0  0  0
  4  5  1  0  0  0  0
  5  6  2  0  0  0  0
  5 12  1  0  0  0  0
  7  2  1  0  0  0  0
  8  3  1  0  0  0  0
  9  4  1  0  0  0  0
 10 11  1  0  0  0  0
 11 18  1  0  0  0  0
 12 11  2  0  0  0  0
 12 13  1  0  0  0  0
 13 15  2  0  0  0  0
 14 13  1  0  0  0  0
 15 17  1  0  0  0  0
 15 16  1  0  0  0  0
 18 17  2  0  0  0  0
 19 22  1  0  0  0  0
 20 19  2  0  0  0  0
 21 26  1  0  0  0  0
 21 27  1  0  0  0  0
 22 21  2  0  0  0  0
 23 24  2  0  0  0  0
 23 22  1  0  0  0  0
 24 25  1  0  0  0  0
 25 29  1  0  0  0  0
 25 26  2  0  0  0  0
 28 23  1  0  0  0  0
M  END
>  <minimizedAffinity>
-5.48159933

$$$$

 OpenBabel03262522103D

 29 31  0  0  0  0  0  0  0  0999 V2000
   37.7730   24.0870   33.2890 C   0  0  0  0  0  0  0  0  0  0  0  0
   37.1060   25.0370   32.5480 C   0  0  0  0  0  0  0  0  0  0  0  0
   36.1230   24.6390   31.6480 C   0  0  0  0  0  0  0  0  0  0  0  0
   35.8990   23.2510   31.5830 C   0  0  0  0  0  0  0  0  0  0  0  0
   36.5810   22.3290   32.3330 C   0  0  0  0  0  0  0  0  0  0  0  0
   37.5300   22.7580   33.1960 N   0  0  0  0  0  0  0  0  0  0  0  0
   37.3300   26.0900   32.6510 H   0  0  0  0  0  0  0  0  0  0  0  0
   35.5790   25.3360   31.0550 H   0  0  0  0  0  0  0  0  0  0  0  0
   35.1290   22.9820   30.8730 H   0  0  0  0  0  0  0  0  0  0  0  0
   38.2220   20.9520   30.3130 Cl  0  0  0  0  0  0  0  0  0  0  0  0
   37.0120   20.1430   31.2890 C   0  0  0  0  0  0  0  0  0  0  0  0
   36.2980   20.9040   32.2140 C   0  0  0  0  0  0  0  0  0  0  0  0
   35.3750   20.2200   32.9390 C   0  0  0  0  0  0  0  0  0  0  0  0
   34.7930   20.7380   33.6630 H   0  0  0  0  0  0  0  0  0  0  0  0
   35.1760   18.8550   32.7510 C   0  0  0  0  0  0  0  0  0  0  0  0
   34.4150   18.3720   33.3720 H   0  0  0  0  0  0  0  0  0  0  0  0
   35.9000   18.1400   31.8310 C   0  0  0  0  0  3  0  0  0  0  0  0
   36.8520   18.7920   31.0670 C   0  0  0  0  0  3  0  0  0  0  0  0
   38.7910   24.5740   34.2220 C   0  0  0  0  0  0  0  0  0  0  0  0
   39.6660   25.3690   33.8830 O   0  0  0  0  0  0  0  0  0  0  0  0
   37.8390   24.5930   36.5120 C   0  0  0  0  0  0  0  0  0  0  0  0
   38.8190   24.1340   35.6280 C   0  0  0  0  0  0  0  0  0  0  0  0
   39.7930   23.2680   36.1200 C   0  0  0  0  0  0  0  0  0  0  0  0
   39.7540   22.9030   37.4350 N   0  0  0  0  0  0  0  0  0  0  0  0
   38.7950   23.3640   38.2650 C   0  0  0  0  0  0  0  0  0  0  0  0
   37.8670   24.1840   37.8130 N   0  0  0  0  0  0  0  0  0  0  0  0
   37.0760   25.2660   36.1450 H   0  0  0  0  0  0  0  0  0  0  0  0
   40.5440   22.9120   35.4510 H   0  0  0  0  0  0  0  0  0  0  0  0
   38.7120   23.1150   39.3020 H   0  0  0  0  0  0  0  0  0  0  0  0
  1 19  1  0  0  0  0
  2  7  1  0  0  0  0
  2  1  2  0  0  0  0
  3  2  1  0  0  0  0
  4  3  2  0  0  0  0
  4  5  1  0  0  0  0
  5  6  2  0  0  0  0
  6  1  1  0  0  0  0
  8  3  1  0  0  0  0
  9  4  1  0  0  0  0
 10 11  1  0  0  0  0
 11 12  1  0  0  0  0
 12  5  1  0  0  0  0
 12 13  2  0  0  0  0
 13 14  1  0  0  0  0
 15 13  1  0  0  0  0
 15 16  1  0  0  0  0
 17 15  2  0  0  0  0
 18 11  2  0  0  0  0
 18 17  1  0  0  0  0
 19 22  1  0  0  0  0
 20 19  2  0  0  0  0
 21 26  1  0  0  0  0
 22 23  1  0  0  0  0
 22 21  2  0  0  0  0
 23 24  2  0  0  0  0
 24 25  1  0  0  0  0
 25 29  1  0  0  0  0
 26 25  2  0  0  0  0
 27 21  1  0  0  0  0
 28 23  1  0  0  0  0
M  END
>  <minimizedAffinity>
-5.46501017

$$$$

 OpenBabel03262522103D

 29 31  0  0  0  0  0  0  0  0999 V2000
   37.2180   26.0150   33.2710 C   0  0  0  0  0  0  0  0  0  0  0  0
   36.9700   27.3110   33.6670 C   0  0  0  0  0  0  0  0  0  0  0  0
   37.3460   27.7210   34.9420 C   0  0  0  0  0  0  0  0  0  0  0  0
   37.9660   26.7330   35.7290 C   0  0  0  0  0  0  0  0  0  0  0  0
   38.1980   25.4510   35.3060 C   0  0  0  0  0  0  0  0  0  0  0  0
   37.8170   25.0920   34.0600 N   0  0  0  0  0  0  0  0  0  0  0  0
   36.4880   28.0180   33.0070 H   0  0  0  0  0  0  0  0  0  0  0  0
   37.1760   28.7120   35.2930 H   0  0  0  0  0  0  0  0  0  0  0  0
   38.2420   27.0910   36.7120 H   0  0  0  0  0  0  0  0  0  0  0  0
   40.7910   24.4900   34.2950 Cl  0  0  0  0  0  0  0  0  0  0  0  0
   40.0820   23.9480   35.8040 C   0  0  0  0  0  0  0  0  0  0  0  0
   38.8470   24.4780   36.1770 C   0  0  0  0  0  0  0  0  0  0  0  0
   38.3500   24.0190   37.3540 C   0  0  0  0  0  0  0  0  0  0  0  0
   37.4120   24.3790   37.7000 H   0  0  0  0  0  0  0  0  0  0  0  0
   39.0470   23.0840   38.1160 C   0  0  0  0  0  0  0  0  0  0  0  0
   38.5840   22.7620   39.0550 H   0  0  0  0  0  0  0  0  0  0  0  0
   40.2610   22.5870   37.7170 C   0  0  0  0  0  3  0  0  0  0  0  0
   40.8090   23.0240   36.5230 C   0  0  0  0  0  3  0  0  0  0  0  0
   36.8030   25.6500   31.9150 C   0  0  0  0  0  0  0  0  0  0  0  0
   35.6240   25.6560   31.5640 O   0  0  0  0  0  0  0  0  0  0  0  0
   38.6690   26.2080   30.3790 C   0  0  0  0  0  0  0  0  0  0  0  0
   37.7860   25.2540   30.8910 C   0  0  0  0  0  0  0  0  0  0  0  0
   37.8730   23.9510   30.4040 C   0  0  0  0  0  0  0  0  0  0  0  0
   38.8110   23.6590   29.4560 N   0  0  0  0  0  0  0  0  0  0  0  0
   39.6500   24.6030   28.9800 C   0  0  0  0  0  0  0  0  0  0  0  0
   39.5780   25.8390   29.4310 N   0  0  0  0  0  0  0  0  0  0  0  0
   38.6130   27.2240   30.7460 H   0  0  0  0  0  0  0  0  0  0  0  0
   37.2040   23.2170   30.7910 H   0  0  0  0  0  0  0  0  0  0  0  0
   40.4020   24.4350   28.2380 H   0  0  0  0  0  0  0  0  0  0  0  0
  1  2  2  0  0  0  0
  1  6  1  0  0  0  0
  2  3  1  0  0  0  0
  3  8  1  0  0  0  0
  3  4  2  0  0  0  0
  4  9  1  0  0  0  0
  5  4  1  0  0  0  0
  5 12  1  0  0  0  0
  6  5  2  0  0  0  0
  7  2  1  0  0  0  0
 10 11  1  0  0  0  0
 11 12  2  0  0  0  0
 11 18  1  0  0  0  0
 12 13  1  0  0  0  0
 13 14  1  0  0  0  0
 13 15  2  0  0  0  0
 15 16  1  0  0  0  0
 17 15  1  0  0  0  0
 18 17  2  0  0  0  0
 19  1  1  0  0  0  0
 20 19  2  0  0  0  0
 21 27  1  0  0  0  0
 21 22  1  0  0  0  0
 22 19  1  0  0  0  0
 23 28  1  0  0  0  0
 23 22  2  0  0  0  0
 24 23  1  0  0  0  0
 25 26  1  0  0  0  0
 25 24  2  0  0  0  0
 26 21  2  0  0  0  0
 29 25  1  0  0  0  0
M  END
>  <minimizedAffinity>
-5.41727352

$$$$

 OpenBabel03262522103D

 29 31  0  0  0  0  0  0  0  0999 V2000
   37.3300   25.3900   33.0100 C   0  0  0  0  0  0  0  0  0  0  0  0
   37.1080   26.7140   33.3200 C   0  0  0  0  0  0  0  0  0  0  0  0
   37.7150   27.2660   34.4430 C   0  0  0  0  0  0  0  0  0  0  0  0
   38.5270   26.3830   35.1790 C   0  0  0  0  0  0  0  0  0  0  0  0
   38.7270   25.0690   34.8460 C   0  0  0  0  0  0  0  0  0  0  0  0
   38.1190   24.5710   33.7460 N   0  0  0  0  0  0  0  0  0  0  0  0
   36.4710   27.3350   32.7070 H   0  0  0  0  0  0  0  0  0  0  0  0
   37.5740   28.2840   34.7220 H   0  0  0  0  0  0  0  0  0  0  0  0
   38.9790   26.8490   36.0440 H   0  0  0  0  0  0  0  0  0  0  0  0
   37.3800   23.9260   37.2010 Cl  0  0  0  0  0  0  0  0  0  0  0  0
   39.0570   23.6090   36.8000 C   0  0  0  0  0  0  0  0  0  0  0  0
   39.5820   24.2100   35.6560 C   0  0  0  0  0  0  0  0  0  0  0  0
   40.8850   23.9260   35.3980 C   0  0  0  0  0  0  0  0  0  0  0  0
   41.3520   24.3510   34.5420 H   0  0  0  0  0  0  0  0  0  0  0  0
   41.6220   23.0920   36.2350 C   0  0  0  0  0  0  0  0  0  0  0  0
   42.6660   22.9090   35.9630 H   0  0  0  0  0  0  0  0  0  0  0  0
   41.0690   22.5190   37.3510 C   0  0  0  0  0  3  0  0  0  0  0  0
   39.7440   22.7770   37.6570 C   0  0  0  0  0  3  0  0  0  0  0  0
   36.6670   24.8740   31.8120 C   0  0  0  0  0  0  0  0  0  0  0  0
   36.0510   25.6030   31.0360 O   0  0  0  0  0  0  0  0  0  0  0  0
   35.6090   22.6310   31.7770 C   0  0  0  0  0  0  0  0  0  0  0  0
   36.7050   23.4410   31.4690 C   0  0  0  0  0  0  0  0  0  0  0  0
   37.8010   22.8520   30.8420 C   0  0  0  0  0  0  0  0  0  0  0  0
   37.7630   21.5180   30.5540 N   0  0  0  0  0  0  0  0  0  0  0  0
   36.6900   20.7610   30.8650 C   0  0  0  0  0  0  0  0  0  0  0  0
   35.6470   21.3050   31.4590 N   0  0  0  0  0  0  0  0  0  0  0  0
   34.7510   23.0740   32.2650 H   0  0  0  0  0  0  0  0  0  0  0  0
   38.6410   23.4640   30.6020 H   0  0  0  0  0  0  0  0  0  0  0  0
   36.6030   19.7140   30.6660 H   0  0  0  0  0  0  0  0  0  0  0  0
  1  2  2  0  0  0  0
  1  6  1  0  0  0  0
  2  3  1  0  0  0  0
  3  8  1  0  0  0  0
  3  4  2  0  0  0  0
  4  9  1  0  0  0  0
  5  4  1  0  0  0  0
  5 12  1  0  0  0  0
  6  5  2  0  0  0  0
  7  2  1  0  0  0  0
 11 10  1  0  0  0  0
 11 18  1  0  0  0  0
 12 11  2  0  0  0  0
 13 12  1  0  0  0  0
 13 15  2  0  0  0  0
 14 13  1  0  0  0  0
 15 17  1  0  0  0  0
 16 15  1  0  0  0  0
 17 18  2  0  0  0  0
 19  1  1  0  0  0  0
 20 19  2  0  0  0  0
 21 27  1  0  0  0  0
 22 21  1  0  0  0  0
 22 19  1  0  0  0  0
 23 22  2  0  0  0  0
 24 23  1  0  0  0  0
 24 25  2  0  0  0  0
 25 26  1  0  0  0  0
 26 21  2  0  0  0  0
 28 23  1  0  0  0  0
 29 25  1  0  0  0  0
M  END
>  <minimizedAffinity>
-5.40273142

$$$$

 OpenBabel03262522103D

 29 31  0  0  0  0  0  0  0  0999 V2000
   37.5140   26.3330   33.4590 C   0  0  0  0  0  0  0  0  0  0  0  0
   37.2500   27.5090   34.1250 C   0  0  0  0  0  0  0  0  0  0  0  0
   37.7730   27.7090   35.3980 C   0  0  0  0  0  0  0  0  0  0  0  0
   38.5510   26.6480   35.8970 C   0  0  0  0  0  0  0  0  0  0  0  0
   38.7950   25.4880   35.2100 C   0  0  0  0  0  0  0  0  0  0  0  0
   38.2680   25.3330   33.9750 N   0  0  0  0  0  0  0  0  0  0  0  0
   36.6420   28.2840   33.6780 H   0  0  0  0  0  0  0  0  0  0  0  0
   37.5980   28.6010   35.9510 H   0  0  0  0  0  0  0  0  0  0  0  0
   38.9390   26.8410   36.8880 H   0  0  0  0  0  0  0  0  0  0  0  0
   37.3990   23.8880   37.2500 Cl  0  0  0  0  0  0  0  0  0  0  0  0
   39.0600   23.6020   36.7690 C   0  0  0  0  0  0  0  0  0  0  0  0
   39.6120   24.4280   35.7900 C   0  0  0  0  0  0  0  0  0  0  0  0
   40.9010   24.1560   35.4600 C   0  0  0  0  0  0  0  0  0  0  0  0
   41.3860   24.7470   34.7210 H   0  0  0  0  0  0  0  0  0  0  0  0
   41.5990   23.1190   36.0730 C   0  0  0  0  0  0  0  0  0  0  0  0
   42.6350   22.9590   35.7560 H   0  0  0  0  0  0  0  0  0  0  0  0
   41.0210   22.3270   37.0320 C   0  0  0  0  0  3  0  0  0  0  0  0
   39.7090   22.5640   37.4020 C   0  0  0  0  0  3  0  0  0  0  0  0
   36.9390   26.1900   32.1200 C   0  0  0  0  0  0  0  0  0  0  0  0
   36.0100   25.4190   31.8830 O   0  0  0  0  0  0  0  0  0  0  0  0
   36.6490   27.9720   30.4200 C   0  0  0  0  0  0  0  0  0  0  0  0
   37.4470   26.9700   30.9770 C   0  0  0  0  0  0  0  0  0  0  0  0
   38.7050   26.7460   30.4220 C   0  0  0  0  0  0  0  0  0  0  0  0
   39.1070   27.5100   29.3640 N   0  0  0  0  0  0  0  0  0  0  0  0
   38.3140   28.4720   28.8460 C   0  0  0  0  0  0  0  0  0  0  0  0
   37.1210   28.6930   29.3630 N   0  0  0  0  0  0  0  0  0  0  0  0
   35.6700   28.1570   30.8410 H   0  0  0  0  0  0  0  0  0  0  0  0
   39.3200   25.9840   30.8420 H   0  0  0  0  0  0  0  0  0  0  0  0
   38.5730   29.0990   28.0200 H   0  0  0  0  0  0  0  0  0  0  0  0
  1  6  2  0  0  0  0
  1  2  1  0  0  0  0
  2  3  2  0  0  0  0
  3  4  1  0  0  0  0
  3  8  1  0  0  0  0
  4  9  1  0  0  0  0
  5 12  1  0  0  0  0
  5  4  2  0  0  0  0
  6  5  1  0  0  0  0
  7  2  1  0  0  0  0
 11 10  1  0  0  0  0
 11 18  1  0  0  0  0
 12 11  2  0  0  0  0
 13 12  1  0  0  0  0
 13 15  2  0  0  0  0
 14 13  1  0  0  0  0
 15 17  1  0  0  0  0
 16 15  1  0  0  0  0
 17 18  2  0  0  0  0
 19  1  1  0  0  0  0
 20 19  2  0  0  0  0
 21 27  1  0  0  0  0
 21 22  1  0  0  0  0
 22 19  1  0  0  0  0
 23 28  1  0  0  0  0
 23 22  2  0  0  0  0
 24 23  1  0  0  0  0
 25 26  1  0  0  0  0
 25 24  2  0  0  0  0
 26 21  2  0  0  0  0
 29 25  1  0  0  0  0
M  END
>  <minimizedAffinity>
-5.39302301

$$$$

 OpenBabel03262522103D

 29 31  0  0  0  0  0  0  0  0999 V2000
   39.5320   26.0470   32.4640 C   0  0  0  0  0  0  0  0  0  0  0  0
   40.5580   26.9650   32.5010 C   0  0  0  0  0  0  0  0  0  0  0  0
   41.2260   27.2000   33.6990 C   0  0  0  0  0  0  0  0  0  0  0  0
   40.7680   26.4460   34.7950 C   0  0  0  0  0  0  0  0  0  0  0  0
   39.7420   25.5400   34.7280 C   0  0  0  0  0  0  0  0  0  0  0  0
   39.1190   25.3410   33.5440 N   0  0  0  0  0  0  0  0  0  0  0  0
   40.8580   27.5090   31.6160 H   0  0  0  0  0  0  0  0  0  0  0  0
   42.0250   27.8980   33.7760 H   0  0  0  0  0  0  0  0  0  0  0  0
   41.3110   26.6570   35.7070 H   0  0  0  0  0  0  0  0  0  0  0  0
   41.3410   23.1230   35.2440 Cl  0  0  0  0  0  0  0  0  0  0  0  0
   40.0000   23.6270   36.2540 C   0  0  0  0  0  0  0  0  0  0  0  0
   39.3190   24.7930   35.9060 C   0  0  0  0  0  0  0  0  0  0  0  0
   38.2910   25.1310   36.7260 C   0  0  0  0  0  0  0  0  0  0  0  0
   37.7260   26.0080   36.5210 H   0  0  0  0  0  0  0  0  0  0  0  0
   37.9620   24.3490   37.8310 C   0  0  0  0  0  0  0  0  0  0  0  0
   37.1210   24.6850   38.4470 H   0  0  0  0  0  0  0  0  0  0  0  0
   38.6570   23.2090   38.1410 C   0  0  0  0  0  3  0  0  0  0  0  0
   39.7140   22.8220   37.3350 C   0  0  0  0  0  3  0  0  0  0  0  0
   38.8770   25.8430   31.1710 C   0  0  0  0  0  0  0  0  0  0  0  0
   39.4970   25.8640   30.1100 O   0  0  0  0  0  0  0  0  0  0  0  0
   36.9590   24.2940   30.9000 C   0  0  0  0  0  0  0  0  0  0  0  0
   37.4270   25.5990   31.0740 C   0  0  0  0  0  0  0  0  0  0  0  0
   36.4900   26.6280   31.1490 C   0  0  0  0  0  0  0  0  0  0  0  0
   35.1620   26.3250   31.0510 N   0  0  0  0  0  0  0  0  0  0  0  0
   34.7400   25.0530   30.8830 C   0  0  0  0  0  0  0  0  0  0  0  0
   35.6160   24.0710   30.8110 N   0  0  0  0  0  0  0  0  0  0  0  0
   37.6740   23.4850   30.8400 H   0  0  0  0  0  0  0  0  0  0  0  0
   36.8390   27.6270   31.2820 H   0  0  0  0  0  0  0  0  0  0  0  0
   33.7170   24.7550   30.8000 H   0  0  0  0  0  0  0  0  0  0  0  0
  1  2  2  0  0  0  0
  1  6  1  0  0  0  0
  2  3  1  0  0  0  0
  3  8  1  0  0  0  0
  3  4  2  0  0  0  0
  4  9  1  0  0  0  0
  5  4  1  0  0  0  0
  5 12  1  0  0  0  0
  6  5  2  0  0  0  0
  7  2  1  0  0  0  0
 10 11  1  0  0  0  0
 11 18  1  0  0  0  0
 12 11  2  0  0  0  0
 12 13  1  0  0  0  0
 13 15  2  0  0  0  0
 14 13  1  0  0  0  0
 15 17  1  0  0  0  0
 15 16  1  0  0  0  0
 18 17  2  0  0  0  0
 19  1  1  0  0  0  0
 20 19  2  0  0  0  0
 21 22  1  0  0  0  0
 22 23  2  0  0  0  0
 22 19  1  0  0  0  0
 23 28  1  0  0  0  0
 24 23  1  0  0  0  0
 25 24  2  0  0  0  0
 26 25  1  0  0  0  0
 26 21  2  0  0  0  0
 27 21  1  0  0  0  0
 29 25  1  0  0  0  0
M  END
>  <minimizedAffinity>
-5.28115845

$$$$

 OpenBabel03262522103D

 29 31  0  0  0  0  0  0  0  0999 V2000
   34.8580   29.6350   32.1840 C   0  0  0  0  0  0  0  0  0  0  0  0
   35.5400   30.3940   31.2580 C   0  0  0  0  0  0  0  0  0  0  0  0
   36.4500   29.7810   30.4050 C   0  0  0  0  0  0  0  0  0  0  0  0
   36.5900   28.3920   30.5790 C   0  0  0  0  0  0  0  0  0  0  0  0
   35.8980   27.6630   31.5100 C   0  0  0  0  0  0  0  0  0  0  0  0
   35.0210   28.2970   32.3210 N   0  0  0  0  0  0  0  0  0  0  0  0
   35.3810   31.4610   31.1810 H   0  0  0  0  0  0  0  0  0  0  0  0
   37.0000   30.3260   29.6740 H   0  0  0  0  0  0  0  0  0  0  0  0
   37.3070   27.9530   29.8980 H   0  0  0  0  0  0  0  0  0  0  0  0
   38.1100   26.9110   33.3020 Cl  0  0  0  0  0  0  0  0  0  0  0  0
   37.1130   25.7430   32.4580 C   0  0  0  0  0  0  0  0  0  0  0  0
   36.0930   26.2230   31.6360 C   0  0  0  0  0  0  0  0  0  0  0  0
   35.3550   25.2710   31.0100 C   0  0  0  0  0  0  0  0  0  0  0  0
   34.5610   25.5650   30.3670 H   0  0  0  0  0  0  0  0  0  0  0  0
   35.6200   23.9160   31.1930 C   0  0  0  0  0  0  0  0  0  0  0  0
   34.9840   23.2060   30.6560 H   0  0  0  0  0  0  0  0  0  0  0  0
   36.6320   23.4830   32.0110 C   0  0  0  0  0  3  0  0  0  0  0  0
   37.4130   24.4160   32.6720 C   0  0  0  0  0  3  0  0  0  0  0  0
   33.9090   30.3410   33.0460 C   0  0  0  0  0  0  0  0  0  0  0  0
   32.7280   30.4920   32.7380 O   0  0  0  0  0  0  0  0  0  0  0  0
   33.3840   31.5790   35.1300 C   0  0  0  0  0  0  0  0  0  0  0  0
   34.3240   30.9140   34.3390 C   0  0  0  0  0  0  0  0  0  0  0  0
   35.6310   30.8180   34.8130 C   0  0  0  0  0  0  0  0  0  0  0  0
   35.9400   31.3720   36.0220 N   0  0  0  0  0  0  0  0  0  0  0  0
   35.0100   32.0100   36.7630 C   0  0  0  0  0  0  0  0  0  0  0  0
   33.7700   32.1080   36.3260 N   0  0  0  0  0  0  0  0  0  0  0  0
   32.3650   31.6620   34.7750 H   0  0  0  0  0  0  0  0  0  0  0  0
   36.3540   30.3110   34.2160 H   0  0  0  0  0  0  0  0  0  0  0  0
   35.1910   32.4630   37.7150 H   0  0  0  0  0  0  0  0  0  0  0  0
  1  6  1  0  0  0  0
  1 19  1  0  0  0  0
  2  1  2  0  0  0  0
  3  4  2  0  0  0  0
  3  2  1  0  0  0  0
  4  5  1  0  0  0  0
  5 12  1  0  0  0  0
  5  6  2  0  0  0  0
  7  2  1  0  0  0  0
  8  3  1  0  0  0  0
  9  4  1  0  0  0  0
 11 18  1  0  0  0  0
 11 10  1  0  0  0  0
 12 11  2  0  0  0  0
 13 15  2  0  0  0  0
 13 12  1  0  0  0  0
 14 13  1  0  0  0  0
 15 17  1  0  0  0  0
 16 15  1  0  0  0  0
 17 18  2  0  0  0  0
 19 22  1  0  0  0  0
 20 19  2  0  0  0  0
 21 26  1  0  0  0  0
 22 23  1  0  0  0  0
 22 21  2  0  0  0  0
 23 24  2  0  0  0  0
 24 25  1  0  0  0  0
 25 29  1  0  0  0  0
 26 25  2  0  0  0  0
 27 21  1  0  0  0  0
 28 23  1  0  0  0  0
M  END
>  <minimizedAffinity>
-5.18843412

$$$$

 OpenBabel03262522103D

 29 31  0  0  0  0  0  0  0  0999 V2000
   37.6400   25.9360   33.3680 C   0  0  0  0  0  0  0  0  0  0  0  0
   37.3090   27.1310   33.9670 C   0  0  0  0  0  0  0  0  0  0  0  0
   37.7880   27.4150   35.2410 C   0  0  0  0  0  0  0  0  0  0  0  0
   38.5940   26.4140   35.8140 C   0  0  0  0  0  0  0  0  0  0  0  0
   38.9050   25.2330   35.1930 C   0  0  0  0  0  0  0  0  0  0  0  0
   38.4190   24.9950   33.9540 N   0  0  0  0  0  0  0  0  0  0  0  0
   36.6830   27.8560   33.4660 H   0  0  0  0  0  0  0  0  0  0  0  0
   37.5600   28.3250   35.7440 H   0  0  0  0  0  0  0  0  0  0  0  0
   38.9460   26.6720   36.8040 H   0  0  0  0  0  0  0  0  0  0  0  0
   37.5170   23.6750   37.2700 Cl  0  0  0  0  0  0  0  0  0  0  0  0
   39.2020   23.4370   36.8500 C   0  0  0  0  0  0  0  0  0  0  0  0
   39.7470   24.2380   35.8460 C   0  0  0  0  0  0  0  0  0  0  0  0
   41.0560   24.0060   35.5660 C   0  0  0  0  0  0  0  0  0  0  0  0
   41.5370   24.5810   34.8120 H   0  0  0  0  0  0  0  0  0  0  0  0
   41.7790   23.0310   36.2480 C   0  0  0  0  0  0  0  0  0  0  0  0
   42.8290   22.9010   35.9670 H   0  0  0  0  0  0  0  0  0  0  0  0
   41.2060   22.2620   37.2290 C   0  0  0  0  0  3  0  0  0  0  0  0
   39.8750   22.4610   37.5510 C   0  0  0  0  0  3  0  0  0  0  0  0
   37.1090   25.7030   32.0240 C   0  0  0  0  0  0  0  0  0  0  0  0
   35.9100   25.8000   31.7650 O   0  0  0  0  0  0  0  0  0  0  0  0
   37.9860   24.0250   30.4220 C   0  0  0  0  0  0  0  0  0  0  0  0
   37.9910   25.3370   30.9010 C   0  0  0  0  0  0  0  0  0  0  0  0
   38.8400   26.2560   30.2900 C   0  0  0  0  0  0  0  0  0  0  0  0
   39.6280   25.8440   29.2530 N   0  0  0  0  0  0  0  0  0  0  0  0
   39.6020   24.5690   28.8130 C   0  0  0  0  0  0  0  0  0  0  0  0
   38.8030   23.6890   29.3830 N   0  0  0  0  0  0  0  0  0  0  0  0
   37.3320   23.2990   30.8880 H   0  0  0  0  0  0  0  0  0  0  0  0
   38.8490   27.2600   30.6490 H   0  0  0  0  0  0  0  0  0  0  0  0
   40.1940   24.1870   28.0080 H   0  0  0  0  0  0  0  0  0  0  0  0
  1  6  2  0  0  0  0
  1  2  1  0  0  0  0
  2  3  2  0  0  0  0
  3  8  1  0  0  0  0
  3  4  1  0  0  0  0
  4  9  1  0  0  0  0
  5  4  2  0  0  0  0
  5 12  1  0  0  0  0
  6  5  1  0  0  0  0
  7  2  1  0  0  0  0
 11 10  1  0  0  0  0
 11 18  1  0  0  0  0
 12 11  2  0  0  0  0
 13 12  1  0  0  0  0
 13 15  2  0  0  0  0
 14 13  1  0  0  0  0
 15 17  1  0  0  0  0
 16 15  1  0  0  0  0
 17 18  2  0  0  0  0
 19  1  1  0  0  0  0
 20 19  2  0  0  0  0
 21 27  1  0  0  0  0
 21 22  1  0  0  0  0
 22 19  1  0  0  0  0
 23 28  1  0  0  0  0
 23 22  2  0  0  0  0
 24 23  1  0  0  0  0
 25 24  2  0  0  0  0
 25 26  1  0  0  0  0
 26 21  2  0  0  0  0
 29 25  1  0  0  0  0
M  END
>  <minimizedAffinity>
-5.14983177

$$$$
