
 OpenBabel03262523383D

 45 48  0  0  1  0  0  0  0  0999 V2000
   35.4760   29.8680   48.8000 C   0  0  2  0  0  0  0  0  0  0  0  0
   36.3280   30.8220   48.0370 C   0  0  0  0  0  0  0  0  0  0  0  0
   37.8190   30.4960   48.1130 C   0  0  2  0  0  0  0  0  0  0  0  0
   38.2480   30.6190   49.5550 C   0  0  0  0  0  0  0  0  0  0  0  0
   37.3420   29.8340   50.4870 C   0  0  0  0  0  0  0  0  0  0  0  0
   36.3130   29.0280   49.7400 C   0  0  0  0  0  0  0  0  0  0  0  0
   34.7060   30.3710   49.4560 H   0  0  0  0  0  0  0  0  0  0  0  0
   36.0700   31.1430   47.0660 H   0  0  0  0  0  0  0  0  0  0  0  0
   36.2800   31.7850   48.6690 H   0  0  0  0  0  0  0  0  0  0  0  0
   37.9020   29.4230   47.8470 H   0  0  0  0  0  0  0  0  0  0  0  0
   39.3120   30.3790   49.6640 H   0  0  0  0  0  0  0  0  0  0  0  0
   38.1160   31.6880   49.8290 H   0  0  0  0  0  0  0  0  0  0  0  0
   38.0080   29.0770   50.9830 H   0  0  0  0  0  0  0  0  0  0  0  0
   36.9140   30.4460   51.3000 H   0  0  0  0  0  0  0  0  0  0  0  0
   36.8210   28.2500   49.1510 H   0  0  0  0  0  0  0  0  0  0  0  0
   35.6280   28.5970   50.4930 H   0  0  0  0  0  0  0  0  0  0  0  0
   38.6190   31.2670   47.1540 C   0  0  2  0  0  0  0  0  0  0  0  0
   39.0760   32.6270   47.6120 C   0  0  0  0  0  0  0  0  0  0  0  0
   39.5790   33.1720   46.2710 C   0  0  0  0  0  0  0  0  0  0  0  0
   38.7390   32.6410   45.3170 O   0  0  0  0  0  0  0  0  0  0  0  0
   37.9920   31.5970   45.8610 C   0  0  1  0  0  0  0  0  0  0  0  0
   39.5540   30.7030   46.9460 H   0  0  0  0  0  0  0  0  0  0  0  0
   39.9360   32.5590   48.3110 H   0  0  0  0  0  0  0  0  0  0  0  0
   38.2540   33.2480   48.0150 H   0  0  0  0  0  0  0  0  0  0  0  0
   39.3570   34.2620   46.3130 H   0  0  0  0  0  0  0  0  0  0  0  0
   40.6430   32.9990   46.1420 H   0  0  0  0  0  0  0  0  0  0  0  0
   36.9730   32.0110   45.9110 H   0  0  0  0  0  0  0  0  0  0  0  0
   35.5060   31.3420   44.0110 Cl  0  0  0  0  0  0  0  0  0  0  0  0
   36.9090   30.2960   43.9540 C   0  0  0  0  0  0  0  0  0  0  0  0
   37.9350   30.5330   44.8470 C   0  0  0  0  0  0  0  0  0  0  0  0
   38.9760   29.6490   44.7110 C   0  0  0  0  0  0  0  0  0  0  0  0
   39.8530   29.6680   45.3020 H   0  0  0  0  0  0  0  0  0  0  0  0
   38.9950   28.6290   43.7770 C   0  0  0  0  0  0  0  0  0  0  0  0
   39.8190   27.9200   43.6610 H   0  0  0  0  0  0  0  0  0  0  0  0
   37.9360   28.4460   42.9110 C   0  0  0  0  0  0  0  0  0  0  0  0
   36.8850   29.3010   43.0160 C   0  0  0  0  0  0  0  0  0  0  0  0
   34.7350   28.9320   47.9240 C   0  0  0  0  0  0  0  0  0  0  0  0
   34.5010   29.3780   46.6220 C   0  0  0  0  0  0  0  0  0  0  0  0
   33.8370   28.5410   45.7540 C   0  0  0  0  0  0  0  0  0  0  0  0
   33.4280   27.3010   46.2000 N   0  0  0  0  0  0  0  0  0  0  0  0
   33.6700   26.8920   47.4840 C   0  0  0  0  0  0  0  0  0  0  0  0
   34.3140   27.7140   48.3050 N   0  0  0  0  0  0  0  0  0  0  0  0
   34.6980   30.2590   46.0370 H   0  0  0  0  0  0  0  0  0  0  0  0
   33.5380   28.6390   44.7230 H   0  0  0  0  0  0  0  0  0  0  0  0
   33.3510   25.9270   47.8260 H   0  0  0  0  0  0  0  0  0  0  0  0
  1  7  1  1  0  0  0
  1  6  1  0  0  0  0
  2  3  1  0  0  0  0
  2  9  1  0  0  0  0
  2  1  1  0  0  0  0
  3 10  1  6  0  0  0
  3  4  1  0  0  0  0
  4 11  1  0  0  0  0
  4 12  1  0  0  0  0
  4  5  1  0  0  0  0
  5 13  1  0  0  0  0
  5 14  1  0  0  0  0
  6  5  1  0  0  0  0
  6 16  1  0  0  0  0
  8  2  1  0  0  0  0
 15  6  1  0  0  0  0
 17 22  1  6  0  0  0
 17 18  1  0  0  0  0
 17  3  1  0  0  0  0
 18 24  1  0  0  0  0
 18 23  1  0  0  0  0
 19 25  1  0  0  0  0
 19 18  1  0  0  0  0
 20 21  1  0  0  0  0
 20 19  1  0  0  0  0
 21 27  1  1  0  0  0
 21 17  1  0  0  0  0
 26 19  1  0  0  0  0
 29 28  1  0  0  0  0
 29 30  1  0  0  0  0
 30 21  1  0  0  0  0
 31 30  2  0  0  0  0
 31 32  1  0  0  0  0
 33 31  1  0  0  0  0
 34 33  1  0  0  0  0
 35 36  1  0  0  0  0
 35 33  2  0  0  0  0
 36 29  2  0  0  0  0
 37 42  1  0  0  0  0
 37  1  1  0  0  0  0
 38 37  2  0  0  0  0
 39 40  2  0  0  0  0
 39 38  1  0  0  0  0
 40 41  1  0  0  0  0
 41 45  1  0  0  0  0
 41 42  2  0  0  0  0
 43 38  1  0  0  0  0
 44 39  1  0  0  0  0
M  END
>  <minimizedAffinity>
-6.42351723

>  <minimizedRMSD>
1.6544553

$$$$
