
 OpenBabel03272502423D

 28 30  0  0  0  0  0  0  0  0999 V2000
   37.4360   32.2880   49.6600 C   0  0  0  0  0  0  0  0  0  0  0  0
   38.3550   32.3410   48.5890 C   0  0  0  0  0  0  0  0  0  0  0  0
   38.0990   31.5220   47.4850 C   0  0  0  0  0  0  0  0  0  0  0  0
   36.9960   30.7380   47.5120 N   0  0  0  0  0  0  0  0  0  0  0  0
   36.1380   30.7110   48.5520 C   0  0  0  0  0  0  0  0  0  0  0  0
   36.3570   31.4910   49.6350 N   0  0  0  0  0  0  0  0  0  0  0  0
   37.6750   32.9450   50.5030 H   0  0  0  0  0  0  0  0  0  0  0  0
   39.2000   32.9780   48.6300 H   0  0  0  0  0  0  0  0  0  0  0  0
   35.5790   29.2090   51.0420 Cl  0  0  0  0  0  0  0  0  0  0  0  0
   34.6270   29.0930   49.5940 C   0  0  0  0  0  0  0  0  0  0  0  0
   34.9780   29.8370   48.4930 C   0  0  0  0  0  0  0  0  0  0  0  0
   34.2480   29.7720   47.3210 C   0  0  0  0  0  0  0  0  0  0  0  0
   33.1370   28.9520   47.2260 C   0  0  0  0  0  0  0  0  0  0  0  0
   32.7630   28.1980   48.3110 C   0  0  0  0  0  0  0  0  0  0  0  0
   31.3830   27.1030   48.3780 Cl  0  0  0  0  0  0  0  0  0  0  0  0
   33.5180   28.2840   49.4780 C   0  0  0  0  0  0  0  0  0  0  0  0
   34.4960   30.3420   46.4410 H   0  0  0  0  0  0  0  0  0  0  0  0
   32.5300   28.8560   46.3520 H   0  0  0  0  0  0  0  0  0  0  0  0
   33.2680   27.7090   50.3690 H   0  0  0  0  0  0  0  0  0  0  0  0
   39.9090   33.8330   47.3340 Cl  0  0  0  0  0  0  0  0  0  0  0  0
   39.8800   32.5370   46.1540 C   0  0  0  0  0  0  0  0  0  0  0  0
   38.9850   31.5040   46.3310 C   0  0  0  0  0  0  0  0  0  0  0  0
   39.0080   30.5230   45.3790 C   0  0  0  0  0  0  0  0  0  0  0  0
   38.3380   29.6930   45.4590 H   0  0  0  0  0  0  0  0  0  0  0  0
   39.8710   30.5490   44.2970 C   0  0  0  0  0  0  0  0  0  0  0  0
   39.8420   29.7380   43.5710 H   0  0  0  0  0  0  0  0  0  0  0  0
   40.7590   31.5920   44.1380 C   0  0  0  0  0  0  0  0  0  0  0  0
   40.7510   32.5890   45.0860 C   0  0  0  0  0  0  0  0  0  0  0  0
  1  7  1  0  0  0  0
  2  8  1  0  0  0  0
  2  1  2  0  0  0  0
  3  4  2  0  0  0  0
  3  2  1  0  0  0  0
  4  5  1  0  0  0  0
  5  6  2  0  0  0  0
  6  1  1  0  0  0  0
 10  9  1  0  0  0  0
 11  5  1  0  0  0  0
 11 10  2  0  0  0  0
 12 11  1  0  0  0  0
 13 12  2  0  0  0  0
 13 14  1  0  0  0  0
 14 15  1  0  0  0  0
 14 16  2  0  0  0  0
 16 10  1  0  0  0  0
 16 19  1  0  0  0  0
 17 12  1  0  0  0  0
 18 13  1  0  0  0  0
 21 22  1  0  0  0  0
 21 20  1  0  0  0  0
 22  3  1  0  0  0  0
 23 24  1  0  0  0  0
 23 22  2  0  0  0  0
 25 23  1  0  0  0  0
 26 25  1  0  0  0  0
 27 25  2  0  0  0  0
 27 28  1  0  0  0  0
 28 21  2  0  0  0  0
M  END
>  <minimizedAffinity>
-6.69931412

>  <minimizedRMSD>
1.30199611

$$$$
