
 OpenBabel03272508483D

 40 44  0  0  0  0  0  0  0  0999 V2000
   35.4850   29.5210   49.6270 C   0  0  0  0  0  0  0  0  0  0  0  0
   36.5170   29.1130   50.4460 C   0  0  0  0  0  0  0  0  0  0  0  0
   37.6550   29.6190   49.8190 C   0  0  0  0  0  0  0  0  0  0  0  0
   37.2740   30.2940   48.6770 C   0  0  0  0  0  0  0  0  0  0  0  0
   35.9660   30.2100   48.6000 O   0  0  0  0  0  0  0  0  0  0  0  0
   36.5330   28.5440   51.3580 H   0  0  0  0  0  0  0  0  0  0  0  0
   38.7020   29.5380   50.1160 H   0  0  0  0  0  0  0  0  0  0  0  0
   38.5600   32.2550   47.9860 C   0  0  0  0  0  0  0  0  0  0  0  0
   38.1420   30.9690   47.7350 C   0  0  0  0  0  0  0  0  0  0  0  0
   38.5400   30.2900   46.5800 C   0  0  0  0  0  0  0  0  0  0  0  0
   39.3690   30.9070   45.6600 C   0  0  0  0  0  0  0  0  0  0  0  0
   39.9160   30.5360   44.4830 N   0  0  0  0  0  0  0  0  0  0  0  0
   40.6360   31.5590   44.0400 N   0  0  0  0  0  0  0  0  0  0  0  0
   40.5570   32.5780   44.9170 C   0  0  0  0  0  0  0  0  0  0  0  0
   39.7520   32.1930   45.9660 C   0  0  0  0  0  0  0  0  0  0  0  0
   39.4030   32.9190   47.0770 C   0  0  0  0  0  0  0  0  0  0  0  0
   38.2450   32.7800   48.8900 H   0  0  0  0  0  0  0  0  0  0  0  0
   38.2370   29.2720   46.3370 H   0  0  0  0  0  0  0  0  0  0  0  0
   39.7530   29.5950   44.0630 H   0  0  0  0  0  0  0  0  0  0  0  0
   41.0590   33.5520   44.7990 H   0  0  0  0  0  0  0  0  0  0  0  0
   39.7530   33.9300   47.2360 H   0  0  0  0  0  0  0  0  0  0  0  0
   34.0880   29.2280   49.8710 C   0  0  0  0  0  0  0  0  0  0  0  0
   33.5140   29.8170   50.8150 O   0  0  0  0  0  0  0  0  0  0  0  0
   31.3730   27.2310   48.4870 C   0  0  0  0  0  0  0  0  0  0  0  0
   32.0000   26.4970   47.4970 C   0  0  0  0  0  0  0  0  0  0  0  0
   33.3550   26.6660   47.2810 C   0  0  0  0  0  0  0  0  0  0  0  0
   34.0020   27.5530   48.0610 N   0  0  0  0  0  0  0  0  0  0  0  0
   33.3780   28.2630   49.0250 C   0  0  0  0  0  0  0  0  0  0  0  0
   32.0650   28.0920   49.2260 N   0  0  0  0  0  0  0  0  0  0  0  0
   30.3080   27.1400   48.7020 H   0  0  0  0  0  0  0  0  0  0  0  0
   31.4210   25.8080   46.9140 H   0  0  0  0  0  0  0  0  0  0  0  0
   33.6260   28.0510   44.6800 Cl  0  0  0  0  0  0  0  0  0  0  0  0
   34.2620   26.4780   45.0130 C   0  0  0  0  0  0  0  0  0  0  0  0
   34.0800   25.9240   46.2580 C   0  0  0  0  0  0  0  0  0  0  0  0
   34.6200   24.6690   46.4360 C   0  0  0  0  0  0  0  0  0  0  0  0
   34.5090   24.1820   47.3950 H   0  0  0  0  0  0  0  0  0  0  0  0
   35.3000   23.9980   45.4490 C   0  0  0  0  0  0  0  0  0  0  0  0
   35.7170   23.0040   45.6200 H   0  0  0  0  0  0  0  0  0  0  0  0
   35.4610   24.5870   44.2140 C   0  0  0  0  0  3  0  0  0  0  0  0
   34.9410   25.8400   43.9820 C   0  0  0  0  0  3  0  0  0  0  0  0
  1 22  1  0  0  0  0
  1  2  2  0  0  0  0
  2  6  1  0  0  0  0
  3  7  1  0  0  0  0
  3  2  1  0  0  0  0
  4  3  2  0  0  0  0
  5  4  1  0  0  0  0
  5  1  1  0  0  0  0
  8 17  1  0  0  0  0
  9  8  1  0  0  0  0
  9  4  1  0  0  0  0
 10  9  2  0  0  0  0
 11 15  2  0  0  0  0
 11 10  1  0  0  0  0
 12 11  1  0  0  0  0
 13 12  1  0  0  0  0
 13 14  2  0  0  0  0
 14 15  1  0  0  0  0
 15 16  1  0  0  0  0
 16 21  1  0  0  0  0
 16  8  2  0  0  0  0
 18 10  1  0  0  0  0
 19 12  1  0  0  0  0
 20 14  1  0  0  0  0
 22 23  2  0  0  0  0
 24 30  1  0  0  0  0
 24 29  1  0  0  0  0
 25 24  2  0  0  0  0
 26 25  1  0  0  0  0
 26 27  2  0  0  0  0
 27 28  1  0  0  0  0
 28 29  2  0  0  0  0
 28 22  1  0  0  0  0
 31 25  1  0  0  0  0
 32 33  1  0  0  0  0
 33 34  1  0  0  0  0
 34 35  2  0  0  0  0
 34 26  1  0  0  0  0
 35 36  1  0  0  0  0
 37 38  1  0  0  0  0
 37 35  1  0  0  0  0
 39 37  2  0  0  0  0
 40 39  1  0  0  0  0
 40 33  2  0  0  0  0
M  END
>  <minimizedAffinity>
-6.84715271

>  <minimizedRMSD>
0.622843444

$$$$
