
 OpenBabel03272503213D

 35 38  0  0  0  0  0  0  0  0999 V2000
   37.3100   26.7660   33.5290 C   0  0  0  0  0  0  0  0  0  0  0  0
   37.1450   25.5800   32.9460 C   0  0  0  0  0  0  0  0  0  0  0  0
   37.7870   24.4960   33.4300 C   0  0  0  0  0  0  0  0  0  0  0  0
   38.5990   24.6880   34.5290 C   0  0  0  0  0  0  0  0  0  0  0  0
   38.4110   26.4800   34.8480 S   0  0  0  0  0  0  0  0  0  0  0  0
   36.4820   25.4950   32.0710 H   0  0  0  0  0  0  0  0  0  0  0  0
   37.7540   23.4770   33.0680 H   0  0  0  0  0  0  0  0  0  0  0  0
   37.5840   24.0920   37.3300 Cl  0  0  0  0  0  0  0  0  0  0  0  0
   39.0390   23.4980   36.5860 C   0  0  0  0  0  0  0  0  0  0  0  0
   39.4300   23.8090   35.3210 C   0  0  0  0  0  0  0  0  0  0  0  0
   40.5560   23.3740   34.6860 C   0  0  0  0  0  0  0  0  0  0  0  0
   41.4150   22.5160   35.3910 C   0  0  0  0  0  0  0  0  0  0  0  0
   41.0750   22.1610   36.6830 C   0  0  0  0  0  0  0  0  0  0  0  0
   42.1040   21.0950   37.6170 Cl  0  0  0  0  0  0  0  0  0  0  0  0
   39.9090   22.6410   37.2720 C   0  0  0  0  0  0  0  0  0  0  0  0
   40.8400   23.6400   33.6760 H   0  0  0  0  0  0  0  0  0  0  0  0
   42.3190   22.1470   34.9280 H   0  0  0  0  0  0  0  0  0  0  0  0
   39.6540   22.3560   38.2850 H   0  0  0  0  0  0  0  0  0  0  0  0
   36.2370   29.8850   31.7030 C   0  0  0  0  0  0  0  0  0  0  0  0
   36.8340   28.6240   31.9080 C   0  0  0  0  0  0  0  0  0  0  0  0
   36.7330   28.0710   33.2030 C   0  0  0  0  0  0  0  0  0  0  0  0
   36.0840   28.7490   34.1820 N   0  0  0  0  0  0  0  0  0  0  0  0
   35.5310   29.9550   33.9180 C   0  0  0  0  0  0  0  0  0  0  0  0
   35.6050   30.5120   32.7090 N   0  0  0  0  0  0  0  0  0  0  0  0
   36.3400   30.2650   30.7010 H   0  0  0  0  0  0  0  0  0  0  0  0
   37.3440   28.0850   31.1540 H   0  0  0  0  0  0  0  0  0  0  0  0
   32.5690   29.3380   34.2690 Cl  0  0  0  0  0  0  0  0  0  0  0  0
   33.5070   30.4200   35.2800 C   0  0  0  0  0  0  0  0  0  0  0  0
   34.8490   30.6230   35.0230 C   0  0  0  0  0  0  0  0  0  0  0  0
   35.5610   31.4830   35.8370 C   0  0  0  0  0  0  0  0  0  0  0  0
   36.6120   31.6630   35.6620 H   0  0  0  0  0  0  0  0  0  0  0  0
   35.0050   32.1580   36.9030 C   0  0  0  0  0  0  0  0  0  0  0  0
   35.5660   32.8320   37.5420 H   0  0  0  0  0  0  0  0  0  0  0  0
   33.6650   31.9450   37.1460 C   0  0  0  0  0  3  0  0  0  0  0  0
   32.9330   31.0900   36.3450 C   0  0  0  0  0  3  0  0  0  0  0  0
  1  5  1  0  0  0  0
  2  3  1  0  0  0  0
  2  1  2  0  0  0  0
  3  4  2  0  0  0  0
  4  5  1  0  0  0  0
  4 10  1  0  0  0  0
  6  2  1  0  0  0  0
  7  3  1  0  0  0  0
  9 15  1  0  0  0  0
  9  8  1  0  0  0  0
 10  9  2  0  0  0  0
 11 10  1  0  0  0  0
 11 12  2  0  0  0  0
 12 13  1  0  0  0  0
 13 15  2  0  0  0  0
 13 14  1  0  0  0  0
 15 18  1  0  0  0  0
 16 11  1  0  0  0  0
 17 12  1  0  0  0  0
 19 20  2  0  0  0  0
 19 24  1  0  0  0  0
 20 21  1  0  0  0  0
 21  1  1  0  0  0  0
 21 22  2  0  0  0  0
 23 22  1  0  0  0  0
 23 29  1  0  0  0  0
 24 23  2  0  0  0  0
 25 19  1  0  0  0  0
 26 20  1  0  0  0  0
 27 28  1  0  0  0  0
 28 35  1  0  0  0  0
 29 28  2  0  0  0  0
 29 30  1  0  0  0  0
 30 32  2  0  0  0  0
 31 30  1  0  0  0  0
 32 34  1  0  0  0  0
 32 33  1  0  0  0  0
 35 34  2  0  0  0  0
M  END
>  <minimizedAffinity>
-6.81004286

$$$$

 OpenBabel03272503213D

 35 38  0  0  0  0  0  0  0  0999 V2000
   36.6830   26.9480   32.5720 C   0  0  0  0  0  0  0  0  0  0  0  0
   37.3850   26.2360   33.4530 C   0  0  0  0  0  0  0  0  0  0  0  0
   37.5360   24.9060   33.2760 C   0  0  0  0  0  0  0  0  0  0  0  0
   36.9380   24.3510   32.1640 C   0  0  0  0  0  0  0  0  0  0  0  0
   36.1470   25.8010   31.3760 S   0  0  0  0  0  0  0  0  0  0  0  0
   37.8370   26.7420   34.3190 H   0  0  0  0  0  0  0  0  0  0  0  0
   38.0720   24.2020   33.8980 H   0  0  0  0  0  0  0  0  0  0  0  0
   39.4530   23.3520   30.7840 Cl  0  0  0  0  0  0  0  0  0  0  0  0
   37.9590   22.4930   31.0040 C   0  0  0  0  0  0  0  0  0  0  0  0
   36.8690   23.0060   31.6360 C   0  0  0  0  0  0  0  0  0  0  0  0
   35.6740   22.3800   31.8380 C   0  0  0  0  0  0  0  0  0  0  0  0
   35.5310   21.0720   31.3530 C   0  0  0  0  0  0  0  0  0  0  0  0
   36.6010   20.4900   30.7000 C   0  0  0  0  0  0  0  0  0  0  0  0
   36.4860   18.8610   30.0700 Cl  0  0  0  0  0  0  0  0  0  0  0  0
   37.7950   21.1850   30.5270 C   0  0  0  0  0  0  0  0  0  0  0  0
   34.8240   22.8170   32.3470 H   0  0  0  0  0  0  0  0  0  0  0  0
   34.6010   20.5360   31.4900 H   0  0  0  0  0  0  0  0  0  0  0  0
   38.6270   20.7200   30.0130 H   0  0  0  0  0  0  0  0  0  0  0  0
   36.3510   30.5430   31.4860 C   0  0  0  0  0  0  0  0  0  0  0  0
   36.6910   29.1760   31.4150 C   0  0  0  0  0  0  0  0  0  0  0  0
   36.3810   28.3800   32.5370 C   0  0  0  0  0  0  0  0  0  0  0  0
   35.7820   28.9360   33.6200 N   0  0  0  0  0  0  0  0  0  0  0  0
   35.4810   30.2550   33.6240 C   0  0  0  0  0  0  0  0  0  0  0  0
   35.7570   31.0420   32.5830 N   0  0  0  0  0  0  0  0  0  0  0  0
   36.6070   31.1090   30.6060 H   0  0  0  0  0  0  0  0  0  0  0  0
   37.1600   28.7290   30.5770 H   0  0  0  0  0  0  0  0  0  0  0  0
   32.5310   29.5880   33.9960 Cl  0  0  0  0  0  0  0  0  0  0  0  0
   33.5030   30.5420   35.0990 C   0  0  0  0  0  0  0  0  0  0  0  0
   34.8360   30.7800   34.8240 C   0  0  0  0  0  0  0  0  0  0  0  0
   35.5760   31.5360   35.7130 C   0  0  0  0  0  0  0  0  0  0  0  0
   36.6210   31.7410   35.5260 H   0  0  0  0  0  0  0  0  0  0  0  0
   35.0560   32.0740   36.8710 C   0  0  0  0  0  0  0  0  0  0  0  0
   35.6390   32.6680   37.5680 H   0  0  0  0  0  0  0  0  0  0  0  0
   33.7260   31.8290   37.1310 C   0  0  0  0  0  3  0  0  0  0  0  0
   32.9660   31.0750   36.2570 C   0  0  0  0  0  3  0  0  0  0  0  0
  1  2  2  0  0  0  0
  2  6  1  0  0  0  0
  3  2  1  0  0  0  0
  3  7  1  0  0  0  0
  4  3  2  0  0  0  0
  5  4  1  0  0  0  0
  5  1  1  0  0  0  0
  8  9  1  0  0  0  0
  9 10  1  0  0  0  0
 10 11  2  0  0  0  0
 10  4  1  0  0  0  0
 11 16  1  0  0  0  0
 12 17  1  0  0  0  0
 12 11  1  0  0  0  0
 13 12  2  0  0  0  0
 14 13  1  0  0  0  0
 15 13  1  0  0  0  0
 15  9  2  0  0  0  0
 18 15  1  0  0  0  0
 19 24  1  0  0  0  0
 20 19  2  0  0  0  0
 20 21  1  0  0  0  0
 21  1  1  0  0  0  0
 21 22  2  0  0  0  0
 22 23  1  0  0  0  0
 23 29  1  0  0  0  0
 24 23  2  0  0  0  0
 25 19  1  0  0  0  0
 26 20  1  0  0  0  0
 27 28  1  0  0  0  0
 28 35  1  0  0  0  0
 29 28  2  0  0  0  0
 29 30  1  0  0  0  0
 30 32  2  0  0  0  0
 31 30  1  0  0  0  0
 32 34  1  0  0  0  0
 32 33  1  0  0  0  0
 35 34  2  0  0  0  0
M  END
>  <minimizedAffinity>
-6.51045704

$$$$

 OpenBabel03272503213D

 35 38  0  0  0  0  0  0  0  0999 V2000
   36.9380   27.2380   33.3090 C   0  0  0  0  0  0  0  0  0  0  0  0
   37.2350   26.2490   32.4670 C   0  0  0  0  0  0  0  0  0  0  0  0
   37.9780   25.2040   32.8890 C   0  0  0  0  0  0  0  0  0  0  0  0
   38.3960   25.2250   34.2040 C   0  0  0  0  0  0  0  0  0  0  0  0
   37.6890   26.7970   34.8180 S   0  0  0  0  0  0  0  0  0  0  0  0
   36.8690   26.2950   31.4300 H   0  0  0  0  0  0  0  0  0  0  0  0
   38.2970   24.3360   32.3290 H   0  0  0  0  0  0  0  0  0  0  0  0
   41.3800   25.7920   34.2830 Cl  0  0  0  0  0  0  0  0  0  0  0  0
   40.5270   24.5140   35.0950 C   0  0  0  0  0  0  0  0  0  0  0  0
   39.1830   24.3210   35.0140 C   0  0  0  0  0  0  0  0  0  0  0  0
   38.4620   23.3400   35.6270 C   0  0  0  0  0  0  0  0  0  0  0  0
   39.1560   22.4230   36.4310 C   0  0  0  0  0  0  0  0  0  0  0  0
   40.5260   22.5620   36.5570 C   0  0  0  0  0  0  0  0  0  0  0  0
   41.4500   21.4500   37.5430 Cl  0  0  0  0  0  0  0  0  0  0  0  0
   41.2020   23.5880   35.9020 C   0  0  0  0  0  0  0  0  0  0  0  0
   37.3900   23.2130   35.5420 H   0  0  0  0  0  0  0  0  0  0  0  0
   38.6260   21.6270   36.9360 H   0  0  0  0  0  0  0  0  0  0  0  0
   42.2750   23.6870   36.0080 H   0  0  0  0  0  0  0  0  0  0  0  0
   35.2700   30.2330   31.7390 C   0  0  0  0  0  0  0  0  0  0  0  0
   36.0500   29.0610   31.8280 C   0  0  0  0  0  0  0  0  0  0  0  0
   36.1600   28.4590   33.1000 C   0  0  0  0  0  0  0  0  0  0  0  0
   35.5300   29.0100   34.1680 N   0  0  0  0  0  0  0  0  0  0  0  0
   34.7960   30.1360   34.0140 C   0  0  0  0  0  0  0  0  0  0  0  0
   34.6670   30.7350   32.8300 N   0  0  0  0  0  0  0  0  0  0  0  0
   35.2160   30.6540   30.7500 H   0  0  0  0  0  0  0  0  0  0  0  0
   36.5480   28.6210   31.0040 H   0  0  0  0  0  0  0  0  0  0  0  0
   36.3770   32.1750   35.6350 Cl  0  0  0  0  0  0  0  0  0  0  0  0
   34.7680   31.5980   36.0220 C   0  0  0  0  0  0  0  0  0  0  0  0
   34.1480   30.6680   35.2090 C   0  0  0  0  0  0  0  0  0  0  0  0
   32.8800   30.2330   35.5420 C   0  0  0  0  0  0  0  0  0  0  0  0
   32.3670   29.5060   34.9280 H   0  0  0  0  0  0  0  0  0  0  0  0
   32.1880   30.6770   36.6490 C   0  0  0  0  0  0  0  0  0  0  0  0
   31.1910   30.3340   36.9080 H   0  0  0  0  0  0  0  0  0  0  0  0
   32.8200   31.6040   37.4490 C   0  0  0  0  0  3  0  0  0  0  0  0
   34.0890   32.0540   37.1370 C   0  0  0  0  0  3  0  0  0  0  0  0
  1  5  1  0  0  0  0
  2  3  1  0  0  0  0
  2  1  2  0  0  0  0
  3  4  2  0  0  0  0
  4  5  1  0  0  0  0
  4 10  1  0  0  0  0
  6  2  1  0  0  0  0
  7  3  1  0  0  0  0
  8  9  1  0  0  0  0
  9 15  1  0  0  0  0
 10  9  2  0  0  0  0
 10 11  1  0  0  0  0
 11 12  2  0  0  0  0
 12 13  1  0  0  0  0
 12 17  1  0  0  0  0
 13 14  1  0  0  0  0
 15 18  1  0  0  0  0
 15 13  2  0  0  0  0
 16 11  1  0  0  0  0
 19 20  2  0  0  0  0
 19 24  1  0  0  0  0
 20 21  1  0  0  0  0
 21  1  1  0  0  0  0
 21 22  2  0  0  0  0
 23 22  1  0  0  0  0
 23 29  1  0  0  0  0
 24 23  2  0  0  0  0
 25 19  1  0  0  0  0
 26 20  1  0  0  0  0
 27 28  1  0  0  0  0
 28 35  1  0  0  0  0
 29 30  1  0  0  0  0
 29 28  2  0  0  0  0
 30 32  2  0  0  0  0
 31 30  1  0  0  0  0
 32 33  1  0  0  0  0
 32 34  1  0  0  0  0
 35 34  2  0  0  0  0
M  END
>  <minimizedAffinity>
-6.49022293

$$$$

 OpenBabel03272503213D

 35 38  0  0  0  0  0  0  0  0999 V2000
   36.8390   27.4370   32.8190 C   0  0  0  0  0  0  0  0  0  0  0  0
   36.2540   28.3330   32.0270 C   0  0  0  0  0  0  0  0  0  0  0  0
   35.6300   29.4030   32.5650 C   0  0  0  0  0  0  0  0  0  0  0  0
   35.6370   29.5050   33.9410 C   0  0  0  0  0  0  0  0  0  0  0  0
   36.5690   28.0120   34.4420 S   0  0  0  0  0  0  0  0  0  0  0  0
   36.2850   28.1920   30.9360 H   0  0  0  0  0  0  0  0  0  0  0  0
   35.1160   30.2070   32.0570 H   0  0  0  0  0  0  0  0  0  0  0  0
   32.6490   29.3060   34.4550 Cl  0  0  0  0  0  0  0  0  0  0  0  0
   33.7660   30.4430   35.1500 C   0  0  0  0  0  0  0  0  0  0  0  0
   35.0980   30.4710   34.8720 C   0  0  0  0  0  0  0  0  0  0  0  0
   36.0190   31.3360   35.3850 C   0  0  0  0  0  0  0  0  0  0  0  0
   35.5710   32.3050   36.2960 C   0  0  0  0  0  0  0  0  0  0  0  0
   34.2280   32.3310   36.6220 C   0  0  0  0  0  0  0  0  0  0  0  0
   33.6050   33.5150   37.7510 Cl  0  0  0  0  0  0  0  0  0  0  0  0
   33.3390   31.4180   36.0610 C   0  0  0  0  0  0  0  0  0  0  0  0
   37.0750   31.3320   35.1430 H   0  0  0  0  0  0  0  0  0  0  0  0
   36.2660   33.0120   36.7280 H   0  0  0  0  0  0  0  0  0  0  0  0
   32.2890   31.4480   36.3230 H   0  0  0  0  0  0  0  0  0  0  0  0
   39.5270   25.0040   31.7840 C   0  0  0  0  0  0  0  0  0  0  0  0
   38.9180   26.2430   32.0730 C   0  0  0  0  0  0  0  0  0  0  0  0
   37.5700   26.2130   32.4880 C   0  0  0  0  0  0  0  0  0  0  0  0
   36.9190   25.0280   32.5940 N   0  0  0  0  0  0  0  0  0  0  0  0
   37.5620   23.8730   32.3020 C   0  0  0  0  0  0  0  0  0  0  0  0
   38.8350   23.8590   31.9070 N   0  0  0  0  0  0  0  0  0  0  0  0
   40.5550   25.0790   31.4720 H   0  0  0  0  0  0  0  0  0  0  0  0
   39.4130   27.1750   31.9930 H   0  0  0  0  0  0  0  0  0  0  0  0
   37.9550   22.3000   34.8810 Cl  0  0  0  0  0  0  0  0  0  0  0  0
   36.8910   21.8430   33.5660 C   0  0  0  0  0  0  0  0  0  0  0  0
   36.7950   22.6390   32.4410 C   0  0  0  0  0  0  0  0  0  0  0  0
   35.9470   22.2510   31.4210 C   0  0  0  0  0  0  0  0  0  0  0  0
   35.8500   22.8510   30.5270 H   0  0  0  0  0  0  0  0  0  0  0  0
   35.1840   21.1040   31.4600 C   0  0  0  0  0  0  0  0  0  0  0  0
   34.5180   20.8010   30.6580 H   0  0  0  0  0  0  0  0  0  0  0  0
   35.2910   20.3210   32.5880 C   0  0  0  0  0  3  0  0  0  0  0  0
   36.1320   20.6880   33.6220 C   0  0  0  0  0  3  0  0  0  0  0  0
  1  5  1  0  0  0  0
  2  3  1  0  0  0  0
  2  1  2  0  0  0  0
  3  4  2  0  0  0  0
  4  5  1  0  0  0  0
  4 10  1  0  0  0  0
  6  2  1  0  0  0  0
  7  3  1  0  0  0  0
  8  9  1  0  0  0  0
  9 15  1  0  0  0  0
 10  9  2  0  0  0  0
 10 11  1  0  0  0  0
 11 12  2  0  0  0  0
 12 13  1  0  0  0  0
 12 17  1  0  0  0  0
 13 14  1  0  0  0  0
 15 18  1  0  0  0  0
 15 13  2  0  0  0  0
 16 11  1  0  0  0  0
 19 24  2  0  0  0  0
 19 20  1  0  0  0  0
 20 21  2  0  0  0  0
 21 22  1  0  0  0  0
 21  1  1  0  0  0  0
 23 29  1  0  0  0  0
 23 22  2  0  0  0  0
 24 23  1  0  0  0  0
 25 19  1  0  0  0  0
 26 20  1  0  0  0  0
 28 35  1  0  0  0  0
 28 27  1  0  0  0  0
 29 28  2  0  0  0  0
 30 32  2  0  0  0  0
 30 29  1  0  0  0  0
 31 30  1  0  0  0  0
 32 34  1  0  0  0  0
 33 32  1  0  0  0  0
 34 35  2  0  0  0  0
M  END
>  <minimizedAffinity>
-6.4674139

$$$$

 OpenBabel03272503213D

 35 38  0  0  0  0  0  0  0  0999 V2000
   38.0460   25.1940   34.8860 C   0  0  0  0  0  0  0  0  0  0  0  0
   37.7710   24.8110   33.6400 C   0  0  0  0  0  0  0  0  0  0  0  0
   37.2780   25.7030   32.7540 C   0  0  0  0  0  0  0  0  0  0  0  0
   37.0850   26.9920   33.2070 C   0  0  0  0  0  0  0  0  0  0  0  0
   37.6320   26.8850   34.9490 S   0  0  0  0  0  0  0  0  0  0  0  0
   37.9490   23.7670   33.3450 H   0  0  0  0  0  0  0  0  0  0  0  0
   37.0090   25.5440   31.7190 H   0  0  0  0  0  0  0  0  0  0  0  0
   38.5880   27.9040   30.7290 Cl  0  0  0  0  0  0  0  0  0  0  0  0
   37.2170   28.6710   31.4730 C   0  0  0  0  0  0  0  0  0  0  0  0
   36.5920   28.2020   32.5870 C   0  0  0  0  0  0  0  0  0  0  0  0
   35.5160   28.7590   33.2120 C   0  0  0  0  0  0  0  0  0  0  0  0
   34.9810   29.9370   32.6690 C   0  0  0  0  0  0  0  0  0  0  0  0
   35.5690   30.4670   31.5360 C   0  0  0  0  0  0  0  0  0  0  0  0
   34.9500   31.9350   30.8110 Cl  0  0  0  0  0  0  0  0  0  0  0  0
   36.6670   29.8470   30.9470 C   0  0  0  0  0  0  0  0  0  0  0  0
   35.0400   28.3600   34.0990 H   0  0  0  0  0  0  0  0  0  0  0  0
   34.1280   30.4150   33.1320 H   0  0  0  0  0  0  0  0  0  0  0  0
   37.1210   30.2720   30.0600 H   0  0  0  0  0  0  0  0  0  0  0  0
   38.4930   23.5720   38.2600 C   0  0  0  0  0  0  0  0  0  0  0  0
   37.8880   24.3370   37.2410 C   0  0  0  0  0  0  0  0  0  0  0  0
   38.5810   24.4320   36.0150 C   0  0  0  0  0  0  0  0  0  0  0  0
   39.7730   23.8050   35.8590 N   0  0  0  0  0  0  0  0  0  0  0  0
   40.2990   23.0850   36.8780 C   0  0  0  0  0  0  0  0  0  0  0  0
   39.6750   22.9710   38.0510 N   0  0  0  0  0  0  0  0  0  0  0  0
   37.9260   23.5290   39.1750 H   0  0  0  0  0  0  0  0  0  0  0  0
   36.9590   24.8330   37.3490 H   0  0  0  0  0  0  0  0  0  0  0  0
   42.4410   24.7710   35.5170 Cl  0  0  0  0  0  0  0  0  0  0  0  0
   42.6310   23.1040   36.0240 C   0  0  0  0  0  0  0  0  0  0  0  0
   41.5840   22.4380   36.6330 C   0  0  0  0  0  0  0  0  0  0  0  0
   41.7650   21.1250   37.0200 C   0  0  0  0  0  0  0  0  0  0  0  0
   40.9660   20.5760   37.4990 H   0  0  0  0  0  0  0  0  0  0  0  0
   42.9410   20.4300   36.8320 C   0  0  0  0  0  0  0  0  0  0  0  0
   43.0810   19.3980   37.1370 H   0  0  0  0  0  0  0  0  0  0  0  0
   43.9750   21.1070   36.2220 C   0  0  0  0  0  3  0  0  0  0  0  0
   43.8180   22.4220   35.8260 C   0  0  0  0  0  3  0  0  0  0  0  0
  1  5  1  0  0  0  0
  1 21  1  0  0  0  0
  2  1  2  0  0  0  0
  3  4  2  0  0  0  0
  3  2  1  0  0  0  0
  4  5  1  0  0  0  0
  6  2  1  0  0  0  0
  7  3  1  0  0  0  0
  8  9  1  0  0  0  0
  9 10  1  0  0  0  0
 10  4  1  0  0  0  0
 10 11  2  0  0  0  0
 11 16  1  0  0  0  0
 12 17  1  0  0  0  0
 12 11  1  0  0  0  0
 13 12  2  0  0  0  0
 14 13  1  0  0  0  0
 15  9  2  0  0  0  0
 15 13  1  0  0  0  0
 18 15  1  0  0  0  0
 19 25  1  0  0  0  0
 20 26  1  0  0  0  0
 20 19  2  0  0  0  0
 21 20  1  0  0  0  0
 22 21  2  0  0  0  0
 22 23  1  0  0  0  0
 23 24  2  0  0  0  0
 24 19  1  0  0  0  0
 27 28  1  0  0  0  0
 28 29  1  0  0  0  0
 29 23  1  0  0  0  0
 29 30  2  0  0  0  0
 30 31  1  0  0  0  0
 32 30  1  0  0  0  0
 32 33  1  0  0  0  0
 34 32  2  0  0  0  0
 35 28  2  0  0  0  0
 35 34  1  0  0  0  0
M  END
>  <minimizedAffinity>
-6.29460001

$$$$

 OpenBabel03272503213D

 35 38  0  0  0  0  0  0  0  0999 V2000
   37.3420   27.4680   34.5450 C   0  0  0  0  0  0  0  0  0  0  0  0
   38.1390   27.7040   35.5860 C   0  0  0  0  0  0  0  0  0  0  0  0
   39.0350   26.7710   35.9740 C   0  0  0  0  0  0  0  0  0  0  0  0
   39.0710   25.5980   35.2480 C   0  0  0  0  0  0  0  0  0  0  0  0
   37.7750   25.8750   33.9870 S   0  0  0  0  0  0  0  0  0  0  0  0
   38.0590   28.6610   36.1220 H   0  0  0  0  0  0  0  0  0  0  0  0
   39.7420   26.8160   36.7910 H   0  0  0  0  0  0  0  0  0  0  0  0
   37.9250   23.4060   37.0120 Cl  0  0  0  0  0  0  0  0  0  0  0  0
   39.4130   23.3680   36.1140 C   0  0  0  0  0  0  0  0  0  0  0  0
   39.8640   24.3920   35.3410 C   0  0  0  0  0  0  0  0  0  0  0  0
   41.0190   24.4190   34.6160 C   0  0  0  0  0  0  0  0  0  0  0  0
   41.8430   23.2840   34.6560 C   0  0  0  0  0  0  0  0  0  0  0  0
   41.4430   22.2060   35.4240 C   0  0  0  0  0  0  0  0  0  0  0  0
   42.4270   20.7610   35.5180 Cl  0  0  0  0  0  0  0  0  0  0  0  0
   40.2500   22.2440   36.1410 C   0  0  0  0  0  0  0  0  0  0  0  0
   41.3500   25.2520   34.0090 H   0  0  0  0  0  0  0  0  0  0  0  0
   42.7690   23.2600   34.0980 H   0  0  0  0  0  0  0  0  0  0  0  0
   39.9470   21.3950   36.7390 H   0  0  0  0  0  0  0  0  0  0  0  0
   35.1300   29.2340   32.0550 C   0  0  0  0  0  0  0  0  0  0  0  0
   36.1640   28.4030   32.5350 C   0  0  0  0  0  0  0  0  0  0  0  0
   36.3080   28.3040   33.9350 C   0  0  0  0  0  0  0  0  0  0  0  0
   35.4720   28.9910   34.7530 N   0  0  0  0  0  0  0  0  0  0  0  0
   34.4990   29.7700   34.2280 C   0  0  0  0  0  0  0  0  0  0  0  0
   34.3300   29.8900   32.9110 N   0  0  0  0  0  0  0  0  0  0  0  0
   35.0600   29.2760   30.9810 H   0  0  0  0  0  0  0  0  0  0  0  0
   36.8240   27.8630   31.9080 H   0  0  0  0  0  0  0  0  0  0  0  0
   35.8470   31.8160   36.0390 Cl  0  0  0  0  0  0  0  0  0  0  0  0
   34.1390   31.4270   36.0430 C   0  0  0  0  0  0  0  0  0  0  0  0
   33.6390   30.4770   35.1730 C   0  0  0  0  0  0  0  0  0  0  0  0
   32.2870   30.1930   35.2010 C   0  0  0  0  0  0  0  0  0  0  0  0
   31.8660   29.4550   34.5330 H   0  0  0  0  0  0  0  0  0  0  0  0
   31.3980   30.8070   36.0560 C   0  0  0  0  0  0  0  0  0  0  0  0
   30.3360   30.5820   36.0760 H   0  0  0  0  0  0  0  0  0  0  0  0
   31.9110   31.7510   36.9180 C   0  0  0  0  0  3  0  0  0  0  0  0
   33.2590   32.0520   36.9090 C   0  0  0  0  0  3  0  0  0  0  0  0
  1  2  2  0  0  0  0
  2  3  1  0  0  0  0
  2  6  1  0  0  0  0
  3  7  1  0  0  0  0
  4 10  1  0  0  0  0
  4  3  2  0  0  0  0
  5  1  1  0  0  0  0
  5  4  1  0  0  0  0
  9 15  1  0  0  0  0
  9  8  1  0  0  0  0
 10  9  2  0  0  0  0
 11 12  2  0  0  0  0
 11 10  1  0  0  0  0
 12 13  1  0  0  0  0
 13 14  1  0  0  0  0
 13 15  2  0  0  0  0
 15 18  1  0  0  0  0
 16 11  1  0  0  0  0
 17 12  1  0  0  0  0
 19 20  2  0  0  0  0
 19 24  1  0  0  0  0
 20 21  1  0  0  0  0
 21  1  1  0  0  0  0
 21 22  2  0  0  0  0
 23 22  1  0  0  0  0
 23 29  1  0  0  0  0
 24 23  2  0  0  0  0
 25 19  1  0  0  0  0
 26 20  1  0  0  0  0
 27 28  1  0  0  0  0
 28 35  1  0  0  0  0
 29 30  1  0  0  0  0
 29 28  2  0  0  0  0
 30 32  2  0  0  0  0
 31 30  1  0  0  0  0
 32 33  1  0  0  0  0
 32 34  1  0  0  0  0
 35 34  2  0  0  0  0
M  END
>  <minimizedAffinity>
-6.24210405

$$$$

 OpenBabel03272503213D

 35 38  0  0  0  0  0  0  0  0999 V2000
   37.5310   27.3220   34.0690 C   0  0  0  0  0  0  0  0  0  0  0  0
   37.8850   27.5930   35.3250 C   0  0  0  0  0  0  0  0  0  0  0  0
   38.6140   26.7000   36.0270 C   0  0  0  0  0  0  0  0  0  0  0  0
   38.9570   25.5290   35.3840 C   0  0  0  0  0  0  0  0  0  0  0  0
   38.1990   25.7480   33.7340 S   0  0  0  0  0  0  0  0  0  0  0  0
   37.5780   28.5480   35.7780 H   0  0  0  0  0  0  0  0  0  0  0  0
   38.9730   26.7780   37.0440 H   0  0  0  0  0  0  0  0  0  0  0  0
   37.5040   23.5950   37.2220 Cl  0  0  0  0  0  0  0  0  0  0  0  0
   39.1220   23.4480   36.6030 C   0  0  0  0  0  0  0  0  0  0  0  0
   39.7090   24.3580   35.7800 C   0  0  0  0  0  0  0  0  0  0  0  0
   40.9700   24.2960   35.2640 C   0  0  0  0  0  0  0  0  0  0  0  0
   41.7610   23.1880   35.6040 C   0  0  0  0  0  0  0  0  0  0  0  0
   41.2240   22.2250   36.4380 C   0  0  0  0  0  0  0  0  0  0  0  0
   42.1600   20.8200   36.9000 Cl  0  0  0  0  0  0  0  0  0  0  0  0
   39.9280   22.3500   36.9300 C   0  0  0  0  0  0  0  0  0  0  0  0
   41.4090   25.0380   34.6090 H   0  0  0  0  0  0  0  0  0  0  0  0
   42.7680   23.0960   35.2180 H   0  0  0  0  0  0  0  0  0  0  0  0
   39.5180   21.5900   37.5830 H   0  0  0  0  0  0  0  0  0  0  0  0
   36.3840   29.1040   30.9510 C   0  0  0  0  0  0  0  0  0  0  0  0
   37.2120   28.3320   31.7930 C   0  0  0  0  0  0  0  0  0  0  0  0
   36.7580   28.1130   33.1110 C   0  0  0  0  0  0  0  0  0  0  0  0
   35.5740   28.6360   33.5170 N   0  0  0  0  0  0  0  0  0  0  0  0
   34.8270   29.3670   32.6590 C   0  0  0  0  0  0  0  0  0  0  0  0
   35.2200   29.5970   31.4060 N   0  0  0  0  0  0  0  0  0  0  0  0
   36.7730   29.2430   29.9570 H   0  0  0  0  0  0  0  0  0  0  0  0
   38.1380   27.9190   31.4900 H   0  0  0  0  0  0  0  0  0  0  0  0
   34.9660   31.9950   34.1940 Cl  0  0  0  0  0  0  0  0  0  0  0  0
   33.5050   31.0800   33.8790 C   0  0  0  0  0  0  0  0  0  0  0  0
   33.5650   29.8960   33.1690 C   0  0  0  0  0  0  0  0  0  0  0  0
   32.3960   29.1970   32.9380 C   0  0  0  0  0  0  0  0  0  0  0  0
   32.4100   28.2670   32.3860 H   0  0  0  0  0  0  0  0  0  0  0  0
   31.1590   29.6150   33.3800 C   0  0  0  0  0  0  0  0  0  0  0  0
   30.2410   29.0650   33.1970 H   0  0  0  0  0  0  0  0  0  0  0  0
   31.1150   30.7970   34.0860 C   0  0  0  0  0  3  0  0  0  0  0  0
   32.2720   31.5140   34.3300 C   0  0  0  0  0  3  0  0  0  0  0  0
  1  2  2  0  0  0  0
  2  6  1  0  0  0  0
  2  3  1  0  0  0  0
  3  7  1  0  0  0  0
  4 10  1  0  0  0  0
  4  3  2  0  0  0  0
  5  1  1  0  0  0  0
  5  4  1  0  0  0  0
  9 15  1  0  0  0  0
  9  8  1  0  0  0  0
 10  9  2  0  0  0  0
 11 12  2  0  0  0  0
 11 10  1  0  0  0  0
 12 13  1  0  0  0  0
 13 14  1  0  0  0  0
 13 15  2  0  0  0  0
 15 18  1  0  0  0  0
 16 11  1  0  0  0  0
 17 12  1  0  0  0  0
 19 24  2  0  0  0  0
 19 20  1  0  0  0  0
 20 21  2  0  0  0  0
 21 22  1  0  0  0  0
 21  1  1  0  0  0  0
 23 29  1  0  0  0  0
 23 22  2  0  0  0  0
 24 23  1  0  0  0  0
 25 19  1  0  0  0  0
 26 20  1  0  0  0  0
 28 27  1  0  0  0  0
 28 35  1  0  0  0  0
 29 28  2  0  0  0  0
 30 29  1  0  0  0  0
 30 32  2  0  0  0  0
 31 30  1  0  0  0  0
 32 34  1  0  0  0  0
 33 32  1  0  0  0  0
 34 35  2  0  0  0  0
M  END
>  <minimizedAffinity>
-6.13825846

$$$$

 OpenBabel03272503213D

 35 38  0  0  0  0  0  0  0  0999 V2000
   37.0380   26.9960   33.0610 C   0  0  0  0  0  0  0  0  0  0  0  0
   36.5620   27.8850   32.1910 C   0  0  0  0  0  0  0  0  0  0  0  0
   35.9300   28.9920   32.6360 C   0  0  0  0  0  0  0  0  0  0  0  0
   35.8130   29.1380   34.0030 C   0  0  0  0  0  0  0  0  0  0  0  0
   36.6400   27.6330   34.6330 S   0  0  0  0  0  0  0  0  0  0  0  0
   36.6900   27.7080   31.1130 H   0  0  0  0  0  0  0  0  0  0  0  0
   35.4940   29.7960   32.0590 H   0  0  0  0  0  0  0  0  0  0  0  0
   32.7760   29.2010   34.0590 Cl  0  0  0  0  0  0  0  0  0  0  0  0
   33.8680   30.2400   34.9240 C   0  0  0  0  0  0  0  0  0  0  0  0
   35.2240   30.1520   34.8500 C   0  0  0  0  0  0  0  0  0  0  0  0
   36.1280   30.9370   35.5040 C   0  0  0  0  0  0  0  0  0  0  0  0
   35.6320   31.9440   36.3450 C   0  0  0  0  0  0  0  0  0  0  0  0
   34.2630   32.0870   36.4650 C   0  0  0  0  0  0  0  0  0  0  0  0
   33.5810   33.3260   37.4980 Cl  0  0  0  0  0  0  0  0  0  0  0  0
   33.3940   31.2520   35.7690 C   0  0  0  0  0  0  0  0  0  0  0  0
   37.2040   30.8400   35.4240 H   0  0  0  0  0  0  0  0  0  0  0  0
   36.3120   32.5900   36.8840 H   0  0  0  0  0  0  0  0  0  0  0  0
   32.3230   31.3740   35.8700 H   0  0  0  0  0  0  0  0  0  0  0  0
   38.4340   23.8680   31.4860 C   0  0  0  0  0  0  0  0  0  0  0  0
   37.7030   25.0690   31.5950 C   0  0  0  0  0  0  0  0  0  0  0  0
   37.7530   25.7390   32.8360 C   0  0  0  0  0  0  0  0  0  0  0  0
   38.4790   25.2220   33.8580 N   0  0  0  0  0  0  0  0  0  0  0  0
   39.1590   24.0640   33.6880 C   0  0  0  0  0  0  0  0  0  0  0  0
   39.1380   23.4010   32.5310 N   0  0  0  0  0  0  0  0  0  0  0  0
   38.3650   23.3950   30.5210 H   0  0  0  0  0  0  0  0  0  0  0  0
   37.1310   25.4840   30.8070 H   0  0  0  0  0  0  0  0  0  0  0  0
   37.6770   22.2480   35.6340 Cl  0  0  0  0  0  0  0  0  0  0  0  0
   39.3520   22.7410   35.7810 C   0  0  0  0  0  0  0  0  0  0  0  0
   39.9190   23.5710   34.8330 C   0  0  0  0  0  0  0  0  0  0  0  0
   41.2420   23.9420   34.9770 C   0  0  0  0  0  0  0  0  0  0  0  0
   41.7140   24.5910   34.2530 H   0  0  0  0  0  0  0  0  0  0  0  0
   42.0390   23.5290   36.0230 C   0  0  0  0  0  0  0  0  0  0  0  0
   43.0780   23.8210   36.1340 H   0  0  0  0  0  0  0  0  0  0  0  0
   41.4590   22.7020   36.9600 C   0  0  0  0  0  3  0  0  0  0  0  0
   40.1380   22.3170   36.8370 C   0  0  0  0  0  3  0  0  0  0  0  0
  1  5  1  0  0  0  0
  2  3  1  0  0  0  0
  2  1  2  0  0  0  0
  3  4  2  0  0  0  0
  4  5  1  0  0  0  0
  4 10  1  0  0  0  0
  6  2  1  0  0  0  0
  7  3  1  0  0  0  0
  8  9  1  0  0  0  0
  9 15  1  0  0  0  0
 10  9  2  0  0  0  0
 10 11  1  0  0  0  0
 11 12  2  0  0  0  0
 12 13  1  0  0  0  0
 12 17  1  0  0  0  0
 13 14  1  0  0  0  0
 15 18  1  0  0  0  0
 15 13  2  0  0  0  0
 16 11  1  0  0  0  0
 19 20  2  0  0  0  0
 19 24  1  0  0  0  0
 20 21  1  0  0  0  0
 21  1  1  0  0  0  0
 21 22  2  0  0  0  0
 23 22  1  0  0  0  0
 23 29  1  0  0  0  0
 24 23  2  0  0  0  0
 25 19  1  0  0  0  0
 26 20  1  0  0  0  0
 27 28  1  0  0  0  0
 28 35  1  0  0  0  0
 29 30  1  0  0  0  0
 29 28  2  0  0  0  0
 30 32  2  0  0  0  0
 31 30  1  0  0  0  0
 32 33  1  0  0  0  0
 32 34  1  0  0  0  0
 35 34  2  0  0  0  0
M  END
>  <minimizedAffinity>
-6.13526106

$$$$

 OpenBabel03272503213D

 35 38  0  0  0  0  0  0  0  0999 V2000
   36.5010   27.8320   33.6380 C   0  0  0  0  0  0  0  0  0  0  0  0
   35.9250   28.6300   32.7400 C   0  0  0  0  0  0  0  0  0  0  0  0
   35.4640   29.8430   33.1130 C   0  0  0  0  0  0  0  0  0  0  0  0
   35.6210   30.1910   34.4390 C   0  0  0  0  0  0  0  0  0  0  0  0
   36.4540   28.7180   35.1370 S   0  0  0  0  0  0  0  0  0  0  0  0
   35.8310   28.2910   31.6970 H   0  0  0  0  0  0  0  0  0  0  0  0
   34.9790   30.5940   32.5050 H   0  0  0  0  0  0  0  0  0  0  0  0
   32.9260   30.0910   35.8390 Cl  0  0  0  0  0  0  0  0  0  0  0  0
   34.0800   31.3910   35.8630 C   0  0  0  0  0  0  0  0  0  0  0  0
   35.2730   31.3640   35.2090 C   0  0  0  0  0  0  0  0  0  0  0  0
   36.2150   32.3500   35.1930 C   0  0  0  0  0  0  0  0  0  0  0  0
   35.9490   33.5220   35.9180 C   0  0  0  0  0  0  0  0  0  0  0  0
   34.7530   33.6130   36.6050 C   0  0  0  0  0  0  0  0  0  0  0  0
   34.3610   35.0490   37.5280 Cl  0  0  0  0  0  0  0  0  0  0  0  0
   33.8340   32.5690   36.5810 C   0  0  0  0  0  0  0  0  0  0  0  0
   37.1570   32.2980   34.6610 H   0  0  0  0  0  0  0  0  0  0  0  0
   36.6670   34.3300   35.9330 H   0  0  0  0  0  0  0  0  0  0  0  0
   32.9010   32.6520   37.1230 H   0  0  0  0  0  0  0  0  0  0  0  0
   37.6990   24.5570   32.2040 C   0  0  0  0  0  0  0  0  0  0  0  0
   37.1180   25.8420   32.2360 C   0  0  0  0  0  0  0  0  0  0  0  0
   37.0750   26.4950   33.4870 C   0  0  0  0  0  0  0  0  0  0  0  0
   37.5770   25.8840   34.5880 N   0  0  0  0  0  0  0  0  0  0  0  0
   38.1230   24.6490   34.4890 C   0  0  0  0  0  0  0  0  0  0  0  0
   38.1820   24.0000   33.3260 N   0  0  0  0  0  0  0  0  0  0  0  0
   37.7080   24.1020   31.2280 H   0  0  0  0  0  0  0  0  0  0  0  0
   36.7200   26.3300   31.3850 H   0  0  0  0  0  0  0  0  0  0  0  0
   40.9920   23.6290   34.4070 Cl  0  0  0  0  0  0  0  0  0  0  0  0
   39.9310   23.5620   35.8000 C   0  0  0  0  0  0  0  0  0  0  0  0
   38.6430   24.0580   35.7180 C   0  0  0  0  0  0  0  0  0  0  0  0
   37.8310   23.9900   36.8330 C   0  0  0  0  0  0  0  0  0  0  0  0
   36.8190   24.3690   36.8010 H   0  0  0  0  0  0  0  0  0  0  0  0
   38.2330   23.4500   38.0360 C   0  0  0  0  0  0  0  0  0  0  0  0
   37.5930   23.3980   38.9120 H   0  0  0  0  0  0  0  0  0  0  0  0
   39.5190   22.9600   38.1020 C   0  0  0  0  0  3  0  0  0  0  0  0
   40.3500   23.0170   36.9990 C   0  0  0  0  0  3  0  0  0  0  0  0
  1  5  1  0  0  0  0
  2  3  1  0  0  0  0
  2  1  2  0  0  0  0
  3  4  2  0  0  0  0
  4  5  1  0  0  0  0
  4 10  1  0  0  0  0
  6  2  1  0  0  0  0
  7  3  1  0  0  0  0
  8  9  1  0  0  0  0
  9 15  1  0  0  0  0
 10  9  2  0  0  0  0
 11 10  1  0  0  0  0
 11 12  2  0  0  0  0
 12 17  1  0  0  0  0
 12 13  1  0  0  0  0
 13 14  1  0  0  0  0
 15 13  2  0  0  0  0
 15 18  1  0  0  0  0
 16 11  1  0  0  0  0
 19 20  2  0  0  0  0
 19 24  1  0  0  0  0
 20 21  1  0  0  0  0
 21  1  1  0  0  0  0
 21 22  2  0  0  0  0
 23 22  1  0  0  0  0
 23 29  1  0  0  0  0
 24 23  2  0  0  0  0
 25 19  1  0  0  0  0
 26 20  1  0  0  0  0
 27 28  1  0  0  0  0
 28 35  1  0  0  0  0
 29 28  2  0  0  0  0
 29 30  1  0  0  0  0
 30 32  2  0  0  0  0
 31 30  1  0  0  0  0
 32 34  1  0  0  0  0
 32 33  1  0  0  0  0
 35 34  2  0  0  0  0
M  END
>  <minimizedAffinity>
-6.02614832

$$$$
