
 OpenBabel03272503193D

 35 38  0  0  0  0  0  0  0  0999 V2000
   36.6240   30.6540   47.4570 C   0  0  0  0  0  0  0  0  0  0  0  0
   37.6260   31.5080   47.6620 C   0  0  0  0  0  0  0  0  0  0  0  0
   38.1880   32.1510   46.6160 C   0  0  0  0  0  0  0  0  0  0  0  0
   37.6770   31.8750   45.3640 C   0  0  0  0  0  0  0  0  0  0  0  0
   36.3600   30.6610   45.7340 S   0  0  0  0  0  0  0  0  0  0  0  0
   37.9860   31.6820   48.6860 H   0  0  0  0  0  0  0  0  0  0  0  0
   39.0000   32.8650   46.6240 H   0  0  0  0  0  0  0  0  0  0  0  0
   40.6380   32.1350   44.7350 Cl  0  0  0  0  0  0  0  0  0  0  0  0
   39.3010   32.4850   43.6810 C   0  0  0  0  0  0  0  0  0  0  0  0
   37.9950   32.3430   44.0330 C   0  0  0  0  0  0  0  0  0  0  0  0
   36.9080   32.6010   43.2510 C   0  0  0  0  0  0  0  0  0  0  0  0
   37.1350   33.0600   41.9450 C   0  0  0  0  0  0  0  0  0  0  0  0
   38.4410   33.2260   41.5230 C   0  0  0  0  0  0  0  0  0  0  0  0
   38.7920   33.7960   39.9050 Cl  0  0  0  0  0  0  0  0  0  0  0  0
   39.5070   32.9440   42.3730 C   0  0  0  0  0  0  0  0  0  0  0  0
   35.8780   32.4780   43.5620 H   0  0  0  0  0  0  0  0  0  0  0  0
   36.3030   33.2780   41.2890 H   0  0  0  0  0  0  0  0  0  0  0  0
   40.5260   33.0780   42.0320 H   0  0  0  0  0  0  0  0  0  0  0  0
   35.1790   29.2090   50.6250 C   0  0  0  0  0  0  0  0  0  0  0  0
   35.9690   30.0370   49.8010 C   0  0  0  0  0  0  0  0  0  0  0  0
   35.8570   29.8480   48.4060 C   0  0  0  0  0  0  0  0  0  0  0  0
   35.0170   28.9030   47.9150 N   0  0  0  0  0  0  0  0  0  0  0  0
   34.2850   28.1410   48.7610 C   0  0  0  0  0  0  0  0  0  0  0  0
   34.3630   28.2890   50.0840 N   0  0  0  0  0  0  0  0  0  0  0  0
   35.2990   29.3910   51.6790 H   0  0  0  0  0  0  0  0  0  0  0  0
   36.6290   30.7770   50.1700 H   0  0  0  0  0  0  0  0  0  0  0  0
   31.3360   28.2910   49.5100 Cl  0  0  0  0  0  0  0  0  0  0  0  0
   32.0480   27.1160   48.4220 C   0  0  0  0  0  0  0  0  0  0  0  0
   33.4040   27.1460   48.1570 C   0  0  0  0  0  0  0  0  0  0  0  0
   33.9360   26.2060   47.2960 C   0  0  0  0  0  0  0  0  0  0  0  0
   34.9930   26.2020   47.0680 H   0  0  0  0  0  0  0  0  0  0  0  0
   33.1850   25.2290   46.6780 C   0  0  0  0  0  0  0  0  0  0  0  0
   33.6050   24.4910   46.0000 H   0  0  0  0  0  0  0  0  0  0  0  0
   31.8350   25.2110   46.9520 C   0  0  0  0  0  0  0  0  0  0  0  0
   31.2810   26.1420   47.8110 C   0  0  0  0  0  0  0  0  0  0  0  0
  1  2  2  0  0  0  0
  1 21  1  0  0  0  0
  2  6  1  0  0  0  0
  3  7  1  0  0  0  0
  3  2  1  0  0  0  0
  4  5  1  0  0  0  0
  4  3  2  0  0  0  0
  5  1  1  0  0  0  0
  9 10  1  0  0  0  0
  9  8  1  0  0  0  0
 10  4  1  0  0  0  0
 11 16  1  0  0  0  0
 11 10  2  0  0  0  0
 12 11  1  0  0  0  0
 13 12  2  0  0  0  0
 13 15  1  0  0  0  0
 14 13  1  0  0  0  0
 15  9  2  0  0  0  0
 17 12  1  0  0  0  0
 18 15  1  0  0  0  0
 19 25  1  0  0  0  0
 20 26  1  0  0  0  0
 20 19  2  0  0  0  0
 21 20  1  0  0  0  0
 22 21  2  0  0  0  0
 22 23  1  0  0  0  0
 23 24  2  0  0  0  0
 24 19  1  0  0  0  0
 28 27  1  0  0  0  0
 29 28  1  0  0  0  0
 29 23  1  0  0  0  0
 30 29  2  0  0  0  0
 31 30  1  0  0  0  0
 32 34  2  0  0  0  0
 32 30  1  0  0  0  0
 33 32  1  0  0  0  0
 34 35  1  0  0  0  0
 35 28  2  0  0  0  0
M  END
>  <minimizedAffinity>
-5.78631783

>  <minimizedRMSD>
2.15634656

$$$$
