
 OpenBabel03272508483D

 40 44  0  0  0  0  0  0  0  0999 V2000
   35.4980   29.5450   49.6440 C   0  0  0  0  0  0  0  0  0  0  0  0
   36.5280   29.1750   50.4850 C   0  0  0  0  0  0  0  0  0  0  0  0
   37.6650   29.6800   49.8560 C   0  0  0  0  0  0  0  0  0  0  0  0
   37.2870   30.3180   48.6930 C   0  0  0  0  0  0  0  0  0  0  0  0
   35.9810   30.2130   48.6040 O   0  0  0  0  0  0  0  0  0  0  0  0
   36.5420   28.6310   51.4130 H   0  0  0  0  0  0  0  0  0  0  0  0
   38.7090   29.6220   50.1660 H   0  0  0  0  0  0  0  0  0  0  0  0
   38.5920   32.2600   47.9860 C   0  0  0  0  0  0  0  0  0  0  0  0
   38.1550   30.9800   47.7420 C   0  0  0  0  0  0  0  0  0  0  0  0
   38.5340   30.2940   46.5830 C   0  0  0  0  0  0  0  0  0  0  0  0
   39.3620   30.8980   45.6560 C   0  0  0  0  0  0  0  0  0  0  0  0
   39.8940   30.5180   44.4740 N   0  0  0  0  0  0  0  0  0  0  0  0
   40.6230   31.5300   44.0230 N   0  0  0  0  0  0  0  0  0  0  0  0
   40.5660   32.5520   44.8990 C   0  0  0  0  0  0  0  0  0  0  0  0
   39.7650   32.1790   45.9550 C   0  0  0  0  0  0  0  0  0  0  0  0
   39.4360   32.9120   47.0690 C   0  0  0  0  0  0  0  0  0  0  0  0
   38.2930   32.7910   48.8920 H   0  0  0  0  0  0  0  0  0  0  0  0
   38.2140   29.2800   46.3460 H   0  0  0  0  0  0  0  0  0  0  0  0
   39.7140   29.5780   44.0580 H   0  0  0  0  0  0  0  0  0  0  0  0
   41.0800   33.5180   44.7750 H   0  0  0  0  0  0  0  0  0  0  0  0
   39.8020   33.9170   47.2230 H   0  0  0  0  0  0  0  0  0  0  0  0
   34.1030   29.2380   49.8810 C   0  0  0  0  0  0  0  0  0  0  0  0
   33.5350   29.7760   50.8590 O   0  0  0  0  0  0  0  0  0  0  0  0
   31.3940   27.2660   48.4500 C   0  0  0  0  0  0  0  0  0  0  0  0
   32.0020   26.6330   47.3810 C   0  0  0  0  0  0  0  0  0  0  0  0
   33.3400   26.8640   47.1260 C   0  0  0  0  0  0  0  0  0  0  0  0
   33.9920   27.7080   47.9490 N   0  0  0  0  0  0  0  0  0  0  0  0
   33.3880   28.3200   48.9890 C   0  0  0  0  0  0  0  0  0  0  0  0
   32.0910   28.0900   49.2280 N   0  0  0  0  0  0  0  0  0  0  0  0
   30.3420   27.1230   48.6990 H   0  0  0  0  0  0  0  0  0  0  0  0
   31.4190   25.9740   46.7680 H   0  0  0  0  0  0  0  0  0  0  0  0
   34.2370   24.0900   47.6350 Cl  0  0  0  0  0  0  0  0  0  0  0  0
   34.5030   24.9400   46.1520 C   0  0  0  0  0  0  0  0  0  0  0  0
   34.0440   26.2290   46.0200 C   0  0  0  0  0  0  0  0  0  0  0  0
   34.2970   26.8300   44.8060 C   0  0  0  0  0  0  0  0  0  0  0  0
   33.9600   27.8440   44.6430 H   0  0  0  0  0  0  0  0  0  0  0  0
   34.9630   26.2010   43.7830 C   0  0  0  0  0  0  0  0  0  0  0  0
   35.1490   26.7020   42.8320 H   0  0  0  0  0  0  0  0  0  0  0  0
   35.4080   24.9080   43.9540 C   0  0  0  0  0  0  0  0  0  0  0  0
   35.1820   24.2610   45.1470 C   0  0  0  0  0  0  0  0  0  0  0  0
  1 22  1  0  0  0  0
  1  2  2  0  0  0  0
  2  6  1  0  0  0  0
  3  7  1  0  0  0  0
  3  2  1  0  0  0  0
  4  3  2  0  0  0  0
  5  4  1  0  0  0  0
  5  1  1  0  0  0  0
  8 17  1  0  0  0  0
  9  8  1  0  0  0  0
  9  4  1  0  0  0  0
 10  9  2  0  0  0  0
 11 15  2  0  0  0  0
 11 10  1  0  0  0  0
 12 11  1  0  0  0  0
 13 12  1  0  0  0  0
 13 14  2  0  0  0  0
 14 15  1  0  0  0  0
 15 16  1  0  0  0  0
 16 21  1  0  0  0  0
 16  8  2  0  0  0  0
 18 10  1  0  0  0  0
 19 12  1  0  0  0  0
 20 14  1  0  0  0  0
 22 23  2  0  0  0  0
 24 30  1  0  0  0  0
 24 29  1  0  0  0  0
 25 24  2  0  0  0  0
 26 25  1  0  0  0  0
 26 27  2  0  0  0  0
 27 28  1  0  0  0  0
 28 29  2  0  0  0  0
 28 22  1  0  0  0  0
 31 25  1  0  0  0  0
 33 32  1  0  0  0  0
 34 33  1  0  0  0  0
 34 26  1  0  0  0  0
 35 34  2  0  0  0  0
 36 35  1  0  0  0  0
 37 39  2  0  0  0  0
 37 35  1  0  0  0  0
 38 37  1  0  0  0  0
 39 40  1  0  0  0  0
 40 33  2  0  0  0  0
M  END
>  <minimizedAffinity>
-6.85948944

>  <minimizedRMSD>
1.00342214

$$$$
