
 OpenBabel03272510333D

 28 30  0  0  0  0  0  0  0  0999 V2000
   34.8800   28.8030   48.5280 C   0  0  0  0  0  0  0  0  0  0  0  0
   35.6130   28.5570   49.6550 C   0  0  0  0  0  0  0  0  0  0  0  0
   36.6340   29.4060   50.0570 C   0  0  0  0  0  0  0  0  0  0  0  0
   36.9000   30.5200   49.2860 C   0  0  0  0  0  0  0  0  0  0  0  0
   36.1730   30.7970   48.1360 C   0  0  0  0  0  0  0  0  0  0  0  0
   35.1630   29.9260   47.7680 C   0  0  0  0  0  0  0  0  0  0  0  0
   35.4080   27.6820   50.2650 H   0  0  0  0  0  0  0  0  0  0  0  0
   37.1830   29.1620   50.9610 H   0  0  0  0  0  0  0  0  0  0  0  0
   37.7050   31.1560   49.6360 H   0  0  0  0  0  0  0  0  0  0  0  0
   36.4230   31.6910   47.5620 H   0  0  0  0  0  0  0  0  0  0  0  0
   31.6260   27.1830   48.5620 C   0  0  0  0  0  0  0  0  0  0  0  0
   31.7410   26.1390   47.6470 C   0  0  0  0  0  0  0  0  0  0  0  0
   32.9970   25.9960   46.9960 C   0  0  0  0  0  0  0  0  0  0  0  0
   34.0050   26.8690   47.2930 N   0  0  0  0  0  0  0  0  0  0  0  0
   33.8340   27.8600   48.1870 C   0  0  0  0  0  0  0  0  0  0  0  0
   32.6420   28.0050   48.8140 N   0  0  0  0  0  0  0  0  0  0  0  0
   30.6590   27.2630   49.0380 H   0  0  0  0  0  0  0  0  0  0  0  0
   30.9840   25.4380   47.3860 H   0  0  0  0  0  0  0  0  0  0  0  0
   33.2260   25.2260   46.2600 H   0  0  0  0  0  0  0  0  0  0  0  0
   36.7970   29.7400   45.3210 Cl  0  0  0  0  0  0  0  0  0  0  0  0
   35.0800   30.1280   45.3750 C   0  0  0  0  0  0  0  0  0  0  0  0
   34.3850   30.1950   46.5630 C   0  0  0  0  0  0  0  0  0  0  0  0
   33.0280   30.5040   46.5760 C   0  0  0  0  0  0  0  0  0  0  0  0
   32.5460   30.5410   47.5340 H   0  0  0  0  0  0  0  0  0  0  0  0
   32.4110   30.7360   45.3780 C   0  0  0  0  0  0  0  0  0  0  0  0
   31.3600   30.9780   45.3530 H   0  0  0  0  0  0  0  0  0  0  0  0
   33.0670   30.6780   44.1880 C   0  0  0  0  0  3  0  0  0  0  0  0
   34.4210   30.3690   44.1830 C   0  0  0  0  0  3  0  0  0  0  0  0
  1  2  1  0  0  0  0
  2  3  2  0  0  0  0
  2  7  1  0  0  0  0
  3  8  1  0  0  0  0
  4  9  1  0  0  0  0
  4  3  1  0  0  0  0
  5  4  2  0  0  0  0
  6  5  1  0  0  0  0
  6  1  2  0  0  0  0
 10  5  1  0  0  0  0
 11 16  1  0  0  0  0
 11 17  1  0  0  0  0
 12 11  2  0  0  0  0
 13 14  2  0  0  0  0
 13 12  1  0  0  0  0
 14 15  1  0  0  0  0
 15  1  1  0  0  0  0
 15 16  2  0  0  0  0
 18 12  1  0  0  0  0
 19 13  1  0  0  0  0
 20 21  1  0  0  0  0
 21 22  1  0  0  0  0
 22 23  2  0  0  0  0
 22  6  1  0  0  0  0
 23 24  1  0  0  0  0
 25 23  1  0  0  0  0
 26 25  1  0  0  0  0
 27 25  2  0  0  0  0
 28 27  1  0  0  0  0
 28 21  2  0  0  0  0
M  END
>  <minimizedAffinity>
-4.62343931

>  <minimizedRMSD>
6.52850437

$$$$
