
 OpenBabel03272508503D

 40 44  0  0  0  0  0  0  0  0999 V2000
   37.6310   26.7430   34.0430 C   0  0  0  0  0  0  0  0  0  0  0  0
   37.8550   27.5000   35.1750 C   0  0  0  0  0  0  0  0  0  0  0  0
   38.8280   26.7790   35.8660 C   0  0  0  0  0  0  0  0  0  0  0  0
   39.1430   25.6460   35.1450 C   0  0  0  0  0  0  0  0  0  0  0  0
   38.4030   25.6640   34.0600 O   0  0  0  0  0  0  0  0  0  0  0  0
   37.4320   28.4270   35.5200 H   0  0  0  0  0  0  0  0  0  0  0  0
   39.3080   27.0040   36.8200 H   0  0  0  0  0  0  0  0  0  0  0  0
   41.3380   24.5990   34.8970 C   0  0  0  0  0  0  0  0  0  0  0  0
   40.1050   24.6250   35.5030 C   0  0  0  0  0  0  0  0  0  0  0  0
   39.7520   23.6770   36.4690 C   0  0  0  0  0  0  0  0  0  0  0  0
   40.6470   22.6890   36.8350 C   0  0  0  0  0  0  0  0  0  0  0  0
   40.6150   21.6590   37.7070 N   0  0  0  0  0  0  0  0  0  0  0  0
   41.7830   21.0360   37.6290 N   0  0  0  0  0  0  0  0  0  0  0  0
   42.5630   21.6520   36.7210 C   0  0  0  0  0  0  0  0  0  0  0  0
   41.8640   22.7150   36.1930 C   0  0  0  0  0  0  0  0  0  0  0  0
   42.2790   23.6110   35.2390 C   0  0  0  0  0  0  0  0  0  0  0  0
   41.6080   25.3420   34.1430 H   0  0  0  0  0  0  0  0  0  0  0  0
   38.7890   23.6560   36.9770 H   0  0  0  0  0  0  0  0  0  0  0  0
   39.7810   21.4560   38.3000 H   0  0  0  0  0  0  0  0  0  0  0  0
   43.5870   21.3450   36.4560 H   0  0  0  0  0  0  0  0  0  0  0  0
   43.2590   23.5560   34.7870 H   0  0  0  0  0  0  0  0  0  0  0  0
   36.6850   27.0940   33.0050 C   0  0  0  0  0  0  0  0  0  0  0  0
   36.3750   26.2180   32.1640 O   0  0  0  0  0  0  0  0  0  0  0  0
   35.8530   30.4160   31.7600 C   0  0  0  0  0  0  0  0  0  0  0  0
   35.0890   30.9480   32.7830 C   0  0  0  0  0  0  0  0  0  0  0  0
   34.8430   30.1900   33.9120 C   0  0  0  0  0  0  0  0  0  0  0  0
   35.3700   28.9510   33.9560 N   0  0  0  0  0  0  0  0  0  0  0  0
   36.1140   28.4430   32.9510 C   0  0  0  0  0  0  0  0  0  0  0  0
   36.3470   29.1850   31.8610 N   0  0  0  0  0  0  0  0  0  0  0  0
   36.0800   30.9660   30.8470 H   0  0  0  0  0  0  0  0  0  0  0  0
   34.7010   31.9420   32.6790 H   0  0  0  0  0  0  0  0  0  0  0  0
   36.3380   31.7950   35.8990 Cl  0  0  0  0  0  0  0  0  0  0  0  0
   34.6480   31.4450   36.0070 C   0  0  0  0  0  0  0  0  0  0  0  0
   34.0490   30.6890   35.0270 C   0  0  0  0  0  0  0  0  0  0  0  0
   32.7000   30.4610   35.1920 C   0  0  0  0  0  0  0  0  0  0  0  0
   32.1750   29.8720   34.4530 H   0  0  0  0  0  0  0  0  0  0  0  0
   31.9820   30.9480   36.2560 C   0  0  0  0  0  0  0  0  0  0  0  0
   30.9140   30.7510   36.3600 H   0  0  0  0  0  0  0  0  0  0  0  0
   32.6190   31.7030   37.2180 C   0  0  0  0  0  3  0  0  0  0  0  0
   33.9650   31.9600   37.1030 C   0  0  0  0  0  3  0  0  0  0  0  0
  1  5  1  0  0  0  0
  1  2  2  0  0  0  0
  2  6  1  0  0  0  0
  2  3  1  0  0  0  0
  3  7  1  0  0  0  0
  4  9  1  0  0  0  0
  4  3  2  0  0  0  0
  5  4  1  0  0  0  0
  8 16  2  0  0  0  0
  8  9  1  0  0  0  0
  9 10  2  0  0  0  0
 10 11  1  0  0  0  0
 10 18  1  0  0  0  0
 11 12  1  0  0  0  0
 12 19  1  0  0  0  0
 13 12  1  0  0  0  0
 14 13  2  0  0  0  0
 15 14  1  0  0  0  0
 15 11  2  0  0  0  0
 16 15  1  0  0  0  0
 17  8  1  0  0  0  0
 20 14  1  0  0  0  0
 21 16  1  0  0  0  0
 22  1  1  0  0  0  0
 23 22  2  0  0  0  0
 24 29  2  0  0  0  0
 24 25  1  0  0  0  0
 25 26  2  0  0  0  0
 26 27  1  0  0  0  0
 26 34  1  0  0  0  0
 28 22  1  0  0  0  0
 28 27  2  0  0  0  0
 29 28  1  0  0  0  0
 30 24  1  0  0  0  0
 31 25  1  0  0  0  0
 32 33  1  0  0  0  0
 33 40  1  0  0  0  0
 34 35  1  0  0  0  0
 34 33  2  0  0  0  0
 35 37  2  0  0  0  0
 36 35  1  0  0  0  0
 37 38  1  0  0  0  0
 37 39  1  0  0  0  0
 40 39  2  0  0  0  0
M  END
>  <minimizedAffinity>
-7.27192211

$$$$

 OpenBabel03272508503D

 40 44  0  0  0  0  0  0  0  0999 V2000
   36.6200   25.9910   31.9260 C   0  0  0  0  0  0  0  0  0  0  0  0
   35.4600   25.9210   31.1820 C   0  0  0  0  0  0  0  0  0  0  0  0
   35.2180   24.5520   31.0760 C   0  0  0  0  0  0  0  0  0  0  0  0
   36.2150   23.8690   31.7410 C   0  0  0  0  0  0  0  0  0  0  0  0
   37.0340   24.7690   32.2350 O   0  0  0  0  0  0  0  0  0  0  0  0
   34.8320   26.6810   30.7510 H   0  0  0  0  0  0  0  0  0  0  0  0
   34.4040   24.0320   30.5700 H   0  0  0  0  0  0  0  0  0  0  0  0
   37.5890   21.8660   32.0180 C   0  0  0  0  0  0  0  0  0  0  0  0
   36.3450   22.4330   31.8760 C   0  0  0  0  0  0  0  0  0  0  0  0
   35.1880   21.6470   31.8580 C   0  0  0  0  0  0  0  0  0  0  0  0
   35.2780   20.2740   31.9850 C   0  0  0  0  0  0  0  0  0  0  0  0
   34.3790   19.2660   32.0060 N   0  0  0  0  0  0  0  0  0  0  0  0
   35.0560   18.1340   32.1550 N   0  0  0  0  0  0  0  0  0  0  0  0
   36.3730   18.4030   32.2310 C   0  0  0  0  0  0  0  0  0  0  0  0
   36.5490   19.7650   32.1240 C   0  0  0  0  0  0  0  0  0  0  0  0
   37.7250   20.4730   32.1500 C   0  0  0  0  0  0  0  0  0  0  0  0
   38.4880   22.4850   32.0310 H   0  0  0  0  0  0  0  0  0  0  0  0
   34.1810   22.0490   31.7480 H   0  0  0  0  0  0  0  0  0  0  0  0
   33.3530   19.4300   31.9150 H   0  0  0  0  0  0  0  0  0  0  0  0
   37.1650   17.6490   32.3560 H   0  0  0  0  0  0  0  0  0  0  0  0
   38.6840   19.9870   32.2640 H   0  0  0  0  0  0  0  0  0  0  0  0
   37.2740   27.2270   32.3010 C   0  0  0  0  0  0  0  0  0  0  0  0
   38.4840   27.1860   32.6190 O   0  0  0  0  0  0  0  0  0  0  0  0
   35.6510   30.2510   31.0760 C   0  0  0  0  0  0  0  0  0  0  0  0
   35.1440   30.8210   32.2300 C   0  0  0  0  0  0  0  0  0  0  0  0
   35.3440   30.1910   33.4430 C   0  0  0  0  0  0  0  0  0  0  0  0
   36.0340   29.0340   33.4360 N   0  0  0  0  0  0  0  0  0  0  0  0
   36.5240   28.4870   32.3030 C   0  0  0  0  0  0  0  0  0  0  0  0
   36.3250   29.1060   31.1320 N   0  0  0  0  0  0  0  0  0  0  0  0
   35.5240   30.7020   30.0910 H   0  0  0  0  0  0  0  0  0  0  0  0
   34.6040   31.7450   32.1600 H   0  0  0  0  0  0  0  0  0  0  0  0
   32.5630   29.4350   34.1160 Cl  0  0  0  0  0  0  0  0  0  0  0  0
   33.5610   30.4460   35.1030 C   0  0  0  0  0  0  0  0  0  0  0  0
   34.8420   30.7360   34.6970 C   0  0  0  0  0  0  0  0  0  0  0  0
   35.5660   31.5460   35.5450 C   0  0  0  0  0  0  0  0  0  0  0  0
   36.5800   31.8090   35.2780 H   0  0  0  0  0  0  0  0  0  0  0  0
   35.0600   32.0420   36.7210 C   0  0  0  0  0  0  0  0  0  0  0  0
   35.6580   32.6820   37.3730 H   0  0  0  0  0  0  0  0  0  0  0  0
   33.7710   31.7280   37.0940 C   0  0  0  0  0  3  0  0  0  0  0  0
   33.0040   30.9230   36.2840 C   0  0  0  0  0  3  0  0  0  0  0  0
  1  5  1  0  0  0  0
  1 22  1  0  0  0  0
  2  1  2  0  0  0  0
  3  2  1  0  0  0  0
  3  4  2  0  0  0  0
  4  9  1  0  0  0  0
  4  5  1  0  0  0  0
  6  2  1  0  0  0  0
  7  3  1  0  0  0  0
  8 17  1  0  0  0  0
  8 16  1  0  0  0  0
  9  8  2  0  0  0  0
 10  9  1  0  0  0  0
 10 11  2  0  0  0  0
 11 12  1  0  0  0  0
 11 15  1  0  0  0  0
 12 13  1  0  0  0  0
 13 14  2  0  0  0  0
 14 20  1  0  0  0  0
 15 16  2  0  0  0  0
 15 14  1  0  0  0  0
 16 21  1  0  0  0  0
 18 10  1  0  0  0  0
 19 12  1  0  0  0  0
 22 28  1  0  0  0  0
 22 23  2  0  0  0  0
 24 29  2  0  0  0  0
 24 25  1  0  0  0  0
 25 26  2  0  0  0  0
 26 34  1  0  0  0  0
 27 26  1  0  0  0  0
 28 27  2  0  0  0  0
 29 28  1  0  0  0  0
 30 24  1  0  0  0  0
 31 25  1  0  0  0  0
 32 33  1  0  0  0  0
 33 40  1  0  0  0  0
 34 33  2  0  0  0  0
 34 35  1  0  0  0  0
 35 37  2  0  0  0  0
 36 35  1  0  0  0  0
 37 39  1  0  0  0  0
 37 38  1  0  0  0  0
 40 39  2  0  0  0  0
M  END
>  <minimizedAffinity>
-7.2165556

$$$$

 OpenBabel03272508503D

 40 44  0  0  0  0  0  0  0  0999 V2000
   38.1890   26.2350   33.7110 C   0  0  0  0  0  0  0  0  0  0  0  0
   38.9290   27.2500   34.2820 C   0  0  0  0  0  0  0  0  0  0  0  0
   39.9670   26.5780   34.9280 C   0  0  0  0  0  0  0  0  0  0  0  0
   39.8150   25.2220   34.7260 C   0  0  0  0  0  0  0  0  0  0  0  0
   38.7380   25.0610   33.9930 O   0  0  0  0  0  0  0  0  0  0  0  0
   38.8100   28.3190   34.2820 H   0  0  0  0  0  0  0  0  0  0  0  0
   40.7940   26.9830   35.5130 H   0  0  0  0  0  0  0  0  0  0  0  0
   41.8990   23.9460   34.6410 C   0  0  0  0  0  0  0  0  0  0  0  0
   40.6740   24.1670   35.2240 C   0  0  0  0  0  0  0  0  0  0  0  0
   40.2310   23.3890   36.2970 C   0  0  0  0  0  0  0  0  0  0  0  0
   41.0260   22.3740   36.7960 C   0  0  0  0  0  0  0  0  0  0  0  0
   40.8940   21.4710   37.7920 N   0  0  0  0  0  0  0  0  0  0  0  0
   41.9970   20.7340   37.8080 N   0  0  0  0  0  0  0  0  0  0  0  0
   42.8330   21.1520   36.8400 C   0  0  0  0  0  0  0  0  0  0  0  0
   42.2400   22.2010   36.1720 C   0  0  0  0  0  0  0  0  0  0  0  0
   42.7400   22.9250   35.1170 C   0  0  0  0  0  0  0  0  0  0  0  0
   42.2390   24.5580   33.8030 H   0  0  0  0  0  0  0  0  0  0  0  0
   39.2700   23.5250   36.7920 H   0  0  0  0  0  0  0  0  0  0  0  0
   40.0440   21.4260   38.3950 H   0  0  0  0  0  0  0  0  0  0  0  0
   43.8220   20.7170   36.6280 H   0  0  0  0  0  0  0  0  0  0  0  0
   43.7100   22.7180   34.6880 H   0  0  0  0  0  0  0  0  0  0  0  0
   36.9920   26.4450   32.9240 C   0  0  0  0  0  0  0  0  0  0  0  0
   36.4420   25.4480   32.4030 O   0  0  0  0  0  0  0  0  0  0  0  0
   35.9600   29.5440   31.3090 C   0  0  0  0  0  0  0  0  0  0  0  0
   35.4590   30.2900   32.3600 C   0  0  0  0  0  0  0  0  0  0  0  0
   35.4620   29.7560   33.6340 C   0  0  0  0  0  0  0  0  0  0  0  0
   35.9620   28.5140   33.7860 N   0  0  0  0  0  0  0  0  0  0  0  0
   36.4490   27.7960   32.7530 C   0  0  0  0  0  0  0  0  0  0  0  0
   36.4420   28.3220   31.5210 N   0  0  0  0  0  0  0  0  0  0  0  0
   35.9840   29.9120   30.2830 H   0  0  0  0  0  0  0  0  0  0  0  0
   35.0760   31.2720   32.1640 H   0  0  0  0  0  0  0  0  0  0  0  0
   32.5710   29.4080   34.1640 Cl  0  0  0  0  0  0  0  0  0  0  0  0
   33.6220   30.3950   35.1200 C   0  0  0  0  0  0  0  0  0  0  0  0
   34.9520   30.4870   34.7870 C   0  0  0  0  0  0  0  0  0  0  0  0
   35.7170   31.2920   35.6030 C   0  0  0  0  0  0  0  0  0  0  0  0
   36.7700   31.4040   35.3900 H   0  0  0  0  0  0  0  0  0  0  0  0
   35.2030   31.9670   36.6830 C   0  0  0  0  0  0  0  0  0  0  0  0
   35.8330   32.5970   37.3130 H   0  0  0  0  0  0  0  0  0  0  0  0
   33.8630   31.8480   36.9850 C   0  0  0  0  0  3  0  0  0  0  0  0
   33.0550   31.0570   36.2030 C   0  0  0  0  0  3  0  0  0  0  0  0
  1  5  1  0  0  0  0
  1  2  2  0  0  0  0
  2  3  1  0  0  0  0
  3  7  1  0  0  0  0
  4  3  2  0  0  0  0
  4  9  1  0  0  0  0
  5  4  1  0  0  0  0
  6  2  1  0  0  0  0
  8 16  2  0  0  0  0
  8  9  1  0  0  0  0
  9 10  2  0  0  0  0
 10 18  1  0  0  0  0
 10 11  1  0  0  0  0
 11 12  1  0  0  0  0
 12 13  1  0  0  0  0
 12 19  1  0  0  0  0
 14 13  2  0  0  0  0
 15 11  2  0  0  0  0
 15 14  1  0  0  0  0
 16 15  1  0  0  0  0
 17  8  1  0  0  0  0
 20 14  1  0  0  0  0
 21 16  1  0  0  0  0
 22  1  1  0  0  0  0
 23 22  2  0  0  0  0
 24 29  2  0  0  0  0
 24 25  1  0  0  0  0
 25 26  2  0  0  0  0
 26 27  1  0  0  0  0
 26 34  1  0  0  0  0
 28 22  1  0  0  0  0
 28 27  2  0  0  0  0
 29 28  1  0  0  0  0
 30 24  1  0  0  0  0
 31 25  1  0  0  0  0
 32 33  1  0  0  0  0
 33 40  1  0  0  0  0
 34 33  2  0  0  0  0
 34 35  1  0  0  0  0
 35 37  2  0  0  0  0
 36 35  1  0  0  0  0
 37 39  1  0  0  0  0
 37 38  1  0  0  0  0
 40 39  2  0  0  0  0
M  END
>  <minimizedAffinity>
-7.1975894

$$$$

 OpenBabel03272508503D

 40 44  0  0  0  0  0  0  0  0999 V2000
   37.3810   27.8530   32.3000 C   0  0  0  0  0  0  0  0  0  0  0  0
   36.8640   28.5700   31.2410 C   0  0  0  0  0  0  0  0  0  0  0  0
   35.9260   29.4120   31.8380 C   0  0  0  0  0  0  0  0  0  0  0  0
   35.9130   29.1740   33.1960 C   0  0  0  0  0  0  0  0  0  0  0  0
   36.7990   28.2340   33.4300 O   0  0  0  0  0  0  0  0  0  0  0  0
   37.0740   28.5520   30.1860 H   0  0  0  0  0  0  0  0  0  0  0  0
   35.2740   30.1560   31.3780 H   0  0  0  0  0  0  0  0  0  0  0  0
   33.7470   29.5280   34.2730 C   0  0  0  0  0  0  0  0  0  0  0  0
   35.0850   29.8310   34.1860 C   0  0  0  0  0  0  0  0  0  0  0  0
   35.6730   30.7690   35.0410 C   0  0  0  0  0  0  0  0  0  0  0  0
   34.9100   31.4130   35.9970 C   0  0  0  0  0  0  0  0  0  0  0  0
   35.1670   32.3400   36.9450 N   0  0  0  0  0  0  0  0  0  0  0  0
   34.0280   32.5870   37.5780 N   0  0  0  0  0  0  0  0  0  0  0  0
   33.0460   31.8310   37.0510 C   0  0  0  0  0  0  0  0  0  0  0  0
   33.5780   31.0680   36.0350 C   0  0  0  0  0  0  0  0  0  0  0  0
   32.9350   30.1600   35.2320 C   0  0  0  0  0  0  0  0  0  0  0  0
   33.2940   28.7940   33.6030 H   0  0  0  0  0  0  0  0  0  0  0  0
   36.7270   31.0420   35.0110 H   0  0  0  0  0  0  0  0  0  0  0  0
   36.1190   32.7420   37.0890 H   0  0  0  0  0  0  0  0  0  0  0  0
   31.9970   31.8350   37.3870 H   0  0  0  0  0  0  0  0  0  0  0  0
   31.8790   29.9500   35.3330 H   0  0  0  0  0  0  0  0  0  0  0  0
   38.4050   26.8380   32.1740 C   0  0  0  0  0  0  0  0  0  0  0  0
   39.4600   27.1320   31.5670 O   0  0  0  0  0  0  0  0  0  0  0  0
   37.5770   23.2970   32.4020 C   0  0  0  0  0  0  0  0  0  0  0  0
   37.7920   23.0130   33.7380 C   0  0  0  0  0  0  0  0  0  0  0  0
   38.2200   24.0170   34.5860 C   0  0  0  0  0  0  0  0  0  0  0  0
   38.4100   25.2400   34.0540 N   0  0  0  0  0  0  0  0  0  0  0  0
   38.1970   25.5050   32.7470 C   0  0  0  0  0  0  0  0  0  0  0  0
   37.7810   24.5250   31.9350 N   0  0  0  0  0  0  0  0  0  0  0  0
   37.2390   22.5460   31.6870 H   0  0  0  0  0  0  0  0  0  0  0  0
   37.6200   22.0150   34.0920 H   0  0  0  0  0  0  0  0  0  0  0  0
   40.7240   22.5690   35.2150 Cl  0  0  0  0  0  0  0  0  0  0  0  0
   39.5980   23.1250   36.4040 C   0  0  0  0  0  0  0  0  0  0  0  0
   38.4630   23.7890   36.0040 C   0  0  0  0  0  0  0  0  0  0  0  0
   37.6230   24.1980   37.0170 C   0  0  0  0  0  0  0  0  0  0  0  0
   36.7150   24.7250   36.7630 H   0  0  0  0  0  0  0  0  0  0  0  0
   37.8850   23.9680   38.3460 C   0  0  0  0  0  0  0  0  0  0  0  0
   37.2000   24.3040   39.1270 H   0  0  0  0  0  0  0  0  0  0  0  0
   39.0330   23.2980   38.7070 C   0  0  0  0  0  3  0  0  0  0  0  0
   39.9060   22.8680   37.7350 C   0  0  0  0  0  3  0  0  0  0  0  0
  1  5  1  0  0  0  0
  2  3  1  0  0  0  0
  2  1  2  0  0  0  0
  3  4  2  0  0  0  0
  4  5  1  0  0  0  0
  4  9  1  0  0  0  0
  6  2  1  0  0  0  0
  7  3  1  0  0  0  0
  8 16  1  0  0  0  0
  9  8  2  0  0  0  0
  9 10  1  0  0  0  0
 10 11  2  0  0  0  0
 11 15  1  0  0  0  0
 11 12  1  0  0  0  0
 12 19  1  0  0  0  0
 12 13  1  0  0  0  0
 14 20  1  0  0  0  0
 14 13  2  0  0  0  0
 15 14  1  0  0  0  0
 16 21  1  0  0  0  0
 16 15  2  0  0  0  0
 17  8  1  0  0  0  0
 18 10  1  0  0  0  0
 22  1  1  0  0  0  0
 22 28  1  0  0  0  0
 23 22  2  0  0  0  0
 24 25  1  0  0  0  0
 25 31  1  0  0  0  0
 25 26  2  0  0  0  0
 26 34  1  0  0  0  0
 27 26  1  0  0  0  0
 28 27  2  0  0  0  0
 29 24  2  0  0  0  0
 29 28  1  0  0  0  0
 30 24  1  0  0  0  0
 32 33  1  0  0  0  0
 33 40  1  0  0  0  0
 34 33  2  0  0  0  0
 34 35  1  0  0  0  0
 35 37  2  0  0  0  0
 36 35  1  0  0  0  0
 37 39  1  0  0  0  0
 37 38  1  0  0  0  0
 40 39  2  0  0  0  0
M  END
>  <minimizedAffinity>
-7.17540073

$$$$

 OpenBabel03272508503D

 40 44  0  0  0  0  0  0  0  0999 V2000
   36.6640   27.7440   32.4700 C   0  0  0  0  0  0  0  0  0  0  0  0
   37.4150   27.3960   33.5750 C   0  0  0  0  0  0  0  0  0  0  0  0
   36.8540   28.1510   34.6050 C   0  0  0  0  0  0  0  0  0  0  0  0
   35.8170   28.9030   34.0950 C   0  0  0  0  0  0  0  0  0  0  0  0
   35.7370   28.6290   32.8130 O   0  0  0  0  0  0  0  0  0  0  0  0
   38.2420   26.7220   33.7020 H   0  0  0  0  0  0  0  0  0  0  0  0
   37.1330   28.1960   35.6590 H   0  0  0  0  0  0  0  0  0  0  0  0
   33.6040   29.7670   34.6740 C   0  0  0  0  0  0  0  0  0  0  0  0
   34.9690   29.8240   34.8240 C   0  0  0  0  0  0  0  0  0  0  0  0
   35.5660   30.7600   35.6740 C   0  0  0  0  0  0  0  0  0  0  0  0
   34.7860   31.6530   36.3840 C   0  0  0  0  0  0  0  0  0  0  0  0
   35.0450   32.6480   37.2600 N   0  0  0  0  0  0  0  0  0  0  0  0
   33.8810   33.1710   37.6230 N   0  0  0  0  0  0  0  0  0  0  0  0
   32.8810   32.5250   36.9940 C   0  0  0  0  0  0  0  0  0  0  0  0
   33.4270   31.5480   36.1920 C   0  0  0  0  0  0  0  0  0  0  0  0
   32.7730   30.6570   35.3770 C   0  0  0  0  0  0  0  0  0  0  0  0
   33.1440   29.0340   34.0080 H   0  0  0  0  0  0  0  0  0  0  0  0
   36.6420   30.8440   35.8270 H   0  0  0  0  0  0  0  0  0  0  0  0
   36.0160   32.8990   37.5480 H   0  0  0  0  0  0  0  0  0  0  0  0
   31.8100   32.7540   37.1110 H   0  0  0  0  0  0  0  0  0  0  0  0
   31.6960   30.6450   35.2870 H   0  0  0  0  0  0  0  0  0  0  0  0
   36.8750   27.2090   31.1420 C   0  0  0  0  0  0  0  0  0  0  0  0
   36.5940   27.9320   30.1590 O   0  0  0  0  0  0  0  0  0  0  0  0
   39.0690   24.4960   30.0890 C   0  0  0  0  0  0  0  0  0  0  0  0
   38.4460   23.3750   30.6080 C   0  0  0  0  0  0  0  0  0  0  0  0
   37.2730   23.5190   31.3220 C   0  0  0  0  0  0  0  0  0  0  0  0
   36.7890   24.7660   31.4790 N   0  0  0  0  0  0  0  0  0  0  0  0
   37.4060   25.8530   30.9680 C   0  0  0  0  0  0  0  0  0  0  0  0
   38.5430   25.7030   30.2770 N   0  0  0  0  0  0  0  0  0  0  0  0
   39.9960   24.4450   29.5180 H   0  0  0  0  0  0  0  0  0  0  0  0
   38.8890   22.4120   30.4430 H   0  0  0  0  0  0  0  0  0  0  0  0
   38.0230   22.8380   34.1030 Cl  0  0  0  0  0  0  0  0  0  0  0  0
   36.8380   21.9820   33.1800 C   0  0  0  0  0  0  0  0  0  0  0  0
   36.5640   22.3810   31.8930 C   0  0  0  0  0  0  0  0  0  0  0  0
   35.6050   21.6440   31.2320 C   0  0  0  0  0  0  0  0  0  0  0  0
   35.3480   21.9110   30.2170 H   0  0  0  0  0  0  0  0  0  0  0  0
   34.9550   20.5770   31.8020 C   0  0  0  0  0  0  0  0  0  0  0  0
   34.2000   20.0120   31.2530 H   0  0  0  0  0  0  0  0  0  0  0  0
   35.2580   20.2070   33.0940 C   0  0  0  0  0  3  0  0  0  0  0  0
   36.2070   20.9090   33.8000 C   0  0  0  0  0  3  0  0  0  0  0  0
  1  5  1  0  0  0  0
  1  2  2  0  0  0  0
  2  6  1  0  0  0  0
  2  3  1  0  0  0  0
  3  7  1  0  0  0  0
  4  3  2  0  0  0  0
  4  9  1  0  0  0  0
  5  4  1  0  0  0  0
  8  9  2  0  0  0  0
  8 16  1  0  0  0  0
  9 10  1  0  0  0  0
 10 18  1  0  0  0  0
 10 11  2  0  0  0  0
 11 12  1  0  0  0  0
 12 19  1  0  0  0  0
 12 13  1  0  0  0  0
 14 20  1  0  0  0  0
 14 13  2  0  0  0  0
 15 11  1  0  0  0  0
 15 14  1  0  0  0  0
 16 15  2  0  0  0  0
 17  8  1  0  0  0  0
 21 16  1  0  0  0  0
 22  1  1  0  0  0  0
 23 22  2  0  0  0  0
 24 29  2  0  0  0  0
 24 25  1  0  0  0  0
 25 26  2  0  0  0  0
 26 27  1  0  0  0  0
 26 34  1  0  0  0  0
 28 22  1  0  0  0  0
 28 27  2  0  0  0  0
 29 28  1  0  0  0  0
 30 24  1  0  0  0  0
 31 25  1  0  0  0  0
 33 40  1  0  0  0  0
 33 32  1  0  0  0  0
 34 33  2  0  0  0  0
 35 37  2  0  0  0  0
 35 34  1  0  0  0  0
 36 35  1  0  0  0  0
 37 39  1  0  0  0  0
 38 37  1  0  0  0  0
 39 40  2  0  0  0  0
M  END
>  <minimizedAffinity>
-6.91804743

$$$$

 OpenBabel03272508503D

 40 44  0  0  0  0  0  0  0  0999 V2000
   37.2640   27.7160   32.4470 C   0  0  0  0  0  0  0  0  0  0  0  0
   36.5820   28.2360   31.3660 C   0  0  0  0  0  0  0  0  0  0  0  0
   35.6420   29.0870   31.9460 C   0  0  0  0  0  0  0  0  0  0  0  0
   35.7900   29.0480   33.3170 C   0  0  0  0  0  0  0  0  0  0  0  0
   36.7710   28.2140   33.5740 O   0  0  0  0  0  0  0  0  0  0  0  0
   36.6820   28.0800   30.3060 H   0  0  0  0  0  0  0  0  0  0  0  0
   34.8850   29.7100   31.4670 H   0  0  0  0  0  0  0  0  0  0  0  0
   33.6760   29.5130   34.4550 C   0  0  0  0  0  0  0  0  0  0  0  0
   35.0150   29.7810   34.2970 C   0  0  0  0  0  0  0  0  0  0  0  0
   35.6550   30.7550   35.0690 C   0  0  0  0  0  0  0  0  0  0  0  0
   34.9450   31.4720   36.0130 C   0  0  0  0  0  0  0  0  0  0  0  0
   35.2590   32.4490   36.8920 N   0  0  0  0  0  0  0  0  0  0  0  0
   34.1510   32.7580   37.5530 N   0  0  0  0  0  0  0  0  0  0  0  0
   33.1340   31.9940   37.1120 C   0  0  0  0  0  0  0  0  0  0  0  0
   33.6100   31.1600   36.1240 C   0  0  0  0  0  0  0  0  0  0  0  0
   32.9160   30.2190   35.4040 C   0  0  0  0  0  0  0  0  0  0  0  0
   33.1820   28.7510   33.8490 H   0  0  0  0  0  0  0  0  0  0  0  0
   36.7130   31.0030   34.9810 H   0  0  0  0  0  0  0  0  0  0  0  0
   36.2230   32.8370   36.9740 H   0  0  0  0  0  0  0  0  0  0  0  0
   32.1000   32.0410   37.4880 H   0  0  0  0  0  0  0  0  0  0  0  0
   31.8610   30.0400   35.5590 H   0  0  0  0  0  0  0  0  0  0  0  0
   38.3520   26.7670   32.3430 C   0  0  0  0  0  0  0  0  0  0  0  0
   39.4430   27.1640   31.8730 O   0  0  0  0  0  0  0  0  0  0  0  0
   37.0760   23.3570   32.4760 C   0  0  0  0  0  0  0  0  0  0  0  0
   37.7710   22.8070   33.5390 C   0  0  0  0  0  0  0  0  0  0  0  0
   38.6830   23.5820   34.2280 C   0  0  0  0  0  0  0  0  0  0  0  0
   38.8500   24.8550   33.8200 N   0  0  0  0  0  0  0  0  0  0  0  0
   38.1660   25.3810   32.7820 C   0  0  0  0  0  0  0  0  0  0  0  0
   37.2840   24.6210   32.1210 N   0  0  0  0  0  0  0  0  0  0  0  0
   36.3450   22.7940   31.8960 H   0  0  0  0  0  0  0  0  0  0  0  0
   37.5860   21.7850   33.8070 H   0  0  0  0  0  0  0  0  0  0  0  0
   37.5790   24.2410   36.8940 Cl  0  0  0  0  0  0  0  0  0  0  0  0
   39.0200   23.3180   36.6400 C   0  0  0  0  0  0  0  0  0  0  0  0
   39.4470   23.0690   35.3580 C   0  0  0  0  0  0  0  0  0  0  0  0
   40.6020   22.3250   35.2480 C   0  0  0  0  0  0  0  0  0  0  0  0
   40.9860   22.0970   34.2640 H   0  0  0  0  0  0  0  0  0  0  0  0
   41.2960   21.8550   36.3360 C   0  0  0  0  0  0  0  0  0  0  0  0
   42.2080   21.2680   36.2180 H   0  0  0  0  0  0  0  0  0  0  0  0
   40.8360   22.1270   37.6060 C   0  0  0  0  0  3  0  0  0  0  0  0
   39.6880   22.8650   37.7720 C   0  0  0  0  0  3  0  0  0  0  0  0
  1  5  1  0  0  0  0
  2  3  1  0  0  0  0
  2  1  2  0  0  0  0
  3  4  2  0  0  0  0
  4  5  1  0  0  0  0
  4  9  1  0  0  0  0
  6  2  1  0  0  0  0
  7  3  1  0  0  0  0
  8 16  1  0  0  0  0
  9  8  2  0  0  0  0
  9 10  1  0  0  0  0
 10 11  2  0  0  0  0
 11 15  1  0  0  0  0
 11 12  1  0  0  0  0
 12 19  1  0  0  0  0
 12 13  1  0  0  0  0
 14 20  1  0  0  0  0
 14 13  2  0  0  0  0
 15 14  1  0  0  0  0
 16 21  1  0  0  0  0
 16 15  2  0  0  0  0
 17  8  1  0  0  0  0
 18 10  1  0  0  0  0
 22  1  1  0  0  0  0
 22 28  1  0  0  0  0
 23 22  2  0  0  0  0
 24 25  1  0  0  0  0
 25 31  1  0  0  0  0
 25 26  2  0  0  0  0
 26 34  1  0  0  0  0
 27 26  1  0  0  0  0
 28 27  2  0  0  0  0
 29 24  2  0  0  0  0
 29 28  1  0  0  0  0
 30 24  1  0  0  0  0
 33 32  1  0  0  0  0
 33 40  1  0  0  0  0
 34 33  2  0  0  0  0
 35 34  1  0  0  0  0
 35 37  2  0  0  0  0
 36 35  1  0  0  0  0
 37 39  1  0  0  0  0
 38 37  1  0  0  0  0
 39 40  2  0  0  0  0
M  END
>  <minimizedAffinity>
-6.9179554

$$$$

 OpenBabel03272508503D

 40 44  0  0  0  0  0  0  0  0999 V2000
   35.9220   26.9870   31.3280 C   0  0  0  0  0  0  0  0  0  0  0  0
   36.7900   27.5900   30.4410 C   0  0  0  0  0  0  0  0  0  0  0  0
   36.8950   28.8960   30.9180 C   0  0  0  0  0  0  0  0  0  0  0  0
   36.1070   29.0260   32.0420 C   0  0  0  0  0  0  0  0  0  0  0  0
   35.5420   27.8590   32.2530 O   0  0  0  0  0  0  0  0  0  0  0  0
   37.3040   27.2210   29.5710 H   0  0  0  0  0  0  0  0  0  0  0  0
   37.4780   29.7310   30.5250 H   0  0  0  0  0  0  0  0  0  0  0  0
   35.9580   31.4570   32.2550 C   0  0  0  0  0  0  0  0  0  0  0  0
   35.9290   30.2170   32.8470 C   0  0  0  0  0  0  0  0  0  0  0  0
   35.7280   30.0760   34.2240 C   0  0  0  0  0  0  0  0  0  0  0  0
   35.5540   31.1920   35.0200 C   0  0  0  0  0  0  0  0  0  0  0  0
   35.3460   31.3900   36.3390 N   0  0  0  0  0  0  0  0  0  0  0  0
   35.2540   32.6990   36.5350 N   0  0  0  0  0  0  0  0  0  0  0  0
   35.3990   33.3410   35.3610 C   0  0  0  0  0  0  0  0  0  0  0  0
   35.5940   32.4050   34.3700 C   0  0  0  0  0  0  0  0  0  0  0  0
   35.7860   32.6190   33.0280 C   0  0  0  0  0  0  0  0  0  0  0  0
   36.1150   31.5600   31.1790 H   0  0  0  0  0  0  0  0  0  0  0  0
   35.6970   29.1160   34.7380 H   0  0  0  0  0  0  0  0  0  0  0  0
   35.2820   30.6010   37.0180 H   0  0  0  0  0  0  0  0  0  0  0  0
   35.3660   34.4350   35.2310 H   0  0  0  0  0  0  0  0  0  0  0  0
   35.8020   33.6120   32.6010 H   0  0  0  0  0  0  0  0  0  0  0  0
   35.5000   25.6050   31.2420 C   0  0  0  0  0  0  0  0  0  0  0  0
   34.4650   25.3400   30.5880 O   0  0  0  0  0  0  0  0  0  0  0  0
   37.9670   24.0120   33.4000 C   0  0  0  0  0  0  0  0  0  0  0  0
   37.7500   22.6640   33.1770 C   0  0  0  0  0  0  0  0  0  0  0  0
   36.7650   22.2720   32.2910 C   0  0  0  0  0  0  0  0  0  0  0  0
   36.0550   23.2420   31.6820 N   0  0  0  0  0  0  0  0  0  0  0  0
   36.2760   24.5540   31.9080 C   0  0  0  0  0  0  0  0  0  0  0  0
   37.2330   24.9240   32.7680 N   0  0  0  0  0  0  0  0  0  0  0  0
   38.7290   24.3810   34.0870 H   0  0  0  0  0  0  0  0  0  0  0  0
   38.3540   21.9480   33.6980 H   0  0  0  0  0  0  0  0  0  0  0  0
   35.5240   20.7630   34.5150 Cl  0  0  0  0  0  0  0  0  0  0  0  0
   35.9090   20.0800   32.9730 C   0  0  0  0  0  0  0  0  0  0  0  0
   36.4850   20.8710   32.0070 C   0  0  0  0  0  0  0  0  0  0  0  0
   36.7560   20.2460   30.8090 C   0  0  0  0  0  0  0  0  0  0  0  0
   37.2090   20.8170   30.0120 H   0  0  0  0  0  0  0  0  0  0  0  0
   36.4770   18.9220   30.5750 C   0  0  0  0  0  0  0  0  0  0  0  0
   36.7030   18.4540   29.6150 H   0  0  0  0  0  0  0  0  0  0  0  0
   35.9000   18.1610   31.5690 C   0  0  0  0  0  3  0  0  0  0  0  0
   35.6090   18.7360   32.7840 C   0  0  0  0  0  3  0  0  0  0  0  0
  1  5  1  0  0  0  0
  2  3  1  0  0  0  0
  2  1  2  0  0  0  0
  3  4  2  0  0  0  0
  4  5  1  0  0  0  0
  4  9  1  0  0  0  0
  6  2  1  0  0  0  0
  7  3  1  0  0  0  0
  8  9  2  0  0  0  0
  8 16  1  0  0  0  0
  9 10  1  0  0  0  0
 10 18  1  0  0  0  0
 10 11  2  0  0  0  0
 11 12  1  0  0  0  0
 12 13  1  0  0  0  0
 12 19  1  0  0  0  0
 14 13  2  0  0  0  0
 15 11  1  0  0  0  0
 15 14  1  0  0  0  0
 16 15  2  0  0  0  0
 17  8  1  0  0  0  0
 20 14  1  0  0  0  0
 21 16  1  0  0  0  0
 22  1  1  0  0  0  0
 22 28  1  0  0  0  0
 23 22  2  0  0  0  0
 24 30  1  0  0  0  0
 25 24  1  0  0  0  0
 25 31  1  0  0  0  0
 26 25  2  0  0  0  0
 27 28  2  0  0  0  0
 27 26  1  0  0  0  0
 28 29  1  0  0  0  0
 29 24  2  0  0  0  0
 33 32  1  0  0  0  0
 34 26  1  0  0  0  0
 34 33  2  0  0  0  0
 35 34  1  0  0  0  0
 36 35  1  0  0  0  0
 37 35  2  0  0  0  0
 37 39  1  0  0  0  0
 38 37  1  0  0  0  0
 39 40  2  0  0  0  0
 40 33  1  0  0  0  0
M  END
>  <minimizedAffinity>
-6.82101297

$$$$

 OpenBabel03272508503D

 40 44  0  0  0  0  0  0  0  0999 V2000
   37.3600   28.3990   31.5110 C   0  0  0  0  0  0  0  0  0  0  0  0
   36.8260   29.2820   30.5960 C   0  0  0  0  0  0  0  0  0  0  0  0
   35.8870   29.9980   31.3370 C   0  0  0  0  0  0  0  0  0  0  0  0
   35.8910   29.5310   32.6350 C   0  0  0  0  0  0  0  0  0  0  0  0
   36.7880   28.5730   32.6950 O   0  0  0  0  0  0  0  0  0  0  0  0
   37.0240   29.4470   29.5510 H   0  0  0  0  0  0  0  0  0  0  0  0
   35.2230   30.8030   31.0190 H   0  0  0  0  0  0  0  0  0  0  0  0
   33.7460   29.6320   33.8020 C   0  0  0  0  0  0  0  0  0  0  0  0
   35.0690   29.9980   33.7310 C   0  0  0  0  0  0  0  0  0  0  0  0
   35.6460   30.8210   34.7030 C   0  0  0  0  0  0  0  0  0  0  0  0
   34.8890   31.2840   35.7630 C   0  0  0  0  0  0  0  0  0  0  0  0
   35.1390   32.0690   36.8330 N   0  0  0  0  0  0  0  0  0  0  0  0
   34.0100   32.1730   37.5220 N   0  0  0  0  0  0  0  0  0  0  0  0
   33.0420   31.4650   36.9100 C   0  0  0  0  0  0  0  0  0  0  0  0
   33.5720   30.8850   35.7790 C   0  0  0  0  0  0  0  0  0  0  0  0
   32.9390   30.0810   34.8630 C   0  0  0  0  0  0  0  0  0  0  0  0
   33.3010   28.9900   33.0400 H   0  0  0  0  0  0  0  0  0  0  0  0
   36.6890   31.1380   34.6910 H   0  0  0  0  0  0  0  0  0  0  0  0
   36.0790   32.4830   37.0140 H   0  0  0  0  0  0  0  0  0  0  0  0
   32.0040   31.3770   37.2660 H   0  0  0  0  0  0  0  0  0  0  0  0
   31.8950   29.8170   34.9560 H   0  0  0  0  0  0  0  0  0  0  0  0
   38.3920   27.4310   31.2020 C   0  0  0  0  0  0  0  0  0  0  0  0
   38.4860   27.0200   30.0230 O   0  0  0  0  0  0  0  0  0  0  0  0
   41.4320   26.9630   33.1550 C   0  0  0  0  0  0  0  0  0  0  0  0
   41.0230   26.1140   34.1680 C   0  0  0  0  0  0  0  0  0  0  0  0
   39.7100   25.6860   34.2060 C   0  0  0  0  0  0  0  0  0  0  0  0
   38.8840   26.1260   33.2370 N   0  0  0  0  0  0  0  0  0  0  0  0
   39.2950   26.9550   32.2540 C   0  0  0  0  0  0  0  0  0  0  0  0
   40.5700   27.3640   32.2260 N   0  0  0  0  0  0  0  0  0  0  0  0
   42.4540   27.3330   33.0740 H   0  0  0  0  0  0  0  0  0  0  0  0
   41.7360   25.8040   34.9060 H   0  0  0  0  0  0  0  0  0  0  0  0
   38.2780   27.0120   36.4320 Cl  0  0  0  0  0  0  0  0  0  0  0  0
   38.5330   25.3040   36.3210 C   0  0  0  0  0  0  0  0  0  0  0  0
   39.2120   24.7900   35.2420 C   0  0  0  0  0  0  0  0  0  0  0  0
   39.3670   23.4210   35.2330 C   0  0  0  0  0  0  0  0  0  0  0  0
   39.8930   22.9590   34.4100 H   0  0  0  0  0  0  0  0  0  0  0  0
   38.8830   22.6060   36.2270 C   0  0  0  0  0  0  0  0  0  0  0  0
   39.0210   21.5240   36.1930 H   0  0  0  0  0  0  0  0  0  0  0  0
   38.2070   23.1590   37.2920 C   0  0  0  0  0  3  0  0  0  0  0  0
   38.0240   24.5210   37.3510 C   0  0  0  0  0  3  0  0  0  0  0  0
  1  5  1  0  0  0  0
  2  3  1  0  0  0  0
  2  1  2  0  0  0  0
  3  4  2  0  0  0  0
  4  5  1  0  0  0  0
  4  9  1  0  0  0  0
  6  2  1  0  0  0  0
  7  3  1  0  0  0  0
  8 16  1  0  0  0  0
  9  8  2  0  0  0  0
  9 10  1  0  0  0  0
 10 11  2  0  0  0  0
 11 15  1  0  0  0  0
 11 12  1  0  0  0  0
 12 19  1  0  0  0  0
 12 13  1  0  0  0  0
 14 20  1  0  0  0  0
 14 13  2  0  0  0  0
 15 14  1  0  0  0  0
 16 21  1  0  0  0  0
 16 15  2  0  0  0  0
 17  8  1  0  0  0  0
 18 10  1  0  0  0  0
 22  1  1  0  0  0  0
 22 28  1  0  0  0  0
 23 22  2  0  0  0  0
 24 25  1  0  0  0  0
 25 26  2  0  0  0  0
 25 31  1  0  0  0  0
 26 34  1  0  0  0  0
 27 26  1  0  0  0  0
 28 27  2  0  0  0  0
 29 28  1  0  0  0  0
 29 24  2  0  0  0  0
 30 24  1  0  0  0  0
 33 32  1  0  0  0  0
 33 40  1  0  0  0  0
 34 33  2  0  0  0  0
 35 34  1  0  0  0  0
 35 37  2  0  0  0  0
 36 35  1  0  0  0  0
 37 39  1  0  0  0  0
 38 37  1  0  0  0  0
 39 40  2  0  0  0  0
M  END
>  <minimizedAffinity>
-6.6656599

$$$$

 OpenBabel03272508503D

 40 44  0  0  0  0  0  0  0  0999 V2000
   36.2900   25.9790   31.7150 C   0  0  0  0  0  0  0  0  0  0  0  0
   35.1520   25.9240   30.9370 C   0  0  0  0  0  0  0  0  0  0  0  0
   34.9480   24.5570   30.7480 C   0  0  0  0  0  0  0  0  0  0  0  0
   35.9440   23.8620   31.4000 C   0  0  0  0  0  0  0  0  0  0  0  0
   36.7270   24.7520   31.9660 O   0  0  0  0  0  0  0  0  0  0  0  0
   34.5160   26.6910   30.5320 H   0  0  0  0  0  0  0  0  0  0  0  0
   34.1610   24.0470   30.1910 H   0  0  0  0  0  0  0  0  0  0  0  0
   37.2710   21.8460   31.0080 C   0  0  0  0  0  0  0  0  0  0  0  0
   36.1080   22.4240   31.4580 C   0  0  0  0  0  0  0  0  0  0  0  0
   35.0660   21.6480   31.9750 C   0  0  0  0  0  0  0  0  0  0  0  0
   35.1910   20.2730   32.0440 C   0  0  0  0  0  0  0  0  0  0  0  0
   34.3940   19.2720   32.4770 N   0  0  0  0  0  0  0  0  0  0  0  0
   35.0520   18.1340   32.2940 N   0  0  0  0  0  0  0  0  0  0  0  0
   36.2570   18.3920   31.7530 C   0  0  0  0  0  0  0  0  0  0  0  0
   36.3770   19.7530   31.5790 C   0  0  0  0  0  0  0  0  0  0  0  0
   37.4390   20.4510   31.0600 C   0  0  0  0  0  0  0  0  0  0  0  0
   38.0810   22.4580   30.6040 H   0  0  0  0  0  0  0  0  0  0  0  0
   34.1270   22.0590   32.3440 H   0  0  0  0  0  0  0  0  0  0  0  0
   33.4440   19.4450   32.8710 H   0  0  0  0  0  0  0  0  0  0  0  0
   37.0100   17.6310   31.4960 H   0  0  0  0  0  0  0  0  0  0  0  0
   38.3380   19.9570   30.7170 H   0  0  0  0  0  0  0  0  0  0  0  0
   36.9010   27.2080   32.1770 C   0  0  0  0  0  0  0  0  0  0  0  0
   36.6970   28.2550   31.5210 O   0  0  0  0  0  0  0  0  0  0  0  0
   37.8840   27.6110   35.6620 C   0  0  0  0  0  0  0  0  0  0  0  0
   39.2150   27.2350   35.6550 C   0  0  0  0  0  0  0  0  0  0  0  0
   39.8030   26.8390   34.4690 C   0  0  0  0  0  0  0  0  0  0  0  0
   39.0330   26.8400   33.3640 N   0  0  0  0  0  0  0  0  0  0  0  0
   37.7340   27.2090   33.3830 C   0  0  0  0  0  0  0  0  0  0  0  0
   37.1750   27.5920   34.5380 N   0  0  0  0  0  0  0  0  0  0  0  0
   37.3680   27.9330   36.5670 H   0  0  0  0  0  0  0  0  0  0  0  0
   39.7670   27.2590   36.5740 H   0  0  0  0  0  0  0  0  0  0  0  0
   40.3840   24.1270   35.5020 Cl  0  0  0  0  0  0  0  0  0  0  0  0
   41.5770   25.1920   34.8420 C   0  0  0  0  0  0  0  0  0  0  0  0
   41.2000   26.4330   34.3880 C   0  0  0  0  0  0  0  0  0  0  0  0
   42.2130   27.2140   33.8770 C   0  0  0  0  0  0  0  0  0  0  0  0
   41.9770   28.2010   33.5050 H   0  0  0  0  0  0  0  0  0  0  0  0
   43.5210   26.7980   33.8150 C   0  0  0  0  0  0  0  0  0  0  0  0
   44.3020   27.4390   33.4040 H   0  0  0  0  0  0  0  0  0  0  0  0
   43.8600   25.5460   34.2800 C   0  0  0  0  0  3  0  0  0  0  0  0
   42.8860   24.7260   34.8010 C   0  0  0  0  0  3  0  0  0  0  0  0
  1  5  1  0  0  0  0
  1 22  1  0  0  0  0
  2  1  2  0  0  0  0
  3  2  1  0  0  0  0
  3  4  2  0  0  0  0
  4  9  1  0  0  0  0
  4  5  1  0  0  0  0
  6  2  1  0  0  0  0
  7  3  1  0  0  0  0
  8 16  2  0  0  0  0
  8  9  1  0  0  0  0
  9 10  2  0  0  0  0
 10 11  1  0  0  0  0
 10 18  1  0  0  0  0
 11 12  1  0  0  0  0
 12 19  1  0  0  0  0
 13 12  1  0  0  0  0
 14 13  2  0  0  0  0
 15 14  1  0  0  0  0
 15 11  2  0  0  0  0
 16 15  1  0  0  0  0
 17  8  1  0  0  0  0
 20 14  1  0  0  0  0
 21 16  1  0  0  0  0
 22 28  1  0  0  0  0
 23 22  2  0  0  0  0
 24 30  1  0  0  0  0
 25 24  1  0  0  0  0
 25 31  1  0  0  0  0
 26 25  2  0  0  0  0
 27 28  2  0  0  0  0
 27 26  1  0  0  0  0
 28 29  1  0  0  0  0
 29 24  2  0  0  0  0
 33 32  1  0  0  0  0
 34 26  1  0  0  0  0
 34 33  2  0  0  0  0
 35 34  1  0  0  0  0
 36 35  1  0  0  0  0
 37 35  2  0  0  0  0
 37 39  1  0  0  0  0
 38 37  1  0  0  0  0
 39 40  2  0  0  0  0
 40 33  1  0  0  0  0
M  END
>  <minimizedAffinity>
-6.65726519

$$$$
