
 OpenBabel03272510333D

 28 30  0  0  0  0  0  0  0  0999 V2000
   37.6380   31.8700   46.1850 C   0  0  0  0  0  0  0  0  0  0  0  0
   37.9200   32.1870   44.8850 C   0  0  0  0  0  0  0  0  0  0  0  0
   37.3430   31.4980   43.8280 C   0  0  0  0  0  0  0  0  0  0  0  0
   36.4670   30.4700   44.1180 C   0  0  0  0  0  0  0  0  0  0  0  0
   36.1620   30.1240   45.4270 C   0  0  0  0  0  0  0  0  0  0  0  0
   36.7580   30.8350   46.4540 C   0  0  0  0  0  0  0  0  0  0  0  0
   38.6080   32.9940   44.6520 H   0  0  0  0  0  0  0  0  0  0  0  0
   37.6020   31.7930   42.8160 H   0  0  0  0  0  0  0  0  0  0  0  0
   36.0400   29.9580   43.2630 H   0  0  0  0  0  0  0  0  0  0  0  0
   35.4640   29.3040   45.6010 H   0  0  0  0  0  0  0  0  0  0  0  0
   38.1220   33.5380   49.3780 C   0  0  0  0  0  0  0  0  0  0  0  0
   39.3920   34.1050   49.2920 C   0  0  0  0  0  0  0  0  0  0  0  0
   40.1030   33.8960   48.0790 C   0  0  0  0  0  0  0  0  0  0  0  0
   39.5200   33.1690   47.0810 N   0  0  0  0  0  0  0  0  0  0  0  0
   38.2890   32.6460   47.2220 C   0  0  0  0  0  0  0  0  0  0  0  0
   37.6020   32.8370   48.3730 N   0  0  0  0  0  0  0  0  0  0  0  0
   37.6100   33.7160   50.3130 H   0  0  0  0  0  0  0  0  0  0  0  0
   39.8840   34.6770   50.0430 H   0  0  0  0  0  0  0  0  0  0  0  0
   41.1020   34.2810   47.8750 H   0  0  0  0  0  0  0  0  0  0  0  0
   39.1180   29.8100   47.8930 Cl  0  0  0  0  0  0  0  0  0  0  0  0
   37.5080   30.0030   48.5800 C   0  0  0  0  0  0  0  0  0  0  0  0
   36.4530   30.4900   47.8380 C   0  0  0  0  0  0  0  0  0  0  0  0
   35.1900   30.6320   48.4070 C   0  0  0  0  0  0  0  0  0  0  0  0
   34.4130   31.0170   47.7760 H   0  0  0  0  0  0  0  0  0  0  0  0
   35.0310   30.2730   49.7160 C   0  0  0  0  0  0  0  0  0  0  0  0
   34.0660   30.3710   50.1870 H   0  0  0  0  0  0  0  0  0  0  0  0
   36.0510   29.7880   50.4760 C   0  0  0  0  0  3  0  0  0  0  0  0
   37.3070   29.6500   49.9020 C   0  0  0  0  0  3  0  0  0  0  0  0
  1  6  1  0  0  0  0
  1 15  1  0  0  0  0
  2  1  2  0  0  0  0
  3  4  2  0  0  0  0
  3  2  1  0  0  0  0
  4  5  1  0  0  0  0
  5 10  1  0  0  0  0
  5  6  2  0  0  0  0
  6 22  1  0  0  0  0
  7  2  1  0  0  0  0
  8  3  1  0  0  0  0
  9  4  1  0  0  0  0
 11 17  1  0  0  0  0
 12 11  1  0  0  0  0
 12 18  1  0  0  0  0
 13 12  2  0  0  0  0
 14 15  2  0  0  0  0
 14 13  1  0  0  0  0
 15 16  1  0  0  0  0
 16 11  2  0  0  0  0
 19 13  1  0  0  0  0
 20 21  1  0  0  0  0
 21 28  1  0  0  0  0
 22 23  1  0  0  0  0
 22 21  2  0  0  0  0
 23 25  2  0  0  0  0
 24 23  1  0  0  0  0
 25 26  1  0  0  0  0
 25 27  1  0  0  0  0
 28 27  2  0  0  0  0
M  END
>  <minimizedAffinity>
-2.58391261

>  <minimizedRMSD>
3.37776399

$$$$
