
 OpenBabel03272510233D

 31 34  0  0  0  0  0  0  0  0999 V2000
   35.5210   29.8360   46.9000 C   0  0  0  0  0  0  0  0  0  0  0  0
   36.5990   30.4770   47.4940 C   0  0  0  0  0  0  0  0  0  0  0  0
   37.4270   31.2520   46.7290 C   0  0  0  0  0  0  0  0  0  0  0  0
   37.1630   31.3750   45.3750 C   0  0  0  0  0  0  0  0  0  0  0  0
   37.8370   32.0810   44.4270 N   0  0  0  0  0  0  0  0  0  0  0  0
   37.2060   31.8960   43.2610 C   0  0  0  0  0  0  0  0  0  0  0  0
   36.1530   31.0960   43.4350 N   0  0  0  0  0  0  0  0  0  0  0  0
   36.0950   30.7510   44.7420 C   0  0  0  0  0  0  0  0  0  0  0  0
   35.2680   29.9700   45.5320 C   0  0  0  0  0  0  0  0  0  0  0  0
   34.8220   29.2080   47.4340 H   0  0  0  0  0  0  0  0  0  0  0  0
   38.2540   31.7470   47.1720 H   0  0  0  0  0  0  0  0  0  0  0  0
   38.7010   32.6650   44.5940 H   0  0  0  0  0  0  0  0  0  0  0  0
   34.4340   29.4770   45.0620 H   0  0  0  0  0  0  0  0  0  0  0  0
   37.9590   30.4760   50.9980 C   0  0  0  0  0  0  0  0  0  0  0  0
   37.8670   30.7160   49.6230 C   0  0  0  0  0  0  0  0  0  0  0  0
   36.7660   30.2680   48.9180 C   0  0  0  0  0  0  0  0  0  0  0  0
   35.8100   29.6070   49.6030 N   0  0  0  0  0  0  0  0  0  0  0  0
   35.9080   29.3790   50.9410 C   0  0  0  0  0  0  0  0  0  0  0  0
   36.9650   29.8050   51.6330 N   0  0  0  0  0  0  0  0  0  0  0  0
   38.8250   30.8240   51.5710 H   0  0  0  0  0  0  0  0  0  0  0  0
   38.6560   31.2500   49.1120 H   0  0  0  0  0  0  0  0  0  0  0  0
   35.0740   28.8360   51.3710 H   0  0  0  0  0  0  0  0  0  0  0  0
   35.3610   33.9660   42.1310 Cl  0  0  0  0  0  0  0  0  0  0  0  0
   36.8250   33.4150   41.3150 C   0  0  0  0  0  0  0  0  0  0  0  0
   37.5690   32.4590   41.9610 C   0  0  0  0  0  0  0  0  0  0  0  0
   38.7170   32.0200   41.3270 C   0  0  0  0  0  0  0  0  0  0  0  0
   39.3620   31.2690   41.7660 H   0  0  0  0  0  0  0  0  0  0  0  0
   39.0900   32.5400   40.0830 C   0  0  0  0  0  0  0  0  0  0  0  0
   39.9710   32.2440   39.5360 H   0  0  0  0  0  0  0  0  0  0  0  0
   38.2960   33.5090   39.4750 C   0  0  0  0  0  3  0  0  0  0  0  0
   37.1290   33.9680   40.0960 C   0  0  0  0  0  3  0  0  0  0  0  0
  1 10  1  0  0  0  0
  1  2  1  0  0  0  0
  2 16  1  0  0  0  0
  3 11  1  0  0  0  0
  3  2  2  0  0  0  0
  4  3  1  0  0  0  0
  5 12  1  0  0  0  0
  5  4  1  0  0  0  0
  6  7  2  0  0  0  0
  6  5  1  0  0  0  0
  7  8  1  0  0  0  0
  8  4  2  0  0  0  0
  8  9  1  0  0  0  0
  9  1  2  0  0  0  0
 13  9  1  0  0  0  0
 14 20  1  0  0  0  0
 14 19  1  0  0  0  0
 15 14  2  0  0  0  0
 16 17  2  0  0  0  0
 16 15  1  0  0  0  0
 17 18  1  0  0  0  0
 18 22  1  0  0  0  0
 18 19  2  0  0  0  0
 21 15  1  0  0  0  0
 24 25  1  0  0  0  0
 24 23  1  0  0  0  0
 25  6  1  0  0  0  0
 26 27  1  0  0  0  0
 26 25  2  0  0  0  0
 28 26  1  0  0  0  0
 29 28  1  0  0  0  0
 30 28  2  0  0  0  0
 30 31  1  0  0  0  0
 31 24  2  0  0  0  0
M  END
>  <minimizedAffinity>
-5.02759838

>  <minimizedRMSD>
3.3896811

$$$$
