
 OpenBabel03262522513D

 33 36  0  0  0  0  0  0  0  0999 V2000
   32.7940   27.6900   48.3890 C   0  0  0  0  0  0  0  0  0  0  0  0
   32.8300   26.7460   47.4340 C   0  0  0  0  0  0  0  0  0  0  0  0
   31.6610   26.0620   47.1910 C   0  0  0  0  0  0  0  0  0  0  0  0
   30.5090   26.3130   47.8750 N   0  0  0  0  0  0  0  0  0  0  0  0
   30.5780   27.2830   48.8150 C   0  0  0  0  0  0  0  0  0  0  0  0
   31.6860   27.9900   49.1050 N   0  0  0  0  0  0  0  0  0  0  0  0
   33.6980   26.4950   46.8590 H   0  0  0  0  0  0  0  0  0  0  0  0
   31.5750   25.2750   46.4390 H   0  0  0  0  0  0  0  0  0  0  0  0
   28.8040   29.2940   47.5690 Cl  0  0  0  0  0  0  0  0  0  0  0  0
   28.4270   28.4910   49.1010 C   0  0  0  0  0  0  0  0  0  0  0  0
   29.3540   27.5710   49.5610 C   0  0  0  0  0  0  0  0  0  0  0  0
   29.0960   26.9200   50.7570 C   0  0  0  0  0  0  0  0  0  0  0  0
   29.7830   26.1890   51.1700 H   0  0  0  0  0  0  0  0  0  0  0  0
   27.9230   27.1980   51.4680 C   0  0  0  0  0  0  0  0  0  0  0  0
   27.6820   26.7170   52.4010 H   0  0  0  0  0  0  0  0  0  0  0  0
   27.0270   28.1210   50.9740 C   0  0  0  0  0  0  0  0  0  0  0  0
   27.2710   28.7710   49.7920 C   0  0  0  0  0  0  0  0  0  0  0  0
   36.0330   30.1260   48.8390 C   0  0  0  0  0  0  0  0  0  0  0  0
   35.9040   29.2190   49.8040 C   0  0  0  0  0  0  0  0  0  0  0  0
   34.8470   28.3340   49.7670 C   0  0  0  0  0  0  0  0  0  0  0  0
   33.9960   28.4650   48.7120 C   0  0  0  0  0  0  0  0  0  0  0  0
   34.7130   29.8530   47.7800 S   0  0  0  0  0  0  0  0  0  0  0  0
   36.6440   29.1850   50.6260 H   0  0  0  0  0  0  0  0  0  0  0  0
   34.6540   27.5620   50.5010 H   0  0  0  0  0  0  0  0  0  0  0  0
   38.0230   33.1220   49.4220 C   0  0  0  0  0  0  0  0  0  0  0  0
   38.9690   33.1010   48.4030 C   0  0  0  0  0  0  0  0  0  0  0  0
   38.9180   32.0250   47.4870 C   0  0  0  0  0  0  0  0  0  0  0  0
   37.9510   31.0720   47.6530 N   0  0  0  0  0  0  0  0  0  0  0  0
   37.0680   31.1610   48.6690 C   0  0  0  0  0  0  0  0  0  0  0  0
   37.0880   32.1550   49.5430 N   0  0  0  0  0  0  0  0  0  0  0  0
   37.9980   33.9140   50.1610 H   0  0  0  0  0  0  0  0  0  0  0  0
   39.6930   33.8770   48.3330 H   0  0  0  0  0  0  0  0  0  0  0  0
   39.6330   31.9790   46.6890 H   0  0  0  0  0  0  0  0  0  0  0  0
  1 21  1  0  0  0  0
  1  6  1  0  0  0  0
  2  1  2  0  0  0  0
  3  2  1  0  0  0  0
  3  4  2  0  0  0  0
  4  5  1  0  0  0  0
  5  6  2  0  0  0  0
  5 11  1  0  0  0  0
  7  2  1  0  0  0  0
  8  3  1  0  0  0  0
  9 10  1  0  0  0  0
 10 11  2  0  0  0  0
 10 17  1  0  0  0  0
 11 12  1  0  0  0  0
 12 13  1  0  0  0  0
 12 14  2  0  0  0  0
 14 15  1  0  0  0  0
 16 14  1  0  0  0  0
 17 16  2  0  0  0  0
 18 19  2  0  0  0  0
 19 23  1  0  0  0  0
 20 19  1  0  0  0  0
 20 24  1  0  0  0  0
 21 20  2  0  0  0  0
 22 21  1  0  0  0  0
 22 18  1  0  0  0  0
 25 30  1  0  0  0  0
 25 31  1  0  0  0  0
 26 25  2  0  0  0  0
 27 28  2  0  0  0  0
 27 26  1  0  0  0  0
 28 29  1  0  0  0  0
 29 18  1  0  0  0  0
 29 30  2  0  0  0  0
 32 26  1  0  0  0  0
 33 27  1  0  0  0  0
M  END
>  <minimizedAffinity>
-7.56486416

>  <minimizedRMSD>
1.14755428

$$$$
