
 OpenBabel03272502113D

 26 28  0  0  0  0  0  0  0  0999 V2000
   37.7700   31.5140   48.8580 C   0  0  0  0  0  0  0  0  0  0  0  0
   38.3320   32.7060   49.2820 C   0  0  0  0  0  0  0  0  0  0  0  0
   39.1900   33.4900   48.4960 C   0  0  0  0  0  0  0  0  0  0  0  0
   39.4680   33.0280   47.2480 N   0  0  0  0  0  0  0  0  0  0  0  0
   38.9250   31.8670   46.8260 C   0  0  0  0  0  0  0  0  0  0  0  0
   38.1140   31.1590   47.6160 N   0  0  0  0  0  0  0  0  0  0  0  0
   38.1080   33.0720   50.2790 H   0  0  0  0  0  0  0  0  0  0  0  0
   39.5970   34.4150   48.8880 H   0  0  0  0  0  0  0  0  0  0  0  0
   37.2610   30.1760   50.9160 C   0  0  0  0  0  0  0  0  0  0  0  0
   36.9010   30.7400   49.6830 C   0  0  0  0  0  0  0  0  0  0  0  0
   35.5890   30.5210   49.2390 C   0  0  0  0  0  0  0  0  0  0  0  0
   34.7600   29.7810   50.0280 N   0  0  0  0  0  0  0  0  0  0  0  0
   35.1520   29.2590   51.2090 C   0  0  0  0  0  0  0  0  0  0  0  0
   36.4050   29.4590   51.6500 N   0  0  0  0  0  0  0  0  0  0  0  0
   38.2990   30.3870   51.1980 H   0  0  0  0  0  0  0  0  0  0  0  0
   35.1890   30.9030   48.3050 H   0  0  0  0  0  0  0  0  0  0  0  0
   34.4880   28.6720   51.8300 H   0  0  0  0  0  0  0  0  0  0  0  0
   40.1360   33.9370   44.9480 Cl  0  0  0  0  0  0  0  0  0  0  0  0
   39.7920   32.2570   44.5610 C   0  0  0  0  0  0  0  0  0  0  0  0
   39.2420   31.3950   45.4810 C   0  0  0  0  0  0  0  0  0  0  0  0
   39.0010   30.0890   45.1000 C   0  0  0  0  0  0  0  0  0  0  0  0
   38.5620   29.4360   45.8620 H   0  0  0  0  0  0  0  0  0  0  0  0
   39.2810   29.6040   43.8500 C   0  0  0  0  0  0  0  0  0  0  0  0
   39.0780   28.5710   43.5870 H   0  0  0  0  0  0  0  0  0  0  0  0
   39.8310   30.4890   42.9520 C   0  0  0  0  0  0  0  0  0  0  0  0
   40.1010   31.8190   43.2690 C   0  0  0  0  0  0  0  0  0  0  0  0
  1  2  1  0  0  0  0
  1 10  1  0  0  0  0
  2  7  1  0  0  0  0
  3  8  1  0  0  0  0
  3  2  2  0  0  0  0
  4  3  1  0  0  0  0
  5  4  2  0  0  0  0
  5  6  1  0  0  0  0
  6  1  2  0  0  0  0
  9 15  1  0  0  0  0
  9 14  1  0  0  0  0
 10  9  2  0  0  0  0
 11 10  1  0  0  0  0
 11 12  2  0  0  0  0
 12 13  1  0  0  0  0
 13 14  2  0  0  0  0
 13 17  1  0  0  0  0
 16 11  1  0  0  0  0
 19 18  1  0  0  0  0
 19 20  1  0  0  0  0
 20  5  1  0  0  0  0
 21 20  2  0  0  0  0
 21 22  1  0  0  0  0
 23 21  1  0  0  0  0
 24 23  1  0  0  0  0
 25 26  1  0  0  0  0
 25 23  2  0  0  0  0
 26 19  2  0  0  0  0
M  END
>  <minimizedAffinity>
-6.03554916

>  <minimizedRMSD>
0.915362954

$$$$
