
 OpenBabel03272510333D

 28 30  0  0  0  0  0  0  0  0999 V2000
   36.6110   30.3820   46.6780 C   0  0  0  0  0  0  0  0  0  0  0  0
   35.5640   29.8540   47.3820 C   0  0  0  0  0  0  0  0  0  0  0  0
   35.6550   29.6080   48.7440 C   0  0  0  0  0  0  0  0  0  0  0  0
   36.8400   29.9100   49.3850 C   0  0  0  0  0  0  0  0  0  0  0  0
   37.9200   30.4470   48.6990 C   0  0  0  0  0  0  0  0  0  0  0  0
   37.7910   30.6780   47.3410 C   0  0  0  0  0  0  0  0  0  0  0  0
   34.6300   29.6140   46.8810 H   0  0  0  0  0  0  0  0  0  0  0  0
   34.7920   29.1880   49.2520 H   0  0  0  0  0  0  0  0  0  0  0  0
   36.8680   29.7020   50.4490 H   0  0  0  0  0  0  0  0  0  0  0  0
   38.8340   30.6680   49.2530 H   0  0  0  0  0  0  0  0  0  0  0  0
   36.5210   32.1440   43.5000 C   0  0  0  0  0  0  0  0  0  0  0  0
   36.1080   31.1860   42.5770 C   0  0  0  0  0  0  0  0  0  0  0  0
   35.8540   29.8810   43.0810 C   0  0  0  0  0  0  0  0  0  0  0  0
   36.0220   29.6370   44.4140 N   0  0  0  0  0  0  0  0  0  0  0  0
   36.4230   30.6040   45.2590 C   0  0  0  0  0  0  0  0  0  0  0  0
   36.6680   31.8510   44.7900 N   0  0  0  0  0  0  0  0  0  0  0  0
   36.7050   33.1240   43.0840 H   0  0  0  0  0  0  0  0  0  0  0  0
   35.9650   31.3320   41.5320 H   0  0  0  0  0  0  0  0  0  0  0  0
   35.5260   29.0390   42.4720 H   0  0  0  0  0  0  0  0  0  0  0  0
   38.4780   33.3980   48.2500 Cl  0  0  0  0  0  0  0  0  0  0  0  0
   39.2950   32.5140   46.9650 C   0  0  0  0  0  0  0  0  0  0  0  0
   38.9130   31.2410   46.5970 C   0  0  0  0  0  0  0  0  0  0  0  0
   39.5760   30.5660   45.5780 C   0  0  0  0  0  0  0  0  0  0  0  0
   39.2300   29.5800   45.3400 H   0  0  0  0  0  0  0  0  0  0  0  0
   40.6160   31.2040   44.9560 C   0  0  0  0  0  0  0  0  0  0  0  0
   41.1520   30.7090   44.1610 H   0  0  0  0  0  0  0  0  0  0  0  0
   41.0180   32.4590   45.2930 C   0  0  0  0  0  3  0  0  0  0  0  0
   40.3490   33.1250   46.3120 C   0  0  0  0  0  3  0  0  0  0  0  0
  1  6  2  0  0  0  0
  1  2  1  0  0  0  0
  2  3  2  0  0  0  0
  3  8  1  0  0  0  0
  3  4  1  0  0  0  0
  4  9  1  0  0  0  0
  5 10  1  0  0  0  0
  5  4  2  0  0  0  0
  6  5  1  0  0  0  0
  7  2  1  0  0  0  0
 11 16  1  0  0  0  0
 12 13  1  0  0  0  0
 12 11  2  0  0  0  0
 13 14  2  0  0  0  0
 14 15  1  0  0  0  0
 15  1  1  0  0  0  0
 16 15  2  0  0  0  0
 17 11  1  0  0  0  0
 18 12  1  0  0  0  0
 19 13  1  0  0  0  0
 21 20  1  0  0  0  0
 22 21  1  0  0  0  0
 22  6  1  0  0  0  0
 23 22  2  0  0  0  0
 24 23  1  0  0  0  0
 25 27  2  0  0  0  0
 25 23  1  0  0  0  0
 26 25  1  0  0  0  0
 27 28  1  0  0  0  0
 28 21  2  0  0  0  0
M  END
>  <minimizedAffinity>
-5.35220098

>  <minimizedRMSD>
5.53600597

$$$$
