
 OpenBabel03272510333D

 28 30  0  0  0  0  0  0  0  0999 V2000
   36.0380   30.1810   47.1820 C   0  0  0  0  0  0  0  0  0  0  0  0
   35.4240   30.1710   45.9610 C   0  0  0  0  0  0  0  0  0  0  0  0
   34.3370   29.3480   45.7010 C   0  0  0  0  0  0  0  0  0  0  0  0
   33.8830   28.5270   46.7140 C   0  0  0  0  0  0  0  0  0  0  0  0
   34.4860   28.5150   47.9640 C   0  0  0  0  0  0  0  0  0  0  0  0
   35.5660   29.3500   48.1840 C   0  0  0  0  0  0  0  0  0  0  0  0
   35.7780   30.8150   45.1610 H   0  0  0  0  0  0  0  0  0  0  0  0
   33.8880   29.3810   44.7140 H   0  0  0  0  0  0  0  0  0  0  0  0
   33.0330   27.9000   46.4690 H   0  0  0  0  0  0  0  0  0  0  0  0
   34.0870   27.8470   48.7300 H   0  0  0  0  0  0  0  0  0  0  0  0
   38.0900   32.8140   48.6230 C   0  0  0  0  0  0  0  0  0  0  0  0
   39.2340   32.8450   47.8280 C   0  0  0  0  0  0  0  0  0  0  0  0
   39.2910   31.9140   46.7540 C   0  0  0  0  0  0  0  0  0  0  0  0
   38.2460   31.0570   46.5590 N   0  0  0  0  0  0  0  0  0  0  0  0
   37.1650   31.0750   47.3600 C   0  0  0  0  0  0  0  0  0  0  0  0
   37.1000   31.9560   48.3860 N   0  0  0  0  0  0  0  0  0  0  0  0
   38.0790   33.5330   49.4290 H   0  0  0  0  0  0  0  0  0  0  0  0
   40.0700   33.4930   47.9440 H   0  0  0  0  0  0  0  0  0  0  0  0
   40.1230   31.8290   46.0560 H   0  0  0  0  0  0  0  0  0  0  0  0
   33.6500   29.7890   50.3840 Cl  0  0  0  0  0  0  0  0  0  0  0  0
   35.3860   29.5540   50.5720 C   0  0  0  0  0  0  0  0  0  0  0  0
   36.2170   29.3550   49.4900 C   0  0  0  0  0  0  0  0  0  0  0  0
   37.5850   29.1710   49.6700 C   0  0  0  0  0  0  0  0  0  0  0  0
   38.1750   29.0210   48.7870 H   0  0  0  0  0  0  0  0  0  0  0  0
   38.0730   29.1970   50.9470 C   0  0  0  0  0  0  0  0  0  0  0  0
   39.1300   29.0590   51.1200 H   0  0  0  0  0  0  0  0  0  0  0  0
   37.2820   29.3930   52.0350 C   0  0  0  0  0  3  0  0  0  0  0  0
   35.9190   29.5740   51.8480 C   0  0  0  0  0  3  0  0  0  0  0  0
  1 15  1  0  0  0  0
  1  6  1  0  0  0  0
  2  1  2  0  0  0  0
  3  2  1  0  0  0  0
  3  4  2  0  0  0  0
  4  5  1  0  0  0  0
  5  6  2  0  0  0  0
  5 10  1  0  0  0  0
  6 22  1  0  0  0  0
  7  2  1  0  0  0  0
  8  3  1  0  0  0  0
  9  4  1  0  0  0  0
 11 17  1  0  0  0  0
 12 18  1  0  0  0  0
 12 11  2  0  0  0  0
 13 12  1  0  0  0  0
 14 13  2  0  0  0  0
 14 15  1  0  0  0  0
 15 16  2  0  0  0  0
 16 11  1  0  0  0  0
 19 13  1  0  0  0  0
 20 21  1  0  0  0  0
 21 28  1  0  0  0  0
 22 23  1  0  0  0  0
 22 21  2  0  0  0  0
 23 25  2  0  0  0  0
 24 23  1  0  0  0  0
 25 26  1  0  0  0  0
 25 27  1  0  0  0  0
 28 27  2  0  0  0  0
M  END
>  <minimizedAffinity>
-4.84978247

>  <minimizedRMSD>
1.68646443

$$$$
