
 OpenBabel03272509533D

 43 46  0  0  0  0  0  0  0  0999 V2000
   34.1190   28.9670   48.2680 C   0  0  0  0  0  0  0  0  0  0  0  0
   34.6760   29.6480   47.5940 H   0  0  0  0  0  0  0  0  0  0  0  0
   33.4520   29.6280   48.8860 H   0  0  0  0  0  0  0  0  0  0  0  0
   33.3230   27.9160   47.5480 C   0  0  0  0  0  0  0  0  0  0  0  0
   33.3630   28.1890   46.4560 H   0  0  0  0  0  0  0  0  0  0  0  0
   33.7300   26.9010   47.6190 H   0  0  0  0  0  0  0  0  0  0  0  0
   31.8840   27.9560   47.9020 C   0  0  0  0  0  0  0  0  0  0  0  0
   31.5280   27.7870   49.2270 C   0  0  0  0  0  0  0  0  0  0  0  0
   30.2380   27.8070   49.6600 C   0  0  0  0  0  0  0  0  0  0  0  0
   29.2640   27.9980   48.7650 N   0  0  0  0  0  0  0  0  0  0  0  0
   29.6090   28.1630   47.4660 C   0  0  0  0  0  0  0  0  0  0  0  0
   30.8800   28.1500   46.9990 N   0  0  0  0  0  0  0  0  0  0  0  0
   32.2900   27.6270   50.0030 H   0  0  0  0  0  0  0  0  0  0  0  0
   29.9740   27.6740   50.7020 H   0  0  0  0  0  0  0  0  0  0  0  0
   28.3570   25.6360   46.2980 Cl  0  0  0  0  0  0  0  0  0  0  0  0
   27.8750   27.2800   45.9290 C   0  0  0  0  0  0  0  0  0  0  0  0
   28.5150   28.3690   46.5200 C   0  0  0  0  0  0  0  0  0  0  0  0
   28.1090   29.6500   46.2060 C   0  0  0  0  0  0  0  0  0  0  0  0
   28.5950   30.5070   46.6550 H   0  0  0  0  0  0  0  0  0  0  0  0
   27.0700   29.8710   45.3080 C   0  0  0  0  0  0  0  0  0  0  0  0
   26.7990   30.9000   45.1030 H   0  0  0  0  0  0  0  0  0  0  0  0
   26.4100   28.8240   44.7000 C   0  0  0  0  0  3  0  0  0  0  0  0
   26.8560   27.5840   45.0510 C   0  0  0  0  0  3  0  0  0  0  0  0
   35.0850   28.3540   49.1200 O   0  0  0  0  0  0  0  0  0  0  0  0
   37.2220   30.1030   51.4440 C   0  0  0  0  0  0  0  0  0  0  0  0
   38.0020   30.8590   50.5430 C   0  0  0  0  0  0  0  0  0  0  0  0
   37.7490   30.7240   49.1810 C   0  0  0  0  0  0  0  0  0  0  0  0
   36.7390   29.8470   48.8400 N   0  0  0  0  0  0  0  0  0  0  0  0
   36.0220   29.1500   49.7040 C   0  0  0  0  0  0  0  0  0  0  0  0
   36.2680   29.2800   51.0320 N   0  0  0  0  0  0  0  0  0  0  0  0
   37.4970   30.2790   52.4640 H   0  0  0  0  0  0  0  0  0  0  0  0
   38.7860   31.5430   50.7560 H   0  0  0  0  0  0  0  0  0  0  0  0
   38.8140   33.4110   49.1990 F   0  0  0  0  0  0  0  0  0  0  0  0
   38.9360   32.6610   48.1010 C   0  0  0  0  0  0  0  0  0  0  0  0
   38.4270   31.4000   48.1160 C   0  0  0  0  0  0  0  0  0  0  0  0
   38.6130   30.7210   46.9230 C   0  0  0  0  0  0  0  0  0  0  0  0
   39.2490   31.2660   45.8300 C   0  0  0  0  0  0  0  0  0  0  0  0
   39.7460   32.5450   45.8660 C   0  0  0  0  0  0  0  0  0  0  0  0
   39.5800   33.2560   47.0380 C   0  0  0  0  0  0  0  0  0  0  0  0
   38.2750   29.7070   46.7480 H   0  0  0  0  0  0  0  0  0  0  0  0
   39.3980   30.7420   44.8940 H   0  0  0  0  0  0  0  0  0  0  0  0
   40.2460   33.0000   45.0360 H   0  0  0  0  0  0  0  0  0  0  0  0
   39.9630   34.2650   47.0910 H   0  0  0  0  0  0  0  0  0  0  0  0
  1  3  1  0  0  0  0
  1 24  1  0  0  0  0
  2  1  1  0  0  0  0
  4  6  1  0  0  0  0
  4  7  1  0  0  0  0
  4  1  1  0  0  0  0
  5  4  1  0  0  0  0
  7  8  1  0  0  0  0
  8  9  2  0  0  0  0
  8 13  1  0  0  0  0
  9 14  1  0  0  0  0
 10  9  1  0  0  0  0
 11 10  2  0  0  0  0
 12 11  1  0  0  0  0
 12  7  2  0  0  0  0
 16 15  1  0  0  0  0
 16 17  1  0  0  0  0
 17 11  1  0  0  0  0
 18 17  2  0  0  0  0
 18 19  1  0  0  0  0
 20 18  1  0  0  0  0
 21 20  1  0  0  0  0
 22 23  1  0  0  0  0
 22 20  2  0  0  0  0
 23 16  2  0  0  0  0
 24 29  1  0  0  0  0
 25 31  1  0  0  0  0
 26 32  1  0  0  0  0
 26 25  2  0  0  0  0
 27 26  1  0  0  0  0
 28 27  2  0  0  0  0
 28 29  1  0  0  0  0
 29 30  2  0  0  0  0
 30 25  1  0  0  0  0
 34 35  1  0  0  0  0
 34 33  1  0  0  0  0
 35 27  1  0  0  0  0
 36 35  2  0  0  0  0
 37 38  2  0  0  0  0
 37 36  1  0  0  0  0
 38 39  1  0  0  0  0
 39 43  1  0  0  0  0
 39 34  2  0  0  0  0
 40 36  1  0  0  0  0
 41 37  1  0  0  0  0
 42 38  1  0  0  0  0
M  END
>  <minimizedAffinity>
-6.97327662

>  <minimizedRMSD>
1.37249243

$$$$
