
 OpenBabel03272510203D

 36 39  0  0  0  0  0  0  0  0999 V2000
   37.4180   29.1310   50.7980 Br  0  0  0  0  0  0  0  0  0  0  0  0
   36.0260   29.2990   49.5150 C   0  0  0  0  0  0  0  0  0  0  0  0
   36.0260   30.3450   48.5980 C   0  0  0  0  0  0  0  0  0  0  0  0
   34.9850   30.4000   47.7010 C   0  0  0  0  0  0  0  0  0  0  0  0
   33.9570   29.4880   47.6620 C   0  0  0  0  0  0  0  0  0  0  0  0
   33.9810   28.4660   48.5790 C   0  0  0  0  0  0  0  0  0  0  0  0
   35.0130   28.3820   49.4930 C   0  0  0  0  0  0  0  0  0  0  0  0
   34.9960   31.2130   46.9970 H   0  0  0  0  0  0  0  0  0  0  0  0
   33.1840   27.7270   48.5770 H   0  0  0  0  0  0  0  0  0  0  0  0
   34.9660   27.5450   50.1880 H   0  0  0  0  0  0  0  0  0  0  0  0
   38.0060   33.2350   49.6010 C   0  0  0  0  0  0  0  0  0  0  0  0
   39.0750   33.2470   48.6600 C   0  0  0  0  0  0  0  0  0  0  0  0
   39.0870   32.2510   47.6940 C   0  0  0  0  0  0  0  0  0  0  0  0
   38.0890   31.3270   47.7000 N   0  0  0  0  0  0  0  0  0  0  0  0
   37.0910   31.3370   48.5970 C   0  0  0  0  0  0  0  0  0  0  0  0
   37.0520   32.2970   49.5530 N   0  0  0  0  0  0  0  0  0  0  0  0
   37.9860   34.0040   50.3560 H   0  0  0  0  0  0  0  0  0  0  0  0
   39.8270   34.0170   48.7280 H   0  0  0  0  0  0  0  0  0  0  0  0
   39.8840   32.2240   46.9590 H   0  0  0  0  0  0  0  0  0  0  0  0
   32.8540   29.5460   46.7130 C   0  0  0  0  0  0  0  0  0  0  0  0
   31.8810   28.5760   46.5800 C   0  0  0  0  0  0  0  0  0  0  0  0
   30.8500   28.6820   45.6560 C   0  0  0  0  0  0  0  0  0  0  0  0
   30.7860   29.7620   44.8570 N   0  0  0  0  0  0  0  0  0  0  0  0
   31.7350   30.7100   44.9850 C   0  0  0  0  0  0  0  0  0  0  0  0
   32.7160   30.5940   45.8740 N   0  0  0  0  0  0  0  0  0  0  0  0
   31.9410   27.7090   47.2280 H   0  0  0  0  0  0  0  0  0  0  0  0
   30.1420   27.8560   45.6430 H   0  0  0  0  0  0  0  0  0  0  0  0
   32.7560   30.3780   42.1260 Cl  0  0  0  0  0  0  0  0  0  0  0  0
   32.0750   31.8430   42.7960 C   0  0  0  0  0  0  0  0  0  0  0  0
   31.6460   31.8730   44.1070 C   0  0  0  0  0  0  0  0  0  0  0  0
   31.1080   33.0580   44.6140 C   0  0  0  0  0  0  0  0  0  0  0  0
   30.7560   33.1490   45.6240 H   0  0  0  0  0  0  0  0  0  0  0  0
   31.0470   34.1320   43.7420 C   0  0  0  0  0  0  0  0  0  0  0  0
   30.6320   35.0700   44.1060 H   0  0  0  0  0  0  0  0  0  0  0  0
   31.4740   34.1030   42.4310 C   0  0  0  0  0  3  0  0  0  0  0  0
   32.0130   32.9130   41.9290 C   0  0  0  0  0  3  0  0  0  0  0  0
  2  1  1  0  0  0  0
  3  2  2  0  0  0  0
  4  3  1  0  0  0  0
  5  4  2  0  0  0  0
  5  6  1  0  0  0  0
  6  7  2  0  0  0  0
  7  2  1  0  0  0  0
  7 10  1  0  0  0  0
  8  4  1  0  0  0  0
  9  6  1  0  0  0  0
 11 17  1  0  0  0  0
 12 18  1  0  0  0  0
 12 11  2  0  0  0  0
 13 14  2  0  0  0  0
 13 12  1  0  0  0  0
 14 15  1  0  0  0  0
 15  3  1  0  0  0  0
 15 16  2  0  0  0  0
 16 11  1  0  0  0  0
 19 13  1  0  0  0  0
 20  5  1  0  0  0  0
 21 20  1  0  0  0  0
 21 26  1  0  0  0  0
 22 21  2  0  0  0  0
 23 24  2  0  0  0  0
 23 22  1  0  0  0  0
 24 25  1  0  0  0  0
 25 20  2  0  0  0  0
 27 22  1  0  0  0  0
 28 29  1  0  0  0  0
 29 30  1  0  0  0  0
 30 31  2  0  0  0  0
 30 24  1  0  0  0  0
 31 32  1  0  0  0  0
 33 34  1  0  0  0  0
 33 31  1  0  0  0  0
 35 33  2  0  0  0  0
 36 35  1  0  0  0  0
 36 29  2  0  0  0  0
M  END
>  <minimizedAffinity>
-6.46393299

>  <minimizedRMSD>
0.718072593

$$$$
