
 OpenBabel03272505553D

 34 36  0  0  1  0  0  0  0  0999 V2000
   35.3330   30.3420   49.9920 C   0  0  2  0  0  0  0  0  0  0  0  0
   36.2530   31.3240   49.3070 C   0  0  0  0  0  0  0  0  0  0  0  0
   37.6970   30.9080   49.3780 C   0  0  2  0  0  0  0  0  0  0  0  0
   38.1940   30.6080   50.7520 C   0  0  0  0  0  0  0  0  0  0  0  0
   37.1760   29.8850   51.6140 C   0  0  0  0  0  0  0  0  0  0  0  0
   36.0460   29.3070   50.7910 C   0  0  0  0  0  0  0  0  0  0  0  0
   34.6240   30.9320   50.6040 H   0  0  0  0  0  0  0  0  0  0  0  0
   36.1500   32.3370   49.7380 H   0  0  0  0  0  0  0  0  0  0  0  0
   36.0290   31.4530   48.2160 H   0  0  0  0  0  0  0  0  0  0  0  0
   37.8800   30.0370   48.6750 H   0  0  0  0  0  0  0  0  0  0  0  0
   38.5550   31.4890   51.2820 H   0  0  0  0  0  0  0  0  0  0  0  0
   39.0370   29.8670   50.6140 H   0  0  0  0  0  0  0  0  0  0  0  0
   36.7570   30.6200   52.3510 H   0  0  0  0  0  0  0  0  0  0  0  0
   37.6350   29.0910   52.2000 H   0  0  0  0  0  0  0  0  0  0  0  0
   35.3010   28.9370   51.5500 H   0  0  0  0  0  0  0  0  0  0  0  0
   36.4180   28.4650   50.1830 H   0  0  0  0  0  0  0  0  0  0  0  0
   34.5000   29.6430   48.9760 C   0  0  0  0  0  0  0  0  0  0  0  0
   34.4670   30.2260   47.6950 C   0  0  0  0  0  0  0  0  0  0  0  0
   33.6640   29.5760   46.7360 C   0  0  0  0  0  0  0  0  0  0  0  0
   32.9700   28.4350   47.0830 N   0  0  0  0  0  0  0  0  0  0  0  0
   33.0430   27.9200   48.3350 C   0  0  0  0  0  0  0  0  0  0  0  0
   33.8050   28.5300   49.2560 N   0  0  0  0  0  0  0  0  0  0  0  0
   34.9950   31.1150   47.3930 H   0  0  0  0  0  0  0  0  0  0  0  0
   33.5530   29.9230   45.7200 H   0  0  0  0  0  0  0  0  0  0  0  0
   32.5130   27.0340   48.6270 H   0  0  0  0  0  0  0  0  0  0  0  0
   38.5770   30.5620   46.5870 Cl  0  0  0  0  0  0  0  0  0  0  0  0
   38.9440   32.0110   47.5320 C   0  0  0  0  0  0  0  0  0  0  0  0
   38.4760   32.0500   48.8410 C   0  0  0  0  0  0  0  0  0  0  0  0
   38.8180   33.2200   49.4800 C   0  0  0  0  0  0  0  0  0  0  0  0
   38.4980   33.3580   50.5000 H   0  0  0  0  0  0  0  0  0  0  0  0
   39.5420   34.2260   48.8780 C   0  0  0  0  0  0  0  0  0  0  0  0
   39.7630   35.1230   49.4760 H   0  0  0  0  0  0  0  0  0  0  0  0
   39.9690   34.1080   47.5730 C   0  0  0  0  0  0  0  0  0  0  0  0
   39.6600   32.9620   46.8770 C   0  0  0  0  0  0  0  0  0  0  0  0
  1  7  1  1  0  0  0
  1  6  1  0  0  0  0
  2  3  1  0  0  0  0
  2  8  1  0  0  0  0
  2  1  1  0  0  0  0
  3 10  1  6  0  0  0
  3  4  1  0  0  0  0
  4 11  1  0  0  0  0
  4  5  1  0  0  0  0
  5 14  1  0  0  0  0
  5 13  1  0  0  0  0
  6 15  1  0  0  0  0
  6  5  1  0  0  0  0
  9  2  1  0  0  0  0
 12  4  1  0  0  0  0
 16  6  1  0  0  0  0
 17 22  1  0  0  0  0
 17  1  1  0  0  0  0
 18 17  2  0  0  0  0
 19 20  2  0  0  0  0
 19 18  1  0  0  0  0
 20 21  1  0  0  0  0
 21 25  1  0  0  0  0
 21 22  2  0  0  0  0
 23 18  1  0  0  0  0
 24 19  1  0  0  0  0
 26 27  1  0  0  0  0
 27 28  1  0  0  0  0
 28  3  1  0  0  0  0
 28 29  2  0  0  0  0
 29 30  1  0  0  0  0
 31 32  1  0  0  0  0
 31 29  1  0  0  0  0
 33 31  2  0  0  0  0
 34 27  2  0  0  0  0
 34 33  1  0  0  0  0
M  END
>  <minimizedAffinity>
-7.22455454

>  <minimizedRMSD>
1.14706528

$$$$
