
 OpenBabel03272502033D

 42 46  0  0  0  0  0  0  0  0999 V2000
   37.4770   26.2260   35.4050 C   0  0  0  0  0  0  0  0  0  0  0  0
   37.8070   27.1320   35.9600 H   0  0  0  0  0  0  0  0  0  0  0  0
   36.3950   26.0790   35.3600 H   0  0  0  0  0  0  0  0  0  0  0  0
   38.1560   25.0630   36.1030 C   0  0  0  0  0  0  0  0  0  0  0  0
   37.7820   24.4440   37.2730 C   0  0  0  0  0  0  0  0  0  0  0  0
   38.6900   23.4280   37.5460 C   0  0  0  0  0  0  0  0  0  0  0  0
   39.5860   23.4690   36.5240 N   0  0  0  0  0  0  0  0  0  0  0  0
   39.2650   24.4290   35.6850 N   0  0  0  0  0  0  0  0  0  0  0  0
   40.8940   21.5280   37.3920 N   0  0  0  0  0  0  0  0  0  0  0  0
   40.6510   22.5260   36.5370 C   0  0  0  0  0  0  0  0  0  0  0  0
   41.6530   22.4970   35.6170 N   0  0  0  0  0  0  0  0  0  0  0  0
   42.5000   21.5080   35.8880 C   0  0  0  0  0  0  0  0  0  0  0  0
   43.6410   21.1020   35.2480 C   0  0  0  0  0  0  0  0  0  0  0  0
   44.3360   20.0540   35.7310 N   0  0  0  0  0  0  0  0  0  0  0  0
   43.8790   19.4220   36.8520 C   0  0  0  0  0  0  0  0  0  0  0  0
   42.7410   19.8270   37.4910 N   0  0  0  0  0  0  0  0  0  0  0  0
   42.0390   20.8770   37.0130 C   0  0  0  0  0  0  0  0  0  0  0  0
   36.9050   24.7300   37.8690 H   0  0  0  0  0  0  0  0  0  0  0  0
   38.6270   22.7800   38.4140 H   0  0  0  0  0  0  0  0  0  0  0  0
   40.3120   21.2730   38.2210 H   0  0  0  0  0  0  0  0  0  0  0  0
   44.0320   21.5780   34.3590 H   0  0  0  0  0  0  0  0  0  0  0  0
   44.3340   18.5730   37.3460 H   0  0  0  0  0  0  0  0  0  0  0  0
   38.1160   26.3070   34.0440 C   0  0  0  0  0  0  0  0  0  0  0  0
   38.2740   27.3720   33.7230 H   0  0  0  0  0  0  0  0  0  0  0  0
   39.1250   25.8540   34.0200 H   0  0  0  0  0  0  0  0  0  0  0  0
   35.6070   26.0080   31.3450 C   0  0  0  0  0  0  0  0  0  0  0  0
   35.5400   24.6210   31.1790 C   0  0  0  0  0  0  0  0  0  0  0  0
   36.3580   23.7810   31.9930 C   0  0  0  0  0  0  0  0  0  0  0  0
   37.1690   24.3710   32.8970 N   0  0  0  0  0  0  0  0  0  0  0  0
   37.1990   25.7340   33.0230 C   0  0  0  0  0  0  0  0  0  0  0  0
   36.4390   26.5250   32.2660 N   0  0  0  0  0  0  0  0  0  0  0  0
   35.0550   26.7620   30.8090 H   0  0  0  0  0  0  0  0  0  0  0  0
   34.8380   24.4150   30.4140 H   0  0  0  0  0  0  0  0  0  0  0  0
   38.5360   22.3940   30.2920 Cl  0  0  0  0  0  0  0  0  0  0  0  0
   37.1110   21.6530   30.9570 C   0  0  0  0  0  0  0  0  0  0  0  0
   36.2140   22.3820   31.7000 C   0  0  0  0  0  0  0  0  0  0  0  0
   35.1590   21.6310   32.1140 C   0  0  0  0  0  0  0  0  0  0  0  0
   34.3540   22.0260   32.7130 H   0  0  0  0  0  0  0  0  0  0  0  0
   34.9810   20.3000   31.8400 C   0  0  0  0  0  0  0  0  0  0  0  0
   34.1320   19.7280   32.1820 H   0  0  0  0  0  0  0  0  0  0  0  0
   35.9020   19.6070   31.0920 C   0  0  0  0  0  3  0  0  0  0  0  0
   37.0070   20.3200   30.6380 C   0  0  0  0  0  3  0  0  0  0  0  0
  1  2  1  0  0  0  0
  1  4  1  0  0  0  0
  3  1  1  0  0  0  0
  4  5  1  0  0  0  0
  5  6  2  0  0  0  0
  5 18  1  0  0  0  0
  6 19  1  0  0  0  0
  7 10  1  0  0  0  0
  7  6  1  0  0  0  0
  8  4  2  0  0  0  0
  8  7  1  0  0  0  0
  9 20  1  0  0  0  0
 10  9  1  0  0  0  0
 11 12  1  0  0  0  0
 11 10  2  0  0  0  0
 12 17  1  0  0  0  0
 13 14  1  0  0  0  0
 13 12  2  0  0  0  0
 14 15  2  0  0  0  0
 15 22  1  0  0  0  0
 15 16  1  0  0  0  0
 17  9  1  0  0  0  0
 17 16  2  0  0  0  0
 21 13  1  0  0  0  0
 23  1  1  0  0  0  0
 24 23  1  0  0  0  0
 25 23  1  0  0  0  0
 26 31  1  0  0  0  0
 27 26  2  0  0  0  0
 27 28  1  0  0  0  0
 28 29  2  0  0  0  0
 29 30  1  0  0  0  0
 30 23  1  0  0  0  0
 31 30  2  0  0  0  0
 32 26  1  0  0  0  0
 33 27  1  0  0  0  0
 34 35  1  0  0  0  0
 35 36  1  0  0  0  0
 36 28  1  0  0  0  0
 36 37  2  0  0  0  0
 37 38  1  0  0  0  0
 39 37  1  0  0  0  0
 39 40  1  0  0  0  0
 41 39  2  0  0  0  0
 42 35  2  0  0  0  0
 42 41  1  0  0  0  0
M  END
>  <minimizedAffinity>
-6.85901117

$$$$

 OpenBabel03272502033D

 42 46  0  0  0  0  0  0  0  0999 V2000
   35.9290   27.9680   31.1850 C   0  0  0  0  0  0  0  0  0  0  0  0
   35.3780   28.4120   32.0430 H   0  0  0  0  0  0  0  0  0  0  0  0
   35.3020   27.4910   30.4280 H   0  0  0  0  0  0  0  0  0  0  0  0
   36.8880   26.9690   31.8050 C   0  0  0  0  0  0  0  0  0  0  0  0
   37.8870   26.2580   31.1820 C   0  0  0  0  0  0  0  0  0  0  0  0
   38.5180   25.4590   32.1270 C   0  0  0  0  0  0  0  0  0  0  0  0
   37.8750   25.7190   33.2970 N   0  0  0  0  0  0  0  0  0  0  0  0
   36.9230   26.6040   33.0980 N   0  0  0  0  0  0  0  0  0  0  0  0
   39.3330   24.1810   34.6170 N   0  0  0  0  0  0  0  0  0  0  0  0
   38.3140   25.0320   34.4630 C   0  0  0  0  0  0  0  0  0  0  0  0
   37.7200   25.1440   35.6820 N   0  0  0  0  0  0  0  0  0  0  0  0
   38.3490   24.3860   36.5740 C   0  0  0  0  0  0  0  0  0  0  0  0
   38.1110   24.1820   37.9070 C   0  0  0  0  0  0  0  0  0  0  0  0
   38.9070   23.3470   38.6040 N   0  0  0  0  0  0  0  0  0  0  0  0
   39.9350   22.7240   37.9560 C   0  0  0  0  0  0  0  0  0  0  0  0
   40.1720   22.9270   36.6260 N   0  0  0  0  0  0  0  0  0  0  0  0
   39.3790   23.7630   35.9200 C   0  0  0  0  0  0  0  0  0  0  0  0
   38.1200   26.3310   30.1110 H   0  0  0  0  0  0  0  0  0  0  0  0
   39.3450   24.7950   31.9010 H   0  0  0  0  0  0  0  0  0  0  0  0
   39.9970   23.8760   33.8700 H   0  0  0  0  0  0  0  0  0  0  0  0
   37.3070   24.6580   38.4530 H   0  0  0  0  0  0  0  0  0  0  0  0
   40.6460   22.0330   38.3880 H   0  0  0  0  0  0  0  0  0  0  0  0
   36.7960   29.0640   30.6250 C   0  0  0  0  0  0  0  0  0  0  0  0
   37.8880   28.8490   30.7820 H   0  0  0  0  0  0  0  0  0  0  0  0
   36.6870   29.1760   29.5300 H   0  0  0  0  0  0  0  0  0  0  0  0
   36.7130   32.6470   31.5320 C   0  0  0  0  0  0  0  0  0  0  0  0
   36.0680   32.6060   32.7730 C   0  0  0  0  0  0  0  0  0  0  0  0
   35.6580   31.3460   33.3040 C   0  0  0  0  0  0  0  0  0  0  0  0
   35.9140   30.2380   32.5750 N   0  0  0  0  0  0  0  0  0  0  0  0
   36.5470   30.3300   31.3650 C   0  0  0  0  0  0  0  0  0  0  0  0
   36.9340   31.5020   30.8620 N   0  0  0  0  0  0  0  0  0  0  0  0
   37.0770   33.5150   31.0090 H   0  0  0  0  0  0  0  0  0  0  0  0
   35.9880   33.5980   33.1350 H   0  0  0  0  0  0  0  0  0  0  0  0
   32.6450   30.6640   33.4320 Cl  0  0  0  0  0  0  0  0  0  0  0  0
   33.6510   31.1730   34.7560 C   0  0  0  0  0  0  0  0  0  0  0  0
   34.9840   31.4480   34.5680 C   0  0  0  0  0  0  0  0  0  0  0  0
   35.5930   31.8480   35.7160 C   0  0  0  0  0  0  0  0  0  0  0  0
   36.6390   32.1040   35.7690 H   0  0  0  0  0  0  0  0  0  0  0  0
   34.9780   31.9730   36.9340 C   0  0  0  0  0  0  0  0  0  0  0  0
   35.4870   32.2940   37.8300 H   0  0  0  0  0  0  0  0  0  0  0  0
   33.6420   31.6890   37.0790 C   0  0  0  0  0  3  0  0  0  0  0  0
   32.9600   31.2730   35.9400 C   0  0  0  0  0  3  0  0  0  0  0  0
  1  4  1  0  0  0  0
  1  2  1  0  0  0  0
  3  1  1  0  0  0  0
  4  8  2  0  0  0  0
  5  4  1  0  0  0  0
  5  6  2  0  0  0  0
  6  7  1  0  0  0  0
  7 10  1  0  0  0  0
  8  7  1  0  0  0  0
  9 17  1  0  0  0  0
 10  9  1  0  0  0  0
 10 11  2  0  0  0  0
 11 12  1  0  0  0  0
 12 13  1  0  0  0  0
 13 21  1  0  0  0  0
 13 14  2  0  0  0  0
 15 22  1  0  0  0  0
 15 14  1  0  0  0  0
 16 15  2  0  0  0  0
 17 12  2  0  0  0  0
 17 16  1  0  0  0  0
 18  5  1  0  0  0  0
 19  6  1  0  0  0  0
 20  9  1  0  0  0  0
 23 24  1  0  0  0  0
 23  1  1  0  0  0  0
 23 30  1  0  0  0  0
 25 23  1  0  0  0  0
 26 27  1  0  0  0  0
 27 33  1  0  0  0  0
 27 28  2  0  0  0  0
 28 36  1  0  0  0  0
 29 28  1  0  0  0  0
 30 29  2  0  0  0  0
 31 30  1  0  0  0  0
 31 26  2  0  0  0  0
 32 26  1  0  0  0  0
 34 35  1  0  0  0  0
 35 42  1  0  0  0  0
 36 35  2  0  0  0  0
 36 37  1  0  0  0  0
 37 38  1  0  0  0  0
 37 39  2  0  0  0  0
 39 41  1  0  0  0  0
 39 40  1  0  0  0  0
 42 41  2  0  0  0  0
M  END
>  <minimizedAffinity>
-6.52554035

$$$$

 OpenBabel03272502033D

 42 46  0  0  0  0  0  0  0  0999 V2000
   36.2610   26.0960   31.5430 C   0  0  0  0  0  0  0  0  0  0  0  0
   35.6710   25.8850   30.6240 H   0  0  0  0  0  0  0  0  0  0  0  0
   35.9370   25.5570   32.4360 H   0  0  0  0  0  0  0  0  0  0  0  0
   36.1590   27.5960   31.7450 C   0  0  0  0  0  0  0  0  0  0  0  0
   36.3560   28.5900   30.8140 C   0  0  0  0  0  0  0  0  0  0  0  0
   36.1630   29.8190   31.4310 C   0  0  0  0  0  0  0  0  0  0  0  0
   35.8540   29.5240   32.7210 N   0  0  0  0  0  0  0  0  0  0  0  0
   35.8540   28.2210   32.8950 N   0  0  0  0  0  0  0  0  0  0  0  0
   35.5550   31.9190   33.3580 N   0  0  0  0  0  0  0  0  0  0  0  0
   35.5990   30.6070   33.6080 C   0  0  0  0  0  0  0  0  0  0  0  0
   35.3450   30.4600   34.9370 N   0  0  0  0  0  0  0  0  0  0  0  0
   35.1480   31.6460   35.5030 C   0  0  0  0  0  0  0  0  0  0  0  0
   34.8660   31.9870   36.7990 C   0  0  0  0  0  0  0  0  0  0  0  0
   34.7100   33.2850   37.1260 N   0  0  0  0  0  0  0  0  0  0  0  0
   34.8370   34.2290   36.1480 C   0  0  0  0  0  0  0  0  0  0  0  0
   35.1170   33.8900   34.8550 N   0  0  0  0  0  0  0  0  0  0  0  0
   35.2760   32.5910   34.5190 C   0  0  0  0  0  0  0  0  0  0  0  0
   36.6220   28.4070   29.7640 H   0  0  0  0  0  0  0  0  0  0  0  0
   36.2560   30.7710   30.9200 H   0  0  0  0  0  0  0  0  0  0  0  0
   35.7060   32.3740   32.4300 H   0  0  0  0  0  0  0  0  0  0  0  0
   34.7580   31.2670   37.6000 H   0  0  0  0  0  0  0  0  0  0  0  0
   34.7380   35.3000   36.2680 H   0  0  0  0  0  0  0  0  0  0  0  0
   37.7020   25.8350   31.1900 C   0  0  0  0  0  0  0  0  0  0  0  0
   37.8720   24.7600   30.9110 H   0  0  0  0  0  0  0  0  0  0  0  0
   38.0340   26.4100   30.3050 H   0  0  0  0  0  0  0  0  0  0  0  0
   40.2830   27.2040   33.4550 C   0  0  0  0  0  0  0  0  0  0  0  0
   40.1010   26.4140   34.5950 C   0  0  0  0  0  0  0  0  0  0  0  0
   39.0890   25.4070   34.5910 C   0  0  0  0  0  0  0  0  0  0  0  0
   38.3440   25.2620   33.4740 N   0  0  0  0  0  0  0  0  0  0  0  0
   38.5610   26.0600   32.3830 C   0  0  0  0  0  0  0  0  0  0  0  0
   39.5040   27.0020   32.3780 N   0  0  0  0  0  0  0  0  0  0  0  0
   41.0000   27.9940   33.3110 H   0  0  0  0  0  0  0  0  0  0  0  0
   40.8020   26.7240   35.3260 H   0  0  0  0  0  0  0  0  0  0  0  0
   40.9240   22.9590   35.0340 Cl  0  0  0  0  0  0  0  0  0  0  0  0
   39.7480   23.5880   36.1480 C   0  0  0  0  0  0  0  0  0  0  0  0
   38.9890   24.6900   35.8320 C   0  0  0  0  0  0  0  0  0  0  0  0
   38.1160   25.0150   36.8220 C   0  0  0  0  0  0  0  0  0  0  0  0
   37.4390   25.8520   36.7590 H   0  0  0  0  0  0  0  0  0  0  0  0
   37.9820   24.3440   38.0090 C   0  0  0  0  0  0  0  0  0  0  0  0
   37.2790   24.6240   38.7780 H   0  0  0  0  0  0  0  0  0  0  0  0
   38.7600   23.2450   38.2870 C   0  0  0  0  0  3  0  0  0  0  0  0
   39.6760   22.8610   37.3130 C   0  0  0  0  0  3  0  0  0  0  0  0
  1  4  1  0  0  0  0
  1  3  1  0  0  0  0
  2  1  1  0  0  0  0
  4  8  2  0  0  0  0
  5  6  2  0  0  0  0
  5  4  1  0  0  0  0
  6  7  1  0  0  0  0
  7  8  1  0  0  0  0
  7 10  1  0  0  0  0
  9 10  1  0  0  0  0
  9 17  1  0  0  0  0
 10 11  2  0  0  0  0
 11 12  1  0  0  0  0
 12 13  1  0  0  0  0
 13 14  2  0  0  0  0
 13 21  1  0  0  0  0
 15 22  1  0  0  0  0
 15 14  1  0  0  0  0
 16 15  2  0  0  0  0
 17 16  1  0  0  0  0
 17 12  2  0  0  0  0
 18  5  1  0  0  0  0
 19  6  1  0  0  0  0
 20  9  1  0  0  0  0
 23  1  1  0  0  0  0
 23 30  1  0  0  0  0
 24 23  1  0  0  0  0
 25 23  1  0  0  0  0
 26 27  1  0  0  0  0
 27 33  1  0  0  0  0
 28 27  2  0  0  0  0
 28 36  1  0  0  0  0
 29 28  1  0  0  0  0
 30 29  2  0  0  0  0
 31 30  1  0  0  0  0
 31 26  2  0  0  0  0
 32 26  1  0  0  0  0
 34 35  1  0  0  0  0
 35 42  1  0  0  0  0
 36 35  2  0  0  0  0
 36 37  1  0  0  0  0
 37 39  2  0  0  0  0
 38 37  1  0  0  0  0
 39 41  1  0  0  0  0
 39 40  1  0  0  0  0
 42 41  2  0  0  0  0
M  END
>  <minimizedAffinity>
-6.45380354

$$$$

 OpenBabel03272502033D

 42 46  0  0  0  0  0  0  0  0999 V2000
   39.0670   26.7080   35.6450 C   0  0  0  0  0  0  0  0  0  0  0  0
   39.2070   27.5110   36.4020 H   0  0  0  0  0  0  0  0  0  0  0  0
   39.9810   26.3690   35.1540 H   0  0  0  0  0  0  0  0  0  0  0  0
   38.0870   27.2800   34.6380 C   0  0  0  0  0  0  0  0  0  0  0  0
   38.1300   27.1810   33.2670 C   0  0  0  0  0  0  0  0  0  0  0  0
   37.0350   27.8540   32.7400 C   0  0  0  0  0  0  0  0  0  0  0  0
   36.3630   28.3380   33.8180 N   0  0  0  0  0  0  0  0  0  0  0  0
   36.9860   27.9970   34.9240 N   0  0  0  0  0  0  0  0  0  0  0  0
   34.5530   29.3500   32.4280 N   0  0  0  0  0  0  0  0  0  0  0  0
   35.1750   29.0840   33.5810 C   0  0  0  0  0  0  0  0  0  0  0  0
   34.4430   29.6810   34.5590 N   0  0  0  0  0  0  0  0  0  0  0  0
   33.3920   30.3040   34.0350 C   0  0  0  0  0  0  0  0  0  0  0  0
   32.3920   31.0310   34.6250 C   0  0  0  0  0  0  0  0  0  0  0  0
   31.4240   31.5720   33.8590 N   0  0  0  0  0  0  0  0  0  0  0  0
   31.4690   31.3790   32.5080 C   0  0  0  0  0  0  0  0  0  0  0  0
   32.4660   30.6540   31.9200 N   0  0  0  0  0  0  0  0  0  0  0  0
   33.4400   30.1090   32.6800 C   0  0  0  0  0  0  0  0  0  0  0  0
   38.9160   26.6520   32.7110 H   0  0  0  0  0  0  0  0  0  0  0  0
   36.8280   27.9300   31.6780 H   0  0  0  0  0  0  0  0  0  0  0  0
   34.8560   29.0360   31.4790 H   0  0  0  0  0  0  0  0  0  0  0  0
   32.3240   31.2040   35.6910 H   0  0  0  0  0  0  0  0  0  0  0  0
   30.7630   31.7530   31.7790 H   0  0  0  0  0  0  0  0  0  0  0  0
   38.3260   25.5970   36.3400 C   0  0  0  0  0  0  0  0  0  0  0  0
   38.6500   25.4890   37.4100 H   0  0  0  0  0  0  0  0  0  0  0  0
   37.2360   25.7800   36.3940 H   0  0  0  0  0  0  0  0  0  0  0  0
   40.1240   22.5040   35.4060 C   0  0  0  0  0  0  0  0  0  0  0  0
   39.2230   21.9170   34.5100 C   0  0  0  0  0  0  0  0  0  0  0  0
   37.9920   22.5820   34.2230 C   0  0  0  0  0  0  0  0  0  0  0  0
   37.7510   23.7610   34.8380 N   0  0  0  0  0  0  0  0  0  0  0  0
   38.6640   24.2940   35.7070 C   0  0  0  0  0  0  0  0  0  0  0  0
   39.8150   23.6800   35.9800 N   0  0  0  0  0  0  0  0  0  0  0  0
   41.0820   22.1240   35.7170 H   0  0  0  0  0  0  0  0  0  0  0  0
   39.6420   21.0060   34.1710 H   0  0  0  0  0  0  0  0  0  0  0  0
   35.7740   20.7690   35.3840 Cl  0  0  0  0  0  0  0  0  0  0  0  0
   36.1310   21.0240   33.7020 C   0  0  0  0  0  0  0  0  0  0  0  0
   37.1490   21.8600   33.3120 C   0  0  0  0  0  0  0  0  0  0  0  0
   37.2820   21.9120   31.9600 C   0  0  0  0  0  0  0  0  0  0  0  0
   38.0240   22.5180   31.4640 H   0  0  0  0  0  0  0  0  0  0  0  0
   36.5080   21.2250   31.0630 C   0  0  0  0  0  0  0  0  0  0  0  0
   36.6360   21.2850   29.9930 H   0  0  0  0  0  0  0  0  0  0  0  0
   35.4980   20.3980   31.4950 C   0  0  0  0  0  3  0  0  0  0  0  0
   35.3100   20.3010   32.8690 C   0  0  0  0  0  3  0  0  0  0  0  0
  1 23  1  0  0  0  0
  1  2  1  0  0  0  0
  3  1  1  0  0  0  0
  4  8  2  0  0  0  0
  4  1  1  0  0  0  0
  5  4  1  0  0  0  0
  6  5  2  0  0  0  0
  6  7  1  0  0  0  0
  7  8  1  0  0  0  0
  9 17  1  0  0  0  0
  9 10  1  0  0  0  0
 10  7  1  0  0  0  0
 10 11  2  0  0  0  0
 12 11  1  0  0  0  0
 12 13  1  0  0  0  0
 13 21  1  0  0  0  0
 14 13  2  0  0  0  0
 15 14  1  0  0  0  0
 16 15  2  0  0  0  0
 16 17  1  0  0  0  0
 17 12  2  0  0  0  0
 18  5  1  0  0  0  0
 19  6  1  0  0  0  0
 20  9  1  0  0  0  0
 22 15  1  0  0  0  0
 23 25  1  0  0  0  0
 23 24  1  0  0  0  0
 26 32  1  0  0  0  0
 26 31  1  0  0  0  0
 27 26  2  0  0  0  0
 28 27  1  0  0  0  0
 28 29  2  0  0  0  0
 29 30  1  0  0  0  0
 30 31  2  0  0  0  0
 30 23  1  0  0  0  0
 33 27  1  0  0  0  0
 35 34  1  0  0  0  0
 36 35  1  0  0  0  0
 36 28  1  0  0  0  0
 37 36  2  0  0  0  0
 38 37  1  0  0  0  0
 39 41  2  0  0  0  0
 39 37  1  0  0  0  0
 40 39  1  0  0  0  0
 41 42  1  0  0  0  0
 42 35  2  0  0  0  0
M  END
>  <minimizedAffinity>
-6.36952591

$$$$

 OpenBabel03272502033D

 42 46  0  0  0  0  0  0  0  0999 V2000
   37.7780   27.5720   32.3690 C   0  0  0  0  0  0  0  0  0  0  0  0
   38.2900   27.1070   31.4980 H   0  0  0  0  0  0  0  0  0  0  0  0
   38.0890   28.5930   32.6000 H   0  0  0  0  0  0  0  0  0  0  0  0
   38.0550   26.6420   33.5350 C   0  0  0  0  0  0  0  0  0  0  0  0
   37.3420   26.5160   34.7050 C   0  0  0  0  0  0  0  0  0  0  0  0
   37.9510   25.5480   35.4930 C   0  0  0  0  0  0  0  0  0  0  0  0
   39.0160   25.1180   34.7670 N   0  0  0  0  0  0  0  0  0  0  0  0
   39.0690   25.7640   33.6230 N   0  0  0  0  0  0  0  0  0  0  0  0
   39.7030   23.4400   36.4830 N   0  0  0  0  0  0  0  0  0  0  0  0
   39.8410   24.1060   35.3320 C   0  0  0  0  0  0  0  0  0  0  0  0
   40.9750   23.6320   34.7480 N   0  0  0  0  0  0  0  0  0  0  0  0
   41.5310   22.6960   35.5110 C   0  0  0  0  0  0  0  0  0  0  0  0
   42.6650   21.9490   35.3320 C   0  0  0  0  0  0  0  0  0  0  0  0
   43.0230   21.0500   36.2700 N   0  0  0  0  0  0  0  0  0  0  0  0
   42.2370   20.9070   37.3780 C   0  0  0  0  0  0  0  0  0  0  0  0
   41.1050   21.6510   37.5550 N   0  0  0  0  0  0  0  0  0  0  0  0
   40.7410   22.5560   36.6200 C   0  0  0  0  0  0  0  0  0  0  0  0
   36.4450   27.1020   34.9460 H   0  0  0  0  0  0  0  0  0  0  0  0
   37.5890   25.2520   36.4720 H   0  0  0  0  0  0  0  0  0  0  0  0
   38.9320   23.5640   37.1770 H   0  0  0  0  0  0  0  0  0  0  0  0
   43.3110   22.0350   34.4680 H   0  0  0  0  0  0  0  0  0  0  0  0
   42.4030   20.2290   38.2040 H   0  0  0  0  0  0  0  0  0  0  0  0
   36.3000   27.4540   32.1040 C   0  0  0  0  0  0  0  0  0  0  0  0
   36.0920   27.1760   31.0350 H   0  0  0  0  0  0  0  0  0  0  0  0
   35.8240   26.6530   32.7000 H   0  0  0  0  0  0  0  0  0  0  0  0
   34.9600   30.8340   31.4360 C   0  0  0  0  0  0  0  0  0  0  0  0
   34.4520   31.1860   32.6920 C   0  0  0  0  0  0  0  0  0  0  0  0
   34.5670   30.2620   33.7740 C   0  0  0  0  0  0  0  0  0  0  0  0
   35.1670   29.0760   33.5330 N   0  0  0  0  0  0  0  0  0  0  0  0
   35.6490   28.7780   32.2870 C   0  0  0  0  0  0  0  0  0  0  0  0
   35.5450   29.6350   31.2710 N   0  0  0  0  0  0  0  0  0  0  0  0
   34.9460   31.4210   30.5340 H   0  0  0  0  0  0  0  0  0  0  0  0
   34.0340   32.1550   32.6170 H   0  0  0  0  0  0  0  0  0  0  0  0
   36.2840   32.0120   35.6560 Cl  0  0  0  0  0  0  0  0  0  0  0  0
   34.6380   31.5190   35.9140 C   0  0  0  0  0  0  0  0  0  0  0  0
   33.9800   30.7350   34.9960 C   0  0  0  0  0  0  0  0  0  0  0  0
   32.7120   30.4410   35.3870 C   0  0  0  0  0  0  0  0  0  0  0  0
   32.0380   29.8400   34.7960 H   0  0  0  0  0  0  0  0  0  0  0  0
   32.1260   30.8610   36.5520 C   0  0  0  0  0  0  0  0  0  0  0  0
   31.1160   30.6120   36.8370 H   0  0  0  0  0  0  0  0  0  0  0  0
   32.8190   31.6440   37.4440 C   0  0  0  0  0  3  0  0  0  0  0  0
   34.1240   31.9810   37.1020 C   0  0  0  0  0  3  0  0  0  0  0  0
  1  3  1  0  0  0  0
  1  4  1  0  0  0  0
  2  1  1  0  0  0  0
  4  8  2  0  0  0  0
  4  5  1  0  0  0  0
  5 18  1  0  0  0  0
  5  6  2  0  0  0  0
  6 19  1  0  0  0  0
  7 10  1  0  0  0  0
  7  6  1  0  0  0  0
  8  7  1  0  0  0  0
  9 17  1  0  0  0  0
  9 20  1  0  0  0  0
 10  9  1  0  0  0  0
 11 10  2  0  0  0  0
 11 12  1  0  0  0  0
 12 17  1  0  0  0  0
 13 12  2  0  0  0  0
 13 14  1  0  0  0  0
 14 15  2  0  0  0  0
 15 16  1  0  0  0  0
 15 22  1  0  0  0  0
 17 16  2  0  0  0  0
 21 13  1  0  0  0  0
 23 30  1  0  0  0  0
 23  1  1  0  0  0  0
 23 25  1  0  0  0  0
 24 23  1  0  0  0  0
 26 27  1  0  0  0  0
 27 28  2  0  0  0  0
 28 36  1  0  0  0  0
 29 28  1  0  0  0  0
 30 29  2  0  0  0  0
 31 26  2  0  0  0  0
 31 30  1  0  0  0  0
 32 26  1  0  0  0  0
 33 27  1  0  0  0  0
 34 35  1  0  0  0  0
 35 42  1  0  0  0  0
 36 37  1  0  0  0  0
 36 35  2  0  0  0  0
 37 39  2  0  0  0  0
 38 37  1  0  0  0  0
 39 40  1  0  0  0  0
 39 41  1  0  0  0  0
 42 41  2  0  0  0  0
M  END
>  <minimizedAffinity>
-6.32351542

$$$$

 OpenBabel03272502033D

 42 46  0  0  0  0  0  0  0  0999 V2000
   37.4250   27.7450   31.6250 C   0  0  0  0  0  0  0  0  0  0  0  0
   38.4480   27.5980   31.2140 H   0  0  0  0  0  0  0  0  0  0  0  0
   37.3870   28.0830   32.6630 H   0  0  0  0  0  0  0  0  0  0  0  0
   36.7360   26.4030   31.4620 C   0  0  0  0  0  0  0  0  0  0  0  0
   35.4110   26.1620   31.1800 C   0  0  0  0  0  0  0  0  0  0  0  0
   35.2130   24.7890   31.1230 C   0  0  0  0  0  0  0  0  0  0  0  0
   36.4330   24.2440   31.3740 N   0  0  0  0  0  0  0  0  0  0  0  0
   37.3180   25.1970   31.5710 N   0  0  0  0  0  0  0  0  0  0  0  0
   35.6110   21.9010   31.1120 N   0  0  0  0  0  0  0  0  0  0  0  0
   36.5390   22.8250   31.3800 C   0  0  0  0  0  0  0  0  0  0  0  0
   37.6800   22.1470   31.6810 N   0  0  0  0  0  0  0  0  0  0  0  0
   37.4720   20.8370   31.6040 C   0  0  0  0  0  0  0  0  0  0  0  0
   38.3160   19.7790   31.8190 C   0  0  0  0  0  0  0  0  0  0  0  0
   37.8550   18.5210   31.6760 N   0  0  0  0  0  0  0  0  0  0  0  0
   36.5500   18.3360   31.3170 C   0  0  0  0  0  0  0  0  0  0  0  0
   35.7090   19.3900   31.1020 N   0  0  0  0  0  0  0  0  0  0  0  0
   36.1630   20.6550   31.2440 C   0  0  0  0  0  0  0  0  0  0  0  0
   34.6590   26.9490   31.0320 H   0  0  0  0  0  0  0  0  0  0  0  0
   34.2550   24.3260   30.9150 H   0  0  0  0  0  0  0  0  0  0  0  0
   34.6180   22.0860   30.8440 H   0  0  0  0  0  0  0  0  0  0  0  0
   39.3540   19.8880   32.1040 H   0  0  0  0  0  0  0  0  0  0  0  0
   36.0500   17.3880   31.1680 H   0  0  0  0  0  0  0  0  0  0  0  0
   36.7180   28.6770   30.6770 C   0  0  0  0  0  0  0  0  0  0  0  0
   37.3560   28.9230   29.7850 H   0  0  0  0  0  0  0  0  0  0  0  0
   35.7990   28.2330   30.2500 H   0  0  0  0  0  0  0  0  0  0  0  0
   36.6160   32.3090   31.3600 C   0  0  0  0  0  0  0  0  0  0  0  0
   36.0090   32.3390   32.6210 C   0  0  0  0  0  0  0  0  0  0  0  0
   35.6320   31.1100   33.2420 C   0  0  0  0  0  0  0  0  0  0  0  0
   35.8800   29.9610   32.5760 N   0  0  0  0  0  0  0  0  0  0  0  0
   36.4760   29.9840   31.3440 C   0  0  0  0  0  0  0  0  0  0  0  0
   36.8310   31.1270   30.7570 N   0  0  0  0  0  0  0  0  0  0  0  0
   36.9530   33.1470   30.7730 H   0  0  0  0  0  0  0  0  0  0  0  0
   35.9270   33.3500   32.9220 H   0  0  0  0  0  0  0  0  0  0  0  0
   32.6670   30.2860   33.5380 Cl  0  0  0  0  0  0  0  0  0  0  0  0
   33.6860   30.9570   34.7760 C   0  0  0  0  0  0  0  0  0  0  0  0
   34.9950   31.2840   34.5170 C   0  0  0  0  0  0  0  0  0  0  0  0
   35.6180   31.8110   35.6050 C   0  0  0  0  0  0  0  0  0  0  0  0
   36.6500   32.1250   35.5980 H   0  0  0  0  0  0  0  0  0  0  0  0
   35.0370   32.0070   36.8300 C   0  0  0  0  0  0  0  0  0  0  0  0
   35.5560   32.4280   37.6770 H   0  0  0  0  0  0  0  0  0  0  0  0
   33.7240   31.6670   37.0480 C   0  0  0  0  0  3  0  0  0  0  0  0
   33.0300   31.1200   35.9730 C   0  0  0  0  0  3  0  0  0  0  0  0
  1  3  1  0  0  0  0
  2  1  1  0  0  0  0
  4  8  2  0  0  0  0
  4  1  1  0  0  0  0
  5  4  1  0  0  0  0
  6  5  2  0  0  0  0
  6  7  1  0  0  0  0
  7 10  1  0  0  0  0
  7  8  1  0  0  0  0
  9 17  1  0  0  0  0
  9 10  1  0  0  0  0
 10 11  2  0  0  0  0
 12 11  1  0  0  0  0
 12 13  1  0  0  0  0
 13 21  1  0  0  0  0
 14 13  2  0  0  0  0
 15 14  1  0  0  0  0
 16 17  1  0  0  0  0
 16 15  2  0  0  0  0
 17 12  2  0  0  0  0
 18  5  1  0  0  0  0
 19  6  1  0  0  0  0
 20  9  1  0  0  0  0
 22 15  1  0  0  0  0
 23 30  1  0  0  0  0
 23  1  1  0  0  0  0
 24 23  1  0  0  0  0
 25 23  1  0  0  0  0
 26 27  1  0  0  0  0
 27 33  1  0  0  0  0
 27 28  2  0  0  0  0
 28 36  1  0  0  0  0
 29 28  1  0  0  0  0
 30 29  2  0  0  0  0
 31 30  1  0  0  0  0
 31 26  2  0  0  0  0
 32 26  1  0  0  0  0
 34 35  1  0  0  0  0
 35 42  1  0  0  0  0
 36 35  2  0  0  0  0
 36 37  1  0  0  0  0
 37 39  2  0  0  0  0
 38 37  1  0  0  0  0
 39 41  1  0  0  0  0
 39 40  1  0  0  0  0
 42 41  2  0  0  0  0
M  END
>  <minimizedAffinity>
-6.28542471

$$$$

 OpenBabel03272502033D

 42 46  0  0  0  0  0  0  0  0999 V2000
   37.6660   26.6950   35.4480 C   0  0  0  0  0  0  0  0  0  0  0  0
   38.3540   27.4920   35.8050 H   0  0  0  0  0  0  0  0  0  0  0  0
   36.6150   26.8400   35.7050 H   0  0  0  0  0  0  0  0  0  0  0  0
   38.2020   25.4090   36.0490 C   0  0  0  0  0  0  0  0  0  0  0  0
   37.6160   24.6150   37.0060 C   0  0  0  0  0  0  0  0  0  0  0  0
   38.4550   23.5390   37.2630 C   0  0  0  0  0  0  0  0  0  0  0  0
   39.5260   23.7200   36.4460 N   0  0  0  0  0  0  0  0  0  0  0  0
   39.3690   24.8180   35.7390 N   0  0  0  0  0  0  0  0  0  0  0  0
   40.6470   21.6180   37.1930 N   0  0  0  0  0  0  0  0  0  0  0  0
   40.5680   22.7540   36.4920 C   0  0  0  0  0  0  0  0  0  0  0  0
   41.7250   22.8460   35.7800 N   0  0  0  0  0  0  0  0  0  0  0  0
   42.5050   21.7980   36.0290 C   0  0  0  0  0  0  0  0  0  0  0  0
   43.7440   21.4670   35.5490 C   0  0  0  0  0  0  0  0  0  0  0  0
   44.3360   20.3300   35.9640 N   0  0  0  0  0  0  0  0  0  0  0  0
   43.6770   19.5350   36.8570 C   0  0  0  0  0  0  0  0  0  0  0  0
   42.4410   19.8640   37.3360 N   0  0  0  0  0  0  0  0  0  0  0  0
   41.8410   21.0030   36.9250 C   0  0  0  0  0  0  0  0  0  0  0  0
   36.6440   24.8270   37.4720 H   0  0  0  0  0  0  0  0  0  0  0  0
   38.2300   22.7570   37.9810 H   0  0  0  0  0  0  0  0  0  0  0  0
   39.9200   21.2470   37.8450 H   0  0  0  0  0  0  0  0  0  0  0  0
   44.2950   22.0730   34.8410 H   0  0  0  0  0  0  0  0  0  0  0  0
   44.0310   18.6010   37.2730 H   0  0  0  0  0  0  0  0  0  0  0  0
   37.8970   26.5720   33.9650 C   0  0  0  0  0  0  0  0  0  0  0  0
   38.9770   26.7280   33.6990 H   0  0  0  0  0  0  0  0  0  0  0  0
   37.6560   25.5630   33.5790 H   0  0  0  0  0  0  0  0  0  0  0  0
   36.8020   28.9310   31.3370 C   0  0  0  0  0  0  0  0  0  0  0  0
   35.8060   29.6510   32.0060 C   0  0  0  0  0  0  0  0  0  0  0  0
   35.5050   29.3280   33.3630 C   0  0  0  0  0  0  0  0  0  0  0  0
   36.2040   28.3300   33.9470 N   0  0  0  0  0  0  0  0  0  0  0  0
   37.1690   27.6550   33.2510 C   0  0  0  0  0  0  0  0  0  0  0  0
   37.4560   27.9500   31.9830 N   0  0  0  0  0  0  0  0  0  0  0  0
   37.1360   29.0590   30.3220 H   0  0  0  0  0  0  0  0  0  0  0  0
   35.4130   30.3690   31.3350 H   0  0  0  0  0  0  0  0  0  0  0  0
   36.1290   31.1240   35.8000 Cl  0  0  0  0  0  0  0  0  0  0  0  0
   34.5950   30.9590   35.0000 C   0  0  0  0  0  0  0  0  0  0  0  0
   34.4460   30.1220   33.9200 C   0  0  0  0  0  0  0  0  0  0  0  0
   33.1710   30.1160   33.4470 C   0  0  0  0  0  0  0  0  0  0  0  0
   32.8600   29.5240   32.6020 H   0  0  0  0  0  0  0  0  0  0  0  0
   32.1330   30.8460   33.9640 C   0  0  0  0  0  0  0  0  0  0  0  0
   31.1300   30.8220   33.5680 H   0  0  0  0  0  0  0  0  0  0  0  0
   32.3250   31.6720   35.0460 C   0  0  0  0  0  3  0  0  0  0  0  0
   33.6090   31.7240   35.5770 C   0  0  0  0  0  3  0  0  0  0  0  0
  1  3  1  0  0  0  0
  1  2  1  0  0  0  0
  1  4  1  0  0  0  0
  4  5  1  0  0  0  0
  5  6  2  0  0  0  0
  5 18  1  0  0  0  0
  6 19  1  0  0  0  0
  7 10  1  0  0  0  0
  7  6  1  0  0  0  0
  8  4  2  0  0  0  0
  8  7  1  0  0  0  0
  9 20  1  0  0  0  0
 10  9  1  0  0  0  0
 11 12  1  0  0  0  0
 11 10  2  0  0  0  0
 12 17  1  0  0  0  0
 13 14  1  0  0  0  0
 13 12  2  0  0  0  0
 14 15  2  0  0  0  0
 15 22  1  0  0  0  0
 15 16  1  0  0  0  0
 17  9  1  0  0  0  0
 17 16  2  0  0  0  0
 21 13  1  0  0  0  0
 23  1  1  0  0  0  0
 24 23  1  0  0  0  0
 25 23  1  0  0  0  0
 26 31  2  0  0  0  0
 26 27  1  0  0  0  0
 27 28  2  0  0  0  0
 28 36  1  0  0  0  0
 28 29  1  0  0  0  0
 30 29  2  0  0  0  0
 30 23  1  0  0  0  0
 31 30  1  0  0  0  0
 32 26  1  0  0  0  0
 33 27  1  0  0  0  0
 35 42  1  0  0  0  0
 35 34  1  0  0  0  0
 36 35  2  0  0  0  0
 37 36  1  0  0  0  0
 37 39  2  0  0  0  0
 38 37  1  0  0  0  0
 39 41  1  0  0  0  0
 40 39  1  0  0  0  0
 41 42  2  0  0  0  0
M  END
>  <minimizedAffinity>
-6.20511627

$$$$

 OpenBabel03272502033D

 42 46  0  0  0  0  0  0  0  0999 V2000
   36.0070   26.1310   31.4190 C   0  0  0  0  0  0  0  0  0  0  0  0
   35.7920   26.0280   30.3330 H   0  0  0  0  0  0  0  0  0  0  0  0
   35.2950   25.6320   32.0810 H   0  0  0  0  0  0  0  0  0  0  0  0
   36.0370   27.6250   31.6790 C   0  0  0  0  0  0  0  0  0  0  0  0
   36.4140   28.6260   30.8140 C   0  0  0  0  0  0  0  0  0  0  0  0
   36.2900   29.8460   31.4660 C   0  0  0  0  0  0  0  0  0  0  0  0
   35.8370   29.5380   32.7110 N   0  0  0  0  0  0  0  0  0  0  0  0
   35.6920   28.2360   32.8260 N   0  0  0  0  0  0  0  0  0  0  0  0
   35.7220   31.9270   33.4260 N   0  0  0  0  0  0  0  0  0  0  0  0
   35.6120   30.6080   33.6200 C   0  0  0  0  0  0  0  0  0  0  0  0
   35.2260   30.4410   34.9140 N   0  0  0  0  0  0  0  0  0  0  0  0
   35.0970   31.6210   35.5130 C   0  0  0  0  0  0  0  0  0  0  0  0
   34.7350   31.9420   36.7950 C   0  0  0  0  0  0  0  0  0  0  0  0
   34.6800   33.2360   37.1650 N   0  0  0  0  0  0  0  0  0  0  0  0
   34.9880   34.1970   36.2450 C   0  0  0  0  0  0  0  0  0  0  0  0
   35.3490   33.8770   34.9670 N   0  0  0  0  0  0  0  0  0  0  0  0
   35.4080   32.5810   34.5880 C   0  0  0  0  0  0  0  0  0  0  0  0
   36.7550   28.4540   29.7840 H   0  0  0  0  0  0  0  0  0  0  0  0
   36.5240   30.8010   31.0090 H   0  0  0  0  0  0  0  0  0  0  0  0
   36.0020   32.3970   32.5360 H   0  0  0  0  0  0  0  0  0  0  0  0
   34.4840   31.2080   37.5500 H   0  0  0  0  0  0  0  0  0  0  0  0
   34.9860   35.2670   36.4030 H   0  0  0  0  0  0  0  0  0  0  0  0
   37.4230   25.6600   31.6180 C   0  0  0  0  0  0  0  0  0  0  0  0
   37.9220   25.4250   30.6390 H   0  0  0  0  0  0  0  0  0  0  0  0
   38.0660   26.4310   32.0820 H   0  0  0  0  0  0  0  0  0  0  0  0
   36.6320   22.2070   32.6750 C   0  0  0  0  0  0  0  0  0  0  0  0
   37.4770   22.0530   33.7800 C   0  0  0  0  0  0  0  0  0  0  0  0
   38.3240   23.1360   34.1660 C   0  0  0  0  0  0  0  0  0  0  0  0
   38.2700   24.2720   33.4380 N   0  0  0  0  0  0  0  0  0  0  0  0
   37.4260   24.3740   32.3650 C   0  0  0  0  0  0  0  0  0  0  0  0
   36.6330   23.3680   31.9980 N   0  0  0  0  0  0  0  0  0  0  0  0
   35.9440   21.4850   32.2690 H   0  0  0  0  0  0  0  0  0  0  0  0
   37.3330   21.0800   34.1710 H   0  0  0  0  0  0  0  0  0  0  0  0
   37.4320   24.1080   36.9620 Cl  0  0  0  0  0  0  0  0  0  0  0  0
   38.8730   23.2110   36.5860 C   0  0  0  0  0  0  0  0  0  0  0  0
   39.1590   22.8360   35.2950 C   0  0  0  0  0  0  0  0  0  0  0  0
   40.3360   22.1620   35.2040 C   0  0  0  0  0  0  0  0  0  0  0  0
   40.7260   21.7820   34.2730 H   0  0  0  0  0  0  0  0  0  0  0  0
   41.1640   21.8730   36.2570 C   0  0  0  0  0  0  0  0  0  0  0  0
   42.0940   21.3360   36.1550 H   0  0  0  0  0  0  0  0  0  0  0  0
   40.8420   22.2670   37.5330 C   0  0  0  0  0  3  0  0  0  0  0  0
   39.6480   22.9620   37.6940 C   0  0  0  0  0  3  0  0  0  0  0  0
  1 23  1  0  0  0  0
  1  4  1  0  0  0  0
  1  3  1  0  0  0  0
  2  1  1  0  0  0  0
  4  8  2  0  0  0  0
  5  6  2  0  0  0  0
  5  4  1  0  0  0  0
  6  7  1  0  0  0  0
  7  8  1  0  0  0  0
  7 10  1  0  0  0  0
  9 10  1  0  0  0  0
  9 17  1  0  0  0  0
 10 11  2  0  0  0  0
 11 12  1  0  0  0  0
 12 13  1  0  0  0  0
 13 14  2  0  0  0  0
 13 21  1  0  0  0  0
 15 22  1  0  0  0  0
 15 14  1  0  0  0  0
 16 15  2  0  0  0  0
 17 16  1  0  0  0  0
 17 12  2  0  0  0  0
 18  5  1  0  0  0  0
 19  6  1  0  0  0  0
 20  9  1  0  0  0  0
 23 25  1  0  0  0  0
 23 30  1  0  0  0  0
 24 23  1  0  0  0  0
 26 27  1  0  0  0  0
 27 28  2  0  0  0  0
 27 33  1  0  0  0  0
 28 36  1  0  0  0  0
 29 28  1  0  0  0  0
 30 29  2  0  0  0  0
 31 30  1  0  0  0  0
 31 26  2  0  0  0  0
 32 26  1  0  0  0  0
 35 34  1  0  0  0  0
 35 42  1  0  0  0  0
 36 35  2  0  0  0  0
 37 36  1  0  0  0  0
 37 39  2  0  0  0  0
 38 37  1  0  0  0  0
 39 41  1  0  0  0  0
 40 39  1  0  0  0  0
 41 42  2  0  0  0  0
M  END
>  <minimizedAffinity>
-6.17355299

$$$$

 OpenBabel03272502033D

 42 46  0  0  0  0  0  0  0  0999 V2000
   38.8120   27.1290   32.4170 C   0  0  0  0  0  0  0  0  0  0  0  0
   38.7740   26.7720   33.4700 H   0  0  0  0  0  0  0  0  0  0  0  0
   39.6750   27.7510   32.1690 H   0  0  0  0  0  0  0  0  0  0  0  0
   37.5150   27.8880   32.2080 C   0  0  0  0  0  0  0  0  0  0  0  0
   37.0190   28.4060   31.0350 C   0  0  0  0  0  0  0  0  0  0  0  0
   35.8040   29.0230   31.3020 C   0  0  0  0  0  0  0  0  0  0  0  0
   35.6060   28.8550   32.6360 N   0  0  0  0  0  0  0  0  0  0  0  0
   36.6140   28.1890   33.1580 N   0  0  0  0  0  0  0  0  0  0  0  0
   33.3950   30.0130   32.6110 N   0  0  0  0  0  0  0  0  0  0  0  0
   34.4190   29.3930   33.2060 C   0  0  0  0  0  0  0  0  0  0  0  0
   34.1270   29.3570   34.5340 N   0  0  0  0  0  0  0  0  0  0  0  0
   32.9540   29.9380   34.7650 C   0  0  0  0  0  0  0  0  0  0  0  0
   32.2630   30.1340   35.9310 C   0  0  0  0  0  0  0  0  0  0  0  0
   31.0720   30.7640   35.8990 N   0  0  0  0  0  0  0  0  0  0  0  0
   30.5840   31.1900   34.6970 C   0  0  0  0  0  0  0  0  0  0  0  0
   31.2730   30.9940   33.5340 N   0  0  0  0  0  0  0  0  0  0  0  0
   32.4690   30.3640   33.5570 C   0  0  0  0  0  0  0  0  0  0  0  0
   37.5260   28.3280   30.0630 H   0  0  0  0  0  0  0  0  0  0  0  0
   35.1980   29.5140   30.5480 H   0  0  0  0  0  0  0  0  0  0  0  0
   33.3030   30.2060   31.5880 H   0  0  0  0  0  0  0  0  0  0  0  0
   32.6170   29.8110   36.9010 H   0  0  0  0  0  0  0  0  0  0  0  0
   29.6490   31.7050   34.5250 H   0  0  0  0  0  0  0  0  0  0  0  0
   38.7040   25.9030   31.5500 C   0  0  0  0  0  0  0  0  0  0  0  0
   37.8780   26.0010   30.7950 H   0  0  0  0  0  0  0  0  0  0  0  0
   39.6150   25.7250   30.9480 H   0  0  0  0  0  0  0  0  0  0  0  0
   37.3800   22.6110   32.5880 C   0  0  0  0  0  0  0  0  0  0  0  0
   37.6460   22.6230   33.9620 C   0  0  0  0  0  0  0  0  0  0  0  0
   38.2830   23.7630   34.5380 C   0  0  0  0  0  0  0  0  0  0  0  0
   38.6040   24.7900   33.7210 N   0  0  0  0  0  0  0  0  0  0  0  0
   38.3230   24.7300   32.3830 C   0  0  0  0  0  0  0  0  0  0  0  0
   37.7280   23.6690   31.8360 N   0  0  0  0  0  0  0  0  0  0  0  0
   36.9090   21.8280   32.0170 H   0  0  0  0  0  0  0  0  0  0  0  0
   37.3020   21.7100   34.3720 H   0  0  0  0  0  0  0  0  0  0  0  0
   40.8110   22.2500   35.4740 Cl  0  0  0  0  0  0  0  0  0  0  0  0
   39.6070   22.9880   36.4890 C   0  0  0  0  0  0  0  0  0  0  0  0
   38.5230   23.6350   35.9480 C   0  0  0  0  0  0  0  0  0  0  0  0
   37.6880   24.1260   36.9020 C   0  0  0  0  0  0  0  0  0  0  0  0
   36.7850   24.6690   36.6720 H   0  0  0  0  0  0  0  0  0  0  0  0
   37.8770   24.0070   38.2540 C   0  0  0  0  0  0  0  0  0  0  0  0
   37.1970   24.4070   38.9900 H   0  0  0  0  0  0  0  0  0  0  0  0
   38.9760   23.3510   38.7550 C   0  0  0  0  0  3  0  0  0  0  0  0
   39.8700   22.8250   37.8290 C   0  0  0  0  0  3  0  0  0  0  0  0
  1  2  1  0  0  0  0
  3  1  1  0  0  0  0
  4  1  1  0  0  0  0
  4  8  2  0  0  0  0
  5  6  2  0  0  0  0
  5  4  1  0  0  0  0
  6  7  1  0  0  0  0
  7  8  1  0  0  0  0
  7 10  1  0  0  0  0
  9 10  1  0  0  0  0
  9 17  1  0  0  0  0
 10 11  2  0  0  0  0
 11 12  1  0  0  0  0
 12 13  1  0  0  0  0
 13 21  1  0  0  0  0
 14 13  2  0  0  0  0
 15 14  1  0  0  0  0
 16 17  1  0  0  0  0
 16 15  2  0  0  0  0
 17 12  2  0  0  0  0
 18  5  1  0  0  0  0
 19  6  1  0  0  0  0
 20  9  1  0  0  0  0
 22 15  1  0  0  0  0
 23 30  1  0  0  0  0
 23  1  1  0  0  0  0
 24 23  1  0  0  0  0
 25 23  1  0  0  0  0
 26 27  1  0  0  0  0
 27 33  1  0  0  0  0
 27 28  2  0  0  0  0
 28 36  1  0  0  0  0
 29 28  1  0  0  0  0
 30 29  2  0  0  0  0
 31 30  1  0  0  0  0
 31 26  2  0  0  0  0
 32 26  1  0  0  0  0
 34 35  1  0  0  0  0
 35 42  1  0  0  0  0
 36 35  2  0  0  0  0
 36 37  1  0  0  0  0
 37 39  2  0  0  0  0
 38 37  1  0  0  0  0
 39 41  1  0  0  0  0
 39 40  1  0  0  0  0
 42 41  2  0  0  0  0
M  END
>  <minimizedAffinity>
-6.17013359

$$$$
