
 OpenBabel03272510203D

 36 39  0  0  0  0  0  0  0  0999 V2000
   37.2240   29.5210   51.1910 Br  0  0  0  0  0  0  0  0  0  0  0  0
   35.9810   29.3880   49.7600 C   0  0  0  0  0  0  0  0  0  0  0  0
   36.0600   30.2470   48.6670 C   0  0  0  0  0  0  0  0  0  0  0  0
   35.1260   30.0900   47.6710 C   0  0  0  0  0  0  0  0  0  0  0  0
   34.1310   29.1420   47.6950 C   0  0  0  0  0  0  0  0  0  0  0  0
   34.0760   28.3080   48.7850 C   0  0  0  0  0  0  0  0  0  0  0  0
   34.9990   28.4390   49.8020 C   0  0  0  0  0  0  0  0  0  0  0  0
   35.1970   30.7600   46.8320 H   0  0  0  0  0  0  0  0  0  0  0  0
   33.3010   27.5460   48.8360 H   0  0  0  0  0  0  0  0  0  0  0  0
   34.8940   27.7430   50.6330 H   0  0  0  0  0  0  0  0  0  0  0  0
   37.9840   33.2290   49.4930 C   0  0  0  0  0  0  0  0  0  0  0  0
   39.0230   33.2340   48.5180 C   0  0  0  0  0  0  0  0  0  0  0  0
   39.0350   32.2000   47.5930 C   0  0  0  0  0  0  0  0  0  0  0  0
   38.0650   31.2500   47.6670 N   0  0  0  0  0  0  0  0  0  0  0  0
   37.0950   31.2670   48.5940 C   0  0  0  0  0  0  0  0  0  0  0  0
   37.0570   32.2640   49.5120 N   0  0  0  0  0  0  0  0  0  0  0  0
   37.9640   34.0280   50.2160 H   0  0  0  0  0  0  0  0  0  0  0  0
   39.7530   34.0270   48.5330 H   0  0  0  0  0  0  0  0  0  0  0  0
   39.8100   32.1670   46.8350 H   0  0  0  0  0  0  0  0  0  0  0  0
   33.1410   28.9760   46.6400 C   0  0  0  0  0  0  0  0  0  0  0  0
   32.6090   27.7640   46.2460 C   0  0  0  0  0  0  0  0  0  0  0  0
   31.6660   27.6630   45.2330 C   0  0  0  0  0  0  0  0  0  0  0  0
   31.2480   28.7760   44.6040 N   0  0  0  0  0  0  0  0  0  0  0  0
   31.7660   29.9600   44.9860 C   0  0  0  0  0  0  0  0  0  0  0  0
   32.6690   30.0410   45.9580 N   0  0  0  0  0  0  0  0  0  0  0  0
   32.9510   26.8720   46.7590 H   0  0  0  0  0  0  0  0  0  0  0  0
   31.3190   26.6560   45.0110 H   0  0  0  0  0  0  0  0  0  0  0  0
   28.8140   30.6810   45.2890 Cl  0  0  0  0  0  0  0  0  0  0  0  0
   29.9880   31.5800   44.3520 C   0  0  0  0  0  0  0  0  0  0  0  0
   31.2990   31.1550   44.2900 C   0  0  0  0  0  0  0  0  0  0  0  0
   32.2120   31.8930   43.5350 C   0  0  0  0  0  0  0  0  0  0  0  0
   33.2460   31.6180   43.4430 H   0  0  0  0  0  0  0  0  0  0  0  0
   31.7170   33.0170   42.8940 C   0  0  0  0  0  0  0  0  0  0  0  0
   32.4040   33.6150   42.2960 H   0  0  0  0  0  0  0  0  0  0  0  0
   30.4070   33.4440   42.9550 C   0  0  0  0  0  3  0  0  0  0  0  0
   29.4970   32.7000   43.7140 C   0  0  0  0  0  3  0  0  0  0  0  0
  2  7  1  0  0  0  0
  2  1  1  0  0  0  0
  3  2  2  0  0  0  0
  4  5  2  0  0  0  0
  4  3  1  0  0  0  0
  5  6  1  0  0  0  0
  6  9  1  0  0  0  0
  6  7  2  0  0  0  0
  7 10  1  0  0  0  0
  8  4  1  0  0  0  0
 11 16  1  0  0  0  0
 11 17  1  0  0  0  0
 12 18  1  0  0  0  0
 12 11  2  0  0  0  0
 13 14  2  0  0  0  0
 13 12  1  0  0  0  0
 14 15  1  0  0  0  0
 15  3  1  0  0  0  0
 15 16  2  0  0  0  0
 19 13  1  0  0  0  0
 20  5  1  0  0  0  0
 21 20  1  0  0  0  0
 21 26  1  0  0  0  0
 22 21  2  0  0  0  0
 23 24  2  0  0  0  0
 23 22  1  0  0  0  0
 24 25  1  0  0  0  0
 25 20  2  0  0  0  0
 27 22  1  0  0  0  0
 29 28  1  0  0  0  0
 30 29  1  0  0  0  0
 30 24  1  0  0  0  0
 31 30  2  0  0  0  0
 32 31  1  0  0  0  0
 33 35  2  0  0  0  0
 33 31  1  0  0  0  0
 34 33  1  0  0  0  0
 35 36  1  0  0  0  0
 36 29  2  0  0  0  0
M  END
>  <minimizedAffinity>
-6.3896656

>  <minimizedRMSD>
0.463717341

$$$$
