
 OpenBabel03272505153D

 28 30  0  0  0  0  0  0  0  0999 V2000
   37.8820   23.1270   33.4800 Cl  0  0  0  0  0  0  0  0  0  0  0  0
   36.8430   24.0900   32.4640 C   0  0  0  0  0  0  0  0  0  0  0  0
   35.9710   23.5040   31.5990 C   0  0  0  0  0  0  0  0  0  0  0  0
   35.1990   24.3440   30.8460 C   0  0  0  0  0  0  0  0  0  0  0  0
   35.2500   25.7050   30.9090 C   0  0  0  0  0  0  0  0  0  0  0  0
   36.1330   26.2730   31.7850 C   0  0  0  0  0  0  0  0  0  0  0  0
   36.9450   25.4770   32.5790 C   0  0  0  0  0  0  0  0  0  0  0  0
   34.4890   23.8920   30.1420 H   0  0  0  0  0  0  0  0  0  0  0  0
   34.6060   26.3260   30.2810 H   0  0  0  0  0  0  0  0  0  0  0  0
   36.2200   27.3460   31.8830 H   0  0  0  0  0  0  0  0  0  0  0  0
   34.9740   19.8950   32.1870 C   0  0  0  0  0  0  0  0  0  0  0  0
   34.9940   21.2970   32.2630 C   0  0  0  0  0  0  0  0  0  0  0  0
   35.9260   22.0420   31.5410 C   0  0  0  0  0  0  0  0  0  0  0  0
   36.8030   21.3490   30.7700 N   0  0  0  0  0  0  0  0  0  0  0  0
   36.7650   20.0040   30.7130 C   0  0  0  0  0  0  0  0  0  0  0  0
   35.8690   19.2860   31.4070 N   0  0  0  0  0  0  0  0  0  0  0  0
   34.2420   19.3650   32.7590 H   0  0  0  0  0  0  0  0  0  0  0  0
   34.3000   21.8710   32.8740 H   0  0  0  0  0  0  0  0  0  0  0  0
   37.5410   19.6360   30.0470 H   0  0  0  0  0  0  0  0  0  0  0  0
   39.8180   25.9330   31.6450 Cl  0  0  0  0  0  0  0  0  0  0  0  0
   39.2250   26.3300   33.2500 C   0  0  0  0  0  0  0  0  0  0  0  0
   37.8990   26.0660   33.5250 C   0  0  0  0  0  0  0  0  0  0  0  0
   37.3250   26.3370   34.7530 C   0  0  0  0  0  0  0  0  0  0  0  0
   36.2930   26.1480   35.0170 H   0  0  0  0  0  0  0  0  0  0  0  0
   38.0940   26.9000   35.7700 C   0  0  0  0  0  0  0  0  0  0  0  0
   37.6800   27.1270   36.7480 H   0  0  0  0  0  0  0  0  0  0  0  0
   39.4190   27.1600   35.4840 C   0  0  0  0  0  3  0  0  0  0  0  0
   40.0030   26.8950   34.2640 C   0  0  0  0  0  3  0  0  0  0  0  0
  2  7  1  0  0  0  0
  2  1  1  0  0  0  0
  3  2  2  0  0  0  0
  4  5  2  0  0  0  0
  4  3  1  0  0  0  0
  5  6  1  0  0  0  0
  6 10  1  0  0  0  0
  6  7  2  0  0  0  0
  7 22  1  0  0  0  0
  8  4  1  0  0  0  0
  9  5  1  0  0  0  0
 11 12  1  0  0  0  0
 11 17  1  0  0  0  0
 12 18  1  0  0  0  0
 13  3  1  0  0  0  0
 13 12  2  0  0  0  0
 14 13  1  0  0  0  0
 15 14  2  0  0  0  0
 15 16  1  0  0  0  0
 16 11  2  0  0  0  0
 19 15  1  0  0  0  0
 20 21  1  0  0  0  0
 21 22  2  0  0  0  0
 21 28  1  0  0  0  0
 22 23  1  0  0  0  0
 23 24  1  0  0  0  0
 23 25  2  0  0  0  0
 25 26  1  0  0  0  0
 27 25  1  0  0  0  0
 28 27  2  0  0  0  0
M  END
>  <minimizedAffinity>
-5.61714125

$$$$

 OpenBabel03272505153D

 28 30  0  0  0  0  0  0  0  0999 V2000
   37.9120   23.0870   33.6210 Cl  0  0  0  0  0  0  0  0  0  0  0  0
   36.9290   24.0840   32.5810 C   0  0  0  0  0  0  0  0  0  0  0  0
   36.9520   25.4400   32.6850 C   0  0  0  0  0  0  0  0  0  0  0  0
   36.1460   26.1340   31.8250 C   0  0  0  0  0  0  0  0  0  0  0  0
   35.3390   25.5580   30.8900 C   0  0  0  0  0  0  0  0  0  0  0  0
   35.3300   24.1940   30.8010 C   0  0  0  0  0  0  0  0  0  0  0  0
   36.1250   23.4310   31.6450 C   0  0  0  0  0  0  0  0  0  0  0  0
   36.1500   27.2280   31.8920 H   0  0  0  0  0  0  0  0  0  0  0  0
   34.7150   26.1660   30.2280 H   0  0  0  0  0  0  0  0  0  0  0  0
   34.7130   23.6780   30.0800 H   0  0  0  0  0  0  0  0  0  0  0  0
   38.2240   26.9590   35.9150 C   0  0  0  0  0  0  0  0  0  0  0  0
   37.3650   26.3790   34.9680 C   0  0  0  0  0  0  0  0  0  0  0  0
   37.8230   26.0450   33.6930 C   0  0  0  0  0  0  0  0  0  0  0  0
   39.1280   26.3080   33.4200 N   0  0  0  0  0  0  0  0  0  0  0  0
   39.9320   26.8640   34.3450 C   0  0  0  0  0  0  0  0  0  0  0  0
   39.4930   27.1860   35.5720 N   0  0  0  0  0  0  0  0  0  0  0  0
   37.8290   27.1990   36.8800 H   0  0  0  0  0  0  0  0  0  0  0  0
   36.3180   26.1620   35.1670 H   0  0  0  0  0  0  0  0  0  0  0  0
   40.9320   26.9950   33.9400 H   0  0  0  0  0  0  0  0  0  0  0  0
   38.4200   22.0700   30.1560 Cl  0  0  0  0  0  0  0  0  0  0  0  0
   37.0980   21.2120   30.9320 C   0  0  0  0  0  0  0  0  0  0  0  0
   36.1320   21.9660   31.5670 C   0  0  0  0  0  0  0  0  0  0  0  0
   35.0490   21.3990   32.2110 C   0  0  0  0  0  0  0  0  0  0  0  0
   34.2670   21.9450   32.7220 H   0  0  0  0  0  0  0  0  0  0  0  0
   34.9020   20.0120   32.2330 C   0  0  0  0  0  0  0  0  0  0  0  0
   34.0640   19.5290   32.7270 H   0  0  0  0  0  0  0  0  0  0  0  0
   35.8730   19.2690   31.5940 C   0  0  0  0  0  3  0  0  0  0  0  0
   36.9580   19.8220   30.9500 C   0  0  0  0  0  3  0  0  0  0  0  0
  2  3  1  0  0  0  0
  2  1  1  0  0  0  0
  3 13  1  0  0  0  0
  4  8  1  0  0  0  0
  4  3  2  0  0  0  0
  5  4  1  0  0  0  0
  6  5  2  0  0  0  0
  6  7  1  0  0  0  0
  7  2  2  0  0  0  0
  9  5  1  0  0  0  0
 10  6  1  0  0  0  0
 11 17  1  0  0  0  0
 12 18  1  0  0  0  0
 12 11  2  0  0  0  0
 13 12  1  0  0  0  0
 14 13  2  0  0  0  0
 14 15  1  0  0  0  0
 15 16  2  0  0  0  0
 16 11  1  0  0  0  0
 19 15  1  0  0  0  0
 20 21  1  0  0  0  0
 21 28  2  0  0  0  0
 21 22  1  0  0  0  0
 22  7  1  0  0  0  0
 22 23  2  0  0  0  0
 23 25  1  0  0  0  0
 23 24  1  0  0  0  0
 25 26  1  0  0  0  0
 27 25  2  0  0  0  0
 28 27  1  0  0  0  0
M  END
>  <minimizedAffinity>
-5.46885395

$$$$

 OpenBabel03272505153D

 28 30  0  0  0  0  0  0  0  0999 V2000
   37.8370   23.2000   34.1940 Cl  0  0  0  0  0  0  0  0  0  0  0  0
   38.7010   24.7090   34.0700 C   0  0  0  0  0  0  0  0  0  0  0  0
   38.3110   25.6690   33.1880 C   0  0  0  0  0  0  0  0  0  0  0  0
   39.0530   26.8180   33.1650 C   0  0  0  0  0  0  0  0  0  0  0  0
   40.1370   27.0510   33.9580 C   0  0  0  0  0  0  0  0  0  0  0  0
   40.5130   26.0740   34.8370 C   0  0  0  0  0  0  0  0  0  0  0  0
   39.8020   24.8850   34.9100 C   0  0  0  0  0  0  0  0  0  0  0  0
   38.7550   27.6040   32.4620 H   0  0  0  0  0  0  0  0  0  0  0  0
   40.6930   27.9920   33.8950 H   0  0  0  0  0  0  0  0  0  0  0  0
   41.3630   26.2000   35.4920 H   0  0  0  0  0  0  0  0  0  0  0  0
   35.7190   23.9040   31.0610 C   0  0  0  0  0  0  0  0  0  0  0  0
   36.8440   24.1280   31.8690 C   0  0  0  0  0  0  0  0  0  0  0  0
   37.1450   25.4050   32.3430 C   0  0  0  0  0  0  0  0  0  0  0  0
   36.3030   26.4080   31.9850 N   0  0  0  0  0  0  0  0  0  0  0  0
   35.2290   26.1690   31.2080 C   0  0  0  0  0  0  0  0  0  0  0  0
   34.9380   24.9410   30.7520 N   0  0  0  0  0  0  0  0  0  0  0  0
   35.5270   22.9080   30.7200 H   0  0  0  0  0  0  0  0  0  0  0  0
   37.5310   23.3380   32.1680 H   0  0  0  0  0  0  0  0  0  0  0  0
   34.6820   27.0910   31.0330 H   0  0  0  0  0  0  0  0  0  0  0  0
   38.1590   24.5370   37.4610 Cl  0  0  0  0  0  0  0  0  0  0  0  0
   39.5440   23.5450   37.0340 C   0  0  0  0  0  0  0  0  0  0  0  0
   40.1870   23.8230   35.8450 C   0  0  0  0  0  0  0  0  0  0  0  0
   41.2850   23.1080   35.4090 C   0  0  0  0  0  0  0  0  0  0  0  0
   41.8230   23.2860   34.4870 H   0  0  0  0  0  0  0  0  0  0  0  0
   41.7840   22.0600   36.1810 C   0  0  0  0  0  0  0  0  0  0  0  0
   42.6460   21.4750   35.8730 H   0  0  0  0  0  0  0  0  0  0  0  0
   41.1340   21.7910   37.3670 C   0  0  0  0  0  3  0  0  0  0  0  0
   40.0370   22.4960   37.8140 C   0  0  0  0  0  3  0  0  0  0  0  0
  2  1  1  0  0  0  0
  2  7  1  0  0  0  0
  3  2  2  0  0  0  0
  4  3  1  0  0  0  0
  4  5  2  0  0  0  0
  5  6  1  0  0  0  0
  6  7  2  0  0  0  0
  6 10  1  0  0  0  0
  7 22  1  0  0  0  0
  8  4  1  0  0  0  0
  9  5  1  0  0  0  0
 11 12  1  0  0  0  0
 12 18  1  0  0  0  0
 12 13  2  0  0  0  0
 13  3  1  0  0  0  0
 14 13  1  0  0  0  0
 15 14  2  0  0  0  0
 16 11  2  0  0  0  0
 16 15  1  0  0  0  0
 17 11  1  0  0  0  0
 19 15  1  0  0  0  0
 21 20  1  0  0  0  0
 21 28  1  0  0  0  0
 22 21  2  0  0  0  0
 23 22  1  0  0  0  0
 23 25  2  0  0  0  0
 24 23  1  0  0  0  0
 25 27  1  0  0  0  0
 26 25  1  0  0  0  0
 27 28  2  0  0  0  0
M  END
>  <minimizedAffinity>
-5.39744234

$$$$

 OpenBabel03272505153D

 28 30  0  0  0  0  0  0  0  0999 V2000
   36.2840   28.2090   34.6520 Cl  0  0  0  0  0  0  0  0  0  0  0  0
   36.1130   29.0910   33.1580 C   0  0  0  0  0  0  0  0  0  0  0  0
   36.6030   28.5930   31.9900 C   0  0  0  0  0  0  0  0  0  0  0  0
   36.4180   29.3590   30.8720 C   0  0  0  0  0  0  0  0  0  0  0  0
   35.7860   30.5660   30.8600 C   0  0  0  0  0  0  0  0  0  0  0  0
   35.3010   31.0490   32.0440 C   0  0  0  0  0  0  0  0  0  0  0  0
   35.4550   30.3210   33.2150 C   0  0  0  0  0  0  0  0  0  0  0  0
   36.8050   28.9750   29.9210 H   0  0  0  0  0  0  0  0  0  0  0  0
   35.6680   31.1350   29.9330 H   0  0  0  0  0  0  0  0  0  0  0  0
   34.7890   31.9990   32.0990 H   0  0  0  0  0  0  0  0  0  0  0  0
   39.2850   25.9230   32.1800 C   0  0  0  0  0  0  0  0  0  0  0  0
   38.6630   27.1820   32.1560 C   0  0  0  0  0  0  0  0  0  0  0  0
   37.2800   27.2960   32.0180 C   0  0  0  0  0  0  0  0  0  0  0  0
   36.5750   26.1390   31.9070 N   0  0  0  0  0  0  0  0  0  0  0  0
   37.1950   24.9440   31.9330 C   0  0  0  0  0  0  0  0  0  0  0  0
   38.5250   24.8330   32.0660 N   0  0  0  0  0  0  0  0  0  0  0  0
   40.3490   25.8840   32.2880 H   0  0  0  0  0  0  0  0  0  0  0  0
   39.2090   28.1190   32.2430 H   0  0  0  0  0  0  0  0  0  0  0  0
   36.4660   24.1440   31.8310 H   0  0  0  0  0  0  0  0  0  0  0  0
   32.6600   29.4540   34.0920 Cl  0  0  0  0  0  0  0  0  0  0  0  0
   33.7030   30.5170   35.0230 C   0  0  0  0  0  0  0  0  0  0  0  0
   34.9420   30.8190   34.4960 C   0  0  0  0  0  0  0  0  0  0  0  0
   35.8440   31.6430   35.1400 C   0  0  0  0  0  0  0  0  0  0  0  0
   36.8250   31.9100   34.7690 H   0  0  0  0  0  0  0  0  0  0  0  0
   35.5150   32.2040   36.3730 C   0  0  0  0  0  0  0  0  0  0  0  0
   36.1970   32.8570   36.9110 H   0  0  0  0  0  0  0  0  0  0  0  0
   34.2750   31.8950   36.8910 C   0  0  0  0  0  3  0  0  0  0  0  0
   33.3650   31.0740   36.2590 C   0  0  0  0  0  3  0  0  0  0  0  0
  2  7  1  0  0  0  0
  2  1  1  0  0  0  0
  3 13  1  0  0  0  0
  3  2  2  0  0  0  0
  4  3  1  0  0  0  0
  5  4  2  0  0  0  0
  5  6  1  0  0  0  0
  6 10  1  0  0  0  0
  6  7  2  0  0  0  0
  7 22  1  0  0  0  0
  8  4  1  0  0  0  0
  9  5  1  0  0  0  0
 11 17  1  0  0  0  0
 12 11  1  0  0  0  0
 12 18  1  0  0  0  0
 13 12  2  0  0  0  0
 14 15  2  0  0  0  0
 14 13  1  0  0  0  0
 15 16  1  0  0  0  0
 16 11  2  0  0  0  0
 19 15  1  0  0  0  0
 20 21  1  0  0  0  0
 21 28  1  0  0  0  0
 22 21  2  0  0  0  0
 22 23  1  0  0  0  0
 23 25  2  0  0  0  0
 24 23  1  0  0  0  0
 25 27  1  0  0  0  0
 25 26  1  0  0  0  0
 28 27  2  0  0  0  0
M  END
>  <minimizedAffinity>
-5.22536182

$$$$

 OpenBabel03272505153D

 28 30  0  0  0  0  0  0  0  0999 V2000
   40.6290   24.3320   34.0310 Cl  0  0  0  0  0  0  0  0  0  0  0  0
   39.7480   23.9870   35.4960 C   0  0  0  0  0  0  0  0  0  0  0  0
   40.2890   23.2080   36.4710 C   0  0  0  0  0  0  0  0  0  0  0  0
   39.5200   22.9950   37.5820 C   0  0  0  0  0  0  0  0  0  0  0  0
   38.2700   23.5080   37.7650 C   0  0  0  0  0  0  0  0  0  0  0  0
   37.7450   24.2880   36.7730 C   0  0  0  0  0  0  0  0  0  0  0  0
   38.4730   24.5430   35.6200 C   0  0  0  0  0  0  0  0  0  0  0  0
   39.9370   22.3710   38.3800 H   0  0  0  0  0  0  0  0  0  0  0  0
   37.7010   23.3030   38.6770 H   0  0  0  0  0  0  0  0  0  0  0  0
   36.7590   24.7240   36.8580 H   0  0  0  0  0  0  0  0  0  0  0  0
   44.0590   22.8500   36.3330 C   0  0  0  0  0  0  0  0  0  0  0  0
   42.7830   23.3980   36.5430 C   0  0  0  0  0  0  0  0  0  0  0  0
   41.6310   22.6640   36.2620 C   0  0  0  0  0  0  0  0  0  0  0  0
   41.8060   21.4060   35.7790 N   0  0  0  0  0  0  0  0  0  0  0  0
   43.0390   20.9020   35.5860 C   0  0  0  0  0  0  0  0  0  0  0  0
   44.1480   21.6070   35.8560 N   0  0  0  0  0  0  0  0  0  0  0  0
   44.9140   23.4500   36.5630 H   0  0  0  0  0  0  0  0  0  0  0  0
   42.6220   24.4030   36.9290 H   0  0  0  0  0  0  0  0  0  0  0  0
   42.9720   19.8900   35.1970 H   0  0  0  0  0  0  0  0  0  0  0  0
   38.6310   27.5790   35.9190 Cl  0  0  0  0  0  0  0  0  0  0  0  0
   37.9280   26.7570   34.5350 C   0  0  0  0  0  0  0  0  0  0  0  0
   37.9290   25.3770   34.5430 C   0  0  0  0  0  0  0  0  0  0  0  0
   37.4050   24.6270   33.5080 C   0  0  0  0  0  0  0  0  0  0  0  0
   37.3820   23.5460   33.4670 H   0  0  0  0  0  0  0  0  0  0  0  0
   36.8460   25.2640   32.4010 C   0  0  0  0  0  0  0  0  0  0  0  0
   36.4220   24.7100   31.5690 H   0  0  0  0  0  0  0  0  0  0  0  0
   36.8500   26.6440   32.4050 C   0  0  0  0  0  3  0  0  0  0  0  0
   37.3700   27.4040   33.4300 C   0  0  0  0  0  3  0  0  0  0  0  0
  1  2  1  0  0  0  0
  2  7  2  0  0  0  0
  2  3  1  0  0  0  0
  3  4  2  0  0  0  0
  4  5  1  0  0  0  0
  4  8  1  0  0  0  0
  5  9  1  0  0  0  0
  6 10  1  0  0  0  0
  6  5  2  0  0  0  0
  7  6  1  0  0  0  0
 11 12  1  0  0  0  0
 11 17  1  0  0  0  0
 12 18  1  0  0  0  0
 13  3  1  0  0  0  0
 13 12  2  0  0  0  0
 14 13  1  0  0  0  0
 15 14  2  0  0  0  0
 15 16  1  0  0  0  0
 16 11  2  0  0  0  0
 19 15  1  0  0  0  0
 21 22  1  0  0  0  0
 21 20  1  0  0  0  0
 22  7  1  0  0  0  0
 23 22  2  0  0  0  0
 24 23  1  0  0  0  0
 25 27  2  0  0  0  0
 25 23  1  0  0  0  0
 26 25  1  0  0  0  0
 27 28  1  0  0  0  0
 28 21  2  0  0  0  0
M  END
>  <minimizedAffinity>
-5.08849716

$$$$

 OpenBabel03272505153D

 28 30  0  0  0  0  0  0  0  0999 V2000
   38.6170   25.5060   34.5290 Cl  0  0  0  0  0  0  0  0  0  0  0  0
   37.9360   24.0490   33.8550 C   0  0  0  0  0  0  0  0  0  0  0  0
   37.4390   24.0290   32.5890 C   0  0  0  0  0  0  0  0  0  0  0  0
   36.9270   22.8390   32.1510 C   0  0  0  0  0  0  0  0  0  0  0  0
   36.8860   21.6960   32.8940 C   0  0  0  0  0  0  0  0  0  0  0  0
   37.3900   21.7380   34.1640 C   0  0  0  0  0  0  0  0  0  0  0  0
   37.9250   22.9150   34.6690 C   0  0  0  0  0  0  0  0  0  0  0  0
   36.5220   22.8000   31.1330 H   0  0  0  0  0  0  0  0  0  0  0  0
   36.4640   20.7720   32.4890 H   0  0  0  0  0  0  0  0  0  0  0  0
   37.3880   20.8660   34.8020 H   0  0  0  0  0  0  0  0  0  0  0  0
   36.4930   27.3280   30.9840 C   0  0  0  0  0  0  0  0  0  0  0  0
   36.4170   26.1520   31.7460 C   0  0  0  0  0  0  0  0  0  0  0  0
   37.4890   25.2620   31.8030 C   0  0  0  0  0  0  0  0  0  0  0  0
   38.5980   25.5890   31.0890 N   0  0  0  0  0  0  0  0  0  0  0  0
   38.6470   26.7230   30.3650 C   0  0  0  0  0  0  0  0  0  0  0  0
   37.6160   27.5800   30.3100 N   0  0  0  0  0  0  0  0  0  0  0  0
   35.6460   27.9810   30.9700 H   0  0  0  0  0  0  0  0  0  0  0  0
   35.5380   25.8720   32.3250 H   0  0  0  0  0  0  0  0  0  0  0  0
   39.6100   26.8060   29.8680 H   0  0  0  0  0  0  0  0  0  0  0  0
   40.8340   22.0880   35.1030 Cl  0  0  0  0  0  0  0  0  0  0  0  0
   39.7620   22.6430   36.3800 C   0  0  0  0  0  0  0  0  0  0  0  0
   38.4720   22.9820   36.0280 C   0  0  0  0  0  0  0  0  0  0  0  0
   37.5440   23.4310   36.9480 C   0  0  0  0  0  0  0  0  0  0  0  0
   36.5220   23.7080   36.7230 H   0  0  0  0  0  0  0  0  0  0  0  0
   37.8990   23.5550   38.2910 C   0  0  0  0  0  0  0  0  0  0  0  0
   37.1980   23.9030   39.0440 H   0  0  0  0  0  0  0  0  0  0  0  0
   39.1920   23.2130   38.6300 C   0  0  0  0  0  3  0  0  0  0  0  0
   40.1280   22.7640   37.7220 C   0  0  0  0  0  3  0  0  0  0  0  0
  2  1  1  0  0  0  0
  2  7  1  0  0  0  0
  3  2  2  0  0  0  0
  4  3  1  0  0  0  0
  4  5  2  0  0  0  0
  5  6  1  0  0  0  0
  6  7  2  0  0  0  0
  6 10  1  0  0  0  0
  7 22  1  0  0  0  0
  8  4  1  0  0  0  0
  9  5  1  0  0  0  0
 11 12  1  0  0  0  0
 12 13  2  0  0  0  0
 12 18  1  0  0  0  0
 13  3  1  0  0  0  0
 14 13  1  0  0  0  0
 15 14  2  0  0  0  0
 16 15  1  0  0  0  0
 16 11  2  0  0  0  0
 17 11  1  0  0  0  0
 19 15  1  0  0  0  0
 20 21  1  0  0  0  0
 21 28  1  0  0  0  0
 22 21  2  0  0  0  0
 22 23  1  0  0  0  0
 23 25  2  0  0  0  0
 24 23  1  0  0  0  0
 25 27  1  0  0  0  0
 25 26  1  0  0  0  0
 28 27  2  0  0  0  0
M  END
>  <minimizedAffinity>
-5.05657625

$$$$

 OpenBabel03272505153D

 28 30  0  0  0  0  0  0  0  0999 V2000
   37.5530   21.6620   34.7910 Cl  0  0  0  0  0  0  0  0  0  0  0  0
   38.1920   23.0760   33.9950 C   0  0  0  0  0  0  0  0  0  0  0  0
   38.0810   23.2320   32.6480 C   0  0  0  0  0  0  0  0  0  0  0  0
   38.6140   24.3740   32.1180 C   0  0  0  0  0  0  0  0  0  0  0  0
   39.2360   25.3450   32.8450 C   0  0  0  0  0  0  0  0  0  0  0  0
   39.3370   25.1700   34.1970 C   0  0  0  0  0  0  0  0  0  0  0  0
   38.8170   24.0320   34.7980 C   0  0  0  0  0  0  0  0  0  0  0  0
   38.5350   24.5190   31.0340 H   0  0  0  0  0  0  0  0  0  0  0  0
   39.6440   26.2400   32.3640 H   0  0  0  0  0  0  0  0  0  0  0  0
   39.8180   25.9040   34.8280 H   0  0  0  0  0  0  0  0  0  0  0  0
   35.4100   21.1210   30.9840 C   0  0  0  0  0  0  0  0  0  0  0  0
   36.0260   22.1410   31.7280 C   0  0  0  0  0  0  0  0  0  0  0  0
   37.4120   22.1820   31.8800 C   0  0  0  0  0  0  0  0  0  0  0  0
   38.1260   21.1950   31.2790 N   0  0  0  0  0  0  0  0  0  0  0  0
   37.5130   20.2270   30.5710 C   0  0  0  0  0  0  0  0  0  0  0  0
   36.1800   20.1870   30.4240 N   0  0  0  0  0  0  0  0  0  0  0  0
   34.3440   21.1290   30.8950 H   0  0  0  0  0  0  0  0  0  0  0  0
   35.4710   22.9400   32.2170 H   0  0  0  0  0  0  0  0  0  0  0  0
   38.2490   19.5350   30.1700 H   0  0  0  0  0  0  0  0  0  0  0  0
   41.0640   22.2550   35.8580 Cl  0  0  0  0  0  0  0  0  0  0  0  0
   39.8700   23.0500   36.8720 C   0  0  0  0  0  0  0  0  0  0  0  0
   38.9140   23.8230   36.2470 C   0  0  0  0  0  0  0  0  0  0  0  0
   37.9270   24.4950   36.9430 C   0  0  0  0  0  0  0  0  0  0  0  0
   37.1560   25.1120   36.5000 H   0  0  0  0  0  0  0  0  0  0  0  0
   37.8740   24.4040   38.3340 C   0  0  0  0  0  0  0  0  0  0  0  0
   37.1130   24.9150   38.9170 H   0  0  0  0  0  0  0  0  0  0  0  0
   38.8350   23.6280   38.9480 C   0  0  0  0  0  3  0  0  0  0  0  0
   39.8240   22.9530   38.2650 C   0  0  0  0  0  3  0  0  0  0  0  0
  2  1  1  0  0  0  0
  2  7  1  0  0  0  0
  3  2  2  0  0  0  0
  4  3  1  0  0  0  0
  4  5  2  0  0  0  0
  5  6  1  0  0  0  0
  6  7  2  0  0  0  0
  6 10  1  0  0  0  0
  7 22  1  0  0  0  0
  8  4  1  0  0  0  0
  9  5  1  0  0  0  0
 11 12  1  0  0  0  0
 12 13  2  0  0  0  0
 12 18  1  0  0  0  0
 13  3  1  0  0  0  0
 14 13  1  0  0  0  0
 15 14  2  0  0  0  0
 16 15  1  0  0  0  0
 16 11  2  0  0  0  0
 17 11  1  0  0  0  0
 19 15  1  0  0  0  0
 20 21  1  0  0  0  0
 21 28  1  0  0  0  0
 22 21  2  0  0  0  0
 22 23  1  0  0  0  0
 23 25  2  0  0  0  0
 24 23  1  0  0  0  0
 25 26  1  0  0  0  0
 25 27  1  0  0  0  0
 28 27  2  0  0  0  0
M  END
>  <minimizedAffinity>
-5.01029778

$$$$

 OpenBabel03272505153D

 28 30  0  0  0  0  0  0  0  0999 V2000
   36.4080   28.0180   34.5050 Cl  0  0  0  0  0  0  0  0  0  0  0  0
   36.2560   28.9810   33.0600 C   0  0  0  0  0  0  0  0  0  0  0  0
   35.6100   30.1780   33.0800 C   0  0  0  0  0  0  0  0  0  0  0  0
   35.5430   30.8580   31.8960 C   0  0  0  0  0  0  0  0  0  0  0  0
   36.0750   30.4160   30.7210 C   0  0  0  0  0  0  0  0  0  0  0  0
   36.7210   29.2110   30.7220 C   0  0  0  0  0  0  0  0  0  0  0  0
   36.8240   28.4710   31.8910 C   0  0  0  0  0  0  0  0  0  0  0  0
   35.0270   31.8260   31.8910 H   0  0  0  0  0  0  0  0  0  0  0  0
   35.9910   31.0060   29.8030 H   0  0  0  0  0  0  0  0  0  0  0  0
   37.1640   28.8070   29.8230 H   0  0  0  0  0  0  0  0  0  0  0  0
   35.2130   31.8180   36.4730 C   0  0  0  0  0  0  0  0  0  0  0  0
   35.7830   31.3880   35.2650 C   0  0  0  0  0  0  0  0  0  0  0  0
   35.0430   30.6400   34.3480 C   0  0  0  0  0  0  0  0  0  0  0  0
   33.7590   30.3540   34.6830 N   0  0  0  0  0  0  0  0  0  0  0  0
   33.2340   30.7770   35.8480 C   0  0  0  0  0  0  0  0  0  0  0  0
   33.9440   31.4970   36.7300 N   0  0  0  0  0  0  0  0  0  0  0  0
   35.8170   32.3890   37.1460 H   0  0  0  0  0  0  0  0  0  0  0  0
   36.8100   31.6070   34.9780 H   0  0  0  0  0  0  0  0  0  0  0  0
   32.2010   30.4500   35.9330 H   0  0  0  0  0  0  0  0  0  0  0  0
   35.2220   25.9670   31.1840 Cl  0  0  0  0  0  0  0  0  0  0  0  0
   36.9240   25.9620   31.6210 C   0  0  0  0  0  0  0  0  0  0  0  0
   37.5120   27.1750   31.9140 C   0  0  0  0  0  0  0  0  0  0  0  0
   38.8420   27.2910   32.2690 C   0  0  0  0  0  0  0  0  0  0  0  0
   39.3480   28.2170   32.5080 H   0  0  0  0  0  0  0  0  0  0  0  0
   39.6440   26.1530   32.3410 C   0  0  0  0  0  0  0  0  0  0  0  0
   40.6930   26.2020   32.6160 H   0  0  0  0  0  0  0  0  0  0  0  0
   39.0450   24.9450   32.0450 C   0  0  0  0  0  3  0  0  0  0  0  0
   37.7200   24.8160   31.6890 C   0  0  0  0  0  3  0  0  0  0  0  0
  2  3  1  0  0  0  0
  2  1  1  0  0  0  0
  3 13  1  0  0  0  0
  4  3  2  0  0  0  0
  5  6  2  0  0  0  0
  5  4  1  0  0  0  0
  6  7  1  0  0  0  0
  7 22  1  0  0  0  0
  7  2  2  0  0  0  0
  8  4  1  0  0  0  0
  9  5  1  0  0  0  0
 10  6  1  0  0  0  0
 11 16  1  0  0  0  0
 11 17  1  0  0  0  0
 12 11  2  0  0  0  0
 13 14  2  0  0  0  0
 13 12  1  0  0  0  0
 14 15  1  0  0  0  0
 15 19  1  0  0  0  0
 15 16  2  0  0  0  0
 18 12  1  0  0  0  0
 20 21  1  0  0  0  0
 21 28  2  0  0  0  0
 21 22  1  0  0  0  0
 22 23  2  0  0  0  0
 23 25  1  0  0  0  0
 23 24  1  0  0  0  0
 25 26  1  0  0  0  0
 27 25  2  0  0  0  0
 28 27  1  0  0  0  0
M  END
>  <minimizedAffinity>
-5.0051012

$$$$

 OpenBabel03272505153D

 28 30  0  0  0  0  0  0  0  0999 V2000
   37.0370   21.2410   35.4080 Cl  0  0  0  0  0  0  0  0  0  0  0  0
   37.6800   22.4660   34.3470 C   0  0  0  0  0  0  0  0  0  0  0  0
   38.3730   23.5270   34.8420 C   0  0  0  0  0  0  0  0  0  0  0  0
   38.8380   24.4350   33.9310 C   0  0  0  0  0  0  0  0  0  0  0  0
   38.6500   24.3400   32.5830 C   0  0  0  0  0  0  0  0  0  0  0  0
   37.9510   23.2670   32.1070 C   0  0  0  0  0  0  0  0  0  0  0  0
   37.4530   22.3090   32.9790 C   0  0  0  0  0  0  0  0  0  0  0  0
   39.3990   25.2970   34.3090 H   0  0  0  0  0  0  0  0  0  0  0  0
   39.0460   25.0980   31.9010 H   0  0  0  0  0  0  0  0  0  0  0  0
   37.7700   23.1340   31.0490 H   0  0  0  0  0  0  0  0  0  0  0  0
   37.9410   24.4450   38.4930 C   0  0  0  0  0  0  0  0  0  0  0  0
   37.7310   24.3790   37.1060 C   0  0  0  0  0  0  0  0  0  0  0  0
   38.5670   23.6170   36.2900 C   0  0  0  0  0  0  0  0  0  0  0  0
   39.5820   22.9510   36.9000 N   0  0  0  0  0  0  0  0  0  0  0  0
   39.7630   23.0310   38.2320 C   0  0  0  0  0  0  0  0  0  0  0  0
   38.9600   23.7640   39.0180 N   0  0  0  0  0  0  0  0  0  0  0  0
   37.2750   25.0430   39.0800 H   0  0  0  0  0  0  0  0  0  0  0  0
   36.9240   24.9040   36.5990 H   0  0  0  0  0  0  0  0  0  0  0  0
   40.6210   22.4330   38.5280 H   0  0  0  0  0  0  0  0  0  0  0  0
   39.0130   19.8310   32.1100 Cl  0  0  0  0  0  0  0  0  0  0  0  0
   37.2630   19.9640   32.0630 C   0  0  0  0  0  0  0  0  0  0  0  0
   36.7000   21.1490   32.4890 C   0  0  0  0  0  0  0  0  0  0  0  0
   35.3350   21.3650   32.4960 C   0  0  0  0  0  0  0  0  0  0  0  0
   34.8460   22.2750   32.8200 H   0  0  0  0  0  0  0  0  0  0  0  0
   34.4710   20.3620   32.0610 C   0  0  0  0  0  0  0  0  0  0  0  0
   33.3930   20.4930   32.0500 H   0  0  0  0  0  0  0  0  0  0  0  0
   35.0450   19.1810   31.6370 C   0  0  0  0  0  3  0  0  0  0  0  0
   36.4040   18.9530   31.6260 C   0  0  0  0  0  3  0  0  0  0  0  0
  2  3  1  0  0  0  0
  2  1  1  0  0  0  0
  3 13  1  0  0  0  0
  4  8  1  0  0  0  0
  4  3  2  0  0  0  0
  5  4  1  0  0  0  0
  6  5  2  0  0  0  0
  6  7  1  0  0  0  0
  7  2  2  0  0  0  0
  9  5  1  0  0  0  0
 10  6  1  0  0  0  0
 11 16  1  0  0  0  0
 11 17  1  0  0  0  0
 12 11  2  0  0  0  0
 13 14  2  0  0  0  0
 13 12  1  0  0  0  0
 14 15  1  0  0  0  0
 15 19  1  0  0  0  0
 15 16  2  0  0  0  0
 18 12  1  0  0  0  0
 21 20  1  0  0  0  0
 21 22  1  0  0  0  0
 22 23  2  0  0  0  0
 22  7  1  0  0  0  0
 23 24  1  0  0  0  0
 25 23  1  0  0  0  0
 26 25  1  0  0  0  0
 27 25  2  0  0  0  0
 28 27  1  0  0  0  0
 28 21  2  0  0  0  0
M  END
>  <minimizedAffinity>
-4.97089958

$$$$
