
 OpenBabel03272507083D

 39 43  0  0  0  0  0  0  0  0999 V2000
   36.0070   24.1790   31.3400 C   0  0  0  0  0  0  0  0  0  0  0  0
   35.6680   25.5370   31.2060 C   0  0  0  0  0  0  0  0  0  0  0  0
   36.3370   26.4380   32.0370 C   0  0  0  0  0  0  0  0  0  0  0  0
   37.2670   25.9820   32.9220 N   0  0  0  0  0  0  0  0  0  0  0  0
   37.5550   24.6490   33.0080 C   0  0  0  0  0  0  0  0  0  0  0  0
   36.9300   23.7690   32.2250 N   0  0  0  0  0  0  0  0  0  0  0  0
   35.4690   23.5090   30.6800 H   0  0  0  0  0  0  0  0  0  0  0  0
   34.9420   25.9330   30.5220 H   0  0  0  0  0  0  0  0  0  0  0  0
   39.8650   24.6650   33.8180 C   0  0  0  0  0  0  0  0  0  0  0  0
   38.5630   24.2350   33.9790 C   0  0  0  0  0  0  0  0  0  0  0  0
   38.2360   23.4340   35.0330 C   0  0  0  0  0  0  0  0  0  0  0  0
   39.1830   23.0450   35.9450 C   0  0  0  0  0  0  0  0  0  0  0  0
   39.1310   22.2680   37.0650 N   0  0  0  0  0  0  0  0  0  0  0  0
   40.4000   22.2600   37.5340 C   0  0  0  0  0  0  0  0  0  0  0  0
   41.1990   22.9930   36.7510 N   0  0  0  0  0  0  0  0  0  0  0  0
   40.4670   23.5000   35.7440 C   0  0  0  0  0  0  0  0  0  0  0  0
   40.8550   24.3060   34.7050 C   0  0  0  0  0  0  0  0  0  0  0  0
   40.1120   25.2990   32.9810 H   0  0  0  0  0  0  0  0  0  0  0  0
   37.1950   23.1200   35.1150 H   0  0  0  0  0  0  0  0  0  0  0  0
   38.2380   21.8300   37.3810 H   0  0  0  0  0  0  0  0  0  0  0  0
   40.5490   21.6730   38.4490 H   0  0  0  0  0  0  0  0  0  0  0  0
   41.8750   24.6220   34.6100 H   0  0  0  0  0  0  0  0  0  0  0  0
   36.1120   27.8800   32.0350 C   0  0  0  0  0  0  0  0  0  0  0  0
   36.3000   28.6890   30.9460 C   0  0  0  0  0  0  0  0  0  0  0  0
   36.0960   30.0480   30.9130 C   0  0  0  0  0  0  0  0  0  0  0  0
   35.6780   30.6190   32.0450 N   0  0  0  0  0  0  0  0  0  0  0  0
   35.4790   29.8700   33.1390 C   0  0  0  0  0  0  0  0  0  0  0  0
   35.6890   28.5570   33.1260 N   0  0  0  0  0  0  0  0  0  0  0  0
   36.6430   28.2360   30.0070 H   0  0  0  0  0  0  0  0  0  0  0  0
   36.2620   30.6390   30.0150 H   0  0  0  0  0  0  0  0  0  0  0  0
   32.5180   29.5430   33.7480 Cl  0  0  0  0  0  0  0  0  0  0  0  0
   33.6900   30.3810   34.7390 C   0  0  0  0  0  0  0  0  0  0  0  0
   35.0190   30.4860   34.3940 C   0  0  0  0  0  0  0  0  0  0  0  0
   35.8980   31.1660   35.2290 C   0  0  0  0  0  0  0  0  0  0  0  0
   36.9370   31.2080   34.8890 H   0  0  0  0  0  0  0  0  0  0  0  0
   35.4550   31.7380   36.3980 C   0  0  0  0  0  0  0  0  0  0  0  0
   36.1800   32.2650   37.0270 H   0  0  0  0  0  0  0  0  0  0  0  0
   34.1550   31.6700   36.7960 C   0  0  0  0  0  3  0  0  0  0  0  0
   33.3260   30.9820   35.9290 C   0  0  0  0  0  3  0  0  0  0  0  0
  1  6  1  0  0  0  0
  2  1  2  0  0  0  0
  2  3  1  0  0  0  0
  3  4  2  0  0  0  0
  4  5  1  0  0  0  0
  5 10  1  0  0  0  0
  6  5  2  0  0  0  0
  7  1  1  0  0  0  0
  8  2  1  0  0  0  0
  9 10  2  0  0  0  0
  9 17  1  0  0  0  0
 10 11  1  0  0  0  0
 11 19  1  0  0  0  0
 11 12  2  0  0  0  0
 12 13  1  0  0  0  0
 13 20  1  0  0  0  0
 13 14  1  0  0  0  0
 14 21  1  0  0  0  0
 15 14  2  0  0  0  0
 16 12  1  0  0  0  0
 16 15  1  0  0  0  0
 17 16  2  0  0  0  0
 18  9  1  0  0  0  0
 22 17  1  0  0  0  0
 23  3  1  0  0  0  0
 23 28  1  0  0  0  0
 24 23  2  0  0  0  0
 25 24  1  0  0  0  0
 25 26  2  0  0  0  0
 26 27  1  0  0  0  0
 27 33  1  0  0  0  0
 28 27  2  0  0  0  0
 29 24  1  0  0  0  0
 30 25  1  0  0  0  0
 31 32  1  0  0  0  0
 32 39  1  0  0  0  0
 33 32  2  0  0  0  0
 33 34  1  0  0  0  0
 34 36  2  0  0  0  0
 35 34  1  0  0  0  0
 36 38  1  0  0  0  0
 36 37  1  0  0  0  0
 39 38  2  0  0  0  0
M  END
>  <minimizedAffinity>
-7.08574724

$$$$

 OpenBabel03272507083D

 39 43  0  0  0  0  0  0  0  0999 V2000
   37.0570   25.2200   31.1940 C   0  0  0  0  0  0  0  0  0  0  0  0
   36.6000   26.5500   31.1830 C   0  0  0  0  0  0  0  0  0  0  0  0
   36.6740   27.2510   32.3890 C   0  0  0  0  0  0  0  0  0  0  0  0
   37.1700   26.6380   33.5000 N   0  0  0  0  0  0  0  0  0  0  0  0
   37.6000   25.3420   33.4510 C   0  0  0  0  0  0  0  0  0  0  0  0
   37.5400   24.6510   32.3110 N   0  0  0  0  0  0  0  0  0  0  0  0
   36.9860   24.7080   30.2430 H   0  0  0  0  0  0  0  0  0  0  0  0
   36.2030   27.0640   30.3290 H   0  0  0  0  0  0  0  0  0  0  0  0
   37.6660   25.2270   35.8940 C   0  0  0  0  0  0  0  0  0  0  0  0
   38.1200   24.7530   34.6810 C   0  0  0  0  0  0  0  0  0  0  0  0
   39.0430   23.7490   34.6430 C   0  0  0  0  0  0  0  0  0  0  0  0
   39.5310   23.1960   35.7990 C   0  0  0  0  0  0  0  0  0  0  0  0
   40.4360   22.2060   36.0450 N   0  0  0  0  0  0  0  0  0  0  0  0
   40.4920   22.1220   37.3940 C   0  0  0  0  0  0  0  0  0  0  0  0
   39.6670   23.0100   37.9580 N   0  0  0  0  0  0  0  0  0  0  0  0
   39.0480   23.7020   36.9850 C   0  0  0  0  0  0  0  0  0  0  0  0
   38.1230   24.7080   37.0860 C   0  0  0  0  0  0  0  0  0  0  0  0
   36.9370   26.0210   35.9120 H   0  0  0  0  0  0  0  0  0  0  0  0
   39.3700   23.4100   33.6600 H   0  0  0  0  0  0  0  0  0  0  0  0
   40.9130   21.7010   35.2660 H   0  0  0  0  0  0  0  0  0  0  0  0
   41.1830   21.3620   37.7800 H   0  0  0  0  0  0  0  0  0  0  0  0
   37.7910   25.0530   38.0450 H   0  0  0  0  0  0  0  0  0  0  0  0
   36.2450   28.6350   32.5610 C   0  0  0  0  0  0  0  0  0  0  0  0
   36.5200   29.6440   31.6770 C   0  0  0  0  0  0  0  0  0  0  0  0
   36.1300   30.9550   31.8130 C   0  0  0  0  0  0  0  0  0  0  0  0
   35.4220   31.2620   32.9010 N   0  0  0  0  0  0  0  0  0  0  0  0
   35.1260   30.3080   33.7970 C   0  0  0  0  0  0  0  0  0  0  0  0
   35.5240   29.0520   33.6270 N   0  0  0  0  0  0  0  0  0  0  0  0
   37.1020   29.4100   30.7760 H   0  0  0  0  0  0  0  0  0  0  0  0
   36.3800   31.7140   31.0750 H   0  0  0  0  0  0  0  0  0  0  0  0
   36.4330   32.2740   35.7140 Cl  0  0  0  0  0  0  0  0  0  0  0  0
   34.8710   31.5140   35.9190 C   0  0  0  0  0  0  0  0  0  0  0  0
   34.3460   30.6310   35.0020 C   0  0  0  0  0  0  0  0  0  0  0  0
   33.0970   30.0640   35.2280 C   0  0  0  0  0  0  0  0  0  0  0  0
   32.7450   29.3710   34.4560 H   0  0  0  0  0  0  0  0  0  0  0  0
   32.3790   30.3730   36.3590 C   0  0  0  0  0  0  0  0  0  0  0  0
   31.3990   29.9030   36.4980 H   0  0  0  0  0  0  0  0  0  0  0  0
   32.8420   31.2380   37.3030 C   0  0  0  0  0  3  0  0  0  0  0  0
   34.0870   31.7720   37.0270 C   0  0  0  0  0  3  0  0  0  0  0  0
  1  6  1  0  0  0  0
  2  1  2  0  0  0  0
  2  3  1  0  0  0  0
  3 23  1  0  0  0  0
  3  4  2  0  0  0  0
  5  4  1  0  0  0  0
  5 10  1  0  0  0  0
  6  5  2  0  0  0  0
  7  1  1  0  0  0  0
  8  2  1  0  0  0  0
  9 18  1  0  0  0  0
  9 17  1  0  0  0  0
 10  9  2  0  0  0  0
 11 10  1  0  0  0  0
 11 12  2  0  0  0  0
 12 13  1  0  0  0  0
 12 16  1  0  0  0  0
 13 14  1  0  0  0  0
 14 21  1  0  0  0  0
 14 15  2  0  0  0  0
 16 17  2  0  0  0  0
 16 15  1  0  0  0  0
 17 22  1  0  0  0  0
 19 11  1  0  0  0  0
 20 13  1  0  0  0  0
 23 28  1  0  0  0  0
 24 25  1  0  0  0  0
 24 23  2  0  0  0  0
 25 26  2  0  0  0  0
 26 27  1  0  0  0  0
 27 33  1  0  0  0  0
 28 27  2  0  0  0  0
 29 24  1  0  0  0  0
 30 25  1  0  0  0  0
 31 32  1  0  0  0  0
 32 39  1  0  0  0  0
 33 34  1  0  0  0  0
 33 32  2  0  0  0  0
 34 36  2  0  0  0  0
 35 34  1  0  0  0  0
 36 37  1  0  0  0  0
 36 38  1  0  0  0  0
 39 38  2  0  0  0  0
M  END
>  <minimizedAffinity>
-7.06113148

$$$$

 OpenBabel03272507083D

 39 43  0  0  0  0  0  0  0  0999 V2000
   37.3060   28.8470   31.0410 C   0  0  0  0  0  0  0  0  0  0  0  0
   37.6470   27.5040   31.2780 C   0  0  0  0  0  0  0  0  0  0  0  0
   37.1540   26.9260   32.4510 C   0  0  0  0  0  0  0  0  0  0  0  0
   36.3830   27.6640   33.2970 N   0  0  0  0  0  0  0  0  0  0  0  0
   36.0840   28.9670   33.0150 C   0  0  0  0  0  0  0  0  0  0  0  0
   36.5430   29.5410   31.9010 N   0  0  0  0  0  0  0  0  0  0  0  0
   37.7050   29.2620   30.1230 H   0  0  0  0  0  0  0  0  0  0  0  0
   38.2520   26.8920   30.6360 H   0  0  0  0  0  0  0  0  0  0  0  0
   33.8820   29.5410   33.9150 C   0  0  0  0  0  0  0  0  0  0  0  0
   35.2520   29.6940   33.9680 C   0  0  0  0  0  0  0  0  0  0  0  0
   35.8100   30.5170   34.9030 C   0  0  0  0  0  0  0  0  0  0  0  0
   35.0280   31.1990   35.7990 C   0  0  0  0  0  0  0  0  0  0  0  0
   35.3160   32.0650   36.8120 N   0  0  0  0  0  0  0  0  0  0  0  0
   34.1120   32.3990   37.3290 C   0  0  0  0  0  0  0  0  0  0  0  0
   33.1260   31.7760   36.6740 N   0  0  0  0  0  0  0  0  0  0  0  0
   33.6670   31.0140   35.7070 C   0  0  0  0  0  0  0  0  0  0  0  0
   33.0500   30.2020   34.7910 C   0  0  0  0  0  0  0  0  0  0  0  0
   33.4520   28.8880   33.1720 H   0  0  0  0  0  0  0  0  0  0  0  0
   36.8970   30.6050   34.9030 H   0  0  0  0  0  0  0  0  0  0  0  0
   36.3000   32.3310   37.0360 H   0  0  0  0  0  0  0  0  0  0  0  0
   34.1500   33.1030   38.1700 H   0  0  0  0  0  0  0  0  0  0  0  0
   31.9820   30.1050   34.7770 H   0  0  0  0  0  0  0  0  0  0  0  0
   37.4080   25.5480   32.8560 C   0  0  0  0  0  0  0  0  0  0  0  0
   37.3030   24.4660   32.0240 C   0  0  0  0  0  0  0  0  0  0  0  0
   37.5360   23.1580   32.3770 C   0  0  0  0  0  0  0  0  0  0  0  0
   37.8960   22.9330   33.6420 N   0  0  0  0  0  0  0  0  0  0  0  0
   38.0140   23.9600   34.4970 C   0  0  0  0  0  0  0  0  0  0  0  0
   37.7780   25.2100   34.1120 N   0  0  0  0  0  0  0  0  0  0  0  0
   37.0080   24.6330   30.9800 H   0  0  0  0  0  0  0  0  0  0  0  0
   37.4350   22.3390   31.6680 H   0  0  0  0  0  0  0  0  0  0  0  0
   40.8750   23.0140   34.9060 Cl  0  0  0  0  0  0  0  0  0  0  0  0
   39.6900   23.2970   36.1610 C   0  0  0  0  0  0  0  0  0  0  0  0
   38.4100   23.7270   35.8950 C   0  0  0  0  0  0  0  0  0  0  0  0
   37.5190   23.9330   36.9420 C   0  0  0  0  0  0  0  0  0  0  0  0
   36.5190   24.2740   36.6530 H   0  0  0  0  0  0  0  0  0  0  0  0
   37.9010   23.7110   38.2440 C   0  0  0  0  0  0  0  0  0  0  0  0
   37.1680   23.8850   39.0380 H   0  0  0  0  0  0  0  0  0  0  0  0
   39.1520   23.2860   38.5740 C   0  0  0  0  0  3  0  0  0  0  0  0
   39.9960   23.0980   37.4950 C   0  0  0  0  0  3  0  0  0  0  0  0
  1  2  2  0  0  0  0
  1  6  1  0  0  0  0
  2  3  1  0  0  0  0
  3 23  1  0  0  0  0
  3  4  2  0  0  0  0
  5  4  1  0  0  0  0
  5 10  1  0  0  0  0
  6  5  2  0  0  0  0
  7  1  1  0  0  0  0
  8  2  1  0  0  0  0
  9 10  2  0  0  0  0
  9 17  1  0  0  0  0
 10 11  1  0  0  0  0
 11 12  2  0  0  0  0
 12 13  1  0  0  0  0
 13 20  1  0  0  0  0
 13 14  1  0  0  0  0
 14 21  1  0  0  0  0
 15 14  2  0  0  0  0
 16 12  1  0  0  0  0
 16 15  1  0  0  0  0
 17 16  2  0  0  0  0
 18  9  1  0  0  0  0
 19 11  1  0  0  0  0
 22 17  1  0  0  0  0
 23 28  1  0  0  0  0
 24 25  1  0  0  0  0
 24 23  2  0  0  0  0
 25 26  2  0  0  0  0
 26 27  1  0  0  0  0
 27 33  1  0  0  0  0
 28 27  2  0  0  0  0
 29 24  1  0  0  0  0
 30 25  1  0  0  0  0
 31 32  1  0  0  0  0
 32 39  1  0  0  0  0
 33 32  2  0  0  0  0
 33 34  1  0  0  0  0
 34 36  2  0  0  0  0
 35 34  1  0  0  0  0
 36 38  1  0  0  0  0
 36 37  1  0  0  0  0
 39 38  2  0  0  0  0
M  END
>  <minimizedAffinity>
-6.93951845

$$$$

 OpenBabel03272507083D

 39 43  0  0  0  0  0  0  0  0999 V2000
   39.0830   25.3750   35.0300 C   0  0  0  0  0  0  0  0  0  0  0  0
   38.5130   26.6390   34.7950 C   0  0  0  0  0  0  0  0  0  0  0  0
   37.5210   26.7110   33.8140 C   0  0  0  0  0  0  0  0  0  0  0  0
   37.1540   25.5860   33.1390 N   0  0  0  0  0  0  0  0  0  0  0  0
   37.7440   24.3830   33.4090 C   0  0  0  0  0  0  0  0  0  0  0  0
   38.6930   24.2890   34.3420 N   0  0  0  0  0  0  0  0  0  0  0  0
   39.8470   25.3570   35.7970 H   0  0  0  0  0  0  0  0  0  0  0  0
   38.7770   27.5450   35.3060 H   0  0  0  0  0  0  0  0  0  0  0  0
   36.1720   23.3340   31.8550 C   0  0  0  0  0  0  0  0  0  0  0  0
   37.2970   23.2230   32.6460 C   0  0  0  0  0  0  0  0  0  0  0  0
   37.9740   22.0400   32.7060 C   0  0  0  0  0  0  0  0  0  0  0  0
   37.5530   20.9490   31.9890 C   0  0  0  0  0  0  0  0  0  0  0  0
   38.0300   19.6770   31.8680 N   0  0  0  0  0  0  0  0  0  0  0  0
   37.1760   19.0720   31.0110 C   0  0  0  0  0  0  0  0  0  0  0  0
   36.2190   19.9210   30.6180 N   0  0  0  0  0  0  0  0  0  0  0  0
   36.4270   21.1080   31.2140 C   0  0  0  0  0  0  0  0  0  0  0  0
   35.7070   22.2700   31.1130 C   0  0  0  0  0  0  0  0  0  0  0  0
   35.6450   24.2740   31.8150 H   0  0  0  0  0  0  0  0  0  0  0  0
   38.8550   22.0030   33.3460 H   0  0  0  0  0  0  0  0  0  0  0  0
   38.8820   19.3650   32.3830 H   0  0  0  0  0  0  0  0  0  0  0  0
   37.4090   18.0230   30.7920 H   0  0  0  0  0  0  0  0  0  0  0  0
   34.8370   22.3220   30.4890 H   0  0  0  0  0  0  0  0  0  0  0  0
   36.8240   27.9360   33.4400 C   0  0  0  0  0  0  0  0  0  0  0  0
   36.7380   28.4160   32.1610 C   0  0  0  0  0  0  0  0  0  0  0  0
   36.0890   29.5660   31.7780 C   0  0  0  0  0  0  0  0  0  0  0  0
   35.4930   30.2680   32.7440 N   0  0  0  0  0  0  0  0  0  0  0  0
   35.5480   29.8400   34.0140 C   0  0  0  0  0  0  0  0  0  0  0  0
   36.1880   28.7210   34.3390 N   0  0  0  0  0  0  0  0  0  0  0  0
   37.2220   27.8520   31.3530 H   0  0  0  0  0  0  0  0  0  0  0  0
   36.0560   29.8970   30.7430 H   0  0  0  0  0  0  0  0  0  0  0  0
   32.5740   29.3150   34.3740 Cl  0  0  0  0  0  0  0  0  0  0  0  0
   33.5500   30.4200   35.3140 C   0  0  0  0  0  0  0  0  0  0  0  0
   34.8960   30.6030   35.0900 C   0  0  0  0  0  0  0  0  0  0  0  0
   35.6110   31.4990   35.8770 C   0  0  0  0  0  0  0  0  0  0  0  0
   36.6760   31.5910   35.6390 H   0  0  0  0  0  0  0  0  0  0  0  0
   34.9890   32.2060   36.8780 C   0  0  0  0  0  0  0  0  0  0  0  0
   35.5900   32.9010   37.4740 H   0  0  0  0  0  0  0  0  0  0  0  0
   33.6630   32.0710   37.1510 C   0  0  0  0  0  3  0  0  0  0  0  0
   33.0010   31.1680   36.3390 C   0  0  0  0  0  3  0  0  0  0  0  0
  1  7  1  0  0  0  0
  2  1  1  0  0  0  0
  2  8  1  0  0  0  0
  3  2  2  0  0  0  0
  4  5  2  0  0  0  0
  4  3  1  0  0  0  0
  5  6  1  0  0  0  0
  6  1  2  0  0  0  0
  9 10  1  0  0  0  0
 10 11  2  0  0  0  0
 10  5  1  0  0  0  0
 11 19  1  0  0  0  0
 12 11  1  0  0  0  0
 13 12  1  0  0  0  0
 13 20  1  0  0  0  0
 14 13  1  0  0  0  0
 15 14  2  0  0  0  0
 15 16  1  0  0  0  0
 16 12  2  0  0  0  0
 17 16  1  0  0  0  0
 17  9  2  0  0  0  0
 18  9  1  0  0  0  0
 21 14  1  0  0  0  0
 22 17  1  0  0  0  0
 23  3  1  0  0  0  0
 23 28  1  0  0  0  0
 24 23  2  0  0  0  0
 25 24  1  0  0  0  0
 25 26  2  0  0  0  0
 26 27  1  0  0  0  0
 27 28  2  0  0  0  0
 27 33  1  0  0  0  0
 29 24  1  0  0  0  0
 30 25  1  0  0  0  0
 31 32  1  0  0  0  0
 32 39  1  0  0  0  0
 33 32  2  0  0  0  0
 33 34  1  0  0  0  0
 34 36  2  0  0  0  0
 35 34  1  0  0  0  0
 36 38  1  0  0  0  0
 36 37  1  0  0  0  0
 39 38  2  0  0  0  0
M  END
>  <minimizedAffinity>
-6.81323147

$$$$

 OpenBabel03272507083D

 39 43  0  0  0  0  0  0  0  0999 V2000
   39.2580   25.8860   34.5010 C   0  0  0  0  0  0  0  0  0  0  0  0
   38.5520   27.0910   34.3490 C   0  0  0  0  0  0  0  0  0  0  0  0
   37.4010   27.0520   33.5580 C   0  0  0  0  0  0  0  0  0  0  0  0
   37.0160   25.8810   32.9790 N   0  0  0  0  0  0  0  0  0  0  0  0
   37.7440   24.7380   33.1620 C   0  0  0  0  0  0  0  0  0  0  0  0
   38.8460   24.7500   33.9120 N   0  0  0  0  0  0  0  0  0  0  0  0
   40.1450   25.9530   35.1200 H   0  0  0  0  0  0  0  0  0  0  0  0
   38.8240   28.0320   34.7890 H   0  0  0  0  0  0  0  0  0  0  0  0
   36.1170   23.5730   31.7520 C   0  0  0  0  0  0  0  0  0  0  0  0
   37.2690   23.5220   32.5100 C   0  0  0  0  0  0  0  0  0  0  0  0
   37.9460   22.3440   32.6430 C   0  0  0  0  0  0  0  0  0  0  0  0
   37.5000   21.2010   32.0310 C   0  0  0  0  0  0  0  0  0  0  0  0
   37.9700   19.9220   31.9970 N   0  0  0  0  0  0  0  0  0  0  0  0
   37.0860   19.2530   31.2210 C   0  0  0  0  0  0  0  0  0  0  0  0
   36.1170   20.0710   30.7950 N   0  0  0  0  0  0  0  0  0  0  0  0
   36.3470   21.3020   31.2850 C   0  0  0  0  0  0  0  0  0  0  0  0
   35.6260   22.4550   31.1150 C   0  0  0  0  0  0  0  0  0  0  0  0
   35.5910   24.5090   31.6550 H   0  0  0  0  0  0  0  0  0  0  0  0
   38.8490   22.3560   33.2530 H   0  0  0  0  0  0  0  0  0  0  0  0
   38.8390   19.6490   32.5060 H   0  0  0  0  0  0  0  0  0  0  0  0
   37.3100   18.1890   31.0800 H   0  0  0  0  0  0  0  0  0  0  0  0
   34.7340   22.4610   30.5190 H   0  0  0  0  0  0  0  0  0  0  0  0
   36.5480   28.2060   33.2930 C   0  0  0  0  0  0  0  0  0  0  0  0
   36.4290   28.8140   32.0720 C   0  0  0  0  0  0  0  0  0  0  0  0
   35.6350   29.9000   31.7920 C   0  0  0  0  0  0  0  0  0  0  0  0
   34.9210   30.3980   32.8030 N   0  0  0  0  0  0  0  0  0  0  0  0
   35.0020   29.8380   34.0190 C   0  0  0  0  0  0  0  0  0  0  0  0
   35.7840   28.7870   34.2450 N   0  0  0  0  0  0  0  0  0  0  0  0
   37.0090   28.4170   31.2280 H   0  0  0  0  0  0  0  0  0  0  0  0
   35.5830   30.3400   30.7980 H   0  0  0  0  0  0  0  0  0  0  0  0
   36.3610   32.0320   35.6260 Cl  0  0  0  0  0  0  0  0  0  0  0  0
   34.7690   31.3720   35.9190 C   0  0  0  0  0  0  0  0  0  0  0  0
   34.2200   30.3750   35.1440 C   0  0  0  0  0  0  0  0  0  0  0  0
   32.9470   29.8970   35.4330 C   0  0  0  0  0  0  0  0  0  0  0  0
   32.5780   29.1050   34.7740 H   0  0  0  0  0  0  0  0  0  0  0  0
   32.2280   30.4080   36.4880 C   0  0  0  0  0  0  0  0  0  0  0  0
   31.2290   30.0030   36.6810 H   0  0  0  0  0  0  0  0  0  0  0  0
   32.7130   31.3930   37.2920 C   0  0  0  0  0  3  0  0  0  0  0  0
   33.9810   31.8310   36.9590 C   0  0  0  0  0  3  0  0  0  0  0  0
  1  7  1  0  0  0  0
  2  1  1  0  0  0  0
  2  8  1  0  0  0  0
  3  2  2  0  0  0  0
  4  5  2  0  0  0  0
  4  3  1  0  0  0  0
  5  6  1  0  0  0  0
  6  1  2  0  0  0  0
  9 10  1  0  0  0  0
 10 11  2  0  0  0  0
 10  5  1  0  0  0  0
 11 19  1  0  0  0  0
 12 11  1  0  0  0  0
 13 12  1  0  0  0  0
 13 20  1  0  0  0  0
 14 13  1  0  0  0  0
 15 14  2  0  0  0  0
 15 16  1  0  0  0  0
 16 12  2  0  0  0  0
 17 16  1  0  0  0  0
 17  9  2  0  0  0  0
 18  9  1  0  0  0  0
 21 14  1  0  0  0  0
 22 17  1  0  0  0  0
 23  3  1  0  0  0  0
 23 28  1  0  0  0  0
 24 23  2  0  0  0  0
 25 24  1  0  0  0  0
 25 26  2  0  0  0  0
 26 27  1  0  0  0  0
 27 28  2  0  0  0  0
 27 33  1  0  0  0  0
 29 24  1  0  0  0  0
 30 25  1  0  0  0  0
 31 32  1  0  0  0  0
 32 39  1  0  0  0  0
 33 34  1  0  0  0  0
 33 32  2  0  0  0  0
 34 36  2  0  0  0  0
 35 34  1  0  0  0  0
 36 37  1  0  0  0  0
 36 38  1  0  0  0  0
 39 38  2  0  0  0  0
M  END
>  <minimizedAffinity>
-6.69270945

$$$$

 OpenBabel03272507083D

 39 43  0  0  0  0  0  0  0  0999 V2000
   36.6380   27.9760   30.5450 C   0  0  0  0  0  0  0  0  0  0  0  0
   37.1340   26.7240   30.9460 C   0  0  0  0  0  0  0  0  0  0  0  0
   36.9620   26.3800   32.2900 C   0  0  0  0  0  0  0  0  0  0  0  0
   36.3390   27.2460   33.1360 N   0  0  0  0  0  0  0  0  0  0  0  0
   35.8770   28.4520   32.6890 C   0  0  0  0  0  0  0  0  0  0  0  0
   36.0290   28.8030   31.4110 N   0  0  0  0  0  0  0  0  0  0  0  0
   36.7880   28.2100   29.4980 H   0  0  0  0  0  0  0  0  0  0  0  0
   37.6300   26.0170   30.3090 H   0  0  0  0  0  0  0  0  0  0  0  0
   33.8410   29.3920   33.6680 C   0  0  0  0  0  0  0  0  0  0  0  0
   35.2200   29.3260   33.6550 C   0  0  0  0  0  0  0  0  0  0  0  0
   35.9460   30.0720   34.5360 C   0  0  0  0  0  0  0  0  0  0  0  0
   35.3280   30.8940   35.4430 C   0  0  0  0  0  0  0  0  0  0  0  0
   35.8000   31.7280   36.4130 N   0  0  0  0  0  0  0  0  0  0  0  0
   34.6900   32.2630   36.9720 C   0  0  0  0  0  0  0  0  0  0  0  0
   33.5870   31.7890   36.3830 N   0  0  0  0  0  0  0  0  0  0  0  0
   33.9520   30.9260   35.4180 C   0  0  0  0  0  0  0  0  0  0  0  0
   33.1690   30.2000   34.5580 C   0  0  0  0  0  0  0  0  0  0  0  0
   33.2770   28.7980   32.9670 H   0  0  0  0  0  0  0  0  0  0  0  0
   37.0320   29.9850   34.4840 H   0  0  0  0  0  0  0  0  0  0  0  0
   36.8230   31.8390   36.5840 H   0  0  0  0  0  0  0  0  0  0  0  0
   34.8810   32.9720   37.7870 H   0  0  0  0  0  0  0  0  0  0  0  0
   32.1000   30.2750   34.5950 H   0  0  0  0  0  0  0  0  0  0  0  0
   37.4140   25.1240   32.8790 C   0  0  0  0  0  0  0  0  0  0  0  0
   38.3690   25.0280   33.8550 C   0  0  0  0  0  0  0  0  0  0  0  0
   38.8140   23.8610   34.4290 C   0  0  0  0  0  0  0  0  0  0  0  0
   38.2600   22.7280   33.9910 N   0  0  0  0  0  0  0  0  0  0  0  0
   37.3190   22.7680   33.0360 C   0  0  0  0  0  0  0  0  0  0  0  0
   36.9190   23.9210   32.5080 N   0  0  0  0  0  0  0  0  0  0  0  0
   38.8340   25.9500   34.2280 H   0  0  0  0  0  0  0  0  0  0  0  0
   39.5780   23.8490   35.2030 H   0  0  0  0  0  0  0  0  0  0  0  0
   35.9150   21.0810   35.1400 Cl  0  0  0  0  0  0  0  0  0  0  0  0
   36.0460   20.7100   33.4360 C   0  0  0  0  0  0  0  0  0  0  0  0
   36.7010   21.5280   32.5430 C   0  0  0  0  0  0  0  0  0  0  0  0
   36.7660   21.1720   31.2010 C   0  0  0  0  0  0  0  0  0  0  0  0
   37.3030   21.8710   30.5510 H   0  0  0  0  0  0  0  0  0  0  0  0
   36.1840   20.0090   30.7530 C   0  0  0  0  0  0  0  0  0  0  0  0
   36.2590   19.7670   29.6880 H   0  0  0  0  0  0  0  0  0  0  0  0
   35.5230   19.1580   31.5840 C   0  0  0  0  0  3  0  0  0  0  0  0
   35.4880   19.5610   32.9070 C   0  0  0  0  0  3  0  0  0  0  0  0
  1  2  2  0  0  0  0
  1  6  1  0  0  0  0
  2  3  1  0  0  0  0
  3 23  1  0  0  0  0
  3  4  2  0  0  0  0
  5  4  1  0  0  0  0
  5 10  1  0  0  0  0
  6  5  2  0  0  0  0
  7  1  1  0  0  0  0
  8  2  1  0  0  0  0
  9 17  1  0  0  0  0
 10  9  2  0  0  0  0
 10 11  1  0  0  0  0
 11 12  2  0  0  0  0
 12 13  1  0  0  0  0
 13 20  1  0  0  0  0
 13 14  1  0  0  0  0
 14 21  1  0  0  0  0
 15 14  2  0  0  0  0
 16 12  1  0  0  0  0
 16 15  1  0  0  0  0
 17 22  1  0  0  0  0
 17 16  2  0  0  0  0
 18  9  1  0  0  0  0
 19 11  1  0  0  0  0
 23 24  1  0  0  0  0
 24 29  1  0  0  0  0
 24 25  2  0  0  0  0
 25 30  1  0  0  0  0
 26 25  1  0  0  0  0
 27 26  2  0  0  0  0
 28 23  2  0  0  0  0
 28 27  1  0  0  0  0
 32 31  1  0  0  0  0
 33 27  1  0  0  0  0
 33 32  2  0  0  0  0
 34 33  1  0  0  0  0
 35 34  1  0  0  0  0
 36 34  2  0  0  0  0
 36 38  1  0  0  0  0
 37 36  1  0  0  0  0
 38 39  2  0  0  0  0
 39 32  1  0  0  0  0
M  END
>  <minimizedAffinity>
-6.63106585

$$$$

 OpenBabel03272507083D

 39 43  0  0  0  0  0  0  0  0999 V2000
   36.3650   29.6900   30.3630 C   0  0  0  0  0  0  0  0  0  0  0  0
   37.2010   28.5740   30.5410 C   0  0  0  0  0  0  0  0  0  0  0  0
   37.2600   28.0290   31.8260 C   0  0  0  0  0  0  0  0  0  0  0  0
   36.5270   28.5850   32.8310 N   0  0  0  0  0  0  0  0  0  0  0  0
   35.7310   29.6720   32.5990 C   0  0  0  0  0  0  0  0  0  0  0  0
   35.6580   30.2090   31.3810 N   0  0  0  0  0  0  0  0  0  0  0  0
   36.3440   30.0860   29.3550 H   0  0  0  0  0  0  0  0  0  0  0  0
   37.7920   28.1100   29.7750 H   0  0  0  0  0  0  0  0  0  0  0  0
   33.6170   29.9750   33.7940 C   0  0  0  0  0  0  0  0  0  0  0  0
   34.9750   30.2110   33.7250 C   0  0  0  0  0  0  0  0  0  0  0  0
   35.5910   30.9400   34.7000 C   0  0  0  0  0  0  0  0  0  0  0  0
   34.8800   31.4470   35.7570 C   0  0  0  0  0  0  0  0  0  0  0  0
   35.2350   32.1910   36.8440 N   0  0  0  0  0  0  0  0  0  0  0  0
   34.0800   32.3730   37.5240 C   0  0  0  0  0  0  0  0  0  0  0  0
   33.0610   31.7760   36.8970 N   0  0  0  0  0  0  0  0  0  0  0  0
   33.5290   31.1850   35.7830 C   0  0  0  0  0  0  0  0  0  0  0  0
   32.8560   30.4590   34.8350 C   0  0  0  0  0  0  0  0  0  0  0  0
   33.1420   29.3970   33.0180 H   0  0  0  0  0  0  0  0  0  0  0  0
   36.6650   31.1000   34.5990 H   0  0  0  0  0  0  0  0  0  0  0  0
   36.2220   32.4900   36.9980 H   0  0  0  0  0  0  0  0  0  0  0  0
   34.1760   32.9620   38.4450 H   0  0  0  0  0  0  0  0  0  0  0  0
   31.8000   30.2940   34.9190 H   0  0  0  0  0  0  0  0  0  0  0  0
   38.0720   26.8740   32.1920 C   0  0  0  0  0  0  0  0  0  0  0  0
   39.0780   26.3620   31.4170 C   0  0  0  0  0  0  0  0  0  0  0  0
   39.8590   25.2760   31.7350 C   0  0  0  0  0  0  0  0  0  0  0  0
   39.6090   24.6770   32.9010 N   0  0  0  0  0  0  0  0  0  0  0  0
   38.6340   25.1420   33.6960 C   0  0  0  0  0  0  0  0  0  0  0  0
   37.9020   26.1950   33.3490 N   0  0  0  0  0  0  0  0  0  0  0  0
   39.2980   26.8420   30.4550 H   0  0  0  0  0  0  0  0  0  0  0  0
   40.6460   24.9140   31.0770 H   0  0  0  0  0  0  0  0  0  0  0  0
   38.5660   26.9910   36.1090 Cl  0  0  0  0  0  0  0  0  0  0  0  0
   38.2990   25.2640   36.1240 C   0  0  0  0  0  0  0  0  0  0  0  0
   38.3460   24.4920   34.9850 C   0  0  0  0  0  0  0  0  0  0  0  0
   38.1230   23.1220   35.0690 C   0  0  0  0  0  0  0  0  0  0  0  0
   38.1780   22.5750   34.1220 H   0  0  0  0  0  0  0  0  0  0  0  0
   37.8570   22.5270   36.2800 C   0  0  0  0  0  0  0  0  0  0  0  0
   37.6870   21.4450   36.3010 H   0  0  0  0  0  0  0  0  0  0  0  0
   37.7960   23.2330   37.4410 C   0  0  0  0  0  3  0  0  0  0  0  0
   38.0240   24.5900   37.2990 C   0  0  0  0  0  3  0  0  0  0  0  0
  1  2  2  0  0  0  0
  1  6  1  0  0  0  0
  2  3  1  0  0  0  0
  3 23  1  0  0  0  0
  3  4  2  0  0  0  0
  5  4  1  0  0  0  0
  5 10  1  0  0  0  0
  6  5  2  0  0  0  0
  7  1  1  0  0  0  0
  8  2  1  0  0  0  0
  9 17  1  0  0  0  0
 10  9  2  0  0  0  0
 10 11  1  0  0  0  0
 11 12  2  0  0  0  0
 12 16  1  0  0  0  0
 12 13  1  0  0  0  0
 13 20  1  0  0  0  0
 13 14  1  0  0  0  0
 14 21  1  0  0  0  0
 15 14  2  0  0  0  0
 16 15  1  0  0  0  0
 17 22  1  0  0  0  0
 17 16  2  0  0  0  0
 18  9  1  0  0  0  0
 19 11  1  0  0  0  0
 23 28  1  0  0  0  0
 24 25  1  0  0  0  0
 24 23  2  0  0  0  0
 25 26  2  0  0  0  0
 26 27  1  0  0  0  0
 27 33  1  0  0  0  0
 28 27  2  0  0  0  0
 29 24  1  0  0  0  0
 30 25  1  0  0  0  0
 31 32  1  0  0  0  0
 32 39  1  0  0  0  0
 33 34  1  0  0  0  0
 33 32  2  0  0  0  0
 34 36  2  0  0  0  0
 35 34  1  0  0  0  0
 36 37  1  0  0  0  0
 36 38  1  0  0  0  0
 39 38  2  0  0  0  0
M  END
>  <minimizedAffinity>
-6.60303259

$$$$

 OpenBabel03272507083D

 39 43  0  0  0  0  0  0  0  0999 V2000
   38.0460   28.2410   30.8780 C   0  0  0  0  0  0  0  0  0  0  0  0
   38.3310   26.9280   31.2910 C   0  0  0  0  0  0  0  0  0  0  0  0
   37.5150   26.3900   32.2900 C   0  0  0  0  0  0  0  0  0  0  0  0
   36.5020   27.1360   32.8120 N   0  0  0  0  0  0  0  0  0  0  0  0
   36.2720   28.4090   32.3720 C   0  0  0  0  0  0  0  0  0  0  0  0
   37.0370   28.9450   31.4190 N   0  0  0  0  0  0  0  0  0  0  0  0
   38.6970   28.6250   30.1030 H   0  0  0  0  0  0  0  0  0  0  0  0
   39.1190   26.3110   30.9040 H   0  0  0  0  0  0  0  0  0  0  0  0
   35.4040   29.8820   34.1220 C   0  0  0  0  0  0  0  0  0  0  0  0
   35.1690   29.1470   32.9780 C   0  0  0  0  0  0  0  0  0  0  0  0
   33.9200   29.1170   32.4310 C   0  0  0  0  0  0  0  0  0  0  0  0
   32.8830   29.8110   33.0010 C   0  0  0  0  0  0  0  0  0  0  0  0
   31.5670   29.9520   32.6710 N   0  0  0  0  0  0  0  0  0  0  0  0
   31.0610   30.7650   33.6270 C   0  0  0  0  0  0  0  0  0  0  0  0
   32.0090   31.1120   34.5040 N   0  0  0  0  0  0  0  0  0  0  0  0
   33.1650   30.5300   34.1410 C   0  0  0  0  0  0  0  0  0  0  0  0
   34.3990   30.5980   34.7350 C   0  0  0  0  0  0  0  0  0  0  0  0
   36.3950   29.8990   34.5450 H   0  0  0  0  0  0  0  0  0  0  0  0
   33.7860   28.5220   31.5280 H   0  0  0  0  0  0  0  0  0  0  0  0
   31.1640   29.4790   31.8340 H   0  0  0  0  0  0  0  0  0  0  0  0
   29.9930   30.9930   33.5200 H   0  0  0  0  0  0  0  0  0  0  0  0
   34.5470   31.1790   35.6240 H   0  0  0  0  0  0  0  0  0  0  0  0
   37.6660   25.0460   32.8370 C   0  0  0  0  0  0  0  0  0  0  0  0
   37.5120   23.8950   32.1130 C   0  0  0  0  0  0  0  0  0  0  0  0
   37.6480   22.6170   32.6010 C   0  0  0  0  0  0  0  0  0  0  0  0
   37.9580   22.4980   33.8930 N   0  0  0  0  0  0  0  0  0  0  0  0
   38.1200   23.5960   34.6460 C   0  0  0  0  0  0  0  0  0  0  0  0
   37.9780   24.8140   34.1330 N   0  0  0  0  0  0  0  0  0  0  0  0
   37.2580   23.9740   31.0480 H   0  0  0  0  0  0  0  0  0  0  0  0
   37.5130   21.7380   31.9740 H   0  0  0  0  0  0  0  0  0  0  0  0
   40.8390   22.3740   35.2470 Cl  0  0  0  0  0  0  0  0  0  0  0  0
   39.6760   22.9370   36.4250 C   0  0  0  0  0  0  0  0  0  0  0  0
   38.4620   23.4810   36.0730 C   0  0  0  0  0  0  0  0  0  0  0  0
   37.5840   23.9090   37.0630 C   0  0  0  0  0  0  0  0  0  0  0  0
   36.6380   24.3300   36.7070 H   0  0  0  0  0  0  0  0  0  0  0  0
   37.9150   23.7950   38.3920 C   0  0  0  0  0  0  0  0  0  0  0  0
   37.1950   24.1450   39.1390 H   0  0  0  0  0  0  0  0  0  0  0  0
   39.1000   23.2670   38.8060 C   0  0  0  0  0  3  0  0  0  0  0  0
   39.9330   22.8580   37.7810 C   0  0  0  0  0  3  0  0  0  0  0  0
  1  2  2  0  0  0  0
  1  6  1  0  0  0  0
  2  3  1  0  0  0  0
  3  4  2  0  0  0  0
  3 23  1  0  0  0  0
  5  4  1  0  0  0  0
  5 10  1  0  0  0  0
  6  5  2  0  0  0  0
  7  1  1  0  0  0  0
  8  2  1  0  0  0  0
  9 18  1  0  0  0  0
  9 17  1  0  0  0  0
 10  9  2  0  0  0  0
 11 10  1  0  0  0  0
 11 12  2  0  0  0  0
 12 16  1  0  0  0  0
 13 12  1  0  0  0  0
 13 14  1  0  0  0  0
 14 15  2  0  0  0  0
 16 15  1  0  0  0  0
 16 17  2  0  0  0  0
 17 22  1  0  0  0  0
 19 11  1  0  0  0  0
 20 13  1  0  0  0  0
 21 14  1  0  0  0  0
 23 28  1  0  0  0  0
 24 25  1  0  0  0  0
 24 23  2  0  0  0  0
 25 26  2  0  0  0  0
 26 27  1  0  0  0  0
 27 33  1  0  0  0  0
 28 27  2  0  0  0  0
 29 24  1  0  0  0  0
 30 25  1  0  0  0  0
 31 32  1  0  0  0  0
 32 39  1  0  0  0  0
 33 32  2  0  0  0  0
 33 34  1  0  0  0  0
 34 36  2  0  0  0  0
 35 34  1  0  0  0  0
 36 38  1  0  0  0  0
 36 37  1  0  0  0  0
 39 38  2  0  0  0  0
M  END
>  <minimizedAffinity>
-6.58452368

$$$$

 OpenBabel03272507083D

 39 43  0  0  0  0  0  0  0  0999 V2000
   38.5590   27.4890   31.5550 C   0  0  0  0  0  0  0  0  0  0  0  0
   37.4150   28.2980   31.6720 C   0  0  0  0  0  0  0  0  0  0  0  0
   36.6480   28.1420   32.8290 C   0  0  0  0  0  0  0  0  0  0  0  0
   37.0250   27.2360   33.7740 N   0  0  0  0  0  0  0  0  0  0  0  0
   38.1480   26.4750   33.6060 C   0  0  0  0  0  0  0  0  0  0  0  0
   38.8970   26.6070   32.5110 N   0  0  0  0  0  0  0  0  0  0  0  0
   39.1300   27.6370   30.6470 H   0  0  0  0  0  0  0  0  0  0  0  0
   37.0880   29.0200   30.9490 H   0  0  0  0  0  0  0  0  0  0  0  0
   39.4260   24.5480   34.4060 C   0  0  0  0  0  0  0  0  0  0  0  0
   38.4880   25.5270   34.6620 C   0  0  0  0  0  0  0  0  0  0  0  0
   37.8940   25.5980   35.8880 C   0  0  0  0  0  0  0  0  0  0  0  0
   38.2140   24.7070   36.8800 C   0  0  0  0  0  0  0  0  0  0  0  0
   37.7830   24.5540   38.1650 N   0  0  0  0  0  0  0  0  0  0  0  0
   38.4770   23.4910   38.6330 C   0  0  0  0  0  0  0  0  0  0  0  0
   39.2960   23.0080   37.6910 N   0  0  0  0  0  0  0  0  0  0  0  0
   39.1550   23.7490   36.5780 C   0  0  0  0  0  0  0  0  0  0  0  0
   39.7860   23.6290   35.3670 C   0  0  0  0  0  0  0  0  0  0  0  0
   39.8900   24.5020   33.4340 H   0  0  0  0  0  0  0  0  0  0  0  0
   37.1590   26.3890   36.0400 H   0  0  0  0  0  0  0  0  0  0  0  0
   37.0660   25.1900   38.5770 H   0  0  0  0  0  0  0  0  0  0  0  0
   38.2560   23.2170   39.6720 H   0  0  0  0  0  0  0  0  0  0  0  0
   40.5100   22.8560   35.2020 H   0  0  0  0  0  0  0  0  0  0  0  0
   35.4320   28.8960   33.1160 C   0  0  0  0  0  0  0  0  0  0  0  0
   34.2420   28.7190   32.4620 C   0  0  0  0  0  0  0  0  0  0  0  0
   33.0820   29.4130   32.7100 C   0  0  0  0  0  0  0  0  0  0  0  0
   33.1290   30.3360   33.6730 N   0  0  0  0  0  0  0  0  0  0  0  0
   34.2720   30.5470   34.3430 C   0  0  0  0  0  0  0  0  0  0  0  0
   35.3710   29.8520   34.0700 N   0  0  0  0  0  0  0  0  0  0  0  0
   34.1850   27.9640   31.6680 H   0  0  0  0  0  0  0  0  0  0  0  0
   32.1650   29.2280   32.1560 H   0  0  0  0  0  0  0  0  0  0  0  0
   32.3510   30.1370   36.6650 Cl  0  0  0  0  0  0  0  0  0  0  0  0
   33.4990   31.4440   36.4920 C   0  0  0  0  0  0  0  0  0  0  0  0
   34.3390   31.5610   35.4070 C   0  0  0  0  0  0  0  0  0  0  0  0
   35.2290   32.6260   35.3350 C   0  0  0  0  0  0  0  0  0  0  0  0
   35.8630   32.6530   34.4430 H   0  0  0  0  0  0  0  0  0  0  0  0
   35.2810   33.5680   36.3360 C   0  0  0  0  0  0  0  0  0  0  0  0
   35.9970   34.3900   36.2390 H   0  0  0  0  0  0  0  0  0  0  0  0
   34.4790   33.5090   37.4340 C   0  0  0  0  0  3  0  0  0  0  0  0
   33.6140   32.4300   37.4540 C   0  0  0  0  0  3  0  0  0  0  0  0
  1  2  2  0  0  0  0
  1  6  1  0  0  0  0
  2  3  1  0  0  0  0
  3 23  1  0  0  0  0
  3  4  2  0  0  0  0
  5  4  1  0  0  0  0
  5 10  1  0  0  0  0
  6  5  2  0  0  0  0
  7  1  1  0  0  0  0
  8  2  1  0  0  0  0
  9 10  2  0  0  0  0
  9 17  1  0  0  0  0
 10 11  1  0  0  0  0
 11 19  1  0  0  0  0
 11 12  2  0  0  0  0
 12 13  1  0  0  0  0
 13 20  1  0  0  0  0
 13 14  1  0  0  0  0
 14 21  1  0  0  0  0
 15 14  2  0  0  0  0
 16 12  1  0  0  0  0
 16 15  1  0  0  0  0
 17 16  2  0  0  0  0
 18  9  1  0  0  0  0
 22 17  1  0  0  0  0
 23 28  1  0  0  0  0
 24 25  1  0  0  0  0
 24 23  2  0  0  0  0
 25 26  2  0  0  0  0
 26 27  1  0  0  0  0
 27 33  1  0  0  0  0
 28 27  2  0  0  0  0
 29 24  1  0  0  0  0
 30 25  1  0  0  0  0
 32 31  1  0  0  0  0
 32 39  1  0  0  0  0
 33 32  2  0  0  0  0
 34 33  1  0  0  0  0
 34 36  2  0  0  0  0
 35 34  1  0  0  0  0
 36 38  1  0  0  0  0
 37 36  1  0  0  0  0
 38 39  2  0  0  0  0
M  END
>  <minimizedAffinity>
-6.52182531

$$$$
