
 OpenBabel03272509373D

 30 32  0  0  1  0  0  0  0  0999 V2000
   34.9140   29.3160   47.1070 C   0  0  0  0  0  0  0  0  0  0  0  0
   33.9070   28.4910   47.6470 C   0  0  0  0  0  0  0  0  0  0  0  0
   33.9450   28.0810   48.9910 C   0  0  0  0  0  0  0  0  0  0  0  0
   35.0140   28.5070   49.8060 C   0  0  0  0  0  0  0  0  0  0  0  0
   35.9940   29.3230   49.2430 C   0  0  0  0  0  0  0  0  0  0  0  0
   35.9350   29.7140   47.9170 C   0  0  0  0  0  0  0  0  0  0  0  0
   33.0840   28.1580   47.0320 H   0  0  0  0  0  0  0  0  0  0  0  0
   33.1490   27.4570   49.3270 H   0  0  0  0  0  0  0  0  0  0  0  0
   35.0120   28.1750   50.8280 H   0  0  0  0  0  0  0  0  0  0  0  0
   36.7640   29.5910   49.9520 H   0  0  0  0  0  0  0  0  0  0  0  0
   36.2090   31.7860   49.9640 Cl  0  0  0  0  0  0  0  0  0  0  0  0
   37.1920   31.5500   48.5140 C   0  0  0  0  0  0  0  0  0  0  0  0
   37.0590   30.5460   47.5440 C   0  0  0  0  0  0  0  0  0  0  0  0
   37.9550   30.5750   46.4960 C   0  0  0  0  0  0  0  0  0  0  0  0
   37.7180   29.7290   45.8300 H   0  0  0  0  0  0  0  0  0  0  0  0
   38.9350   31.5300   46.3910 C   0  0  0  0  0  0  0  0  0  0  0  0
   39.5540   31.4150   45.5150 H   0  0  0  0  0  0  0  0  0  0  0  0
   39.0630   32.5150   47.3450 C   0  0  0  0  0  0  0  0  0  0  0  0
   38.1910   32.5280   48.4110 C   0  0  0  0  0  0  0  0  0  0  0  0
   34.8000   29.6860   45.7110 C   0  0  1  0  0  0  0  0  0  0  0  0
   35.6970   29.1700   44.9480 O   0  0  0  0  0  0  0  0  0  0  0  0
   31.7640   31.6650   45.6220 C   0  0  0  0  0  0  0  0  0  0  0  0
   31.7550   32.2240   44.3300 C   0  0  0  0  0  0  0  0  0  0  0  0
   32.8040   31.9110   43.4770 C   0  0  0  0  0  0  0  0  0  0  0  0
   33.8070   31.0770   43.9100 N   0  0  0  0  0  0  0  0  0  0  0  0
   33.7710   30.5710   45.1480 C   0  0  0  0  0  0  0  0  0  0  0  0
   32.7550   30.8660   45.9910 N   0  0  0  0  0  0  0  0  0  0  0  0
   30.9160   31.9550   46.2280 H   0  0  0  0  0  0  0  0  0  0  0  0
   31.0080   32.8830   43.9200 H   0  0  0  0  0  0  0  0  0  0  0  0
   32.9320   32.2650   42.4560 H   0  0  0  0  0  0  0  0  0  0  0  0
  1  2  2  0  0  0  0
  1  6  1  0  0  0  0
  2  3  1  0  0  0  0
  3  8  1  0  0  0  0
  3  4  2  0  0  0  0
  4  9  1  0  0  0  0
  5  4  1  0  0  0  0
  5 10  1  0  0  0  0
  6  5  2  0  0  0  0
  7  2  1  0  0  0  0
 12 11  1  0  0  0  0
 13  6  1  0  0  0  0
 13 12  2  0  0  0  0
 14 13  1  0  0  0  0
 15 14  1  0  0  0  0
 16 14  2  0  0  0  0
 16 18  1  0  0  0  0
 17 16  1  0  0  0  0
 18 19  2  0  0  0  0
 19 12  1  0  0  0  0
 20 21  1  6  0  0  0
 20  1  1  0  0  0  0
 22 27  1  0  0  0  0
 22 28  1  0  0  0  0
 23 22  2  0  0  0  0
 24 25  2  0  0  0  0
 24 23  1  0  0  0  0
 25 26  1  0  0  0  0
 26 20  1  0  0  0  0
 26 27  2  0  0  0  0
 29 23  1  0  0  0  0
 30 24  1  0  0  0  0
M  END
>  <minimizedAffinity>
-5.42329979

>  <minimizedRMSD>
3.25501776

$$$$
