
 OpenBabel03272500313D

 28 30  0  0  0  0  0  0  0  0999 V2000
   37.8280   23.1620   33.4530 Cl  0  0  0  0  0  0  0  0  0  0  0  0
   36.8170   24.1810   32.4510 C   0  0  0  0  0  0  0  0  0  0  0  0
   35.9480   23.5310   31.5910 C   0  0  0  0  0  0  0  0  0  0  0  0
   35.1330   24.3220   30.7840 C   0  0  0  0  0  0  0  0  0  0  0  0
   35.2190   25.6930   30.8690 C   0  0  0  0  0  0  0  0  0  0  0  0
   36.0990   26.2720   31.7400 C   0  0  0  0  0  0  0  0  0  0  0  0
   36.9210   25.5540   32.5530 C   0  0  0  0  0  0  0  0  0  0  0  0
   34.4450   23.8610   30.1040 H   0  0  0  0  0  0  0  0  0  0  0  0
   34.6150   26.3620   30.2720 H   0  0  0  0  0  0  0  0  0  0  0  0
   36.1680   27.3610   31.8070 H   0  0  0  0  0  0  0  0  0  0  0  0
   34.8710   20.1180   32.2930 C   0  0  0  0  0  0  0  0  0  0  0  0
   35.7090   19.3230   31.5120 C   0  0  0  0  0  0  0  0  0  0  0  0
   36.6610   19.9810   30.7310 C   0  0  0  0  0  0  0  0  0  0  0  0
   36.7210   21.3490   30.7720 N   0  0  0  0  0  0  0  0  0  0  0  0
   35.8940   22.0730   31.5380 C   0  0  0  0  0  0  0  0  0  0  0  0
   34.9700   21.4460   32.2980 N   0  0  0  0  0  0  0  0  0  0  0  0
   34.1030   19.6710   32.9270 H   0  0  0  0  0  0  0  0  0  0  0  0
   35.5910   18.2520   31.5410 H   0  0  0  0  0  0  0  0  0  0  0  0
   37.3190   19.4030   30.1200 H   0  0  0  0  0  0  0  0  0  0  0  0
   39.8310   25.9690   31.7250 Cl  0  0  0  0  0  0  0  0  0  0  0  0
   39.2290   26.3690   33.3040 C   0  0  0  0  0  0  0  0  0  0  0  0
   37.8910   26.1190   33.5140 C   0  0  0  0  0  0  0  0  0  0  0  0
   37.2870   26.3900   34.7220 C   0  0  0  0  0  0  0  0  0  0  0  0
   36.2560   26.2320   34.9830 H   0  0  0  0  0  0  0  0  0  0  0  0
   38.0290   26.9280   35.7640 C   0  0  0  0  0  0  0  0  0  0  0  0
   37.6010   27.1630   36.7450 H   0  0  0  0  0  0  0  0  0  0  0  0
   39.3820   27.1870   35.5740 C   0  0  0  0  0  3  0  0  0  0  0  0
   39.9560   26.9060   34.3540 C   0  0  0  0  0  3  0  0  0  0  0  0
  2  7  1  0  0  0  0
  2  1  1  0  0  0  0
  3  2  2  0  0  0  0
  4  5  2  0  0  0  0
  4  3  1  0  0  0  0
  5  6  1  0  0  0  0
  6 10  1  0  0  0  0
  6  7  2  0  0  0  0
  7 22  1  0  0  0  0
  8  4  1  0  0  0  0
  9  5  1  0  0  0  0
 11 16  1  0  0  0  0
 11 17  1  0  0  0  0
 12 18  1  0  0  0  0
 12 11  2  0  0  0  0
 13 14  2  0  0  0  0
 13 12  1  0  0  0  0
 14 15  1  0  0  0  0
 15  3  1  0  0  0  0
 15 16  2  0  0  0  0
 19 13  1  0  0  0  0
 20 21  1  0  0  0  0
 21 22  2  0  0  0  0
 21 28  1  0  0  0  0
 22 23  1  0  0  0  0
 23 24  1  0  0  0  0
 23 25  2  0  0  0  0
 25 26  1  0  0  0  0
 27 25  1  0  0  0  0
 28 27  2  0  0  0  0
M  END
>  <minimizedAffinity>
-5.46860647

$$$$

 OpenBabel03272500313D

 28 30  0  0  0  0  0  0  0  0999 V2000
   37.8990   23.0530   33.5280 Cl  0  0  0  0  0  0  0  0  0  0  0  0
   36.8620   23.9810   32.4660 C   0  0  0  0  0  0  0  0  0  0  0  0
   36.9110   25.3580   32.6060 C   0  0  0  0  0  0  0  0  0  0  0  0
   36.0940   26.1180   31.7710 C   0  0  0  0  0  0  0  0  0  0  0  0
   35.2850   25.4860   30.8550 C   0  0  0  0  0  0  0  0  0  0  0  0
   35.2840   24.1210   30.7670 C   0  0  0  0  0  0  0  0  0  0  0  0
   36.0590   23.3260   31.5540 C   0  0  0  0  0  0  0  0  0  0  0  0
   36.1010   27.1870   31.8470 H   0  0  0  0  0  0  0  0  0  0  0  0
   34.6300   26.0170   30.1790 H   0  0  0  0  0  0  0  0  0  0  0  0
   34.6410   23.6190   30.0400 H   0  0  0  0  0  0  0  0  0  0  0  0
   38.0350   26.7790   35.7710 C   0  0  0  0  0  0  0  0  0  0  0  0
   39.3560   27.1540   35.5330 C   0  0  0  0  0  0  0  0  0  0  0  0
   39.8640   26.9110   34.2560 C   0  0  0  0  0  0  0  0  0  0  0  0
   39.0520   26.3260   33.3200 N   0  0  0  0  0  0  0  0  0  0  0  0
   37.7870   25.9810   33.5940 C   0  0  0  0  0  0  0  0  0  0  0  0
   37.2860   26.2130   34.8270 N   0  0  0  0  0  0  0  0  0  0  0  0
   37.5730   26.9390   36.7480 H   0  0  0  0  0  0  0  0  0  0  0  0
   39.9230   27.6090   36.3290 H   0  0  0  0  0  0  0  0  0  0  0  0
   40.8730   27.1850   34.0390 H   0  0  0  0  0  0  0  0  0  0  0  0
   38.3660   21.9080   30.1420 Cl  0  0  0  0  0  0  0  0  0  0  0  0
   37.0640   21.0590   30.9170 C   0  0  0  0  0  0  0  0  0  0  0  0
   36.1030   21.8490   31.5070 C   0  0  0  0  0  0  0  0  0  0  0  0
   35.0170   21.3030   32.1550 C   0  0  0  0  0  0  0  0  0  0  0  0
   34.2190   21.8310   32.6440 H   0  0  0  0  0  0  0  0  0  0  0  0
   34.8710   19.9250   32.2240 C   0  0  0  0  0  0  0  0  0  0  0  0
   34.0290   19.4350   32.7250 H   0  0  0  0  0  0  0  0  0  0  0  0
   35.8300   19.1080   31.6330 C   0  0  0  0  0  3  0  0  0  0  0  0
   36.9040   19.6850   30.9930 C   0  0  0  0  0  3  0  0  0  0  0  0
  2  3  1  0  0  0  0
  2  1  1  0  0  0  0
  3 15  1  0  0  0  0
  4  8  1  0  0  0  0
  4  3  2  0  0  0  0
  5  4  1  0  0  0  0
  6  5  2  0  0  0  0
  6  7  1  0  0  0  0
  7  2  2  0  0  0  0
  9  5  1  0  0  0  0
 10  6  1  0  0  0  0
 11 17  1  0  0  0  0
 12 11  1  0  0  0  0
 12 18  1  0  0  0  0
 13 12  2  0  0  0  0
 14 15  2  0  0  0  0
 14 13  1  0  0  0  0
 15 16  1  0  0  0  0
 16 11  2  0  0  0  0
 19 13  1  0  0  0  0
 20 21  1  0  0  0  0
 21 28  2  0  0  0  0
 21 22  1  0  0  0  0
 22  7  1  0  0  0  0
 22 23  2  0  0  0  0
 23 25  1  0  0  0  0
 23 24  1  0  0  0  0
 25 26  1  0  0  0  0
 27 25  2  0  0  0  0
 28 27  1  0  0  0  0
M  END
>  <minimizedAffinity>
-5.46447849

$$$$

 OpenBabel03272500313D

 28 30  0  0  0  0  0  0  0  0999 V2000
   38.1050   23.1990   34.0910 Cl  0  0  0  0  0  0  0  0  0  0  0  0
   38.9930   24.7070   34.0830 C   0  0  0  0  0  0  0  0  0  0  0  0
   38.5310   25.6910   33.2250 C   0  0  0  0  0  0  0  0  0  0  0  0
   39.2220   26.9000   33.2020 C   0  0  0  0  0  0  0  0  0  0  0  0
   40.3180   27.0700   34.0160 C   0  0  0  0  0  0  0  0  0  0  0  0
   40.7240   26.0590   34.8410 C   0  0  0  0  0  0  0  0  0  0  0  0
   40.0900   24.8560   34.9080 C   0  0  0  0  0  0  0  0  0  0  0  0
   38.8980   27.6880   32.5520 H   0  0  0  0  0  0  0  0  0  0  0  0
   40.8970   27.9830   34.0450 H   0  0  0  0  0  0  0  0  0  0  0  0
   41.5950   26.1940   35.4880 H   0  0  0  0  0  0  0  0  0  0  0  0
   35.3820   26.3150   31.4930 C   0  0  0  0  0  0  0  0  0  0  0  0
   35.1210   25.1290   30.8090 C   0  0  0  0  0  0  0  0  0  0  0  0
   36.0520   24.0980   30.9510 C   0  0  0  0  0  0  0  0  0  0  0  0
   37.1530   24.3020   31.7410 N   0  0  0  0  0  0  0  0  0  0  0  0
   37.3620   25.4610   32.3800 C   0  0  0  0  0  0  0  0  0  0  0  0
   36.4680   26.4640   32.2500 N   0  0  0  0  0  0  0  0  0  0  0  0
   34.6980   27.1640   31.4280 H   0  0  0  0  0  0  0  0  0  0  0  0
   34.2290   25.0560   30.2090 H   0  0  0  0  0  0  0  0  0  0  0  0
   35.8830   23.1750   30.4400 H   0  0  0  0  0  0  0  0  0  0  0  0
   38.4670   24.2280   37.4180 Cl  0  0  0  0  0  0  0  0  0  0  0  0
   39.8600   23.3100   36.9360 C   0  0  0  0  0  0  0  0  0  0  0  0
   40.4780   23.7250   35.7780 C   0  0  0  0  0  0  0  0  0  0  0  0
   41.5940   23.0850   35.2850 C   0  0  0  0  0  0  0  0  0  0  0  0
   42.1440   23.3310   34.3950 H   0  0  0  0  0  0  0  0  0  0  0  0
   42.1210   21.9920   35.9580 C   0  0  0  0  0  0  0  0  0  0  0  0
   43.0050   21.4450   35.6120 H   0  0  0  0  0  0  0  0  0  0  0  0
   41.5130   21.5560   37.1300 C   0  0  0  0  0  3  0  0  0  0  0  0
   40.3990   22.2180   37.5970 C   0  0  0  0  0  3  0  0  0  0  0  0
  2  1  1  0  0  0  0
  2  7  1  0  0  0  0
  3  2  2  0  0  0  0
  4  3  1  0  0  0  0
  4  5  2  0  0  0  0
  5  9  1  0  0  0  0
  5  6  1  0  0  0  0
  6  7  2  0  0  0  0
  6 10  1  0  0  0  0
  7 22  1  0  0  0  0
  8  4  1  0  0  0  0
 11 16  1  0  0  0  0
 12 13  1  0  0  0  0
 12 11  2  0  0  0  0
 13 14  2  0  0  0  0
 14 15  1  0  0  0  0
 15  3  1  0  0  0  0
 16 15  2  0  0  0  0
 17 11  1  0  0  0  0
 18 12  1  0  0  0  0
 19 13  1  0  0  0  0
 21 20  1  0  0  0  0
 21 28  1  0  0  0  0
 22 21  2  0  0  0  0
 23 22  1  0  0  0  0
 23 25  2  0  0  0  0
 24 23  1  0  0  0  0
 25 27  1  0  0  0  0
 26 25  1  0  0  0  0
 27 28  2  0  0  0  0
M  END
>  <minimizedAffinity>
-5.307868

$$$$

 OpenBabel03272500313D

 28 30  0  0  0  0  0  0  0  0999 V2000
   36.2950   28.1960   34.6760 Cl  0  0  0  0  0  0  0  0  0  0  0  0
   36.0930   29.0880   33.1840 C   0  0  0  0  0  0  0  0  0  0  0  0
   36.6120   28.5040   32.0410 C   0  0  0  0  0  0  0  0  0  0  0  0
   36.4630   29.1960   30.8410 C   0  0  0  0  0  0  0  0  0  0  0  0
   35.8170   30.4100   30.8340 C   0  0  0  0  0  0  0  0  0  0  0  0
   35.3260   30.9330   31.9980 C   0  0  0  0  0  0  0  0  0  0  0  0
   35.4410   30.3050   33.2010 C   0  0  0  0  0  0  0  0  0  0  0  0
   36.8500   28.7790   29.9330 H   0  0  0  0  0  0  0  0  0  0  0  0
   35.6680   30.9960   29.9380 H   0  0  0  0  0  0  0  0  0  0  0  0
   34.8130   31.8980   31.9930 H   0  0  0  0  0  0  0  0  0  0  0  0
   37.0970   24.8890   32.0400 C   0  0  0  0  0  0  0  0  0  0  0  0
   38.4710   24.7230   32.2010 C   0  0  0  0  0  0  0  0  0  0  0  0
   39.2410   25.8830   32.3120 C   0  0  0  0  0  0  0  0  0  0  0  0
   38.6170   27.1010   32.2570 N   0  0  0  0  0  0  0  0  0  0  0  0
   37.2900   27.2120   32.1010 C   0  0  0  0  0  0  0  0  0  0  0  0
   36.5370   26.0960   31.9940 N   0  0  0  0  0  0  0  0  0  0  0  0
   36.4330   24.0260   31.9460 H   0  0  0  0  0  0  0  0  0  0  0  0
   38.8780   23.7260   32.2340 H   0  0  0  0  0  0  0  0  0  0  0  0
   40.2980   25.7920   32.4360 H   0  0  0  0  0  0  0  0  0  0  0  0
   32.6770   29.4700   34.1960 Cl  0  0  0  0  0  0  0  0  0  0  0  0
   33.7200   30.5410   35.0810 C   0  0  0  0  0  0  0  0  0  0  0  0
   34.9330   30.8160   34.4920 C   0  0  0  0  0  0  0  0  0  0  0  0
   35.8530   31.6510   35.0870 C   0  0  0  0  0  0  0  0  0  0  0  0
   36.8210   31.9260   34.7100 H   0  0  0  0  0  0  0  0  0  0  0  0
   35.5660   32.2380   36.3110 C   0  0  0  0  0  0  0  0  0  0  0  0
   36.2590   32.9090   36.8310 H   0  0  0  0  0  0  0  0  0  0  0  0
   34.3460   31.9740   36.9240 C   0  0  0  0  0  3  0  0  0  0  0  0
   33.4480   31.1350   36.3030 C   0  0  0  0  0  3  0  0  0  0  0  0
  2  7  1  0  0  0  0
  2  1  1  0  0  0  0
  3 15  1  0  0  0  0
  3  2  2  0  0  0  0
  4  3  1  0  0  0  0
  5  4  2  0  0  0  0
  5  6  1  0  0  0  0
  6  7  2  0  0  0  0
  7 22  1  0  0  0  0
  8  4  1  0  0  0  0
  9  5  1  0  0  0  0
 10  6  1  0  0  0  0
 11 12  1  0  0  0  0
 12 18  1  0  0  0  0
 12 13  2  0  0  0  0
 13 19  1  0  0  0  0
 14 13  1  0  0  0  0
 15 14  2  0  0  0  0
 16 11  2  0  0  0  0
 16 15  1  0  0  0  0
 17 11  1  0  0  0  0
 20 21  1  0  0  0  0
 21 28  1  0  0  0  0
 22 21  2  0  0  0  0
 22 23  1  0  0  0  0
 23 25  2  0  0  0  0
 24 23  1  0  0  0  0
 25 26  1  0  0  0  0
 25 27  1  0  0  0  0
 28 27  2  0  0  0  0
M  END
>  <minimizedAffinity>
-5.19064379

$$$$

 OpenBabel03272500313D

 28 30  0  0  0  0  0  0  0  0999 V2000
   35.6150   31.3020   32.1790 Cl  0  0  0  0  0  0  0  0  0  0  0  0
   36.1470   29.7540   32.8000 C   0  0  0  0  0  0  0  0  0  0  0  0
   36.8990   28.9710   31.9410 C   0  0  0  0  0  0  0  0  0  0  0  0
   37.3340   27.7350   32.4150 C   0  0  0  0  0  0  0  0  0  0  0  0
   37.0070   27.3440   33.6930 C   0  0  0  0  0  0  0  0  0  0  0  0
   36.2610   28.1660   34.4910 C   0  0  0  0  0  0  0  0  0  0  0  0
   35.8080   29.3840   34.0860 C   0  0  0  0  0  0  0  0  0  0  0  0
   37.9190   27.0960   31.7820 H   0  0  0  0  0  0  0  0  0  0  0  0
   37.3140   26.3990   34.1190 H   0  0  0  0  0  0  0  0  0  0  0  0
   36.0020   27.8560   35.5070 H   0  0  0  0  0  0  0  0  0  0  0  0
   37.5880   31.2420   29.1720 C   0  0  0  0  0  0  0  0  0  0  0  0
   37.8160   30.4020   28.0830 C   0  0  0  0  0  0  0  0  0  0  0  0
   37.7300   29.0270   28.3140 C   0  0  0  0  0  0  0  0  0  0  0  0
   37.4310   28.5840   29.5750 N   0  0  0  0  0  0  0  0  0  0  0  0
   37.2190   29.4300   30.5920 C   0  0  0  0  0  0  0  0  0  0  0  0
   37.2990   30.7610   30.3800 N   0  0  0  0  0  0  0  0  0  0  0  0
   37.6390   32.3280   29.0650 H   0  0  0  0  0  0  0  0  0  0  0  0
   38.0460   30.8380   27.1250 H   0  0  0  0  0  0  0  0  0  0  0  0
   37.9000   28.3550   27.5010 H   0  0  0  0  0  0  0  0  0  0  0  0
   32.7600   29.3300   33.9010 Cl  0  0  0  0  0  0  0  0  0  0  0  0
   33.6270   30.4220   34.9360 C   0  0  0  0  0  0  0  0  0  0  0  0
   34.9990   30.3160   34.9000 C   0  0  0  0  0  0  0  0  0  0  0  0
   35.8070   31.1240   35.6710 C   0  0  0  0  0  0  0  0  0  0  0  0
   36.8810   31.1180   35.7140 H   0  0  0  0  0  0  0  0  0  0  0  0
   35.2410   32.0730   36.5100 C   0  0  0  0  0  0  0  0  0  0  0  0
   35.8330   32.7410   37.1450 H   0  0  0  0  0  0  0  0  0  0  0  0
   33.8560   32.1970   36.5610 C   0  0  0  0  0  3  0  0  0  0  0  0
   33.0770   31.3750   35.7780 C   0  0  0  0  0  3  0  0  0  0  0  0
  1  2  1  0  0  0  0
  2  7  1  0  0  0  0
  3  4  1  0  0  0  0
  3  2  2  0  0  0  0
  4  5  2  0  0  0  0
  5  9  1  0  0  0  0
  5  6  1  0  0  0  0
  6 10  1  0  0  0  0
  7  6  2  0  0  0  0
  7 22  1  0  0  0  0
  8  4  1  0  0  0  0
 11 16  1  0  0  0  0
 12 13  1  0  0  0  0
 12 11  2  0  0  0  0
 13 14  2  0  0  0  0
 14 15  1  0  0  0  0
 15  3  1  0  0  0  0
 16 15  2  0  0  0  0
 17 11  1  0  0  0  0
 18 12  1  0  0  0  0
 19 13  1  0  0  0  0
 20 21  1  0  0  0  0
 21 28  1  0  0  0  0
 22 21  2  0  0  0  0
 22 23  1  0  0  0  0
 23 24  1  0  0  0  0
 23 25  2  0  0  0  0
 25 27  1  0  0  0  0
 25 26  1  0  0  0  0
 28 27  2  0  0  0  0
M  END
>  <minimizedAffinity>
-5.1255126

$$$$

 OpenBabel03272500313D

 28 30  0  0  0  0  0  0  0  0999 V2000
   38.5570   25.6510   34.5640 Cl  0  0  0  0  0  0  0  0  0  0  0  0
   37.9210   24.1580   33.9090 C   0  0  0  0  0  0  0  0  0  0  0  0
   37.4490   24.2070   32.6080 C   0  0  0  0  0  0  0  0  0  0  0  0
   36.9380   23.0300   32.0650 C   0  0  0  0  0  0  0  0  0  0  0  0
   36.9200   21.8840   32.8260 C   0  0  0  0  0  0  0  0  0  0  0  0
   37.4010   21.9020   34.1060 C   0  0  0  0  0  0  0  0  0  0  0  0
   37.9120   23.0200   34.6910 C   0  0  0  0  0  0  0  0  0  0  0  0
   36.5630   23.0230   31.0610 H   0  0  0  0  0  0  0  0  0  0  0  0
   36.5380   20.9390   32.4640 H   0  0  0  0  0  0  0  0  0  0  0  0
   37.3870   20.9920   34.7100 H   0  0  0  0  0  0  0  0  0  0  0  0
   36.3730   27.3880   31.1850 C   0  0  0  0  0  0  0  0  0  0  0  0
   37.4620   27.8150   30.4270 C   0  0  0  0  0  0  0  0  0  0  0  0
   38.5870   26.9870   30.4100 C   0  0  0  0  0  0  0  0  0  0  0  0
   38.5610   25.8190   31.1260 N   0  0  0  0  0  0  0  0  0  0  0  0
   37.4900   25.4490   31.8410 C   0  0  0  0  0  0  0  0  0  0  0  0
   36.3970   26.2420   31.8630 N   0  0  0  0  0  0  0  0  0  0  0  0
   35.4610   27.9860   31.2450 H   0  0  0  0  0  0  0  0  0  0  0  0
   37.3960   28.7500   29.8950 H   0  0  0  0  0  0  0  0  0  0  0  0
   39.4400   27.2840   29.8400 H   0  0  0  0  0  0  0  0  0  0  0  0
   40.8300   22.3090   35.2450 Cl  0  0  0  0  0  0  0  0  0  0  0  0
   39.7280   22.8220   36.4850 C   0  0  0  0  0  0  0  0  0  0  0  0
   38.4470   23.1040   36.0670 C   0  0  0  0  0  0  0  0  0  0  0  0
   37.4740   23.5210   36.9480 C   0  0  0  0  0  0  0  0  0  0  0  0
   36.4520   23.7650   36.7210 H   0  0  0  0  0  0  0  0  0  0  0  0
   37.7740   23.6650   38.2950 C   0  0  0  0  0  0  0  0  0  0  0  0
   37.0410   23.9920   39.0410 H   0  0  0  0  0  0  0  0  0  0  0  0
   39.0610   23.3840   38.7400 C   0  0  0  0  0  3  0  0  0  0  0  0
   40.0110   22.9700   37.8330 C   0  0  0  0  0  3  0  0  0  0  0  0
  2  1  1  0  0  0  0
  2  7  1  0  0  0  0
  3  2  2  0  0  0  0
  4  3  1  0  0  0  0
  4  5  2  0  0  0  0
  5  6  1  0  0  0  0
  6  7  2  0  0  0  0
  6 10  1  0  0  0  0
  7 22  1  0  0  0  0
  8  4  1  0  0  0  0
  9  5  1  0  0  0  0
 11 17  1  0  0  0  0
 11 16  1  0  0  0  0
 12 11  2  0  0  0  0
 13 12  1  0  0  0  0
 13 14  2  0  0  0  0
 14 15  1  0  0  0  0
 15 16  2  0  0  0  0
 15  3  1  0  0  0  0
 18 12  1  0  0  0  0
 19 13  1  0  0  0  0
 20 21  1  0  0  0  0
 21 28  1  0  0  0  0
 22 21  2  0  0  0  0
 22 23  1  0  0  0  0
 23 25  2  0  0  0  0
 24 23  1  0  0  0  0
 25 27  1  0  0  0  0
 25 26  1  0  0  0  0
 28 27  2  0  0  0  0
M  END
>  <minimizedAffinity>
-5.05427647

$$$$

 OpenBabel03272500313D

 28 30  0  0  0  0  0  0  0  0999 V2000
   40.5050   24.9730   34.1870 Cl  0  0  0  0  0  0  0  0  0  0  0  0
   39.6000   24.3390   35.5450 C   0  0  0  0  0  0  0  0  0  0  0  0
   40.2480   23.4030   36.3340 C   0  0  0  0  0  0  0  0  0  0  0  0
   39.5480   22.8840   37.4210 C   0  0  0  0  0  0  0  0  0  0  0  0
   38.2640   23.3110   37.6670 C   0  0  0  0  0  0  0  0  0  0  0  0
   37.6800   24.2380   36.8490 C   0  0  0  0  0  0  0  0  0  0  0  0
   38.3130   24.7810   35.7730 C   0  0  0  0  0  0  0  0  0  0  0  0
   40.0120   22.1570   38.0570 H   0  0  0  0  0  0  0  0  0  0  0  0
   37.6680   22.9480   38.4930 H   0  0  0  0  0  0  0  0  0  0  0  0
   36.6600   24.5770   37.0440 H   0  0  0  0  0  0  0  0  0  0  0  0
   43.0010   21.5040   34.8780 C   0  0  0  0  0  0  0  0  0  0  0  0
   44.1480   22.1060   35.3930 C   0  0  0  0  0  0  0  0  0  0  0  0
   43.9640   23.1860   36.2580 C   0  0  0  0  0  0  0  0  0  0  0  0
   42.6880   23.5910   36.5500 N   0  0  0  0  0  0  0  0  0  0  0  0
   41.6130   22.9820   36.0300 C   0  0  0  0  0  0  0  0  0  0  0  0
   41.7810   21.9350   35.1940 N   0  0  0  0  0  0  0  0  0  0  0  0
   43.0700   20.6540   34.1960 H   0  0  0  0  0  0  0  0  0  0  0  0
   45.1140   21.7210   35.1090 H   0  0  0  0  0  0  0  0  0  0  0  0
   44.8210   23.6720   36.6710 H   0  0  0  0  0  0  0  0  0  0  0  0
   37.4080   23.9560   32.9750 Cl  0  0  0  0  0  0  0  0  0  0  0  0
   37.2850   25.5830   33.5690 C   0  0  0  0  0  0  0  0  0  0  0  0
   37.7380   25.7860   34.8530 C   0  0  0  0  0  0  0  0  0  0  0  0
   37.6990   27.0300   35.4450 C   0  0  0  0  0  0  0  0  0  0  0  0
   38.0260   27.2890   36.4350 H   0  0  0  0  0  0  0  0  0  0  0  0
   37.1920   28.1150   34.7450 C   0  0  0  0  0  0  0  0  0  0  0  0
   37.1360   29.1260   35.1650 H   0  0  0  0  0  0  0  0  0  0  0  0
   36.7300   27.9320   33.4460 C   0  0  0  0  0  3  0  0  0  0  0  0
   36.7830   26.6770   32.8830 C   0  0  0  0  0  3  0  0  0  0  0  0
  1  2  1  0  0  0  0
  2  7  2  0  0  0  0
  2  3  1  0  0  0  0
  3  4  2  0  0  0  0
  4  5  1  0  0  0  0
  4  8  1  0  0  0  0
  5  9  1  0  0  0  0
  6 10  1  0  0  0  0
  6  5  2  0  0  0  0
  7  6  1  0  0  0  0
 11 16  2  0  0  0  0
 11 12  1  0  0  0  0
 12 13  2  0  0  0  0
 13 14  1  0  0  0  0
 13 19  1  0  0  0  0
 15  3  1  0  0  0  0
 15 14  2  0  0  0  0
 16 15  1  0  0  0  0
 17 11  1  0  0  0  0
 18 12  1  0  0  0  0
 20 21  1  0  0  0  0
 21 22  1  0  0  0  0
 22 23  2  0  0  0  0
 22  7  1  0  0  0  0
 23 24  1  0  0  0  0
 25 26  1  0  0  0  0
 25 23  1  0  0  0  0
 27 25  2  0  0  0  0
 28 27  1  0  0  0  0
 28 21  2  0  0  0  0
M  END
>  <minimizedAffinity>
-5.02412462

$$$$

 OpenBabel03272500313D

 28 30  0  0  0  0  0  0  0  0999 V2000
   38.6000   22.0140   33.1740 Cl  0  0  0  0  0  0  0  0  0  0  0  0
   37.3190   22.9580   32.4440 C   0  0  0  0  0  0  0  0  0  0  0  0
   37.4180   24.3340   32.5720 C   0  0  0  0  0  0  0  0  0  0  0  0
   36.4110   25.1060   31.9990 C   0  0  0  0  0  0  0  0  0  0  0  0
   35.3740   24.4880   31.3390 C   0  0  0  0  0  0  0  0  0  0  0  0
   35.3350   23.1240   31.2480 C   0  0  0  0  0  0  0  0  0  0  0  0
   36.2890   22.3160   31.7870 C   0  0  0  0  0  0  0  0  0  0  0  0
   36.4480   26.1750   32.0740 H   0  0  0  0  0  0  0  0  0  0  0  0
   34.5620   25.0290   30.8730 H   0  0  0  0  0  0  0  0  0  0  0  0
   34.5120   22.6330   30.7240 H   0  0  0  0  0  0  0  0  0  0  0  0
   40.7150   25.7730   33.1730 C   0  0  0  0  0  0  0  0  0  0  0  0
   40.7130   26.0920   34.5300 C   0  0  0  0  0  0  0  0  0  0  0  0
   39.5500   25.8020   35.2470 C   0  0  0  0  0  0  0  0  0  0  0  0
   38.4910   25.2310   34.5910 N   0  0  0  0  0  0  0  0  0  0  0  0
   38.5390   24.9430   33.2830 C   0  0  0  0  0  0  0  0  0  0  0  0
   39.6590   25.2180   32.5810 N   0  0  0  0  0  0  0  0  0  0  0  0
   41.5900   25.9720   32.5500 H   0  0  0  0  0  0  0  0  0  0  0  0
   41.5910   26.5400   34.9640 H   0  0  0  0  0  0  0  0  0  0  0  0
   39.5130   26.0330   36.2890 H   0  0  0  0  0  0  0  0  0  0  0  0
   35.4520   20.6680   34.2190 Cl  0  0  0  0  0  0  0  0  0  0  0  0
   35.9600   19.9540   32.7190 C   0  0  0  0  0  0  0  0  0  0  0  0
   36.3040   20.8390   31.7220 C   0  0  0  0  0  0  0  0  0  0  0  0
   36.7250   20.4060   30.4840 C   0  0  0  0  0  0  0  0  0  0  0  0
   37.0130   21.0130   29.6460 H   0  0  0  0  0  0  0  0  0  0  0  0
   36.8100   19.0470   30.2180 C   0  0  0  0  0  0  0  0  0  0  0  0
   37.1380   18.6440   29.2520 H   0  0  0  0  0  0  0  0  0  0  0  0
   36.4680   18.1350   31.2110 C   0  0  0  0  0  3  0  0  0  0  0  0
   36.0510   18.6010   32.4380 C   0  0  0  0  0  3  0  0  0  0  0  0
  2  3  1  0  0  0  0
  2  1  1  0  0  0  0
  3 15  1  0  0  0  0
  4  8  1  0  0  0  0
  4  3  2  0  0  0  0
  5  4  1  0  0  0  0
  6  5  2  0  0  0  0
  6  7  1  0  0  0  0
  7  2  2  0  0  0  0
  9  5  1  0  0  0  0
 10  6  1  0  0  0  0
 11 12  1  0  0  0  0
 12 18  1  0  0  0  0
 12 13  2  0  0  0  0
 13 19  1  0  0  0  0
 14 13  1  0  0  0  0
 15 14  2  0  0  0  0
 16 11  2  0  0  0  0
 16 15  1  0  0  0  0
 17 11  1  0  0  0  0
 21 20  1  0  0  0  0
 22  7  1  0  0  0  0
 22 21  2  0  0  0  0
 23 22  1  0  0  0  0
 24 23  1  0  0  0  0
 25 23  2  0  0  0  0
 25 27  1  0  0  0  0
 26 25  1  0  0  0  0
 27 28  2  0  0  0  0
 28 21  1  0  0  0  0
M  END
>  <minimizedAffinity>
-4.95041084

$$$$

 OpenBabel03272500313D

 28 30  0  0  0  0  0  0  0  0999 V2000
   39.2420   25.5060   34.4750 Cl  0  0  0  0  0  0  0  0  0  0  0  0
   38.2910   24.2140   33.7750 C   0  0  0  0  0  0  0  0  0  0  0  0
   37.4970   24.5500   32.6910 C   0  0  0  0  0  0  0  0  0  0  0  0
   36.7310   23.5380   32.1170 C   0  0  0  0  0  0  0  0  0  0  0  0
   36.7890   22.2650   32.6370 C   0  0  0  0  0  0  0  0  0  0  0  0
   37.5930   21.9990   33.7100 C   0  0  0  0  0  0  0  0  0  0  0  0
   38.3640   22.9450   34.3130 C   0  0  0  0  0  0  0  0  0  0  0  0
   36.1030   23.7550   31.2760 H   0  0  0  0  0  0  0  0  0  0  0  0
   36.2200   21.4370   32.2380 H   0  0  0  0  0  0  0  0  0  0  0  0
   37.6390   20.9880   34.1240 H   0  0  0  0  0  0  0  0  0  0  0  0
   38.3300   27.4550   30.6490 C   0  0  0  0  0  0  0  0  0  0  0  0
   37.5000   28.4670   31.1300 C   0  0  0  0  0  0  0  0  0  0  0  0
   36.6400   28.1360   32.1790 C   0  0  0  0  0  0  0  0  0  0  0  0
   36.6550   26.8570   32.6710 N   0  0  0  0  0  0  0  0  0  0  0  0
   37.4710   25.9160   32.1750 C   0  0  0  0  0  0  0  0  0  0  0  0
   38.3070   26.2270   31.1620 N   0  0  0  0  0  0  0  0  0  0  0  0
   39.0280   27.6420   29.8290 H   0  0  0  0  0  0  0  0  0  0  0  0
   37.5550   29.4460   30.6830 H   0  0  0  0  0  0  0  0  0  0  0  0
   35.9900   28.8870   32.5720 H   0  0  0  0  0  0  0  0  0  0  0  0
   37.4060   23.6280   37.1320 Cl  0  0  0  0  0  0  0  0  0  0  0  0
   38.9790   22.9720   36.7990 C   0  0  0  0  0  0  0  0  0  0  0  0
   39.2530   22.7200   35.4730 C   0  0  0  0  0  0  0  0  0  0  0  0
   40.4640   22.2000   35.0720 C   0  0  0  0  0  0  0  0  0  0  0  0
   40.7720   21.9700   34.0680 H   0  0  0  0  0  0  0  0  0  0  0  0
   41.4430   21.9170   36.0120 C   0  0  0  0  0  0  0  0  0  0  0  0
   42.4230   21.5020   35.7520 H   0  0  0  0  0  0  0  0  0  0  0  0
   41.1880   22.1640   37.3570 C   0  0  0  0  0  3  0  0  0  0  0  0
   39.9670   22.6840   37.7260 C   0  0  0  0  0  3  0  0  0  0  0  0
  2  7  1  0  0  0  0
  2  1  1  0  0  0  0
  3  2  2  0  0  0  0
  4  5  2  0  0  0  0
  4  3  1  0  0  0  0
  5  6  1  0  0  0  0
  6 10  1  0  0  0  0
  6  7  2  0  0  0  0
  7 22  1  0  0  0  0
  8  4  1  0  0  0  0
  9  5  1  0  0  0  0
 11 12  2  0  0  0  0
 11 16  1  0  0  0  0
 12 13  1  0  0  0  0
 13 19  1  0  0  0  0
 13 14  2  0  0  0  0
 15 14  1  0  0  0  0
 15  3  1  0  0  0  0
 16 15  2  0  0  0  0
 17 11  1  0  0  0  0
 18 12  1  0  0  0  0
 21 20  1  0  0  0  0
 21 28  1  0  0  0  0
 22 21  2  0  0  0  0
 23 22  1  0  0  0  0
 23 25  2  0  0  0  0
 24 23  1  0  0  0  0
 25 27  1  0  0  0  0
 26 25  1  0  0  0  0
 27 28  2  0  0  0  0
M  END
>  <minimizedAffinity>
-4.93442488

$$$$
