
 OpenBabel03272508313D

 32 34  0  0  1  0  0  0  0  0999 V2000
   36.8860   24.5720   31.8440 N   0  0  0  0  0  0  0  0  0  0  0  0
   35.5570   24.1510   31.3940 C   0  0  0  0  0  0  0  0  0  0  0  0
   34.7640   25.2490   30.7930 C   0  0  0  0  0  0  0  0  0  0  0  0
   35.6500   26.2690   30.2840 N   0  0  0  0  0  0  0  0  0  0  0  0
   36.2420   26.8990   31.4580 C   0  0  0  0  0  0  0  0  0  0  0  0
   37.3020   25.9490   31.9070 C   0  0  1  0  0  0  0  0  0  0  0  0
   35.7400   23.4120   30.5700 H   0  0  0  0  0  0  0  0  0  0  0  0
   34.9750   23.6530   32.1980 H   0  0  0  0  0  0  0  0  0  0  0  0
   34.1560   24.8880   29.9330 H   0  0  0  0  0  0  0  0  0  0  0  0
   34.0800   25.6460   31.5940 H   0  0  0  0  0  0  0  0  0  0  0  0
   35.0350   26.9820   29.8120 H   0  0  0  0  0  0  0  0  0  0  0  0
   36.6840   27.8750   31.1820 H   0  0  0  0  0  0  0  0  0  0  0  0
   35.4270   27.0190   32.2260 H   0  0  0  0  0  0  0  0  0  0  0  0
   38.1130   26.0310   31.1160 H   0  0  0  0  0  0  0  0  0  0  0  0
   37.5950   22.8050   33.4040 C   0  0  0  0  0  0  0  0  0  0  0  0
   37.8030   23.5690   32.2320 C   0  0  0  0  0  0  0  0  0  0  0  0
   38.9420   23.2820   31.4990 C   0  0  0  0  0  0  0  0  0  0  0  0
   39.7840   22.2970   31.9360 N   0  0  0  0  0  0  0  0  0  0  0  0
   39.5380   21.6070   33.0500 C   0  0  0  0  0  0  0  0  0  0  0  0
   38.4360   21.8420   33.8150 N   0  0  0  0  0  0  0  0  0  0  0  0
   36.7010   23.0220   33.9900 H   0  0  0  0  0  0  0  0  0  0  0  0
   39.1220   23.8480   30.6050 H   0  0  0  0  0  0  0  0  0  0  0  0
   40.2340   20.8310   33.3640 H   0  0  0  0  0  0  0  0  0  0  0  0
   40.3110   26.6010   31.8940 Cl  0  0  0  0  0  0  0  0  0  0  0  0
   39.2940   26.6660   33.2900 C   0  0  0  0  0  0  0  0  0  0  0  0
   37.9590   26.3430   33.1650 C   0  0  0  0  0  0  0  0  0  0  0  0
   37.2640   26.4340   34.3790 C   0  0  0  0  0  0  0  0  0  0  0  0
   36.1910   26.1950   34.3820 H   0  0  0  0  0  0  0  0  0  0  0  0
   37.7990   26.7980   35.5900 C   0  0  0  0  0  0  0  0  0  0  0  0
   37.2030   26.8430   36.4690 H   0  0  0  0  0  0  0  0  0  0  0  0
   39.1400   27.1050   35.6230 C   0  0  0  0  0  3  0  0  0  0  0  0
   39.9000   27.0400   34.4720 C   0  0  0  0  0  3  0  0  0  0  0  0
  1  6  1  0  0  0  0
  1 16  1  0  0  0  0
  2  1  1  0  0  0  0
  2  8  1  0  0  0  0
  3  2  1  0  0  0  0
  3 10  1  0  0  0  0
  4  3  1  0  0  0  0
  4  5  1  0  0  0  0
  5  6  1  0  0  0  0
  5 13  1  0  0  0  0
  6 14  1  6  0  0  0
  6 26  1  0  0  0  0
  7  2  1  0  0  0  0
  9  3  1  0  0  0  0
 11  4  1  0  0  0  0
 12  5  1  0  0  0  0
 15 20  1  0  0  0  0
 15 21  1  0  0  0  0
 16 15  2  0  0  0  0
 17 18  2  0  0  0  0
 17 16  1  0  0  0  0
 18 19  1  0  0  0  0
 19 23  1  0  0  0  0
 19 20  2  0  0  0  0
 22 17  1  0  0  0  0
 24 25  1  0  0  0  0
 25 32  1  0  0  0  0
 26 25  2  0  0  0  0
 26 27  1  0  0  0  0
 27 28  1  0  0  0  0
 27 29  2  0  0  0  0
 29 31  1  0  0  0  0
 29 30  1  0  0  0  0
 32 31  2  0  0  0  0
M  END
>  <minimizedAffinity>
-4.91500759

$$$$

 OpenBabel03272508313D

 32 34  0  0  1  0  0  0  0  0999 V2000
   40.7820   24.9860   34.2230 N   0  0  0  0  0  0  0  0  0  0  0  0
   42.0150   24.4480   33.6430 C   0  0  0  0  0  0  0  0  0  0  0  0
   43.0820   25.4630   33.4820 C   0  0  0  0  0  0  0  0  0  0  0  0
   42.8770   26.5400   34.4200 N   0  0  0  0  0  0  0  0  0  0  0  0
   41.6860   27.2430   33.9600 C   0  0  0  0  0  0  0  0  0  0  0  0
   40.5440   26.3940   34.4090 C   0  0  1  0  0  0  0  0  0  0  0  0
   42.4010   23.7070   34.3930 H   0  0  0  0  0  0  0  0  0  0  0  0
   41.8370   23.9220   32.6810 H   0  0  0  0  0  0  0  0  0  0  0  0
   44.0880   25.0330   33.6940 H   0  0  0  0  0  0  0  0  0  0  0  0
   43.0460   25.8200   32.4140 H   0  0  0  0  0  0  0  0  0  0  0  0
   43.6980   27.1890   34.3040 H   0  0  0  0  0  0  0  0  0  0  0  0
   41.6340   28.2460   34.4240 H   0  0  0  0  0  0  0  0  0  0  0  0
   41.7450   27.3130   32.8360 H   0  0  0  0  0  0  0  0  0  0  0  0
   40.5180   26.5240   35.5370 H   0  0  0  0  0  0  0  0  0  0  0  0
   39.5570   23.7830   35.9860 C   0  0  0  0  0  0  0  0  0  0  0  0
   39.7810   24.0710   34.6200 C   0  0  0  0  0  0  0  0  0  0  0  0
   38.9750   23.4120   33.7070 C   0  0  0  0  0  0  0  0  0  0  0  0
   38.0270   22.5400   34.1640 N   0  0  0  0  0  0  0  0  0  0  0  0
   37.8590   22.3060   35.4660 C   0  0  0  0  0  0  0  0  0  0  0  0
   38.6190   22.9220   36.4130 N   0  0  0  0  0  0  0  0  0  0  0  0
   40.1860   24.2960   36.7150 H   0  0  0  0  0  0  0  0  0  0  0  0
   39.1260   23.6150   32.6630 H   0  0  0  0  0  0  0  0  0  0  0  0
   37.0920   21.6040   35.7900 H   0  0  0  0  0  0  0  0  0  0  0  0
   38.3710   27.0820   36.4790 Cl  0  0  0  0  0  0  0  0  0  0  0  0
   38.1790   27.2150   34.7660 C   0  0  0  0  0  0  0  0  0  0  0  0
   39.2300   26.8690   33.9430 C   0  0  0  0  0  0  0  0  0  0  0  0
   38.9260   27.0220   32.5830 C   0  0  0  0  0  0  0  0  0  0  0  0
   39.7020   26.7700   31.8460 H   0  0  0  0  0  0  0  0  0  0  0  0
   37.7320   27.4630   32.0670 C   0  0  0  0  0  0  0  0  0  0  0  0
   37.5790   27.5510   31.0190 H   0  0  0  0  0  0  0  0  0  0  0  0
   36.7380   27.7870   32.9620 C   0  0  0  0  0  3  0  0  0  0  0  0
   36.9530   27.6650   34.3210 C   0  0  0  0  0  3  0  0  0  0  0  0
  1  6  1  0  0  0  0
  1 16  1  0  0  0  0
  2  1  1  0  0  0  0
  2  7  1  0  0  0  0
  3  2  1  0  0  0  0
  3  9  1  0  0  0  0
  3  4  1  0  0  0  0
  5  6  1  0  0  0  0
  5  4  1  0  0  0  0
  5 12  1  0  0  0  0
  6 14  1  1  0  0  0
  8  2  1  0  0  0  0
 10  3  1  0  0  0  0
 11  4  1  0  0  0  0
 13  5  1  0  0  0  0
 15 20  1  0  0  0  0
 15 21  1  0  0  0  0
 16 15  2  0  0  0  0
 17 18  2  0  0  0  0
 17 16  1  0  0  0  0
 18 19  1  0  0  0  0
 19 23  1  0  0  0  0
 19 20  2  0  0  0  0
 22 17  1  0  0  0  0
 25 24  1  0  0  0  0
 26  6  1  0  0  0  0
 26 25  2  0  0  0  0
 27 26  1  0  0  0  0
 28 27  1  0  0  0  0
 29 27  2  0  0  0  0
 29 31  1  0  0  0  0
 30 29  1  0  0  0  0
 31 32  2  0  0  0  0
 32 25  1  0  0  0  0
M  END
>  <minimizedAffinity>
-4.73251724

$$$$

 OpenBabel03272508313D

 32 34  0  0  1  0  0  0  0  0999 V2000
   40.7630   24.8560   34.4020 N   0  0  0  0  0  0  0  0  0  0  0  0
   41.9240   24.2890   33.7120 C   0  0  0  0  0  0  0  0  0  0  0  0
   43.0280   25.2590   33.5240 C   0  0  0  0  0  0  0  0  0  0  0  0
   42.9430   26.2970   34.5230 N   0  0  0  0  0  0  0  0  0  0  0  0
   41.7600   27.0780   34.1810 C   0  0  0  0  0  0  0  0  0  0  0  0
   40.6090   26.2630   34.6700 C   0  0  1  0  0  0  0  0  0  0  0  0
   42.3210   23.4950   34.3980 H   0  0  0  0  0  0  0  0  0  0  0  0
   41.6540   23.8210   32.7420 H   0  0  0  0  0  0  0  0  0  0  0  0
   44.0230   24.7720   33.6450 H   0  0  0  0  0  0  0  0  0  0  0  0
   42.9380   25.6700   32.4790 H   0  0  0  0  0  0  0  0  0  0  0  0
   43.7860   26.9110   34.3800 H   0  0  0  0  0  0  0  0  0  0  0  0
   41.7910   28.0580   34.6930 H   0  0  0  0  0  0  0  0  0  0  0  0
   41.7470   27.2010   33.0600 H   0  0  0  0  0  0  0  0  0  0  0  0
   40.6670   26.3380   35.8010 H   0  0  0  0  0  0  0  0  0  0  0  0
   39.5070   23.7380   36.2000 C   0  0  0  0  0  0  0  0  0  0  0  0
   39.7450   23.9710   34.8250 C   0  0  0  0  0  0  0  0  0  0  0  0
   38.9360   23.2910   33.9310 C   0  0  0  0  0  0  0  0  0  0  0  0
   37.9720   22.4510   34.4140 N   0  0  0  0  0  0  0  0  0  0  0  0
   37.7910   22.2670   35.7220 C   0  0  0  0  0  0  0  0  0  0  0  0
   38.5540   22.9070   36.6520 N   0  0  0  0  0  0  0  0  0  0  0  0
   40.1390   24.2680   36.9140 H   0  0  0  0  0  0  0  0  0  0  0  0
   39.0970   23.4520   32.8820 H   0  0  0  0  0  0  0  0  0  0  0  0
   37.0120   21.5890   36.0660 H   0  0  0  0  0  0  0  0  0  0  0  0
   39.7930   26.4440   31.7070 Cl  0  0  0  0  0  0  0  0  0  0  0  0
   38.8080   26.9510   33.0340 C   0  0  0  0  0  0  0  0  0  0  0  0
   39.2930   26.8230   34.3190 C   0  0  0  0  0  0  0  0  0  0  0  0
   38.3890   27.2810   35.2870 C   0  0  0  0  0  0  0  0  0  0  0  0
   38.6850   27.2200   36.3440 H   0  0  0  0  0  0  0  0  0  0  0  0
   37.1450   27.8090   35.0450 C   0  0  0  0  0  0  0  0  0  0  0  0
   36.5160   28.1360   35.8370 H   0  0  0  0  0  0  0  0  0  0  0  0
   36.7410   27.9000   33.7320 C   0  0  0  0  0  3  0  0  0  0  0  0
   37.5710   27.4720   32.7140 C   0  0  0  0  0  3  0  0  0  0  0  0
  1  6  1  0  0  0  0
  1 16  1  0  0  0  0
  2  7  1  0  0  0  0
  2  1  1  0  0  0  0
  3  9  1  0  0  0  0
  3  2  1  0  0  0  0
  3  4  1  0  0  0  0
  5  4  1  0  0  0  0
  5  6  1  0  0  0  0
  5 12  1  0  0  0  0
  6 14  1  1  0  0  0
  8  2  1  0  0  0  0
 10  3  1  0  0  0  0
 11  4  1  0  0  0  0
 13  5  1  0  0  0  0
 15 20  1  0  0  0  0
 15 21  1  0  0  0  0
 16 15  2  0  0  0  0
 17 18  2  0  0  0  0
 17 16  1  0  0  0  0
 18 19  1  0  0  0  0
 19 23  1  0  0  0  0
 19 20  2  0  0  0  0
 22 17  1  0  0  0  0
 24 25  1  0  0  0  0
 25 26  1  0  0  0  0
 26  6  1  0  0  0  0
 26 27  2  0  0  0  0
 27 28  1  0  0  0  0
 29 27  1  0  0  0  0
 29 30  1  0  0  0  0
 31 29  2  0  0  0  0
 32 25  2  0  0  0  0
 32 31  1  0  0  0  0
M  END
>  <minimizedAffinity>
-4.68684673

$$$$

 OpenBabel03272508313D

 32 34  0  0  1  0  0  0  0  0999 V2000
   40.5750   23.8100   35.4360 N   0  0  0  0  0  0  0  0  0  0  0  0
   41.3530   23.1860   36.5090 C   0  0  0  0  0  0  0  0  0  0  0  0
   40.5370   22.3480   37.4180 C   0  0  0  0  0  0  0  0  0  0  0  0
   39.3510   21.8950   36.7310 N   0  0  0  0  0  0  0  0  0  0  0  0
   38.5230   23.0810   36.5480 C   0  0  0  0  0  0  0  0  0  0  0  0
   39.1360   23.8000   35.3930 C   0  0  1  0  0  0  0  0  0  0  0  0
   42.0640   22.4860   35.9950 H   0  0  0  0  0  0  0  0  0  0  0  0
   41.9400   23.9270   37.0920 H   0  0  0  0  0  0  0  0  0  0  0  0
   41.0930   21.4390   37.7420 H   0  0  0  0  0  0  0  0  0  0  0  0
   40.2880   22.9760   38.3200 H   0  0  0  0  0  0  0  0  0  0  0  0
   38.8520   21.2540   37.4010 H   0  0  0  0  0  0  0  0  0  0  0  0
   37.4820   22.7850   36.3170 H   0  0  0  0  0  0  0  0  0  0  0  0
   38.5770   23.6830   37.4990 H   0  0  0  0  0  0  0  0  0  0  0  0
   38.8890   23.1540   34.4920 H   0  0  0  0  0  0  0  0  0  0  0  0
   42.0730   25.5940   34.6410 C   0  0  0  0  0  0  0  0  0  0  0  0
   41.2800   24.4500   34.3910 C   0  0  0  0  0  0  0  0  0  0  0  0
   41.2340   24.0010   33.0820 C   0  0  0  0  0  0  0  0  0  0  0  0
   41.9420   24.6710   32.1240 N   0  0  0  0  0  0  0  0  0  0  0  0
   42.6740   25.7470   32.4160 C   0  0  0  0  0  0  0  0  0  0  0  0
   42.7600   26.2380   33.6840 N   0  0  0  0  0  0  0  0  0  0  0  0
   42.1160   25.9570   35.6690 H   0  0  0  0  0  0  0  0  0  0  0  0
   40.6380   23.1340   32.8670 H   0  0  0  0  0  0  0  0  0  0  0  0
   43.2240   26.2530   31.6240 H   0  0  0  0  0  0  0  0  0  0  0  0
   37.5420   24.1660   32.7840 Cl  0  0  0  0  0  0  0  0  0  0  0  0
   37.7710   25.3930   33.9800 C   0  0  0  0  0  0  0  0  0  0  0  0
   38.5130   25.1040   35.1060 C   0  0  0  0  0  0  0  0  0  0  0  0
   38.6180   26.1940   35.9810 C   0  0  0  0  0  0  0  0  0  0  0  0
   39.1920   26.0630   36.9090 H   0  0  0  0  0  0  0  0  0  0  0  0
   38.0640   27.4370   35.7920 C   0  0  0  0  0  0  0  0  0  0  0  0
   38.1900   28.2150   36.5040 H   0  0  0  0  0  0  0  0  0  0  0  0
   37.3380   27.6370   34.6400 C   0  0  0  0  0  3  0  0  0  0  0  0
   37.1860   26.6150   33.7230 C   0  0  0  0  0  3  0  0  0  0  0  0
  1  2  1  0  0  0  0
  2  8  1  0  0  0  0
  2  3  1  0  0  0  0
  3  9  1  0  0  0  0
  3 10  1  0  0  0  0
  4 11  1  0  0  0  0
  4  3  1  0  0  0  0
  5  4  1  0  0  0  0
  5 13  1  0  0  0  0
  6 14  1  6  0  0  0
  6  1  1  0  0  0  0
  6  5  1  0  0  0  0
  7  2  1  0  0  0  0
 12  5  1  0  0  0  0
 15 21  1  0  0  0  0
 16 15  1  0  0  0  0
 16  1  1  0  0  0  0
 17 16  2  0  0  0  0
 18 19  2  0  0  0  0
 18 17  1  0  0  0  0
 19 20  1  0  0  0  0
 20 15  2  0  0  0  0
 22 17  1  0  0  0  0
 23 19  1  0  0  0  0
 24 25  1  0  0  0  0
 25 26  1  0  0  0  0
 26  6  1  0  0  0  0
 26 27  2  0  0  0  0
 27 28  1  0  0  0  0
 29 27  1  0  0  0  0
 29 30  1  0  0  0  0
 31 29  2  0  0  0  0
 32 25  2  0  0  0  0
 32 31  1  0  0  0  0
M  END
>  <minimizedAffinity>
-4.67198563

$$$$

 OpenBabel03272508313D

 32 34  0  0  1  0  0  0  0  0999 V2000
   40.2830   25.3540   34.6870 N   0  0  0  0  0  0  0  0  0  0  0  0
   41.7090   25.0940   34.8970 C   0  0  0  0  0  0  0  0  0  0  0  0
   42.5900   26.1310   34.3100 C   0  0  0  0  0  0  0  0  0  0  0  0
   41.8690   27.3760   34.1940 N   0  0  0  0  0  0  0  0  0  0  0  0
   40.8760   27.1600   33.1480 C   0  0  0  0  0  0  0  0  0  0  0  0
   39.7870   26.3830   33.8110 C   0  0  1  0  0  0  0  0  0  0  0  0
   41.8630   25.1480   36.0080 H   0  0  0  0  0  0  0  0  0  0  0  0
   42.0130   24.0860   34.5430 H   0  0  0  0  0  0  0  0  0  0  0  0
   43.4750   26.3260   34.9570 H   0  0  0  0  0  0  0  0  0  0  0  0
   42.9360   25.7480   33.3080 H   0  0  0  0  0  0  0  0  0  0  0  0
   42.5620   28.0830   33.8380 H   0  0  0  0  0  0  0  0  0  0  0  0
   40.4950   28.1320   32.7810 H   0  0  0  0  0  0  0  0  0  0  0  0
   41.3720   26.5750   32.3240 H   0  0  0  0  0  0  0  0  0  0  0  0
   39.2900   27.1280   34.5100 H   0  0  0  0  0  0  0  0  0  0  0  0
   39.2830   23.1570   35.1660 C   0  0  0  0  0  0  0  0  0  0  0  0
   39.3530   24.5520   35.3860 C   0  0  0  0  0  0  0  0  0  0  0  0
   38.4680   25.0790   36.3120 C   0  0  0  0  0  0  0  0  0  0  0  0
   37.5960   24.2420   36.9490 N   0  0  0  0  0  0  0  0  0  0  0  0
   37.5730   22.9320   36.7030 C   0  0  0  0  0  0  0  0  0  0  0  0
   38.4170   22.3530   35.8040 N   0  0  0  0  0  0  0  0  0  0  0  0
   39.9750   22.7300   34.4380 H   0  0  0  0  0  0  0  0  0  0  0  0
   38.5020   26.1360   36.4970 H   0  0  0  0  0  0  0  0  0  0  0  0
   36.8630   22.2990   37.2320 H   0  0  0  0  0  0  0  0  0  0  0  0
   36.9550   27.5450   34.1470 Cl  0  0  0  0  0  0  0  0  0  0  0  0
   37.4150   26.4040   32.9320 C   0  0  0  0  0  0  0  0  0  0  0  0
   38.7190   25.9540   32.8910 C   0  0  0  0  0  0  0  0  0  0  0  0
   38.9410   25.0310   31.8600 C   0  0  0  0  0  0  0  0  0  0  0  0
   39.9510   24.6130   31.7460 H   0  0  0  0  0  0  0  0  0  0  0  0
   38.0040   24.5850   30.9600 C   0  0  0  0  0  0  0  0  0  0  0  0
   38.2520   23.8800   30.2050 H   0  0  0  0  0  0  0  0  0  0  0  0
   36.7280   25.0870   31.0740 C   0  0  0  0  0  3  0  0  0  0  0  0
   36.4220   26.0020   32.0630 C   0  0  0  0  0  3  0  0  0  0  0  0
  1  2  1  0  0  0  0
  1 16  1  0  0  0  0
  2  7  1  0  0  0  0
  3  2  1  0  0  0  0
  3  9  1  0  0  0  0
  4  3  1  0  0  0  0
  5  6  1  0  0  0  0
  5  4  1  0  0  0  0
  6 14  1  1  0  0  0
  6  1  1  0  0  0  0
  8  2  1  0  0  0  0
 10  3  1  0  0  0  0
 11  4  1  0  0  0  0
 12  5  1  0  0  0  0
 13  5  1  0  0  0  0
 15 16  2  0  0  0  0
 15 20  1  0  0  0  0
 16 17  1  0  0  0  0
 17 22  1  0  0  0  0
 17 18  2  0  0  0  0
 19 18  1  0  0  0  0
 19 23  1  0  0  0  0
 20 19  2  0  0  0  0
 21 15  1  0  0  0  0
 25 24  1  0  0  0  0
 26 25  1  0  0  0  0
 26  6  1  0  0  0  0
 27 26  2  0  0  0  0
 28 27  1  0  0  0  0
 29 31  2  0  0  0  0
 29 27  1  0  0  0  0
 30 29  1  0  0  0  0
 31 32  1  0  0  0  0
 32 25  2  0  0  0  0
M  END
>  <minimizedAffinity>
-4.52038479

$$$$

 OpenBabel03272508313D

 32 34  0  0  1  0  0  0  0  0999 V2000
   40.3090   22.2360   35.2140 N   0  0  0  0  0  0  0  0  0  0  0  0
   41.5030   21.4290   35.4730 C   0  0  0  0  0  0  0  0  0  0  0  0
   41.8660   21.3580   36.9080 C   0  0  0  0  0  0  0  0  0  0  0  0
   40.6960   21.5940   37.7200 N   0  0  0  0  0  0  0  0  0  0  0  0
   40.3640   23.0020   37.5360 C   0  0  0  0  0  0  0  0  0  0  0  0
   39.6790   23.0620   36.2110 C   0  0  1  0  0  0  0  0  0  0  0  0
   41.2300   20.3840   35.1700 H   0  0  0  0  0  0  0  0  0  0  0  0
   42.3770   21.7590   34.8720 H   0  0  0  0  0  0  0  0  0  0  0  0
   42.2540   20.3510   37.1810 H   0  0  0  0  0  0  0  0  0  0  0  0
   42.6670   22.1290   37.0890 H   0  0  0  0  0  0  0  0  0  0  0  0
   41.0020   21.4640   38.7190 H   0  0  0  0  0  0  0  0  0  0  0  0
   39.6870   23.3400   38.3420 H   0  0  0  0  0  0  0  0  0  0  0  0
   41.3300   23.5810   37.5400 H   0  0  0  0  0  0  0  0  0  0  0  0
   38.6730   22.5660   36.3870 H   0  0  0  0  0  0  0  0  0  0  0  0
   38.4260   21.7440   33.7060 C   0  0  0  0  0  0  0  0  0  0  0  0
   39.7500   22.1950   33.9160 C   0  0  0  0  0  0  0  0  0  0  0  0
   40.4570   22.5880   32.7920 C   0  0  0  0  0  0  0  0  0  0  0  0
   39.8510   22.5210   31.5690 N   0  0  0  0  0  0  0  0  0  0  0  0
   38.5980   22.0860   31.4290 C   0  0  0  0  0  0  0  0  0  0  0  0
   37.8510   21.6860   32.4940 N   0  0  0  0  0  0  0  0  0  0  0  0
   37.8590   21.4320   34.5850 H   0  0  0  0  0  0  0  0  0  0  0  0
   41.4640   22.9350   32.9260 H   0  0  0  0  0  0  0  0  0  0  0  0
   38.1520   22.0480   30.4360 H   0  0  0  0  0  0  0  0  0  0  0  0
   41.9420   24.8960   35.2120 Cl  0  0  0  0  0  0  0  0  0  0  0  0
   40.2740   25.3440   35.2980 C   0  0  0  0  0  0  0  0  0  0  0  0
   39.3560   24.4300   35.7710 C   0  0  0  0  0  0  0  0  0  0  0  0
   38.0490   24.9360   35.7890 C   0  0  0  0  0  0  0  0  0  0  0  0
   37.2430   24.2820   36.1510 H   0  0  0  0  0  0  0  0  0  0  0  0
   37.6640   26.1940   35.3920 C   0  0  0  0  0  0  0  0  0  0  0  0
   36.6480   26.5030   35.4370 H   0  0  0  0  0  0  0  0  0  0  0  0
   38.6470   27.0400   34.9330 C   0  0  0  0  0  3  0  0  0  0  0  0
   39.9620   26.6220   34.8820 C   0  0  0  0  0  3  0  0  0  0  0  0
  1  2  1  0  0  0  0
  1  6  1  0  0  0  0
  2  3  1  0  0  0  0
  3 10  1  0  0  0  0
  3  9  1  0  0  0  0
  3  4  1  0  0  0  0
  4 11  1  0  0  0  0
  5 13  1  0  0  0  0
  5  4  1  0  0  0  0
  5 12  1  0  0  0  0
  6 14  1  1  0  0  0
  6  5  1  0  0  0  0
  7  2  1  0  0  0  0
  8  2  1  0  0  0  0
 15 16  1  0  0  0  0
 15 21  1  0  0  0  0
 16  1  1  0  0  0  0
 17 22  1  0  0  0  0
 17 16  2  0  0  0  0
 18 17  1  0  0  0  0
 19 18  2  0  0  0  0
 19 20  1  0  0  0  0
 20 15  2  0  0  0  0
 23 19  1  0  0  0  0
 24 25  1  0  0  0  0
 25 26  1  0  0  0  0
 26 27  2  0  0  0  0
 26  6  1  0  0  0  0
 27 28  1  0  0  0  0
 29 30  1  0  0  0  0
 29 27  1  0  0  0  0
 31 29  2  0  0  0  0
 32 31  1  0  0  0  0
 32 25  2  0  0  0  0
M  END
>  <minimizedAffinity>
-4.51802158

$$$$

 OpenBabel03272508313D

 32 34  0  0  1  0  0  0  0  0999 V2000
   38.5830   22.5350   34.6660 N   0  0  0  0  0  0  0  0  0  0  0  0
   37.4360   21.7300   34.2370 C   0  0  0  0  0  0  0  0  0  0  0  0
   37.5430   21.2510   32.8390 C   0  0  0  0  0  0  0  0  0  0  0  0
   38.9310   21.1940   32.4470 N   0  0  0  0  0  0  0  0  0  0  0  0
   39.3720   22.5800   32.3520 C   0  0  0  0  0  0  0  0  0  0  0  0
   39.6020   23.0060   33.7650 C   0  0  1  0  0  0  0  0  0  0  0  0
   37.4560   20.8120   34.8830 H   0  0  0  0  0  0  0  0  0  0  0  0
   36.4690   22.2540   34.3910 H   0  0  0  0  0  0  0  0  0  0  0  0
   37.1310   20.2220   32.7290 H   0  0  0  0  0  0  0  0  0  0  0  0
   36.9520   21.9620   32.1950 H   0  0  0  0  0  0  0  0  0  0  0  0
   38.9450   20.7850   31.4770 H   0  0  0  0  0  0  0  0  0  0  0  0
   40.3100   22.6410   31.7690 H   0  0  0  0  0  0  0  0  0  0  0  0
   38.5440   23.1670   31.8620 H   0  0  0  0  0  0  0  0  0  0  0  0
   40.5360   22.4440   34.0830 H   0  0  0  0  0  0  0  0  0  0  0  0
   37.6850   23.6160   36.6880 C   0  0  0  0  0  0  0  0  0  0  0  0
   38.6880   22.8600   36.0380 C   0  0  0  0  0  0  0  0  0  0  0  0
   39.7650   22.4630   36.8120 C   0  0  0  0  0  0  0  0  0  0  0  0
   39.8000   22.8140   38.1330 N   0  0  0  0  0  0  0  0  0  0  0  0
   38.8250   23.5300   38.6950 C   0  0  0  0  0  0  0  0  0  0  0  0
   37.7400   23.9500   37.9870 N   0  0  0  0  0  0  0  0  0  0  0  0
   36.8310   23.9340   36.0880 H   0  0  0  0  0  0  0  0  0  0  0  0
   40.5400   21.8880   36.3410 H   0  0  0  0  0  0  0  0  0  0  0  0
   38.8900   23.7890   39.7500 H   0  0  0  0  0  0  0  0  0  0  0  0
   42.4040   23.7790   34.7770 Cl  0  0  0  0  0  0  0  0  0  0  0  0
   41.1680   24.9050   34.3420 C   0  0  0  0  0  0  0  0  0  0  0  0
   39.9480   24.4300   33.9070 C   0  0  0  0  0  0  0  0  0  0  0  0
   39.0450   25.4580   33.5990 C   0  0  0  0  0  0  0  0  0  0  0  0
   38.0430   25.1790   33.2430 H   0  0  0  0  0  0  0  0  0  0  0  0
   39.2910   26.8050   33.6980 C   0  0  0  0  0  0  0  0  0  0  0  0
   38.5510   27.5250   33.4450 H   0  0  0  0  0  0  0  0  0  0  0  0
   40.5360   27.1900   34.1410 C   0  0  0  0  0  3  0  0  0  0  0  0
   41.4860   26.2420   34.4670 C   0  0  0  0  0  3  0  0  0  0  0  0
  1 16  1  0  0  0  0
  2  8  1  0  0  0  0
  2  1  1  0  0  0  0
  2  7  1  0  0  0  0
  3  2  1  0  0  0  0
  4  3  1  0  0  0  0
  5  4  1  0  0  0  0
  5  6  1  0  0  0  0
  6 26  1  0  0  0  0
  6 14  1  1  0  0  0
  6  1  1  0  0  0  0
  9  3  1  0  0  0  0
 10  3  1  0  0  0  0
 11  4  1  0  0  0  0
 12  5  1  0  0  0  0
 13  5  1  0  0  0  0
 15 20  1  0  0  0  0
 16 15  2  0  0  0  0
 16 17  1  0  0  0  0
 17 18  2  0  0  0  0
 18 19  1  0  0  0  0
 19 23  1  0  0  0  0
 20 19  2  0  0  0  0
 21 15  1  0  0  0  0
 22 17  1  0  0  0  0
 25 32  1  0  0  0  0
 25 24  1  0  0  0  0
 26 25  2  0  0  0  0
 27 29  2  0  0  0  0
 27 26  1  0  0  0  0
 28 27  1  0  0  0  0
 29 31  1  0  0  0  0
 30 29  1  0  0  0  0
 31 32  2  0  0  0  0
M  END
>  <minimizedAffinity>
-4.47320938

$$$$

 OpenBabel03272508313D

 32 34  0  0  1  0  0  0  0  0999 V2000
   39.5610   25.8340   32.9660 N   0  0  0  0  0  0  0  0  0  0  0  0
   40.0300   27.1340   32.4820 C   0  0  0  0  0  0  0  0  0  0  0  0
   41.3660   27.5090   33.0020 C   0  0  0  0  0  0  0  0  0  0  0  0
   42.1000   26.3210   33.3660 N   0  0  0  0  0  0  0  0  0  0  0  0
   41.4280   25.7860   34.5440 C   0  0  0  0  0  0  0  0  0  0  0  0
   40.2170   25.0940   34.0130 C   0  0  1  0  0  0  0  0  0  0  0  0
   40.1510   27.0160   31.3720 H   0  0  0  0  0  0  0  0  0  0  0  0
   39.3000   27.9480   32.6760 H   0  0  0  0  0  0  0  0  0  0  0  0
   41.9680   28.0410   32.2310 H   0  0  0  0  0  0  0  0  0  0  0  0
   41.2020   28.1900   33.8850 H   0  0  0  0  0  0  0  0  0  0  0  0
   43.0560   26.6460   33.6610 H   0  0  0  0  0  0  0  0  0  0  0  0
   42.0900   25.0700   35.0660 H   0  0  0  0  0  0  0  0  0  0  0  0
   41.1610   26.6580   35.2070 H   0  0  0  0  0  0  0  0  0  0  0  0
   40.6230   24.1720   33.4890 H   0  0  0  0  0  0  0  0  0  0  0  0
   38.4830   24.1180   31.5670 C   0  0  0  0  0  0  0  0  0  0  0  0
   38.4050   25.2820   32.3680 C   0  0  0  0  0  0  0  0  0  0  0  0
   37.1480   25.8400   32.5290 C   0  0  0  0  0  0  0  0  0  0  0  0
   36.0760   25.2510   31.9200 N   0  0  0  0  0  0  0  0  0  0  0  0
   36.2080   24.1530   31.1740 C   0  0  0  0  0  0  0  0  0  0  0  0
   37.4160   23.5560   30.9780 N   0  0  0  0  0  0  0  0  0  0  0  0
   39.4690   23.6690   31.4320 H   0  0  0  0  0  0  0  0  0  0  0  0
   37.0630   26.7240   33.1330 H   0  0  0  0  0  0  0  0  0  0  0  0
   35.3280   23.7140   30.7060 H   0  0  0  0  0  0  0  0  0  0  0  0
   38.7730   27.0720   35.8780 Cl  0  0  0  0  0  0  0  0  0  0  0  0
   38.6140   25.3520   35.9520 C   0  0  0  0  0  0  0  0  0  0  0  0
   39.3220   24.5730   35.0600 C   0  0  0  0  0  0  0  0  0  0  0  0
   39.1000   23.2020   35.2440 C   0  0  0  0  0  0  0  0  0  0  0  0
   39.6210   22.4970   34.5810 H   0  0  0  0  0  0  0  0  0  0  0  0
   38.2800   22.6360   36.1900 C   0  0  0  0  0  0  0  0  0  0  0  0
   38.1640   21.5830   36.2670 H   0  0  0  0  0  0  0  0  0  0  0  0
   37.6110   23.4890   37.0380 C   0  0  0  0  0  3  0  0  0  0  0  0
   37.7740   24.8560   36.9270 C   0  0  0  0  0  3  0  0  0  0  0  0
  1  6  1  0  0  0  0
  2  8  1  0  0  0  0
  2  1  1  0  0  0  0
  2  3  1  0  0  0  0
  3  4  1  0  0  0  0
  3 10  1  0  0  0  0
  4 11  1  0  0  0  0
  4  5  1  0  0  0  0
  5 12  1  0  0  0  0
  5 13  1  0  0  0  0
  6 14  1  6  0  0  0
  6  5  1  0  0  0  0
  6 26  1  0  0  0  0
  7  2  1  0  0  0  0
  9  3  1  0  0  0  0
 15 16  1  0  0  0  0
 16 17  2  0  0  0  0
 16  1  1  0  0  0  0
 17 22  1  0  0  0  0
 18 17  1  0  0  0  0
 19 18  2  0  0  0  0
 20 19  1  0  0  0  0
 20 15  2  0  0  0  0
 21 15  1  0  0  0  0
 23 19  1  0  0  0  0
 24 25  1  0  0  0  0
 25 32  1  0  0  0  0
 26 27  1  0  0  0  0
 26 25  2  0  0  0  0
 27 29  2  0  0  0  0
 28 27  1  0  0  0  0
 29 30  1  0  0  0  0
 29 31  1  0  0  0  0
 32 31  2  0  0  0  0
M  END
>  <minimizedAffinity>
-4.46092272

$$$$

 OpenBabel03272508313D

 32 34  0  0  1  0  0  0  0  0999 V2000
   40.1520   22.3400   34.4190 N   0  0  0  0  0  0  0  0  0  0  0  0
   41.2850   21.5290   33.9690 C   0  0  0  0  0  0  0  0  0  0  0  0
   42.3110   21.3170   35.0170 C   0  0  0  0  0  0  0  0  0  0  0  0
   41.7100   21.4510   36.3230 N   0  0  0  0  0  0  0  0  0  0  0  0
   41.3850   22.8650   36.4650 C   0  0  0  0  0  0  0  0  0  0  0  0
   40.1340   23.0510   35.6710 C   0  0  1  0  0  0  0  0  0  0  0  0
   40.8580   20.5160   33.7440 H   0  0  0  0  0  0  0  0  0  0  0  0
   41.7560   21.9310   33.0470 H   0  0  0  0  0  0  0  0  0  0  0  0
   42.7440   20.2930   34.9620 H   0  0  0  0  0  0  0  0  0  0  0  0
   43.1250   22.0780   34.8480 H   0  0  0  0  0  0  0  0  0  0  0  0
   42.4670   21.2240   37.0180 H   0  0  0  0  0  0  0  0  0  0  0  0
   41.2120   23.1100   37.5300 H   0  0  0  0  0  0  0  0  0  0  0  0
   42.2460   23.4560   36.0420 H   0  0  0  0  0  0  0  0  0  0  0  0
   39.3310   22.5240   36.2780 H   0  0  0  0  0  0  0  0  0  0  0  0
   39.0950   23.0620   32.3170 C   0  0  0  0  0  0  0  0  0  0  0  0
   39.0200   22.4240   33.5770 C   0  0  0  0  0  0  0  0  0  0  0  0
   37.7910   21.8940   33.9310 C   0  0  0  0  0  0  0  0  0  0  0  0
   36.7410   22.0130   33.0650 N   0  0  0  0  0  0  0  0  0  0  0  0
   36.8670   22.6260   31.8880 C   0  0  0  0  0  0  0  0  0  0  0  0
   38.0490   23.1680   31.4810 N   0  0  0  0  0  0  0  0  0  0  0  0
   40.0580   23.4840   32.0260 H   0  0  0  0  0  0  0  0  0  0  0  0
   37.7100   21.4040   34.8830 H   0  0  0  0  0  0  0  0  0  0  0  0
   36.0060   22.7000   31.2260 H   0  0  0  0  0  0  0  0  0  0  0  0
   37.4980   23.8760   37.0310 Cl  0  0  0  0  0  0  0  0  0  0  0  0
   38.5330   24.9480   36.1550 C   0  0  0  0  0  0  0  0  0  0  0  0
   39.6870   24.4520   35.5850 C   0  0  0  0  0  0  0  0  0  0  0  0
   40.4190   25.4330   34.9030 C   0  0  0  0  0  0  0  0  0  0  0  0
   41.3580   25.1350   34.4140 H   0  0  0  0  0  0  0  0  0  0  0  0
   40.0770   26.7580   34.7810 C   0  0  0  0  0  0  0  0  0  0  0  0
   40.6870   27.4420   34.2450 H   0  0  0  0  0  0  0  0  0  0  0  0
   38.9080   27.1660   35.3820 C   0  0  0  0  0  3  0  0  0  0  0  0
   38.1250   26.2630   36.0740 C   0  0  0  0  0  3  0  0  0  0  0  0
  1  6  1  0  0  0  0
  2  1  1  0  0  0  0
  2  3  1  0  0  0  0
  3  4  1  0  0  0  0
  4  5  1  0  0  0  0
  4 11  1  0  0  0  0
  5 12  1  0  0  0  0
  6 14  1  1  0  0  0
  6  5  1  0  0  0  0
  7  2  1  0  0  0  0
  8  2  1  0  0  0  0
  9  3  1  0  0  0  0
 10  3  1  0  0  0  0
 13  5  1  0  0  0  0
 15 16  1  0  0  0  0
 16 17  2  0  0  0  0
 16  1  1  0  0  0  0
 17 22  1  0  0  0  0
 18 17  1  0  0  0  0
 19 18  2  0  0  0  0
 20 19  1  0  0  0  0
 20 15  2  0  0  0  0
 21 15  1  0  0  0  0
 23 19  1  0  0  0  0
 25 24  1  0  0  0  0
 26  6  1  0  0  0  0
 26 25  2  0  0  0  0
 27 26  1  0  0  0  0
 28 27  1  0  0  0  0
 29 27  2  0  0  0  0
 29 31  1  0  0  0  0
 30 29  1  0  0  0  0
 31 32  2  0  0  0  0
 32 25  1  0  0  0  0
M  END
>  <minimizedAffinity>
-4.45556498

$$$$
