
 OpenBabel03272510073D

 30 32  0  0  0  0  0  0  0  0999 V2000
   35.7200   28.7660   49.0500 C   0  0  0  0  0  0  0  0  0  0  0  0
   35.7280   29.9640   48.2910 C   0  0  0  0  0  0  0  0  0  0  0  0
   34.6090   30.2400   47.5050 C   0  0  0  0  0  0  0  0  0  0  0  0
   33.5870   29.3570   47.5130 N   0  0  0  0  0  0  0  0  0  0  0  0
   33.5950   28.2270   48.2380 C   0  0  0  0  0  0  0  0  0  0  0  0
   34.6550   27.9320   49.0040 N   0  0  0  0  0  0  0  0  0  0  0  0
   32.4670   27.3530   48.1840 N   0  0  0  0  0  0  0  0  0  0  0  0
   31.1260   27.7710   48.5750 C   0  0  0  0  0  0  0  0  0  0  0  0
   30.2310   26.6690   48.1280 C   0  0  0  0  0  0  0  0  0  0  0  0
   31.0800   25.7550   47.2720 C   0  0  0  0  0  0  0  0  0  0  0  0
   32.4790   25.9770   47.7500 C   0  0  0  0  0  0  0  0  0  0  0  0
   36.5920   28.5420   49.6680 H   0  0  0  0  0  0  0  0  0  0  0  0
   34.5240   31.1160   46.8990 H   0  0  0  0  0  0  0  0  0  0  0  0
   31.1530   27.9610   49.6590 H   0  0  0  0  0  0  0  0  0  0  0  0
   30.9380   28.7190   48.0000 H   0  0  0  0  0  0  0  0  0  0  0  0
   29.4580   27.0930   47.4240 H   0  0  0  0  0  0  0  0  0  0  0  0
   29.7730   26.1500   48.9970 H   0  0  0  0  0  0  0  0  0  0  0  0
   30.7920   24.7050   47.5030 H   0  0  0  0  0  0  0  0  0  0  0  0
   30.9590   25.9540   46.1800 H   0  0  0  0  0  0  0  0  0  0  0  0
   32.8070   25.2730   48.5310 H   0  0  0  0  0  0  0  0  0  0  0  0
   33.1660   25.9110   46.8730 H   0  0  0  0  0  0  0  0  0  0  0  0
   36.8120   30.9270   50.9800 Cl  0  0  0  0  0  0  0  0  0  0  0  0
   37.4420   31.4090   49.4350 C   0  0  0  0  0  0  0  0  0  0  0  0
   36.8510   30.8920   48.3080 C   0  0  0  0  0  0  0  0  0  0  0  0
   37.3410   31.2650   47.0760 C   0  0  0  0  0  0  0  0  0  0  0  0
   36.9880   30.9500   46.1010 H   0  0  0  0  0  0  0  0  0  0  0  0
   38.3940   32.1330   46.9680 C   0  0  0  0  0  0  0  0  0  0  0  0
   38.8480   32.4840   46.0280 H   0  0  0  0  0  0  0  0  0  0  0  0
   39.0050   32.6670   48.0860 C   0  0  0  0  0  0  0  0  0  0  0  0
   38.5090   32.2880   49.3160 C   0  0  0  0  0  0  0  0  0  0  0  0
  1 12  1  0  0  0  0
  2 24  1  0  0  0  0
  2  1  2  0  0  0  0
  3  4  2  0  0  0  0
  3  2  1  0  0  0  0
  4  5  1  0  0  0  0
  5  6  2  0  0  0  0
  6  1  1  0  0  0  0
  7  5  1  0  0  0  0
  7  8  1  0  0  0  0
  8 14  1  0  0  0  0
  9  8  1  0  0  0  0
  9 17  1  0  0  0  0
 10 18  1  0  0  0  0
 10 11  1  0  0  0  0
 10  9  1  0  0  0  0
 11  7  1  0  0  0  0
 11 20  1  0  0  0  0
 13  3  1  0  0  0  0
 15  8  1  0  0  0  0
 16  9  1  0  0  0  0
 19 10  1  0  0  0  0
 21 11  1  0  0  0  0
 23 22  1  0  0  0  0
 24 23  2  0  0  0  0
 25 24  1  0  0  0  0
 26 25  1  0  0  0  0
 27 25  2  0  0  0  0
 27 29  1  0  0  0  0
 28 27  1  0  0  0  0
 29 30  2  0  0  0  0
 30 23  1  0  0  0  0
M  END
>  <minimizedAffinity>
-5.75892162

>  <minimizedRMSD>
4.82541895

$$$$
