
 OpenBabel03272509513D

 33 35  0  0  0  0  0  0  0  0999 V2000
   36.4950   29.2000   31.4510 C   0  0  0  0  0  0  0  0  0  0  0  0
   35.8750   30.0600   32.3620 C   0  0  0  0  0  0  0  0  0  0  0  0
   35.6480   29.6330   33.6480 C   0  0  0  0  0  0  0  0  0  0  0  0
   36.0680   28.3620   33.9140 N   0  0  0  0  0  0  0  0  0  0  0  0
   36.6560   27.5430   33.0540 C   0  0  0  0  0  0  0  0  0  0  0  0
   36.8690   27.9760   31.8050 N   0  0  0  0  0  0  0  0  0  0  0  0
   36.6530   29.5870   30.4430 H   0  0  0  0  0  0  0  0  0  0  0  0
   35.5760   31.0170   32.0650 H   0  0  0  0  0  0  0  0  0  0  0  0
   32.5720   29.3590   34.2780 Cl  0  0  0  0  0  0  0  0  0  0  0  0
   33.7140   30.3310   35.1480 C   0  0  0  0  0  0  0  0  0  0  0  0
   35.0160   30.3410   34.7430 C   0  0  0  0  0  0  0  0  0  0  0  0
   35.7990   31.1730   35.5110 C   0  0  0  0  0  0  0  0  0  0  0  0
   36.8760   31.3110   35.3340 H   0  0  0  0  0  0  0  0  0  0  0  0
   35.3310   31.9130   36.5690 C   0  0  0  0  0  0  0  0  0  0  0  0
   35.9720   32.5510   37.1460 H   0  0  0  0  0  0  0  0  0  0  0  0
   34.0060   31.8620   36.9340 C   0  0  0  0  0  3  0  0  0  0  0  0
   33.1840   31.0450   36.1950 C   0  0  0  0  0  3  0  0  0  0  0  0
   36.9740   26.3200   33.5860 O   0  0  0  0  0  0  0  0  0  0  0  0
   37.7280   26.2610   34.7840 C   0  0  0  0  0  0  0  0  0  0  0  0
   38.1860   27.2480   34.9940 H   0  0  0  0  0  0  0  0  0  0  0  0
   36.9860   26.0020   35.5830 H   0  0  0  0  0  0  0  0  0  0  0  0
   38.7330   25.1630   34.7570 C   0  0  0  0  0  0  0  0  0  0  0  0
   38.5210   24.3880   33.9910 H   0  0  0  0  0  0  0  0  0  0  0  0
   39.7470   25.5590   34.5020 H   0  0  0  0  0  0  0  0  0  0  0  0
   38.8400   24.4410   36.0620 C   0  0  0  0  0  0  0  0  0  0  0  0
   37.9540   24.8120   37.0680 C   0  0  0  0  0  0  0  0  0  0  0  0
   37.9720   24.2050   38.3010 C   0  0  0  0  0  0  0  0  0  0  0  0
   38.8550   23.2370   38.5480 N   0  0  0  0  0  0  0  0  0  0  0  0
   39.7180   22.8830   37.5500 C   0  0  0  0  0  0  0  0  0  0  0  0
   39.7330   23.4470   36.3400 N   0  0  0  0  0  0  0  0  0  0  0  0
   37.2290   25.6030   36.8760 H   0  0  0  0  0  0  0  0  0  0  0  0
   37.2870   24.4890   39.0870 H   0  0  0  0  0  0  0  0  0  0  0  0
   40.4810   22.1040   37.6430 H   0  0  0  0  0  0  0  0  0  0  0  0
  1  6  2  0  0  0  0
  1  2  1  0  0  0  0
  2  3  2  0  0  0  0
  3  4  1  0  0  0  0
  3 11  1  0  0  0  0
  5 18  1  0  0  0  0
  5  4  2  0  0  0  0
  6  5  1  0  0  0  0
  7  1  1  0  0  0  0
  8  2  1  0  0  0  0
  9 10  1  0  0  0  0
 10 17  1  0  0  0  0
 11 10  2  0  0  0  0
 11 12  1  0  0  0  0
 12 14  2  0  0  0  0
 13 12  1  0  0  0  0
 14 16  1  0  0  0  0
 14 15  1  0  0  0  0
 17 16  2  0  0  0  0
 18 19  1  0  0  0  0
 19 20  1  0  0  0  0
 19 21  1  0  0  0  0
 22 19  1  0  0  0  0
 22 25  1  0  0  0  0
 23 22  1  0  0  0  0
 24 22  1  0  0  0  0
 25 30  2  0  0  0  0
 25 26  1  0  0  0  0
 26 27  2  0  0  0  0
 27 28  1  0  0  0  0
 27 32  1  0  0  0  0
 29 33  1  0  0  0  0
 29 28  2  0  0  0  0
 30 29  1  0  0  0  0
 31 26  1  0  0  0  0
M  END
>  <minimizedAffinity>
-5.67730761

$$$$

 OpenBabel03272509513D

 33 35  0  0  0  0  0  0  0  0999 V2000
   35.4470   29.4910   31.6900 C   0  0  0  0  0  0  0  0  0  0  0  0
   34.7320   30.2200   32.6430 C   0  0  0  0  0  0  0  0  0  0  0  0
   34.9220   29.9570   33.9780 C   0  0  0  0  0  0  0  0  0  0  0  0
   35.8270   28.9710   34.2460 N   0  0  0  0  0  0  0  0  0  0  0  0
   36.5070   28.2760   33.3460 C   0  0  0  0  0  0  0  0  0  0  0  0
   36.3090   28.5460   32.0490 N   0  0  0  0  0  0  0  0  0  0  0  0
   35.2600   29.7390   30.6430 H   0  0  0  0  0  0  0  0  0  0  0  0
   34.0490   30.9530   32.3450 H   0  0  0  0  0  0  0  0  0  0  0  0
   36.3710   32.1300   35.7420 Cl  0  0  0  0  0  0  0  0  0  0  0  0
   34.7660   31.5180   35.9830 C   0  0  0  0  0  0  0  0  0  0  0  0
   34.2860   30.5720   35.1260 C   0  0  0  0  0  0  0  0  0  0  0  0
   33.0120   30.1660   35.4520 C   0  0  0  0  0  0  0  0  0  0  0  0
   32.4610   29.4070   34.8760 H   0  0  0  0  0  0  0  0  0  0  0  0
   32.2970   30.6530   36.5180 C   0  0  0  0  0  0  0  0  0  0  0  0
   31.3050   30.3110   36.7420 H   0  0  0  0  0  0  0  0  0  0  0  0
   32.8320   31.6080   37.3490 C   0  0  0  0  0  3  0  0  0  0  0  0
   34.1030   32.0460   37.0640 C   0  0  0  0  0  3  0  0  0  0  0  0
   37.3500   27.3420   33.8900 O   0  0  0  0  0  0  0  0  0  0  0  0
   37.7200   27.4550   35.2540 C   0  0  0  0  0  0  0  0  0  0  0  0
   37.9140   28.5150   35.5080 H   0  0  0  0  0  0  0  0  0  0  0  0
   36.8360   27.0740   35.8280 H   0  0  0  0  0  0  0  0  0  0  0  0
   38.8690   26.5700   35.5940 C   0  0  0  0  0  0  0  0  0  0  0  0
   39.6840   26.5940   34.8410 H   0  0  0  0  0  0  0  0  0  0  0  0
   39.3450   26.8890   36.5540 H   0  0  0  0  0  0  0  0  0  0  0  0
   38.4730   25.1340   35.7350 C   0  0  0  0  0  0  0  0  0  0  0  0
   38.0220   24.7200   36.9840 C   0  0  0  0  0  0  0  0  0  0  0  0
   37.6340   23.4210   37.2110 C   0  0  0  0  0  0  0  0  0  0  0  0
   37.6870   22.5320   36.2200 N   0  0  0  0  0  0  0  0  0  0  0  0
   38.1320   22.9550   35.0000 C   0  0  0  0  0  0  0  0  0  0  0  0
   38.5180   24.2060   34.7370 N   0  0  0  0  0  0  0  0  0  0  0  0
   37.9760   25.4390   37.8010 H   0  0  0  0  0  0  0  0  0  0  0  0
   37.2830   23.0920   38.1800 H   0  0  0  0  0  0  0  0  0  0  0  0
   38.2160   22.3110   34.1180 H   0  0  0  0  0  0  0  0  0  0  0  0
  1  6  2  0  0  0  0
  1  2  1  0  0  0  0
  2  3  2  0  0  0  0
  3  4  1  0  0  0  0
  3 11  1  0  0  0  0
  5 18  1  0  0  0  0
  5  4  2  0  0  0  0
  6  5  1  0  0  0  0
  7  1  1  0  0  0  0
  8  2  1  0  0  0  0
  9 10  1  0  0  0  0
 10 17  1  0  0  0  0
 11 12  1  0  0  0  0
 11 10  2  0  0  0  0
 12 14  2  0  0  0  0
 13 12  1  0  0  0  0
 14 15  1  0  0  0  0
 14 16  1  0  0  0  0
 17 16  2  0  0  0  0
 18 19  1  0  0  0  0
 19 20  1  0  0  0  0
 19 22  1  0  0  0  0
 19 21  1  0  0  0  0
 22 25  1  0  0  0  0
 22 24  1  0  0  0  0
 23 22  1  0  0  0  0
 25 26  1  0  0  0  0
 26 27  2  0  0  0  0
 26 31  1  0  0  0  0
 27 32  1  0  0  0  0
 28 27  1  0  0  0  0
 29 28  2  0  0  0  0
 30 29  1  0  0  0  0
 30 25  2  0  0  0  0
 33 29  1  0  0  0  0
M  END
>  <minimizedAffinity>
-5.50539732

$$$$

 OpenBabel03272509513D

 33 35  0  0  0  0  0  0  0  0999 V2000
   43.6180   26.6860   33.9310 C   0  0  0  0  0  0  0  0  0  0  0  0
   42.3180   27.1720   33.7680 C   0  0  0  0  0  0  0  0  0  0  0  0
   41.2690   26.5130   34.3620 C   0  0  0  0  0  0  0  0  0  0  0  0
   41.6200   25.4060   35.0790 N   0  0  0  0  0  0  0  0  0  0  0  0
   42.8510   24.9400   35.2370 C   0  0  0  0  0  0  0  0  0  0  0  0
   43.8600   25.5960   34.6500 N   0  0  0  0  0  0  0  0  0  0  0  0
   44.4150   27.2460   33.4380 H   0  0  0  0  0  0  0  0  0  0  0  0
   42.1420   28.0250   33.1890 H   0  0  0  0  0  0  0  0  0  0  0  0
   39.6470   26.5860   31.6610 Cl  0  0  0  0  0  0  0  0  0  0  0  0
   39.0150   26.8960   33.2450 C   0  0  0  0  0  0  0  0  0  0  0  0
   39.8560   26.8250   34.3170 C   0  0  0  0  0  0  0  0  0  0  0  0
   39.2210   27.1160   35.5030 C   0  0  0  0  0  0  0  0  0  0  0  0
   39.7380   27.1110   36.4750 H   0  0  0  0  0  0  0  0  0  0  0  0
   37.8900   27.4410   35.6060 C   0  0  0  0  0  0  0  0  0  0  0  0
   37.4300   27.6630   36.5490 H   0  0  0  0  0  0  0  0  0  0  0  0
   37.0890   27.4960   34.4900 C   0  0  0  0  0  3  0  0  0  0  0  0
   37.6790   27.2140   33.2820 C   0  0  0  0  0  3  0  0  0  0  0  0
   42.9190   23.8080   36.0070 O   0  0  0  0  0  0  0  0  0  0  0  0
   42.0290   22.7370   35.7450 C   0  0  0  0  0  0  0  0  0  0  0  0
   41.3230   23.0190   34.9390 H   0  0  0  0  0  0  0  0  0  0  0  0
   42.6820   21.8900   35.4110 H   0  0  0  0  0  0  0  0  0  0  0  0
   41.3280   22.2810   36.9780 C   0  0  0  0  0  0  0  0  0  0  0  0
   41.2010   21.1800   37.0330 H   0  0  0  0  0  0  0  0  0  0  0  0
   41.9110   22.5560   37.8910 H   0  0  0  0  0  0  0  0  0  0  0  0
   39.9590   22.8670   37.1170 C   0  0  0  0  0  0  0  0  0  0  0  0
   39.2630   23.1410   35.9440 C   0  0  0  0  0  0  0  0  0  0  0  0
   37.9970   23.6760   35.9690 C   0  0  0  0  0  0  0  0  0  0  0  0
   37.4150   23.9430   37.1390 N   0  0  0  0  0  0  0  0  0  0  0  0
   38.1110   23.6680   38.2810 C   0  0  0  0  0  0  0  0  0  0  0  0
   39.3410   23.1480   38.3000 N   0  0  0  0  0  0  0  0  0  0  0  0
   39.7300   22.9270   34.9830 H   0  0  0  0  0  0  0  0  0  0  0  0
   37.4510   23.8920   35.0610 H   0  0  0  0  0  0  0  0  0  0  0  0
   37.7310   23.8460   39.2920 H   0  0  0  0  0  0  0  0  0  0  0  0
  1  6  1  0  0  0  0
  2  1  2  0  0  0  0
  2  3  1  0  0  0  0
  3  4  2  0  0  0  0
  4  5  1  0  0  0  0
  5 18  1  0  0  0  0
  6  5  2  0  0  0  0
  7  1  1  0  0  0  0
  8  2  1  0  0  0  0
  9 10  1  0  0  0  0
 10 17  2  0  0  0  0
 10 11  1  0  0  0  0
 11  3  1  0  0  0  0
 11 12  2  0  0  0  0
 12 14  1  0  0  0  0
 12 13  1  0  0  0  0
 14 15  1  0  0  0  0
 16 14  2  0  0  0  0
 17 16  1  0  0  0  0
 19 18  1  0  0  0  0
 19 22  1  0  0  0  0
 20 19  1  0  0  0  0
 21 19  1  0  0  0  0
 22 23  1  0  0  0  0
 22 25  1  0  0  0  0
 22 24  1  0  0  0  0
 25 30  1  0  0  0  0
 26 27  1  0  0  0  0
 26 25  2  0  0  0  0
 27 28  2  0  0  0  0
 28 29  1  0  0  0  0
 29 30  2  0  0  0  0
 29 33  1  0  0  0  0
 31 26  1  0  0  0  0
 32 27  1  0  0  0  0
M  END
>  <minimizedAffinity>
-5.45740604

$$$$

 OpenBabel03272509513D

 33 35  0  0  0  0  0  0  0  0999 V2000
   37.7330   27.7220   35.3120 C   0  0  0  0  0  0  0  0  0  0  0  0
   38.4890   26.7740   36.0070 C   0  0  0  0  0  0  0  0  0  0  0  0
   38.5950   25.4970   35.5120 C   0  0  0  0  0  0  0  0  0  0  0  0
   37.9220   25.2770   34.3450 N   0  0  0  0  0  0  0  0  0  0  0  0
   37.2040   26.1720   33.6820 C   0  0  0  0  0  0  0  0  0  0  0  0
   37.1130   27.4120   34.1790 N   0  0  0  0  0  0  0  0  0  0  0  0
   37.6820   28.7220   35.7470 H   0  0  0  0  0  0  0  0  0  0  0  0
   38.9630   27.0310   36.9030 H   0  0  0  0  0  0  0  0  0  0  0  0
   37.7700   24.1680   38.2480 Cl  0  0  0  0  0  0  0  0  0  0  0  0
   39.0780   23.6760   37.2220 C   0  0  0  0  0  0  0  0  0  0  0  0
   39.3050   24.3630   36.0660 C   0  0  0  0  0  0  0  0  0  0  0  0
   40.3860   23.8750   35.3680 C   0  0  0  0  0  0  0  0  0  0  0  0
   40.7220   24.3030   34.4110 H   0  0  0  0  0  0  0  0  0  0  0  0
   41.1570   22.8160   35.7810 C   0  0  0  0  0  0  0  0  0  0  0  0
   41.9930   22.4630   35.2100 H   0  0  0  0  0  0  0  0  0  0  0  0
   40.8800   22.1590   36.9580 C   0  0  0  0  0  3  0  0  0  0  0  0
   39.8090   22.6110   37.6900 C   0  0  0  0  0  3  0  0  0  0  0  0
   36.6320   25.6820   32.5360 O   0  0  0  0  0  0  0  0  0  0  0  0
   37.3650   24.7750   31.7300 C   0  0  0  0  0  0  0  0  0  0  0  0
   37.9710   25.3300   30.9870 H   0  0  0  0  0  0  0  0  0  0  0  0
   38.0330   24.2260   32.4430 H   0  0  0  0  0  0  0  0  0  0  0  0
   36.4830   23.7560   31.0960 C   0  0  0  0  0  0  0  0  0  0  0  0
   35.4780   24.1450   30.8280 H   0  0  0  0  0  0  0  0  0  0  0  0
   36.9230   23.3930   30.1350 H   0  0  0  0  0  0  0  0  0  0  0  0
   36.2490   22.5650   31.9710 C   0  0  0  0  0  0  0  0  0  0  0  0
   35.2430   21.6840   31.5880 C   0  0  0  0  0  0  0  0  0  0  0  0
   34.9560   20.5600   32.3250 C   0  0  0  0  0  0  0  0  0  0  0  0
   35.6510   20.3000   33.4330 N   0  0  0  0  0  0  0  0  0  0  0  0
   36.6350   21.1750   33.7950 C   0  0  0  0  0  0  0  0  0  0  0  0
   36.9460   22.2770   33.1080 N   0  0  0  0  0  0  0  0  0  0  0  0
   34.6690   21.8880   30.6840 H   0  0  0  0  0  0  0  0  0  0  0  0
   34.1750   19.8710   32.0340 H   0  0  0  0  0  0  0  0  0  0  0  0
   37.2650   21.0610   34.6820 H   0  0  0  0  0  0  0  0  0  0  0  0
  1  7  1  0  0  0  0
  1  2  1  0  0  0  0
  2  8  1  0  0  0  0
  3  2  2  0  0  0  0
  3 11  1  0  0  0  0
  4  3  1  0  0  0  0
  5  6  1  0  0  0  0
  5  4  2  0  0  0  0
  6  1  2  0  0  0  0
 10 17  1  0  0  0  0
 10  9  1  0  0  0  0
 11 10  2  0  0  0  0
 12 14  2  0  0  0  0
 12 11  1  0  0  0  0
 13 12  1  0  0  0  0
 14 16  1  0  0  0  0
 15 14  1  0  0  0  0
 16 17  2  0  0  0  0
 18  5  1  0  0  0  0
 19 21  1  0  0  0  0
 19 18  1  0  0  0  0
 20 19  1  0  0  0  0
 22 19  1  0  0  0  0
 22 25  1  0  0  0  0
 23 22  1  0  0  0  0
 24 22  1  0  0  0  0
 25 30  1  0  0  0  0
 26 25  2  0  0  0  0
 26 27  1  0  0  0  0
 27 28  2  0  0  0  0
 28 29  1  0  0  0  0
 29 33  1  0  0  0  0
 30 29  2  0  0  0  0
 31 26  1  0  0  0  0
 32 27  1  0  0  0  0
M  END
>  <minimizedAffinity>
-5.4300313

$$$$

 OpenBabel03272509513D

 33 35  0  0  0  0  0  0  0  0999 V2000
   39.2190   27.1240   33.1110 C   0  0  0  0  0  0  0  0  0  0  0  0
   39.5190   26.4810   34.3150 C   0  0  0  0  0  0  0  0  0  0  0  0
   38.7120   25.4620   34.7580 C   0  0  0  0  0  0  0  0  0  0  0  0
   37.6550   25.1720   33.9430 N   0  0  0  0  0  0  0  0  0  0  0  0
   37.3650   25.7780   32.8020 C   0  0  0  0  0  0  0  0  0  0  0  0
   38.1640   26.7690   32.3850 N   0  0  0  0  0  0  0  0  0  0  0  0
   39.8920   27.9260   32.8040 H   0  0  0  0  0  0  0  0  0  0  0  0
   40.3470   26.7790   34.8800 H   0  0  0  0  0  0  0  0  0  0  0  0
   40.8070   23.1270   35.0590 Cl  0  0  0  0  0  0  0  0  0  0  0  0
   39.6670   23.6430   36.2600 C   0  0  0  0  0  0  0  0  0  0  0  0
   38.8230   24.6740   35.9680 C   0  0  0  0  0  0  0  0  0  0  0  0
   37.9630   24.9570   37.0040 C   0  0  0  0  0  0  0  0  0  0  0  0
   37.2080   25.7570   36.9530 H   0  0  0  0  0  0  0  0  0  0  0  0
   37.9480   24.2840   38.2010 C   0  0  0  0  0  0  0  0  0  0  0  0
   37.2620   24.5330   38.9870 H   0  0  0  0  0  0  0  0  0  0  0  0
   38.8250   23.2520   38.4400 C   0  0  0  0  0  3  0  0  0  0  0  0
   39.7040   22.9310   37.4340 C   0  0  0  0  0  3  0  0  0  0  0  0
   36.2440   25.2870   32.1840 O   0  0  0  0  0  0  0  0  0  0  0  0
   36.3730   24.6340   30.9330 C   0  0  0  0  0  0  0  0  0  0  0  0
   35.3710   24.4280   30.5070 H   0  0  0  0  0  0  0  0  0  0  0  0
   36.9290   25.3580   30.2820 H   0  0  0  0  0  0  0  0  0  0  0  0
   37.2120   23.4070   31.0290 C   0  0  0  0  0  0  0  0  0  0  0  0
   37.4550   22.9590   30.0430 H   0  0  0  0  0  0  0  0  0  0  0  0
   38.2010   23.6380   31.4980 H   0  0  0  0  0  0  0  0  0  0  0  0
   36.5660   22.3240   31.8320 C   0  0  0  0  0  0  0  0  0  0  0  0
   35.5160   21.6330   31.2380 C   0  0  0  0  0  0  0  0  0  0  0  0
   34.8620   20.6180   31.8950 C   0  0  0  0  0  0  0  0  0  0  0  0
   35.2340   20.2820   33.1300 N   0  0  0  0  0  0  0  0  0  0  0  0
   36.2670   20.9710   33.7000 C   0  0  0  0  0  0  0  0  0  0  0  0
   36.9290   21.9610   33.0960 N   0  0  0  0  0  0  0  0  0  0  0  0
   35.2030   21.9000   30.2290 H   0  0  0  0  0  0  0  0  0  0  0  0
   34.0440   20.0770   31.4390 H   0  0  0  0  0  0  0  0  0  0  0  0
   36.6550   20.7790   34.7050 H   0  0  0  0  0  0  0  0  0  0  0  0
  1  2  1  0  0  0  0
  2  3  2  0  0  0  0
  2  8  1  0  0  0  0
  3 11  1  0  0  0  0
  4  3  1  0  0  0  0
  5  4  2  0  0  0  0
  6  5  1  0  0  0  0
  6  1  2  0  0  0  0
  7  1  1  0  0  0  0
  9 10  1  0  0  0  0
 10 17  1  0  0  0  0
 11 10  2  0  0  0  0
 11 12  1  0  0  0  0
 12 14  2  0  0  0  0
 13 12  1  0  0  0  0
 14 16  1  0  0  0  0
 14 15  1  0  0  0  0
 17 16  2  0  0  0  0
 18  5  1  0  0  0  0
 19 22  1  0  0  0  0
 19 18  1  0  0  0  0
 20 19  1  0  0  0  0
 21 19  1  0  0  0  0
 22 24  1  0  0  0  0
 22 25  1  0  0  0  0
 23 22  1  0  0  0  0
 25 30  1  0  0  0  0
 26 25  2  0  0  0  0
 26 27  1  0  0  0  0
 27 28  2  0  0  0  0
 28 29  1  0  0  0  0
 29 33  1  0  0  0  0
 30 29  2  0  0  0  0
 31 26  1  0  0  0  0
 32 27  1  0  0  0  0
M  END
>  <minimizedAffinity>
-5.39842892

$$$$

 OpenBabel03272509513D

 33 35  0  0  0  0  0  0  0  0999 V2000
   35.3530   25.6650   31.0740 C   0  0  0  0  0  0  0  0  0  0  0  0
   35.1670   24.2810   31.0120 C   0  0  0  0  0  0  0  0  0  0  0  0
   36.1290   23.4450   31.5270 C   0  0  0  0  0  0  0  0  0  0  0  0
   37.2100   24.0790   32.0670 N   0  0  0  0  0  0  0  0  0  0  0  0
   37.3920   25.3900   32.1270 C   0  0  0  0  0  0  0  0  0  0  0  0
   36.4440   26.1890   31.6210 N   0  0  0  0  0  0  0  0  0  0  0  0
   34.5600   26.2840   30.6510 H   0  0  0  0  0  0  0  0  0  0  0  0
   34.3080   23.8830   30.5690 H   0  0  0  0  0  0  0  0  0  0  0  0
   38.4310   21.7690   30.1770 Cl  0  0  0  0  0  0  0  0  0  0  0  0
   37.0650   21.1310   31.0340 C   0  0  0  0  0  0  0  0  0  0  0  0
   36.1520   21.9970   31.5590 C   0  0  0  0  0  0  0  0  0  0  0  0
   35.1150   21.3490   32.1900 C   0  0  0  0  0  0  0  0  0  0  0  0
   34.2820   21.8830   32.6730 H   0  0  0  0  0  0  0  0  0  0  0  0
   35.0030   19.9830   32.2850 C   0  0  0  0  0  0  0  0  0  0  0  0
   34.1780   19.5130   32.7840 H   0  0  0  0  0  0  0  0  0  0  0  0
   35.9560   19.1580   31.7360 C   0  0  0  0  0  3  0  0  0  0  0  0
   37.0110   19.7600   31.0950 C   0  0  0  0  0  3  0  0  0  0  0  0
   38.5710   25.7580   32.7230 O   0  0  0  0  0  0  0  0  0  0  0  0
   39.0250   25.0430   33.8590 C   0  0  0  0  0  0  0  0  0  0  0  0
   39.1080   23.9650   33.6210 H   0  0  0  0  0  0  0  0  0  0  0  0
   40.0360   25.4690   34.0870 H   0  0  0  0  0  0  0  0  0  0  0  0
   38.1720   25.2970   35.0530 C   0  0  0  0  0  0  0  0  0  0  0  0
   38.1860   26.3530   35.3920 H   0  0  0  0  0  0  0  0  0  0  0  0
   37.0990   25.0750   34.8290 H   0  0  0  0  0  0  0  0  0  0  0  0
   38.5710   24.4740   36.2370 C   0  0  0  0  0  0  0  0  0  0  0  0
   37.8930   24.7050   37.4290 C   0  0  0  0  0  0  0  0  0  0  0  0
   38.1870   23.9970   38.5700 C   0  0  0  0  0  0  0  0  0  0  0  0
   39.1410   23.0660   38.5440 N   0  0  0  0  0  0  0  0  0  0  0  0
   39.7970   22.8510   37.3650 C   0  0  0  0  0  0  0  0  0  0  0  0
   39.5420   23.5160   36.2360 N   0  0  0  0  0  0  0  0  0  0  0  0
   37.1120   25.4640   37.4610 H   0  0  0  0  0  0  0  0  0  0  0  0
   37.6640   24.1720   39.5010 H   0  0  0  0  0  0  0  0  0  0  0  0
   40.5940   22.1130   37.2300 H   0  0  0  0  0  0  0  0  0  0  0  0
  1  6  1  0  0  0  0
  2  1  2  0  0  0  0
  2  3  1  0  0  0  0
  3 11  1  0  0  0  0
  3  4  2  0  0  0  0
  4  5  1  0  0  0  0
  5 18  1  0  0  0  0
  6  5  2  0  0  0  0
  7  1  1  0  0  0  0
  8  2  1  0  0  0  0
  9 10  1  0  0  0  0
 10 17  2  0  0  0  0
 10 11  1  0  0  0  0
 11 12  2  0  0  0  0
 12 14  1  0  0  0  0
 12 13  1  0  0  0  0
 14 15  1  0  0  0  0
 16 14  2  0  0  0  0
 17 16  1  0  0  0  0
 18 19  1  0  0  0  0
 19 21  1  0  0  0  0
 19 22  1  0  0  0  0
 20 19  1  0  0  0  0
 22 23  1  0  0  0  0
 22 25  1  0  0  0  0
 24 22  1  0  0  0  0
 25 26  1  0  0  0  0
 26 31  1  0  0  0  0
 26 27  2  0  0  0  0
 27 32  1  0  0  0  0
 28 27  1  0  0  0  0
 29 28  2  0  0  0  0
 30 25  2  0  0  0  0
 30 29  1  0  0  0  0
 33 29  1  0  0  0  0
M  END
>  <minimizedAffinity>
-5.3776536

$$$$

 OpenBabel03272509513D

 33 35  0  0  0  0  0  0  0  0999 V2000
   37.4190   24.3600   32.2260 C   0  0  0  0  0  0  0  0  0  0  0  0
   37.8280   23.7140   33.3950 C   0  0  0  0  0  0  0  0  0  0  0  0
   38.0700   24.4540   34.5270 C   0  0  0  0  0  0  0  0  0  0  0  0
   37.8800   25.7980   34.3860 N   0  0  0  0  0  0  0  0  0  0  0  0
   37.4930   26.4160   33.2800 C   0  0  0  0  0  0  0  0  0  0  0  0
   37.2610   25.6790   32.1860 N   0  0  0  0  0  0  0  0  0  0  0  0
   37.2390   23.7280   31.3550 H   0  0  0  0  0  0  0  0  0  0  0  0
   37.9590   22.6770   33.4080 H   0  0  0  0  0  0  0  0  0  0  0  0
   40.7000   22.7620   34.9240 Cl  0  0  0  0  0  0  0  0  0  0  0  0
   39.6120   23.2740   36.1730 C   0  0  0  0  0  0  0  0  0  0  0  0
   38.5110   24.0020   35.8320 C   0  0  0  0  0  0  0  0  0  0  0  0
   37.7300   24.3170   36.9210 C   0  0  0  0  0  0  0  0  0  0  0  0
   36.8000   24.9000   36.8410 H   0  0  0  0  0  0  0  0  0  0  0  0
   38.0190   23.9440   38.2110 C   0  0  0  0  0  0  0  0  0  0  0  0
   37.3860   24.2070   39.0350 H   0  0  0  0  0  0  0  0  0  0  0  0
   39.1460   23.2090   38.4960 C   0  0  0  0  0  3  0  0  0  0  0  0
   39.9570   22.8700   37.4400 C   0  0  0  0  0  3  0  0  0  0  0  0
   37.3810   27.7760   33.4160 O   0  0  0  0  0  0  0  0  0  0  0  0
   36.4490   28.3040   34.3430 C   0  0  0  0  0  0  0  0  0  0  0  0
   35.8000   27.4950   34.7330 H   0  0  0  0  0  0  0  0  0  0  0  0
   37.0710   28.7340   35.1700 H   0  0  0  0  0  0  0  0  0  0  0  0
   35.6640   29.4290   33.7630 C   0  0  0  0  0  0  0  0  0  0  0  0
   36.2750   30.1270   33.1540 H   0  0  0  0  0  0  0  0  0  0  0  0
   34.8750   29.0470   33.0690 H   0  0  0  0  0  0  0  0  0  0  0  0
   34.9910   30.2650   34.8050 C   0  0  0  0  0  0  0  0  0  0  0  0
   35.8010   31.0930   35.5750 C   0  0  0  0  0  0  0  0  0  0  0  0
   35.2740   31.9010   36.5550 C   0  0  0  0  0  0  0  0  0  0  0  0
   33.9610   31.8970   36.7810 N   0  0  0  0  0  0  0  0  0  0  0  0
   33.1790   31.0780   36.0160 C   0  0  0  0  0  0  0  0  0  0  0  0
   33.6500   30.2800   35.0550 N   0  0  0  0  0  0  0  0  0  0  0  0
   36.8760   31.1030   35.3990 H   0  0  0  0  0  0  0  0  0  0  0  0
   35.8990   32.5470   37.1580 H   0  0  0  0  0  0  0  0  0  0  0  0
   32.0920   30.9960   36.1150 H   0  0  0  0  0  0  0  0  0  0  0  0
  1  2  1  0  0  0  0
  2  8  1  0  0  0  0
  2  3  2  0  0  0  0
  3 11  1  0  0  0  0
  4  3  1  0  0  0  0
  5 18  1  0  0  0  0
  5  4  2  0  0  0  0
  6  1  2  0  0  0  0
  6  5  1  0  0  0  0
  7  1  1  0  0  0  0
  9 10  1  0  0  0  0
 10 17  1  0  0  0  0
 11 10  2  0  0  0  0
 11 12  1  0  0  0  0
 12 14  2  0  0  0  0
 13 12  1  0  0  0  0
 14 16  1  0  0  0  0
 14 15  1  0  0  0  0
 17 16  2  0  0  0  0
 18 19  1  0  0  0  0
 19 20  1  0  0  0  0
 19 21  1  0  0  0  0
 22 19  1  0  0  0  0
 22 25  1  0  0  0  0
 23 22  1  0  0  0  0
 24 22  1  0  0  0  0
 25 30  2  0  0  0  0
 25 26  1  0  0  0  0
 26 27  2  0  0  0  0
 27 28  1  0  0  0  0
 27 32  1  0  0  0  0
 29 33  1  0  0  0  0
 29 28  2  0  0  0  0
 30 29  1  0  0  0  0
 31 26  1  0  0  0  0
M  END
>  <minimizedAffinity>
-5.3620615

$$$$

 OpenBabel03272509513D

 33 35  0  0  0  0  0  0  0  0999 V2000
   37.6340   27.6160   35.2810 C   0  0  0  0  0  0  0  0  0  0  0  0
   38.4110   26.6950   35.9880 C   0  0  0  0  0  0  0  0  0  0  0  0
   38.5580   25.4190   35.5010 C   0  0  0  0  0  0  0  0  0  0  0  0
   37.9030   25.1730   34.3290 N   0  0  0  0  0  0  0  0  0  0  0  0
   37.1640   26.0430   33.6550 C   0  0  0  0  0  0  0  0  0  0  0  0
   37.0330   27.2820   34.1450 N   0  0  0  0  0  0  0  0  0  0  0  0
   37.5490   28.6160   35.7110 H   0  0  0  0  0  0  0  0  0  0  0  0
   38.8680   26.9700   36.8870 H   0  0  0  0  0  0  0  0  0  0  0  0
   37.8010   24.1380   38.2800 Cl  0  0  0  0  0  0  0  0  0  0  0  0
   39.1000   23.6440   37.2430 C   0  0  0  0  0  0  0  0  0  0  0  0
   39.2960   24.3080   36.0680 C   0  0  0  0  0  0  0  0  0  0  0  0
   40.3730   23.8220   35.3620 C   0  0  0  0  0  0  0  0  0  0  0  0
   40.6860   24.2340   34.3900 H   0  0  0  0  0  0  0  0  0  0  0  0
   41.1680   22.7850   35.7850 C   0  0  0  0  0  0  0  0  0  0  0  0
   42.0000   22.4340   35.2080 H   0  0  0  0  0  0  0  0  0  0  0  0
   40.9220   22.1510   36.9800 C   0  0  0  0  0  3  0  0  0  0  0  0
   39.8560   22.6010   37.7210 C   0  0  0  0  0  3  0  0  0  0  0  0
   36.6180   25.5300   32.5060 O   0  0  0  0  0  0  0  0  0  0  0  0
   36.2870   26.4100   31.4450 C   0  0  0  0  0  0  0  0  0  0  0  0
   35.5250   25.9440   30.7900 H   0  0  0  0  0  0  0  0  0  0  0  0
   35.8650   27.3210   31.9430 H   0  0  0  0  0  0  0  0  0  0  0  0
   37.4930   26.8490   30.6900 C   0  0  0  0  0  0  0  0  0  0  0  0
   38.4180   26.8640   31.3030 H   0  0  0  0  0  0  0  0  0  0  0  0
   37.7100   26.1490   29.8460 H   0  0  0  0  0  0  0  0  0  0  0  0
   37.3500   28.2240   30.1180 C   0  0  0  0  0  0  0  0  0  0  0  0
   36.6440   29.1560   30.8720 C   0  0  0  0  0  0  0  0  0  0  0  0
   36.4620   30.4450   30.4320 C   0  0  0  0  0  0  0  0  0  0  0  0
   36.9690   30.8210   29.2570 N   0  0  0  0  0  0  0  0  0  0  0  0
   37.6590   29.8940   28.5290 C   0  0  0  0  0  0  0  0  0  0  0  0
   37.8590   28.6330   28.9200 N   0  0  0  0  0  0  0  0  0  0  0  0
   36.2250   28.8580   31.8330 H   0  0  0  0  0  0  0  0  0  0  0  0
   35.9140   31.1740   31.0130 H   0  0  0  0  0  0  0  0  0  0  0  0
   38.1170   30.0930   27.5550 H   0  0  0  0  0  0  0  0  0  0  0  0
  1  7  1  0  0  0  0
  1  2  1  0  0  0  0
  2  8  1  0  0  0  0
  3  2  2  0  0  0  0
  3 11  1  0  0  0  0
  4  3  1  0  0  0  0
  5  6  1  0  0  0  0
  5  4  2  0  0  0  0
  6  1  2  0  0  0  0
 10 17  1  0  0  0  0
 10  9  1  0  0  0  0
 11 10  2  0  0  0  0
 12 14  2  0  0  0  0
 12 11  1  0  0  0  0
 13 12  1  0  0  0  0
 14 16  1  0  0  0  0
 15 14  1  0  0  0  0
 16 17  2  0  0  0  0
 18  5  1  0  0  0  0
 19 21  1  0  0  0  0
 19 18  1  0  0  0  0
 20 19  1  0  0  0  0
 22 23  1  0  0  0  0
 22 19  1  0  0  0  0
 24 22  1  0  0  0  0
 25 22  1  0  0  0  0
 25 26  1  0  0  0  0
 26 31  1  0  0  0  0
 27 26  2  0  0  0  0
 27 32  1  0  0  0  0
 28 27  1  0  0  0  0
 29 30  1  0  0  0  0
 29 28  2  0  0  0  0
 30 25  2  0  0  0  0
 33 29  1  0  0  0  0
M  END
>  <minimizedAffinity>
-5.11985016

$$$$

 OpenBabel03272509513D

 33 35  0  0  0  0  0  0  0  0999 V2000
   35.9800   26.3300   31.0270 C   0  0  0  0  0  0  0  0  0  0  0  0
   35.7090   27.6690   31.3210 C   0  0  0  0  0  0  0  0  0  0  0  0
   36.1230   28.1960   32.5210 C   0  0  0  0  0  0  0  0  0  0  0  0
   36.7840   27.3210   33.3340 N   0  0  0  0  0  0  0  0  0  0  0  0
   37.0440   26.0510   33.0600 C   0  0  0  0  0  0  0  0  0  0  0  0
   36.6330   25.5550   31.8860 N   0  0  0  0  0  0  0  0  0  0  0  0
   35.6300   25.9610   30.0610 H   0  0  0  0  0  0  0  0  0  0  0  0
   35.1850   28.2640   30.6400 H   0  0  0  0  0  0  0  0  0  0  0  0
   36.2840   30.7450   30.6740 Cl  0  0  0  0  0  0  0  0  0  0  0  0
   35.9760   30.7330   32.3810 C   0  0  0  0  0  0  0  0  0  0  0  0
   35.9410   29.5370   33.0360 C   0  0  0  0  0  0  0  0  0  0  0  0
   35.7100   29.6840   34.3850 C   0  0  0  0  0  0  0  0  0  0  0  0
   35.6490   28.8310   35.0770 H   0  0  0  0  0  0  0  0  0  0  0  0
   35.5330   30.8940   35.0100 C   0  0  0  0  0  0  0  0  0  0  0  0
   35.3550   30.9700   36.0650 H   0  0  0  0  0  0  0  0  0  0  0  0
   35.5770   32.0690   34.2970 C   0  0  0  0  0  3  0  0  0  0  0  0
   35.8060   31.9730   32.9460 C   0  0  0  0  0  3  0  0  0  0  0  0
   37.7230   25.3980   34.0560 O   0  0  0  0  0  0  0  0  0  0  0  0
   38.7100   24.4420   33.7090 C   0  0  0  0  0  0  0  0  0  0  0  0
   38.7910   24.3620   32.6070 H   0  0  0  0  0  0  0  0  0  0  0  0
   39.6650   24.8390   34.1400 H   0  0  0  0  0  0  0  0  0  0  0  0
   38.4600   23.1240   34.3560 C   0  0  0  0  0  0  0  0  0  0  0  0
   37.4280   22.7450   34.2040 H   0  0  0  0  0  0  0  0  0  0  0  0
   39.1280   22.3370   33.9280 H   0  0  0  0  0  0  0  0  0  0  0  0
   38.6790   23.1530   35.8360 C   0  0  0  0  0  0  0  0  0  0  0  0
   39.8790   22.6350   36.3100 C   0  0  0  0  0  0  0  0  0  0  0  0
   40.1730   22.6200   37.6530 C   0  0  0  0  0  0  0  0  0  0  0  0
   39.2950   23.1110   38.5280 N   0  0  0  0  0  0  0  0  0  0  0  0
   38.1210   23.6170   38.0450 C   0  0  0  0  0  0  0  0  0  0  0  0
   37.7970   23.6500   36.7510 N   0  0  0  0  0  0  0  0  0  0  0  0
   40.6030   22.2300   35.6040 H   0  0  0  0  0  0  0  0  0  0  0  0
   41.1040   22.2180   38.0290 H   0  0  0  0  0  0  0  0  0  0  0  0
   37.3310   24.0450   38.6720 H   0  0  0  0  0  0  0  0  0  0  0  0
  1  2  2  0  0  0  0
  1  6  1  0  0  0  0
  2  3  1  0  0  0  0
  3 11  1  0  0  0  0
  3  4  2  0  0  0  0
  5  4  1  0  0  0  0
  5 18  1  0  0  0  0
  6  5  2  0  0  0  0
  7  1  1  0  0  0  0
  8  2  1  0  0  0  0
  9 10  1  0  0  0  0
 10 17  2  0  0  0  0
 10 11  1  0  0  0  0
 11 12  2  0  0  0  0
 12 14  1  0  0  0  0
 12 13  1  0  0  0  0
 14 15  1  0  0  0  0
 16 14  2  0  0  0  0
 17 16  1  0  0  0  0
 19 18  1  0  0  0  0
 19 21  1  0  0  0  0
 19 22  1  0  0  0  0
 20 19  1  0  0  0  0
 22 25  1  0  0  0  0
 23 22  1  0  0  0  0
 24 22  1  0  0  0  0
 25 26  2  0  0  0  0
 25 30  1  0  0  0  0
 26 27  1  0  0  0  0
 27 32  1  0  0  0  0
 27 28  2  0  0  0  0
 29 28  1  0  0  0  0
 29 33  1  0  0  0  0
 30 29  2  0  0  0  0
 31 26  1  0  0  0  0
M  END
>  <minimizedAffinity>
-5.01245213

$$$$
