
 OpenBabel03272506003D

 44 47  0  0  1  0  0  0  0  0999 V2000
   36.4870   28.3250   31.3720 C   0  0  2  0  0  0  0  0  0  0  0  0
   36.5610   26.9900   32.0110 C   0  0  0  0  0  0  0  0  0  0  0  0
   38.0020   26.4730   32.1430 C   0  0  2  0  0  0  0  0  0  0  0  0
   38.7390   26.4220   30.8800 C   0  0  0  0  0  0  0  0  0  0  0  0
   38.4350   27.6010   29.9530 C   0  0  0  0  0  0  0  0  0  0  0  0
   37.7840   28.7330   30.7060 C   0  0  0  0  0  0  0  0  0  0  0  0
   35.7270   28.3880   30.5370 H   0  0  0  0  0  0  0  0  0  0  0  0
   36.1480   26.7950   32.9700 H   0  0  0  0  0  0  0  0  0  0  0  0
   36.1070   26.2650   31.2530 H   0  0  0  0  0  0  0  0  0  0  0  0
   38.4750   27.0800   32.9090 H   0  0  0  0  0  0  0  0  0  0  0  0
   39.8410   26.4580   31.1310 H   0  0  0  0  0  0  0  0  0  0  0  0
   38.6260   25.5000   30.2900 H   0  0  0  0  0  0  0  0  0  0  0  0
   39.3880   27.9900   29.5410 H   0  0  0  0  0  0  0  0  0  0  0  0
   37.8350   27.2900   29.0750 H   0  0  0  0  0  0  0  0  0  0  0  0
   37.6010   29.5410   29.9930 H   0  0  0  0  0  0  0  0  0  0  0  0
   38.4760   29.0450   31.5180 H   0  0  0  0  0  0  0  0  0  0  0  0
   38.8410   26.1560   34.9410 Cl  0  0  0  0  0  0  0  0  0  0  0  0
   38.2220   24.8150   33.9850 C   0  0  0  0  0  0  0  0  0  0  0  0
   37.8230   25.0910   32.6840 C   0  0  0  0  0  0  0  0  0  0  0  0
   37.3260   23.9830   32.0160 C   0  0  0  0  0  0  0  0  0  0  0  0
   37.2530   22.7530   32.6160 C   0  0  0  0  0  0  0  0  0  0  0  0
   37.6620   22.5380   33.9060 C   0  0  0  0  0  0  0  0  0  0  0  0
   38.1610   23.5960   34.6130 C   0  0  0  0  0  0  0  0  0  0  0  0
   37.0070   24.1830   30.9890 H   0  0  0  0  0  0  0  0  0  0  0  0
   36.8420   21.9370   31.9980 H   0  0  0  0  0  0  0  0  0  0  0  0
   37.5990   21.5640   34.3660 H   0  0  0  0  0  0  0  0  0  0  0  0
   40.9830   22.5880   35.2040 Cl  0  0  0  0  0  0  0  0  0  0  0  0
   39.8350   22.9890   36.4570 C   0  0  0  0  0  0  0  0  0  0  0  0
   38.6130   23.4270   35.9930 C   0  0  0  0  0  0  0  0  0  0  0  0
   37.6090   23.7790   36.8890 C   0  0  0  0  0  0  0  0  0  0  0  0
   36.6140   24.1350   36.6470 H   0  0  0  0  0  0  0  0  0  0  0  0
   37.8380   23.6890   38.2650 C   0  0  0  0  0  0  0  0  0  0  0  0
   37.0990   23.9480   39.0130 H   0  0  0  0  0  0  0  0  0  0  0  0
   39.0780   23.2450   38.7300 C   0  0  0  0  0  3  0  0  0  0  0  0
   40.0510   22.9030   37.8160 C   0  0  0  0  0  3  0  0  0  0  0  0
   36.1210   29.3960   32.3120 C   0  0  0  0  0  0  0  0  0  0  0  0
   35.8290   28.9720   33.6100 C   0  0  0  0  0  0  0  0  0  0  0  0
   35.4930   29.9580   34.5470 C   0  0  0  0  0  0  0  0  0  0  0  0
   35.4660   31.2890   34.1490 N   0  0  0  0  0  0  0  0  0  0  0  0
   35.7560   31.6490   32.8790 C   0  0  0  0  0  0  0  0  0  0  0  0
   36.0730   30.6910   32.0080 N   0  0  0  0  0  0  0  0  0  0  0  0
   35.7630   28.0670   34.1860 H   0  0  0  0  0  0  0  0  0  0  0  0
   35.2320   29.9060   35.5880 H   0  0  0  0  0  0  0  0  0  0  0  0
   35.7280   32.6900   32.5870 H   0  0  0  0  0  0  0  0  0  0  0  0
  1  7  1  6  0  0  0
  1  2  1  0  0  0  0
  1 36  1  0  0  0  0
  2  3  1  0  0  0  0
  2  8  1  0  0  0  0
  3 19  1  0  0  0  0
  3 10  1  1  0  0  0
  4 11  1  0  0  0  0
  4  3  1  0  0  0  0
  5  6  1  0  0  0  0
  5  4  1  0  0  0  0
  6  1  1  0  0  0  0
  6 16  1  0  0  0  0
  9  2  1  0  0  0  0
 12  4  1  0  0  0  0
 13  5  1  0  0  0  0
 14  5  1  0  0  0  0
 15  6  1  0  0  0  0
 18 23  1  0  0  0  0
 18 17  1  0  0  0  0
 19 18  2  0  0  0  0
 20 21  2  0  0  0  0
 20 19  1  0  0  0  0
 21 22  1  0  0  0  0
 22 26  1  0  0  0  0
 22 23  2  0  0  0  0
 23 29  1  0  0  0  0
 24 20  1  0  0  0  0
 25 21  1  0  0  0  0
 27 28  1  0  0  0  0
 28 35  1  0  0  0  0
 29 28  2  0  0  0  0
 29 30  1  0  0  0  0
 30 32  2  0  0  0  0
 31 30  1  0  0  0  0
 32 34  1  0  0  0  0
 32 33  1  0  0  0  0
 35 34  2  0  0  0  0
 36 37  1  0  0  0  0
 37 42  1  0  0  0  0
 37 38  2  0  0  0  0
 38 43  1  0  0  0  0
 39 38  1  0  0  0  0
 40 39  2  0  0  0  0
 41 36  2  0  0  0  0
 41 40  1  0  0  0  0
 44 40  1  0  0  0  0
M  END
>  <minimizedAffinity>
-6.1465764

$$$$

 OpenBabel03272506003D

 44 47  0  0  1  0  0  0  0  0999 V2000
   37.5520   24.5920   33.2960 C   0  0  2  0  0  0  0  0  0  0  0  0
   36.9510   25.8710   32.8530 C   0  0  0  0  0  0  0  0  0  0  0  0
   37.9900   26.8560   32.2960 C   0  0  2  0  0  0  0  0  0  0  0  0
   39.0870   27.1560   33.2180 C   0  0  0  0  0  0  0  0  0  0  0  0
   39.5450   25.9420   34.0290 C   0  0  0  0  0  0  0  0  0  0  0  0
   39.0610   24.6560   33.4070 C   0  0  0  0  0  0  0  0  0  0  0  0
   37.2220   24.2670   34.3270 H   0  0  0  0  0  0  0  0  0  0  0  0
   36.1710   25.9140   32.1320 H   0  0  0  0  0  0  0  0  0  0  0  0
   36.6060   26.3920   33.8090 H   0  0  0  0  0  0  0  0  0  0  0  0
   38.3120   26.4540   31.3400 H   0  0  0  0  0  0  0  0  0  0  0  0
   39.9640   27.5050   32.5960 H   0  0  0  0  0  0  0  0  0  0  0  0
   38.9120   27.9800   33.9260 H   0  0  0  0  0  0  0  0  0  0  0  0
   40.6540   25.9060   34.0270 H   0  0  0  0  0  0  0  0  0  0  0  0
   39.2500   26.0230   35.0930 H   0  0  0  0  0  0  0  0  0  0  0  0
   39.4260   23.8330   34.0270 H   0  0  0  0  0  0  0  0  0  0  0  0
   39.4610   24.6070   32.3720 H   0  0  0  0  0  0  0  0  0  0  0  0
   36.6780   27.9630   34.6810 Cl  0  0  0  0  0  0  0  0  0  0  0  0
   36.4950   28.6810   33.0850 C   0  0  0  0  0  0  0  0  0  0  0  0
   37.1900   28.0920   32.0380 C   0  0  0  0  0  0  0  0  0  0  0  0
   37.0070   28.7380   30.8250 C   0  0  0  0  0  0  0  0  0  0  0  0
   36.2080   29.8470   30.7140 C   0  0  0  0  0  0  0  0  0  0  0  0
   35.5440   30.3870   31.7830 C   0  0  0  0  0  0  0  0  0  0  0  0
   35.6890   29.7890   33.0050 C   0  0  0  0  0  0  0  0  0  0  0  0
   37.5480   28.2870   29.9880 H   0  0  0  0  0  0  0  0  0  0  0  0
   36.1290   30.2860   29.7040 H   0  0  0  0  0  0  0  0  0  0  0  0
   34.9190   31.2590   31.6810 H   0  0  0  0  0  0  0  0  0  0  0  0
   32.7620   29.0990   33.5350 Cl  0  0  0  0  0  0  0  0  0  0  0  0
   33.7020   30.1250   34.5890 C   0  0  0  0  0  0  0  0  0  0  0  0
   35.0050   30.3200   34.1830 C   0  0  0  0  0  0  0  0  0  0  0  0
   35.8610   31.1180   34.9350 C   0  0  0  0  0  0  0  0  0  0  0  0
   36.8990   31.3440   34.7190 H   0  0  0  0  0  0  0  0  0  0  0  0
   35.4010   31.7250   36.1070 C   0  0  0  0  0  0  0  0  0  0  0  0
   36.0170   32.3560   36.7360 H   0  0  0  0  0  0  0  0  0  0  0  0
   34.0800   31.5240   36.5140 C   0  0  0  0  0  3  0  0  0  0  0  0
   33.2570   30.7270   35.7470 C   0  0  0  0  0  3  0  0  0  0  0  0
   37.2270   23.4630   32.4090 C   0  0  0  0  0  0  0  0  0  0  0  0
   38.3180   22.6900   32.0070 C   0  0  0  0  0  0  0  0  0  0  0  0
   38.0560   21.5920   31.1770 C   0  0  0  0  0  0  0  0  0  0  0  0
   36.7460   21.3280   30.7970 N   0  0  0  0  0  0  0  0  0  0  0  0
   35.7230   22.1080   31.2130 C   0  0  0  0  0  0  0  0  0  0  0  0
   35.9990   23.1460   32.0030 N   0  0  0  0  0  0  0  0  0  0  0  0
   39.3860   22.6490   32.1230 H   0  0  0  0  0  0  0  0  0  0  0  0
   38.6960   20.8520   30.7350 H   0  0  0  0  0  0  0  0  0  0  0  0
   34.7090   21.8870   30.9060 H   0  0  0  0  0  0  0  0  0  0  0  0
  1  6  1  0  0  0  0
  1  7  1  1  0  0  0
  2  1  1  0  0  0  0
  2  9  1  0  0  0  0
  3 10  1  6  0  0  0
  3  2  1  0  0  0  0
  3  4  1  0  0  0  0
  4 12  1  0  0  0  0
  4  5  1  0  0  0  0
  5 14  1  0  0  0  0
  6 15  1  0  0  0  0
  6  5  1  0  0  0  0
  8  2  1  0  0  0  0
 11  4  1  0  0  0  0
 13  5  1  0  0  0  0
 16  6  1  0  0  0  0
 18 17  1  0  0  0  0
 19  3  1  0  0  0  0
 19 18  2  0  0  0  0
 20 19  1  0  0  0  0
 21 20  2  0  0  0  0
 21 22  1  0  0  0  0
 22 23  2  0  0  0  0
 23 18  1  0  0  0  0
 23 29  1  0  0  0  0
 24 20  1  0  0  0  0
 25 21  1  0  0  0  0
 26 22  1  0  0  0  0
 27 28  1  0  0  0  0
 28 35  1  0  0  0  0
 29 28  2  0  0  0  0
 29 30  1  0  0  0  0
 30 32  2  0  0  0  0
 31 30  1  0  0  0  0
 32 34  1  0  0  0  0
 32 33  1  0  0  0  0
 35 34  2  0  0  0  0
 36  1  1  0  0  0  0
 37 42  1  0  0  0  0
 37 36  1  0  0  0  0
 38 37  2  0  0  0  0
 39 38  1  0  0  0  0
 39 40  2  0  0  0  0
 40 41  1  0  0  0  0
 41 36  2  0  0  0  0
 43 38  1  0  0  0  0
 44 40  1  0  0  0  0
M  END
>  <minimizedAffinity>
-6.10011578

$$$$

 OpenBabel03272506003D

 44 47  0  0  1  0  0  0  0  0999 V2000
   32.7410   30.6390   35.5120 C   0  0  2  0  0  0  0  0  0  0  0  0
   33.5040   30.2750   34.2950 C   0  0  0  0  0  0  0  0  0  0  0  0
   35.0200   30.2210   34.5370 C   0  0  2  0  0  0  0  0  0  0  0  0
   35.5850   31.4550   35.0860 C   0  0  0  0  0  0  0  0  0  0  0  0
   34.6740   32.1360   36.1090 C   0  0  0  0  0  0  0  0  0  0  0  0
   33.6190   31.1860   36.6180 C   0  0  0  0  0  0  0  0  0  0  0  0
   31.9810   31.4590   35.3440 H   0  0  0  0  0  0  0  0  0  0  0  0
   33.3160   29.3820   33.7510 H   0  0  0  0  0  0  0  0  0  0  0  0
   33.3990   31.1700   33.5920 H   0  0  0  0  0  0  0  0  0  0  0  0
   35.2010   29.3410   35.1470 H   0  0  0  0  0  0  0  0  0  0  0  0
   36.5470   31.1810   35.6110 H   0  0  0  0  0  0  0  0  0  0  0  0
   35.8850   32.2170   34.3510 H   0  0  0  0  0  0  0  0  0  0  0  0
   35.2820   32.4440   36.9840 H   0  0  0  0  0  0  0  0  0  0  0  0
   34.2310   33.0690   35.7090 H   0  0  0  0  0  0  0  0  0  0  0  0
   33.0110   31.7280   37.3450 H   0  0  0  0  0  0  0  0  0  0  0  0
   34.1370   30.3150   37.0750 H   0  0  0  0  0  0  0  0  0  0  0  0
   36.4330   27.6580   34.2690 Cl  0  0  0  0  0  0  0  0  0  0  0  0
   36.2990   28.8040   32.9410 C   0  0  0  0  0  0  0  0  0  0  0  0
   35.5780   29.9670   33.1740 C   0  0  0  0  0  0  0  0  0  0  0  0
   35.5040   30.7980   32.0660 C   0  0  0  0  0  0  0  0  0  0  0  0
   36.0980   30.4660   30.8770 C   0  0  0  0  0  0  0  0  0  0  0  0
   36.7990   29.3020   30.7030 C   0  0  0  0  0  0  0  0  0  0  0  0
   36.9040   28.4450   31.7630 C   0  0  0  0  0  0  0  0  0  0  0  0
   34.9390   31.7200   32.2330 H   0  0  0  0  0  0  0  0  0  0  0  0
   35.9800   31.1960   30.0570 H   0  0  0  0  0  0  0  0  0  0  0  0
   37.2620   29.0540   29.7610 H   0  0  0  0  0  0  0  0  0  0  0  0
   35.4570   25.8800   30.9550 Cl  0  0  0  0  0  0  0  0  0  0  0  0
   37.1700   25.9400   31.2880 C   0  0  0  0  0  0  0  0  0  0  0  0
   37.6400   27.1870   31.6370 C   0  0  0  0  0  0  0  0  0  0  0  0
   38.9880   27.3720   31.9270 C   0  0  0  0  0  0  0  0  0  0  0  0
   39.4730   28.2990   32.2120 H   0  0  0  0  0  0  0  0  0  0  0  0
   39.8710   26.2900   31.8650 C   0  0  0  0  0  0  0  0  0  0  0  0
   40.9290   26.3680   32.0790 H   0  0  0  0  0  0  0  0  0  0  0  0
   39.3890   25.0280   31.5100 C   0  0  0  0  0  3  0  0  0  0  0  0
   38.0480   24.8780   31.2290 C   0  0  0  0  0  3  0  0  0  0  0  0
   31.9800   29.5120   36.0740 C   0  0  0  0  0  0  0  0  0  0  0  0
   31.4220   28.6440   35.1330 C   0  0  0  0  0  0  0  0  0  0  0  0
   30.7030   27.5440   35.6210 C   0  0  0  0  0  0  0  0  0  0  0  0
   30.5790   27.3710   36.9940 N   0  0  0  0  0  0  0  0  0  0  0  0
   31.1370   28.2410   37.8640 C   0  0  0  0  0  0  0  0  0  0  0  0
   31.8170   29.2780   37.3750 N   0  0  0  0  0  0  0  0  0  0  0  0
   31.3450   28.5230   34.0680 H   0  0  0  0  0  0  0  0  0  0  0  0
   30.1870   26.7430   35.1260 H   0  0  0  0  0  0  0  0  0  0  0  0
   31.0290   28.0910   38.9310 H   0  0  0  0  0  0  0  0  0  0  0  0
  1  7  1  6  0  0  0
  1 36  1  0  0  0  0
  1  6  1  0  0  0  0
  2  3  1  0  0  0  0
  2  1  1  0  0  0  0
  3  4  1  0  0  0  0
  3 10  1  1  0  0  0
  4 11  1  0  0  0  0
  4  5  1  0  0  0  0
  5  6  1  0  0  0  0
  5 13  1  0  0  0  0
  6 16  1  0  0  0  0
  6 15  1  0  0  0  0
  8  2  1  0  0  0  0
  9  2  1  0  0  0  0
 12  4  1  0  0  0  0
 14  5  1  0  0  0  0
 18 19  1  0  0  0  0
 18 17  1  0  0  0  0
 19  3  1  0  0  0  0
 20 24  1  0  0  0  0
 20 19  2  0  0  0  0
 21 20  1  0  0  0  0
 22 21  2  0  0  0  0
 22 23  1  0  0  0  0
 23 18  2  0  0  0  0
 25 21  1  0  0  0  0
 26 22  1  0  0  0  0
 27 28  1  0  0  0  0
 28 29  1  0  0  0  0
 29 23  1  0  0  0  0
 29 30  2  0  0  0  0
 30 31  1  0  0  0  0
 32 30  1  0  0  0  0
 32 33  1  0  0  0  0
 34 32  2  0  0  0  0
 35 28  2  0  0  0  0
 35 34  1  0  0  0  0
 36 41  1  0  0  0  0
 37 38  1  0  0  0  0
 37 36  2  0  0  0  0
 38 39  2  0  0  0  0
 39 40  1  0  0  0  0
 40 44  1  0  0  0  0
 41 40  2  0  0  0  0
 42 37  1  0  0  0  0
 43 38  1  0  0  0  0
M  END
>  <minimizedAffinity>
-6.09197807

$$$$

 OpenBabel03272506003D

 44 47  0  0  1  0  0  0  0  0999 V2000
   35.0350   29.7860   32.9210 C   0  0  2  0  0  0  0  0  0  0  0  0
   35.4050   28.3540   33.0190 C   0  0  0  0  0  0  0  0  0  0  0  0
   36.8830   28.0980   32.6870 C   0  0  2  0  0  0  0  0  0  0  0  0
   37.2970   28.5940   31.3730 C   0  0  0  0  0  0  0  0  0  0  0  0
   36.6530   29.9300   30.9990 C   0  0  0  0  0  0  0  0  0  0  0  0
   36.0830   30.6190   32.2130 C   0  0  0  0  0  0  0  0  0  0  0  0
   34.0950   29.9720   32.3220 H   0  0  0  0  0  0  0  0  0  0  0  0
   35.2580   27.7880   33.9060 H   0  0  0  0  0  0  0  0  0  0  0  0
   34.8650   27.8420   32.1520 H   0  0  0  0  0  0  0  0  0  0  0  0
   37.4570   28.5020   33.5140 H   0  0  0  0  0  0  0  0  0  0  0  0
   38.4160   28.7500   31.4090 H   0  0  0  0  0  0  0  0  0  0  0  0
   37.1470   27.9070   30.5270 H   0  0  0  0  0  0  0  0  0  0  0  0
   37.4320   30.6010   30.5810 H   0  0  0  0  0  0  0  0  0  0  0  0
   35.8980   29.8130   30.1970 H   0  0  0  0  0  0  0  0  0  0  0  0
   35.6470   31.5650   31.8810 H   0  0  0  0  0  0  0  0  0  0  0  0
   36.9110   30.7750   32.9380 H   0  0  0  0  0  0  0  0  0  0  0  0
   38.3000   27.0510   35.0390 Cl  0  0  0  0  0  0  0  0  0  0  0  0
   37.6740   26.0030   33.7720 C   0  0  0  0  0  0  0  0  0  0  0  0
   36.9910   26.6070   32.7250 C   0  0  0  0  0  0  0  0  0  0  0  0
   36.5120   25.7040   31.7880 C   0  0  0  0  0  0  0  0  0  0  0  0
   36.7160   24.3550   31.9200 C   0  0  0  0  0  0  0  0  0  0  0  0
   37.3990   23.8130   32.9760 C   0  0  0  0  0  0  0  0  0  0  0  0
   37.8930   24.6580   33.9310 C   0  0  0  0  0  0  0  0  0  0  0  0
   35.9710   26.1640   30.9560 H   0  0  0  0  0  0  0  0  0  0  0  0
   36.2940   23.7230   31.1200 H   0  0  0  0  0  0  0  0  0  0  0  0
   37.5510   22.7490   33.0670 H   0  0  0  0  0  0  0  0  0  0  0  0
   40.9170   24.2540   33.7750 Cl  0  0  0  0  0  0  0  0  0  0  0  0
   39.9810   23.8880   35.2030 C   0  0  0  0  0  0  0  0  0  0  0  0
   38.6310   24.1370   35.0810 C   0  0  0  0  0  0  0  0  0  0  0  0
   37.7740   23.8890   36.1470 C   0  0  0  0  0  0  0  0  0  0  0  0
   36.7000   24.0430   36.1710 H   0  0  0  0  0  0  0  0  0  0  0  0
   38.2800   23.3840   37.3490 C   0  0  0  0  0  0  0  0  0  0  0  0
   37.6660   23.1700   38.2150 H   0  0  0  0  0  0  0  0  0  0  0  0
   39.6490   23.1340   37.4680 C   0  0  0  0  0  3  0  0  0  0  0  0
   40.4720   23.3910   36.3920 C   0  0  0  0  0  3  0  0  0  0  0  0
   34.7910   30.4100   34.2320 C   0  0  0  0  0  0  0  0  0  0  0  0
   35.8990   31.0380   34.8050 C   0  0  0  0  0  0  0  0  0  0  0  0
   35.7100   31.6630   36.0450 C   0  0  0  0  0  0  0  0  0  0  0  0
   34.4540   31.6290   36.6370 N   0  0  0  0  0  0  0  0  0  0  0  0
   33.4130   31.0060   36.0410 C   0  0  0  0  0  0  0  0  0  0  0  0
   33.6180   30.4200   34.8610 N   0  0  0  0  0  0  0  0  0  0  0  0
   36.9390   31.2170   34.6050 H   0  0  0  0  0  0  0  0  0  0  0  0
   36.3780   32.2060   36.6880 H   0  0  0  0  0  0  0  0  0  0  0  0
   32.4420   30.9900   36.5180 H   0  0  0  0  0  0  0  0  0  0  0  0
  1  7  1  6  0  0  0
  1  2  1  0  0  0  0
  1 36  1  0  0  0  0
  2  8  1  0  0  0  0
  3 19  1  0  0  0  0
  3  2  1  0  0  0  0
  3 10  1  1  0  0  0
  4 11  1  0  0  0  0
  4  3  1  0  0  0  0
  5  4  1  0  0  0  0
  5  6  1  0  0  0  0
  6  1  1  0  0  0  0
  6 16  1  0  0  0  0
  9  2  1  0  0  0  0
 12  4  1  0  0  0  0
 13  5  1  0  0  0  0
 14  5  1  0  0  0  0
 15  6  1  0  0  0  0
 18 23  1  0  0  0  0
 18 17  1  0  0  0  0
 19 18  2  0  0  0  0
 20 21  2  0  0  0  0
 20 19  1  0  0  0  0
 21 22  1  0  0  0  0
 22 26  1  0  0  0  0
 22 23  2  0  0  0  0
 23 29  1  0  0  0  0
 24 20  1  0  0  0  0
 25 21  1  0  0  0  0
 27 28  1  0  0  0  0
 28 35  1  0  0  0  0
 29 28  2  0  0  0  0
 29 30  1  0  0  0  0
 30 31  1  0  0  0  0
 30 32  2  0  0  0  0
 32 34  1  0  0  0  0
 32 33  1  0  0  0  0
 35 34  2  0  0  0  0
 36 37  2  0  0  0  0
 36 41  1  0  0  0  0
 37 38  1  0  0  0  0
 38 39  2  0  0  0  0
 38 43  1  0  0  0  0
 40 44  1  0  0  0  0
 40 39  1  0  0  0  0
 41 40  2  0  0  0  0
 42 37  1  0  0  0  0
M  END
>  <minimizedAffinity>
-6.054142

$$$$

 OpenBabel03272506003D

 44 47  0  0  1  0  0  0  0  0999 V2000
   40.2490   24.8480   35.2990 C   0  0  2  0  0  0  0  0  0  0  0  0
   39.0690   24.3790   34.5360 C   0  0  0  0  0  0  0  0  0  0  0  0
   39.1810   24.6670   33.0310 C   0  0  2  0  0  0  0  0  0  0  0  0
   39.4120   26.0750   32.7050 C   0  0  0  0  0  0  0  0  0  0  0  0
   40.3510   26.7780   33.6870 C   0  0  0  0  0  0  0  0  0  0  0  0
   41.1360   25.7800   34.5000 C   0  0  0  0  0  0  0  0  0  0  0  0
   39.9850   25.4520   36.2180 H   0  0  0  0  0  0  0  0  0  0  0  0
   38.7390   23.3690   34.5620 H   0  0  0  0  0  0  0  0  0  0  0  0
   38.2100   25.0620   34.8550 H   0  0  0  0  0  0  0  0  0  0  0  0
   39.9390   23.9930   32.6460 H   0  0  0  0  0  0  0  0  0  0  0  0
   39.8940   26.1100   31.6830 H   0  0  0  0  0  0  0  0  0  0  0  0
   38.5130   26.7010   32.6010 H   0  0  0  0  0  0  0  0  0  0  0  0
   41.0860   27.3800   33.1140 H   0  0  0  0  0  0  0  0  0  0  0  0
   39.8090   27.5000   34.3290 H   0  0  0  0  0  0  0  0  0  0  0  0
   41.7880   26.3430   35.1720 H   0  0  0  0  0  0  0  0  0  0  0  0
   41.7140   25.1450   33.7950 H   0  0  0  0  0  0  0  0  0  0  0  0
   38.7540   21.7600   33.0830 Cl  0  0  0  0  0  0  0  0  0  0  0  0
   37.5570   22.8770   32.4380 C   0  0  0  0  0  0  0  0  0  0  0  0
   37.8540   24.2320   32.4970 C   0  0  0  0  0  0  0  0  0  0  0  0
   36.8450   25.0370   31.9910 C   0  0  0  0  0  0  0  0  0  0  0  0
   35.6850   24.5070   31.4890 C   0  0  0  0  0  0  0  0  0  0  0  0
   35.4450   23.1590   31.4560 C   0  0  0  0  0  0  0  0  0  0  0  0
   36.4060   22.3170   31.9430 C   0  0  0  0  0  0  0  0  0  0  0  0
   37.0630   26.1080   32.0300 H   0  0  0  0  0  0  0  0  0  0  0  0
   34.9460   25.2340   31.1110 H   0  0  0  0  0  0  0  0  0  0  0  0
   34.5270   22.7560   31.0580 H   0  0  0  0  0  0  0  0  0  0  0  0
   35.5290   20.8590   34.4790 Cl  0  0  0  0  0  0  0  0  0  0  0  0
   35.8170   20.0410   32.9640 C   0  0  0  0  0  0  0  0  0  0  0  0
   36.2060   20.8690   31.9330 C   0  0  0  0  0  0  0  0  0  0  0  0
   36.4670   20.3420   30.6730 C   0  0  0  0  0  0  0  0  0  0  0  0
   36.7780   20.8880   29.7890 H   0  0  0  0  0  0  0  0  0  0  0  0
   36.3350   18.9690   30.4480 C   0  0  0  0  0  0  0  0  0  0  0  0
   36.5220   18.4980   29.4910 H   0  0  0  0  0  0  0  0  0  0  0  0
   35.9390   18.1340   31.4960 C   0  0  0  0  0  3  0  0  0  0  0  0
   35.6880   18.6880   32.7330 C   0  0  0  0  0  3  0  0  0  0  0  0
   41.0960   23.7480   35.7870 C   0  0  0  0  0  0  0  0  0  0  0  0
   42.4710   23.9800   35.7120 C   0  0  0  0  0  0  0  0  0  0  0  0
   43.3190   22.9680   36.1830 C   0  0  0  0  0  0  0  0  0  0  0  0
   42.7630   21.8010   36.6930 N   0  0  0  0  0  0  0  0  0  0  0  0
   41.4240   21.6250   36.7420 C   0  0  0  0  0  0  0  0  0  0  0  0
   40.6390   22.6030   36.2890 N   0  0  0  0  0  0  0  0  0  0  0  0
   43.1630   24.7340   35.3830 H   0  0  0  0  0  0  0  0  0  0  0  0
   44.3890   22.8920   36.2400 H   0  0  0  0  0  0  0  0  0  0  0  0
   41.0090   20.7090   37.1420 H   0  0  0  0  0  0  0  0  0  0  0  0
  1 36  1  0  0  0  0
  1  7  1  1  0  0  0
  2  8  1  0  0  0  0
  2  9  1  0  0  0  0
  2  1  1  0  0  0  0
  3 10  1  6  0  0  0
  3  2  1  0  0  0  0
  4  3  1  0  0  0  0
  4  5  1  0  0  0  0
  5 14  1  0  0  0  0
  5  6  1  0  0  0  0
  6 15  1  0  0  0  0
  6  1  1  0  0  0  0
 11  4  1  0  0  0  0
 12  4  1  0  0  0  0
 13  5  1  0  0  0  0
 16  6  1  0  0  0  0
 18 19  1  0  0  0  0
 18 17  1  0  0  0  0
 19  3  1  0  0  0  0
 20 24  1  0  0  0  0
 20 19  2  0  0  0  0
 21 20  1  0  0  0  0
 22 21  2  0  0  0  0
 22 23  1  0  0  0  0
 23 18  2  0  0  0  0
 25 21  1  0  0  0  0
 26 22  1  0  0  0  0
 28 27  1  0  0  0  0
 29 23  1  0  0  0  0
 29 28  2  0  0  0  0
 30 29  1  0  0  0  0
 31 30  1  0  0  0  0
 32 30  2  0  0  0  0
 32 34  1  0  0  0  0
 33 32  1  0  0  0  0
 34 35  2  0  0  0  0
 35 28  1  0  0  0  0
 36 41  1  0  0  0  0
 37 36  2  0  0  0  0
 37 38  1  0  0  0  0
 38 43  1  0  0  0  0
 38 39  2  0  0  0  0
 39 40  1  0  0  0  0
 40 44  1  0  0  0  0
 41 40  2  0  0  0  0
 42 37  1  0  0  0  0
M  END
>  <minimizedAffinity>
-6.04066038

$$$$

 OpenBabel03272506003D

 44 47  0  0  1  0  0  0  0  0999 V2000
   38.9030   26.0130   32.9950 C   0  0  2  0  0  0  0  0  0  0  0  0
   38.2620   27.3490   32.9780 C   0  0  0  0  0  0  0  0  0  0  0  0
   37.0810   27.4290   31.9990 C   0  0  2  0  0  0  0  0  0  0  0  0
   37.4170   27.0600   30.6230 C   0  0  0  0  0  0  0  0  0  0  0  0
   38.4040   25.8950   30.5310 C   0  0  0  0  0  0  0  0  0  0  0  0
   38.4770   25.1390   31.8340 C   0  0  0  0  0  0  0  0  0  0  0  0
   40.0300   26.0480   32.9040 H   0  0  0  0  0  0  0  0  0  0  0  0
   37.8760   27.8050   33.8570 H   0  0  0  0  0  0  0  0  0  0  0  0
   39.0280   28.0470   32.4990 H   0  0  0  0  0  0  0  0  0  0  0  0
   36.2820   26.8370   32.4340 H   0  0  0  0  0  0  0  0  0  0  0  0
   36.4590   26.7390   30.1170 H   0  0  0  0  0  0  0  0  0  0  0  0
   37.8010   27.8700   29.9850 H   0  0  0  0  0  0  0  0  0  0  0  0
   38.0480   25.1810   29.7610 H   0  0  0  0  0  0  0  0  0  0  0  0
   39.4040   26.2280   30.1900 H   0  0  0  0  0  0  0  0  0  0  0  0
   39.1900   24.3210   31.7000 H   0  0  0  0  0  0  0  0  0  0  0  0
   37.4570   24.7680   32.0700 H   0  0  0  0  0  0  0  0  0  0  0  0
   35.7170   28.2030   34.4840 Cl  0  0  0  0  0  0  0  0  0  0  0  0
   35.9970   29.3380   33.1690 C   0  0  0  0  0  0  0  0  0  0  0  0
   36.6830   28.8690   32.0570 C   0  0  0  0  0  0  0  0  0  0  0  0
   36.8800   29.8370   31.0850 C   0  0  0  0  0  0  0  0  0  0  0  0
   36.4250   31.1200   31.2440 C   0  0  0  0  0  0  0  0  0  0  0  0
   35.7530   31.5290   32.3650 C   0  0  0  0  0  0  0  0  0  0  0  0
   35.5310   30.6150   33.3580 C   0  0  0  0  0  0  0  0  0  0  0  0
   37.4190   29.4830   30.2010 H   0  0  0  0  0  0  0  0  0  0  0  0
   36.6340   31.8140   30.4120 H   0  0  0  0  0  0  0  0  0  0  0  0
   35.4010   32.5430   32.4770 H   0  0  0  0  0  0  0  0  0  0  0  0
   32.5400   30.0640   33.6360 Cl  0  0  0  0  0  0  0  0  0  0  0  0
   33.4850   30.8310   34.8870 C   0  0  0  0  0  0  0  0  0  0  0  0
   34.8180   30.9940   34.5770 C   0  0  0  0  0  0  0  0  0  0  0  0
   35.6810   31.5910   35.4890 C   0  0  0  0  0  0  0  0  0  0  0  0
   36.7430   31.7740   35.3600 H   0  0  0  0  0  0  0  0  0  0  0  0
   35.1980   32.0300   36.7260 C   0  0  0  0  0  0  0  0  0  0  0  0
   35.8180   32.5020   37.4780 H   0  0  0  0  0  0  0  0  0  0  0  0
   33.8470   31.8620   37.0350 C   0  0  0  0  0  3  0  0  0  0  0  0
   33.0170   31.2660   36.1090 C   0  0  0  0  0  3  0  0  0  0  0  0
   38.6370   25.2600   34.2310 C   0  0  0  0  0  0  0  0  0  0  0  0
   38.4700   26.0400   35.3770 C   0  0  0  0  0  0  0  0  0  0  0  0
   38.1950   25.3680   36.5760 C   0  0  0  0  0  0  0  0  0  0  0  0
   38.1040   23.9820   36.5700 N   0  0  0  0  0  0  0  0  0  0  0  0
   38.2750   23.2710   35.4330 C   0  0  0  0  0  0  0  0  0  0  0  0
   38.5350   23.9340   34.3060 N   0  0  0  0  0  0  0  0  0  0  0  0
   38.4860   27.0700   35.6820 H   0  0  0  0  0  0  0  0  0  0  0  0
   38.0260   25.7180   37.5770 H   0  0  0  0  0  0  0  0  0  0  0  0
   38.2020   22.1920   35.4480 H   0  0  0  0  0  0  0  0  0  0  0  0
  1  7  1  6  0  0  0
  1 36  1  0  0  0  0
  2  1  1  0  0  0  0
  2  8  1  0  0  0  0
  3 19  1  0  0  0  0
  3 10  1  1  0  0  0
  3  2  1  0  0  0  0
  4  3  1  0  0  0  0
  5  4  1  0  0  0  0
  5  6  1  0  0  0  0
  6 16  1  0  0  0  0
  6  1  1  0  0  0  0
  9  2  1  0  0  0  0
 11  4  1  0  0  0  0
 12  4  1  0  0  0  0
 13  5  1  0  0  0  0
 14  5  1  0  0  0  0
 15  6  1  0  0  0  0
 18 23  1  0  0  0  0
 18 17  1  0  0  0  0
 19 18  2  0  0  0  0
 20 21  2  0  0  0  0
 20 19  1  0  0  0  0
 21 22  1  0  0  0  0
 22 26  1  0  0  0  0
 22 23  2  0  0  0  0
 23 29  1  0  0  0  0
 24 20  1  0  0  0  0
 25 21  1  0  0  0  0
 27 28  1  0  0  0  0
 28 35  1  0  0  0  0
 29 28  2  0  0  0  0
 29 30  1  0  0  0  0
 30 32  2  0  0  0  0
 31 30  1  0  0  0  0
 32 34  1  0  0  0  0
 32 33  1  0  0  0  0
 35 34  2  0  0  0  0
 36 41  2  0  0  0  0
 36 37  1  0  0  0  0
 37 42  1  0  0  0  0
 37 38  2  0  0  0  0
 38 43  1  0  0  0  0
 39 38  1  0  0  0  0
 40 44  1  0  0  0  0
 40 39  2  0  0  0  0
 41 40  1  0  0  0  0
M  END
>  <minimizedAffinity>
-6.03958654

$$$$

 OpenBabel03272506003D

 44 47  0  0  1  0  0  0  0  0999 V2000
   39.3340   25.9930   31.5870 C   0  0  2  0  0  0  0  0  0  0  0  0
   38.5490   27.2470   31.6700 C   0  0  0  0  0  0  0  0  0  0  0  0
   37.1230   27.0230   32.1960 C   0  0  2  0  0  0  0  0  0  0  0  0
   36.3500   26.0430   31.4320 C   0  0  0  0  0  0  0  0  0  0  0  0
   37.1820   24.8510   30.9570 C   0  0  0  0  0  0  0  0  0  0  0  0
   38.4780   24.7510   31.7220 C   0  0  0  0  0  0  0  0  0  0  0  0
   39.8590   25.8500   30.5960 H   0  0  0  0  0  0  0  0  0  0  0  0
   38.8800   28.0890   32.2270 H   0  0  0  0  0  0  0  0  0  0  0  0
   38.3660   27.5620   30.5870 H   0  0  0  0  0  0  0  0  0  0  0  0
   37.2200   26.7860   33.2510 H   0  0  0  0  0  0  0  0  0  0  0  0
   35.5410   25.6460   32.1150 H   0  0  0  0  0  0  0  0  0  0  0  0
   35.8020   26.4320   30.5610 H   0  0  0  0  0  0  0  0  0  0  0  0
   36.6180   23.9160   31.1520 H   0  0  0  0  0  0  0  0  0  0  0  0
   37.3490   24.8760   29.8620 H   0  0  0  0  0  0  0  0  0  0  0  0
   39.0190   23.8810   31.3410 H   0  0  0  0  0  0  0  0  0  0  0  0
   38.2310   24.6480   32.8000 H   0  0  0  0  0  0  0  0  0  0  0  0
   36.2610   28.1860   34.7530 Cl  0  0  0  0  0  0  0  0  0  0  0  0
   36.0150   29.0040   33.2140 C   0  0  0  0  0  0  0  0  0  0  0  0
   36.4950   28.3740   32.0750 C   0  0  0  0  0  0  0  0  0  0  0  0
   36.2800   29.1010   30.9140 C   0  0  0  0  0  0  0  0  0  0  0  0
   35.6500   30.3180   30.9330 C   0  0  0  0  0  0  0  0  0  0  0  0
   35.1960   30.8940   32.0900 C   0  0  0  0  0  0  0  0  0  0  0  0
   35.3820   30.2200   33.2660 C   0  0  0  0  0  0  0  0  0  0  0  0
   36.6530   28.6180   30.0050 H   0  0  0  0  0  0  0  0  0  0  0  0
   35.5290   30.8150   29.9550 H   0  0  0  0  0  0  0  0  0  0  0  0
   34.7020   31.8520   32.0910 H   0  0  0  0  0  0  0  0  0  0  0  0
   32.6400   29.4690   34.3820 Cl  0  0  0  0  0  0  0  0  0  0  0  0
   33.7260   30.5700   35.1910 C   0  0  0  0  0  0  0  0  0  0  0  0
   34.9170   30.7850   34.5320 C   0  0  0  0  0  0  0  0  0  0  0  0
   35.8720   31.6410   35.0710 C   0  0  0  0  0  0  0  0  0  0  0  0
   36.8400   31.8880   34.6490 H   0  0  0  0  0  0  0  0  0  0  0  0
   35.6240   32.2880   36.2860 C   0  0  0  0  0  0  0  0  0  0  0  0
   36.3250   32.9660   36.7570 H   0  0  0  0  0  0  0  0  0  0  0  0
   34.4150   32.0670   36.9490 C   0  0  0  0  0  3  0  0  0  0  0  0
   33.4900   31.2120   36.3880 C   0  0  0  0  0  3  0  0  0  0  0  0
   40.3940   25.9070   32.6050 C   0  0  0  0  0  0  0  0  0  0  0  0
   41.0190   27.1160   32.9150 C   0  0  0  0  0  0  0  0  0  0  0  0
   42.0220   27.0880   33.8930 C   0  0  0  0  0  0  0  0  0  0  0  0
   42.3450   25.8790   34.4970 N   0  0  0  0  0  0  0  0  0  0  0  0
   41.7100   24.7340   34.1610 C   0  0  0  0  0  0  0  0  0  0  0  0
   40.7590   24.7890   33.2290 N   0  0  0  0  0  0  0  0  0  0  0  0
   40.9950   28.1530   32.6310 H   0  0  0  0  0  0  0  0  0  0  0  0
   42.6460   27.8570   34.3090 H   0  0  0  0  0  0  0  0  0  0  0  0
   41.9760   23.8020   34.6420 H   0  0  0  0  0  0  0  0  0  0  0  0
  1  7  1  6  0  0  0
  1  2  1  0  0  0  0
  1  6  1  0  0  0  0
  1 36  1  0  0  0  0
  2  3  1  0  0  0  0
  2  8  1  0  0  0  0
  3 10  1  1  0  0  0
  4 11  1  0  0  0  0
  4  3  1  0  0  0  0
  5 13  1  0  0  0  0
  5  4  1  0  0  0  0
  5  6  1  0  0  0  0
  6 16  1  0  0  0  0
  9  2  1  0  0  0  0
 12  4  1  0  0  0  0
 14  5  1  0  0  0  0
 15  6  1  0  0  0  0
 18 23  1  0  0  0  0
 18 17  1  0  0  0  0
 19  3  1  0  0  0  0
 19 18  2  0  0  0  0
 20 21  2  0  0  0  0
 20 19  1  0  0  0  0
 21 22  1  0  0  0  0
 22 26  1  0  0  0  0
 22 23  2  0  0  0  0
 23 29  1  0  0  0  0
 24 20  1  0  0  0  0
 25 21  1  0  0  0  0
 27 28  1  0  0  0  0
 28 35  1  0  0  0  0
 29 30  1  0  0  0  0
 29 28  2  0  0  0  0
 30 32  2  0  0  0  0
 31 30  1  0  0  0  0
 32 33  1  0  0  0  0
 32 34  1  0  0  0  0
 35 34  2  0  0  0  0
 36 37  2  0  0  0  0
 36 41  1  0  0  0  0
 37 38  1  0  0  0  0
 38 43  1  0  0  0  0
 38 39  2  0  0  0  0
 40 39  1  0  0  0  0
 40 44  1  0  0  0  0
 41 40  2  0  0  0  0
 42 37  1  0  0  0  0
M  END
>  <minimizedAffinity>
-6.01000452

$$$$

 OpenBabel03272506003D

 44 47  0  0  1  0  0  0  0  0999 V2000
   35.6150   28.4390   31.8870 C   0  0  2  0  0  0  0  0  0  0  0  0
   35.9230   27.0500   32.3000 C   0  0  0  0  0  0  0  0  0  0  0  0
   37.4120   26.8400   32.6160 C   0  0  2  0  0  0  0  0  0  0  0  0
   38.3140   27.2080   31.5240 C   0  0  0  0  0  0  0  0  0  0  0  0
   37.8660   28.4570   30.7630 C   0  0  0  0  0  0  0  0  0  0  0  0
   36.8540   29.2450   31.5550 C   0  0  0  0  0  0  0  0  0  0  0  0
   34.9920   28.5070   30.9460 H   0  0  0  0  0  0  0  0  0  0  0  0
   35.4360   26.5790   33.1190 H   0  0  0  0  0  0  0  0  0  0  0  0
   35.7770   26.4150   31.3620 H   0  0  0  0  0  0  0  0  0  0  0  0
   37.6050   27.3640   33.5460 H   0  0  0  0  0  0  0  0  0  0  0  0
   39.3240   27.4280   31.9810 H   0  0  0  0  0  0  0  0  0  0  0  0
   38.5190   26.4230   30.7800 H   0  0  0  0  0  0  0  0  0  0  0  0
   38.7430   29.1190   30.6080 H   0  0  0  0  0  0  0  0  0  0  0  0
   37.4960   28.2100   29.7480 H   0  0  0  0  0  0  0  0  0  0  0  0
   36.5820   30.1220   30.9630 H   0  0  0  0  0  0  0  0  0  0  0  0
   37.3220   29.5250   32.5230 H   0  0  0  0  0  0  0  0  0  0  0  0
   39.0670   26.1310   34.9380 Cl  0  0  0  0  0  0  0  0  0  0  0  0
   38.2900   24.9170   33.9280 C   0  0  0  0  0  0  0  0  0  0  0  0
   37.5030   25.3710   32.8790 C   0  0  0  0  0  0  0  0  0  0  0  0
   36.9120   24.3480   32.1540 C   0  0  0  0  0  0  0  0  0  0  0  0
   37.1100   23.0300   32.4760 C   0  0  0  0  0  0  0  0  0  0  0  0
   37.8990   22.6390   33.5250 C   0  0  0  0  0  0  0  0  0  0  0  0
   38.5080   23.6070   34.2740 C   0  0  0  0  0  0  0  0  0  0  0  0
   36.2870   24.6880   31.3230 H   0  0  0  0  0  0  0  0  0  0  0  0
   36.5930   22.2940   31.8360 H   0  0  0  0  0  0  0  0  0  0  0  0
   38.0470   21.5980   33.7660 H   0  0  0  0  0  0  0  0  0  0  0  0
   37.3430   23.4160   37.0910 Cl  0  0  0  0  0  0  0  0  0  0  0  0
   39.0250   23.1140   36.7360 C   0  0  0  0  0  0  0  0  0  0  0  0
   39.3620   23.2500   35.4060 C   0  0  0  0  0  0  0  0  0  0  0  0
   40.6710   23.0360   34.9900 C   0  0  0  0  0  0  0  0  0  0  0  0
   41.0550   23.1120   33.9780 H   0  0  0  0  0  0  0  0  0  0  0  0
   41.6520   22.6820   35.9210 C   0  0  0  0  0  0  0  0  0  0  0  0
   42.6880   22.5030   35.6610 H   0  0  0  0  0  0  0  0  0  0  0  0
   41.3060   22.5460   37.2670 C   0  0  0  0  0  3  0  0  0  0  0  0
   39.9990   22.7650   37.6480 C   0  0  0  0  0  3  0  0  0  0  0  0
   34.8630   29.1920   32.9050 C   0  0  0  0  0  0  0  0  0  0  0  0
   35.6470   29.8700   33.8410 C   0  0  0  0  0  0  0  0  0  0  0  0
   34.9760   30.6160   34.8190 C   0  0  0  0  0  0  0  0  0  0  0  0
   33.5870   30.6460   34.8140 N   0  0  0  0  0  0  0  0  0  0  0  0
   32.8740   29.9700   33.8860 C   0  0  0  0  0  0  0  0  0  0  0  0
   33.5360   29.2690   32.9660 N   0  0  0  0  0  0  0  0  0  0  0  0
   36.6810   30.0240   34.0930 H   0  0  0  0  0  0  0  0  0  0  0  0
   35.3290   31.2170   35.6370 H   0  0  0  0  0  0  0  0  0  0  0  0
   31.7920   30.0050   33.8990 H   0  0  0  0  0  0  0  0  0  0  0  0
  1  7  1  6  0  0  0
  1  2  1  0  0  0  0
  1 36  1  0  0  0  0
  2  3  1  0  0  0  0
  2  8  1  0  0  0  0
  3 19  1  0  0  0  0
  3 10  1  1  0  0  0
  4 11  1  0  0  0  0
  4  3  1  0  0  0  0
  5  4  1  0  0  0  0
  5  6  1  0  0  0  0
  6  1  1  0  0  0  0
  6 16  1  0  0  0  0
  9  2  1  0  0  0  0
 12  4  1  0  0  0  0
 13  5  1  0  0  0  0
 14  5  1  0  0  0  0
 15  6  1  0  0  0  0
 18 23  1  0  0  0  0
 18 17  1  0  0  0  0
 19 18  2  0  0  0  0
 20 21  2  0  0  0  0
 20 19  1  0  0  0  0
 21 22  1  0  0  0  0
 22 26  1  0  0  0  0
 22 23  2  0  0  0  0
 23 29  1  0  0  0  0
 24 20  1  0  0  0  0
 25 21  1  0  0  0  0
 28 27  1  0  0  0  0
 28 35  1  0  0  0  0
 29 28  2  0  0  0  0
 30 29  1  0  0  0  0
 30 32  2  0  0  0  0
 31 30  1  0  0  0  0
 32 34  1  0  0  0  0
 33 32  1  0  0  0  0
 34 35  2  0  0  0  0
 36 41  2  0  0  0  0
 36 37  1  0  0  0  0
 37 42  1  0  0  0  0
 37 38  2  0  0  0  0
 38 43  1  0  0  0  0
 39 38  1  0  0  0  0
 40 44  1  0  0  0  0
 40 39  2  0  0  0  0
 41 40  1  0  0  0  0
M  END
>  <minimizedAffinity>
-5.90934753

$$$$

 OpenBabel03272506003D

 44 47  0  0  1  0  0  0  0  0999 V2000
   37.7180   26.6940   33.1030 C   0  0  2  0  0  0  0  0  0  0  0  0
   39.0760   26.1530   33.3390 C   0  0  0  0  0  0  0  0  0  0  0  0
   39.3200   25.7790   34.8100 C   0  0  2  0  0  0  0  0  0  0  0  0
   39.0870   26.8730   35.7540 C   0  0  0  0  0  0  0  0  0  0  0  0
   37.8920   27.7520   35.3800 C   0  0  0  0  0  0  0  0  0  0  0  0
   36.9960   27.0600   34.3840 C   0  0  0  0  0  0  0  0  0  0  0  0
   37.7080   27.6550   32.5070 H   0  0  0  0  0  0  0  0  0  0  0  0
   39.4530   25.3110   32.8130 H   0  0  0  0  0  0  0  0  0  0  0  0
   39.7850   27.0370   33.1890 H   0  0  0  0  0  0  0  0  0  0  0  0
   38.7240   24.8920   35.0020 H   0  0  0  0  0  0  0  0  0  0  0  0
   38.8700   26.4080   36.7610 H   0  0  0  0  0  0  0  0  0  0  0  0
   39.9420   27.5390   35.9420 H   0  0  0  0  0  0  0  0  0  0  0  0
   37.2840   27.9390   36.2880 H   0  0  0  0  0  0  0  0  0  0  0  0
   38.2120   28.7510   35.0240 H   0  0  0  0  0  0  0  0  0  0  0  0
   36.1640   27.7340   34.1650 H   0  0  0  0  0  0  0  0  0  0  0  0
   36.6520   26.1070   34.8390 H   0  0  0  0  0  0  0  0  0  0  0  0
   39.7840   22.9120   35.2590 Cl  0  0  0  0  0  0  0  0  0  0  0  0
   41.1020   24.0630   35.0730 C   0  0  0  0  0  0  0  0  0  0  0  0
   40.7620   25.3870   34.8300 C   0  0  0  0  0  0  0  0  0  0  0  0
   41.8620   26.2160   34.6730 C   0  0  0  0  0  0  0  0  0  0  0  0
   43.1430   25.7350   34.7560 C   0  0  0  0  0  0  0  0  0  0  0  0
   43.4210   24.4160   34.9990 C   0  0  0  0  0  0  0  0  0  0  0  0
   42.3730   23.5530   35.1620 C   0  0  0  0  0  0  0  0  0  0  0  0
   41.6120   27.2630   34.4800 H   0  0  0  0  0  0  0  0  0  0  0  0
   43.9480   26.4780   34.6160 H   0  0  0  0  0  0  0  0  0  0  0  0
   44.4340   24.0520   35.0620 H   0  0  0  0  0  0  0  0  0  0  0  0
   42.8590   21.6150   32.8520 Cl  0  0  0  0  0  0  0  0  0  0  0  0
   42.8440   21.1150   34.5250 C   0  0  0  0  0  0  0  0  0  0  0  0
   42.6080   22.1330   35.4230 C   0  0  0  0  0  0  0  0  0  0  0  0
   42.5710   21.8690   36.7880 C   0  0  0  0  0  0  0  0  0  0  0  0
   42.3950   22.5810   37.5860 H   0  0  0  0  0  0  0  0  0  0  0  0
   42.7730   20.5660   37.2530 C   0  0  0  0  0  0  0  0  0  0  0  0
   42.7560   20.2950   38.3020 H   0  0  0  0  0  0  0  0  0  0  0  0
   43.0110   19.5380   36.3390 C   0  0  0  0  0  3  0  0  0  0  0  0
   43.0420   19.8330   34.9920 C   0  0  0  0  0  3  0  0  0  0  0  0
   36.8480   25.7680   32.3600 C   0  0  0  0  0  0  0  0  0  0  0  0
   35.8560   26.3750   31.5870 C   0  0  0  0  0  0  0  0  0  0  0  0
   35.0150   25.5340   30.8470 C   0  0  0  0  0  0  0  0  0  0  0  0
   35.2020   24.1590   30.9140 N   0  0  0  0  0  0  0  0  0  0  0  0
   36.1770   23.6190   31.6790 C   0  0  0  0  0  0  0  0  0  0  0  0
   36.9640   24.4410   32.3730 N   0  0  0  0  0  0  0  0  0  0  0  0
   35.4810   27.3540   31.3490 H   0  0  0  0  0  0  0  0  0  0  0  0
   34.1930   25.7360   30.1860 H   0  0  0  0  0  0  0  0  0  0  0  0
   36.3070   22.5460   31.7210 H   0  0  0  0  0  0  0  0  0  0  0  0
  1  7  1  6  0  0  0
  1  2  1  0  0  0  0
  1  6  1  0  0  0  0
  2  3  1  0  0  0  0
  3 19  1  0  0  0  0
  3 10  1  1  0  0  0
  3  4  1  0  0  0  0
  4 12  1  0  0  0  0
  4 11  1  0  0  0  0
  5  4  1  0  0  0  0
  5 13  1  0  0  0  0
  6 16  1  0  0  0  0
  6  5  1  0  0  0  0
  8  2  1  0  0  0  0
  9  2  1  0  0  0  0
 14  5  1  0  0  0  0
 15  6  1  0  0  0  0
 18 23  1  0  0  0  0
 18 17  1  0  0  0  0
 19 18  2  0  0  0  0
 20 21  2  0  0  0  0
 20 19  1  0  0  0  0
 21 22  1  0  0  0  0
 22 26  1  0  0  0  0
 22 23  2  0  0  0  0
 23 29  1  0  0  0  0
 24 20  1  0  0  0  0
 25 21  1  0  0  0  0
 27 28  1  0  0  0  0
 28 35  2  0  0  0  0
 28 29  1  0  0  0  0
 29 30  2  0  0  0  0
 30 32  1  0  0  0  0
 30 31  1  0  0  0  0
 32 33  1  0  0  0  0
 34 32  2  0  0  0  0
 35 34  1  0  0  0  0
 36 41  1  0  0  0  0
 36  1  1  0  0  0  0
 37 36  2  0  0  0  0
 38 39  2  0  0  0  0
 38 37  1  0  0  0  0
 39 40  1  0  0  0  0
 40 44  1  0  0  0  0
 40 41  2  0  0  0  0
 42 37  1  0  0  0  0
 43 38  1  0  0  0  0
M  END
>  <minimizedAffinity>
-5.81133366

$$$$
