
 OpenBabel03272502523D

 27 29  0  0  0  0  0  0  0  0999 V2000
   37.8370   31.0940   48.9320 C   0  0  0  0  0  0  0  0  0  0  0  0
   38.1750   30.9200   50.2540 C   0  0  0  0  0  0  0  0  0  0  0  0
   37.4020   30.1530   51.1020 C   0  0  0  0  0  0  0  0  0  0  0  0
   36.2830   29.5780   50.5510 C   0  0  0  0  0  0  0  0  0  0  0  0
   35.9180   29.7360   49.2260 C   0  0  0  0  0  0  0  0  0  0  0  0
   36.7250   30.5080   48.4330 N   0  0  0  0  0  0  0  0  0  0  0  0
   39.0770   31.4160   50.5890 H   0  0  0  0  0  0  0  0  0  0  0  0
   37.6580   30.0140   52.1280 H   0  0  0  0  0  0  0  0  0  0  0  0
   35.6760   28.9780   51.2100 H   0  0  0  0  0  0  0  0  0  0  0  0
   39.7990   33.9010   47.6620 C   0  0  0  0  0  0  0  0  0  0  0  0
   40.2280   33.4730   46.4100 C   0  0  0  0  0  0  0  0  0  0  0  0
   39.8320   32.2030   46.0100 C   0  0  0  0  0  0  0  0  0  0  0  0
   39.0560   31.4660   46.8610 N   0  0  0  0  0  0  0  0  0  0  0  0
   38.6630   31.9080   48.0550 C   0  0  0  0  0  0  0  0  0  0  0  0
   39.0390   33.1410   48.4580 N   0  0  0  0  0  0  0  0  0  0  0  0
   40.1060   34.8920   47.9770 H   0  0  0  0  0  0  0  0  0  0  0  0
   40.8440   34.0490   45.7290 H   0  0  0  0  0  0  0  0  0  0  0  0
   40.1240   31.7980   45.0530 H   0  0  0  0  0  0  0  0  0  0  0  0
   35.6320   30.1330   46.3080 Cl  0  0  0  0  0  0  0  0  0  0  0  0
   34.4900   29.2430   47.2910 C   0  0  0  0  0  0  0  0  0  0  0  0
   34.7320   29.1250   48.6430 C   0  0  0  0  0  0  0  0  0  0  0  0
   33.7960   28.4140   49.3590 C   0  0  0  0  0  0  0  0  0  0  0  0
   33.9290   28.2860   50.4240 H   0  0  0  0  0  0  0  0  0  0  0  0
   32.6720   27.8370   48.8000 C   0  0  0  0  0  0  0  0  0  0  0  0
   31.9710   27.2890   49.4140 H   0  0  0  0  0  0  0  0  0  0  0  0
   32.4460   27.9640   47.4570 C   0  0  0  0  0  0  0  0  0  0  0  0
   33.3580   28.6650   46.7130 C   0  0  0  0  0  0  0  0  0  0  0  0
  1  2  1  0  0  0  0
  2  7  1  0  0  0  0
  2  3  2  0  0  0  0
  3  8  1  0  0  0  0
  4  3  1  0  0  0  0
  4  9  1  0  0  0  0
  5  4  2  0  0  0  0
  6  1  2  0  0  0  0
  6  5  1  0  0  0  0
 10 16  1  0  0  0  0
 10 15  1  0  0  0  0
 11 10  2  0  0  0  0
 12 11  1  0  0  0  0
 12 13  2  0  0  0  0
 13 14  1  0  0  0  0
 14 15  2  0  0  0  0
 14  1  1  0  0  0  0
 17 11  1  0  0  0  0
 18 12  1  0  0  0  0
 19 20  1  0  0  0  0
 20 21  1  0  0  0  0
 21  5  1  0  0  0  0
 21 22  2  0  0  0  0
 22 23  1  0  0  0  0
 24 22  1  0  0  0  0
 24 25  1  0  0  0  0
 26 24  2  0  0  0  0
 27 20  2  0  0  0  0
 27 26  1  0  0  0  0
M  END
>  <minimizedAffinity>
-6.15764141

>  <minimizedRMSD>
2.71388364

$$$$
