
 OpenBabel03272506353D

 19 20  0  0  0  0  0  0  0  0999 V2000
   39.0010   23.1440   37.8640 C   0  0  0  0  0  0  0  0  0  0  0  0
   40.2240   22.6180   37.4340 C   0  0  0  0  0  0  0  0  0  0  0  0
   40.7790   23.1260   36.2690 C   0  0  0  0  0  0  0  0  0  0  0  0
   40.1050   24.1170   35.5970 N   0  0  0  0  0  0  0  0  0  0  0  0
   38.9250   24.5990   36.0460 C   0  0  0  0  0  0  0  0  0  0  0  0
   38.3840   24.1150   37.1670 N   0  0  0  0  0  0  0  0  0  0  0  0
   40.7850   21.8390   37.9340 H   0  0  0  0  0  0  0  0  0  0  0  0
   41.7190   22.7850   35.8580 H   0  0  0  0  0  0  0  0  0  0  0  0
   37.7690   23.7870   33.3380 Cl  0  0  0  0  0  0  0  0  0  0  0  0
   37.7020   25.3790   34.0590 C   0  0  0  0  0  0  0  0  0  0  0  0
   38.2540   25.6520   35.2910 C   0  0  0  0  0  0  0  0  0  0  0  0
   38.1900   26.9160   35.8420 C   0  0  0  0  0  0  0  0  0  0  0  0
   38.6350   27.1040   36.8180 H   0  0  0  0  0  0  0  0  0  0  0  0
   37.5690   27.9510   35.1780 C   0  0  0  0  0  0  0  0  0  0  0  0
   37.5500   28.9320   35.6640 H   0  0  0  0  0  0  0  0  0  0  0  0
   37.0080   27.7020   33.9390 C   0  0  0  0  0  3  0  0  0  0  0  0
   37.0760   26.4300   33.3920 C   0  0  0  0  0  3  0  0  0  0  0  0
   38.5590   22.5500   39.0390 O   0  0  0  0  0  0  0  0  0  0  0  0
   37.6790   22.7440   39.4810 H   0  0  0  0  0  0  0  0  0  0  0  0
  1 18  1  0  0  0  0
  2  1  1  0  0  0  0
  2  7  1  0  0  0  0
  3  2  2  0  0  0  0
  4  5  2  0  0  0  0
  4  3  1  0  0  0  0
  5  6  1  0  0  0  0
  6  1  2  0  0  0  0
  8  3  1  0  0  0  0
  9 10  1  0  0  0  0
 10 11  1  0  0  0  0
 11 12  2  0  0  0  0
 11  5  1  0  0  0  0
 12 13  1  0  0  0  0
 14 15  1  0  0  0  0
 14 12  1  0  0  0  0
 16 14  2  0  0  0  0
 17 16  1  0  0  0  0
 17 10  2  0  0  0  0
 18 19  1  0  0  0  0
M  END
>  <minimizedAffinity>
-4.94020462

$$$$

 OpenBabel03272506353D

 19 20  0  0  0  0  0  0  0  0999 V2000
   39.7520   22.8400   37.4750 C   0  0  0  0  0  0  0  0  0  0  0  0
   38.7190   23.1930   38.3500 C   0  0  0  0  0  0  0  0  0  0  0  0
   37.9160   24.2710   38.0090 C   0  0  0  0  0  0  0  0  0  0  0  0
   38.1720   24.9370   36.8350 N   0  0  0  0  0  0  0  0  0  0  0  0
   39.1810   24.5640   36.0160 C   0  0  0  0  0  0  0  0  0  0  0  0
   39.9580   23.5260   36.3380 N   0  0  0  0  0  0  0  0  0  0  0  0
   38.4850   22.6950   39.2830 H   0  0  0  0  0  0  0  0  0  0  0  0
   37.0940   24.6190   38.6190 H   0  0  0  0  0  0  0  0  0  0  0  0
   37.8060   23.4700   33.5170 Cl  0  0  0  0  0  0  0  0  0  0  0  0
   38.8270   24.8880   33.6030 C   0  0  0  0  0  0  0  0  0  0  0  0
   39.4060   25.3070   34.7810 C   0  0  0  0  0  0  0  0  0  0  0  0
   40.2090   26.4290   34.8260 C   0  0  0  0  0  0  0  0  0  0  0  0
   40.6540   26.7370   35.7710 H   0  0  0  0  0  0  0  0  0  0  0  0
   40.4590   27.1720   33.6930 C   0  0  0  0  0  0  0  0  0  0  0  0
   41.1030   28.0510   33.7910 H   0  0  0  0  0  0  0  0  0  0  0  0
   39.8880   26.7710   32.4990 C   0  0  0  0  0  3  0  0  0  0  0  0
   39.0840   25.6430   32.4610 C   0  0  0  0  0  3  0  0  0  0  0  0
   40.4760   21.7470   37.9350 O   0  0  0  0  0  0  0  0  0  0  0  0
   41.2910   21.3720   37.4840 H   0  0  0  0  0  0  0  0  0  0  0  0
  1 18  1  0  0  0  0
  1  2  1  0  0  0  0
  2  7  1  0  0  0  0
  3  2  2  0  0  0  0
  3  8  1  0  0  0  0
  4  3  1  0  0  0  0
  5  6  1  0  0  0  0
  5  4  2  0  0  0  0
  6  1  2  0  0  0  0
  9 10  1  0  0  0  0
 10 11  1  0  0  0  0
 11 12  2  0  0  0  0
 11  5  1  0  0  0  0
 12 13  1  0  0  0  0
 14 15  1  0  0  0  0
 14 12  1  0  0  0  0
 16 14  2  0  0  0  0
 17 16  1  0  0  0  0
 17 10  2  0  0  0  0
 19 18  1  0  0  0  0
M  END
>  <minimizedAffinity>
-4.71232128

$$$$

 OpenBabel03272506353D

 19 20  0  0  0  0  0  0  0  0999 V2000
   39.0940   23.0960   37.6930 C   0  0  0  0  0  0  0  0  0  0  0  0
   40.4280   22.7260   37.4930 C   0  0  0  0  0  0  0  0  0  0  0  0
   41.0360   23.0970   36.3030 C   0  0  0  0  0  0  0  0  0  0  0  0
   40.3020   23.8060   35.3830 N   0  0  0  0  0  0  0  0  0  0  0  0
   39.0150   24.1440   35.6140 C   0  0  0  0  0  0  0  0  0  0  0  0
   38.4220   23.7910   36.7580 N   0  0  0  0  0  0  0  0  0  0  0  0
   41.0390   22.1680   38.1920 H   0  0  0  0  0  0  0  0  0  0  0  0
   42.0610   22.8580   36.0570 H   0  0  0  0  0  0  0  0  0  0  0  0
   38.6150   27.1190   36.1790 Cl  0  0  0  0  0  0  0  0  0  0  0  0
   38.0560   26.2460   34.7700 C   0  0  0  0  0  0  0  0  0  0  0  0
   38.2840   24.8990   34.6010 C   0  0  0  0  0  0  0  0  0  0  0  0
   37.8340   24.2290   33.4810 C   0  0  0  0  0  0  0  0  0  0  0  0
   38.0290   23.1640   33.3730 H   0  0  0  0  0  0  0  0  0  0  0  0
   37.1390   24.8880   32.4900 C   0  0  0  0  0  0  0  0  0  0  0  0
   36.8060   24.3040   31.6260 H   0  0  0  0  0  0  0  0  0  0  0  0
   36.8960   26.2410   32.6380 C   0  0  0  0  0  3  0  0  0  0  0  0
   37.3520   26.9070   33.7650 C   0  0  0  0  0  3  0  0  0  0  0  0
   38.6090   22.6630   38.9210 O   0  0  0  0  0  0  0  0  0  0  0  0
   37.6620   22.7770   39.2320 H   0  0  0  0  0  0  0  0  0  0  0  0
  1 18  1  0  0  0  0
  2  1  1  0  0  0  0
  2  7  1  0  0  0  0
  3  2  2  0  0  0  0
  4  5  2  0  0  0  0
  4  3  1  0  0  0  0
  5  6  1  0  0  0  0
  6  1  2  0  0  0  0
  8  3  1  0  0  0  0
 10  9  1  0  0  0  0
 11 10  1  0  0  0  0
 11  5  1  0  0  0  0
 12 11  2  0  0  0  0
 13 12  1  0  0  0  0
 14 16  2  0  0  0  0
 14 12  1  0  0  0  0
 15 14  1  0  0  0  0
 16 17  1  0  0  0  0
 17 10  2  0  0  0  0
 18 19  1  0  0  0  0
M  END
>  <minimizedAffinity>
-4.70403671

$$$$

 OpenBabel03272506353D

 19 20  0  0  0  0  0  0  0  0999 V2000
   39.7630   22.2350   37.2730 C   0  0  0  0  0  0  0  0  0  0  0  0
   39.1940   23.2540   38.0450 C   0  0  0  0  0  0  0  0  0  0  0  0
   38.1340   23.9660   37.5060 C   0  0  0  0  0  0  0  0  0  0  0  0
   37.6950   23.6390   36.2460 N   0  0  0  0  0  0  0  0  0  0  0  0
   38.2710   22.6470   35.5310 C   0  0  0  0  0  0  0  0  0  0  0  0
   39.2930   21.9560   36.0450 N   0  0  0  0  0  0  0  0  0  0  0  0
   39.5110   23.5420   39.0400 H   0  0  0  0  0  0  0  0  0  0  0  0
   37.6300   24.7690   38.0240 H   0  0  0  0  0  0  0  0  0  0  0  0
   35.8560   20.7810   35.4060 Cl  0  0  0  0  0  0  0  0  0  0  0  0
   36.6770   21.5090   34.0430 C   0  0  0  0  0  0  0  0  0  0  0  0
   37.7630   22.3430   34.1980 C   0  0  0  0  0  0  0  0  0  0  0  0
   38.3950   22.9070   33.1090 C   0  0  0  0  0  0  0  0  0  0  0  0
   39.2520   23.5620   33.2610 H   0  0  0  0  0  0  0  0  0  0  0  0
   37.9620   22.6570   31.8260 C   0  0  0  0  0  0  0  0  0  0  0  0
   38.5040   23.1320   31.0020 H   0  0  0  0  0  0  0  0  0  0  0  0
   36.8730   21.8230   31.6450 C   0  0  0  0  0  3  0  0  0  0  0  0
   36.2430   21.2600   32.7430 C   0  0  0  0  0  3  0  0  0  0  0  0
   40.8120   21.6040   37.9290 O   0  0  0  0  0  0  0  0  0  0  0  0
   41.3870   20.8860   37.5280 H   0  0  0  0  0  0  0  0  0  0  0  0
  1 18  1  0  0  0  0
  1  2  1  0  0  0  0
  2  7  1  0  0  0  0
  3  8  1  0  0  0  0
  3  2  2  0  0  0  0
  4  3  1  0  0  0  0
  5  6  1  0  0  0  0
  5  4  2  0  0  0  0
  6  1  2  0  0  0  0
 10 11  1  0  0  0  0
 10  9  1  0  0  0  0
 11  5  1  0  0  0  0
 12 13  1  0  0  0  0
 12 11  2  0  0  0  0
 14 12  1  0  0  0  0
 15 14  1  0  0  0  0
 16 14  2  0  0  0  0
 16 17  1  0  0  0  0
 17 10  2  0  0  0  0
 19 18  1  0  0  0  0
M  END
>  <minimizedAffinity>
-4.36642361

$$$$

 OpenBabel03272506353D

 19 20  0  0  0  0  0  0  0  0999 V2000
   37.1170   26.1010   33.1040 C   0  0  0  0  0  0  0  0  0  0  0  0
   36.8590   27.4100   33.5230 C   0  0  0  0  0  0  0  0  0  0  0  0
   37.2250   27.7670   34.8120 C   0  0  0  0  0  0  0  0  0  0  0  0
   37.8200   26.8220   35.6120 N   0  0  0  0  0  0  0  0  0  0  0  0
   38.0530   25.5660   35.1700 C   0  0  0  0  0  0  0  0  0  0  0  0
   37.7040   25.2150   33.9290 N   0  0  0  0  0  0  0  0  0  0  0  0
   36.3930   28.1820   32.9240 H   0  0  0  0  0  0  0  0  0  0  0  0
   37.0670   28.7530   35.2260 H   0  0  0  0  0  0  0  0  0  0  0  0
   40.6640   24.3310   34.1770 Cl  0  0  0  0  0  0  0  0  0  0  0  0
   39.8700   23.9950   35.6990 C   0  0  0  0  0  0  0  0  0  0  0  0
   38.6890   24.6040   36.0630 C   0  0  0  0  0  0  0  0  0  0  0  0
   38.0800   24.3240   37.2690 C   0  0  0  0  0  0  0  0  0  0  0  0
   37.1470   24.8200   37.5310 H   0  0  0  0  0  0  0  0  0  0  0  0
   38.6330   23.4240   38.1540 C   0  0  0  0  0  0  0  0  0  0  0  0
   38.1030   23.2430   39.0950 H   0  0  0  0  0  0  0  0  0  0  0  0
   39.8180   22.8000   37.8110 C   0  0  0  0  0  3  0  0  0  0  0  0
   40.4240   23.0860   36.5980 C   0  0  0  0  0  3  0  0  0  0  0  0
   36.7040   25.8770   31.7970 O   0  0  0  0  0  0  0  0  0  0  0  0
   36.7470   24.9910   31.3290 H   0  0  0  0  0  0  0  0  0  0  0  0
  1  2  2  0  0  0  0
  1  6  1  0  0  0  0
  2  3  1  0  0  0  0
  3  8  1  0  0  0  0
  3  4  2  0  0  0  0
  5  4  1  0  0  0  0
  5 11  1  0  0  0  0
  6  5  2  0  0  0  0
  7  2  1  0  0  0  0
  9 10  1  0  0  0  0
 10 11  2  0  0  0  0
 10 17  1  0  0  0  0
 11 12  1  0  0  0  0
 12 13  1  0  0  0  0
 12 14  2  0  0  0  0
 14 15  1  0  0  0  0
 16 14  1  0  0  0  0
 17 16  2  0  0  0  0
 18  1  1  0  0  0  0
 19 18  1  0  0  0  0
M  END
>  <minimizedAffinity>
-4.3392663

$$$$

 OpenBabel03272506353D

 19 20  0  0  0  0  0  0  0  0999 V2000
   35.9040   29.7670   31.5460 C   0  0  0  0  0  0  0  0  0  0  0  0
   36.5570   28.5410   31.7140 C   0  0  0  0  0  0  0  0  0  0  0  0
   36.6240   28.0070   32.9920 C   0  0  0  0  0  0  0  0  0  0  0  0
   36.0500   28.7050   34.0270 N   0  0  0  0  0  0  0  0  0  0  0  0
   35.4270   29.8870   33.8230 C   0  0  0  0  0  0  0  0  0  0  0  0
   35.3580   30.4070   32.5940 N   0  0  0  0  0  0  0  0  0  0  0  0
   37.0210   27.9610   30.9260 H   0  0  0  0  0  0  0  0  0  0  0  0
   37.1060   27.0680   33.2220 H   0  0  0  0  0  0  0  0  0  0  0  0
   32.4840   29.2900   34.3810 Cl  0  0  0  0  0  0  0  0  0  0  0  0
   33.5120   30.3780   35.2870 C   0  0  0  0  0  0  0  0  0  0  0  0
   34.8340   30.5840   34.9600 C   0  0  0  0  0  0  0  0  0  0  0  0
   35.6280   31.4470   35.6880 C   0  0  0  0  0  0  0  0  0  0  0  0
   36.6690   31.5910   35.4070 H   0  0  0  0  0  0  0  0  0  0  0  0
   35.1240   32.1340   36.7710 C   0  0  0  0  0  0  0  0  0  0  0  0
   35.8010   32.8040   37.3100 H   0  0  0  0  0  0  0  0  0  0  0  0
   33.7990   31.9430   37.1200 C   0  0  0  0  0  3  0  0  0  0  0  0
   33.0080   31.0750   36.3830 C   0  0  0  0  0  3  0  0  0  0  0  0
   35.9090   30.1850   30.2210 O   0  0  0  0  0  0  0  0  0  0  0  0
   35.5430   31.0620   29.8990 H   0  0  0  0  0  0  0  0  0  0  0  0
  1  2  2  0  0  0  0
  1  6  1  0  0  0  0
  2  3  1  0  0  0  0
  3  8  1  0  0  0  0
  3  4  2  0  0  0  0
  5  4  1  0  0  0  0
  5 11  1  0  0  0  0
  6  5  2  0  0  0  0
  7  2  1  0  0  0  0
  9 10  1  0  0  0  0
 10 17  1  0  0  0  0
 11 10  2  0  0  0  0
 11 12  1  0  0  0  0
 12 14  2  0  0  0  0
 13 12  1  0  0  0  0
 14 16  1  0  0  0  0
 14 15  1  0  0  0  0
 17 16  2  0  0  0  0
 18  1  1  0  0  0  0
 19 18  1  0  0  0  0
M  END
>  <minimizedAffinity>
-4.33859396

$$$$

 OpenBabel03272506353D

 19 20  0  0  0  0  0  0  0  0999 V2000
   35.4790   30.0210   31.7830 C   0  0  0  0  0  0  0  0  0  0  0  0
   36.3080   28.9030   31.9230 C   0  0  0  0  0  0  0  0  0  0  0  0
   36.4180   28.3260   33.1790 C   0  0  0  0  0  0  0  0  0  0  0  0
   35.7110   28.8770   34.2200 N   0  0  0  0  0  0  0  0  0  0  0  0
   34.9200   29.9580   34.0440 C   0  0  0  0  0  0  0  0  0  0  0  0
   34.8080   30.5190   32.8370 N   0  0  0  0  0  0  0  0  0  0  0  0
   36.8800   28.4400   31.1290 H   0  0  0  0  0  0  0  0  0  0  0  0
   37.0320   27.4610   33.3870 H   0  0  0  0  0  0  0  0  0  0  0  0
   36.3700   32.0960   35.6730 Cl  0  0  0  0  0  0  0  0  0  0  0  0
   34.7660   31.4690   35.9790 C   0  0  0  0  0  0  0  0  0  0  0  0
   34.1910   30.5010   35.1860 C   0  0  0  0  0  0  0  0  0  0  0  0
   32.9240   30.0200   35.4450 C   0  0  0  0  0  0  0  0  0  0  0  0
   32.4940   29.2540   34.8020 H   0  0  0  0  0  0  0  0  0  0  0  0
   32.1870   30.4930   36.5090 C   0  0  0  0  0  0  0  0  0  0  0  0
   31.1880   30.0740   36.6650 H   0  0  0  0  0  0  0  0  0  0  0  0
   32.7430   31.4660   37.3200 C   0  0  0  0  0  3  0  0  0  0  0  0
   34.0160   31.9440   37.0530 C   0  0  0  0  0  3  0  0  0  0  0  0
   35.4590   30.4980   30.4790 O   0  0  0  0  0  0  0  0  0  0  0  0
   34.9720   31.3230   30.1800 H   0  0  0  0  0  0  0  0  0  0  0  0
  1  2  2  0  0  0  0
  1  6  1  0  0  0  0
  2  3  1  0  0  0  0
  3  8  1  0  0  0  0
  3  4  2  0  0  0  0
  5  4  1  0  0  0  0
  5 11  1  0  0  0  0
  6  5  2  0  0  0  0
  7  2  1  0  0  0  0
  9 10  1  0  0  0  0
 10 17  1  0  0  0  0
 11 12  1  0  0  0  0
 11 10  2  0  0  0  0
 12 14  2  0  0  0  0
 13 12  1  0  0  0  0
 14 15  1  0  0  0  0
 14 16  1  0  0  0  0
 17 16  2  0  0  0  0
 18  1  1  0  0  0  0
 19 18  1  0  0  0  0
M  END
>  <minimizedAffinity>
-4.3224597

$$$$

 OpenBabel03272506353D

 19 20  0  0  0  0  0  0  0  0999 V2000
   36.2910   25.7150   31.0950 C   0  0  0  0  0  0  0  0  0  0  0  0
   37.0740   26.1840   32.1550 C   0  0  0  0  0  0  0  0  0  0  0  0
   37.5770   25.2560   33.0550 C   0  0  0  0  0  0  0  0  0  0  0  0
   37.2850   23.9280   32.8620 N   0  0  0  0  0  0  0  0  0  0  0  0
   36.5240   23.5140   31.8240 C   0  0  0  0  0  0  0  0  0  0  0  0
   36.0360   24.4030   30.9540 N   0  0  0  0  0  0  0  0  0  0  0  0
   37.3260   27.2210   32.3410 H   0  0  0  0  0  0  0  0  0  0  0  0
   38.1910   25.5210   33.9040 H   0  0  0  0  0  0  0  0  0  0  0  0
   38.5610   21.9150   30.2040 Cl  0  0  0  0  0  0  0  0  0  0  0  0
   37.1090   21.2890   30.9530 C   0  0  0  0  0  0  0  0  0  0  0  0
   36.2460   22.0910   31.6680 C   0  0  0  0  0  0  0  0  0  0  0  0
   35.1060   21.5760   32.2520 C   0  0  0  0  0  0  0  0  0  0  0  0
   34.4420   22.2330   32.8110 H   0  0  0  0  0  0  0  0  0  0  0  0
   34.7900   20.2400   32.1390 C   0  0  0  0  0  0  0  0  0  0  0  0
   33.8730   19.8900   32.6220 H   0  0  0  0  0  0  0  0  0  0  0  0
   35.6410   19.4150   31.4260 C   0  0  0  0  0  3  0  0  0  0  0  0
   36.7840   19.9390   30.8430 C   0  0  0  0  0  3  0  0  0  0  0  0
   35.8530   26.7450   30.2720 O   0  0  0  0  0  0  0  0  0  0  0  0
   35.2350   26.6260   29.4900 H   0  0  0  0  0  0  0  0  0  0  0  0
  1  2  1  0  0  0  0
  2  7  1  0  0  0  0
  2  3  2  0  0  0  0
  3  8  1  0  0  0  0
  4  3  1  0  0  0  0
  5  4  2  0  0  0  0
  6  1  2  0  0  0  0
  6  5  1  0  0  0  0
  9 10  1  0  0  0  0
 10 11  1  0  0  0  0
 11  5  1  0  0  0  0
 11 12  2  0  0  0  0
 12 13  1  0  0  0  0
 14 12  1  0  0  0  0
 14 15  1  0  0  0  0
 16 14  2  0  0  0  0
 17 10  2  0  0  0  0
 17 16  1  0  0  0  0
 18  1  1  0  0  0  0
 19 18  1  0  0  0  0
M  END
>  <minimizedAffinity>
-4.28462982

$$$$

 OpenBabel03272506353D

 19 20  0  0  0  0  0  0  0  0999 V2000
   38.9630   26.8960   35.1360 C   0  0  0  0  0  0  0  0  0  0  0  0
   40.2660   27.0260   34.6420 C   0  0  0  0  0  0  0  0  0  0  0  0
   40.5960   26.3410   33.4820 C   0  0  0  0  0  0  0  0  0  0  0  0
   39.6320   25.5720   32.8760 N   0  0  0  0  0  0  0  0  0  0  0  0
   38.3830   25.4730   33.3840 C   0  0  0  0  0  0  0  0  0  0  0  0
   38.0590   26.1300   34.5010 N   0  0  0  0  0  0  0  0  0  0  0  0
   41.0530   27.6200   35.0900 H   0  0  0  0  0  0  0  0  0  0  0  0
   41.5740   26.3790   33.0250 H   0  0  0  0  0  0  0  0  0  0  0  0
   36.3200   26.9550   31.6870 Cl  0  0  0  0  0  0  0  0  0  0  0  0
   36.4300   25.2230   31.9100 C   0  0  0  0  0  0  0  0  0  0  0  0
   37.4000   24.6420   32.6980 C   0  0  0  0  0  0  0  0  0  0  0  0
   37.4680   23.2730   32.8590 C   0  0  0  0  0  0  0  0  0  0  0  0
   38.2450   22.8420   33.4880 H   0  0  0  0  0  0  0  0  0  0  0  0
   36.5670   22.4370   32.2370 C   0  0  0  0  0  0  0  0  0  0  0  0
   36.6710   21.3600   32.4030 H   0  0  0  0  0  0  0  0  0  0  0  0
   35.5840   22.9970   31.4410 C   0  0  0  0  0  3  0  0  0  0  0  0
   35.5220   24.3720   31.2830 C   0  0  0  0  0  3  0  0  0  0  0  0
   38.7680   27.6300   36.2980 O   0  0  0  0  0  0  0  0  0  0  0  0
   37.9230   27.6280   36.8390 H   0  0  0  0  0  0  0  0  0  0  0  0
  1 18  1  0  0  0  0
  2  7  1  0  0  0  0
  2  1  1  0  0  0  0
  3  2  2  0  0  0  0
  4  5  2  0  0  0  0
  4  3  1  0  0  0  0
  5  6  1  0  0  0  0
  6  1  2  0  0  0  0
  8  3  1  0  0  0  0
  9 10  1  0  0  0  0
 10 11  1  0  0  0  0
 11 12  2  0  0  0  0
 11  5  1  0  0  0  0
 12 13  1  0  0  0  0
 14 15  1  0  0  0  0
 14 12  1  0  0  0  0
 16 14  2  0  0  0  0
 17 16  1  0  0  0  0
 17 10  2  0  0  0  0
 18 19  1  0  0  0  0
M  END
>  <minimizedAffinity>
-4.28398561

$$$$
