
 OpenBabel03272509043D

 33 35  0  0  0  0  0  0  0  0999 V2000
   37.5410   30.2950   51.3620 C   0  0  0  0  0  0  0  0  0  0  0  0
   38.0860   30.9480   50.2440 C   0  0  0  0  0  0  0  0  0  0  0  0
   37.5040   30.7630   48.9860 C   0  0  0  0  0  0  0  0  0  0  0  0
   36.4180   29.9270   48.9740 N   0  0  0  0  0  0  0  0  0  0  0  0
   35.9190   29.3210   50.0430 C   0  0  0  0  0  0  0  0  0  0  0  0
   36.4880   29.5110   51.2360 N   0  0  0  0  0  0  0  0  0  0  0  0
   38.0570   30.4980   52.2950 H   0  0  0  0  0  0  0  0  0  0  0  0
   38.9230   31.5610   50.3210 H   0  0  0  0  0  0  0  0  0  0  0  0
   35.8710   30.2080   46.3570 Cl  0  0  0  0  0  0  0  0  0  0  0  0
   37.3130   31.1760   46.4790 C   0  0  0  0  0  0  0  0  0  0  0  0
   37.8990   31.3080   47.7070 C   0  0  0  0  0  0  0  0  0  0  0  0
   39.0460   32.0720   47.6610 C   0  0  0  0  0  0  0  0  0  0  0  0
   39.6480   32.2880   48.5370 H   0  0  0  0  0  0  0  0  0  0  0  0
   39.5420   32.6370   46.5200 C   0  0  0  0  0  0  0  0  0  0  0  0
   40.4330   33.2280   46.5020 H   0  0  0  0  0  0  0  0  0  0  0  0
   38.9040   32.4660   45.3230 C   0  0  0  0  0  3  0  0  0  0  0  0
   37.7540   31.7120   45.3040 C   0  0  0  0  0  3  0  0  0  0  0  0
   34.7650   28.4760   49.8230 C   0  0  0  0  0  3  0  0  0  0  0  0
   34.4150   28.1960   48.5960 C   0  0  0  0  0  3  0  0  0  0  0  0
   33.2900   27.3650   48.1460 C   0  0  0  0  0  0  0  0  0  0  0  0
   32.5270   28.0570   47.7250 H   0  0  0  0  0  0  0  0  0  0  0  0
   32.8030   26.8630   49.0050 H   0  0  0  0  0  0  0  0  0  0  0  0
   33.6890   26.4080   47.0730 C   0  0  0  0  0  0  0  0  0  0  0  0
   33.9240   25.0490   47.2410 C   0  0  0  0  0  0  0  0  0  0  0  0
   34.2900   24.2710   46.1620 C   0  0  0  0  0  0  0  0  0  0  0  0
   34.4330   24.8240   44.8760 C   0  0  0  0  0  0  0  0  0  0  0  0
   34.2010   26.1780   44.7040 C   0  0  0  0  0  0  0  0  0  0  0  0
   33.8350   26.9520   45.7860 C   0  0  0  0  0  0  0  0  0  0  0  0
   33.8020   24.6720   48.2390 H   0  0  0  0  0  0  0  0  0  0  0  0
   34.4450   23.2340   46.4080 H   0  0  0  0  0  0  0  0  0  0  0  0
   34.7230   24.1340   44.0960 H   0  0  0  0  0  0  0  0  0  0  0  0
   34.3210   26.5640   43.7060 H   0  0  0  0  0  0  0  0  0  0  0  0
   33.6710   27.9960   45.5770 H   0  0  0  0  0  0  0  0  0  0  0  0
  1  7  1  0  0  0  0
  2  8  1  0  0  0  0
  2  1  2  0  0  0  0
  3  2  1  0  0  0  0
  4  3  2  0  0  0  0
  4  5  1  0  0  0  0
  5  6  2  0  0  0  0
  6  1  1  0  0  0  0
  9 10  1  0  0  0  0
 10 11  1  0  0  0  0
 11  3  1  0  0  0  0
 12 11  2  0  0  0  0
 12 13  1  0  0  0  0
 14 12  1  0  0  0  0
 15 14  1  0  0  0  0
 16 14  2  0  0  0  0
 17 16  1  0  0  0  0
 17 10  2  0  0  0  0
 18  5  1  0  0  0  0
 19 18  2  0  0  0  0
 20 19  1  0  0  0  0
 20 22  1  0  0  0  0
 21 20  1  0  0  0  0
 23 24  1  0  0  0  0
 23 20  1  0  0  0  0
 24 29  1  0  0  0  0
 25 30  1  0  0  0  0
 25 24  2  0  0  0  0
 26 25  1  0  0  0  0
 27 26  2  0  0  0  0
 27 28  1  0  0  0  0
 28 23  2  0  0  0  0
 31 26  1  0  0  0  0
 32 27  1  0  0  0  0
 33 28  1  0  0  0  0
M  END
>  <minimizedAffinity>
-6.407691

>  <minimizedRMSD>
0.659581125

$$$$
