
 OpenBabel03272509043D

 33 35  0  0  0  0  0  0  0  0999 V2000
   37.4910   30.3680   51.3160 C   0  0  0  0  0  0  0  0  0  0  0  0
   38.0260   31.0690   50.2210 C   0  0  0  0  0  0  0  0  0  0  0  0
   37.5530   30.7990   48.9330 C   0  0  0  0  0  0  0  0  0  0  0  0
   36.5770   29.8380   48.8690 N   0  0  0  0  0  0  0  0  0  0  0  0
   36.0870   29.1890   49.9170 C   0  0  0  0  0  0  0  0  0  0  0  0
   36.5510   29.4610   51.1400 N   0  0  0  0  0  0  0  0  0  0  0  0
   37.9180   30.6440   52.2750 H   0  0  0  0  0  0  0  0  0  0  0  0
   38.7760   31.7800   50.3380 H   0  0  0  0  0  0  0  0  0  0  0  0
   35.9730   30.2650   46.2680 Cl  0  0  0  0  0  0  0  0  0  0  0  0
   37.3970   31.2530   46.4310 C   0  0  0  0  0  0  0  0  0  0  0  0
   37.9610   31.3720   47.6700 C   0  0  0  0  0  0  0  0  0  0  0  0
   39.0960   32.1550   47.6570 C   0  0  0  0  0  0  0  0  0  0  0  0
   39.6800   32.3630   48.5470 H   0  0  0  0  0  0  0  0  0  0  0  0
   39.6030   32.7460   46.5350 C   0  0  0  0  0  0  0  0  0  0  0  0
   40.4840   33.3520   46.5410 H   0  0  0  0  0  0  0  0  0  0  0  0
   38.9880   32.5870   45.3240 C   0  0  0  0  0  3  0  0  0  0  0  0
   37.8490   31.8160   45.2720 C   0  0  0  0  0  3  0  0  0  0  0  0
   35.0600   28.2080   49.6420 C   0  0  0  0  0  3  0  0  0  0  0  0
   34.1700   28.4700   48.7220 C   0  0  0  0  0  3  0  0  0  0  0  0
   33.0510   27.6250   48.2820 C   0  0  0  0  0  0  0  0  0  0  0  0
   32.2870   28.3050   47.8440 H   0  0  0  0  0  0  0  0  0  0  0  0
   32.5610   27.1380   49.1490 H   0  0  0  0  0  0  0  0  0  0  0  0
   33.4600   26.6490   47.2310 C   0  0  0  0  0  0  0  0  0  0  0  0
   33.6280   25.2820   47.4120 C   0  0  0  0  0  0  0  0  0  0  0  0
   34.0120   24.4840   46.3530 C   0  0  0  0  0  0  0  0  0  0  0  0
   34.2410   25.0270   45.0740 C   0  0  0  0  0  0  0  0  0  0  0  0
   34.0770   26.3890   44.8910 C   0  0  0  0  0  0  0  0  0  0  0  0
   33.6930   27.1820   45.9530 C   0  0  0  0  0  0  0  0  0  0  0  0
   33.4400   24.9120   48.4030 H   0  0  0  0  0  0  0  0  0  0  0  0
   34.1090   23.4430   46.6070 H   0  0  0  0  0  0  0  0  0  0  0  0
   34.5380   24.3230   44.3110 H   0  0  0  0  0  0  0  0  0  0  0  0
   34.2620   26.7670   43.8990 H   0  0  0  0  0  0  0  0  0  0  0  0
   33.5850   28.2320   45.7350 H   0  0  0  0  0  0  0  0  0  0  0  0
  1  7  1  0  0  0  0
  2  8  1  0  0  0  0
  2  1  2  0  0  0  0
  3  2  1  0  0  0  0
  4  3  2  0  0  0  0
  4  5  1  0  0  0  0
  5  6  2  0  0  0  0
  6  1  1  0  0  0  0
  9 10  1  0  0  0  0
 10 11  1  0  0  0  0
 11  3  1  0  0  0  0
 12 11  2  0  0  0  0
 12 13  1  0  0  0  0
 14 15  1  0  0  0  0
 14 12  1  0  0  0  0
 16 14  2  0  0  0  0
 17 16  1  0  0  0  0
 17 10  2  0  0  0  0
 18  5  1  0  0  0  0
 19 18  2  0  0  0  0
 20 19  1  0  0  0  0
 20 22  1  0  0  0  0
 21 20  1  0  0  0  0
 23 24  1  0  0  0  0
 23 20  1  0  0  0  0
 24 29  1  0  0  0  0
 25 30  1  0  0  0  0
 25 24  2  0  0  0  0
 26 25  1  0  0  0  0
 27 26  2  0  0  0  0
 27 28  1  0  0  0  0
 28 23  2  0  0  0  0
 31 26  1  0  0  0  0
 32 27  1  0  0  0  0
 33 28  1  0  0  0  0
M  END
>  <minimizedAffinity>
-6.33442593

>  <minimizedRMSD>
0.869481683

$$$$
