
 OpenBabel03272505043D

 45 48  0  0  1  0  0  0  0  0999 V2000
   37.5630   32.1850   43.0440 C   0  0  2  0  0  0  0  0  0  0  0  0
   36.2070   32.9050   42.8070 C   0  0  0  0  0  0  0  0  0  0  0  0
   35.1960   31.8430   42.3940 C   0  0  0  0  0  0  0  0  0  0  0  0
   35.4550   31.6110   40.9390 C   0  0  0  0  0  0  0  0  0  0  0  0
   36.9190   31.5690   40.7010 C   0  0  0  0  0  0  0  0  0  0  0  0
   37.7700   31.2900   41.8560 C   0  0  2  0  0  0  0  0  0  0  0  0
   38.2650   33.0340   43.1310 H   0  0  0  0  0  0  0  0  0  0  0  0
   36.3000   33.7430   42.1360 H   0  0  0  0  0  0  0  0  0  0  0  0
   35.9020   33.3080   43.7930 H   0  0  0  0  0  0  0  0  0  0  0  0
   34.1720   32.0620   42.6740 H   0  0  0  0  0  0  0  0  0  0  0  0
   35.5910   30.8610   42.7940 H   0  0  0  0  0  0  0  0  0  0  0  0
   34.8250   30.8270   40.5420 H   0  0  0  0  0  0  0  0  0  0  0  0
   35.0330   32.5540   40.4310 H   0  0  0  0  0  0  0  0  0  0  0  0
   37.1990   32.6310   40.3760 H   0  0  0  0  0  0  0  0  0  0  0  0
   37.2070   31.0410   39.7640 H   0  0  0  0  0  0  0  0  0  0  0  0
   38.8150   31.6740   41.4630 H   0  0  0  0  0  0  0  0  0  0  0  0
   40.5770   30.4450   43.0100 Cl  0  0  0  0  0  0  0  0  0  0  0  0
   39.2620   29.3320   42.7290 C   0  0  0  0  0  0  0  0  0  0  0  0
   38.1500   29.9380   42.2450 C   0  0  0  0  0  0  0  0  0  0  0  0
   37.0970   29.0220   42.0610 C   0  0  0  0  0  0  0  0  0  0  0  0
   36.1150   29.2830   41.6970 H   0  0  0  0  0  0  0  0  0  0  0  0
   37.1940   27.6880   42.3360 C   0  0  0  0  0  0  0  0  0  0  0  0
   36.4040   26.9640   42.2030 H   0  0  0  0  0  0  0  0  0  0  0  0
   38.3720   27.1670   42.8240 C   0  0  0  0  0  0  0  0  0  0  0  0
   39.4420   28.0070   43.0300 C   0  0  0  0  0  0  0  0  0  0  0  0
   37.3380   31.4640   44.1720 O   0  0  0  0  0  0  0  0  0  0  0  0
   35.8240   30.0320   46.1950 Cl  0  0  0  0  0  0  0  0  0  0  0  0
   37.2180   31.0400   46.5170 C   0  0  0  0  0  0  0  0  0  0  0  0
   37.6250   31.1670   47.8160 C   0  0  0  0  0  0  0  0  0  0  0  0
   38.7380   31.9820   48.0200 C   0  0  0  0  0  0  0  0  0  0  0  0
   39.3590   32.6030   46.9500 C   0  0  0  0  0  0  0  0  0  0  0  0
   38.9010   32.4360   45.6740 C   0  0  0  0  0  0  0  0  0  0  0  0
   37.8180   31.6470   45.4490 C   0  0  0  0  0  0  0  0  0  0  0  0
   39.0820   32.0960   49.0520 H   0  0  0  0  0  0  0  0  0  0  0  0
   40.2150   33.2170   47.2000 H   0  0  0  0  0  0  0  0  0  0  0  0
   39.4640   32.9730   44.9300 H   0  0  0  0  0  0  0  0  0  0  0  0
   37.7140   29.8220   49.9170 C   0  0  0  0  0  0  0  0  0  0  0  0
   36.9840   30.5260   48.9620 C   0  0  0  0  0  0  0  0  0  0  0  0
   35.6040   30.6050   49.1350 C   0  0  0  0  0  0  0  0  0  0  0  0
   35.0390   30.0030   50.2060 N   0  0  0  0  0  0  0  0  0  0  0  0
   35.7730   29.3350   51.1030 C   0  0  0  0  0  0  0  0  0  0  0  0
   37.1110   29.2370   50.9680 N   0  0  0  0  0  0  0  0  0  0  0  0
   38.7680   29.7760   49.7640 H   0  0  0  0  0  0  0  0  0  0  0  0
   35.0700   31.1650   48.3670 H   0  0  0  0  0  0  0  0  0  0  0  0
   35.2400   28.8800   51.9320 H   0  0  0  0  0  0  0  0  0  0  0  0
  1  7  1  1  0  0  0
  1 26  1  0  0  0  0
  2  1  1  0  0  0  0
  2  9  1  0  0  0  0
  3 10  1  0  0  0  0
  3 11  1  0  0  0  0
  3  2  1  0  0  0  0
  4  3  1  0  0  0  0
  5  4  1  0  0  0  0
  5  6  1  0  0  0  0
  6 16  1  6  0  0  0
  6 19  1  0  0  0  0
  6  1  1  0  0  0  0
  8  2  1  0  0  0  0
 12  4  1  0  0  0  0
 13  4  1  0  0  0  0
 14  5  1  0  0  0  0
 15  5  1  0  0  0  0
 18 17  1  0  0  0  0
 18 25  1  0  0  0  0
 19 18  2  0  0  0  0
 20 19  1  0  0  0  0
 20 22  2  0  0  0  0
 21 20  1  0  0  0  0
 22 24  1  0  0  0  0
 23 22  1  0  0  0  0
 24 25  2  0  0  0  0
 26 33  1  0  0  0  0
 27 28  1  0  0  0  0
 28 29  1  0  0  0  0
 29 30  2  0  0  0  0
 29 38  1  0  0  0  0
 30 34  1  0  0  0  0
 31 35  1  0  0  0  0
 31 30  1  0  0  0  0
 32 31  2  0  0  0  0
 33 32  1  0  0  0  0
 33 28  2  0  0  0  0
 36 32  1  0  0  0  0
 37 42  1  0  0  0  0
 38 39  1  0  0  0  0
 38 37  2  0  0  0  0
 39 40  2  0  0  0  0
 40 41  1  0  0  0  0
 41 45  1  0  0  0  0
 42 41  2  0  0  0  0
 43 37  1  0  0  0  0
 44 39  1  0  0  0  0
M  END
>  <minimizedAffinity>
-5.88164234

>  <minimizedRMSD>
3.31664443

$$$$
