
 OpenBabel03272509123D

 28 30  0  0  0  0  0  0  0  0999 V2000
   38.2690   23.3800   32.3520 C   0  0  0  0  0  0  0  0  0  0  0  0
   38.5980   23.6650   33.6940 C   0  0  0  0  0  0  0  0  0  0  0  0
   38.0970   22.8650   34.7000 C   0  0  0  0  0  0  0  0  0  0  0  0
   37.2900   21.8080   34.3760 N   0  0  0  0  0  0  0  0  0  0  0  0
   36.9860   21.5540   33.0670 C   0  0  0  0  0  0  0  0  0  0  0  0
   37.4740   22.3350   32.0730 N   0  0  0  0  0  0  0  0  0  0  0  0
   38.6090   23.9400   31.5150 H   0  0  0  0  0  0  0  0  0  0  0  0
   36.3380   20.7060   32.8250 H   0  0  0  0  0  0  0  0  0  0  0  0
   38.3870   23.0930   36.0940 C   0  0  0  0  0  0  0  0  0  0  0  0
   39.5400   22.5660   36.6080 C   0  0  0  0  0  0  0  0  0  0  0  0
   39.9090   22.7380   37.9380 C   0  0  0  0  0  0  0  0  0  0  0  0
   39.0450   23.4790   38.7460 C   0  0  0  0  0  0  0  0  0  0  0  0
   37.8510   24.0420   38.2800 C   0  0  0  0  0  0  0  0  0  0  0  0
   37.5690   23.8160   36.9390 C   0  0  0  0  0  0  0  0  0  0  0  0
   40.2990   21.9630   36.1360 H   0  0  0  0  0  0  0  0  0  0  0  0
   40.7740   22.3770   38.4360 H   0  0  0  0  0  0  0  0  0  0  0  0
   39.2320   23.6770   39.7990 H   0  0  0  0  0  0  0  0  0  0  0  0
   37.2020   24.6080   38.9230 H   0  0  0  0  0  0  0  0  0  0  0  0
   36.6490   24.2430   36.5560 H   0  0  0  0  0  0  0  0  0  0  0  0
   37.2620   26.3470   34.2710 Cl  0  0  0  0  0  0  0  0  0  0  0  0
   39.0040   26.1250   34.0940 C   0  0  0  0  0  0  0  0  0  0  0  0
   39.4400   24.8360   33.8270 C   0  0  0  0  0  0  0  0  0  0  0  0
   40.8230   24.6480   33.6840 C   0  0  0  0  0  0  0  0  0  0  0  0
   41.3200   23.6920   33.4720 H   0  0  0  0  0  0  0  0  0  0  0  0
   41.7140   25.6990   33.8050 C   0  0  0  0  0  0  0  0  0  0  0  0
   42.7650   25.6000   33.7060 H   0  0  0  0  0  0  0  0  0  0  0  0
   41.2470   26.9800   34.0750 C   0  0  0  0  0  3  0  0  0  0  0  0
   39.8860   27.1780   34.2170 C   0  0  0  0  0  3  0  0  0  0  0  0
  1  2  1  0  0  0  0
  2 22  1  0  0  0  0
  2  3  2  0  0  0  0
  3  9  1  0  0  0  0
  4  3  1  0  0  0  0
  5  4  2  0  0  0  0
  6  1  2  0  0  0  0
  6  5  1  0  0  0  0
  7  1  1  0  0  0  0
  8  5  1  0  0  0  0
  9 10  2  0  0  0  0
  9 14  1  0  0  0  0
 10 11  1  0  0  0  0
 11 16  1  0  0  0  0
 11 12  2  0  0  0  0
 12 17  1  0  0  0  0
 13 12  1  0  0  0  0
 13 18  1  0  0  0  0
 14 13  2  0  0  0  0
 15 10  1  0  0  0  0
 19 14  1  0  0  0  0
 21 28  1  0  0  0  0
 21 20  1  0  0  0  0
 22 21  2  0  0  0  0
 23 25  2  0  0  0  0
 23 22  1  0  0  0  0
 24 23  1  0  0  0  0
 25 27  1  0  0  0  0
 26 25  1  0  0  0  0
 27 28  2  0  0  0  0
M  END
>  <minimizedAffinity>
-5.11497927

$$$$

 OpenBabel03272509123D

 28 30  0  0  0  0  0  0  0  0999 V2000
   35.2730   25.7910   30.7600 C   0  0  0  0  0  0  0  0  0  0  0  0
   36.1430   26.3990   31.6890 C   0  0  0  0  0  0  0  0  0  0  0  0
   36.8810   25.6090   32.5450 C   0  0  0  0  0  0  0  0  0  0  0  0
   36.7540   24.2480   32.4780 N   0  0  0  0  0  0  0  0  0  0  0  0
   35.9030   23.6840   31.5680 C   0  0  0  0  0  0  0  0  0  0  0  0
   35.1750   24.4530   30.7230 N   0  0  0  0  0  0  0  0  0  0  0  0
   34.6680   26.3190   30.0630 H   0  0  0  0  0  0  0  0  0  0  0  0
   35.8120   22.5930   31.5280 H   0  0  0  0  0  0  0  0  0  0  0  0
   37.7900   26.1560   33.5230 C   0  0  0  0  0  0  0  0  0  0  0  0
   37.3100   26.4100   34.7780 C   0  0  0  0  0  0  0  0  0  0  0  0
   38.1100   26.9310   35.7890 C   0  0  0  0  0  0  0  0  0  0  0  0
   39.4450   27.1910   35.4720 C   0  0  0  0  0  0  0  0  0  0  0  0
   39.9950   26.9530   34.2080 C   0  0  0  0  0  0  0  0  0  0  0  0
   39.1180   26.4330   33.2640 C   0  0  0  0  0  0  0  0  0  0  0  0
   36.3170   26.2870   35.1810 H   0  0  0  0  0  0  0  0  0  0  0  0
   37.8440   27.1630   36.7900 H   0  0  0  0  0  0  0  0  0  0  0  0
   40.1610   27.5970   36.1840 H   0  0  0  0  0  0  0  0  0  0  0  0
   41.0250   27.1630   33.9890 H   0  0  0  0  0  0  0  0  0  0  0  0
   39.5210   26.2410   32.2770 H   0  0  0  0  0  0  0  0  0  0  0  0
   38.1980   27.8020   29.9220 Cl  0  0  0  0  0  0  0  0  0  0  0  0
   36.9640   28.6400   30.8640 C   0  0  0  0  0  0  0  0  0  0  0  0
   36.1140   27.8460   31.6190 C   0  0  0  0  0  0  0  0  0  0  0  0
   35.1290   28.5020   32.3720 C   0  0  0  0  0  0  0  0  0  0  0  0
   34.3860   28.0140   33.0150 H   0  0  0  0  0  0  0  0  0  0  0  0
   35.0080   29.8800   32.3640 C   0  0  0  0  0  0  0  0  0  0  0  0
   34.2790   30.4140   32.9170 H   0  0  0  0  0  0  0  0  0  0  0  0
   35.8750   30.6500   31.5970 C   0  0  0  0  0  3  0  0  0  0  0  0
   36.8500   30.0150   30.8500 C   0  0  0  0  0  3  0  0  0  0  0  0
  1  2  1  0  0  0  0
  2  3  2  0  0  0  0
  3  9  1  0  0  0  0
  4  3  1  0  0  0  0
  5  4  2  0  0  0  0
  6  1  2  0  0  0  0
  6  5  1  0  0  0  0
  7  1  1  0  0  0  0
  8  5  1  0  0  0  0
  9 10  1  0  0  0  0
 10 15  1  0  0  0  0
 10 11  2  0  0  0  0
 11 16  1  0  0  0  0
 12 11  1  0  0  0  0
 12 17  1  0  0  0  0
 13 12  2  0  0  0  0
 14  9  2  0  0  0  0
 14 13  1  0  0  0  0
 18 13  1  0  0  0  0
 19 14  1  0  0  0  0
 20 21  1  0  0  0  0
 21 22  1  0  0  0  0
 22  2  1  0  0  0  0
 22 23  2  0  0  0  0
 23 24  1  0  0  0  0
 25 23  1  0  0  0  0
 25 26  1  0  0  0  0
 27 25  2  0  0  0  0
 28 21  2  0  0  0  0
 28 27  1  0  0  0  0
M  END
>  <minimizedAffinity>
-5.07470226

$$$$

 OpenBabel03272509123D

 28 30  0  0  0  0  0  0  0  0999 V2000
   37.2060   24.3500   32.2490 C   0  0  0  0  0  0  0  0  0  0  0  0
   37.2870   25.7580   32.2440 C   0  0  0  0  0  0  0  0  0  0  0  0
   36.2810   26.4920   31.6500 C   0  0  0  0  0  0  0  0  0  0  0  0
   35.2240   25.8400   31.0770 N   0  0  0  0  0  0  0  0  0  0  0  0
   35.1710   24.4730   31.0950 C   0  0  0  0  0  0  0  0  0  0  0  0
   36.1550   23.7440   31.6770 N   0  0  0  0  0  0  0  0  0  0  0  0
   37.9320   23.7050   32.6830 H   0  0  0  0  0  0  0  0  0  0  0  0
   34.3190   23.9660   30.6310 H   0  0  0  0  0  0  0  0  0  0  0  0
   36.2920   27.9340   31.6030 C   0  0  0  0  0  0  0  0  0  0  0  0
   36.7690   28.5380   30.4720 C   0  0  0  0  0  0  0  0  0  0  0  0
   36.8130   29.9210   30.3300 C   0  0  0  0  0  0  0  0  0  0  0  0
   36.3470   30.6850   31.4010 C   0  0  0  0  0  0  0  0  0  0  0  0
   35.8480   30.1270   32.5840 C   0  0  0  0  0  0  0  0  0  0  0  0
   35.8450   28.7380   32.6320 C   0  0  0  0  0  0  0  0  0  0  0  0
   37.1770   28.1060   29.5730 H   0  0  0  0  0  0  0  0  0  0  0  0
   37.1590   30.4900   29.5030 H   0  0  0  0  0  0  0  0  0  0  0  0
   36.3340   31.7730   31.4000 H   0  0  0  0  0  0  0  0  0  0  0  0
   35.4960   30.7370   33.3950 H   0  0  0  0  0  0  0  0  0  0  0  0
   35.4630   28.2830   33.5390 H   0  0  0  0  0  0  0  0  0  0  0  0
   37.1950   26.3960   35.2260 Cl  0  0  0  0  0  0  0  0  0  0  0  0
   38.6300   26.5830   34.2160 C   0  0  0  0  0  0  0  0  0  0  0  0
   38.4920   26.2520   32.8770 C   0  0  0  0  0  0  0  0  0  0  0  0
   39.6260   26.3980   32.0640 C   0  0  0  0  0  0  0  0  0  0  0  0
   39.6760   26.1780   30.9900 H   0  0  0  0  0  0  0  0  0  0  0  0
   40.8300   26.8510   32.5740 C   0  0  0  0  0  0  0  0  0  0  0  0
   41.7100   26.9740   31.9960 H   0  0  0  0  0  0  0  0  0  0  0  0
   40.9380   27.1740   33.9220 C   0  0  0  0  0  3  0  0  0  0  0  0
   39.8260   27.0350   34.7320 C   0  0  0  0  0  3  0  0  0  0  0  0
  1  7  1  0  0  0  0
  2  1  1  0  0  0  0
  2 22  1  0  0  0  0
  3  2  2  0  0  0  0
  4  5  2  0  0  0  0
  4  3  1  0  0  0  0
  5  6  1  0  0  0  0
  6  1  2  0  0  0  0
  8  5  1  0  0  0  0
  9  3  1  0  0  0  0
  9 14  1  0  0  0  0
 10  9  2  0  0  0  0
 11 10  1  0  0  0  0
 11 12  2  0  0  0  0
 12 13  1  0  0  0  0
 13 14  2  0  0  0  0
 13 18  1  0  0  0  0
 14 19  1  0  0  0  0
 15 10  1  0  0  0  0
 16 11  1  0  0  0  0
 17 12  1  0  0  0  0
 21 28  1  0  0  0  0
 21 20  1  0  0  0  0
 22 21  2  0  0  0  0
 23 25  2  0  0  0  0
 23 22  1  0  0  0  0
 24 23  1  0  0  0  0
 25 27  1  0  0  0  0
 26 25  1  0  0  0  0
 27 28  2  0  0  0  0
M  END
>  <minimizedAffinity>
-5.05458355

$$$$

 OpenBabel03272509123D

 28 30  0  0  0  0  0  0  0  0999 V2000
   37.2830   21.7280   34.3910 C   0  0  0  0  0  0  0  0  0  0  0  0
   38.0950   22.8570   34.6310 C   0  0  0  0  0  0  0  0  0  0  0  0
   38.4270   23.6890   33.5820 C   0  0  0  0  0  0  0  0  0  0  0  0
   37.9620   23.4030   32.3270 N   0  0  0  0  0  0  0  0  0  0  0  0
   37.1760   22.3020   32.1220 C   0  0  0  0  0  0  0  0  0  0  0  0
   36.8450   21.4800   33.1470 N   0  0  0  0  0  0  0  0  0  0  0  0
   36.9760   21.0350   35.1370 H   0  0  0  0  0  0  0  0  0  0  0  0
   36.8130   22.0870   31.1120 H   0  0  0  0  0  0  0  0  0  0  0  0
   39.2540   24.8590   33.7470 C   0  0  0  0  0  0  0  0  0  0  0  0
   40.5180   24.8340   33.2250 C   0  0  0  0  0  0  0  0  0  0  0  0
   41.3870   25.9150   33.3260 C   0  0  0  0  0  0  0  0  0  0  0  0
   40.9150   27.0470   33.9940 C   0  0  0  0  0  0  0  0  0  0  0  0
   39.6340   27.1340   34.5500 C   0  0  0  0  0  0  0  0  0  0  0  0
   38.8410   26.0040   34.3980 C   0  0  0  0  0  0  0  0  0  0  0  0
   41.0390   24.0470   32.7030 H   0  0  0  0  0  0  0  0  0  0  0  0
   42.3790   26.0030   32.9600 H   0  0  0  0  0  0  0  0  0  0  0  0
   41.5070   27.9500   34.1320 H   0  0  0  0  0  0  0  0  0  0  0  0
   39.2960   28.0170   35.0600 H   0  0  0  0  0  0  0  0  0  0  0  0
   37.8440   26.0480   34.8210 H   0  0  0  0  0  0  0  0  0  0  0  0
   40.8950   21.9110   35.3920 Cl  0  0  0  0  0  0  0  0  0  0  0  0
   39.7360   22.5950   36.5330 C   0  0  0  0  0  0  0  0  0  0  0  0
   38.5040   22.9680   36.0170 C   0  0  0  0  0  0  0  0  0  0  0  0
   37.5740   23.5120   36.9150 C   0  0  0  0  0  0  0  0  0  0  0  0
   36.5620   23.8520   36.6600 H   0  0  0  0  0  0  0  0  0  0  0  0
   37.8700   23.6720   38.2570 C   0  0  0  0  0  0  0  0  0  0  0  0
   37.1980   24.0790   38.9680 H   0  0  0  0  0  0  0  0  0  0  0  0
   39.1150   23.2900   38.7450 C   0  0  0  0  0  3  0  0  0  0  0  0
   40.0390   22.7520   37.8690 C   0  0  0  0  0  3  0  0  0  0  0  0
  1  2  1  0  0  0  0
  1  7  1  0  0  0  0
  2 22  1  0  0  0  0
  3  9  1  0  0  0  0
  3  2  2  0  0  0  0
  4  3  1  0  0  0  0
  5  4  2  0  0  0  0
  5  6  1  0  0  0  0
  6  1  2  0  0  0  0
  8  5  1  0  0  0  0
  9 14  1  0  0  0  0
 10 11  1  0  0  0  0
 10  9  2  0  0  0  0
 11 12  2  0  0  0  0
 12 17  1  0  0  0  0
 12 13  1  0  0  0  0
 13 18  1  0  0  0  0
 14 13  2  0  0  0  0
 14 19  1  0  0  0  0
 15 10  1  0  0  0  0
 16 11  1  0  0  0  0
 20 21  1  0  0  0  0
 21 28  1  0  0  0  0
 22 21  2  0  0  0  0
 22 23  1  0  0  0  0
 23 25  2  0  0  0  0
 24 23  1  0  0  0  0
 25 27  1  0  0  0  0
 25 26  1  0  0  0  0
 28 27  2  0  0  0  0
M  END
>  <minimizedAffinity>
-4.94009686

$$$$

 OpenBabel03272509123D

 28 30  0  0  0  0  0  0  0  0999 V2000
   37.2270   24.3430   32.2380 C   0  0  0  0  0  0  0  0  0  0  0  0
   37.2790   25.7520   32.2770 C   0  0  0  0  0  0  0  0  0  0  0  0
   36.2530   26.4850   31.7170 C   0  0  0  0  0  0  0  0  0  0  0  0
   35.2030   25.8300   31.1330 N   0  0  0  0  0  0  0  0  0  0  0  0
   35.1770   24.4620   31.1090 C   0  0  0  0  0  0  0  0  0  0  0  0
   36.1810   23.7350   31.6570 N   0  0  0  0  0  0  0  0  0  0  0  0
   37.9690   23.7000   32.6440 H   0  0  0  0  0  0  0  0  0  0  0  0
   34.3300   23.9530   30.6370 H   0  0  0  0  0  0  0  0  0  0  0  0
   36.2350   27.9270   31.7160 C   0  0  0  0  0  0  0  0  0  0  0  0
   36.6670   28.5760   30.5920 C   0  0  0  0  0  0  0  0  0  0  0  0
   36.6810   29.9630   30.4920 C   0  0  0  0  0  0  0  0  0  0  0  0
   36.2320   30.6840   31.6000 C   0  0  0  0  0  0  0  0  0  0  0  0
   35.7790   30.0790   32.7780 C   0  0  0  0  0  0  0  0  0  0  0  0
   35.8030   28.6900   32.7820 C   0  0  0  0  0  0  0  0  0  0  0  0
   37.0570   28.1800   29.6670 H   0  0  0  0  0  0  0  0  0  0  0  0
   36.9910   30.5640   29.6740 H   0  0  0  0  0  0  0  0  0  0  0  0
   36.1980   31.7700   31.6340 H   0  0  0  0  0  0  0  0  0  0  0  0
   35.4390   30.6560   33.6180 H   0  0  0  0  0  0  0  0  0  0  0  0
   35.4570   28.1990   33.6840 H   0  0  0  0  0  0  0  0  0  0  0  0
   39.6610   26.4630   30.5070 Cl  0  0  0  0  0  0  0  0  0  0  0  0
   39.6480   26.6260   32.2640 C   0  0  0  0  0  0  0  0  0  0  0  0
   38.4820   26.2500   32.9130 C   0  0  0  0  0  0  0  0  0  0  0  0
   38.4600   26.3750   34.3090 C   0  0  0  0  0  0  0  0  0  0  0  0
   37.6150   26.1210   34.9620 H   0  0  0  0  0  0  0  0  0  0  0  0
   39.5530   26.8520   35.0120 C   0  0  0  0  0  0  0  0  0  0  0  0
   39.5780   26.9630   36.0650 H   0  0  0  0  0  0  0  0  0  0  0  0
   40.7090   27.2220   34.3330 C   0  0  0  0  0  3  0  0  0  0  0  0
   40.7410   27.1030   32.9560 C   0  0  0  0  0  3  0  0  0  0  0  0
  1  2  1  0  0  0  0
  1  7  1  0  0  0  0
  2 22  1  0  0  0  0
  3  2  2  0  0  0  0
  4  3  1  0  0  0  0
  5  4  2  0  0  0  0
  5  6  1  0  0  0  0
  6  1  2  0  0  0  0
  8  5  1  0  0  0  0
  9  3  1  0  0  0  0
  9 14  1  0  0  0  0
 10  9  2  0  0  0  0
 11 10  1  0  0  0  0
 11 12  2  0  0  0  0
 12 17  1  0  0  0  0
 12 13  1  0  0  0  0
 13 14  2  0  0  0  0
 13 18  1  0  0  0  0
 14 19  1  0  0  0  0
 15 10  1  0  0  0  0
 16 11  1  0  0  0  0
 20 21  1  0  0  0  0
 21 22  2  0  0  0  0
 21 28  1  0  0  0  0
 22 23  1  0  0  0  0
 23 24  1  0  0  0  0
 23 25  2  0  0  0  0
 25 26  1  0  0  0  0
 27 25  1  0  0  0  0
 28 27  2  0  0  0  0
M  END
>  <minimizedAffinity>
-4.93871689

$$$$

 OpenBabel03272509123D

 28 30  0  0  0  0  0  0  0  0999 V2000
   37.7210   23.1840   32.3550 C   0  0  0  0  0  0  0  0  0  0  0  0
   38.2320   23.4550   33.6410 C   0  0  0  0  0  0  0  0  0  0  0  0
   37.9040   22.6220   34.6910 C   0  0  0  0  0  0  0  0  0  0  0  0
   37.0890   21.5460   34.4630 N   0  0  0  0  0  0  0  0  0  0  0  0
   36.6070   21.3060   33.2050 C   0  0  0  0  0  0  0  0  0  0  0  0
   36.9250   22.1200   32.1690 N   0  0  0  0  0  0  0  0  0  0  0  0
   37.9210   23.7690   31.4900 H   0  0  0  0  0  0  0  0  0  0  0  0
   35.9550   20.4430   33.0400 H   0  0  0  0  0  0  0  0  0  0  0  0
   38.3840   22.8340   36.0340 C   0  0  0  0  0  0  0  0  0  0  0  0
   37.5480   23.4440   36.9290 C   0  0  0  0  0  0  0  0  0  0  0  0
   37.9180   23.6850   38.2480 C   0  0  0  0  0  0  0  0  0  0  0  0
   39.1960   23.2780   38.6330 C   0  0  0  0  0  0  0  0  0  0  0  0
   40.0980   22.6510   37.7650 C   0  0  0  0  0  0  0  0  0  0  0  0
   39.6380   22.4530   36.4700 C   0  0  0  0  0  0  0  0  0  0  0  0
   36.5500   23.8310   36.7950 H   0  0  0  0  0  0  0  0  0  0  0  0
   37.3530   24.1460   39.0190 H   0  0  0  0  0  0  0  0  0  0  0  0
   39.5910   23.4150   39.6380 H   0  0  0  0  0  0  0  0  0  0  0  0
   41.0770   22.3480   38.0860 H   0  0  0  0  0  0  0  0  0  0  0  0
   40.3190   21.9690   35.7790 H   0  0  0  0  0  0  0  0  0  0  0  0
   41.2420   23.1550   33.2440 Cl  0  0  0  0  0  0  0  0  0  0  0  0
   40.4260   24.6970   33.5100 C   0  0  0  0  0  0  0  0  0  0  0  0
   39.0510   24.6500   33.6780 C   0  0  0  0  0  0  0  0  0  0  0  0
   38.3920   25.8690   33.8910 C   0  0  0  0  0  0  0  0  0  0  0  0
   37.3120   25.9950   34.0400 H   0  0  0  0  0  0  0  0  0  0  0  0
   39.0810   27.0690   33.9310 C   0  0  0  0  0  0  0  0  0  0  0  0
   38.6220   28.0110   34.0870 H   0  0  0  0  0  0  0  0  0  0  0  0
   40.4600   27.0850   33.7570 C   0  0  0  0  0  3  0  0  0  0  0  0
   41.1200   25.8880   33.5480 C   0  0  0  0  0  3  0  0  0  0  0  0
  1  2  1  0  0  0  0
  2 22  1  0  0  0  0
  2  3  2  0  0  0  0
  3  9  1  0  0  0  0
  4  3  1  0  0  0  0
  5  4  2  0  0  0  0
  6  1  2  0  0  0  0
  6  5  1  0  0  0  0
  7  1  1  0  0  0  0
  8  5  1  0  0  0  0
  9 14  2  0  0  0  0
  9 10  1  0  0  0  0
 10 11  2  0  0  0  0
 11 12  1  0  0  0  0
 11 16  1  0  0  0  0
 12 17  1  0  0  0  0
 13 18  1  0  0  0  0
 13 12  2  0  0  0  0
 14 13  1  0  0  0  0
 15 10  1  0  0  0  0
 19 14  1  0  0  0  0
 20 21  1  0  0  0  0
 21 28  2  0  0  0  0
 21 22  1  0  0  0  0
 22 23  2  0  0  0  0
 23 25  1  0  0  0  0
 23 24  1  0  0  0  0
 25 26  1  0  0  0  0
 27 25  2  0  0  0  0
 28 27  1  0  0  0  0
M  END
>  <minimizedAffinity>
-4.90983772

$$$$

 OpenBabel03272509123D

 28 30  0  0  0  0  0  0  0  0999 V2000
   41.2770   27.1370   33.9000 C   0  0  0  0  0  0  0  0  0  0  0  0
   40.2370   26.2150   34.1410 C   0  0  0  0  0  0  0  0  0  0  0  0
   40.5420   24.9640   34.6370 C   0  0  0  0  0  0  0  0  0  0  0  0
   41.8490   24.6420   34.8850 N   0  0  0  0  0  0  0  0  0  0  0  0
   42.8380   25.5550   34.6410 C   0  0  0  0  0  0  0  0  0  0  0  0
   42.5470   26.7860   34.1550 N   0  0  0  0  0  0  0  0  0  0  0  0
   41.1360   28.1210   33.5210 H   0  0  0  0  0  0  0  0  0  0  0  0
   43.8780   25.2810   34.8440 H   0  0  0  0  0  0  0  0  0  0  0  0
   39.5360   23.9670   34.9080 C   0  0  0  0  0  0  0  0  0  0  0  0
   39.0840   23.8390   36.1930 C   0  0  0  0  0  0  0  0  0  0  0  0
   38.1120   22.9120   36.5510 C   0  0  0  0  0  0  0  0  0  0  0  0
   37.6040   22.1000   35.5350 C   0  0  0  0  0  0  0  0  0  0  0  0
   38.0260   22.1810   34.2030 C   0  0  0  0  0  0  0  0  0  0  0  0
   39.0000   23.1370   33.9430 C   0  0  0  0  0  0  0  0  0  0  0  0
   39.3770   24.3650   37.0880 H   0  0  0  0  0  0  0  0  0  0  0  0
   37.6910   22.7310   37.5090 H   0  0  0  0  0  0  0  0  0  0  0  0
   36.8410   21.3420   35.6990 H   0  0  0  0  0  0  0  0  0  0  0  0
   37.6200   21.5440   33.4400 H   0  0  0  0  0  0  0  0  0  0  0  0
   39.3430   23.2180   32.9180 H   0  0  0  0  0  0  0  0  0  0  0  0
   38.4670   27.2970   36.3780 Cl  0  0  0  0  0  0  0  0  0  0  0  0
   38.0080   27.2730   34.6750 C   0  0  0  0  0  0  0  0  0  0  0  0
   38.9330   26.7380   33.7910 C   0  0  0  0  0  0  0  0  0  0  0  0
   38.5780   26.7130   32.4340 C   0  0  0  0  0  0  0  0  0  0  0  0
   39.2000   26.3230   31.6180 H   0  0  0  0  0  0  0  0  0  0  0  0
   37.3600   27.1990   31.9940 C   0  0  0  0  0  0  0  0  0  0  0  0
   37.0540   27.2000   30.9790 H   0  0  0  0  0  0  0  0  0  0  0  0
   36.4530   27.7300   32.9030 C   0  0  0  0  0  3  0  0  0  0  0  0
   36.7920   27.7600   34.2440 C   0  0  0  0  0  3  0  0  0  0  0  0
  1  2  2  0  0  0  0
  1  6  1  0  0  0  0
  2  3  1  0  0  0  0
  3  4  2  0  0  0  0
  3  9  1  0  0  0  0
  5  8  1  0  0  0  0
  5  4  1  0  0  0  0
  6  5  2  0  0  0  0
  7  1  1  0  0  0  0
  9 10  1  0  0  0  0
 10 11  2  0  0  0  0
 10 15  1  0  0  0  0
 11 16  1  0  0  0  0
 12 17  1  0  0  0  0
 12 11  1  0  0  0  0
 13 12  2  0  0  0  0
 14 13  1  0  0  0  0
 14  9  2  0  0  0  0
 18 13  1  0  0  0  0
 19 14  1  0  0  0  0
 21 20  1  0  0  0  0
 22  2  1  0  0  0  0
 22 21  2  0  0  0  0
 23 22  1  0  0  0  0
 24 23  1  0  0  0  0
 25 23  2  0  0  0  0
 25 27  1  0  0  0  0
 26 25  1  0  0  0  0
 27 28  2  0  0  0  0
 28 21  1  0  0  0  0
M  END
>  <minimizedAffinity>
-4.82408524

$$$$

 OpenBabel03272509123D

 28 30  0  0  0  0  0  0  0  0999 V2000
   41.7840   24.3480   35.0690 C   0  0  0  0  0  0  0  0  0  0  0  0
   40.5000   24.8890   34.8470 C   0  0  0  0  0  0  0  0  0  0  0  0
   40.3790   26.1910   34.4060 C   0  0  0  0  0  0  0  0  0  0  0  0
   41.5090   26.9330   34.1920 N   0  0  0  0  0  0  0  0  0  0  0  0
   42.7420   26.3840   34.4160 C   0  0  0  0  0  0  0  0  0  0  0  0
   42.8690   25.1060   34.8490 N   0  0  0  0  0  0  0  0  0  0  0  0
   41.9720   23.3580   35.4070 H   0  0  0  0  0  0  0  0  0  0  0  0
   43.6360   26.9920   34.2410 H   0  0  0  0  0  0  0  0  0  0  0  0
   39.1030   26.8150   34.1590 C   0  0  0  0  0  0  0  0  0  0  0  0
   38.6870   26.9390   32.8620 C   0  0  0  0  0  0  0  0  0  0  0  0
   37.4690   27.5200   32.5230 C   0  0  0  0  0  0  0  0  0  0  0  0
   36.6730   27.9810   33.5720 C   0  0  0  0  0  0  0  0  0  0  0  0
   37.0430   27.8850   34.9180 C   0  0  0  0  0  0  0  0  0  0  0  0
   38.2750   27.2900   35.1560 C   0  0  0  0  0  0  0  0  0  0  0  0
   39.1780   26.6570   31.9440 H   0  0  0  0  0  0  0  0  0  0  0  0
   37.0510   27.6640   31.5580 H   0  0  0  0  0  0  0  0  0  0  0  0
   35.7020   28.4510   33.4250 H   0  0  0  0  0  0  0  0  0  0  0  0
   36.4120   28.2490   35.7080 H   0  0  0  0  0  0  0  0  0  0  0  0
   38.5830   27.2040   36.1920 H   0  0  0  0  0  0  0  0  0  0  0  0
   39.3230   23.2370   32.5690 Cl  0  0  0  0  0  0  0  0  0  0  0  0
   38.7980   23.1230   34.2490 C   0  0  0  0  0  0  0  0  0  0  0  0
   39.4370   23.9540   35.1560 C   0  0  0  0  0  0  0  0  0  0  0  0
   39.0270   23.8730   36.4950 C   0  0  0  0  0  0  0  0  0  0  0  0
   39.4360   24.4620   37.3260 H   0  0  0  0  0  0  0  0  0  0  0  0
   38.0290   23.0030   36.8960 C   0  0  0  0  0  0  0  0  0  0  0  0
   37.6910   22.9090   37.8960 H   0  0  0  0  0  0  0  0  0  0  0  0
   37.4060   22.1810   35.9640 C   0  0  0  0  0  3  0  0  0  0  0  0
   37.8020   22.2530   34.6410 C   0  0  0  0  0  3  0  0  0  0  0  0
  1  7  1  0  0  0  0
  2  1  2  0  0  0  0
  2 22  1  0  0  0  0
  3  2  1  0  0  0  0
  4  3  2  0  0  0  0
  4  5  1  0  0  0  0
  5  6  2  0  0  0  0
  6  1  1  0  0  0  0
  8  5  1  0  0  0  0
  9  3  1  0  0  0  0
  9 14  1  0  0  0  0
 10  9  2  0  0  0  0
 11 10  1  0  0  0  0
 11 12  2  0  0  0  0
 12 13  1  0  0  0  0
 13 14  2  0  0  0  0
 13 18  1  0  0  0  0
 14 19  1  0  0  0  0
 15 10  1  0  0  0  0
 16 11  1  0  0  0  0
 17 12  1  0  0  0  0
 20 21  1  0  0  0  0
 21 28  2  0  0  0  0
 21 22  1  0  0  0  0
 22 23  2  0  0  0  0
 23 25  1  0  0  0  0
 23 24  1  0  0  0  0
 25 26  1  0  0  0  0
 27 25  2  0  0  0  0
 28 27  1  0  0  0  0
M  END
>  <minimizedAffinity>
-4.79672909

$$$$

 OpenBabel03272509123D

 28 30  0  0  0  0  0  0  0  0999 V2000
   41.3320   26.3570   34.5750 C   0  0  0  0  0  0  0  0  0  0  0  0
   40.0620   25.9550   34.1100 C   0  0  0  0  0  0  0  0  0  0  0  0
   39.6410   26.3550   32.8590 C   0  0  0  0  0  0  0  0  0  0  0  0
   40.4640   27.1340   32.0920 N   0  0  0  0  0  0  0  0  0  0  0  0
   41.6910   27.5090   32.5680 C   0  0  0  0  0  0  0  0  0  0  0  0
   42.1120   27.1210   33.7950 N   0  0  0  0  0  0  0  0  0  0  0  0
   41.7380   26.0960   35.5230 H   0  0  0  0  0  0  0  0  0  0  0  0
   42.3370   28.1340   31.9420 H   0  0  0  0  0  0  0  0  0  0  0  0
   38.3570   25.9870   32.3140 C   0  0  0  0  0  0  0  0  0  0  0  0
   37.3350   26.8930   32.4040 C   0  0  0  0  0  0  0  0  0  0  0  0
   36.0650   26.6330   31.9030 C   0  0  0  0  0  0  0  0  0  0  0  0
   35.8640   25.3930   31.2940 C   0  0  0  0  0  0  0  0  0  0  0  0
   36.8670   24.4250   31.1710 C   0  0  0  0  0  0  0  0  0  0  0  0
   38.1020   24.7760   31.7030 C   0  0  0  0  0  0  0  0  0  0  0  0
   37.3140   27.8740   32.8510 H   0  0  0  0  0  0  0  0  0  0  0  0
   35.2070   27.2590   31.9180 H   0  0  0  0  0  0  0  0  0  0  0  0
   34.9120   25.0830   30.8670 H   0  0  0  0  0  0  0  0  0  0  0  0
   36.6860   23.4780   30.6990 H   0  0  0  0  0  0  0  0  0  0  0  0
   38.8950   24.0420   31.6200 H   0  0  0  0  0  0  0  0  0  0  0  0
   38.1500   27.3820   36.0120 Cl  0  0  0  0  0  0  0  0  0  0  0  0
   38.4280   25.6400   36.0080 C   0  0  0  0  0  0  0  0  0  0  0  0
   39.3370   25.1590   35.0790 C   0  0  0  0  0  0  0  0  0  0  0  0
   39.5660   23.7750   35.0670 C   0  0  0  0  0  0  0  0  0  0  0  0
   40.2530   23.2460   34.3940 H   0  0  0  0  0  0  0  0  0  0  0  0
   38.9150   22.9250   35.9430 C   0  0  0  0  0  0  0  0  0  0  0  0
   39.0580   21.8750   35.9670 H   0  0  0  0  0  0  0  0  0  0  0  0
   38.0070   23.4360   36.8640 C   0  0  0  0  0  3  0  0  0  0  0  0
   37.7740   24.7990   36.8850 C   0  0  0  0  0  3  0  0  0  0  0  0
  1  7  1  0  0  0  0
  2  1  1  0  0  0  0
  2 22  1  0  0  0  0
  3  2  2  0  0  0  0
  4  5  2  0  0  0  0
  4  3  1  0  0  0  0
  5  6  1  0  0  0  0
  6  1  2  0  0  0  0
  8  5  1  0  0  0  0
  9 10  1  0  0  0  0
  9  3  1  0  0  0  0
 10 15  1  0  0  0  0
 11 16  1  0  0  0  0
 11 10  2  0  0  0  0
 12 11  1  0  0  0  0
 13 12  2  0  0  0  0
 13 14  1  0  0  0  0
 14  9  2  0  0  0  0
 17 12  1  0  0  0  0
 18 13  1  0  0  0  0
 19 14  1  0  0  0  0
 21 20  1  0  0  0  0
 21 28  1  0  0  0  0
 22 21  2  0  0  0  0
 23 22  1  0  0  0  0
 23 25  2  0  0  0  0
 24 23  1  0  0  0  0
 25 26  1  0  0  0  0
 25 27  1  0  0  0  0
 27 28  2  0  0  0  0
M  END
>  <minimizedAffinity>
-4.74582863

$$$$
