
 OpenBabel03272501223D

 40 43  0  0  0  0  0  0  0  0999 V2000
   38.3340   32.2320   47.4340 C   0  0  0  0  0  0  0  0  0  0  0  0
   38.1600   32.1130   48.8040 C   0  0  0  0  0  0  0  0  0  0  0  0
   38.8490   33.0330   49.5710 C   0  0  0  0  0  0  0  0  0  0  0  0
   39.6620   34.0080   48.9810 C   0  0  0  0  0  0  0  0  0  0  0  0
   39.7900   34.0710   47.6120 C   0  0  0  0  0  0  0  0  0  0  0  0
   39.1130   33.1670   46.8290 C   0  0  0  0  0  0  0  0  0  0  0  0
   38.7210   32.9480   50.6420 H   0  0  0  0  0  0  0  0  0  0  0  0
   40.1660   34.6890   49.6600 H   0  0  0  0  0  0  0  0  0  0  0  0
   40.4220   34.8330   47.1810 H   0  0  0  0  0  0  0  0  0  0  0  0
   35.9400   31.2170   49.3460 C   0  0  0  0  0  0  0  0  0  0  0  0
   37.3290   31.1150   49.4000 C   0  0  0  0  0  0  0  0  0  0  0  0
   37.8540   29.9920   50.0630 C   0  0  0  0  0  0  0  0  0  0  0  0
   37.0030   29.0820   50.6050 N   0  0  0  0  0  0  0  0  0  0  0  0
   35.6640   29.2310   50.5230 C   0  0  0  0  0  0  0  0  0  0  0  0
   35.1220   30.2980   49.8930 N   0  0  0  0  0  0  0  0  0  0  0  0
   35.5250   32.0810   48.8350 H   0  0  0  0  0  0  0  0  0  0  0  0
   38.9270   29.8720   50.1290 H   0  0  0  0  0  0  0  0  0  0  0  0
   34.9990   28.4960   50.9620 H   0  0  0  0  0  0  0  0  0  0  0  0
   37.6750   31.3440   46.5710 O   0  0  0  0  0  0  0  0  0  0  0  0
   36.6940   31.1500   46.7220 H   0  0  0  0  0  0  0  0  0  0  0  0
   39.2550   33.2440   45.4330 O   0  0  0  0  0  0  0  0  0  0  0  0
   37.0310   32.5300   43.5040 Cl  0  0  0  0  0  0  0  0  0  0  0  0
   38.5510   31.6600   43.6440 C   0  0  0  0  0  0  0  0  0  0  0  0
   39.4320   32.1670   44.6020 C   0  0  0  0  0  0  0  0  0  0  0  0
   40.6400   31.5070   44.7420 C   0  0  0  0  0  0  0  0  0  0  0  0
   40.9940   30.4070   43.9960 C   0  0  0  0  0  0  0  0  0  0  0  0
   40.1110   29.9160   43.0490 C   0  0  0  0  0  0  0  0  0  0  0  0
   38.8960   30.5570   42.8900 C   0  0  0  0  0  0  0  0  0  0  0  0
   41.3940   31.8190   45.4570 H   0  0  0  0  0  0  0  0  0  0  0  0
   41.9420   29.9000   44.1140 H   0  0  0  0  0  0  0  0  0  0  0  0
   40.3130   29.0680   42.4320 H   0  0  0  0  0  0  0  0  0  0  0  0
   38.8810   31.7770   40.0890 Cl  0  0  0  0  0  0  0  0  0  0  0  0
   37.7020   30.6050   40.6390 C   0  0  0  0  0  0  0  0  0  0  0  0
   37.8630   30.1600   41.9370 C   0  0  0  0  0  0  0  0  0  0  0  0
   36.9930   29.2330   42.4890 C   0  0  0  0  0  0  0  0  0  0  0  0
   37.0360   28.8240   43.4920 H   0  0  0  0  0  0  0  0  0  0  0  0
   35.9380   28.7400   41.7190 C   0  0  0  0  0  0  0  0  0  0  0  0
   35.2380   28.0130   42.1150 H   0  0  0  0  0  0  0  0  0  0  0  0
   35.8020   29.2010   40.4270 C   0  0  0  0  0  0  0  0  0  0  0  0
   36.6620   30.1250   39.8690 C   0  0  0  0  0  0  0  0  0  0  0  0
  1  2  1  0  0  0  0
  2 11  1  0  0  0  0
  2  3  2  0  0  0  0
  3  7  1  0  0  0  0
  4  3  1  0  0  0  0
  4  8  1  0  0  0  0
  5  4  2  0  0  0  0
  6  1  2  0  0  0  0
  6  5  1  0  0  0  0
  9  5  1  0  0  0  0
 10 11  2  0  0  0  0
 10 15  1  0  0  0  0
 11 12  1  0  0  0  0
 12 17  1  0  0  0  0
 12 13  2  0  0  0  0
 14 13  1  0  0  0  0
 14 18  1  0  0  0  0
 15 14  2  0  0  0  0
 16 10  1  0  0  0  0
 19 20  1  0  0  0  0
 19  1  1  0  0  0  0
 21  6  1  0  0  0  0
 22 23  1  0  0  0  0
 23 24  1  0  0  0  0
 24 25  2  0  0  0  0
 24 21  1  0  0  0  0
 25 29  1  0  0  0  0
 26 30  1  0  0  0  0
 26 25  1  0  0  0  0
 27 26  2  0  0  0  0
 28 27  1  0  0  0  0
 28 23  2  0  0  0  0
 31 27  1  0  0  0  0
 32 33  1  0  0  0  0
 33 34  1  0  0  0  0
 34 35  2  0  0  0  0
 34 28  1  0  0  0  0
 35 36  1  0  0  0  0
 37 38  1  0  0  0  0
 37 35  1  0  0  0  0
 39 37  2  0  0  0  0
 40 39  1  0  0  0  0
 40 33  2  0  0  0  0
M  END
>  <minimizedAffinity>
-5.5341897

>  <minimizedRMSD>
0.372366577

$$$$
