
 OpenBabel03272509043D

 33 35  0  0  0  0  0  0  0  0999 V2000
   37.3540   30.1670   51.6000 C   0  0  0  0  0  0  0  0  0  0  0  0
   38.0930   30.8540   50.6220 C   0  0  0  0  0  0  0  0  0  0  0  0
   37.7400   30.7230   49.2750 C   0  0  0  0  0  0  0  0  0  0  0  0
   36.6670   29.9040   49.0390 N   0  0  0  0  0  0  0  0  0  0  0  0
   35.9830   29.2660   49.9800 C   0  0  0  0  0  0  0  0  0  0  0  0
   36.3340   29.4030   51.2610 N   0  0  0  0  0  0  0  0  0  0  0  0
   37.6990   30.3280   52.6170 H   0  0  0  0  0  0  0  0  0  0  0  0
   38.9070   31.4510   50.8680 H   0  0  0  0  0  0  0  0  0  0  0  0
   38.9460   33.6260   49.3070 Cl  0  0  0  0  0  0  0  0  0  0  0  0
   38.9310   32.5400   47.9460 C   0  0  0  0  0  0  0  0  0  0  0  0
   38.3590   31.3100   48.1070 C   0  0  0  0  0  0  0  0  0  0  0  0
   38.3850   30.5610   46.9500 C   0  0  0  0  0  0  0  0  0  0  0  0
   37.9770   29.5590   46.8850 H   0  0  0  0  0  0  0  0  0  0  0  0
   38.9240   30.9970   45.7730 C   0  0  0  0  0  0  0  0  0  0  0  0
   38.9370   30.4040   44.8820 H   0  0  0  0  0  0  0  0  0  0  0  0
   39.4830   32.2410   45.6780 C   0  0  0  0  0  3  0  0  0  0  0  0
   39.4860   33.0360   46.8000 C   0  0  0  0  0  3  0  0  0  0  0  0
   34.8790   28.4460   49.5270 C   0  0  0  0  0  3  0  0  0  0  0  0
   34.2820   28.7580   48.4080 C   0  0  0  0  0  3  0  0  0  0  0  0
   33.1520   28.0710   47.7670 C   0  0  0  0  0  0  0  0  0  0  0  0
   32.6530   28.8170   47.1090 H   0  0  0  0  0  0  0  0  0  0  0  0
   32.3940   27.7740   48.5180 H   0  0  0  0  0  0  0  0  0  0  0  0
   33.5970   26.9280   46.9170 C   0  0  0  0  0  0  0  0  0  0  0  0
   33.7880   25.6210   47.3470 C   0  0  0  0  0  0  0  0  0  0  0  0
   34.2040   24.6520   46.4570 C   0  0  0  0  0  0  0  0  0  0  0  0
   34.4430   24.9560   45.1030 C   0  0  0  0  0  0  0  0  0  0  0  0
   34.2550   26.2580   44.6710 C   0  0  0  0  0  0  0  0  0  0  0  0
   33.8390   27.2230   45.5650 C   0  0  0  0  0  0  0  0  0  0  0  0
   33.5930   25.4350   48.3870 H   0  0  0  0  0  0  0  0  0  0  0  0
   34.3180   23.6770   46.8990 H   0  0  0  0  0  0  0  0  0  0  0  0
   34.7660   24.1310   44.4850 H   0  0  0  0  0  0  0  0  0  0  0  0
   34.4480   26.4520   43.6290 H   0  0  0  0  0  0  0  0  0  0  0  0
   33.7140   28.2130   45.1580 H   0  0  0  0  0  0  0  0  0  0  0  0
  1  7  1  0  0  0  0
  2  8  1  0  0  0  0
  2  1  2  0  0  0  0
  3  2  1  0  0  0  0
  4  3  2  0  0  0  0
  4  5  1  0  0  0  0
  5  6  2  0  0  0  0
  6  1  1  0  0  0  0
 10 11  1  0  0  0  0
 10  9  1  0  0  0  0
 11  3  1  0  0  0  0
 12 11  2  0  0  0  0
 13 12  1  0  0  0  0
 14 12  1  0  0  0  0
 15 14  1  0  0  0  0
 16 14  2  0  0  0  0
 16 17  1  0  0  0  0
 17 10  2  0  0  0  0
 18  5  1  0  0  0  0
 19 18  2  0  0  0  0
 20 19  1  0  0  0  0
 20 22  1  0  0  0  0
 21 20  1  0  0  0  0
 23 24  1  0  0  0  0
 23 20  1  0  0  0  0
 24 29  1  0  0  0  0
 25 30  1  0  0  0  0
 25 24  2  0  0  0  0
 26 25  1  0  0  0  0
 27 26  2  0  0  0  0
 27 28  1  0  0  0  0
 28 23  2  0  0  0  0
 31 26  1  0  0  0  0
 32 27  1  0  0  0  0
 33 28  1  0  0  0  0
M  END
>  <minimizedAffinity>
-6.74197292

>  <minimizedRMSD>
0.761289656

$$$$
