
 OpenBabel03272509213D

 46 50  0  0  0  0  0  0  0  0999 V2000
   38.0140   31.2480   47.6990 C   0  0  0  0  0  0  0  0  0  0  0  0
   37.1140   31.2900   48.7460 C   0  0  0  0  0  0  0  0  0  0  0  0
   37.2640   32.3930   49.5870 C   0  0  0  0  0  0  0  0  0  0  0  0
   38.2470   33.3620   49.3730 C   0  0  0  0  0  0  0  0  0  0  0  0
   39.1210   33.2260   48.2700 C   0  0  0  0  0  0  0  0  0  0  0  0
   38.9860   32.1330   47.4190 C   0  0  0  0  0  0  0  0  0  0  0  0
   36.5750   32.4630   50.4250 H   0  0  0  0  0  0  0  0  0  0  0  0
   38.3460   34.2140   50.0420 H   0  0  0  0  0  0  0  0  0  0  0  0
   39.8660   34.0010   48.1440 H   0  0  0  0  0  0  0  0  0  0  0  0
   34.9360   30.3160   48.2090 C   0  0  0  0  0  0  0  0  0  0  0  0
   36.1080   30.3050   48.9710 C   0  0  0  0  0  0  0  0  0  0  0  0
   36.2300   29.3010   49.9390 C   0  0  0  0  0  0  0  0  0  0  0  0
   35.2370   28.4030   50.0960 N   0  0  0  0  0  0  0  0  0  0  0  0
   34.1090   28.4600   49.3190 C   0  0  0  0  0  0  0  0  0  0  0  0
   33.9680   29.4010   48.3950 N   0  0  0  0  0  0  0  0  0  0  0  0
   34.8090   31.0780   47.4520 H   0  0  0  0  0  0  0  0  0  0  0  0
   33.3330   27.7170   49.4790 H   0  0  0  0  0  0  0  0  0  0  0  0
   37.4650   29.2480   50.7790 C   0  0  0  0  0  0  0  0  0  0  0  0
   37.3510   28.4510   51.5190 H   0  0  0  0  0  0  0  0  0  0  0  0
   37.6620   30.2270   51.2550 H   0  0  0  0  0  0  0  0  0  0  0  0
   38.2800   28.9250   50.0970 H   0  0  0  0  0  0  0  0  0  0  0  0
   37.9470   30.1810   46.7970 O   0  0  0  0  0  0  0  0  0  0  0  0
   37.3930   30.2400   45.9510 H   0  0  0  0  0  0  0  0  0  0  0  0
   39.8720   32.0720   46.3700 O   0  0  0  0  0  0  0  0  0  0  0  0
   40.1560   31.0500   44.1140 C   0  0  0  0  0  0  0  0  0  0  0  0
   39.5610   31.8770   45.0480 C   0  0  0  0  0  0  0  0  0  0  0  0
   38.4790   32.6590   44.6590 C   0  0  0  0  0  0  0  0  0  0  0  0
   37.9980   32.6120   43.3480 C   0  0  0  0  0  0  0  0  0  0  0  0
   36.9980   33.2270   42.6820 N   0  0  0  0  0  0  0  0  0  0  0  0
   36.9760   32.8020   41.4010 C   0  0  0  0  0  0  0  0  0  0  0  0
   37.9870   31.8990   41.2640 N   0  0  0  0  0  0  0  0  0  0  0  0
   38.6170   31.7770   42.4490 C   0  0  0  0  0  0  0  0  0  0  0  0
   39.6890   30.9980   42.8250 C   0  0  0  0  0  0  0  0  0  0  0  0
   40.9790   30.4880   44.5030 H   0  0  0  0  0  0  0  0  0  0  0  0
   37.9250   33.3450   45.2860 H   0  0  0  0  0  0  0  0  0  0  0  0
   36.3510   33.9140   43.0810 H   0  0  0  0  0  0  0  0  0  0  0  0
   36.2870   33.1130   40.6160 H   0  0  0  0  0  0  0  0  0  0  0  0
   38.8060   28.2160   43.2030 Cl  0  0  0  0  0  0  0  0  0  0  0  0
   39.9610   28.7940   42.0190 C   0  0  0  0  0  0  0  0  0  0  0  0
   40.3490   30.1100   41.8750 C   0  0  0  0  0  0  0  0  0  0  0  0
   41.2750   30.4650   40.9010 C   0  0  0  0  0  0  0  0  0  0  0  0
   41.5160   31.5110   40.8640 H   0  0  0  0  0  0  0  0  0  0  0  0
   41.7810   29.4630   40.1000 C   0  0  0  0  0  0  0  0  0  0  0  0
   42.5020   29.8280   39.3630 H   0  0  0  0  0  0  0  0  0  0  0  0
   41.4030   28.1420   40.2330 C   0  0  0  0  0  3  0  0  0  0  0  0
   40.4780   27.8040   41.2080 C   0  0  0  0  0  3  0  0  0  0  0  0
  1  2  1  0  0  0  0
  2 11  1  0  0  0  0
  2  3  2  0  0  0  0
  3  7  1  0  0  0  0
  4  3  1  0  0  0  0
  4  8  1  0  0  0  0
  5  4  2  0  0  0  0
  6  1  2  0  0  0  0
  6  5  1  0  0  0  0
  9  5  1  0  0  0  0
 10 15  2  0  0  0  0
 10 11  1  0  0  0  0
 11 12  2  0  0  0  0
 12 13  1  0  0  0  0
 12 18  1  0  0  0  0
 14 17  1  0  0  0  0
 14 13  2  0  0  0  0
 15 14  1  0  0  0  0
 16 10  1  0  0  0  0
 18 20  1  0  0  0  0
 18 19  1  0  0  0  0
 21 18  1  0  0  0  0
 22  1  1  0  0  0  0
 23 22  1  0  0  0  0
 24  6  1  0  0  0  0
 25 34  1  0  0  0  0
 25 26  1  0  0  0  0
 26 24  1  0  0  0  0
 27 26  2  0  0  0  0
 27 35  1  0  0  0  0
 28 27  1  0  0  0  0
 29 36  1  0  0  0  0
 29 28  1  0  0  0  0
 30 29  1  0  0  0  0
 31 30  2  0  0  0  0
 31 32  1  0  0  0  0
 32 33  1  0  0  0  0
 32 28  2  0  0  0  0
 33 25  2  0  0  0  0
 37 30  1  0  0  0  0
 39 38  1  0  0  0  0
 40 39  1  0  0  0  0
 40 33  1  0  0  0  0
 41 40  2  0  0  0  0
 42 41  1  0  0  0  0
 43 45  2  0  0  0  0
 43 41  1  0  0  0  0
 44 43  1  0  0  0  0
 45 46  1  0  0  0  0
 46 39  2  0  0  0  0
M  END
>  <minimizedAffinity>
-7.71647024

>  <minimizedRMSD>
0.526226759

$$$$
