
 OpenBabel03272509233D

 46 50  0  0  0  0  0  0  0  0999 V2000
   38.0260   25.9820   34.1790 C   0  0  0  0  0  0  0  0  0  0  0  0
   38.0370   24.6300   34.4590 C   0  0  0  0  0  0  0  0  0  0  0  0
   37.5160   23.8300   33.4420 C   0  0  0  0  0  0  0  0  0  0  0  0
   37.0290   24.3690   32.2480 C   0  0  0  0  0  0  0  0  0  0  0  0
   37.0630   25.7700   32.0600 C   0  0  0  0  0  0  0  0  0  0  0  0
   37.5800   26.5840   33.0630 C   0  0  0  0  0  0  0  0  0  0  0  0
   37.5050   22.7580   33.6230 H   0  0  0  0  0  0  0  0  0  0  0  0
   36.6260   23.7260   31.4690 H   0  0  0  0  0  0  0  0  0  0  0  0
   36.6760   26.1420   31.1200 H   0  0  0  0  0  0  0  0  0  0  0  0
   37.6890   23.9490   36.7810 C   0  0  0  0  0  0  0  0  0  0  0  0
   38.5320   24.0720   35.6740 C   0  0  0  0  0  0  0  0  0  0  0  0
   39.8520   23.6290   35.8250 C   0  0  0  0  0  0  0  0  0  0  0  0
   40.2510   23.1120   37.0040 N   0  0  0  0  0  0  0  0  0  0  0  0
   39.3800   23.0140   38.0580 C   0  0  0  0  0  0  0  0  0  0  0  0
   38.1240   23.4260   37.9420 N   0  0  0  0  0  0  0  0  0  0  0  0
   36.6630   24.2810   36.7010 H   0  0  0  0  0  0  0  0  0  0  0  0
   39.7420   22.5920   38.9900 H   0  0  0  0  0  0  0  0  0  0  0  0
   40.7930   23.7400   34.6680 C   0  0  0  0  0  0  0  0  0  0  0  0
   41.7850   23.4150   34.9910 H   0  0  0  0  0  0  0  0  0  0  0  0
   40.8060   24.7720   34.2670 H   0  0  0  0  0  0  0  0  0  0  0  0
   40.4460   22.9900   33.9250 H   0  0  0  0  0  0  0  0  0  0  0  0
   38.5290   26.8710   35.1360 O   0  0  0  0  0  0  0  0  0  0  0  0
   39.4980   27.1610   35.1280 H   0  0  0  0  0  0  0  0  0  0  0  0
   37.5790   27.9340   32.8040 O   0  0  0  0  0  0  0  0  0  0  0  0
   35.7280   29.0960   34.0040 C   0  0  0  0  0  0  0  0  0  0  0  0
   36.5070   28.7850   32.9060 C   0  0  0  0  0  0  0  0  0  0  0  0
   36.2170   29.3860   31.6860 C   0  0  0  0  0  0  0  0  0  0  0  0
   35.1580   30.2910   31.5690 C   0  0  0  0  0  0  0  0  0  0  0  0
   34.6400   31.0180   30.5570 N   0  0  0  0  0  0  0  0  0  0  0  0
   33.5940   31.7430   31.0080 C   0  0  0  0  0  0  0  0  0  0  0  0
   33.4560   31.4600   32.3330 N   0  0  0  0  0  0  0  0  0  0  0  0
   34.4080   30.5730   32.6840 C   0  0  0  0  0  0  0  0  0  0  0  0
   34.6870   29.9830   33.8970 C   0  0  0  0  0  0  0  0  0  0  0  0
   36.0240   28.5850   34.8970 H   0  0  0  0  0  0  0  0  0  0  0  0
   36.7440   29.2330   30.7540 H   0  0  0  0  0  0  0  0  0  0  0  0
   34.9830   31.0250   29.5920 H   0  0  0  0  0  0  0  0  0  0  0  0
   32.9710   32.4260   30.4320 H   0  0  0  0  0  0  0  0  0  0  0  0
   35.9120   32.1530   35.4620 Cl  0  0  0  0  0  0  0  0  0  0  0  0
   34.4350   31.2950   35.8460 C   0  0  0  0  0  0  0  0  0  0  0  0
   33.8930   30.2790   35.0840 C   0  0  0  0  0  0  0  0  0  0  0  0
   32.7130   29.6610   35.4790 C   0  0  0  0  0  0  0  0  0  0  0  0
   32.3670   28.8830   34.8230 H   0  0  0  0  0  0  0  0  0  0  0  0
   32.1170   30.0970   36.6440 C   0  0  0  0  0  0  0  0  0  0  0  0
   31.1960   29.5570   36.8790 H   0  0  0  0  0  0  0  0  0  0  0  0
   32.6470   31.1090   37.4160 C   0  0  0  0  0  3  0  0  0  0  0  0
   33.8260   31.7190   37.0100 C   0  0  0  0  0  3  0  0  0  0  0  0
  1  2  1  0  0  0  0
  1 22  1  0  0  0  0
  2 11  1  0  0  0  0
  3  7  1  0  0  0  0
  3  2  2  0  0  0  0
  4  3  1  0  0  0  0
  5  4  2  0  0  0  0
  5  6  1  0  0  0  0
  6  1  2  0  0  0  0
  8  4  1  0  0  0  0
  9  5  1  0  0  0  0
 10 15  1  0  0  0  0
 11 12  1  0  0  0  0
 11 10  2  0  0  0  0
 12 13  2  0  0  0  0
 13 14  1  0  0  0  0
 14 17  1  0  0  0  0
 15 14  2  0  0  0  0
 16 10  1  0  0  0  0
 18 19  1  0  0  0  0
 18 12  1  0  0  0  0
 20 18  1  0  0  0  0
 21 18  1  0  0  0  0
 23 22  1  0  0  0  0
 24 26  1  0  0  0  0
 24  6  1  0  0  0  0
 25 34  1  0  0  0  0
 26 25  2  0  0  0  0
 27 26  1  0  0  0  0
 28 27  2  0  0  0  0
 28 32  1  0  0  0  0
 29 30  1  0  0  0  0
 29 28  1  0  0  0  0
 30 31  2  0  0  0  0
 31 32  1  0  0  0  0
 32 33  2  0  0  0  0
 33 25  1  0  0  0  0
 33 40  1  0  0  0  0
 35 27  1  0  0  0  0
 36 29  1  0  0  0  0
 37 30  1  0  0  0  0
 38 39  1  0  0  0  0
 39 46  1  0  0  0  0
 40 41  1  0  0  0  0
 40 39  2  0  0  0  0
 41 43  2  0  0  0  0
 42 41  1  0  0  0  0
 43 44  1  0  0  0  0
 43 45  1  0  0  0  0
 46 45  2  0  0  0  0
M  END
>  <minimizedAffinity>
-6.97438955

$$$$

 OpenBabel03272509233D

 46 50  0  0  0  0  0  0  0  0999 V2000
   35.9780   29.0450   33.6690 C   0  0  0  0  0  0  0  0  0  0  0  0
   34.8920   29.8960   33.6630 C   0  0  0  0  0  0  0  0  0  0  0  0
   34.5400   30.3690   32.3990 C   0  0  0  0  0  0  0  0  0  0  0  0
   35.2400   30.0010   31.2460 C   0  0  0  0  0  0  0  0  0  0  0  0
   36.3420   29.1220   31.3610 C   0  0  0  0  0  0  0  0  0  0  0  0
   36.7060   28.6390   32.6140 C   0  0  0  0  0  0  0  0  0  0  0  0
   33.6890   31.0440   32.3500 H   0  0  0  0  0  0  0  0  0  0  0  0
   34.9490   30.3820   30.2700 H   0  0  0  0  0  0  0  0  0  0  0  0
   36.8530   28.8650   30.4430 H   0  0  0  0  0  0  0  0  0  0  0  0
   32.9790   29.6260   35.1630 C   0  0  0  0  0  0  0  0  0  0  0  0
   34.1710   30.2760   34.8340 C   0  0  0  0  0  0  0  0  0  0  0  0
   34.6030   31.2920   35.6950 C   0  0  0  0  0  0  0  0  0  0  0  0
   33.8700   31.5980   36.7840 N   0  0  0  0  0  0  0  0  0  0  0  0
   32.7070   30.9260   37.0600 C   0  0  0  0  0  0  0  0  0  0  0  0
   32.2760   29.9590   36.2600 N   0  0  0  0  0  0  0  0  0  0  0  0
   32.6160   28.8360   34.5200 H   0  0  0  0  0  0  0  0  0  0  0  0
   32.1470   31.2040   37.9470 H   0  0  0  0  0  0  0  0  0  0  0  0
   35.8730   32.0180   35.3850 C   0  0  0  0  0  0  0  0  0  0  0  0
   36.0090   32.8150   36.1210 H   0  0  0  0  0  0  0  0  0  0  0  0
   35.8620   32.4090   34.3500 H   0  0  0  0  0  0  0  0  0  0  0  0
   36.6890   31.2850   35.5650 H   0  0  0  0  0  0  0  0  0  0  0  0
   36.4110   28.5140   34.8890 O   0  0  0  0  0  0  0  0  0  0  0  0
   36.0670   27.6260   35.2300 H   0  0  0  0  0  0  0  0  0  0  0  0
   37.7860   27.7890   32.6420 O   0  0  0  0  0  0  0  0  0  0  0  0
   38.2830   25.8860   34.1740 C   0  0  0  0  0  0  0  0  0  0  0  0
   37.7800   26.4730   33.0280 C   0  0  0  0  0  0  0  0  0  0  0  0
   37.1630   25.6660   32.0780 C   0  0  0  0  0  0  0  0  0  0  0  0
   37.0490   24.2880   32.2750 C   0  0  0  0  0  0  0  0  0  0  0  0
   36.5220   23.2690   31.5640 N   0  0  0  0  0  0  0  0  0  0  0  0
   36.6890   22.1100   32.2380 C   0  0  0  0  0  0  0  0  0  0  0  0
   37.3370   22.4150   33.3960 N   0  0  0  0  0  0  0  0  0  0  0  0
   37.5610   23.7430   33.4270 C   0  0  0  0  0  0  0  0  0  0  0  0
   38.1750   24.5330   34.3740 C   0  0  0  0  0  0  0  0  0  0  0  0
   38.7400   26.5820   34.8460 H   0  0  0  0  0  0  0  0  0  0  0  0
   36.7290   25.9950   31.1420 H   0  0  0  0  0  0  0  0  0  0  0  0
   36.0630   23.3530   30.6530 H   0  0  0  0  0  0  0  0  0  0  0  0
   36.3720   21.1160   31.9250 H   0  0  0  0  0  0  0  0  0  0  0  0
   40.9570   23.6590   33.9750 Cl  0  0  0  0  0  0  0  0  0  0  0  0
   40.0270   23.5370   35.4530 C   0  0  0  0  0  0  0  0  0  0  0  0
   38.7200   23.9600   35.5990 C   0  0  0  0  0  0  0  0  0  0  0  0
   38.0700   23.8170   36.8190 C   0  0  0  0  0  0  0  0  0  0  0  0
   37.0570   24.1750   36.8380 H   0  0  0  0  0  0  0  0  0  0  0  0
   38.7730   23.2450   37.8600 C   0  0  0  0  0  0  0  0  0  0  0  0
   38.1870   23.1710   38.7790 H   0  0  0  0  0  0  0  0  0  0  0  0
   40.0780   22.8180   37.7290 C   0  0  0  0  0  3  0  0  0  0  0  0
   40.7150   22.9670   36.5050 C   0  0  0  0  0  3  0  0  0  0  0  0
  1 22  1  0  0  0  0
  2  1  1  0  0  0  0
  2 11  1  0  0  0  0
  3  2  2  0  0  0  0
  4  5  2  0  0  0  0
  4  3  1  0  0  0  0
  5  6  1  0  0  0  0
  6 24  1  0  0  0  0
  6  1  2  0  0  0  0
  7  3  1  0  0  0  0
  8  4  1  0  0  0  0
  9  5  1  0  0  0  0
 10 15  1  0  0  0  0
 11 10  2  0  0  0  0
 11 12  1  0  0  0  0
 12 13  2  0  0  0  0
 13 14  1  0  0  0  0
 14 17  1  0  0  0  0
 15 14  2  0  0  0  0
 16 10  1  0  0  0  0
 18 21  1  0  0  0  0
 18 12  1  0  0  0  0
 18 19  1  0  0  0  0
 20 18  1  0  0  0  0
 22 23  1  0  0  0  0
 24 26  1  0  0  0  0
 25 33  1  0  0  0  0
 25 34  1  0  0  0  0
 26 25  2  0  0  0  0
 27 28  2  0  0  0  0
 27 26  1  0  0  0  0
 28 32  1  0  0  0  0
 29 30  1  0  0  0  0
 29 28  1  0  0  0  0
 30 31  2  0  0  0  0
 31 32  1  0  0  0  0
 32 33  2  0  0  0  0
 33 40  1  0  0  0  0
 35 27  1  0  0  0  0
 36 29  1  0  0  0  0
 37 30  1  0  0  0  0
 38 39  1  0  0  0  0
 39 40  2  0  0  0  0
 39 46  1  0  0  0  0
 40 41  1  0  0  0  0
 41 42  1  0  0  0  0
 41 43  2  0  0  0  0
 43 44  1  0  0  0  0
 45 43  1  0  0  0  0
 46 45  2  0  0  0  0
M  END
>  <minimizedAffinity>
-6.78069544

$$$$

 OpenBabel03272509233D

 46 50  0  0  0  0  0  0  0  0999 V2000
   36.3020   28.6460   33.4860 C   0  0  0  0  0  0  0  0  0  0  0  0
   35.2120   29.4740   33.3070 C   0  0  0  0  0  0  0  0  0  0  0  0
   35.0250   29.9020   31.9930 C   0  0  0  0  0  0  0  0  0  0  0  0
   35.8800   29.5150   30.9570 C   0  0  0  0  0  0  0  0  0  0  0  0
   36.9700   28.6630   31.2460 C   0  0  0  0  0  0  0  0  0  0  0  0
   37.1710   28.2250   32.5510 C   0  0  0  0  0  0  0  0  0  0  0  0
   34.1770   30.5570   31.8100 H   0  0  0  0  0  0  0  0  0  0  0  0
   35.7160   29.8610   29.9390 H   0  0  0  0  0  0  0  0  0  0  0  0
   37.6050   28.3890   30.4130 H   0  0  0  0  0  0  0  0  0  0  0  0
   33.1400   29.1800   34.5740 C   0  0  0  0  0  0  0  0  0  0  0  0
   34.3340   29.8730   34.3590 C   0  0  0  0  0  0  0  0  0  0  0  0
   34.6100   30.9500   35.2110 C   0  0  0  0  0  0  0  0  0  0  0  0
   33.7340   31.2700   36.1840 N   0  0  0  0  0  0  0  0  0  0  0  0
   32.5760   30.5540   36.3500 C   0  0  0  0  0  0  0  0  0  0  0  0
   32.2910   29.5300   35.5570 N   0  0  0  0  0  0  0  0  0  0  0  0
   32.8960   28.3430   33.9340 H   0  0  0  0  0  0  0  0  0  0  0  0
   31.8980   30.8460   37.1460 H   0  0  0  0  0  0  0  0  0  0  0  0
   35.8760   31.7220   35.0210 C   0  0  0  0  0  0  0  0  0  0  0  0
   35.8830   32.5600   35.7240 H   0  0  0  0  0  0  0  0  0  0  0  0
   35.9770   32.0620   33.9720 H   0  0  0  0  0  0  0  0  0  0  0  0
   36.6940   31.0410   35.3390 H   0  0  0  0  0  0  0  0  0  0  0  0
   36.5760   28.1610   34.7690 O   0  0  0  0  0  0  0  0  0  0  0  0
   36.2040   27.2750   35.0890 H   0  0  0  0  0  0  0  0  0  0  0  0
   38.2520   27.3990   32.7500 O   0  0  0  0  0  0  0  0  0  0  0  0
   38.9370   25.3980   34.0710 C   0  0  0  0  0  0  0  0  0  0  0  0
   38.2130   26.0740   33.1080 C   0  0  0  0  0  0  0  0  0  0  0  0
   37.2880   25.3680   32.3470 C   0  0  0  0  0  0  0  0  0  0  0  0
   37.0900   24.0000   32.5500 C   0  0  0  0  0  0  0  0  0  0  0  0
   36.2930   23.0650   31.9930 N   0  0  0  0  0  0  0  0  0  0  0  0
   36.5120   21.8700   32.5840 C   0  0  0  0  0  0  0  0  0  0  0  0
   37.4710   22.0660   33.5310 N   0  0  0  0  0  0  0  0  0  0  0  0
   37.8300   23.3650   33.5170 C   0  0  0  0  0  0  0  0  0  0  0  0
   38.7490   24.0550   34.2770 C   0  0  0  0  0  0  0  0  0  0  0  0
   39.6250   26.0210   34.6060 H   0  0  0  0  0  0  0  0  0  0  0  0
   36.6590   25.7730   31.5650 H   0  0  0  0  0  0  0  0  0  0  0  0
   35.6200   23.2280   31.2380 H   0  0  0  0  0  0  0  0  0  0  0  0
   36.0240   20.9240   32.3550 H   0  0  0  0  0  0  0  0  0  0  0  0
   37.4800   24.3360   36.9180 Cl  0  0  0  0  0  0  0  0  0  0  0  0
   38.9730   23.4930   36.5610 C   0  0  0  0  0  0  0  0  0  0  0  0
   39.5370   23.3850   35.3050 C   0  0  0  0  0  0  0  0  0  0  0  0
   40.7290   22.6930   35.1290 C   0  0  0  0  0  0  0  0  0  0  0  0
   41.0900   22.6610   34.1180 H   0  0  0  0  0  0  0  0  0  0  0  0
   41.3150   22.1290   36.2430 C   0  0  0  0  0  0  0  0  0  0  0  0
   42.2470   21.6050   36.0150 H   0  0  0  0  0  0  0  0  0  0  0  0
   40.7650   22.2290   37.5040 C   0  0  0  0  0  3  0  0  0  0  0  0
   39.5740   22.9220   37.6650 C   0  0  0  0  0  3  0  0  0  0  0  0
  1 22  1  0  0  0  0
  2  1  1  0  0  0  0
  2 11  1  0  0  0  0
  3  2  2  0  0  0  0
  4  5  2  0  0  0  0
  4  3  1  0  0  0  0
  5  6  1  0  0  0  0
  6 24  1  0  0  0  0
  6  1  2  0  0  0  0
  7  3  1  0  0  0  0
  8  4  1  0  0  0  0
  9  5  1  0  0  0  0
 10 15  1  0  0  0  0
 11 10  2  0  0  0  0
 11 12  1  0  0  0  0
 12 13  2  0  0  0  0
 13 14  1  0  0  0  0
 14 17  1  0  0  0  0
 15 14  2  0  0  0  0
 16 10  1  0  0  0  0
 18 12  1  0  0  0  0
 18 21  1  0  0  0  0
 18 19  1  0  0  0  0
 20 18  1  0  0  0  0
 22 23  1  0  0  0  0
 24 26  1  0  0  0  0
 25 33  1  0  0  0  0
 25 34  1  0  0  0  0
 26 25  2  0  0  0  0
 27 28  2  0  0  0  0
 27 26  1  0  0  0  0
 28 32  1  0  0  0  0
 29 28  1  0  0  0  0
 29 30  1  0  0  0  0
 30 31  2  0  0  0  0
 32 31  1  0  0  0  0
 32 33  2  0  0  0  0
 33 40  1  0  0  0  0
 35 27  1  0  0  0  0
 36 29  1  0  0  0  0
 37 30  1  0  0  0  0
 39 38  1  0  0  0  0
 39 46  1  0  0  0  0
 40 39  2  0  0  0  0
 41 40  1  0  0  0  0
 41 43  2  0  0  0  0
 42 41  1  0  0  0  0
 43 45  1  0  0  0  0
 44 43  1  0  0  0  0
 45 46  2  0  0  0  0
M  END
>  <minimizedAffinity>
-6.74308586

$$$$

 OpenBabel03272509233D

 46 50  0  0  0  0  0  0  0  0999 V2000
   35.8830   29.1020   33.6640 C   0  0  0  0  0  0  0  0  0  0  0  0
   34.7910   29.9460   33.6900 C   0  0  0  0  0  0  0  0  0  0  0  0
   34.4310   30.4570   32.4430 C   0  0  0  0  0  0  0  0  0  0  0  0
   35.1280   30.1310   31.2770 C   0  0  0  0  0  0  0  0  0  0  0  0
   36.2350   29.2550   31.3590 C   0  0  0  0  0  0  0  0  0  0  0  0
   36.6080   28.7350   32.5940 C   0  0  0  0  0  0  0  0  0  0  0  0
   33.5750   31.1280   32.4210 H   0  0  0  0  0  0  0  0  0  0  0  0
   34.8290   30.5410   30.3150 H   0  0  0  0  0  0  0  0  0  0  0  0
   36.7430   29.0300   30.4300 H   0  0  0  0  0  0  0  0  0  0  0  0
   32.8980   29.6020   35.2000 C   0  0  0  0  0  0  0  0  0  0  0  0
   34.0740   30.2840   34.8760 C   0  0  0  0  0  0  0  0  0  0  0  0
   34.4920   31.2890   35.7580 C   0  0  0  0  0  0  0  0  0  0  0  0
   33.7640   31.5540   36.8600 N   0  0  0  0  0  0  0  0  0  0  0  0
   32.6170   30.8520   37.1290 C   0  0  0  0  0  0  0  0  0  0  0  0
   32.1980   29.8960   36.3110 N   0  0  0  0  0  0  0  0  0  0  0  0
   32.5450   28.8200   34.5420 H   0  0  0  0  0  0  0  0  0  0  0  0
   32.0600   31.0980   38.0280 H   0  0  0  0  0  0  0  0  0  0  0  0
   35.7450   32.0470   35.4540 C   0  0  0  0  0  0  0  0  0  0  0  0
   35.8720   32.8290   36.2070 H   0  0  0  0  0  0  0  0  0  0  0  0
   35.7170   32.4610   34.4280 H   0  0  0  0  0  0  0  0  0  0  0  0
   36.5770   31.3270   35.6090 H   0  0  0  0  0  0  0  0  0  0  0  0
   36.3240   28.5350   34.8650 O   0  0  0  0  0  0  0  0  0  0  0  0
   35.9870   27.6340   35.1790 H   0  0  0  0  0  0  0  0  0  0  0  0
   37.6940   27.8910   32.5900 O   0  0  0  0  0  0  0  0  0  0  0  0
   37.1530   25.4620   32.4350 C   0  0  0  0  0  0  0  0  0  0  0  0
   37.7530   26.6390   32.0310 C   0  0  0  0  0  0  0  0  0  0  0  0
   38.5540   26.6260   30.8940 C   0  0  0  0  0  0  0  0  0  0  0  0
   38.7500   25.4480   30.1700 C   0  0  0  0  0  0  0  0  0  0  0  0
   39.4470   25.1200   29.0620 N   0  0  0  0  0  0  0  0  0  0  0  0
   39.2840   23.8070   28.7940 C   0  0  0  0  0  0  0  0  0  0  0  0
   38.4670   23.3030   29.7590 N   0  0  0  0  0  0  0  0  0  0  0  0
   38.1360   24.2990   30.6050 C   0  0  0  0  0  0  0  0  0  0  0  0
   37.3410   24.3000   31.7300 C   0  0  0  0  0  0  0  0  0  0  0  0
   36.5560   25.5670   33.3180 H   0  0  0  0  0  0  0  0  0  0  0  0
   39.0800   27.4720   30.4710 H   0  0  0  0  0  0  0  0  0  0  0  0
   40.0150   25.7640   28.5030 H   0  0  0  0  0  0  0  0  0  0  0  0
   39.7190   23.2460   27.9680 H   0  0  0  0  0  0  0  0  0  0  0  0
   38.9130   23.0130   33.8590 Cl  0  0  0  0  0  0  0  0  0  0  0  0
   37.3930   22.4490   33.1970 C   0  0  0  0  0  0  0  0  0  0  0  0
   36.6860   23.0830   32.1950 C   0  0  0  0  0  0  0  0  0  0  0  0
   35.4860   22.5510   31.7390 C   0  0  0  0  0  0  0  0  0  0  0  0
   35.0070   23.1130   30.9590 H   0  0  0  0  0  0  0  0  0  0  0  0
   35.0390   21.3810   32.3190 C   0  0  0  0  0  0  0  0  0  0  0  0
   34.0910   21.0330   31.9020 H   0  0  0  0  0  0  0  0  0  0  0  0
   35.7350   20.7350   33.3200 C   0  0  0  0  0  3  0  0  0  0  0  0
   36.9310   21.2790   33.7660 C   0  0  0  0  0  3  0  0  0  0  0  0
  1  2  1  0  0  0  0
  1 22  1  0  0  0  0
  2 11  1  0  0  0  0
  3  2  2  0  0  0  0
  4  5  2  0  0  0  0
  4  3  1  0  0  0  0
  5  6  1  0  0  0  0
  6  1  2  0  0  0  0
  7  3  1  0  0  0  0
  8  4  1  0  0  0  0
  9  5  1  0  0  0  0
 10 15  1  0  0  0  0
 11 10  2  0  0  0  0
 11 12  1  0  0  0  0
 12 13  2  0  0  0  0
 13 14  1  0  0  0  0
 14 17  1  0  0  0  0
 15 14  2  0  0  0  0
 16 10  1  0  0  0  0
 18 21  1  0  0  0  0
 18 12  1  0  0  0  0
 18 19  1  0  0  0  0
 20 18  1  0  0  0  0
 22 23  1  0  0  0  0
 24  6  1  0  0  0  0
 25 34  1  0  0  0  0
 26 25  1  0  0  0  0
 26 24  1  0  0  0  0
 27 26  2  0  0  0  0
 28 32  2  0  0  0  0
 28 27  1  0  0  0  0
 29 28  1  0  0  0  0
 30 29  1  0  0  0  0
 30 31  2  0  0  0  0
 31 32  1  0  0  0  0
 32 33  1  0  0  0  0
 33 40  1  0  0  0  0
 33 25  2  0  0  0  0
 35 27  1  0  0  0  0
 36 29  1  0  0  0  0
 37 30  1  0  0  0  0
 39 46  1  0  0  0  0
 39 38  1  0  0  0  0
 40 39  2  0  0  0  0
 41 40  1  0  0  0  0
 41 43  2  0  0  0  0
 42 41  1  0  0  0  0
 43 45  1  0  0  0  0
 44 43  1  0  0  0  0
 45 46  2  0  0  0  0
M  END
>  <minimizedAffinity>
-6.62455893

$$$$

 OpenBabel03272509233D

 46 50  0  0  0  0  0  0  0  0999 V2000
   37.5470   25.3100   32.0430 C   0  0  0  0  0  0  0  0  0  0  0  0
   37.2390   24.0390   31.6000 C   0  0  0  0  0  0  0  0  0  0  0  0
   35.9660   23.9190   31.0440 C   0  0  0  0  0  0  0  0  0  0  0  0
   35.0890   25.0030   30.9510 C   0  0  0  0  0  0  0  0  0  0  0  0
   35.5030   26.2660   31.4360 C   0  0  0  0  0  0  0  0  0  0  0  0
   36.7700   26.4050   31.9930 C   0  0  0  0  0  0  0  0  0  0  0  0
   35.6830   22.9330   30.6830 H   0  0  0  0  0  0  0  0  0  0  0  0
   34.1000   24.8870   30.5140 H   0  0  0  0  0  0  0  0  0  0  0  0
   34.7920   27.0760   31.3430 H   0  0  0  0  0  0  0  0  0  0  0  0
   38.1090   22.1070   32.8210 C   0  0  0  0  0  0  0  0  0  0  0  0
   38.1270   22.9270   31.6900 C   0  0  0  0  0  0  0  0  0  0  0  0
   39.0420   22.6010   30.6800 C   0  0  0  0  0  0  0  0  0  0  0  0
   39.8510   21.5340   30.8340 N   0  0  0  0  0  0  0  0  0  0  0  0
   39.7900   20.7630   31.9660 C   0  0  0  0  0  0  0  0  0  0  0  0
   38.9330   21.0500   32.9370 N   0  0  0  0  0  0  0  0  0  0  0  0
   37.4150   22.3300   33.6200 H   0  0  0  0  0  0  0  0  0  0  0  0
   40.4600   19.9130   32.0500 H   0  0  0  0  0  0  0  0  0  0  0  0
   39.0990   23.4480   29.4500 C   0  0  0  0  0  0  0  0  0  0  0  0
   39.9120   23.0870   28.8140 H   0  0  0  0  0  0  0  0  0  0  0  0
   39.2220   24.5160   29.7100 H   0  0  0  0  0  0  0  0  0  0  0  0
   38.1570   23.2400   28.8980 H   0  0  0  0  0  0  0  0  0  0  0  0
   38.8030   25.5360   32.6170 O   0  0  0  0  0  0  0  0  0  0  0  0
   39.5910   25.8420   32.0590 H   0  0  0  0  0  0  0  0  0  0  0  0
   37.0970   27.6630   32.4410 O   0  0  0  0  0  0  0  0  0  0  0  0
   35.5550   29.0900   33.7830 C   0  0  0  0  0  0  0  0  0  0  0  0
   36.2320   28.7100   32.6410 C   0  0  0  0  0  0  0  0  0  0  0  0
   36.0570   29.4540   31.4790 C   0  0  0  0  0  0  0  0  0  0  0  0
   35.2130   30.5680   31.4640 C   0  0  0  0  0  0  0  0  0  0  0  0
   34.8450   31.4660   30.5270 N   0  0  0  0  0  0  0  0  0  0  0  0
   33.9850   32.3570   31.0640 C   0  0  0  0  0  0  0  0  0  0  0  0
   33.8110   32.0050   32.3680 N   0  0  0  0  0  0  0  0  0  0  0  0
   34.5580   30.9120   32.6210 C   0  0  0  0  0  0  0  0  0  0  0  0
   34.7240   30.1810   33.7770 C   0  0  0  0  0  0  0  0  0  0  0  0
   35.7500   28.4590   34.6260 H   0  0  0  0  0  0  0  0  0  0  0  0
   36.5240   29.2680   30.5210 H   0  0  0  0  0  0  0  0  0  0  0  0
   35.1660   31.4770   29.5540 H   0  0  0  0  0  0  0  0  0  0  0  0
   33.5120   33.2000   30.5610 H   0  0  0  0  0  0  0  0  0  0  0  0
   36.3210   32.0810   35.3590 Cl  0  0  0  0  0  0  0  0  0  0  0  0
   34.7490   31.4360   35.7790 C   0  0  0  0  0  0  0  0  0  0  0  0
   34.0310   30.5430   35.0080 C   0  0  0  0  0  0  0  0  0  0  0  0
   32.7880   30.0900   35.4330 C   0  0  0  0  0  0  0  0  0  0  0  0
   32.3050   29.3990   34.7680 H   0  0  0  0  0  0  0  0  0  0  0  0
   32.3100   30.5610   36.6390 C   0  0  0  0  0  0  0  0  0  0  0  0
   31.3300   30.1540   36.8960 H   0  0  0  0  0  0  0  0  0  0  0  0
   33.0150   31.4520   37.4210 C   0  0  0  0  0  3  0  0  0  0  0  0
   34.2550   31.8960   36.9830 C   0  0  0  0  0  3  0  0  0  0  0  0
  1 22  1  0  0  0  0
  2 11  1  0  0  0  0
  2  1  2  0  0  0  0
  3  2  1  0  0  0  0
  4  3  2  0  0  0  0
  4  5  1  0  0  0  0
  5  6  2  0  0  0  0
  6  1  1  0  0  0  0
  6 24  1  0  0  0  0
  7  3  1  0  0  0  0
  8  4  1  0  0  0  0
  9  5  1  0  0  0  0
 10 15  1  0  0  0  0
 10 16  1  0  0  0  0
 11 10  2  0  0  0  0
 12 13  2  0  0  0  0
 12 11  1  0  0  0  0
 13 14  1  0  0  0  0
 14 17  1  0  0  0  0
 14 15  2  0  0  0  0
 18 20  1  0  0  0  0
 18 12  1  0  0  0  0
 19 18  1  0  0  0  0
 21 18  1  0  0  0  0
 23 22  1  0  0  0  0
 24 26  1  0  0  0  0
 25 34  1  0  0  0  0
 26 25  2  0  0  0  0
 27 26  1  0  0  0  0
 28 27  2  0  0  0  0
 28 32  1  0  0  0  0
 29 30  1  0  0  0  0
 29 28  1  0  0  0  0
 30 31  2  0  0  0  0
 31 32  1  0  0  0  0
 32 33  2  0  0  0  0
 33 25  1  0  0  0  0
 33 40  1  0  0  0  0
 35 27  1  0  0  0  0
 36 29  1  0  0  0  0
 37 30  1  0  0  0  0
 38 39  1  0  0  0  0
 39 46  1  0  0  0  0
 40 41  1  0  0  0  0
 40 39  2  0  0  0  0
 41 43  2  0  0  0  0
 42 41  1  0  0  0  0
 43 44  1  0  0  0  0
 43 45  1  0  0  0  0
 46 45  2  0  0  0  0
M  END
>  <minimizedAffinity>
-6.5775919

$$$$

 OpenBabel03272509233D

 46 50  0  0  0  0  0  0  0  0999 V2000
   37.1900   25.7790   32.0860 C   0  0  0  0  0  0  0  0  0  0  0  0
   37.3740   24.5350   32.6540 C   0  0  0  0  0  0  0  0  0  0  0  0
   37.8750   24.5660   33.9550 C   0  0  0  0  0  0  0  0  0  0  0  0
   38.1620   25.7650   34.6130 C   0  0  0  0  0  0  0  0  0  0  0  0
   37.9380   26.9890   33.9410 C   0  0  0  0  0  0  0  0  0  0  0  0
   37.4370   26.9780   32.6430 C   0  0  0  0  0  0  0  0  0  0  0  0
   38.0350   23.6050   34.4390 H   0  0  0  0  0  0  0  0  0  0  0  0
   38.5520   25.7660   35.6280 H   0  0  0  0  0  0  0  0  0  0  0  0
   38.1730   27.8920   34.4890 H   0  0  0  0  0  0  0  0  0  0  0  0
   35.7950   22.7690   32.0460 C   0  0  0  0  0  0  0  0  0  0  0  0
   37.0830   23.3060   31.9910 C   0  0  0  0  0  0  0  0  0  0  0  0
   38.0430   22.5870   31.2670 C   0  0  0  0  0  0  0  0  0  0  0  0
   37.6970   21.4320   30.6650 N   0  0  0  0  0  0  0  0  0  0  0  0
   36.4160   20.9510   30.7520 C   0  0  0  0  0  0  0  0  0  0  0  0
   35.4870   21.6120   31.4310 N   0  0  0  0  0  0  0  0  0  0  0  0
   35.0280   23.2970   32.5960 H   0  0  0  0  0  0  0  0  0  0  0  0
   36.1790   20.0170   30.2530 H   0  0  0  0  0  0  0  0  0  0  0  0
   39.4370   23.1220   31.1790 C   0  0  0  0  0  0  0  0  0  0  0  0
   40.0560   22.3980   30.6400 H   0  0  0  0  0  0  0  0  0  0  0  0
   39.8410   23.3420   32.1850 H   0  0  0  0  0  0  0  0  0  0  0  0
   39.3740   24.0210   30.5290 H   0  0  0  0  0  0  0  0  0  0  0  0
   36.6890   25.8570   30.7820 O   0  0  0  0  0  0  0  0  0  0  0  0
   35.6960   25.9370   30.6020 H   0  0  0  0  0  0  0  0  0  0  0  0
   37.2460   28.2080   32.0590 O   0  0  0  0  0  0  0  0  0  0  0  0
   35.5780   29.3440   33.5220 C   0  0  0  0  0  0  0  0  0  0  0  0
   36.2350   29.0940   32.3330 C   0  0  0  0  0  0  0  0  0  0  0  0
   35.8660   29.8110   31.1990 C   0  0  0  0  0  0  0  0  0  0  0  0
   34.8510   30.7690   31.2590 C   0  0  0  0  0  0  0  0  0  0  0  0
   34.2820   31.6040   30.3640 N   0  0  0  0  0  0  0  0  0  0  0  0
   33.3210   32.3340   30.9710 C   0  0  0  0  0  0  0  0  0  0  0  0
   33.2910   31.9450   32.2750 N   0  0  0  0  0  0  0  0  0  0  0  0
   34.2220   30.9880   32.4600 C   0  0  0  0  0  0  0  0  0  0  0  0
   34.5800   30.2830   33.5880 C   0  0  0  0  0  0  0  0  0  0  0  0
   35.9270   28.7460   34.3380 H   0  0  0  0  0  0  0  0  0  0  0  0
   36.2960   29.7150   30.2110 H   0  0  0  0  0  0  0  0  0  0  0  0
   34.5340   31.6790   29.3740 H   0  0  0  0  0  0  0  0  0  0  0  0
   32.6850   33.0920   30.5150 H   0  0  0  0  0  0  0  0  0  0  0  0
   36.0350   32.2850   35.1820 Cl  0  0  0  0  0  0  0  0  0  0  0  0
   34.5680   31.4480   35.6440 C   0  0  0  0  0  0  0  0  0  0  0  0
   33.9160   30.5120   34.8660 C   0  0  0  0  0  0  0  0  0  0  0  0
   32.7550   29.9030   35.3280 C   0  0  0  0  0  0  0  0  0  0  0  0
   32.3170   29.1910   34.6540 H   0  0  0  0  0  0  0  0  0  0  0  0
   32.2910   30.2660   36.5750 C   0  0  0  0  0  0  0  0  0  0  0  0
   31.3760   29.7410   36.8590 H   0  0  0  0  0  0  0  0  0  0  0  0
   32.9320   31.1980   37.3650 C   0  0  0  0  0  3  0  0  0  0  0  0
   34.0900   31.7990   36.8910 C   0  0  0  0  0  3  0  0  0  0  0  0
  1  6  2  0  0  0  0
  1  2  1  0  0  0  0
  2  3  2  0  0  0  0
  3  7  1  0  0  0  0
  3  4  1  0  0  0  0
  4  8  1  0  0  0  0
  5  9  1  0  0  0  0
  5  4  2  0  0  0  0
  6  5  1  0  0  0  0
 10 16  1  0  0  0  0
 11 10  1  0  0  0  0
 11  2  1  0  0  0  0
 12 11  2  0  0  0  0
 13 14  2  0  0  0  0
 13 12  1  0  0  0  0
 14 15  1  0  0  0  0
 15 10  2  0  0  0  0
 17 14  1  0  0  0  0
 18 12  1  0  0  0  0
 18 20  1  0  0  0  0
 19 18  1  0  0  0  0
 21 18  1  0  0  0  0
 22  1  1  0  0  0  0
 23 22  1  0  0  0  0
 24 26  1  0  0  0  0
 24  6  1  0  0  0  0
 25 33  1  0  0  0  0
 25 34  1  0  0  0  0
 26 25  2  0  0  0  0
 27 28  2  0  0  0  0
 27 26  1  0  0  0  0
 28 32  1  0  0  0  0
 29 30  1  0  0  0  0
 29 28  1  0  0  0  0
 30 31  2  0  0  0  0
 31 32  1  0  0  0  0
 32 33  2  0  0  0  0
 33 40  1  0  0  0  0
 35 27  1  0  0  0  0
 36 29  1  0  0  0  0
 37 30  1  0  0  0  0
 38 39  1  0  0  0  0
 39 46  1  0  0  0  0
 40 41  1  0  0  0  0
 40 39  2  0  0  0  0
 41 43  2  0  0  0  0
 42 41  1  0  0  0  0
 43 44  1  0  0  0  0
 43 45  1  0  0  0  0
 46 45  2  0  0  0  0
M  END
>  <minimizedAffinity>
-6.56716347

$$$$

 OpenBabel03272509233D

 46 50  0  0  0  0  0  0  0  0999 V2000
   39.0990   27.0740   32.8860 C   0  0  0  0  0  0  0  0  0  0  0  0
   40.3620   26.8970   33.4140 C   0  0  0  0  0  0  0  0  0  0  0  0
   40.4010   26.8560   34.8070 C   0  0  0  0  0  0  0  0  0  0  0  0
   39.2480   26.9840   35.5870 C   0  0  0  0  0  0  0  0  0  0  0  0
   38.0000   27.1630   34.9470 C   0  0  0  0  0  0  0  0  0  0  0  0
   37.9420   27.2050   33.5580 C   0  0  0  0  0  0  0  0  0  0  0  0
   41.3780   26.7180   35.2630 H   0  0  0  0  0  0  0  0  0  0  0  0
   39.3020   26.9490   36.6730 H   0  0  0  0  0  0  0  0  0  0  0  0
   37.1350   27.2570   35.5910 H   0  0  0  0  0  0  0  0  0  0  0  0
   42.2870   27.8970   32.2840 C   0  0  0  0  0  0  0  0  0  0  0  0
   41.5430   26.7640   32.6250 C   0  0  0  0  0  0  0  0  0  0  0  0
   42.0130   25.5290   32.1610 C   0  0  0  0  0  0  0  0  0  0  0  0
   43.1370   25.4800   31.4200 N   0  0  0  0  0  0  0  0  0  0  0  0
   43.8280   26.6240   31.1150 C   0  0  0  0  0  0  0  0  0  0  0  0
   43.4050   27.8060   31.5420 N   0  0  0  0  0  0  0  0  0  0  0  0
   41.9530   28.8670   32.6260 H   0  0  0  0  0  0  0  0  0  0  0  0
   44.7290   26.5400   30.5150 H   0  0  0  0  0  0  0  0  0  0  0  0
   41.2510   24.2880   32.5010 C   0  0  0  0  0  0  0  0  0  0  0  0
   41.7230   23.4390   31.9970 H   0  0  0  0  0  0  0  0  0  0  0  0
   40.1840   24.3900   32.2240 H   0  0  0  0  0  0  0  0  0  0  0  0
   41.4050   24.1290   33.5890 H   0  0  0  0  0  0  0  0  0  0  0  0
   38.9520   27.1280   31.4960 O   0  0  0  0  0  0  0  0  0  0  0  0
   38.7580   26.2960   30.9530 H   0  0  0  0  0  0  0  0  0  0  0  0
   36.6920   27.3800   33.0120 O   0  0  0  0  0  0  0  0  0  0  0  0
   35.2640   29.0700   34.1620 C   0  0  0  0  0  0  0  0  0  0  0  0
   35.9220   28.5140   33.0810 C   0  0  0  0  0  0  0  0  0  0  0  0
   35.8320   29.1450   31.8450 C   0  0  0  0  0  0  0  0  0  0  0  0
   35.0920   30.3200   31.6940 C   0  0  0  0  0  0  0  0  0  0  0  0
   34.8210   31.1440   30.6600 N   0  0  0  0  0  0  0  0  0  0  0  0
   34.0360   32.1590   31.0810 C   0  0  0  0  0  0  0  0  0  0  0  0
   33.8120   31.9630   32.4100 N   0  0  0  0  0  0  0  0  0  0  0  0
   34.4530   30.8410   32.7920 C   0  0  0  0  0  0  0  0  0  0  0  0
   34.5360   30.2240   34.0220 C   0  0  0  0  0  0  0  0  0  0  0  0
   35.3900   28.5170   35.0700 H   0  0  0  0  0  0  0  0  0  0  0  0
   36.2950   28.8180   30.9230 H   0  0  0  0  0  0  0  0  0  0  0  0
   35.1560   31.0250   29.7000 H   0  0  0  0  0  0  0  0  0  0  0  0
   33.6490   32.9820   30.4820 H   0  0  0  0  0  0  0  0  0  0  0  0
   36.3560   31.9350   35.5780 Cl  0  0  0  0  0  0  0  0  0  0  0  0
   34.6810   31.5840   35.9490 C   0  0  0  0  0  0  0  0  0  0  0  0
   33.8600   30.7730   35.1910 C   0  0  0  0  0  0  0  0  0  0  0  0
   32.5410   30.5580   35.5740 C   0  0  0  0  0  0  0  0  0  0  0  0
   31.9790   29.9140   34.9240 H   0  0  0  0  0  0  0  0  0  0  0  0
   32.0960   31.1770   36.7240 C   0  0  0  0  0  0  0  0  0  0  0  0
   31.0510   30.9540   36.9510 H   0  0  0  0  0  0  0  0  0  0  0  0
   32.9050   31.9890   37.4920 C   0  0  0  0  0  3  0  0  0  0  0  0
   34.2190   32.1960   37.0970 C   0  0  0  0  0  3  0  0  0  0  0  0
  1  2  2  0  0  0  0
  1  6  1  0  0  0  0
  2  3  1  0  0  0  0
  3  7  1  0  0  0  0
  3  4  2  0  0  0  0
  4  8  1  0  0  0  0
  5  4  1  0  0  0  0
  5  9  1  0  0  0  0
  6  5  2  0  0  0  0
 10 11  1  0  0  0  0
 10 16  1  0  0  0  0
 11  2  1  0  0  0  0
 12 18  1  0  0  0  0
 12 11  2  0  0  0  0
 13 12  1  0  0  0  0
 14 13  2  0  0  0  0
 14 15  1  0  0  0  0
 15 10  2  0  0  0  0
 17 14  1  0  0  0  0
 18 21  1  0  0  0  0
 19 18  1  0  0  0  0
 20 18  1  0  0  0  0
 22  1  1  0  0  0  0
 23 22  1  0  0  0  0
 24 26  1  0  0  0  0
 24  6  1  0  0  0  0
 25 34  1  0  0  0  0
 26 25  2  0  0  0  0
 27 26  1  0  0  0  0
 28 27  2  0  0  0  0
 28 32  1  0  0  0  0
 29 30  1  0  0  0  0
 29 28  1  0  0  0  0
 30 31  2  0  0  0  0
 31 32  1  0  0  0  0
 32 33  2  0  0  0  0
 33 25  1  0  0  0  0
 33 40  1  0  0  0  0
 35 27  1  0  0  0  0
 36 29  1  0  0  0  0
 37 30  1  0  0  0  0
 38 39  1  0  0  0  0
 39 46  1  0  0  0  0
 40 41  1  0  0  0  0
 40 39  2  0  0  0  0
 41 43  2  0  0  0  0
 42 41  1  0  0  0  0
 43 44  1  0  0  0  0
 43 45  1  0  0  0  0
 46 45  2  0  0  0  0
M  END
>  <minimizedAffinity>
-6.55338287

$$$$

 OpenBabel03272509233D

 46 50  0  0  0  0  0  0  0  0999 V2000
   35.6590   29.8070   33.2050 C   0  0  0  0  0  0  0  0  0  0  0  0
   35.3970   31.1170   33.5520 C   0  0  0  0  0  0  0  0  0  0  0  0
   35.8070   32.0550   32.6050 C   0  0  0  0  0  0  0  0  0  0  0  0
   36.4290   31.6810   31.4110 C   0  0  0  0  0  0  0  0  0  0  0  0
   36.6530   30.3100   31.1500 C   0  0  0  0  0  0  0  0  0  0  0  0
   36.2490   29.3600   32.0840 C   0  0  0  0  0  0  0  0  0  0  0  0
   35.6200   33.0990   32.8410 H   0  0  0  0  0  0  0  0  0  0  0  0
   36.7410   32.4290   30.6860 H   0  0  0  0  0  0  0  0  0  0  0  0
   37.1370   30.0670   30.2130 H   0  0  0  0  0  0  0  0  0  0  0  0
   35.5330   31.8090   35.8940 C   0  0  0  0  0  0  0  0  0  0  0  0
   34.7620   31.5070   34.7680 C   0  0  0  0  0  0  0  0  0  0  0  0
   33.3710   31.6060   34.9020 C   0  0  0  0  0  0  0  0  0  0  0  0
   32.8410   31.9810   36.0830 N   0  0  0  0  0  0  0  0  0  0  0  0
   33.6450   32.2670   37.1560 C   0  0  0  0  0  0  0  0  0  0  0  0
   34.9650   32.1810   37.0560 N   0  0  0  0  0  0  0  0  0  0  0  0
   36.6100   31.7430   35.8260 H   0  0  0  0  0  0  0  0  0  0  0  0
   33.1770   32.5650   38.0880 H   0  0  0  0  0  0  0  0  0  0  0  0
   32.5040   31.2930   33.7250 C   0  0  0  0  0  0  0  0  0  0  0  0
   31.4570   31.3550   34.0360 H   0  0  0  0  0  0  0  0  0  0  0  0
   32.7510   30.3000   33.3050 H   0  0  0  0  0  0  0  0  0  0  0  0
   32.6640   32.1230   33.0040 H   0  0  0  0  0  0  0  0  0  0  0  0
   35.2850   28.7890   34.0890 O   0  0  0  0  0  0  0  0  0  0  0  0
   34.3840   28.3340   34.0190 H   0  0  0  0  0  0  0  0  0  0  0  0
   36.5010   28.0480   31.7570 O   0  0  0  0  0  0  0  0  0  0  0  0
   37.3430   26.3160   33.3400 C   0  0  0  0  0  0  0  0  0  0  0  0
   37.4560   27.2360   32.3150 C   0  0  0  0  0  0  0  0  0  0  0  0
   38.6960   27.4200   31.7140 C   0  0  0  0  0  0  0  0  0  0  0  0
   39.8100   26.6890   32.1340 C   0  0  0  0  0  0  0  0  0  0  0  0
   41.1070   26.6400   31.7630 N   0  0  0  0  0  0  0  0  0  0  0  0
   41.7620   25.7350   32.5200 C   0  0  0  0  0  0  0  0  0  0  0  0
   40.8520   25.2060   33.3840 N   0  0  0  0  0  0  0  0  0  0  0  0
   39.6570   25.7850   33.1560 C   0  0  0  0  0  0  0  0  0  0  0  0
   38.4320   25.5940   33.7580 C   0  0  0  0  0  0  0  0  0  0  0  0
   36.3530   26.2420   33.7420 H   0  0  0  0  0  0  0  0  0  0  0  0
   38.9220   28.1040   30.9060 H   0  0  0  0  0  0  0  0  0  0  0  0
   41.5360   27.2010   31.0210 H   0  0  0  0  0  0  0  0  0  0  0  0
   42.8170   25.4690   32.4620 H   0  0  0  0  0  0  0  0  0  0  0  0
   38.3850   26.9580   36.3660 Cl  0  0  0  0  0  0  0  0  0  0  0  0
   38.2350   25.2360   36.0860 C   0  0  0  0  0  0  0  0  0  0  0  0
   38.2640   24.6350   34.8430 C   0  0  0  0  0  0  0  0  0  0  0  0
   38.1370   23.2550   34.7290 C   0  0  0  0  0  0  0  0  0  0  0  0
   38.1690   22.8780   33.7230 H   0  0  0  0  0  0  0  0  0  0  0  0
   37.9840   22.5250   35.8900 C   0  0  0  0  0  0  0  0  0  0  0  0
   37.8920   21.4520   35.7090 H   0  0  0  0  0  0  0  0  0  0  0  0
   37.9550   23.1110   37.1380 C   0  0  0  0  0  3  0  0  0  0  0  0
   38.0820   24.4900   37.2370 C   0  0  0  0  0  3  0  0  0  0  0  0
  1  2  1  0  0  0  0
  1 22  1  0  0  0  0
  2 11  1  0  0  0  0
  3  7  1  0  0  0  0
  3  2  2  0  0  0  0
  4  3  1  0  0  0  0
  5  4  2  0  0  0  0
  5  6  1  0  0  0  0
  6  1  2  0  0  0  0
  8  4  1  0  0  0  0
  9  5  1  0  0  0  0
 10 15  1  0  0  0  0
 11 12  1  0  0  0  0
 11 10  2  0  0  0  0
 12 13  2  0  0  0  0
 13 14  1  0  0  0  0
 14 17  1  0  0  0  0
 15 14  2  0  0  0  0
 16 10  1  0  0  0  0
 18 19  1  0  0  0  0
 18 12  1  0  0  0  0
 20 18  1  0  0  0  0
 21 18  1  0  0  0  0
 23 22  1  0  0  0  0
 24  6  1  0  0  0  0
 24 26  1  0  0  0  0
 25 34  1  0  0  0  0
 25 33  1  0  0  0  0
 26 25  2  0  0  0  0
 27 28  2  0  0  0  0
 27 26  1  0  0  0  0
 28 32  1  0  0  0  0
 29 28  1  0  0  0  0
 29 30  1  0  0  0  0
 30 31  2  0  0  0  0
 32 31  1  0  0  0  0
 32 33  2  0  0  0  0
 33 40  1  0  0  0  0
 35 27  1  0  0  0  0
 36 29  1  0  0  0  0
 37 30  1  0  0  0  0
 39 38  1  0  0  0  0
 39 46  1  0  0  0  0
 40 39  2  0  0  0  0
 41 40  1  0  0  0  0
 41 43  2  0  0  0  0
 42 41  1  0  0  0  0
 43 45  1  0  0  0  0
 44 43  1  0  0  0  0
 45 46  2  0  0  0  0
M  END
>  <minimizedAffinity>
-6.52604723

$$$$

 OpenBabel03272509233D

 46 50  0  0  0  0  0  0  0  0999 V2000
   38.3030   25.8040   33.6030 C   0  0  0  0  0  0  0  0  0  0  0  0
   39.2710   25.3490   34.4750 C   0  0  0  0  0  0  0  0  0  0  0  0
   39.3890   26.0990   35.6450 C   0  0  0  0  0  0  0  0  0  0  0  0
   38.5860   27.2150   35.8960 C   0  0  0  0  0  0  0  0  0  0  0  0
   37.6220   27.5990   34.9360 C   0  0  0  0  0  0  0  0  0  0  0  0
   37.4890   26.8620   33.7630 C   0  0  0  0  0  0  0  0  0  0  0  0
   40.1420   25.7730   36.3580 H   0  0  0  0  0  0  0  0  0  0  0  0
   38.6950   27.7860   36.8150 H   0  0  0  0  0  0  0  0  0  0  0  0
   37.0220   28.4690   35.1730 H   0  0  0  0  0  0  0  0  0  0  0  0
   41.3240   24.3650   33.5810 C   0  0  0  0  0  0  0  0  0  0  0  0
   40.0950   24.2110   34.2270 C   0  0  0  0  0  0  0  0  0  0  0  0
   39.7310   22.9120   34.6040 C   0  0  0  0  0  0  0  0  0  0  0  0
   40.5600   21.8840   34.3370 N   0  0  0  0  0  0  0  0  0  0  0  0
   41.7560   22.0930   33.7000 C   0  0  0  0  0  0  0  0  0  0  0  0
   42.1250   23.3130   33.3320 N   0  0  0  0  0  0  0  0  0  0  0  0
   41.6370   25.3540   33.2750 H   0  0  0  0  0  0  0  0  0  0  0  0
   42.3940   21.2370   33.5040 H   0  0  0  0  0  0  0  0  0  0  0  0
   38.4240   22.6960   35.2990 C   0  0  0  0  0  0  0  0  0  0  0  0
   38.2810   21.6220   35.4490 H   0  0  0  0  0  0  0  0  0  0  0  0
   37.5920   23.1470   34.7250 H   0  0  0  0  0  0  0  0  0  0  0  0
   38.5450   23.1390   36.3110 H   0  0  0  0  0  0  0  0  0  0  0  0
   38.1050   25.1190   32.3990 O   0  0  0  0  0  0  0  0  0  0  0  0
   37.4260   24.3720   32.3220 H   0  0  0  0  0  0  0  0  0  0  0  0
   36.5300   27.2990   32.8810 O   0  0  0  0  0  0  0  0  0  0  0  0
   35.1310   29.0110   34.0340 C   0  0  0  0  0  0  0  0  0  0  0  0
   35.8160   28.4680   32.9640 C   0  0  0  0  0  0  0  0  0  0  0  0
   35.8230   29.1560   31.7550 C   0  0  0  0  0  0  0  0  0  0  0  0
   35.1530   30.3740   31.6210 C   0  0  0  0  0  0  0  0  0  0  0  0
   34.9790   31.2550   30.6140 N   0  0  0  0  0  0  0  0  0  0  0  0
   34.2250   32.2910   31.0410 C   0  0  0  0  0  0  0  0  0  0  0  0
   33.9220   32.0500   32.3460 N   0  0  0  0  0  0  0  0  0  0  0  0
   34.4840   30.8800   32.7090 C   0  0  0  0  0  0  0  0  0  0  0  0
   34.4710   30.2070   33.9110 C   0  0  0  0  0  0  0  0  0  0  0  0
   35.1810   28.4130   34.9210 H   0  0  0  0  0  0  0  0  0  0  0  0
   36.3160   28.8450   30.8430 H   0  0  0  0  0  0  0  0  0  0  0  0
   35.3570   31.1600   29.6670 H   0  0  0  0  0  0  0  0  0  0  0  0
   33.9120   33.1590   30.4620 H   0  0  0  0  0  0  0  0  0  0  0  0
   36.3080   31.6840   35.6740 Cl  0  0  0  0  0  0  0  0  0  0  0  0
   34.5920   31.4420   35.9220 C   0  0  0  0  0  0  0  0  0  0  0  0
   33.7630   30.7400   35.0690 C   0  0  0  0  0  0  0  0  0  0  0  0
   32.4100   30.6060   35.3590 C   0  0  0  0  0  0  0  0  0  0  0  0
   31.8450   30.0450   34.6380 H   0  0  0  0  0  0  0  0  0  0  0  0
   31.9390   31.1930   36.5150 C   0  0  0  0  0  0  0  0  0  0  0  0
   30.8680   31.0380   36.6660 H   0  0  0  0  0  0  0  0  0  0  0  0
   32.7540   31.8960   37.3780 C   0  0  0  0  0  3  0  0  0  0  0  0
   34.1030   32.0230   37.0750 C   0  0  0  0  0  3  0  0  0  0  0  0
  1  6  2  0  0  0  0
  1  2  1  0  0  0  0
  2  3  2  0  0  0  0
  3  4  1  0  0  0  0
  3  7  1  0  0  0  0
  4  8  1  0  0  0  0
  5  9  1  0  0  0  0
  5  4  2  0  0  0  0
  6  5  1  0  0  0  0
 10 11  1  0  0  0  0
 11  2  1  0  0  0  0
 11 12  2  0  0  0  0
 12 18  1  0  0  0  0
 13 12  1  0  0  0  0
 14 13  2  0  0  0  0
 15 10  2  0  0  0  0
 15 14  1  0  0  0  0
 16 10  1  0  0  0  0
 17 14  1  0  0  0  0
 18 19  1  0  0  0  0
 18 21  1  0  0  0  0
 20 18  1  0  0  0  0
 22  1  1  0  0  0  0
 23 22  1  0  0  0  0
 24 26  1  0  0  0  0
 24  6  1  0  0  0  0
 25 34  1  0  0  0  0
 26 25  2  0  0  0  0
 27 26  1  0  0  0  0
 28 27  2  0  0  0  0
 28 32  1  0  0  0  0
 29 30  1  0  0  0  0
 29 28  1  0  0  0  0
 30 31  2  0  0  0  0
 31 32  1  0  0  0  0
 32 33  2  0  0  0  0
 33 25  1  0  0  0  0
 33 40  1  0  0  0  0
 35 27  1  0  0  0  0
 36 29  1  0  0  0  0
 37 30  1  0  0  0  0
 38 39  1  0  0  0  0
 39 46  1  0  0  0  0
 40 41  1  0  0  0  0
 40 39  2  0  0  0  0
 41 43  2  0  0  0  0
 42 41  1  0  0  0  0
 43 44  1  0  0  0  0
 43 45  1  0  0  0  0
 46 45  2  0  0  0  0
M  END
>  <minimizedAffinity>
-6.49677563

$$$$
