
 OpenBabel03272507203D

 30 32  0  0  1  0  0  0  0  0999 V2000
   39.2580   24.4460   34.5990 C   0  0  0  0  0  0  0  0  0  0  0  0
   40.4270   25.0950   34.9760 C   0  0  0  0  0  0  0  0  0  0  0  0
   40.4420   26.4690   34.7920 C   0  0  0  0  0  0  0  0  0  0  0  0
   39.3460   27.1100   34.2670 N   0  0  0  0  0  0  0  0  0  0  0  0
   38.2310   26.4290   33.9180 C   0  0  0  0  0  0  0  0  0  0  0  0
   38.1720   25.0890   34.0790 N   0  0  0  0  0  0  0  0  0  0  0  0
   41.2440   24.5510   35.3760 H   0  0  0  0  0  0  0  0  0  0  0  0
   41.3140   27.0500   35.0580 H   0  0  0  0  0  0  0  0  0  0  0  0
   38.1210   27.2310   30.9430 Cl  0  0  0  0  0  0  0  0  0  0  0  0
   37.1790   27.9970   32.1860 C   0  0  0  0  0  0  0  0  0  0  0  0
   37.3790   27.4840   33.4370 C   0  0  0  0  0  0  0  0  0  0  0  0
   36.6670   28.0170   34.4970 C   0  0  0  0  0  0  0  0  0  0  0  0
   36.6340   27.7990   35.5780 H   0  0  0  0  0  0  0  0  0  0  0  0
   35.7680   29.0580   34.2580 C   0  0  0  0  0  0  0  0  0  0  0  0
   35.1470   29.5670   34.9890 H   0  0  0  0  0  0  0  0  0  0  0  0
   35.6280   29.5160   32.9600 C   0  0  0  0  0  3  0  0  0  0  0  0
   36.3130   29.0190   31.8770 C   0  0  0  0  0  3  0  0  0  0  0  0
   39.2200   22.9630   34.8030 C   0  0  1  0  0  0  0  0  0  0  0  0
   38.4390   22.3520   35.8750 C   0  0  2  0  0  0  0  0  0  0  0  0
   37.8190   22.3770   34.5140 C   0  0  0  0  0  0  0  0  0  0  0  0
   40.0520   22.3980   34.3070 H   0  0  0  0  0  0  0  0  0  0  0  0
   38.9350   21.4240   36.2900 H   0  0  0  0  0  0  0  0  0  0  0  0
   37.8010   21.3800   34.0140 H   0  0  0  0  0  0  0  0  0  0  0  0
   36.9880   23.0500   34.3080 H   0  0  0  0  0  0  0  0  0  0  0  0
   37.9460   23.1980   36.8630 O   0  0  0  0  0  0  0  0  0  0  0  0
   38.4820   23.5110   38.0710 C   0  0  0  0  0  0  0  0  0  0  0  0
   38.0550   24.5000   38.7310 O   0  0  0  0  0  0  0  0  0  0  0  0
   39.4910   22.5890   38.3630 N   0  0  0  0  0  0  0  0  0  0  0  0
   40.3930   22.7250   37.8360 H   0  0  0  0  0  0  0  0  0  0  0  0
   38.9200   22.0560   39.0620 H   0  0  0  0  0  0  0  0  0  0  0  0
  1 18  1  0  0  0  0
  1  2  1  0  0  0  0
  2  7  1  0  0  0  0
  3  2  2  0  0  0  0
  3  8  1  0  0  0  0
  4  3  1  0  0  0  0
  5  6  1  0  0  0  0
  5  4  2  0  0  0  0
  6  1  2  0  0  0  0
  9 10  1  0  0  0  0
 10 11  1  0  0  0  0
 11  5  1  0  0  0  0
 11 12  2  0  0  0  0
 12 13  1  0  0  0  0
 14 12  1  0  0  0  0
 14 15  1  0  0  0  0
 16 14  2  0  0  0  0
 17 10  2  0  0  0  0
 17 16  1  0  0  0  0
 18 21  1  6  0  0  0
 18 19  1  0  0  0  0
 19 22  1  1  0  0  0
 19 25  1  0  0  0  0
 20 18  1  0  0  0  0
 20 19  1  0  0  0  0
 23 20  1  0  0  0  0
 24 20  1  0  0  0  0
 25 26  1  0  0  0  0
 26 28  1  0  0  0  0
 26 27  2  0  0  0  0
 28 30  1  0  0  0  0
 29 28  1  0  0  0  0
M  END
>  <minimizedAffinity>
-5.46227217

$$$$

 OpenBabel03272507203D

 30 32  0  0  1  0  0  0  0  0999 V2000
   36.8170   28.2260   32.5850 C   0  0  0  0  0  0  0  0  0  0  0  0
   36.7000   29.0270   31.4570 C   0  0  0  0  0  0  0  0  0  0  0  0
   35.9830   30.2030   31.6220 C   0  0  0  0  0  0  0  0  0  0  0  0
   35.4400   30.5180   32.8440 N   0  0  0  0  0  0  0  0  0  0  0  0
   35.5860   29.7010   33.9120 C   0  0  0  0  0  0  0  0  0  0  0  0
   36.2750   28.5450   33.7970 N   0  0  0  0  0  0  0  0  0  0  0  0
   37.1390   28.7350   30.5380 H   0  0  0  0  0  0  0  0  0  0  0  0
   35.8430   30.8830   30.7930 H   0  0  0  0  0  0  0  0  0  0  0  0
   32.5690   29.3060   34.4130 Cl  0  0  0  0  0  0  0  0  0  0  0  0
   33.5650   30.4050   35.3190 C   0  0  0  0  0  0  0  0  0  0  0  0
   34.8750   30.4220   34.9340 C   0  0  0  0  0  0  0  0  0  0  0  0
   35.7560   31.2560   35.6020 C   0  0  0  0  0  0  0  0  0  0  0  0
   36.8350   31.4610   35.5010 H   0  0  0  0  0  0  0  0  0  0  0  0
   35.2800   32.0510   36.6460 C   0  0  0  0  0  0  0  0  0  0  0  0
   35.8530   32.7470   37.2520 H   0  0  0  0  0  0  0  0  0  0  0  0
   33.9370   31.9710   36.9690 C   0  0  0  0  0  3  0  0  0  0  0  0
   33.0270   31.1600   36.3350 C   0  0  0  0  0  3  0  0  0  0  0  0
   37.5980   26.9580   32.4280 C   0  0  1  0  0  0  0  0  0  0  0  0
   37.7380   25.9980   33.5200 C   0  0  2  0  0  0  0  0  0  0  0  0
   36.6900   25.7090   32.4930 C   0  0  0  0  0  0  0  0  0  0  0  0
   38.3110   26.9480   31.5630 H   0  0  0  0  0  0  0  0  0  0  0  0
   38.7440   25.4830   33.5110 H   0  0  0  0  0  0  0  0  0  0  0  0
   36.9590   24.8740   31.8040 H   0  0  0  0  0  0  0  0  0  0  0  0
   35.6360   25.8240   32.7450 H   0  0  0  0  0  0  0  0  0  0  0  0
   37.3500   26.4180   34.7880 O   0  0  0  0  0  0  0  0  0  0  0  0
   38.0710   26.4550   35.9380 C   0  0  0  0  0  0  0  0  0  0  0  0
   38.2560   25.4060   36.6190 O   0  0  0  0  0  0  0  0  0  0  0  0
   38.5010   27.7670   36.1540 N   0  0  0  0  0  0  0  0  0  0  0  0
   37.7620   28.4320   36.5010 H   0  0  0  0  0  0  0  0  0  0  0  0
   39.4910   27.5820   35.8620 H   0  0  0  0  0  0  0  0  0  0  0  0
  1  6  1  0  0  0  0
  2  3  1  0  0  0  0
  2  1  2  0  0  0  0
  3  4  2  0  0  0  0
  4  5  1  0  0  0  0
  5 11  1  0  0  0  0
  6  5  2  0  0  0  0
  7  2  1  0  0  0  0
  8  3  1  0  0  0  0
  9 10  1  0  0  0  0
 10 17  1  0  0  0  0
 11 10  2  0  0  0  0
 11 12  1  0  0  0  0
 12 14  2  0  0  0  0
 13 12  1  0  0  0  0
 14 16  1  0  0  0  0
 14 15  1  0  0  0  0
 17 16  2  0  0  0  0
 18 21  1  6  0  0  0
 18 20  1  0  0  0  0
 18  1  1  0  0  0  0
 18 19  1  0  0  0  0
 19 22  1  6  0  0  0
 19 25  1  0  0  0  0
 20 24  1  0  0  0  0
 20 19  1  0  0  0  0
 23 20  1  0  0  0  0
 25 26  1  0  0  0  0
 26 28  1  0  0  0  0
 26 27  2  0  0  0  0
 28 29  1  0  0  0  0
 30 28  1  0  0  0  0
M  END
>  <minimizedAffinity>
-5.4607048

$$$$

 OpenBabel03272507203D

 30 32  0  0  1  0  0  0  0  0999 V2000
   37.2730   24.9170   32.6560 C   0  0  0  0  0  0  0  0  0  0  0  0
   37.1550   26.2820   32.8790 C   0  0  0  0  0  0  0  0  0  0  0  0
   37.5260   26.7230   34.1400 C   0  0  0  0  0  0  0  0  0  0  0  0
   37.9780   25.8300   35.0820 N   0  0  0  0  0  0  0  0  0  0  0  0
   38.0740   24.5090   34.8110 C   0  0  0  0  0  0  0  0  0  0  0  0
   37.7230   24.0340   33.5960 N   0  0  0  0  0  0  0  0  0  0  0  0
   36.8010   26.9270   32.1160 H   0  0  0  0  0  0  0  0  0  0  0  0
   37.4630   27.7720   34.3970 H   0  0  0  0  0  0  0  0  0  0  0  0
   40.6570   22.8320   34.9680 Cl  0  0  0  0  0  0  0  0  0  0  0  0
   39.6800   23.2340   36.3480 C   0  0  0  0  0  0  0  0  0  0  0  0
   38.5790   23.9890   36.0530 C   0  0  0  0  0  0  0  0  0  0  0  0
   37.7400   24.3740   37.0850 C   0  0  0  0  0  0  0  0  0  0  0  0
   36.8110   24.9670   37.1290 H   0  0  0  0  0  0  0  0  0  0  0  0
   38.0440   23.9820   38.3910 C   0  0  0  0  0  0  0  0  0  0  0  0
   37.4790   24.2110   39.2900 H   0  0  0  0  0  0  0  0  0  0  0  0
   39.1790   23.2190   38.5980 C   0  0  0  0  0  3  0  0  0  0  0  0
   40.0390   22.8120   37.6060 C   0  0  0  0  0  3  0  0  0  0  0  0
   36.8890   24.4250   31.2950 C   0  0  1  0  0  0  0  0  0  0  0  0
   35.8430   23.4220   31.1050 C   0  0  2  0  0  0  0  0  0  0  0  0
   35.4530   24.8530   30.9110 C   0  0  0  0  0  0  0  0  0  0  0  0
   37.6450   24.6220   30.4920 H   0  0  0  0  0  0  0  0  0  0  0  0
   36.0620   22.7370   30.2320 H   0  0  0  0  0  0  0  0  0  0  0  0
   35.2980   25.1310   29.8420 H   0  0  0  0  0  0  0  0  0  0  0  0
   34.8260   25.3490   31.6500 H   0  0  0  0  0  0  0  0  0  0  0  0
   35.4010   22.7430   32.2360 O   0  0  0  0  0  0  0  0  0  0  0  0
   35.4290   21.4120   32.5040 C   0  0  0  0  0  0  0  0  0  0  0  0
   34.5750   20.6320   31.9940 O   0  0  0  0  0  0  0  0  0  0  0  0
   36.4950   21.1540   33.3700 N   0  0  0  0  0  0  0  0  0  0  0  0
   36.3390   21.4350   34.3730 H   0  0  0  0  0  0  0  0  0  0  0  0
   37.1080   20.7390   32.6290 H   0  0  0  0  0  0  0  0  0  0  0  0
  1  2  2  0  0  0  0
  1  6  1  0  0  0  0
  2  3  1  0  0  0  0
  3  8  1  0  0  0  0
  3  4  2  0  0  0  0
  5  4  1  0  0  0  0
  5 11  1  0  0  0  0
  6  5  2  0  0  0  0
  7  2  1  0  0  0  0
  9 10  1  0  0  0  0
 10 17  1  0  0  0  0
 11 10  2  0  0  0  0
 11 12  1  0  0  0  0
 12 13  1  0  0  0  0
 12 14  2  0  0  0  0
 14 16  1  0  0  0  0
 14 15  1  0  0  0  0
 17 16  2  0  0  0  0
 18 21  1  6  0  0  0
 18  1  1  0  0  0  0
 19 22  1  6  0  0  0
 19 18  1  0  0  0  0
 19 25  1  0  0  0  0
 20 19  1  0  0  0  0
 20 18  1  0  0  0  0
 20 24  1  0  0  0  0
 23 20  1  0  0  0  0
 25 26  1  0  0  0  0
 26 28  1  0  0  0  0
 27 26  2  0  0  0  0
 28 29  1  0  0  0  0
 30 28  1  0  0  0  0
M  END
>  <minimizedAffinity>
-5.33361387

$$$$

 OpenBabel03272507203D

 30 32  0  0  1  0  0  0  0  0999 V2000
   37.8460   24.4560   33.3070 C   0  0  0  0  0  0  0  0  0  0  0  0
   37.0370   25.2270   32.4840 C   0  0  0  0  0  0  0  0  0  0  0  0
   36.1160   24.5300   31.7160 C   0  0  0  0  0  0  0  0  0  0  0  0
   36.0410   23.1610   31.7970 N   0  0  0  0  0  0  0  0  0  0  0  0
   36.8540   22.4580   32.6180 C   0  0  0  0  0  0  0  0  0  0  0  0
   37.7670   23.0950   33.3830 N   0  0  0  0  0  0  0  0  0  0  0  0
   37.1370   26.2820   32.4600 H   0  0  0  0  0  0  0  0  0  0  0  0
   35.4490   25.0550   31.0470 H   0  0  0  0  0  0  0  0  0  0  0  0
   35.5640   20.7170   34.8120 Cl  0  0  0  0  0  0  0  0  0  0  0  0
   35.8420   20.1740   33.1850 C   0  0  0  0  0  0  0  0  0  0  0  0
   36.4230   21.1070   32.3740 C   0  0  0  0  0  0  0  0  0  0  0  0
   36.6760   20.7780   31.0530 C   0  0  0  0  0  0  0  0  0  0  0  0
   37.1230   21.3230   30.2050 H   0  0  0  0  0  0  0  0  0  0  0  0
   36.3300   19.5060   30.5920 C   0  0  0  0  0  0  0  0  0  0  0  0
   36.4700   19.1150   29.5880 H   0  0  0  0  0  0  0  0  0  0  0  0
   35.7450   18.6230   31.4820 C   0  0  0  0  0  3  0  0  0  0  0  0
   35.4760   18.9050   32.8000 C   0  0  0  0  0  3  0  0  0  0  0  0
   38.8380   25.1930   34.1530 C   0  0  1  0  0  0  0  0  0  0  0  0
   39.2160   24.7240   35.4840 C   0  0  2  0  0  0  0  0  0  0  0  0
   40.1380   24.3810   34.3570 C   0  0  0  0  0  0  0  0  0  0  0  0
   39.0180   26.2570   33.8480 H   0  0  0  0  0  0  0  0  0  0  0  0
   39.4290   25.5790   36.1930 H   0  0  0  0  0  0  0  0  0  0  0  0
   41.0850   24.9700   34.3610 H   0  0  0  0  0  0  0  0  0  0  0  0
   40.1930   23.3560   33.9940 H   0  0  0  0  0  0  0  0  0  0  0  0
   38.4330   23.7250   36.0510 O   0  0  0  0  0  0  0  0  0  0  0  0
   37.8590   23.6780   37.2810 C   0  0  0  0  0  0  0  0  0  0  0  0
   37.9930   24.6360   38.0930 O   0  0  0  0  0  0  0  0  0  0  0  0
   37.1740   22.4660   37.4080 N   0  0  0  0  0  0  0  0  0  0  0  0
   37.7810   21.6200   37.5690 H   0  0  0  0  0  0  0  0  0  0  0  0
   36.2240   22.8900   37.2830 H   0  0  0  0  0  0  0  0  0  0  0  0
  1  6  1  0  0  0  0
  1 18  1  0  0  0  0
  2  1  2  0  0  0  0
  3  4  2  0  0  0  0
  3  2  1  0  0  0  0
  4  5  1  0  0  0  0
  5  6  2  0  0  0  0
  7  2  1  0  0  0  0
  8  3  1  0  0  0  0
 10  9  1  0  0  0  0
 11  5  1  0  0  0  0
 11 10  2  0  0  0  0
 12 11  1  0  0  0  0
 13 12  1  0  0  0  0
 14 12  2  0  0  0  0
 14 16  1  0  0  0  0
 15 14  1  0  0  0  0
 16 17  2  0  0  0  0
 17 10  1  0  0  0  0
 18 21  1  6  0  0  0
 18 20  1  0  0  0  0
 18 19  1  0  0  0  0
 19 25  1  0  0  0  0
 19 22  1  1  0  0  0
 20 23  1  0  0  0  0
 20 19  1  0  0  0  0
 24 20  1  0  0  0  0
 25 26  1  0  0  0  0
 26 28  1  0  0  0  0
 26 27  2  0  0  0  0
 28 29  1  0  0  0  0
 30 28  1  0  0  0  0
M  END
>  <minimizedAffinity>
-5.20647049

$$$$

 OpenBabel03272507203D

 30 32  0  0  1  0  0  0  0  0999 V2000
   37.7840   24.6170   33.3740 C   0  0  0  0  0  0  0  0  0  0  0  0
   36.9880   25.3630   32.5150 C   0  0  0  0  0  0  0  0  0  0  0  0
   36.1250   24.6380   31.7070 C   0  0  0  0  0  0  0  0  0  0  0  0
   36.0910   23.2660   31.7850 N   0  0  0  0  0  0  0  0  0  0  0  0
   36.8870   22.5890   32.6430 C   0  0  0  0  0  0  0  0  0  0  0  0
   37.7450   23.2540   33.4480 N   0  0  0  0  0  0  0  0  0  0  0  0
   37.0560   26.4200   32.4960 H   0  0  0  0  0  0  0  0  0  0  0  0
   35.4720   25.1420   31.0080 H   0  0  0  0  0  0  0  0  0  0  0  0
   38.9710   20.3540   32.2310 Cl  0  0  0  0  0  0  0  0  0  0  0  0
   37.2530   20.0980   32.1680 C   0  0  0  0  0  0  0  0  0  0  0  0
   36.5110   21.2260   32.3810 C   0  0  0  0  0  0  0  0  0  0  0  0
   35.1300   21.1280   32.3630 C   0  0  0  0  0  0  0  0  0  0  0  0
   34.3130   21.8570   32.5010 H   0  0  0  0  0  0  0  0  0  0  0  0
   34.5390   19.8840   32.1300 C   0  0  0  0  0  0  0  0  0  0  0  0
   33.4770   19.6620   32.0880 H   0  0  0  0  0  0  0  0  0  0  0  0
   35.3670   18.7950   31.9240 C   0  0  0  0  0  3  0  0  0  0  0  0
   36.7410   18.8440   31.9320 C   0  0  0  0  0  3  0  0  0  0  0  0
   38.7130   25.3840   34.2630 C   0  0  1  0  0  0  0  0  0  0  0  0
   38.7180   25.2050   35.7130 C   0  0  2  0  0  0  0  0  0  0  0  0
   39.7600   24.4660   34.9350 C   0  0  0  0  0  0  0  0  0  0  0  0
   39.1570   26.3030   33.7990 H   0  0  0  0  0  0  0  0  0  0  0  0
   38.9500   26.1660   36.2610 H   0  0  0  0  0  0  0  0  0  0  0  0
   40.7840   24.8920   35.0440 H   0  0  0  0  0  0  0  0  0  0  0  0
   39.6820   23.3860   34.8140 H   0  0  0  0  0  0  0  0  0  0  0  0
   37.6550   24.5000   36.2690 O   0  0  0  0  0  0  0  0  0  0  0  0
   37.6730   23.5280   37.2160 C   0  0  0  0  0  0  0  0  0  0  0  0
   37.9750   23.7980   38.4140 O   0  0  0  0  0  0  0  0  0  0  0  0
   37.3210   22.3150   36.6180 N   0  0  0  0  0  0  0  0  0  0  0  0
   38.0720   21.8680   36.0290 H   0  0  0  0  0  0  0  0  0  0  0  0
   36.3510   22.3020   37.0140 H   0  0  0  0  0  0  0  0  0  0  0  0
  1  6  1  0  0  0  0
  1 18  1  0  0  0  0
  2  1  2  0  0  0  0
  3  4  2  0  0  0  0
  3  2  1  0  0  0  0
  4  5  1  0  0  0  0
  5  6  2  0  0  0  0
  7  2  1  0  0  0  0
  8  3  1  0  0  0  0
 10  9  1  0  0  0  0
 10 11  1  0  0  0  0
 11  5  1  0  0  0  0
 12 11  2  0  0  0  0
 12 13  1  0  0  0  0
 14 12  1  0  0  0  0
 15 14  1  0  0  0  0
 16 17  1  0  0  0  0
 16 14  2  0  0  0  0
 17 10  2  0  0  0  0
 18 21  1  6  0  0  0
 18 20  1  0  0  0  0
 18 19  1  0  0  0  0
 19 22  1  1  0  0  0
 19 25  1  0  0  0  0
 20 23  1  0  0  0  0
 20 19  1  0  0  0  0
 24 20  1  0  0  0  0
 25 26  1  0  0  0  0
 26 27  2  0  0  0  0
 28 30  1  0  0  0  0
 28 26  1  0  0  0  0
 29 28  1  0  0  0  0
M  END
>  <minimizedAffinity>
-5.00952721

$$$$

 OpenBabel03272507203D

 30 32  0  0  1  0  0  0  0  0999 V2000
   39.1140   23.0230   35.8080 C   0  0  0  0  0  0  0  0  0  0  0  0
   40.3530   22.9830   35.1830 C   0  0  0  0  0  0  0  0  0  0  0  0
   40.3840   22.3660   33.9410 C   0  0  0  0  0  0  0  0  0  0  0  0
   39.2360   21.8400   33.3990 N   0  0  0  0  0  0  0  0  0  0  0  0
   38.0530   21.9080   34.0520 C   0  0  0  0  0  0  0  0  0  0  0  0
   37.9760   22.4990   35.2640 N   0  0  0  0  0  0  0  0  0  0  0  0
   41.2070   23.4040   35.6470 H   0  0  0  0  0  0  0  0  0  0  0  0
   41.3100   22.2910   33.3880 H   0  0  0  0  0  0  0  0  0  0  0  0
   35.4400   20.5450   34.9570 Cl  0  0  0  0  0  0  0  0  0  0  0  0
   35.9840   20.5940   33.3070 C   0  0  0  0  0  0  0  0  0  0  0  0
   37.1680   21.2520   33.1270 C   0  0  0  0  0  0  0  0  0  0  0  0
   37.6840   21.3580   31.8470 C   0  0  0  0  0  0  0  0  0  0  0  0
   38.5940   21.8210   31.4280 H   0  0  0  0  0  0  0  0  0  0  0  0
   36.9800   20.7920   30.7810 C   0  0  0  0  0  0  0  0  0  0  0  0
   37.2640   20.7990   29.7330 H   0  0  0  0  0  0  0  0  0  0  0  0
   35.7890   20.1440   31.0550 C   0  0  0  0  0  3  0  0  0  0  0  0
   35.2390   20.0130   32.3070 C   0  0  0  0  0  3  0  0  0  0  0  0
   39.0590   23.6960   37.1440 C   0  0  1  0  0  0  0  0  0  0  0  0
   38.2550   24.8950   37.3710 C   0  0  2  0  0  0  0  0  0  0  0  0
   37.6570   23.5890   37.7880 C   0  0  0  0  0  0  0  0  0  0  0  0
   39.8930   23.4270   37.8420 H   0  0  0  0  0  0  0  0  0  0  0  0
   38.7370   25.5980   38.1150 H   0  0  0  0  0  0  0  0  0  0  0  0
   37.6380   23.4400   38.8930 H   0  0  0  0  0  0  0  0  0  0  0  0
   36.8350   23.1620   37.2150 H   0  0  0  0  0  0  0  0  0  0  0  0
   37.7550   25.5460   36.2480 O   0  0  0  0  0  0  0  0  0  0  0  0
   38.3510   26.4750   35.4580 C   0  0  0  0  0  0  0  0  0  0  0  0
   38.5270   26.2580   34.2250 O   0  0  0  0  0  0  0  0  0  0  0  0
   38.6800   27.5840   36.2420 N   0  0  0  0  0  0  0  0  0  0  0  0
   39.5180   27.4610   36.8680 H   0  0  0  0  0  0  0  0  0  0  0  0
   37.8970   28.1790   35.8810 H   0  0  0  0  0  0  0  0  0  0  0  0
  1 18  1  0  0  0  0
  2  7  1  0  0  0  0
  2  1  2  0  0  0  0
  3  2  1  0  0  0  0
  4  3  2  0  0  0  0
  4  5  1  0  0  0  0
  5  6  2  0  0  0  0
  6  1  1  0  0  0  0
  8  3  1  0  0  0  0
 10  9  1  0  0  0  0
 11 10  1  0  0  0  0
 11  5  1  0  0  0  0
 12 11  2  0  0  0  0
 13 12  1  0  0  0  0
 14 16  2  0  0  0  0
 14 12  1  0  0  0  0
 15 14  1  0  0  0  0
 16 17  1  0  0  0  0
 17 10  2  0  0  0  0
 18 19  1  0  0  0  0
 18 20  1  0  0  0  0
 18 21  1  1  0  0  0
 19 20  1  0  0  0  0
 19 22  1  1  0  0  0
 20 23  1  0  0  0  0
 24 20  1  0  0  0  0
 25 19  1  0  0  0  0
 26 28  1  0  0  0  0
 26 25  1  0  0  0  0
 27 26  2  0  0  0  0
 28 29  1  0  0  0  0
 30 28  1  0  0  0  0
M  END
>  <minimizedAffinity>
-4.9999094

$$$$

 OpenBabel03272507203D

 30 32  0  0  1  0  0  0  0  0999 V2000
   37.1800   24.6570   32.3950 C   0  0  0  0  0  0  0  0  0  0  0  0
   36.0750   25.1820   31.7390 C   0  0  0  0  0  0  0  0  0  0  0  0
   35.1660   24.2560   31.2490 C   0  0  0  0  0  0  0  0  0  0  0  0
   35.3830   22.9110   31.4260 N   0  0  0  0  0  0  0  0  0  0  0  0
   36.4780   22.4530   32.0750 C   0  0  0  0  0  0  0  0  0  0  0  0
   37.3910   23.3190   32.5670 N   0  0  0  0  0  0  0  0  0  0  0  0
   35.9570   26.2300   31.6310 H   0  0  0  0  0  0  0  0  0  0  0  0
   34.2780   24.5820   30.7240 H   0  0  0  0  0  0  0  0  0  0  0  0
   35.6010   20.8110   34.5330 Cl  0  0  0  0  0  0  0  0  0  0  0  0
   35.9040   20.1210   32.9670 C   0  0  0  0  0  0  0  0  0  0  0  0
   36.2800   21.0290   32.0180 C   0  0  0  0  0  0  0  0  0  0  0  0
   36.5340   20.5830   30.7320 C   0  0  0  0  0  0  0  0  0  0  0  0
   36.8440   21.0850   29.8000 H   0  0  0  0  0  0  0  0  0  0  0  0
   36.3980   19.2240   30.4450 C   0  0  0  0  0  0  0  0  0  0  0  0
   36.5640   18.7380   29.4870 H   0  0  0  0  0  0  0  0  0  0  0  0
   36.0130   18.3740   31.4670 C   0  0  0  0  0  3  0  0  0  0  0  0
   35.7510   18.7710   32.7560 C   0  0  0  0  0  3  0  0  0  0  0  0
   38.1660   25.6420   32.9410 C   0  0  1  0  0  0  0  0  0  0  0  0
   38.5570   26.8360   32.1940 C   0  0  2  0  0  0  0  0  0  0  0  0
   37.5080   27.0080   33.2470 C   0  0  0  0  0  0  0  0  0  0  0  0
   38.8050   25.2560   33.7770 H   0  0  0  0  0  0  0  0  0  0  0  0
   39.6370   27.1170   32.3740 H   0  0  0  0  0  0  0  0  0  0  0  0
   37.8750   27.5320   34.1600 H   0  0  0  0  0  0  0  0  0  0  0  0
   36.4730   27.1810   32.9570 H   0  0  0  0  0  0  0  0  0  0  0  0
   38.1920   26.8940   30.8530 O   0  0  0  0  0  0  0  0  0  0  0  0
   38.0710   27.9770   30.0430 C   0  0  0  0  0  0  0  0  0  0  0  0
   39.0260   28.7950   29.9110 O   0  0  0  0  0  0  0  0  0  0  0  0
   36.7980   27.9630   29.4670 N   0  0  0  0  0  0  0  0  0  0  0  0
   36.0110   28.2520   30.1050 H   0  0  0  0  0  0  0  0  0  0  0  0
   37.1320   27.6400   28.5280 H   0  0  0  0  0  0  0  0  0  0  0  0
  1  6  1  0  0  0  0
  1 18  1  0  0  0  0
  2  1  2  0  0  0  0
  3  4  2  0  0  0  0
  3  2  1  0  0  0  0
  4  5  1  0  0  0  0
  5  6  2  0  0  0  0
  7  2  1  0  0  0  0
  8  3  1  0  0  0  0
 10  9  1  0  0  0  0
 11  5  1  0  0  0  0
 11 10  2  0  0  0  0
 12 11  1  0  0  0  0
 13 12  1  0  0  0  0
 14 12  2  0  0  0  0
 14 16  1  0  0  0  0
 15 14  1  0  0  0  0
 16 17  2  0  0  0  0
 17 10  1  0  0  0  0
 18 20  1  0  0  0  0
 18 21  1  1  0  0  0
 19 22  1  1  0  0  0
 19 18  1  0  0  0  0
 19 20  1  0  0  0  0
 20 23  1  0  0  0  0
 24 20  1  0  0  0  0
 25 19  1  0  0  0  0
 26 25  1  0  0  0  0
 27 26  2  0  0  0  0
 28 26  1  0  0  0  0
 28 29  1  0  0  0  0
 30 28  1  0  0  0  0
M  END
>  <minimizedAffinity>
-4.92048597

$$$$

 OpenBabel03272507203D

 30 32  0  0  1  0  0  0  0  0999 V2000
   34.7010   29.9550   33.0640 C   0  0  0  0  0  0  0  0  0  0  0  0
   35.2720   30.2030   31.8230 C   0  0  0  0  0  0  0  0  0  0  0  0
   36.3980   29.4540   31.5150 C   0  0  0  0  0  0  0  0  0  0  0  0
   36.8840   28.5330   32.4120 N   0  0  0  0  0  0  0  0  0  0  0  0
   36.2870   28.3300   33.6080 C   0  0  0  0  0  0  0  0  0  0  0  0
   35.1890   29.0380   33.9510 N   0  0  0  0  0  0  0  0  0  0  0  0
   34.8550   30.9260   31.1700 H   0  0  0  0  0  0  0  0  0  0  0  0
   36.9050   29.5870   30.5690 H   0  0  0  0  0  0  0  0  0  0  0  0
   36.5110   25.5080   32.3860 Cl  0  0  0  0  0  0  0  0  0  0  0  0
   37.3600   26.0130   33.8160 C   0  0  0  0  0  0  0  0  0  0  0  0
   37.1190   27.3070   34.1830 C   0  0  0  0  0  0  0  0  0  0  0  0
   37.7570   27.8120   35.3030 C   0  0  0  0  0  0  0  0  0  0  0  0
   37.7450   28.7920   35.8090 H   0  0  0  0  0  0  0  0  0  0  0  0
   38.6250   26.9870   36.0210 C   0  0  0  0  0  0  0  0  0  0  0  0
   39.1880   27.2480   36.9120 H   0  0  0  0  0  0  0  0  0  0  0  0
   38.8100   25.6890   35.5780 C   0  0  0  0  0  3  0  0  0  0  0  0
   38.1990   25.1450   34.4740 C   0  0  0  0  0  3  0  0  0  0  0  0
   33.4770   30.7460   33.4090 C   0  0  1  0  0  0  0  0  0  0  0  0
   33.2970   31.3550   34.7240 C   0  0  2  0  0  0  0  0  0  0  0  0
   33.8000   32.2420   33.6300 C   0  0  0  0  0  0  0  0  0  0  0  0
   32.5990   30.5730   32.7340 H   0  0  0  0  0  0  0  0  0  0  0  0
   32.2140   31.3590   35.0490 H   0  0  0  0  0  0  0  0  0  0  0  0
   33.0380   32.9650   33.2570 H   0  0  0  0  0  0  0  0  0  0  0  0
   34.8380   32.5710   33.6330 H   0  0  0  0  0  0  0  0  0  0  0  0
   34.1690   30.9570   35.7330 O   0  0  0  0  0  0  0  0  0  0  0  0
   35.0920   31.6890   36.4070 C   0  0  0  0  0  0  0  0  0  0  0  0
   34.7380   32.6310   37.1710 O   0  0  0  0  0  0  0  0  0  0  0  0
   36.3650   31.2050   36.0880 N   0  0  0  0  0  0  0  0  0  0  0  0
   36.7250   31.4770   35.1370 H   0  0  0  0  0  0  0  0  0  0  0  0
   36.4970   30.7060   37.0000 H   0  0  0  0  0  0  0  0  0  0  0  0
  1 18  1  0  0  0  0
  1  6  1  0  0  0  0
  2  1  2  0  0  0  0
  3  2  1  0  0  0  0
  3  4  2  0  0  0  0
  4  5  1  0  0  0  0
  5  6  2  0  0  0  0
  5 11  1  0  0  0  0
  7  2  1  0  0  0  0
  8  3  1  0  0  0  0
  9 10  1  0  0  0  0
 10 11  2  0  0  0  0
 10 17  1  0  0  0  0
 11 12  1  0  0  0  0
 12 13  1  0  0  0  0
 12 14  2  0  0  0  0
 14 15  1  0  0  0  0
 16 14  1  0  0  0  0
 17 16  2  0  0  0  0
 18 21  1  6  0  0  0
 18 20  1  0  0  0  0
 18 19  1  0  0  0  0
 19 22  1  1  0  0  0
 19 25  1  0  0  0  0
 20 24  1  0  0  0  0
 20 19  1  0  0  0  0
 23 20  1  0  0  0  0
 25 26  1  0  0  0  0
 26 27  2  0  0  0  0
 28 26  1  0  0  0  0
 28 30  1  0  0  0  0
 29 28  1  0  0  0  0
M  END
>  <minimizedAffinity>
-4.91780615

$$$$

 OpenBabel03272507203D

 30 32  0  0  1  0  0  0  0  0999 V2000
   38.8850   24.5290   35.2420 C   0  0  0  0  0  0  0  0  0  0  0  0
   39.6670   23.6830   36.0170 C   0  0  0  0  0  0  0  0  0  0  0  0
   39.4720   22.3250   35.8150 C   0  0  0  0  0  0  0  0  0  0  0  0
   38.5520   21.8870   34.8940 N   0  0  0  0  0  0  0  0  0  0  0  0
   37.8160   22.7560   34.1630 C   0  0  0  0  0  0  0  0  0  0  0  0
   37.9720   24.0880   34.3280 N   0  0  0  0  0  0  0  0  0  0  0  0
   40.3620   24.0760   36.7140 H   0  0  0  0  0  0  0  0  0  0  0  0
   40.0390   21.5980   36.3790 H   0  0  0  0  0  0  0  0  0  0  0  0
   35.7090   20.8680   35.3890 Cl  0  0  0  0  0  0  0  0  0  0  0  0
   36.0520   20.9610   33.6880 C   0  0  0  0  0  0  0  0  0  0  0  0
   37.0210   21.8660   33.3600 C   0  0  0  0  0  0  0  0  0  0  0  0
   37.3600   22.0270   32.0270 C   0  0  0  0  0  0  0  0  0  0  0  0
   38.0850   22.6680   31.4980 H   0  0  0  0  0  0  0  0  0  0  0  0
   36.7030   21.2610   31.0620 C   0  0  0  0  0  0  0  0  0  0  0  0
   36.8670   21.2820   29.9880 H   0  0  0  0  0  0  0  0  0  0  0  0
   35.7350   20.3680   31.4830 C   0  0  0  0  0  3  0  0  0  0  0  0
   35.3650   20.1740   32.7920 C   0  0  0  0  0  3  0  0  0  0  0  0
   39.0910   25.9990   35.4390 C   0  0  1  0  0  0  0  0  0  0  0  0
   40.2440   26.6980   34.8760 C   0  0  2  0  0  0  0  0  0  0  0  0
   38.9610   26.7830   34.1120 C   0  0  0  0  0  0  0  0  0  0  0  0
   38.5070   26.4480   36.2830 H   0  0  0  0  0  0  0  0  0  0  0  0
   40.6020   27.5390   35.5420 H   0  0  0  0  0  0  0  0  0  0  0  0
   38.4660   27.7800   34.1820 H   0  0  0  0  0  0  0  0  0  0  0  0
   38.8500   26.2380   33.1760 H   0  0  0  0  0  0  0  0  0  0  0  0
   41.2810   25.9150   34.3800 O   0  0  0  0  0  0  0  0  0  0  0  0
   42.6130   26.1770   34.3430 C   0  0  0  0  0  0  0  0  0  0  0  0
   43.4560   25.2800   34.6280 O   0  0  0  0  0  0  0  0  0  0  0  0
   42.7950   27.5100   33.9630 N   0  0  0  0  0  0  0  0  0  0  0  0
   42.5930   28.2240   34.7100 H   0  0  0  0  0  0  0  0  0  0  0  0
   43.0930   27.2800   32.9850 H   0  0  0  0  0  0  0  0  0  0  0  0
  1 18  1  0  0  0  0
  1  2  1  0  0  0  0
  2  7  1  0  0  0  0
  3  2  2  0  0  0  0
  3  8  1  0  0  0  0
  4  3  1  0  0  0  0
  5  6  1  0  0  0  0
  5  4  2  0  0  0  0
  6  1  2  0  0  0  0
 10  9  1  0  0  0  0
 11 10  1  0  0  0  0
 11  5  1  0  0  0  0
 12 11  2  0  0  0  0
 13 12  1  0  0  0  0
 14 16  2  0  0  0  0
 14 12  1  0  0  0  0
 15 14  1  0  0  0  0
 16 17  1  0  0  0  0
 17 10  2  0  0  0  0
 18 21  1  1  0  0  0
 19 18  1  0  0  0  0
 19 22  1  1  0  0  0
 20 23  1  0  0  0  0
 20 19  1  0  0  0  0
 20 18  1  0  0  0  0
 24 20  1  0  0  0  0
 25 19  1  0  0  0  0
 26 25  1  0  0  0  0
 26 27  2  0  0  0  0
 28 26  1  0  0  0  0
 28 29  1  0  0  0  0
 30 28  1  0  0  0  0
M  END
>  <minimizedAffinity>
-4.91163731

$$$$
