
 OpenBabel03262522433D

 25 27  0  0  1  0  0  0  0  0999 V2000
   38.2670   26.6450   34.6570 C   0  0  1  0  0  0  0  0  0  0  0  0
   38.5350   26.9590   36.0610 C   0  0  0  0  0  0  0  0  0  0  0  0
   37.8930   25.6470   35.7280 C   0  0  2  0  0  0  0  0  0  0  0  0
   39.0360   26.2370   33.9860 H   0  0  0  0  0  0  0  0  0  0  0  0
   37.9410   27.6430   36.6630 H   0  0  0  0  0  0  0  0  0  0  0  0
   39.6230   26.9780   36.3660 H   0  0  0  0  0  0  0  0  0  0  0  0
   36.8180   25.5580   35.8940 H   0  0  0  0  0  0  0  0  0  0  0  0
   36.8040   26.9270   32.6020 C   0  0  0  0  0  0  0  0  0  0  0  0
   37.1560   27.3390   33.9270 C   0  0  0  0  0  0  0  0  0  0  0  0
   36.4540   28.3940   34.5080 C   0  0  0  0  0  0  0  0  0  0  0  0
   35.4690   28.9760   33.7780 N   0  0  0  0  0  0  0  0  0  0  0  0
   35.1430   28.5810   32.5280 C   0  0  0  0  0  0  0  0  0  0  0  0
   35.8140   27.5550   31.9440 N   0  0  0  0  0  0  0  0  0  0  0  0
   37.3140   26.1310   32.1290 H   0  0  0  0  0  0  0  0  0  0  0  0
   36.6850   28.7290   35.4910 H   0  0  0  0  0  0  0  0  0  0  0  0
   34.3750   29.0190   31.9320 H   0  0  0  0  0  0  0  0  0  0  0  0
   37.7360   24.7310   38.6000 Cl  0  0  0  0  0  0  0  0  0  0  0  0
   38.6880   24.0520   37.3150 C   0  0  0  0  0  0  0  0  0  0  0  0
   38.7500   24.4790   36.0070 C   0  0  0  0  0  0  0  0  0  0  0  0
   39.5690   23.8070   35.1240 C   0  0  0  0  0  0  0  0  0  0  0  0
   39.5730   24.1890   34.1180 H   0  0  0  0  0  0  0  0  0  0  0  0
   40.3270   22.7260   35.4990 C   0  0  0  0  0  0  0  0  0  0  0  0
   40.9240   22.2840   34.7320 H   0  0  0  0  0  0  0  0  0  0  0  0
   40.2680   22.2880   36.8240 C   0  0  0  0  0  3  0  0  0  0  0  0
   39.4430   22.9600   37.7260 C   0  0  0  0  0  3  0  0  0  0  0  0
  1  4  1  6  0  0  0
  1  3  1  0  0  0  0
  1  2  1  0  0  0  0
  2  6  1  0  0  0  0
  2  5  1  0  0  0  0
  3  7  1  1  0  0  0
  3 19  1  0  0  0  0
  3  2  1  0  0  0  0
  8  9  1  0  0  0  0
  9 10  2  0  0  0  0
  9  1  1  0  0  0  0
 10 15  1  0  0  0  0
 11 10  1  0  0  0  0
 12 11  2  0  0  0  0
 13 12  1  0  0  0  0
 13  8  2  0  0  0  0
 14  8  1  0  0  0  0
 16 12  1  0  0  0  0
 18 25  1  0  0  0  0
 18 17  1  0  0  0  0
 19 18  2  0  0  0  0
 20 22  2  0  0  0  0
 20 19  1  0  0  0  0
 21 20  1  0  0  0  0
 22 24  1  0  0  0  0
 23 22  1  0  0  0  0
 24 25  2  0  0  0  0
M  END
>  <minimizedAffinity>
-4.92561769

$$$$

 OpenBabel03262522433D

 25 27  0  0  1  0  0  0  0  0999 V2000
   37.8530   25.8610   35.6320 C   0  0  1  0  0  0  0  0  0  0  0  0
   38.1610   27.2520   35.9700 C   0  0  0  0  0  0  0  0  0  0  0  0
   38.6420   26.7060   34.6590 C   0  0  2  0  0  0  0  0  0  0  0  0
   36.8890   25.5580   35.2020 H   0  0  0  0  0  0  0  0  0  0  0  0
   38.9330   27.5570   36.6710 H   0  0  0  0  0  0  0  0  0  0  0  0
   37.2850   27.9650   35.9810 H   0  0  0  0  0  0  0  0  0  0  0  0
   39.6960   26.4310   34.5870 H   0  0  0  0  0  0  0  0  0  0  0  0
   38.1690   24.3420   37.6410 C   0  0  0  0  0  0  0  0  0  0  0  0
   38.5680   24.7400   36.3250 C   0  0  0  0  0  0  0  0  0  0  0  0
   39.6310   24.0720   35.7190 C   0  0  0  0  0  0  0  0  0  0  0  0
   40.2310   23.0750   36.4170 N   0  0  0  0  0  0  0  0  0  0  0  0
   39.8470   22.7060   37.6590 C   0  0  0  0  0  0  0  0  0  0  0  0
   38.8140   23.3440   38.2670 N   0  0  0  0  0  0  0  0  0  0  0  0
   37.3670   24.8270   38.1330 H   0  0  0  0  0  0  0  0  0  0  0  0
   39.9580   24.3370   34.7420 H   0  0  0  0  0  0  0  0  0  0  0  0
   40.3010   21.9280   38.2290 H   0  0  0  0  0  0  0  0  0  0  0  0
   40.2990   26.4890   32.1450 Cl  0  0  0  0  0  0  0  0  0  0  0  0
   38.7360   27.2270   32.3320 C   0  0  0  0  0  0  0  0  0  0  0  0
   37.9890   27.3180   33.4860 C   0  0  0  0  0  0  0  0  0  0  0  0
   36.7610   27.9440   33.4380 C   0  0  0  0  0  0  0  0  0  0  0  0
   36.2280   27.9830   34.3720 H   0  0  0  0  0  0  0  0  0  0  0  0
   36.2520   28.4800   32.2820 C   0  0  0  0  0  0  0  0  0  0  0  0
   35.2920   28.9410   32.3620 H   0  0  0  0  0  0  0  0  0  0  0  0
   37.0050   28.3900   31.1080 C   0  0  0  0  0  3  0  0  0  0  0  0
   38.2490   27.7590   31.1450 C   0  0  0  0  0  3  0  0  0  0  0  0
  1  4  1  6  0  0  0
  1  2  1  0  0  0  0
  1  9  1  0  0  0  0
  2  6  1  0  0  0  0
  2  5  1  0  0  0  0
  3  7  1  6  0  0  0
  3  1  1  0  0  0  0
  3  2  1  0  0  0  0
  8 14  1  0  0  0  0
  8 13  1  0  0  0  0
  9  8  2  0  0  0  0
 10  9  1  0  0  0  0
 10 11  2  0  0  0  0
 11 12  1  0  0  0  0
 12 16  1  0  0  0  0
 12 13  2  0  0  0  0
 15 10  1  0  0  0  0
 17 18  1  0  0  0  0
 18 19  1  0  0  0  0
 19  3  1  0  0  0  0
 20 19  2  0  0  0  0
 20 21  1  0  0  0  0
 22 23  1  0  0  0  0
 22 20  1  0  0  0  0
 24 25  1  0  0  0  0
 24 22  2  0  0  0  0
 25 18  2  0  0  0  0
M  END
>  <minimizedAffinity>
-4.82620287

$$$$

 OpenBabel03262522433D

 25 27  0  0  1  0  0  0  0  0999 V2000
   36.1110   29.0850   33.2270 C   0  0  1  0  0  0  0  0  0  0  0  0
   35.1090   29.9230   32.5650 C   0  0  0  0  0  0  0  0  0  0  0  0
   34.8200   29.4070   33.9430 C   0  0  2  0  0  0  0  0  0  0  0  0
   36.9750   29.5080   33.7580 H   0  0  0  0  0  0  0  0  0  0  0  0
   34.4430   29.5780   31.7780 H   0  0  0  0  0  0  0  0  0  0  0  0
   35.3820   31.0100   32.4300 H   0  0  0  0  0  0  0  0  0  0  0  0
   34.1380   28.5600   34.0290 H   0  0  0  0  0  0  0  0  0  0  0  0
   37.0860   26.7700   33.5930 C   0  0  0  0  0  0  0  0  0  0  0  0
   36.3290   27.6710   32.7780 C   0  0  0  0  0  0  0  0  0  0  0  0
   35.8160   27.2070   31.5680 C   0  0  0  0  0  0  0  0  0  0  0  0
   36.0660   25.9170   31.2290 N   0  0  0  0  0  0  0  0  0  0  0  0
   36.7810   25.0740   32.0040 C   0  0  0  0  0  0  0  0  0  0  0  0
   37.2900   25.5060   33.1870 N   0  0  0  0  0  0  0  0  0  0  0  0
   37.4910   27.0870   34.5180 H   0  0  0  0  0  0  0  0  0  0  0  0
   35.2480   27.8460   30.9340 H   0  0  0  0  0  0  0  0  0  0  0  0
   36.9920   24.0570   31.7630 H   0  0  0  0  0  0  0  0  0  0  0  0
   32.1310   29.5950   35.3030 Cl  0  0  0  0  0  0  0  0  0  0  0  0
   33.5470   30.5600   35.6000 C   0  0  0  0  0  0  0  0  0  0  0  0
   34.7690   30.4640   34.9720 C   0  0  0  0  0  0  0  0  0  0  0  0
   35.7810   31.3220   35.3470 C   0  0  0  0  0  0  0  0  0  0  0  0
   36.7100   31.1960   34.8200 H   0  0  0  0  0  0  0  0  0  0  0  0
   35.6160   32.2720   36.3250 C   0  0  0  0  0  0  0  0  0  0  0  0
   36.4680   32.8820   36.5330 H   0  0  0  0  0  0  0  0  0  0  0  0
   34.3780   32.3740   36.9650 C   0  0  0  0  0  3  0  0  0  0  0  0
   33.3480   31.5100   36.5940 C   0  0  0  0  0  3  0  0  0  0  0  0
  1  4  1  1  0  0  0
  1  3  1  0  0  0  0
  2  1  1  0  0  0  0
  2  3  1  0  0  0  0
  3  7  1  1  0  0  0
  3 19  1  0  0  0  0
  5  2  1  0  0  0  0
  6  2  1  0  0  0  0
  8 14  1  0  0  0  0
  9  1  1  0  0  0  0
  9  8  2  0  0  0  0
 10  9  1  0  0  0  0
 11 10  2  0  0  0  0
 11 12  1  0  0  0  0
 12 13  2  0  0  0  0
 13  8  1  0  0  0  0
 15 10  1  0  0  0  0
 16 12  1  0  0  0  0
 17 18  1  0  0  0  0
 18 25  1  0  0  0  0
 19 20  1  0  0  0  0
 19 18  2  0  0  0  0
 20 22  2  0  0  0  0
 21 20  1  0  0  0  0
 22 23  1  0  0  0  0
 22 24  1  0  0  0  0
 25 24  2  0  0  0  0
M  END
>  <minimizedAffinity>
-4.61892796

$$$$

 OpenBabel03262522433D

 25 27  0  0  1  0  0  0  0  0999 V2000
   38.5140   24.5500   33.4480 C   0  0  1  0  0  0  0  0  0  0  0  0
   38.8670   25.5670   34.4390 C   0  0  0  0  0  0  0  0  0  0  0  0
   38.2950   24.2670   34.9160 C   0  0  2  0  0  0  0  0  0  0  0  0
   39.2550   23.8630   33.0170 H   0  0  0  0  0  0  0  0  0  0  0  0
   38.2740   26.4540   34.6480 H   0  0  0  0  0  0  0  0  0  0  0  0
   39.9710   25.7660   34.5750 H   0  0  0  0  0  0  0  0  0  0  0  0
   37.2450   24.2590   35.2140 H   0  0  0  0  0  0  0  0  0  0  0  0
   36.6700   23.5880   31.9920 C   0  0  0  0  0  0  0  0  0  0  0  0
   37.3030   24.7290   32.5810 C   0  0  0  0  0  0  0  0  0  0  0  0
   36.7770   25.9940   32.3220 C   0  0  0  0  0  0  0  0  0  0  0  0
   35.6860   26.0720   31.5190 N   0  0  0  0  0  0  0  0  0  0  0  0
   35.0940   24.9900   30.9680 C   0  0  0  0  0  0  0  0  0  0  0  0
   35.5910   23.7490   31.2080 N   0  0  0  0  0  0  0  0  0  0  0  0
   37.0410   22.6130   32.1660 H   0  0  0  0  0  0  0  0  0  0  0  0
   37.2190   26.8660   32.7410 H   0  0  0  0  0  0  0  0  0  0  0  0
   34.2370   25.0220   30.3350 H   0  0  0  0  0  0  0  0  0  0  0  0
   37.8580   24.4110   37.8990 Cl  0  0  0  0  0  0  0  0  0  0  0  0
   39.0640   23.4990   37.0410 C   0  0  0  0  0  0  0  0  0  0  0  0
   39.2520   23.4410   35.6780 C   0  0  0  0  0  0  0  0  0  0  0  0
   40.2690   22.6550   35.1780 C   0  0  0  0  0  0  0  0  0  0  0  0
   40.3640   22.6520   34.1070 H   0  0  0  0  0  0  0  0  0  0  0  0
   41.1030   21.9260   35.9890 C   0  0  0  0  0  0  0  0  0  0  0  0
   41.8550   21.3530   35.4930 H   0  0  0  0  0  0  0  0  0  0  0  0
   40.9160   21.9810   37.3720 C   0  0  0  0  0  3  0  0  0  0  0  0
   39.8910   22.7730   37.8890 C   0  0  0  0  0  3  0  0  0  0  0  0
  1  4  1  6  0  0  0
  1  2  1  0  0  0  0
  1  3  1  0  0  0  0
  2  6  1  0  0  0  0
  2  5  1  0  0  0  0
  2  3  1  0  0  0  0
  3  7  1  1  0  0  0
  3 19  1  0  0  0  0
  8 14  1  0  0  0  0
  8  9  1  0  0  0  0
  9  1  1  0  0  0  0
 10  9  2  0  0  0  0
 10 15  1  0  0  0  0
 11 10  1  0  0  0  0
 12 13  1  0  0  0  0
 12 11  2  0  0  0  0
 13  8  2  0  0  0  0
 16 12  1  0  0  0  0
 18 25  1  0  0  0  0
 18 17  1  0  0  0  0
 19 18  2  0  0  0  0
 20 19  1  0  0  0  0
 20 22  2  0  0  0  0
 21 20  1  0  0  0  0
 22 24  1  0  0  0  0
 23 22  1  0  0  0  0
 24 25  2  0  0  0  0
M  END
>  <minimizedAffinity>
-4.61559248

$$$$

 OpenBabel03262522433D

 25 27  0  0  1  0  0  0  0  0999 V2000
   38.4650   26.5370   35.3550 C   0  0  1  0  0  0  0  0  0  0  0  0
   39.3180   27.1420   34.3310 C   0  0  0  0  0  0  0  0  0  0  0  0
   37.9390   26.6960   33.9480 C   0  0  2  0  0  0  0  0  0  0  0  0
   37.8820   27.1380   36.0670 H   0  0  0  0  0  0  0  0  0  0  0  0
   40.1390   26.6300   33.8340 H   0  0  0  0  0  0  0  0  0  0  0  0
   39.5270   28.2460   34.4470 H   0  0  0  0  0  0  0  0  0  0  0  0
   37.8490   25.7560   33.4010 H   0  0  0  0  0  0  0  0  0  0  0  0
   37.8250   24.5070   36.7370 C   0  0  0  0  0  0  0  0  0  0  0  0
   38.7440   25.1480   35.8470 C   0  0  0  0  0  0  0  0  0  0  0  0
   39.8940   24.4600   35.4620 C   0  0  0  0  0  0  0  0  0  0  0  0
   40.0770   23.2100   35.9590 N   0  0  0  0  0  0  0  0  0  0  0  0
   39.2050   22.6120   36.7990 C   0  0  0  0  0  0  0  0  0  0  0  0
   38.0790   23.2660   37.1860 N   0  0  0  0  0  0  0  0  0  0  0  0
   36.9430   24.9990   37.0510 H   0  0  0  0  0  0  0  0  0  0  0  0
   40.6010   24.9020   34.8010 H   0  0  0  0  0  0  0  0  0  0  0  0
   39.3240   21.6330   37.2030 H   0  0  0  0  0  0  0  0  0  0  0  0
   38.0010   27.3890   31.0110 Cl  0  0  0  0  0  0  0  0  0  0  0  0
   37.0510   28.1330   32.2620 C   0  0  0  0  0  0  0  0  0  0  0  0
   37.0320   27.8070   33.6000 C   0  0  0  0  0  0  0  0  0  0  0  0
   36.2060   28.5150   34.4480 C   0  0  0  0  0  0  0  0  0  0  0  0
   36.2370   28.2120   35.4790 H   0  0  0  0  0  0  0  0  0  0  0  0
   35.4010   29.5360   34.0080 C   0  0  0  0  0  0  0  0  0  0  0  0
   34.8030   30.0150   34.7530 H   0  0  0  0  0  0  0  0  0  0  0  0
   35.4160   29.8720   32.6520 C   0  0  0  0  0  3  0  0  0  0  0  0
   36.2480   29.1620   31.7860 C   0  0  0  0  0  3  0  0  0  0  0  0
  1  9  1  0  0  0  0
  1  4  1  1  0  0  0
  2  6  1  0  0  0  0
  2  1  1  0  0  0  0
  3  7  1  6  0  0  0
  3  2  1  0  0  0  0
  3  1  1  0  0  0  0
  5  2  1  0  0  0  0
  8 14  1  0  0  0  0
  8 13  1  0  0  0  0
  9  8  2  0  0  0  0
 10  9  1  0  0  0  0
 10 11  2  0  0  0  0
 11 12  1  0  0  0  0
 12 13  2  0  0  0  0
 12 16  1  0  0  0  0
 15 10  1  0  0  0  0
 17 18  1  0  0  0  0
 18 19  1  0  0  0  0
 19  3  1  0  0  0  0
 19 20  2  0  0  0  0
 20 21  1  0  0  0  0
 22 20  1  0  0  0  0
 22 23  1  0  0  0  0
 24 22  2  0  0  0  0
 25 18  2  0  0  0  0
 25 24  1  0  0  0  0
M  END
>  <minimizedAffinity>
-4.55412006

$$$$

 OpenBabel03262522433D

 25 27  0  0  1  0  0  0  0  0999 V2000
   38.7610   26.6810   34.6220 C   0  0  1  0  0  0  0  0  0  0  0  0
   37.4020   26.5990   35.1580 C   0  0  0  0  0  0  0  0  0  0  0  0
   38.1500   25.3270   34.8950 C   0  0  2  0  0  0  0  0  0  0  0  0
   39.6380   26.8570   35.2610 H   0  0  0  0  0  0  0  0  0  0  0  0
   36.4990   26.7510   34.5720 H   0  0  0  0  0  0  0  0  0  0  0  0
   37.2670   26.9470   36.2240 H   0  0  0  0  0  0  0  0  0  0  0  0
   37.8900   24.7690   33.9930 H   0  0  0  0  0  0  0  0  0  0  0  0
   37.8920   27.5460   32.4000 C   0  0  0  0  0  0  0  0  0  0  0  0
   38.9860   27.0740   33.1920 C   0  0  0  0  0  0  0  0  0  0  0  0
   40.2470   26.9790   32.6030 C   0  0  0  0  0  0  0  0  0  0  0  0
   40.3650   27.3440   31.3020 N   0  0  0  0  0  0  0  0  0  0  0  0
   39.3270   27.7900   30.5610 C   0  0  0  0  0  0  0  0  0  0  0  0
   38.0910   27.8890   31.1150 N   0  0  0  0  0  0  0  0  0  0  0  0
   36.9220   27.6310   32.8120 H   0  0  0  0  0  0  0  0  0  0  0  0
   41.0850   26.6320   33.1590 H   0  0  0  0  0  0  0  0  0  0  0  0
   39.3920   28.0830   29.5380 H   0  0  0  0  0  0  0  0  0  0  0  0
   40.4740   23.4400   34.5050 Cl  0  0  0  0  0  0  0  0  0  0  0  0
   39.5510   23.7100   35.9530 C   0  0  0  0  0  0  0  0  0  0  0  0
   38.4920   24.5750   36.1180 C   0  0  0  0  0  0  0  0  0  0  0  0
   37.8800   24.6530   37.3510 C   0  0  0  0  0  0  0  0  0  0  0  0
   37.0600   25.3460   37.4150 H   0  0  0  0  0  0  0  0  0  0  0  0
   38.2870   23.9000   38.4240 C   0  0  0  0  0  0  0  0  0  0  0  0
   37.7400   24.0420   39.3300 H   0  0  0  0  0  0  0  0  0  0  0  0
   39.3600   23.0200   38.2630 C   0  0  0  0  0  3  0  0  0  0  0  0
   39.9870   22.9330   37.0190 C   0  0  0  0  0  3  0  0  0  0  0  0
  1  3  1  0  0  0  0
  1  2  1  0  0  0  0
  1  4  1  1  0  0  0
  2  6  1  0  0  0  0
  3  7  1  6  0  0  0
  3  2  1  0  0  0  0
  3 19  1  0  0  0  0
  5  2  1  0  0  0  0
  8 14  1  0  0  0  0
  8  9  1  0  0  0  0
  9  1  1  0  0  0  0
 10 15  1  0  0  0  0
 10  9  2  0  0  0  0
 11 10  1  0  0  0  0
 12 13  1  0  0  0  0
 12 11  2  0  0  0  0
 13  8  2  0  0  0  0
 16 12  1  0  0  0  0
 17 18  1  0  0  0  0
 18 19  2  0  0  0  0
 18 25  1  0  0  0  0
 19 20  1  0  0  0  0
 20 21  1  0  0  0  0
 20 22  2  0  0  0  0
 22 23  1  0  0  0  0
 24 22  1  0  0  0  0
 25 24  2  0  0  0  0
M  END
>  <minimizedAffinity>
-4.49508142

$$$$

 OpenBabel03262522433D

 25 27  0  0  1  0  0  0  0  0999 V2000
   38.7420   24.2270   33.1460 C   0  0  1  0  0  0  0  0  0  0  0  0
   39.6260   25.3280   33.5300 C   0  0  0  0  0  0  0  0  0  0  0  0
   38.8290   24.6400   34.5970 C   0  0  2  0  0  0  0  0  0  0  0  0
   39.1070   23.2000   33.0030 H   0  0  0  0  0  0  0  0  0  0  0  0
   39.4020   26.3800   33.3720 H   0  0  0  0  0  0  0  0  0  0  0  0
   40.7350   25.1250   33.4540 H   0  0  0  0  0  0  0  0  0  0  0  0
   37.9380   25.1500   34.9660 H   0  0  0  0  0  0  0  0  0  0  0  0
   37.0750   25.8560   32.1400 C   0  0  0  0  0  0  0  0  0  0  0  0
   37.4630   24.5050   32.4140 C   0  0  0  0  0  0  0  0  0  0  0  0
   36.6270   23.4720   31.9960 C   0  0  0  0  0  0  0  0  0  0  0  0
   35.4830   23.8070   31.3480 N   0  0  0  0  0  0  0  0  0  0  0  0
   35.1240   25.0850   31.0940 C   0  0  0  0  0  0  0  0  0  0  0  0
   35.9250   26.1070   31.4930 N   0  0  0  0  0  0  0  0  0  0  0  0
   37.6850   26.6660   32.4430 H   0  0  0  0  0  0  0  0  0  0  0  0
   36.8800   22.4550   32.1800 H   0  0  0  0  0  0  0  0  0  0  0  0
   34.2320   25.3770   30.5880 H   0  0  0  0  0  0  0  0  0  0  0  0
   37.3610   23.9810   37.1510 Cl  0  0  0  0  0  0  0  0  0  0  0  0
   38.9950   23.5690   36.7230 C   0  0  0  0  0  0  0  0  0  0  0  0
   39.6530   23.8750   35.5530 C   0  0  0  0  0  0  0  0  0  0  0  0
   40.9580   23.4580   35.3930 C   0  0  0  0  0  0  0  0  0  0  0  0
   41.4160   23.7280   34.4580 H   0  0  0  0  0  0  0  0  0  0  0  0
   41.6280   22.7480   36.3580 C   0  0  0  0  0  0  0  0  0  0  0  0
   42.6350   22.4780   36.1260 H   0  0  0  0  0  0  0  0  0  0  0  0
   40.9650   22.4350   37.5470 C   0  0  0  0  0  3  0  0  0  0  0  0
   39.6450   22.8510   37.7200 C   0  0  0  0  0  3  0  0  0  0  0  0
  1  4  1  6  0  0  0
  1  2  1  0  0  0  0
  1  3  1  0  0  0  0
  2  3  1  0  0  0  0
  3  7  1  1  0  0  0
  3 19  1  0  0  0  0
  5  2  1  0  0  0  0
  6  2  1  0  0  0  0
  8  9  1  0  0  0  0
  8 14  1  0  0  0  0
  9  1  1  0  0  0  0
 10 15  1  0  0  0  0
 10  9  2  0  0  0  0
 11 10  1  0  0  0  0
 12 11  2  0  0  0  0
 12 13  1  0  0  0  0
 13  8  2  0  0  0  0
 16 12  1  0  0  0  0
 18 17  1  0  0  0  0
 18 25  1  0  0  0  0
 19 18  2  0  0  0  0
 20 19  1  0  0  0  0
 20 22  2  0  0  0  0
 21 20  1  0  0  0  0
 22 24  1  0  0  0  0
 23 22  1  0  0  0  0
 24 25  2  0  0  0  0
M  END
>  <minimizedAffinity>
-4.4123354

$$$$

 OpenBabel03262522433D

 25 27  0  0  1  0  0  0  0  0999 V2000
   37.7590   24.9300   33.7390 C   0  0  1  0  0  0  0  0  0  0  0  0
   38.1800   23.5310   33.6440 C   0  0  0  0  0  0  0  0  0  0  0  0
   38.9620   24.4600   34.5230 C   0  0  2  0  0  0  0  0  0  0  0  0
   36.9520   25.2590   34.4090 H   0  0  0  0  0  0  0  0  0  0  0  0
   38.7180   23.1070   32.8000 H   0  0  0  0  0  0  0  0  0  0  0  0
   37.4920   22.7720   34.1200 H   0  0  0  0  0  0  0  0  0  0  0  0
   39.9130   24.8320   34.1390 H   0  0  0  0  0  0  0  0  0  0  0  0
   37.6860   27.2590   32.7330 C   0  0  0  0  0  0  0  0  0  0  0  0
   37.9920   25.8680   32.5930 C   0  0  0  0  0  0  0  0  0  0  0  0
   38.4960   25.4140   31.3750 C   0  0  0  0  0  0  0  0  0  0  0  0
   38.6690   26.3250   30.3840 N   0  0  0  0  0  0  0  0  0  0  0  0
   38.3780   27.6360   30.5250 C   0  0  0  0  0  0  0  0  0  0  0  0
   37.8860   28.0990   31.7030 N   0  0  0  0  0  0  0  0  0  0  0  0
   37.3010   27.6390   33.6420 H   0  0  0  0  0  0  0  0  0  0  0  0
   38.7360   24.3880   31.2310 H   0  0  0  0  0  0  0  0  0  0  0  0
   38.5040   28.3730   29.7640 H   0  0  0  0  0  0  0  0  0  0  0  0
   41.0340   22.4720   35.4550 Cl  0  0  0  0  0  0  0  0  0  0  0  0
   39.7930   23.2410   36.3990 C   0  0  0  0  0  0  0  0  0  0  0  0
   38.8530   24.1480   35.9610 C   0  0  0  0  0  0  0  0  0  0  0  0
   37.9430   24.6540   36.8650 C   0  0  0  0  0  0  0  0  0  0  0  0
   37.2360   25.3570   36.4610 H   0  0  0  0  0  0  0  0  0  0  0  0
   37.9370   24.2880   38.1880 C   0  0  0  0  0  0  0  0  0  0  0  0
   37.1870   24.7430   38.7960 H   0  0  0  0  0  0  0  0  0  0  0  0
   38.8880   23.3680   38.6370 C   0  0  0  0  0  3  0  0  0  0  0  0
   39.8140   22.8500   37.7320 C   0  0  0  0  0  3  0  0  0  0  0  0
  1  4  1  1  0  0  0
  1  3  1  0  0  0  0
  2  1  1  0  0  0  0
  2  6  1  0  0  0  0
  2  3  1  0  0  0  0
  3  7  1  6  0  0  0
  3 19  1  0  0  0  0
  5  2  1  0  0  0  0
  8 14  1  0  0  0  0
  9  8  1  0  0  0  0
  9  1  1  0  0  0  0
 10  9  2  0  0  0  0
 11 12  2  0  0  0  0
 11 10  1  0  0  0  0
 12 13  1  0  0  0  0
 13  8  2  0  0  0  0
 15 10  1  0  0  0  0
 16 12  1  0  0  0  0
 17 18  1  0  0  0  0
 18 25  1  0  0  0  0
 19 18  2  0  0  0  0
 19 20  1  0  0  0  0
 20 22  2  0  0  0  0
 21 20  1  0  0  0  0
 22 24  1  0  0  0  0
 22 23  1  0  0  0  0
 25 24  2  0  0  0  0
M  END
>  <minimizedAffinity>
-4.39204693

$$$$

 OpenBabel03262522433D

 25 27  0  0  1  0  0  0  0  0999 V2000
   38.8200   24.9580   34.5420 C   0  0  1  0  0  0  0  0  0  0  0  0
   39.5740   25.1270   33.2990 C   0  0  0  0  0  0  0  0  0  0  0  0
   38.3600   24.2480   33.2900 C   0  0  2  0  0  0  0  0  0  0  0  0
   38.0720   25.6870   34.8830 H   0  0  0  0  0  0  0  0  0  0  0  0
   40.5200   24.6360   33.0820 H   0  0  0  0  0  0  0  0  0  0  0  0
   39.5180   26.1480   32.8200 H   0  0  0  0  0  0  0  0  0  0  0  0
   38.5210   23.1690   33.3080 H   0  0  0  0  0  0  0  0  0  0  0  0
   40.7180   23.6270   35.5760 C   0  0  0  0  0  0  0  0  0  0  0  0
   39.3780   24.1220   35.6560 C   0  0  0  0  0  0  0  0  0  0  0  0
   38.6120   23.8030   36.7770 C   0  0  0  0  0  0  0  0  0  0  0  0
   39.1870   23.0340   37.7360 N   0  0  0  0  0  0  0  0  0  0  0  0
   40.4530   22.5710   37.6530 C   0  0  0  0  0  0  0  0  0  0  0  0
   41.2160   22.8700   36.5690 N   0  0  0  0  0  0  0  0  0  0  0  0
   41.3280   23.8480   34.7410 H   0  0  0  0  0  0  0  0  0  0  0  0
   37.6120   24.1530   36.8730 H   0  0  0  0  0  0  0  0  0  0  0  0
   40.9290   21.9660   38.3910 H   0  0  0  0  0  0  0  0  0  0  0  0
   36.5890   22.0860   32.1490 Cl  0  0  0  0  0  0  0  0  0  0  0  0
   36.4310   23.8070   31.9560 C   0  0  0  0  0  0  0  0  0  0  0  0
   37.2460   24.7840   32.4830 C   0  0  0  0  0  0  0  0  0  0  0  0
   36.9590   26.1060   32.2200 C   0  0  0  0  0  0  0  0  0  0  0  0
   37.6320   26.8200   32.6600 H   0  0  0  0  0  0  0  0  0  0  0  0
   35.8880   26.4880   31.4500 C   0  0  0  0  0  0  0  0  0  0  0  0
   35.7620   27.5400   31.3120 H   0  0  0  0  0  0  0  0  0  0  0  0
   35.0580   25.5020   30.9120 C   0  0  0  0  0  3  0  0  0  0  0  0
   35.3390   24.1600   31.1730 C   0  0  0  0  0  3  0  0  0  0  0  0
  1  4  1  1  0  0  0
  1  9  1  0  0  0  0
  2  1  1  0  0  0  0
  3  2  1  0  0  0  0
  3  7  1  6  0  0  0
  3  1  1  0  0  0  0
  5  2  1  0  0  0  0
  6  2  1  0  0  0  0
  8  9  2  0  0  0  0
  8 13  1  0  0  0  0
  9 10  1  0  0  0  0
 10 15  1  0  0  0  0
 10 11  2  0  0  0  0
 12 11  1  0  0  0  0
 12 16  1  0  0  0  0
 13 12  2  0  0  0  0
 14  8  1  0  0  0  0
 18 17  1  0  0  0  0
 18 19  1  0  0  0  0
 19  3  1  0  0  0  0
 20 19  2  0  0  0  0
 20 21  1  0  0  0  0
 22 20  1  0  0  0  0
 23 22  1  0  0  0  0
 24 25  1  0  0  0  0
 24 22  2  0  0  0  0
 25 18  2  0  0  0  0
M  END
>  <minimizedAffinity>
-4.36363602

$$$$
