
 OpenBabel03272507193D

 30 32  0  0  1  0  0  0  0  0999 V2000
   37.9510   31.2970   49.6880 C   0  0  0  0  0  0  0  0  0  0  0  0
   38.2960   32.6300   49.8670 C   0  0  0  0  0  0  0  0  0  0  0  0
   38.8110   33.2760   48.7530 C   0  0  0  0  0  0  0  0  0  0  0  0
   38.9540   32.6020   47.5650 N   0  0  0  0  0  0  0  0  0  0  0  0
   38.6000   31.3020   47.4450 C   0  0  0  0  0  0  0  0  0  0  0  0
   38.0950   30.6320   48.5040 N   0  0  0  0  0  0  0  0  0  0  0  0
   38.1650   33.1020   50.8070 H   0  0  0  0  0  0  0  0  0  0  0  0
   39.1060   34.3150   48.8080 H   0  0  0  0  0  0  0  0  0  0  0  0
   36.4710   30.3800   45.4140 Cl  0  0  0  0  0  0  0  0  0  0  0  0
   38.1460   30.6230   45.0170 C   0  0  0  0  0  0  0  0  0  0  0  0
   38.9160   31.0360   46.0670 C   0  0  0  0  0  0  0  0  0  0  0  0
   40.2640   31.2700   45.8540 C   0  0  0  0  0  0  0  0  0  0  0  0
   41.0920   31.6000   46.5040 H   0  0  0  0  0  0  0  0  0  0  0  0
   40.7930   31.0790   44.5760 C   0  0  0  0  0  0  0  0  0  0  0  0
   41.8240   31.2240   44.2670 H   0  0  0  0  0  0  0  0  0  0  0  0
   39.9400   30.6600   43.5700 C   0  0  0  0  0  0  0  0  0  0  0  0
   38.5980   30.4140   43.7350 C   0  0  0  0  0  0  0  0  0  0  0  0
   37.3820   30.5870   50.8770 C   0  0  1  0  0  0  0  0  0  0  0  0
   36.3310   29.5810   50.7440 C   0  0  2  0  0  0  0  0  0  0  0  0
   37.7350   29.0820   50.8740 C   0  0  0  0  0  0  0  0  0  0  0  0
   37.5720   31.0890   51.8610 H   0  0  0  0  0  0  0  0  0  0  0  0
   35.6160   29.5920   51.6200 H   0  0  0  0  0  0  0  0  0  0  0  0
   37.9580   28.6310   51.8700 H   0  0  0  0  0  0  0  0  0  0  0  0
   38.2400   28.6510   50.0100 H   0  0  0  0  0  0  0  0  0  0  0  0
   35.6890   29.4930   49.5140 O   0  0  0  0  0  0  0  0  0  0  0  0
   34.4690   29.9650   49.1470 C   0  0  0  0  0  0  0  0  0  0  0  0
   34.2880   30.4640   48.0000 O   0  0  0  0  0  0  0  0  0  0  0  0
   33.5820   29.7850   50.2130 N   0  0  0  0  0  0  0  0  0  0  0  0
   33.6940   30.4620   51.0110 H   0  0  0  0  0  0  0  0  0  0  0  0
   33.0920   28.9670   49.7790 H   0  0  0  0  0  0  0  0  0  0  0  0
  1  2  1  0  0  0  0
  1 18  1  0  0  0  0
  2  7  1  0  0  0  0
  3  8  1  0  0  0  0
  3  2  2  0  0  0  0
  4  3  1  0  0  0  0
  5  4  2  0  0  0  0
  5  6  1  0  0  0  0
  6  1  2  0  0  0  0
 10  9  1  0  0  0  0
 10 11  1  0  0  0  0
 11  5  1  0  0  0  0
 12 11  2  0  0  0  0
 12 13  1  0  0  0  0
 14 12  1  0  0  0  0
 15 14  1  0  0  0  0
 16 17  1  0  0  0  0
 16 14  2  0  0  0  0
 17 10  2  0  0  0  0
 18 21  1  1  0  0  0
 19 20  1  0  0  0  0
 19 18  1  0  0  0  0
 19 22  1  1  0  0  0
 20 18  1  0  0  0  0
 20 23  1  0  0  0  0
 24 20  1  0  0  0  0
 25 19  1  0  0  0  0
 26 25  1  0  0  0  0
 26 28  1  0  0  0  0
 27 26  2  0  0  0  0
 28 29  1  0  0  0  0
 30 28  1  0  0  0  0
M  END
>  <minimizedAffinity>
-6.22861385

>  <minimizedRMSD>
1.68619263

$$$$
