
 OpenBabel03262521143D

 31 33  0  0  0  0  0  0  0  0999 V2000
   37.4780   25.4680   32.7120 C   0  0  0  0  0  0  0  0  0  0  0  0
   36.3880   25.8030   31.9460 C   0  0  0  0  0  0  0  0  0  0  0  0
   35.8290   24.6890   31.4960 N   0  0  0  0  0  0  0  0  0  0  0  0
   36.5200   23.6280   31.9420 C   0  0  0  0  0  0  0  0  0  0  0  0
   37.5350   24.1230   32.6920 N   0  0  0  0  0  0  0  0  0  0  0  0
   36.1010   26.8250   31.7860 H   0  0  0  0  0  0  0  0  0  0  0  0
   34.9830   24.6030   30.8860 H   0  0  0  0  0  0  0  0  0  0  0  0
   38.5160   22.0950   30.2140 Cl  0  0  0  0  0  0  0  0  0  0  0  0
   37.0940   21.3840   30.9490 C   0  0  0  0  0  0  0  0  0  0  0  0
   36.2820   22.2030   31.7070 C   0  0  0  0  0  0  0  0  0  0  0  0
   35.1580   21.6460   32.2900 C   0  0  0  0  0  0  0  0  0  0  0  0
   34.4710   22.2170   32.8970 H   0  0  0  0  0  0  0  0  0  0  0  0
   34.8020   20.3300   32.1620 C   0  0  0  0  0  0  0  0  0  0  0  0
   33.9330   19.8830   32.6090 H   0  0  0  0  0  0  0  0  0  0  0  0
   35.6230   19.5010   31.3960 C   0  0  0  0  0  3  0  0  0  0  0  0
   36.7550   20.0360   30.8020 C   0  0  0  0  0  3  0  0  0  0  0  0
   38.3860   26.2880   33.3970 O   0  0  0  0  0  0  0  0  0  0  0  0
   36.9790   27.9160   34.8360 O   0  0  0  0  0  0  0  0  0  0  0  0
   37.9660   26.7610   34.9770 P   0  0  2  0  0  0  0  0  0  0  0  0
   39.3510   27.2450   35.8190 O   0  0  0  0  0  0  0  0  0  0  0  0
   39.1740   27.0810   36.7800 H   0  0  0  0  0  0  0  0  0  0  0  0
   37.3030   25.4280   35.8030 O   0  0  0  0  0  0  0  0  0  0  0  0
   38.1020   24.5740   36.5740 C   0  0  0  0  0  0  0  0  0  0  0  0
   37.9070   24.2440   37.9230 C   0  0  0  0  0  0  0  0  0  0  0  0
   38.8160   23.3790   38.4970 C   0  0  0  0  0  0  0  0  0  0  0  0
   39.8480   22.8830   37.7700 N   0  0  0  0  0  0  0  0  0  0  0  0
   40.0050   23.2290   36.4600 C   0  0  0  0  0  0  0  0  0  0  0  0
   39.1260   24.0800   35.8600 N   0  0  0  0  0  0  0  0  0  0  0  0
   37.0560   24.7060   38.3700 H   0  0  0  0  0  0  0  0  0  0  0  0
   38.6420   23.1400   39.5400 H   0  0  0  0  0  0  0  0  0  0  0  0
   40.8390   22.8250   35.8820 H   0  0  0  0  0  0  0  0  0  0  0  0
  1 17  1  0  0  0  0
  2  1  2  0  0  0  0
  3  4  1  0  0  0  0
  3  2  1  0  0  0  0
  4  5  2  0  0  0  0
  5  1  1  0  0  0  0
  6  2  1  0  0  0  0
  7  3  1  0  0  0  0
  8  9  1  0  0  0  0
  9 10  1  0  0  0  0
 10  4  1  0  0  0  0
 10 11  2  0  0  0  0
 11 12  1  0  0  0  0
 13 11  1  0  0  0  0
 13 14  1  0  0  0  0
 15 13  2  0  0  0  0
 16  9  2  0  0  0  0
 16 15  1  0  0  0  0
 17 19  1  0  0  0  0
 19 18  2  6  0  0  0
 19 22  1  0  0  0  0
 19 20  1  0  0  0  0
 20 21  1  0  0  0  0
 22 23  1  0  0  0  0
 23 24  1  0  0  0  0
 24 29  1  0  0  0  0
 24 25  2  0  0  0  0
 25 30  1  0  0  0  0
 26 25  1  0  0  0  0
 27 26  2  0  0  0  0
 28 27  1  0  0  0  0
 28 23  2  0  0  0  0
 31 27  1  0  0  0  0
M  END
>  <minimizedAffinity>
-5.85695267

$$$$

 OpenBabel03262521143D

 31 33  0  0  0  0  0  0  0  0999 V2000
   39.1080   24.0110   35.5400 C   0  0  0  0  0  0  0  0  0  0  0  0
   38.8320   23.1790   36.5970 C   0  0  0  0  0  0  0  0  0  0  0  0
   38.0970   22.1670   36.1570 N   0  0  0  0  0  0  0  0  0  0  0  0
   37.8790   22.3090   34.8400 C   0  0  0  0  0  0  0  0  0  0  0  0
   38.5090   23.4510   34.4710 N   0  0  0  0  0  0  0  0  0  0  0  0
   39.1900   23.3830   37.5880 H   0  0  0  0  0  0  0  0  0  0  0  0
   37.7230   21.3630   36.7140 H   0  0  0  0  0  0  0  0  0  0  0  0
   35.4320   20.8420   35.9290 Cl  0  0  0  0  0  0  0  0  0  0  0  0
   36.0030   20.7220   34.2770 C   0  0  0  0  0  0  0  0  0  0  0  0
   37.1270   21.4460   33.9280 C   0  0  0  0  0  0  0  0  0  0  0  0
   37.5810   21.3540   32.6260 C   0  0  0  0  0  0  0  0  0  0  0  0
   38.4520   21.8880   32.2720 H   0  0  0  0  0  0  0  0  0  0  0  0
   36.9850   20.5900   31.6590 C   0  0  0  0  0  0  0  0  0  0  0  0
   37.3270   20.5090   30.6430 H   0  0  0  0  0  0  0  0  0  0  0  0
   35.8490   19.8580   32.0100 C   0  0  0  0  0  3  0  0  0  0  0  0
   35.3750   19.9330   33.3090 C   0  0  0  0  0  3  0  0  0  0  0  0
   39.8440   25.2030   35.4990 O   0  0  0  0  0  0  0  0  0  0  0  0
   39.8220   27.2380   33.8990 O   0  0  0  0  0  0  0  0  0  0  0  0
   39.0130   26.6140   35.0320 P   0  0  2  0  0  0  0  0  0  0  0  0
   38.8910   27.6720   36.3470 O   0  0  0  0  0  0  0  0  0  0  0  0
   38.0780   28.2190   36.1990 H   0  0  0  0  0  0  0  0  0  0  0  0
   37.4310   26.2000   34.5580 O   0  0  0  0  0  0  0  0  0  0  0  0
   36.9000   26.6250   33.3330 C   0  0  0  0  0  0  0  0  0  0  0  0
   36.4830   27.9250   33.0130 C   0  0  0  0  0  0  0  0  0  0  0  0
   35.9870   28.1310   31.7420 C   0  0  0  0  0  0  0  0  0  0  0  0
   35.9120   27.1060   30.8560 N   0  0  0  0  0  0  0  0  0  0  0  0
   36.3280   25.8540   31.2060 C   0  0  0  0  0  0  0  0  0  0  0  0
   36.8240   25.6140   32.4530 N   0  0  0  0  0  0  0  0  0  0  0  0
   36.5980   28.6310   33.8030 H   0  0  0  0  0  0  0  0  0  0  0  0
   35.6720   29.1450   31.5200 H   0  0  0  0  0  0  0  0  0  0  0  0
   36.2650   25.0340   30.4880 H   0  0  0  0  0  0  0  0  0  0  0  0
  1  2  2  0  0  0  0
  2  6  1  0  0  0  0
  3  2  1  0  0  0  0
  3  7  1  0  0  0  0
  4  3  1  0  0  0  0
  5  4  2  0  0  0  0
  5  1  1  0  0  0  0
  9  8  1  0  0  0  0
 10  9  1  0  0  0  0
 10  4  1  0  0  0  0
 11 10  2  0  0  0  0
 12 11  1  0  0  0  0
 13 15  2  0  0  0  0
 13 11  1  0  0  0  0
 14 13  1  0  0  0  0
 15 16  1  0  0  0  0
 16  9  2  0  0  0  0
 17  1  1  0  0  0  0
 19 18  2  6  0  0  0
 19 17  1  0  0  0  0
 19 20  1  0  0  0  0
 21 20  1  0  0  0  0
 22 19  1  0  0  0  0
 23 22  1  0  0  0  0
 24 23  1  0  0  0  0
 24 29  1  0  0  0  0
 25 24  2  0  0  0  0
 26 27  2  0  0  0  0
 26 25  1  0  0  0  0
 27 28  1  0  0  0  0
 28 23  2  0  0  0  0
 30 25  1  0  0  0  0
 31 27  1  0  0  0  0
M  END
>  <minimizedAffinity>
-5.77082062

$$$$

 OpenBabel03262521143D

 31 33  0  0  0  0  0  0  0  0999 V2000
   37.8410   25.6180   36.1040 C   0  0  0  0  0  0  0  0  0  0  0  0
   38.5100   26.7760   36.4160 C   0  0  0  0  0  0  0  0  0  0  0  0
   38.4830   27.5770   35.3610 N   0  0  0  0  0  0  0  0  0  0  0  0
   37.8160   26.9800   34.3600 C   0  0  0  0  0  0  0  0  0  0  0  0
   37.4250   25.7710   34.8330 N   0  0  0  0  0  0  0  0  0  0  0  0
   38.9540   26.9320   37.3810 H   0  0  0  0  0  0  0  0  0  0  0  0
   38.9030   28.5330   35.2760 H   0  0  0  0  0  0  0  0  0  0  0  0
   35.5160   28.9550   34.0010 Cl  0  0  0  0  0  0  0  0  0  0  0  0
   36.5270   28.3670   32.6970 C   0  0  0  0  0  0  0  0  0  0  0  0
   37.5330   27.4740   33.0130 C   0  0  0  0  0  0  0  0  0  0  0  0
   38.3340   27.0080   31.9870 C   0  0  0  0  0  0  0  0  0  0  0  0
   39.1410   26.3080   32.1490 H   0  0  0  0  0  0  0  0  0  0  0  0
   38.1920   27.3770   30.6760 C   0  0  0  0  0  0  0  0  0  0  0  0
   38.8070   27.0230   29.8680 H   0  0  0  0  0  0  0  0  0  0  0  0
   37.1760   28.2800   30.3560 C   0  0  0  0  0  3  0  0  0  0  0  0
   36.3600   28.7620   31.3670 C   0  0  0  0  0  3  0  0  0  0  0  0
   37.6020   24.4770   36.8830 O   0  0  0  0  0  0  0  0  0  0  0  0
   37.9890   22.1160   35.8940 O   0  0  0  0  0  0  0  0  0  0  0  0
   38.6960   23.1830   36.7240 P   0  0  2  0  0  0  0  0  0  0  0  0
   39.1110   22.5890   38.2530 O   0  0  0  0  0  0  0  0  0  0  0  0
   40.0160   22.1940   38.1700 H   0  0  0  0  0  0  0  0  0  0  0  0
   40.1250   23.7470   35.9880 O   0  0  0  0  0  0  0  0  0  0  0  0
   41.3440   23.0750   36.1470 C   0  0  0  0  0  0  0  0  0  0  0  0
   42.6250   23.6300   36.0080 C   0  0  0  0  0  0  0  0  0  0  0  0
   43.6990   22.7890   36.2090 C   0  0  0  0  0  0  0  0  0  0  0  0
   43.5040   21.4840   36.5270 N   0  0  0  0  0  0  0  0  0  0  0  0
   42.2420   20.9820   36.6530 C   0  0  0  0  0  0  0  0  0  0  0  0
   41.1560   21.7830   36.4620 N   0  0  0  0  0  0  0  0  0  0  0  0
   42.6290   24.6650   35.7560 H   0  0  0  0  0  0  0  0  0  0  0  0
   44.6780   23.2420   36.0960 H   0  0  0  0  0  0  0  0  0  0  0  0
   42.0920   19.9310   36.9090 H   0  0  0  0  0  0  0  0  0  0  0  0
  1  2  2  0  0  0  0
  1 17  1  0  0  0  0
  2  6  1  0  0  0  0
  3  2  1  0  0  0  0
  4  5  2  0  0  0  0
  4  3  1  0  0  0  0
  5  1  1  0  0  0  0
  7  3  1  0  0  0  0
  9 10  1  0  0  0  0
  9  8  1  0  0  0  0
 10  4  1  0  0  0  0
 11 12  1  0  0  0  0
 11 10  2  0  0  0  0
 13 11  1  0  0  0  0
 14 13  1  0  0  0  0
 15 13  2  0  0  0  0
 15 16  1  0  0  0  0
 16  9  2  0  0  0  0
 19 18  2  6  0  0  0
 19 17  1  0  0  0  0
 19 20  1  0  0  0  0
 21 20  1  0  0  0  0
 22 23  1  0  0  0  0
 22 19  1  0  0  0  0
 23 28  1  0  0  0  0
 24 23  2  0  0  0  0
 24 25  1  0  0  0  0
 25 26  2  0  0  0  0
 26 27  1  0  0  0  0
 27 31  1  0  0  0  0
 28 27  2  0  0  0  0
 29 24  1  0  0  0  0
 30 25  1  0  0  0  0
M  END
>  <minimizedAffinity>
-5.31666994

$$$$

 OpenBabel03262521143D

 31 33  0  0  0  0  0  0  0  0999 V2000
   38.3410   25.5000   32.5240 C   0  0  0  0  0  0  0  0  0  0  0  0
   39.4080   26.2910   32.8710 C   0  0  0  0  0  0  0  0  0  0  0  0
   39.7690   25.9950   34.1110 N   0  0  0  0  0  0  0  0  0  0  0  0
   38.9690   25.0300   34.5930 C   0  0  0  0  0  0  0  0  0  0  0  0
   38.0920   24.7340   33.6030 N   0  0  0  0  0  0  0  0  0  0  0  0
   39.8260   27.0090   32.1910 H   0  0  0  0  0  0  0  0  0  0  0  0
   40.5480   26.4200   34.6660 H   0  0  0  0  0  0  0  0  0  0  0  0
   41.0220   22.8280   35.0980 Cl  0  0  0  0  0  0  0  0  0  0  0  0
   39.8520   23.3780   36.2800 C   0  0  0  0  0  0  0  0  0  0  0  0
   38.9840   24.3870   35.9070 C   0  0  0  0  0  0  0  0  0  0  0  0
   38.0580   24.8240   36.8360 C   0  0  0  0  0  0  0  0  0  0  0  0
   37.3440   25.6070   36.6250 H   0  0  0  0  0  0  0  0  0  0  0  0
   37.9500   24.3200   38.1050 C   0  0  0  0  0  0  0  0  0  0  0  0
   37.2360   24.6510   38.8380 H   0  0  0  0  0  0  0  0  0  0  0  0
   38.8260   23.3020   38.4820 C   0  0  0  0  0  3  0  0  0  0  0  0
   39.7630   22.8460   37.5690 C   0  0  0  0  0  3  0  0  0  0  0  0
   37.6110   25.4420   31.3280 O   0  0  0  0  0  0  0  0  0  0  0  0
   35.0280   25.4620   31.1590 O   0  0  0  0  0  0  0  0  0  0  0  0
   36.2190   26.4140   31.2190 P   0  0  2  0  0  0  0  0  0  0  0  0
   36.2970   27.3770   29.8290 O   0  0  0  0  0  0  0  0  0  0  0  0
   35.7630   28.1910   30.0150 H   0  0  0  0  0  0  0  0  0  0  0  0
   36.1590   27.4580   32.5630 O   0  0  0  0  0  0  0  0  0  0  0  0
   35.6710   28.7660   32.4520 C   0  0  0  0  0  0  0  0  0  0  0  0
   34.4550   29.2480   32.9590 C   0  0  0  0  0  0  0  0  0  0  0  0
   34.1650   30.5780   32.7380 C   0  0  0  0  0  0  0  0  0  0  0  0
   35.0300   31.3690   32.0550 N   0  0  0  0  0  0  0  0  0  0  0  0
   36.2040   30.8630   31.5770 C   0  0  0  0  0  0  0  0  0  0  0  0
   36.5240   29.5530   31.7770 N   0  0  0  0  0  0  0  0  0  0  0  0
   33.8740   28.5180   33.4740 H   0  0  0  0  0  0  0  0  0  0  0  0
   33.2190   30.9250   33.1400 H   0  0  0  0  0  0  0  0  0  0  0  0
   36.8950   31.5060   31.0280 H   0  0  0  0  0  0  0  0  0  0  0  0
  1  2  2  0  0  0  0
  1  5  1  0  0  0  0
  2  3  1  0  0  0  0
  3  4  1  0  0  0  0
  3  7  1  0  0  0  0
  4 10  1  0  0  0  0
  5  4  2  0  0  0  0
  6  2  1  0  0  0  0
  8  9  1  0  0  0  0
  9 16  1  0  0  0  0
 10  9  2  0  0  0  0
 10 11  1  0  0  0  0
 11 13  2  0  0  0  0
 12 11  1  0  0  0  0
 13 15  1  0  0  0  0
 13 14  1  0  0  0  0
 16 15  2  0  0  0  0
 17  1  1  0  0  0  0
 19 18  2  6  0  0  0
 19 17  1  0  0  0  0
 19 22  1  0  0  0  0
 20 21  1  0  0  0  0
 20 19  1  0  0  0  0
 23 22  1  0  0  0  0
 23 24  1  0  0  0  0
 24 29  1  0  0  0  0
 25 24  2  0  0  0  0
 25 30  1  0  0  0  0
 26 25  1  0  0  0  0
 27 28  1  0  0  0  0
 27 26  2  0  0  0  0
 28 23  2  0  0  0  0
 31 27  1  0  0  0  0
M  END
>  <minimizedAffinity>
-5.31324863

$$$$

 OpenBabel03262521143D

 31 33  0  0  0  0  0  0  0  0999 V2000
   42.4420   24.7910   35.2190 C   0  0  0  0  0  0  0  0  0  0  0  0
   43.0320   25.9310   34.7310 C   0  0  0  0  0  0  0  0  0  0  0  0
   42.0800   26.7830   34.3800 N   0  0  0  0  0  0  0  0  0  0  0  0
   40.8770   26.2370   34.6210 C   0  0  0  0  0  0  0  0  0  0  0  0
   41.1150   25.0070   35.1390 N   0  0  0  0  0  0  0  0  0  0  0  0
   44.0990   26.0380   34.6760 H   0  0  0  0  0  0  0  0  0  0  0  0
   42.2000   27.7410   33.9750 H   0  0  0  0  0  0  0  0  0  0  0  0
   39.8420   26.3940   31.7530 Cl  0  0  0  0  0  0  0  0  0  0  0  0
   38.9460   26.9330   33.1590 C   0  0  0  0  0  0  0  0  0  0  0  0
   39.5440   26.7980   34.3960 C   0  0  0  0  0  0  0  0  0  0  0  0
   38.8410   27.2210   35.5090 C   0  0  0  0  0  0  0  0  0  0  0  0
   39.2370   27.1520   36.5120 H   0  0  0  0  0  0  0  0  0  0  0  0
   37.5860   27.7660   35.4590 C   0  0  0  0  0  0  0  0  0  0  0  0
   37.0270   28.1000   36.3150 H   0  0  0  0  0  0  0  0  0  0  0  0
   36.9800   27.9020   34.2090 C   0  0  0  0  0  3  0  0  0  0  0  0
   37.6640   27.4850   33.0790 C   0  0  0  0  0  3  0  0  0  0  0  0
   43.0230   23.6130   35.7100 O   0  0  0  0  0  0  0  0  0  0  0  0
   43.4960   21.1970   34.9110 O   0  0  0  0  0  0  0  0  0  0  0  0
   42.3340   22.1390   35.2100 P   0  0  2  0  0  0  0  0  0  0  0  0
   41.3820   22.3860   33.8330 O   0  0  0  0  0  0  0  0  0  0  0  0
   40.6840   21.6830   33.8380 H   0  0  0  0  0  0  0  0  0  0  0  0
   41.3140   21.5530   36.4410 O   0  0  0  0  0  0  0  0  0  0  0  0
   40.0810   22.1580   36.7180 C   0  0  0  0  0  0  0  0  0  0  0  0
   39.7540   22.8950   37.8660 C   0  0  0  0  0  0  0  0  0  0  0  0
   38.4760   23.4080   37.9410 C   0  0  0  0  0  0  0  0  0  0  0  0
   37.5870   23.1950   36.9380 N   0  0  0  0  0  0  0  0  0  0  0  0
   37.9430   22.4710   35.8370 C   0  0  0  0  0  0  0  0  0  0  0  0
   39.1980   21.9500   35.7280 N   0  0  0  0  0  0  0  0  0  0  0  0
   40.5480   22.9830   38.5720 H   0  0  0  0  0  0  0  0  0  0  0  0
   38.2490   23.9740   38.8370 H   0  0  0  0  0  0  0  0  0  0  0  0
   37.2220   22.3040   35.0340 H   0  0  0  0  0  0  0  0  0  0  0  0
  1 17  1  0  0  0  0
  2  1  2  0  0  0  0
  3  4  1  0  0  0  0
  3  2  1  0  0  0  0
  4  5  2  0  0  0  0
  5  1  1  0  0  0  0
  6  2  1  0  0  0  0
  7  3  1  0  0  0  0
  8  9  1  0  0  0  0
  9 10  1  0  0  0  0
 10  4  1  0  0  0  0
 10 11  2  0  0  0  0
 11 12  1  0  0  0  0
 13 11  1  0  0  0  0
 13 14  1  0  0  0  0
 15 13  2  0  0  0  0
 16  9  2  0  0  0  0
 16 15  1  0  0  0  0
 19 18  2  6  0  0  0
 19 17  1  0  0  0  0
 19 22  1  0  0  0  0
 20 21  1  0  0  0  0
 20 19  1  0  0  0  0
 22 23  1  0  0  0  0
 23 24  1  0  0  0  0
 24 25  2  0  0  0  0
 24 29  1  0  0  0  0
 25 30  1  0  0  0  0
 26 25  1  0  0  0  0
 27 26  2  0  0  0  0
 28 27  1  0  0  0  0
 28 23  2  0  0  0  0
 31 27  1  0  0  0  0
M  END
>  <minimizedAffinity>
-5.25020075

$$$$

 OpenBabel03262521143D

 31 33  0  0  0  0  0  0  0  0999 V2000
   36.2580   29.2980   32.2810 C   0  0  0  0  0  0  0  0  0  0  0  0
   35.2890   29.9560   31.5640 C   0  0  0  0  0  0  0  0  0  0  0  0
   34.4280   30.4950   32.4140 N   0  0  0  0  0  0  0  0  0  0  0  0
   34.8000   30.2100   33.6730 C   0  0  0  0  0  0  0  0  0  0  0  0
   35.9320   29.4710   33.5760 N   0  0  0  0  0  0  0  0  0  0  0  0
   35.2980   29.9850   30.4910 H   0  0  0  0  0  0  0  0  0  0  0  0
   33.5760   31.0610   32.1860 H   0  0  0  0  0  0  0  0  0  0  0  0
   36.1760   32.3050   35.4170 Cl  0  0  0  0  0  0  0  0  0  0  0  0
   34.6660   31.5170   35.8240 C   0  0  0  0  0  0  0  0  0  0  0  0
   34.1620   30.5880   34.9340 C   0  0  0  0  0  0  0  0  0  0  0  0
   32.9700   29.9640   35.2520 C   0  0  0  0  0  0  0  0  0  0  0  0
   32.5090   29.2250   34.6110 H   0  0  0  0  0  0  0  0  0  0  0  0
   32.2570   30.2110   36.3940 C   0  0  0  0  0  0  0  0  0  0  0  0
   31.3290   29.7340   36.6540 H   0  0  0  0  0  0  0  0  0  0  0  0
   32.7650   31.1500   37.2930 C   0  0  0  0  0  3  0  0  0  0  0  0
   33.9580   31.7890   36.9980 C   0  0  0  0  0  3  0  0  0  0  0  0
   37.3760   28.5780   31.8360 O   0  0  0  0  0  0  0  0  0  0  0  0
   38.4710   26.4320   30.8900 O   0  0  0  0  0  0  0  0  0  0  0  0
   37.1250   26.9580   31.3780 P   0  0  2  0  0  0  0  0  0  0  0  0
   35.9610   26.8810   30.1520 O   0  0  0  0  0  0  0  0  0  0  0  0
   35.5290   25.9920   30.2240 H   0  0  0  0  0  0  0  0  0  0  0  0
   36.5240   26.0870   32.7120 O   0  0  0  0  0  0  0  0  0  0  0  0
   37.3290   25.8000   33.8210 C   0  0  0  0  0  0  0  0  0  0  0  0
   37.5410   26.6300   34.9330 C   0  0  0  0  0  0  0  0  0  0  0  0
   38.3760   26.1540   35.9220 C   0  0  0  0  0  0  0  0  0  0  0  0
   38.9580   24.9340   35.8060 N   0  0  0  0  0  0  0  0  0  0  0  0
   38.7270   24.1560   34.7090 C   0  0  0  0  0  0  0  0  0  0  0  0
   37.9070   24.5940   33.7110 N   0  0  0  0  0  0  0  0  0  0  0  0
   37.0210   27.5600   34.8920 H   0  0  0  0  0  0  0  0  0  0  0  0
   38.5230   26.8140   36.7700 H   0  0  0  0  0  0  0  0  0  0  0  0
   39.1990   23.1750   34.6220 H   0  0  0  0  0  0  0  0  0  0  0  0
  1  5  1  0  0  0  0
  2  1  2  0  0  0  0
  2  3  1  0  0  0  0
  3  4  1  0  0  0  0
  4 10  1  0  0  0  0
  5  4  2  0  0  0  0
  6  2  1  0  0  0  0
  7  3  1  0  0  0  0
  8  9  1  0  0  0  0
  9 16  1  0  0  0  0
 10 11  1  0  0  0  0
 10  9  2  0  0  0  0
 11 13  2  0  0  0  0
 12 11  1  0  0  0  0
 13 14  1  0  0  0  0
 13 15  1  0  0  0  0
 16 15  2  0  0  0  0
 17  1  1  0  0  0  0
 19 18  2  6  0  0  0
 19 17  1  0  0  0  0
 19 22  1  0  0  0  0
 20 21  1  0  0  0  0
 20 19  1  0  0  0  0
 22 23  1  0  0  0  0
 23 24  1  0  0  0  0
 24 25  2  0  0  0  0
 25 30  1  0  0  0  0
 26 25  1  0  0  0  0
 27 26  2  0  0  0  0
 28 23  2  0  0  0  0
 28 27  1  0  0  0  0
 29 24  1  0  0  0  0
 31 27  1  0  0  0  0
M  END
>  <minimizedAffinity>
-5.24043131

$$$$

 OpenBabel03262521143D

 31 33  0  0  0  0  0  0  0  0999 V2000
   37.8330   25.6150   35.7770 C   0  0  0  0  0  0  0  0  0  0  0  0
   38.3610   26.7330   36.3760 C   0  0  0  0  0  0  0  0  0  0  0  0
   38.0060   27.7970   35.6710 N   0  0  0  0  0  0  0  0  0  0  0  0
   37.2600   27.4140   34.6230 C   0  0  0  0  0  0  0  0  0  0  0  0
   37.1600   26.0650   34.7010 N   0  0  0  0  0  0  0  0  0  0  0  0
   38.9540   26.6710   37.2690 H   0  0  0  0  0  0  0  0  0  0  0  0
   38.2480   28.7980   35.8650 H   0  0  0  0  0  0  0  0  0  0  0  0
   38.4460   27.2860   31.8130 Cl  0  0  0  0  0  0  0  0  0  0  0  0
   37.0740   28.2780   32.2620 C   0  0  0  0  0  0  0  0  0  0  0  0
   36.6470   28.2320   33.5750 C   0  0  0  0  0  0  0  0  0  0  0  0
   35.5640   29.0120   33.9350 C   0  0  0  0  0  0  0  0  0  0  0  0
   35.1680   29.0350   34.9400 H   0  0  0  0  0  0  0  0  0  0  0  0
   34.8880   29.8280   33.0680 C   0  0  0  0  0  0  0  0  0  0  0  0
   34.0440   30.4400   33.3330 H   0  0  0  0  0  0  0  0  0  0  0  0
   35.3170   29.8750   31.7410 C   0  0  0  0  0  3  0  0  0  0  0  0
   36.4010   29.1010   31.3560 C   0  0  0  0  0  3  0  0  0  0  0  0
   37.9290   24.2650   36.1430 O   0  0  0  0  0  0  0  0  0  0  0  0
   40.2060   23.0760   36.4600 O   0  0  0  0  0  0  0  0  0  0  0  0
   39.1480   23.3420   35.3940 P   0  0  2  0  0  0  0  0  0  0  0  0
   39.8010   24.2000   34.0900 O   0  0  0  0  0  0  0  0  0  0  0  0
   40.1390   23.5280   33.4460 H   0  0  0  0  0  0  0  0  0  0  0  0
   38.4650   21.9110   34.7750 O   0  0  0  0  0  0  0  0  0  0  0  0
   37.4090   21.9420   33.8550 C   0  0  0  0  0  0  0  0  0  0  0  0
   36.3290   21.0480   33.7950 C   0  0  0  0  0  0  0  0  0  0  0  0
   35.3930   21.2600   32.8050 C   0  0  0  0  0  0  0  0  0  0  0  0
   35.5290   22.2920   31.9350 N   0  0  0  0  0  0  0  0  0  0  0  0
   36.5940   23.1410   32.0260 C   0  0  0  0  0  0  0  0  0  0  0  0
   37.5390   22.9630   32.9920 N   0  0  0  0  0  0  0  0  0  0  0  0
   36.3490   20.2850   34.5390 H   0  0  0  0  0  0  0  0  0  0  0  0
   34.5690   20.5550   32.7800 H   0  0  0  0  0  0  0  0  0  0  0  0
   36.6970   23.9700   31.3230 H   0  0  0  0  0  0  0  0  0  0  0  0
  1 17  1  0  0  0  0
  1  2  2  0  0  0  0
  2  6  1  0  0  0  0
  3  7  1  0  0  0  0
  3  2  1  0  0  0  0
  4  5  2  0  0  0  0
  4  3  1  0  0  0  0
  5  1  1  0  0  0  0
  8  9  1  0  0  0  0
  9 10  1  0  0  0  0
 10 11  2  0  0  0  0
 10  4  1  0  0  0  0
 11 12  1  0  0  0  0
 13 14  1  0  0  0  0
 13 11  1  0  0  0  0
 15 13  2  0  0  0  0
 16 15  1  0  0  0  0
 16  9  2  0  0  0  0
 19 17  1  0  0  0  0
 19 18  2  1  0  0  0
 20 19  1  0  0  0  0
 21 20  1  0  0  0  0
 22 19  1  0  0  0  0
 23 22  1  0  0  0  0
 24 23  1  0  0  0  0
 24 29  1  0  0  0  0
 25 24  2  0  0  0  0
 26 27  2  0  0  0  0
 26 25  1  0  0  0  0
 27 28  1  0  0  0  0
 28 23  2  0  0  0  0
 30 25  1  0  0  0  0
 31 27  1  0  0  0  0
M  END
>  <minimizedAffinity>
-5.22063208

$$$$

 OpenBabel03262521143D

 31 33  0  0  0  0  0  0  0  0999 V2000
   37.6210   26.2670   33.9010 C   0  0  0  0  0  0  0  0  0  0  0  0
   38.2470   27.2100   34.6780 C   0  0  0  0  0  0  0  0  0  0  0  0
   39.0490   26.5900   35.5310 N   0  0  0  0  0  0  0  0  0  0  0  0
   38.9700   25.2630   35.3400 C   0  0  0  0  0  0  0  0  0  0  0  0
   38.0850   25.0780   34.3300 N   0  0  0  0  0  0  0  0  0  0  0  0
   38.0640   28.2600   34.5530 H   0  0  0  0  0  0  0  0  0  0  0  0
   39.6650   27.0260   36.2580 H   0  0  0  0  0  0  0  0  0  0  0  0
   37.7190   24.1570   37.8960 Cl  0  0  0  0  0  0  0  0  0  0  0  0
   39.2240   23.5870   37.2050 C   0  0  0  0  0  0  0  0  0  0  0  0
   39.6660   24.1840   36.0400 C   0  0  0  0  0  0  0  0  0  0  0  0
   40.8530   23.7370   35.4900 C   0  0  0  0  0  0  0  0  0  0  0  0
   41.2690   24.1500   34.5830 H   0  0  0  0  0  0  0  0  0  0  0  0
   41.6180   22.7360   36.0290 C   0  0  0  0  0  0  0  0  0  0  0  0
   42.5420   22.3780   35.6120 H   0  0  0  0  0  0  0  0  0  0  0  0
   41.1710   22.1310   37.2040 C   0  0  0  0  0  3  0  0  0  0  0  0
   39.9840   22.5620   37.7750 C   0  0  0  0  0  3  0  0  0  0  0  0
   36.6890   26.4250   32.8660 O   0  0  0  0  0  0  0  0  0  0  0  0
   38.1500   27.8920   31.3110 O   0  0  0  0  0  0  0  0  0  0  0  0
   37.3020   26.6230   31.2910 P   0  0  2  0  0  0  0  0  0  0  0  0
   36.0250   26.7630   30.1890 O   0  0  0  0  0  0  0  0  0  0  0  0
   36.3620   26.4340   29.3170 H   0  0  0  0  0  0  0  0  0  0  0  0
   38.1990   25.2410   30.8620 O   0  0  0  0  0  0  0  0  0  0  0  0
   37.6480   23.9560   30.9450 C   0  0  0  0  0  0  0  0  0  0  0  0
   38.3560   22.7450   30.9700 C   0  0  0  0  0  0  0  0  0  0  0  0
   37.6150   21.5850   31.0560 C   0  0  0  0  0  0  0  0  0  0  0  0
   36.2600   21.6340   31.1110 N   0  0  0  0  0  0  0  0  0  0  0  0
   35.6070   22.8320   31.0840 C   0  0  0  0  0  0  0  0  0  0  0  0
   36.3070   23.9990   31.0010 N   0  0  0  0  0  0  0  0  0  0  0  0
   39.4150   22.8550   30.9190 H   0  0  0  0  0  0  0  0  0  0  0  0
   38.1870   20.6630   31.0730 H   0  0  0  0  0  0  0  0  0  0  0  0
   34.5170   22.8640   31.1300 H   0  0  0  0  0  0  0  0  0  0  0  0
  1  5  1  0  0  0  0
  1  2  2  0  0  0  0
  2  3  1  0  0  0  0
  3  7  1  0  0  0  0
  4  3  1  0  0  0  0
  4 10  1  0  0  0  0
  5  4  2  0  0  0  0
  6  2  1  0  0  0  0
  9 16  1  0  0  0  0
  9  8  1  0  0  0  0
 10  9  2  0  0  0  0
 11 13  2  0  0  0  0
 11 10  1  0  0  0  0
 12 11  1  0  0  0  0
 13 15  1  0  0  0  0
 14 13  1  0  0  0  0
 15 16  2  0  0  0  0
 17  1  1  0  0  0  0
 19 18  2  6  0  0  0
 19 17  1  0  0  0  0
 20 19  1  0  0  0  0
 21 20  1  0  0  0  0
 22 23  1  0  0  0  0
 22 19  1  0  0  0  0
 23 24  2  0  0  0  0
 23 28  1  0  0  0  0
 24 25  1  0  0  0  0
 25 30  1  0  0  0  0
 25 26  2  0  0  0  0
 27 26  1  0  0  0  0
 27 31  1  0  0  0  0
 28 27  2  0  0  0  0
 29 24  1  0  0  0  0
M  END
>  <minimizedAffinity>
-5.17589474

$$$$

 OpenBabel03262521143D

 31 33  0  0  0  0  0  0  0  0999 V2000
   36.4890   27.7400   32.7490 C   0  0  0  0  0  0  0  0  0  0  0  0
   36.2020   28.6950   31.8050 C   0  0  0  0  0  0  0  0  0  0  0  0
   35.6450   29.7340   32.4110 N   0  0  0  0  0  0  0  0  0  0  0  0
   35.5550   29.4900   33.7290 C   0  0  0  0  0  0  0  0  0  0  0  0
   36.0800   28.2560   33.9230 N   0  0  0  0  0  0  0  0  0  0  0  0
   36.4240   28.5500   30.7650 H   0  0  0  0  0  0  0  0  0  0  0  0
   35.3120   30.6240   31.9720 H   0  0  0  0  0  0  0  0  0  0  0  0
   32.5730   29.2940   34.3560 Cl  0  0  0  0  0  0  0  0  0  0  0  0
   33.6900   30.3590   35.1850 C   0  0  0  0  0  0  0  0  0  0  0  0
   35.0140   30.3380   34.7920 C   0  0  0  0  0  0  0  0  0  0  0  0
   35.8990   31.1770   35.4430 C   0  0  0  0  0  0  0  0  0  0  0  0
   36.9500   31.2220   35.1970 H   0  0  0  0  0  0  0  0  0  0  0  0
   35.5440   32.0260   36.4560 C   0  0  0  0  0  0  0  0  0  0  0  0
   36.2200   32.6840   36.9720 H   0  0  0  0  0  0  0  0  0  0  0  0
   34.2060   32.0470   36.8550 C   0  0  0  0  0  3  0  0  0  0  0  0
   33.3000   31.2160   36.2170 C   0  0  0  0  0  3  0  0  0  0  0  0
   37.0770   26.4760   32.6020 O   0  0  0  0  0  0  0  0  0  0  0  0
   39.3940   27.4620   32.0040 O   0  0  0  0  0  0  0  0  0  0  0  0
   38.7570   26.3660   32.8520 P   0  0  2  0  0  0  0  0  0  0  0  0
   39.3100   24.8370   32.3840 O   0  0  0  0  0  0  0  0  0  0  0  0
   40.1190   24.6480   32.9240 H   0  0  0  0  0  0  0  0  0  0  0  0
   39.0880   26.5450   34.5130 O   0  0  0  0  0  0  0  0  0  0  0  0
   38.9840   25.4660   35.4000 C   0  0  0  0  0  0  0  0  0  0  0  0
   37.9720   25.2640   36.3510 C   0  0  0  0  0  0  0  0  0  0  0  0
   38.0580   24.1290   37.1290 C   0  0  0  0  0  0  0  0  0  0  0  0
   39.0860   23.2580   36.9670 N   0  0  0  0  0  0  0  0  0  0  0  0
   40.0510   23.4890   36.0310 C   0  0  0  0  0  0  0  0  0  0  0  0
   39.9980   24.6010   35.2430 N   0  0  0  0  0  0  0  0  0  0  0  0
   37.2280   26.0280   36.3690 H   0  0  0  0  0  0  0  0  0  0  0  0
   37.2640   23.9970   37.8560 H   0  0  0  0  0  0  0  0  0  0  0  0
   40.8750   22.7830   35.9060 H   0  0  0  0  0  0  0  0  0  0  0  0
  1  5  1  0  0  0  0
  2  3  1  0  0  0  0
  2  1  2  0  0  0  0
  3  4  1  0  0  0  0
  4  5  2  0  0  0  0
  4 10  1  0  0  0  0
  6  2  1  0  0  0  0
  7  3  1  0  0  0  0
  8  9  1  0  0  0  0
  9 16  1  0  0  0  0
 10  9  2  0  0  0  0
 10 11  1  0  0  0  0
 11 13  2  0  0  0  0
 12 11  1  0  0  0  0
 13 15  1  0  0  0  0
 13 14  1  0  0  0  0
 16 15  2  0  0  0  0
 17  1  1  0  0  0  0
 17 19  1  0  0  0  0
 19 18  2  6  0  0  0
 19 22  1  0  0  0  0
 20 19  1  0  0  0  0
 20 21  1  0  0  0  0
 22 23  1  0  0  0  0
 23 24  1  0  0  0  0
 24 29  1  0  0  0  0
 24 25  2  0  0  0  0
 25 30  1  0  0  0  0
 26 25  1  0  0  0  0
 27 26  2  0  0  0  0
 28 23  2  0  0  0  0
 28 27  1  0  0  0  0
 31 27  1  0  0  0  0
M  END
>  <minimizedAffinity>
-5.17553568

$$$$
