
 OpenBabel03272510183D

 28 30  0  0  0  0  0  0  0  0999 V2000
   37.3020   29.0280   29.9130 Br  0  0  0  0  0  0  0  0  0  0  0  0
   36.3910   29.5350   31.5190 C   0  0  0  0  0  0  0  0  0  0  0  0
   35.9710   28.5800   32.4330 C   0  0  0  0  0  0  0  0  0  0  0  0
   35.3260   29.0310   33.5560 C   0  0  0  0  0  0  0  0  0  0  0  0
   35.0800   30.3760   33.8160 C   0  0  0  0  0  0  0  0  0  0  0  0
   35.5150   31.2800   32.8840 C   0  0  0  0  0  0  0  0  0  0  0  0
   36.1660   30.8580   31.7430 C   0  0  0  0  0  0  0  0  0  0  0  0
   35.0080   28.2510   34.2550 H   0  0  0  0  0  0  0  0  0  0  0  0
   35.3580   32.3410   33.0200 H   0  0  0  0  0  0  0  0  0  0  0  0
   36.4950   31.5970   31.0300 H   0  0  0  0  0  0  0  0  0  0  0  0
   37.5160   25.2880   32.6180 C   0  0  0  0  0  0  0  0  0  0  0  0
   36.7220   24.4860   31.7630 C   0  0  0  0  0  0  0  0  0  0  0  0
   35.6510   25.1010   31.1260 C   0  0  0  0  0  0  0  0  0  0  0  0
   35.4150   26.4390   31.3510 N   0  0  0  0  0  0  0  0  0  0  0  0
   36.2140   27.1600   32.1870 C   0  0  0  0  0  0  0  0  0  0  0  0
   37.2540   26.5830   32.8120 N   0  0  0  0  0  0  0  0  0  0  0  0
   38.3440   24.7850   33.1020 H   0  0  0  0  0  0  0  0  0  0  0  0
   36.9600   23.4410   31.6260 H   0  0  0  0  0  0  0  0  0  0  0  0
   35.0210   24.5240   30.4640 H   0  0  0  0  0  0  0  0  0  0  0  0
   36.5260   32.3080   35.6890 Cl  0  0  0  0  0  0  0  0  0  0  0  0
   34.9440   31.6420   35.9500 C   0  0  0  0  0  0  0  0  0  0  0  0
   34.3880   30.7770   35.0360 C   0  0  0  0  0  0  0  0  0  0  0  0
   33.1140   30.2740   35.2980 C   0  0  0  0  0  0  0  0  0  0  0  0
   32.6700   29.5830   34.5680 H   0  0  0  0  0  0  0  0  0  0  0  0
   32.3890   30.5980   36.4220 C   0  0  0  0  0  0  0  0  0  0  0  0
   31.4030   30.2050   36.6210 H   0  0  0  0  0  0  0  0  0  0  0  0
   32.9960   31.4710   37.3050 C   0  0  0  0  0  3  0  0  0  0  0  0
   34.2520   32.0070   37.1100 C   0  0  0  0  0  3  0  0  0  0  0  0
  1  2  1  0  0  0  0
  2  7  2  0  0  0  0
  2  3  1  0  0  0  0
  3  4  2  0  0  0  0
  4  5  1  0  0  0  0
  4  8  1  0  0  0  0
  5 22  1  0  0  0  0
  6  9  1  0  0  0  0
  6  5  2  0  0  0  0
  7  6  1  0  0  0  0
 10  7  1  0  0  0  0
 11 16  1  0  0  0  0
 11 17  1  0  0  0  0
 12 11  2  0  0  0  0
 13 14  2  0  0  0  0
 13 12  1  0  0  0  0
 14 15  1  0  0  0  0
 15  3  1  0  0  0  0
 15 16  2  0  0  0  0
 18 12  1  0  0  0  0
 19 13  1  0  0  0  0
 20 21  1  0  0  0  0
 21 28  1  0  0  0  0
 22 23  1  0  0  0  0
 22 21  2  0  0  0  0
 23 25  2  0  0  0  0
 24 23  1  0  0  0  0
 25 26  1  0  0  0  0
 25 27  1  0  0  0  0
 28 27  2  0  0  0  0
M  END
>  <minimizedAffinity>
-5.68564749

$$$$

 OpenBabel03272510183D

 28 30  0  0  0  0  0  0  0  0999 V2000
   37.3120   28.6760   29.5840 Br  0  0  0  0  0  0  0  0  0  0  0  0
   36.5200   29.3170   31.2050 C   0  0  0  0  0  0  0  0  0  0  0  0
   36.0900   28.4360   32.1870 C   0  0  0  0  0  0  0  0  0  0  0  0
   35.5340   28.9810   33.3160 C   0  0  0  0  0  0  0  0  0  0  0  0
   35.3850   30.3500   33.5180 C   0  0  0  0  0  0  0  0  0  0  0  0
   35.8260   31.1790   32.5200 C   0  0  0  0  0  0  0  0  0  0  0  0
   36.3880   30.6610   31.3720 C   0  0  0  0  0  0  0  0  0  0  0  0
   35.2070   28.2580   34.0690 H   0  0  0  0  0  0  0  0  0  0  0  0
   35.7410   32.2530   32.6090 H   0  0  0  0  0  0  0  0  0  0  0  0
   36.7240   31.3420   30.6060 H   0  0  0  0  0  0  0  0  0  0  0  0
   37.4490   25.0680   32.4500 C   0  0  0  0  0  0  0  0  0  0  0  0
   36.5540   24.2750   31.6920 C   0  0  0  0  0  0  0  0  0  0  0  0
   35.4800   24.9220   31.0930 C   0  0  0  0  0  0  0  0  0  0  0  0
   35.3380   26.2830   31.2610 N   0  0  0  0  0  0  0  0  0  0  0  0
   36.2330   26.9930   32.0030 C   0  0  0  0  0  0  0  0  0  0  0  0
   37.2770   26.3850   32.5900 N   0  0  0  0  0  0  0  0  0  0  0  0
   38.2770   24.5390   32.9050 H   0  0  0  0  0  0  0  0  0  0  0  0
   36.7200   23.2120   31.5970 H   0  0  0  0  0  0  0  0  0  0  0  0
   34.7730   24.3530   30.5050 H   0  0  0  0  0  0  0  0  0  0  0  0
   32.3940   29.8780   33.9230 Cl  0  0  0  0  0  0  0  0  0  0  0  0
   33.4470   30.6970   35.0340 C   0  0  0  0  0  0  0  0  0  0  0  0
   34.7840   30.8530   34.7480 C   0  0  0  0  0  0  0  0  0  0  0  0
   35.5810   31.5200   35.6780 C   0  0  0  0  0  0  0  0  0  0  0  0
   36.6490   31.6450   35.4490 H   0  0  0  0  0  0  0  0  0  0  0  0
   35.0990   32.0270   36.8630 C   0  0  0  0  0  0  0  0  0  0  0  0
   35.7210   32.5430   37.5800 H   0  0  0  0  0  0  0  0  0  0  0  0
   33.7500   31.8410   37.0980 C   0  0  0  0  0  3  0  0  0  0  0  0
   32.9020   31.1920   36.2240 C   0  0  0  0  0  3  0  0  0  0  0  0
  1  2  1  0  0  0  0
  2  7  2  0  0  0  0
  2  3  1  0  0  0  0
  3  4  2  0  0  0  0
  4  5  1  0  0  0  0
  4  8  1  0  0  0  0
  5 22  1  0  0  0  0
  6  9  1  0  0  0  0
  6  5  2  0  0  0  0
  7  6  1  0  0  0  0
 10  7  1  0  0  0  0
 11 16  1  0  0  0  0
 11 17  1  0  0  0  0
 12 11  2  0  0  0  0
 13 14  2  0  0  0  0
 13 12  1  0  0  0  0
 14 15  1  0  0  0  0
 15  3  1  0  0  0  0
 15 16  2  0  0  0  0
 18 12  1  0  0  0  0
 19 13  1  0  0  0  0
 20 21  1  0  0  0  0
 21 28  1  0  0  0  0
 22 21  2  0  0  0  0
 22 23  1  0  0  0  0
 23 25  2  0  0  0  0
 24 23  1  0  0  0  0
 25 27  1  0  0  0  0
 25 26  1  0  0  0  0
 28 27  2  0  0  0  0
M  END
>  <minimizedAffinity>
-5.67549133

$$$$

 OpenBabel03272510183D

 28 30  0  0  0  0  0  0  0  0999 V2000
   37.6030   26.9080   31.1280 Br  0  0  0  0  0  0  0  0  0  0  0  0
   36.7650   28.0370   32.4270 C   0  0  0  0  0  0  0  0  0  0  0  0
   37.0340   27.8900   33.7800 C   0  0  0  0  0  0  0  0  0  0  0  0
   36.3910   28.7410   34.6420 C   0  0  0  0  0  0  0  0  0  0  0  0
   35.4990   29.7260   34.2290 C   0  0  0  0  0  0  0  0  0  0  0  0
   35.2670   29.8330   32.8830 C   0  0  0  0  0  0  0  0  0  0  0  0
   35.8990   28.9910   31.9920 C   0  0  0  0  0  0  0  0  0  0  0  0
   36.6260   28.5980   35.7010 H   0  0  0  0  0  0  0  0  0  0  0  0
   34.5860   30.5750   32.4920 H   0  0  0  0  0  0  0  0  0  0  0  0
   35.6930   29.1010   30.9380 H   0  0  0  0  0  0  0  0  0  0  0  0
   40.1440   26.3050   34.8200 C   0  0  0  0  0  0  0  0  0  0  0  0
   39.7690   24.9730   35.1160 C   0  0  0  0  0  0  0  0  0  0  0  0
   38.4320   24.6350   34.9510 C   0  0  0  0  0  0  0  0  0  0  0  0
   37.5460   25.5960   34.5130 N   0  0  0  0  0  0  0  0  0  0  0  0
   37.9670   26.8640   34.2440 C   0  0  0  0  0  0  0  0  0  0  0  0
   39.2560   27.2090   34.3990 N   0  0  0  0  0  0  0  0  0  0  0  0
   41.1920   26.5420   34.9570 H   0  0  0  0  0  0  0  0  0  0  0  0
   40.5110   24.2640   35.4550 H   0  0  0  0  0  0  0  0  0  0  0  0
   38.1040   23.6270   35.1660 H   0  0  0  0  0  0  0  0  0  0  0  0
   32.5290   29.2700   34.7800 Cl  0  0  0  0  0  0  0  0  0  0  0  0
   33.5220   30.4780   35.5340 C   0  0  0  0  0  0  0  0  0  0  0  0
   34.8540   30.5950   35.2080 C   0  0  0  0  0  0  0  0  0  0  0  0
   35.6020   31.5840   35.8450 C   0  0  0  0  0  0  0  0  0  0  0  0
   36.6660   31.6770   35.5850 H   0  0  0  0  0  0  0  0  0  0  0  0
   35.0760   32.4460   36.7800 C   0  0  0  0  0  0  0  0  0  0  0  0
   35.6600   33.2110   37.2700 H   0  0  0  0  0  0  0  0  0  0  0  0
   33.7340   32.2830   37.0680 C   0  0  0  0  0  3  0  0  0  0  0  0
   32.9340   31.3280   36.4770 C   0  0  0  0  0  3  0  0  0  0  0  0
  1  2  1  0  0  0  0
  2  3  1  0  0  0  0
  3 15  1  0  0  0  0
  3  4  2  0  0  0  0
  4  8  1  0  0  0  0
  5  4  1  0  0  0  0
  5 22  1  0  0  0  0
  6  5  2  0  0  0  0
  7  2  2  0  0  0  0
  7  6  1  0  0  0  0
  9  6  1  0  0  0  0
 10  7  1  0  0  0  0
 11 17  1  0  0  0  0
 11 12  1  0  0  0  0
 12 18  1  0  0  0  0
 13 12  2  0  0  0  0
 13 19  1  0  0  0  0
 14 13  1  0  0  0  0
 15 16  1  0  0  0  0
 15 14  2  0  0  0  0
 16 11  2  0  0  0  0
 20 21  1  0  0  0  0
 21 28  1  0  0  0  0
 22 21  2  0  0  0  0
 22 23  1  0  0  0  0
 23 25  2  0  0  0  0
 24 23  1  0  0  0  0
 25 27  1  0  0  0  0
 25 26  1  0  0  0  0
 28 27  2  0  0  0  0
M  END
>  <minimizedAffinity>
-5.5381403

$$$$

 OpenBabel03272510183D

 28 30  0  0  0  0  0  0  0  0999 V2000
   37.4370   28.5060   30.2250 Br  0  0  0  0  0  0  0  0  0  0  0  0
   36.4840   29.1200   31.7670 C   0  0  0  0  0  0  0  0  0  0  0  0
   36.4970   28.3960   32.9500 C   0  0  0  0  0  0  0  0  0  0  0  0
   35.7880   28.9090   34.0050 C   0  0  0  0  0  0  0  0  0  0  0  0
   35.0690   30.0990   33.9450 C   0  0  0  0  0  0  0  0  0  0  0  0
   35.0880   30.7790   32.7550 C   0  0  0  0  0  0  0  0  0  0  0  0
   35.7920   30.2880   31.6760 C   0  0  0  0  0  0  0  0  0  0  0  0
   35.8200   28.3130   34.9220 H   0  0  0  0  0  0  0  0  0  0  0  0
   34.5520   31.7100   32.6370 H   0  0  0  0  0  0  0  0  0  0  0  0
   35.7850   30.8470   30.7530 H   0  0  0  0  0  0  0  0  0  0  0  0
   39.2240   26.0730   33.6060 C   0  0  0  0  0  0  0  0  0  0  0  0
   38.6950   24.8110   33.2430 C   0  0  0  0  0  0  0  0  0  0  0  0
   37.3890   24.7780   32.7700 C   0  0  0  0  0  0  0  0  0  0  0  0
   36.6800   25.9560   32.6780 N   0  0  0  0  0  0  0  0  0  0  0  0
   37.2420   27.1410   33.0440 C   0  0  0  0  0  0  0  0  0  0  0  0
   38.5030   27.1920   33.5030 N   0  0  0  0  0  0  0  0  0  0  0  0
   40.2430   26.0690   33.9710 H   0  0  0  0  0  0  0  0  0  0  0  0
   39.3030   23.9220   33.3370 H   0  0  0  0  0  0  0  0  0  0  0  0
   36.9480   23.8340   32.4810 H   0  0  0  0  0  0  0  0  0  0  0  0
   36.4350   32.1920   35.7010 Cl  0  0  0  0  0  0  0  0  0  0  0  0
   34.8570   31.5220   35.9710 C   0  0  0  0  0  0  0  0  0  0  0  0
   34.3390   30.5800   35.1120 C   0  0  0  0  0  0  0  0  0  0  0  0
   33.0650   30.0770   35.3790 C   0  0  0  0  0  0  0  0  0  0  0  0
   32.6520   29.3250   34.6930 H   0  0  0  0  0  0  0  0  0  0  0  0
   32.3050   30.4740   36.4560 C   0  0  0  0  0  0  0  0  0  0  0  0
   31.3200   30.0800   36.6580 H   0  0  0  0  0  0  0  0  0  0  0  0
   32.8760   31.4210   37.2850 C   0  0  0  0  0  3  0  0  0  0  0  0
   34.1280   31.9620   37.0830 C   0  0  0  0  0  3  0  0  0  0  0  0
  1  2  1  0  0  0  0
  2  3  1  0  0  0  0
  3 15  1  0  0  0  0
  3  4  2  0  0  0  0
  4  8  1  0  0  0  0
  5  4  1  0  0  0  0
  5 22  1  0  0  0  0
  6  5  2  0  0  0  0
  7  2  2  0  0  0  0
  7  6  1  0  0  0  0
  9  6  1  0  0  0  0
 10  7  1  0  0  0  0
 11 17  1  0  0  0  0
 12 18  1  0  0  0  0
 12 11  2  0  0  0  0
 13 12  1  0  0  0  0
 14 13  2  0  0  0  0
 14 15  1  0  0  0  0
 15 16  2  0  0  0  0
 16 11  1  0  0  0  0
 19 13  1  0  0  0  0
 20 21  1  0  0  0  0
 21 28  1  0  0  0  0
 22 23  1  0  0  0  0
 22 21  2  0  0  0  0
 23 25  2  0  0  0  0
 24 23  1  0  0  0  0
 25 26  1  0  0  0  0
 25 27  1  0  0  0  0
 28 27  2  0  0  0  0
M  END
>  <minimizedAffinity>
-5.46062136

$$$$

 OpenBabel03272510183D

 28 30  0  0  0  0  0  0  0  0999 V2000
   37.9630   27.5630   30.9670 Br  0  0  0  0  0  0  0  0  0  0  0  0
   36.8400   28.3800   32.2850 C   0  0  0  0  0  0  0  0  0  0  0  0
   36.9070   27.9970   33.6160 C   0  0  0  0  0  0  0  0  0  0  0  0
   36.0670   28.6340   34.4930 C   0  0  0  0  0  0  0  0  0  0  0  0
   35.1700   29.6280   34.1160 C   0  0  0  0  0  0  0  0  0  0  0  0
   35.1420   29.9720   32.7900 C   0  0  0  0  0  0  0  0  0  0  0  0
   35.9740   29.3490   31.8840 C   0  0  0  0  0  0  0  0  0  0  0  0
   36.1460   28.3070   35.5350 H   0  0  0  0  0  0  0  0  0  0  0  0
   34.4690   30.7360   32.4270 H   0  0  0  0  0  0  0  0  0  0  0  0
   35.9260   29.6440   30.8470 H   0  0  0  0  0  0  0  0  0  0  0  0
   38.2500   24.6910   34.3440 C   0  0  0  0  0  0  0  0  0  0  0  0
   39.5540   24.9490   34.8320 C   0  0  0  0  0  0  0  0  0  0  0  0
   39.9560   26.2770   34.9050 C   0  0  0  0  0  0  0  0  0  0  0  0
   39.0830   27.2650   34.5050 N   0  0  0  0  0  0  0  0  0  0  0  0
   37.8400   26.9550   34.0430 C   0  0  0  0  0  0  0  0  0  0  0  0
   37.4330   25.6770   33.9660 N   0  0  0  0  0  0  0  0  0  0  0  0
   37.9620   23.6490   34.2990 H   0  0  0  0  0  0  0  0  0  0  0  0
   40.1920   24.1300   35.1320 H   0  0  0  0  0  0  0  0  0  0  0  0
   40.9440   26.5170   35.2720 H   0  0  0  0  0  0  0  0  0  0  0  0
   36.3420   31.9370   35.7370 Cl  0  0  0  0  0  0  0  0  0  0  0  0
   34.7310   31.3080   35.8940 C   0  0  0  0  0  0  0  0  0  0  0  0
   34.3080   30.2600   35.1090 C   0  0  0  0  0  0  0  0  0  0  0  0
   33.0040   29.7960   35.2800 C   0  0  0  0  0  0  0  0  0  0  0  0
   32.6660   28.9600   34.6530 H   0  0  0  0  0  0  0  0  0  0  0  0
   32.1230   30.3320   36.1920 C   0  0  0  0  0  0  0  0  0  0  0  0
   31.1140   29.9690   36.3200 H   0  0  0  0  0  0  0  0  0  0  0  0
   32.6020   31.3810   36.9530 C   0  0  0  0  0  3  0  0  0  0  0  0
   33.8790   31.8920   36.8380 C   0  0  0  0  0  3  0  0  0  0  0  0
  1  2  1  0  0  0  0
  2  3  1  0  0  0  0
  3 15  1  0  0  0  0
  3  4  2  0  0  0  0
  4  8  1  0  0  0  0
  5  4  1  0  0  0  0
  5 22  1  0  0  0  0
  6  5  2  0  0  0  0
  7  2  2  0  0  0  0
  7  6  1  0  0  0  0
  9  6  1  0  0  0  0
 10  7  1  0  0  0  0
 11 12  1  0  0  0  0
 12 13  2  0  0  0  0
 12 18  1  0  0  0  0
 13 19  1  0  0  0  0
 14 13  1  0  0  0  0
 15 14  2  0  0  0  0
 16 15  1  0  0  0  0
 16 11  2  0  0  0  0
 17 11  1  0  0  0  0
 20 21  1  0  0  0  0
 21 28  1  0  0  0  0
 22 23  1  0  0  0  0
 22 21  2  0  0  0  0
 23 25  2  0  0  0  0
 24 23  1  0  0  0  0
 25 26  1  0  0  0  0
 25 27  1  0  0  0  0
 28 27  2  0  0  0  0
M  END
>  <minimizedAffinity>
-5.45672607

$$$$

 OpenBabel03272510183D

 28 30  0  0  0  0  0  0  0  0999 V2000
   36.4700   27.7800   31.8680 Br  0  0  0  0  0  0  0  0  0  0  0  0
   36.3720   25.8690   31.8050 C   0  0  0  0  0  0  0  0  0  0  0  0
   37.2410   25.0860   32.5500 C   0  0  0  0  0  0  0  0  0  0  0  0
   37.1020   23.7260   32.4460 C   0  0  0  0  0  0  0  0  0  0  0  0
   36.1470   23.1080   31.6440 C   0  0  0  0  0  0  0  0  0  0  0  0
   35.3110   23.9250   30.9290 C   0  0  0  0  0  0  0  0  0  0  0  0
   35.4270   25.2960   31.0120 C   0  0  0  0  0  0  0  0  0  0  0  0
   37.8030   23.1380   33.0460 H   0  0  0  0  0  0  0  0  0  0  0  0
   34.5460   23.5140   30.2850 H   0  0  0  0  0  0  0  0  0  0  0  0
   34.7530   25.9100   30.4350 H   0  0  0  0  0  0  0  0  0  0  0  0
   38.8250   26.5290   35.4940 C   0  0  0  0  0  0  0  0  0  0  0  0
   40.1250   26.8720   35.0520 C   0  0  0  0  0  0  0  0  0  0  0  0
   40.4420   26.5980   33.7270 C   0  0  0  0  0  0  0  0  0  0  0  0
   39.4910   26.0150   32.9180 N   0  0  0  0  0  0  0  0  0  0  0  0
   38.2560   25.7050   33.4010 C   0  0  0  0  0  0  0  0  0  0  0  0
   37.9320   25.9630   34.6790 N   0  0  0  0  0  0  0  0  0  0  0  0
   38.6050   26.7530   36.5300 H   0  0  0  0  0  0  0  0  0  0  0  0
   40.8270   27.3290   35.7360 H   0  0  0  0  0  0  0  0  0  0  0  0
   41.4240   26.8460   33.3500 H   0  0  0  0  0  0  0  0  0  0  0  0
   38.3780   21.6180   30.1830 Cl  0  0  0  0  0  0  0  0  0  0  0  0
   37.0080   20.8810   30.9560 C   0  0  0  0  0  0  0  0  0  0  0  0
   36.0600   21.6530   31.5870 C   0  0  0  0  0  0  0  0  0  0  0  0
   34.9820   21.0060   32.1900 C   0  0  0  0  0  0  0  0  0  0  0  0
   34.2240   21.6220   32.6940 H   0  0  0  0  0  0  0  0  0  0  0  0
   34.8200   19.6390   32.1840 C   0  0  0  0  0  0  0  0  0  0  0  0
   33.9820   19.1430   32.6530 H   0  0  0  0  0  0  0  0  0  0  0  0
   35.8020   18.9150   31.5370 C   0  0  0  0  0  3  0  0  0  0  0  0
   36.8950   19.4870   30.9190 C   0  0  0  0  0  3  0  0  0  0  0  0
  2  1  1  0  0  0  0
  2  3  1  0  0  0  0
  3 15  1  0  0  0  0
  4  3  2  0  0  0  0
  4  8  1  0  0  0  0
  5  4  1  0  0  0  0
  6  7  1  0  0  0  0
  6  5  2  0  0  0  0
  7  2  2  0  0  0  0
  9  6  1  0  0  0  0
 10  7  1  0  0  0  0
 11 17  1  0  0  0  0
 12 11  1  0  0  0  0
 12 18  1  0  0  0  0
 13 12  2  0  0  0  0
 14 15  2  0  0  0  0
 14 13  1  0  0  0  0
 15 16  1  0  0  0  0
 16 11  2  0  0  0  0
 19 13  1  0  0  0  0
 20 21  1  0  0  0  0
 21 22  1  0  0  0  0
 22  5  1  0  0  0  0
 22 23  2  0  0  0  0
 23 24  1  0  0  0  0
 25 23  1  0  0  0  0
 25 26  1  0  0  0  0
 27 25  2  0  0  0  0
 28 21  2  0  0  0  0
 28 27  1  0  0  0  0
M  END
>  <minimizedAffinity>
-5.41565847

$$$$

 OpenBabel03272510183D

 28 30  0  0  0  0  0  0  0  0999 V2000
   38.2760   26.7210   35.1520 Br  0  0  0  0  0  0  0  0  0  0  0  0
   38.0650   25.1850   34.0280 C   0  0  0  0  0  0  0  0  0  0  0  0
   38.1660   23.9020   34.5460 C   0  0  0  0  0  0  0  0  0  0  0  0
   38.0020   22.8600   33.6710 C   0  0  0  0  0  0  0  0  0  0  0  0
   37.7430   23.0270   32.3140 C   0  0  0  0  0  0  0  0  0  0  0  0
   37.6510   24.3130   31.8500 C   0  0  0  0  0  0  0  0  0  0  0  0
   37.8130   25.3820   32.7060 C   0  0  0  0  0  0  0  0  0  0  0  0
   38.0880   21.8620   34.1120 H   0  0  0  0  0  0  0  0  0  0  0  0
   37.4520   24.5170   30.8070 H   0  0  0  0  0  0  0  0  0  0  0  0
   37.7350   26.3820   32.3080 H   0  0  0  0  0  0  0  0  0  0  0  0
   39.9050   22.9280   37.5940 C   0  0  0  0  0  0  0  0  0  0  0  0
   39.0070   23.2790   38.6300 C   0  0  0  0  0  0  0  0  0  0  0  0
   37.7970   23.8540   38.2580 C   0  0  0  0  0  0  0  0  0  0  0  0
   37.5330   24.0530   36.9200 N   0  0  0  0  0  0  0  0  0  0  0  0
   38.4380   23.6950   35.9680 C   0  0  0  0  0  0  0  0  0  0  0  0
   39.6120   23.1380   36.3080 N   0  0  0  0  0  0  0  0  0  0  0  0
   40.8390   22.4820   37.9110 H   0  0  0  0  0  0  0  0  0  0  0  0
   39.2720   23.0970   39.6620 H   0  0  0  0  0  0  0  0  0  0  0  0
   37.0830   24.1360   39.0190 H   0  0  0  0  0  0  0  0  0  0  0  0
   35.0390   21.6050   32.3500 Cl  0  0  0  0  0  0  0  0  0  0  0  0
   36.4060   21.1510   31.3810 C   0  0  0  0  0  0  0  0  0  0  0  0
   37.5800   21.8670   31.4450 C   0  0  0  0  0  0  0  0  0  0  0  0
   38.6440   21.4550   30.6430 C   0  0  0  0  0  0  0  0  0  0  0  0
   39.5810   22.0270   30.6940 H   0  0  0  0  0  0  0  0  0  0  0  0
   38.5790   20.3730   29.7950 C   0  0  0  0  0  0  0  0  0  0  0  0
   39.4070   20.0590   29.1760 H   0  0  0  0  0  0  0  0  0  0  0  0
   37.3760   19.6930   29.7720 C   0  0  0  0  0  3  0  0  0  0  0  0
   36.2830   20.0420   30.5360 C   0  0  0  0  0  3  0  0  0  0  0  0
  2  3  1  0  0  0  0
  2  1  1  0  0  0  0
  3 15  1  0  0  0  0
  4  8  1  0  0  0  0
  4  3  2  0  0  0  0
  5  4  1  0  0  0  0
  6  5  2  0  0  0  0
  6  7  1  0  0  0  0
  7  2  2  0  0  0  0
  9  6  1  0  0  0  0
 10  7  1  0  0  0  0
 11 17  1  0  0  0  0
 11 12  1  0  0  0  0
 12 18  1  0  0  0  0
 13 12  2  0  0  0  0
 13 19  1  0  0  0  0
 14 13  1  0  0  0  0
 15 16  1  0  0  0  0
 15 14  2  0  0  0  0
 16 11  2  0  0  0  0
 21 22  1  0  0  0  0
 21 20  1  0  0  0  0
 22  5  1  0  0  0  0
 23 24  1  0  0  0  0
 23 22  2  0  0  0  0
 25 23  1  0  0  0  0
 26 25  1  0  0  0  0
 27 25  2  0  0  0  0
 27 28  1  0  0  0  0
 28 21  2  0  0  0  0
M  END
>  <minimizedAffinity>
-5.25702667

$$$$

 OpenBabel03272510183D

 28 30  0  0  0  0  0  0  0  0999 V2000
   35.8480   32.7970   32.1610 Br  0  0  0  0  0  0  0  0  0  0  0  0
   35.9650   30.8870   32.1080 C   0  0  0  0  0  0  0  0  0  0  0  0
   35.5460   30.1160   33.1830 C   0  0  0  0  0  0  0  0  0  0  0  0
   35.6650   28.7560   33.0600 C   0  0  0  0  0  0  0  0  0  0  0  0
   36.1760   28.1260   31.9300 C   0  0  0  0  0  0  0  0  0  0  0  0
   36.5750   28.9290   30.8950 C   0  0  0  0  0  0  0  0  0  0  0  0
   36.4690   30.3010   30.9880 C   0  0  0  0  0  0  0  0  0  0  0  0
   35.3260   28.1790   33.9260 H   0  0  0  0  0  0  0  0  0  0  0  0
   36.9820   28.5080   29.9860 H   0  0  0  0  0  0  0  0  0  0  0  0
   36.7930   30.9050   30.1550 H   0  0  0  0  0  0  0  0  0  0  0  0
   35.4280   31.7650   36.4270 C   0  0  0  0  0  0  0  0  0  0  0  0
   34.0460   31.9510   36.6690 C   0  0  0  0  0  0  0  0  0  0  0  0
   33.1620   31.4980   35.6970 C   0  0  0  0  0  0  0  0  0  0  0  0
   33.6630   30.8990   34.5620 N   0  0  0  0  0  0  0  0  0  0  0  0
   35.0050   30.7500   34.3840 C   0  0  0  0  0  0  0  0  0  0  0  0
   35.8750   31.1810   35.3130 N   0  0  0  0  0  0  0  0  0  0  0  0
   36.0940   32.1270   37.2000 H   0  0  0  0  0  0  0  0  0  0  0  0
   33.7150   32.4270   37.5810 H   0  0  0  0  0  0  0  0  0  0  0  0
   32.0980   31.6200   35.8440 H   0  0  0  0  0  0  0  0  0  0  0  0
   38.5290   26.8090   33.3660 Cl  0  0  0  0  0  0  0  0  0  0  0  0
   37.2870   25.9730   32.4860 C   0  0  0  0  0  0  0  0  0  0  0  0
   36.2700   26.6710   31.8750 C   0  0  0  0  0  0  0  0  0  0  0  0
   35.3010   25.9460   31.1820 C   0  0  0  0  0  0  0  0  0  0  0  0
   34.4890   26.5040   30.6940 H   0  0  0  0  0  0  0  0  0  0  0  0
   35.3120   24.5740   31.0780 C   0  0  0  0  0  0  0  0  0  0  0  0
   34.5580   24.0180   30.5390 H   0  0  0  0  0  0  0  0  0  0  0  0
   36.3550   23.9260   31.7110 C   0  0  0  0  0  3  0  0  0  0  0  0
   37.3480   24.5770   32.4140 C   0  0  0  0  0  3  0  0  0  0  0  0
  2  1  1  0  0  0  0
  2  3  1  0  0  0  0
  3 15  1  0  0  0  0
  4  3  2  0  0  0  0
  4  8  1  0  0  0  0
  5  4  1  0  0  0  0
  6  7  1  0  0  0  0
  6  5  2  0  0  0  0
  7  2  2  0  0  0  0
  9  6  1  0  0  0  0
 10  7  1  0  0  0  0
 11 12  1  0  0  0  0
 11 17  1  0  0  0  0
 12 18  1  0  0  0  0
 13 19  1  0  0  0  0
 13 12  2  0  0  0  0
 14 13  1  0  0  0  0
 15 14  2  0  0  0  0
 15 16  1  0  0  0  0
 16 11  2  0  0  0  0
 21 20  1  0  0  0  0
 22  5  1  0  0  0  0
 22 21  2  0  0  0  0
 23 22  1  0  0  0  0
 24 23  1  0  0  0  0
 25 23  2  0  0  0  0
 25 27  1  0  0  0  0
 26 25  1  0  0  0  0
 27 28  2  0  0  0  0
 28 21  1  0  0  0  0
M  END
>  <minimizedAffinity>
-5.20162344

$$$$

 OpenBabel03272510183D

 28 30  0  0  0  0  0  0  0  0999 V2000
   35.5680   31.1370   31.6860 Br  0  0  0  0  0  0  0  0  0  0  0  0
   36.2710   29.4790   32.3360 C   0  0  0  0  0  0  0  0  0  0  0  0
   36.0320   29.0640   33.6380 C   0  0  0  0  0  0  0  0  0  0  0  0
   36.5730   27.8640   34.0210 C   0  0  0  0  0  0  0  0  0  0  0  0
   37.3360   27.0590   33.1800 C   0  0  0  0  0  0  0  0  0  0  0  0
   37.5430   27.5110   31.9040 C   0  0  0  0  0  0  0  0  0  0  0  0
   37.0130   28.7150   31.4900 C   0  0  0  0  0  0  0  0  0  0  0  0
   36.3650   27.5670   35.0540 H   0  0  0  0  0  0  0  0  0  0  0  0
   38.1270   26.9380   31.1970 H   0  0  0  0  0  0  0  0  0  0  0  0
   37.1960   29.0420   30.4780 H   0  0  0  0  0  0  0  0  0  0  0  0
   33.1370   30.4180   35.3840 C   0  0  0  0  0  0  0  0  0  0  0  0
   33.6810   31.4110   36.2340 C   0  0  0  0  0  0  0  0  0  0  0  0
   35.0570   31.6030   36.1920 C   0  0  0  0  0  0  0  0  0  0  0  0
   35.8150   30.8300   35.3390 N   0  0  0  0  0  0  0  0  0  0  0  0
   35.2350   29.8880   34.5450 C   0  0  0  0  0  0  0  0  0  0  0  0
   33.9070   29.6890   34.5720 N   0  0  0  0  0  0  0  0  0  0  0  0
   32.0630   30.2900   35.4370 H   0  0  0  0  0  0  0  0  0  0  0  0
   33.0330   31.9850   36.8800 H   0  0  0  0  0  0  0  0  0  0  0  0
   35.5120   32.3510   36.8250 H   0  0  0  0  0  0  0  0  0  0  0  0
   39.3060   27.1630   35.5120 Cl  0  0  0  0  0  0  0  0  0  0  0  0
   38.7710   25.7220   34.7060 C   0  0  0  0  0  0  0  0  0  0  0  0
   37.8780   25.7930   33.6620 C   0  0  0  0  0  0  0  0  0  0  0  0
   37.4840   24.6020   33.0520 C   0  0  0  0  0  0  0  0  0  0  0  0
   36.7700   24.6590   32.2190 H   0  0  0  0  0  0  0  0  0  0  0  0
   37.9440   23.3650   33.4400 C   0  0  0  0  0  0  0  0  0  0  0  0
   37.6360   22.4460   32.9640 H   0  0  0  0  0  0  0  0  0  0  0  0
   38.8390   23.3540   34.4930 C   0  0  0  0  0  3  0  0  0  0  0  0
   39.2720   24.4900   35.1430 C   0  0  0  0  0  3  0  0  0  0  0  0
  1  2  1  0  0  0  0
  2  3  1  0  0  0  0
  3  4  2  0  0  0  0
  3 15  1  0  0  0  0
  4  8  1  0  0  0  0
  5 22  1  0  0  0  0
  5  4  1  0  0  0  0
  6  5  2  0  0  0  0
  7  6  1  0  0  0  0
  7  2  2  0  0  0  0
  9  6  1  0  0  0  0
 10  7  1  0  0  0  0
 11 17  1  0  0  0  0
 11 12  1  0  0  0  0
 12 18  1  0  0  0  0
 13 12  2  0  0  0  0
 13 19  1  0  0  0  0
 14 13  1  0  0  0  0
 15 16  1  0  0  0  0
 15 14  2  0  0  0  0
 16 11  2  0  0  0  0
 21 28  1  0  0  0  0
 21 20  1  0  0  0  0
 22 21  2  0  0  0  0
 23 25  2  0  0  0  0
 23 22  1  0  0  0  0
 24 23  1  0  0  0  0
 25 27  1  0  0  0  0
 26 25  1  0  0  0  0
 27 28  2  0  0  0  0
M  END
>  <minimizedAffinity>
-5.12791395

$$$$
