
 OpenBabel03272506193D

 34 36  0  0  0  0  0  0  0  0999 V2000
   36.5340   28.2330   33.3140 C   0  0  0  0  0  0  0  0  0  0  0  0
   35.8260   28.7550   34.4070 C   0  0  0  0  0  0  0  0  0  0  0  0
   34.9820   29.8300   34.1790 C   0  0  0  0  0  0  0  0  0  0  0  0
   34.8790   30.3270   32.8940 N   0  0  0  0  0  0  0  0  0  0  0  0
   35.5760   29.8000   31.8600 C   0  0  0  0  0  0  0  0  0  0  0  0
   36.3930   28.7650   32.0750 N   0  0  0  0  0  0  0  0  0  0  0  0
   35.8590   28.4150   35.4040 H   0  0  0  0  0  0  0  0  0  0  0  0
   35.4370   30.2490   30.8910 H   0  0  0  0  0  0  0  0  0  0  0  0
   37.4330   27.0690   33.5850 C   0  0  0  0  0  0  0  0  0  0  0  0
   37.5770   26.8700   35.0800 C   0  0  0  0  0  0  0  0  0  0  0  0
   38.9450   27.2320   35.5810 C   0  0  0  0  0  0  0  0  0  0  0  0
   40.0300   26.4660   34.8590 C   0  0  0  0  0  0  0  0  0  0  0  0
   39.8550   26.4470   33.3770 C   0  0  0  0  0  0  0  0  0  0  0  0
   38.7200   27.3230   32.8910 C   0  0  0  0  0  0  0  0  0  0  0  0
   36.9040   26.1850   33.1800 H   0  0  0  0  0  0  0  0  0  0  0  0
   37.4190   25.7890   35.3390 H   0  0  0  0  0  0  0  0  0  0  0  0
   36.8350   27.4460   35.6350 H   0  0  0  0  0  0  0  0  0  0  0  0
   39.0060   26.9600   36.6430 H   0  0  0  0  0  0  0  0  0  0  0  0
   39.0470   28.3390   35.4610 H   0  0  0  0  0  0  0  0  0  0  0  0
   39.9880   25.4210   35.2140 H   0  0  0  0  0  0  0  0  0  0  0  0
   41.0030   26.9150   35.1850 H   0  0  0  0  0  0  0  0  0  0  0  0
   40.7770   26.8880   32.9300 H   0  0  0  0  0  0  0  0  0  0  0  0
   39.8030   25.4170   32.9530 H   0  0  0  0  0  0  0  0  0  0  0  0
   39.0420   28.3760   32.8900 H   0  0  0  0  0  0  0  0  0  0  0  0
   38.5790   27.0530   31.8110 H   0  0  0  0  0  0  0  0  0  0  0  0
   36.3680   32.0230   35.7520 Cl  0  0  0  0  0  0  0  0  0  0  0  0
   34.7160   31.4830   35.9840 C   0  0  0  0  0  0  0  0  0  0  0  0
   34.1860   30.4750   35.2110 C   0  0  0  0  0  0  0  0  0  0  0  0
   32.8980   30.1680   35.5080 C   0  0  0  0  0  0  0  0  0  0  0  0
   32.3880   29.3920   34.9600 H   0  0  0  0  0  0  0  0  0  0  0  0
   32.1400   30.7800   36.4890 C   0  0  0  0  0  0  0  0  0  0  0  0
   31.1120   30.4850   36.6750 H   0  0  0  0  0  0  0  0  0  0  0  0
   32.6980   31.7750   37.2360 C   0  0  0  0  0  3  0  0  0  0  0  0
   34.0040   32.1250   36.9730 C   0  0  0  0  0  3  0  0  0  0  0  0
  1  9  1  0  0  0  0
  1  2  1  0  0  0  0
  2  7  1  0  0  0  0
  3  2  2  0  0  0  0
  3 28  1  0  0  0  0
  4  3  1  0  0  0  0
  5  6  1  0  0  0  0
  5  4  2  0  0  0  0
  6  1  2  0  0  0  0
  8  5  1  0  0  0  0
  9 10  1  0  0  0  0
 10 16  1  0  0  0  0
 10 11  1  0  0  0  0
 10 17  1  0  0  0  0
 11 18  1  0  0  0  0
 12 21  1  0  0  0  0
 12 20  1  0  0  0  0
 12 11  1  0  0  0  0
 13 12  1  0  0  0  0
 14 13  1  0  0  0  0
 14  9  1  0  0  0  0
 15  9  1  0  0  0  0
 19 11  1  0  0  0  0
 22 13  1  0  0  0  0
 23 13  1  0  0  0  0
 24 14  1  0  0  0  0
 25 14  1  0  0  0  0
 26 27  1  0  0  0  0
 27 34  1  0  0  0  0
 28 29  1  0  0  0  0
 28 27  2  0  0  0  0
 29 31  2  0  0  0  0
 30 29  1  0  0  0  0
 31 32  1  0  0  0  0
 31 33  1  0  0  0  0
 34 33  2  0  0  0  0
M  END
>  <minimizedAffinity>
-5.73950005

$$$$

 OpenBabel03272506193D

 34 36  0  0  0  0  0  0  0  0999 V2000
   36.7350   26.2080   32.4410 C   0  0  0  0  0  0  0  0  0  0  0  0
   36.9150   24.8210   32.5450 C   0  0  0  0  0  0  0  0  0  0  0  0
   36.1370   24.0040   31.7400 C   0  0  0  0  0  0  0  0  0  0  0  0
   35.2310   24.5950   30.8810 N   0  0  0  0  0  0  0  0  0  0  0  0
   35.0810   25.9370   30.8040 C   0  0  0  0  0  0  0  0  0  0  0  0
   35.8280   26.7300   31.5790 N   0  0  0  0  0  0  0  0  0  0  0  0
   37.5910   24.3150   33.1750 H   0  0  0  0  0  0  0  0  0  0  0  0
   34.3520   26.3150   30.1060 H   0  0  0  0  0  0  0  0  0  0  0  0
   37.5910   27.0680   33.3150 C   0  0  0  0  0  0  0  0  0  0  0  0
   39.0070   27.0940   32.7800 C   0  0  0  0  0  0  0  0  0  0  0  0
   39.9690   26.3450   33.6570 C   0  0  0  0  0  0  0  0  0  0  0  0
   39.9530   26.8590   35.0780 C   0  0  0  0  0  0  0  0  0  0  0  0
   38.5760   27.0510   35.6220 C   0  0  0  0  0  0  0  0  0  0  0  0
   37.4860   26.5480   34.7010 C   0  0  0  0  0  0  0  0  0  0  0  0
   37.1790   28.0920   33.2180 H   0  0  0  0  0  0  0  0  0  0  0  0
   39.3790   28.1520   32.7310 H   0  0  0  0  0  0  0  0  0  0  0  0
   39.0620   26.6860   31.7700 H   0  0  0  0  0  0  0  0  0  0  0  0
   40.9820   26.4980   33.2650 H   0  0  0  0  0  0  0  0  0  0  0  0
   39.6890   25.2640   33.5870 H   0  0  0  0  0  0  0  0  0  0  0  0
   40.4520   27.8440   35.0770 H   0  0  0  0  0  0  0  0  0  0  0  0
   40.5720   26.1460   35.6790 H   0  0  0  0  0  0  0  0  0  0  0  0
   38.4950   26.4240   36.5420 H   0  0  0  0  0  0  0  0  0  0  0  0
   38.3830   28.0910   35.9740 H   0  0  0  0  0  0  0  0  0  0  0  0
   37.4170   25.4520   34.7760 H   0  0  0  0  0  0  0  0  0  0  0  0
   36.5280   26.9370   35.1350 H   0  0  0  0  0  0  0  0  0  0  0  0
   38.4860   22.7940   30.2490 Cl  0  0  0  0  0  0  0  0  0  0  0  0
   37.2360   21.8990   31.0920 C   0  0  0  0  0  0  0  0  0  0  0  0
   36.2110   22.5520   31.7380 C   0  0  0  0  0  0  0  0  0  0  0  0
   35.3220   21.7250   32.3430 C   0  0  0  0  0  0  0  0  0  0  0  0
   34.4810   22.1360   32.8780 H   0  0  0  0  0  0  0  0  0  0  0  0
   35.3910   20.3440   32.3420 C   0  0  0  0  0  0  0  0  0  0  0  0
   34.6430   19.7410   32.8480 H   0  0  0  0  0  0  0  0  0  0  0  0
   36.4200   19.7300   31.6920 C   0  0  0  0  0  3  0  0  0  0  0  0
   37.3510   20.5270   31.0610 C   0  0  0  0  0  3  0  0  0  0  0  0
  1  2  1  0  0  0  0
  1  9  1  0  0  0  0
  2  7  1  0  0  0  0
  3  2  2  0  0  0  0
  4  3  1  0  0  0  0
  5  4  2  0  0  0  0
  5  6  1  0  0  0  0
  6  1  2  0  0  0  0
  8  5  1  0  0  0  0
  9 14  1  0  0  0  0
 10  9  1  0  0  0  0
 10 11  1  0  0  0  0
 11 12  1  0  0  0  0
 12 13  1  0  0  0  0
 12 21  1  0  0  0  0
 13 23  1  0  0  0  0
 13 22  1  0  0  0  0
 14 24  1  0  0  0  0
 14 25  1  0  0  0  0
 14 13  1  0  0  0  0
 15  9  1  0  0  0  0
 16 10  1  0  0  0  0
 17 10  1  0  0  0  0
 18 11  1  0  0  0  0
 19 11  1  0  0  0  0
 20 12  1  0  0  0  0
 26 27  1  0  0  0  0
 27 28  1  0  0  0  0
 28  3  1  0  0  0  0
 28 29  2  0  0  0  0
 29 30  1  0  0  0  0
 31 29  1  0  0  0  0
 31 32  1  0  0  0  0
 33 31  2  0  0  0  0
 34 27  2  0  0  0  0
 34 33  1  0  0  0  0
M  END
>  <minimizedAffinity>
-5.53325558

$$$$

 OpenBabel03272506193D

 34 36  0  0  0  0  0  0  0  0999 V2000
   37.6960   22.7610   32.3400 C   0  0  0  0  0  0  0  0  0  0  0  0
   37.7920   22.5940   33.7300 C   0  0  0  0  0  0  0  0  0  0  0  0
   38.3670   23.6160   34.4680 C   0  0  0  0  0  0  0  0  0  0  0  0
   38.8130   24.7410   33.8010 N   0  0  0  0  0  0  0  0  0  0  0  0
   38.7050   24.8720   32.4580 C   0  0  0  0  0  0  0  0  0  0  0  0
   38.1530   23.8890   31.7410 N   0  0  0  0  0  0  0  0  0  0  0  0
   37.4660   21.7640   34.2920 H   0  0  0  0  0  0  0  0  0  0  0  0
   39.0790   25.7830   32.0190 H   0  0  0  0  0  0  0  0  0  0  0  0
   37.0650   21.6480   31.5670 C   0  0  0  0  0  0  0  0  0  0  0  0
   35.5700   21.8720   31.4720 C   0  0  0  0  0  0  0  0  0  0  0  0
   34.7860   20.8940   32.2990 C   0  0  0  0  0  0  0  0  0  0  0  0
   35.1100   19.4630   31.9350 C   0  0  0  0  0  0  0  0  0  0  0  0
   36.5740   19.2000   31.8140 C   0  0  0  0  0  0  0  0  0  0  0  0
   37.4360   20.3730   32.2300 C   0  0  0  0  0  0  0  0  0  0  0  0
   37.4790   21.7260   30.5430 H   0  0  0  0  0  0  0  0  0  0  0  0
   35.2280   21.7380   30.4110 H   0  0  0  0  0  0  0  0  0  0  0  0
   35.2960   22.8850   31.7720 H   0  0  0  0  0  0  0  0  0  0  0  0
   33.7190   21.0490   32.0960 H   0  0  0  0  0  0  0  0  0  0  0  0
   35.0120   21.1270   33.3690 H   0  0  0  0  0  0  0  0  0  0  0  0
   34.6520   19.2620   30.9500 H   0  0  0  0  0  0  0  0  0  0  0  0
   34.6060   18.8200   32.7010 H   0  0  0  0  0  0  0  0  0  0  0  0
   36.8230   18.3840   32.5340 H   0  0  0  0  0  0  0  0  0  0  0  0
   36.8670   18.7940   30.8180 H   0  0  0  0  0  0  0  0  0  0  0  0
   37.4840   20.4230   33.3280 H   0  0  0  0  0  0  0  0  0  0  0  0
   38.4740   20.1100   31.8970 H   0  0  0  0  0  0  0  0  0  0  0  0
   40.7680   22.0720   35.4970 Cl  0  0  0  0  0  0  0  0  0  0  0  0
   39.5900   22.9130   36.4850 C   0  0  0  0  0  0  0  0  0  0  0  0
   38.5350   23.5850   35.9110 C   0  0  0  0  0  0  0  0  0  0  0  0
   37.7080   24.1850   36.8050 C   0  0  0  0  0  0  0  0  0  0  0  0
   36.8510   24.7390   36.4590 H   0  0  0  0  0  0  0  0  0  0  0  0
   37.8660   24.1560   38.1780 C   0  0  0  0  0  0  0  0  0  0  0  0
   37.1650   24.6600   38.8380 H   0  0  0  0  0  0  0  0  0  0  0  0
   38.9230   23.4810   38.7130 C   0  0  0  0  0  3  0  0  0  0  0  0
   39.7920   22.8530   37.8470 C   0  0  0  0  0  3  0  0  0  0  0  0
  1  2  1  0  0  0  0
  2  7  1  0  0  0  0
  2  3  2  0  0  0  0
  3 28  1  0  0  0  0
  4  3  1  0  0  0  0
  5  4  2  0  0  0  0
  6  1  2  0  0  0  0
  6  5  1  0  0  0  0
  8  5  1  0  0  0  0
  9 14  1  0  0  0  0
  9  1  1  0  0  0  0
 10  9  1  0  0  0  0
 10 17  1  0  0  0  0
 10 11  1  0  0  0  0
 11 19  1  0  0  0  0
 12 11  1  0  0  0  0
 12 21  1  0  0  0  0
 13 12  1  0  0  0  0
 13 14  1  0  0  0  0
 13 22  1  0  0  0  0
 14 24  1  0  0  0  0
 15  9  1  0  0  0  0
 16 10  1  0  0  0  0
 18 11  1  0  0  0  0
 20 12  1  0  0  0  0
 23 13  1  0  0  0  0
 25 14  1  0  0  0  0
 26 27  1  0  0  0  0
 27 34  1  0  0  0  0
 28 27  2  0  0  0  0
 28 29  1  0  0  0  0
 29 31  2  0  0  0  0
 30 29  1  0  0  0  0
 31 33  1  0  0  0  0
 31 32  1  0  0  0  0
 34 33  2  0  0  0  0
M  END
>  <minimizedAffinity>
-5.48352528

$$$$

 OpenBabel03272506193D

 34 36  0  0  0  0  0  0  0  0999 V2000
   37.6010   24.2810   33.0900 C   0  0  0  0  0  0  0  0  0  0  0  0
   37.5360   22.8840   32.9810 C   0  0  0  0  0  0  0  0  0  0  0  0
   36.6020   22.3430   32.1120 C   0  0  0  0  0  0  0  0  0  0  0  0
   35.7880   23.2030   31.4010 N   0  0  0  0  0  0  0  0  0  0  0  0
   35.8750   24.5480   31.5280 C   0  0  0  0  0  0  0  0  0  0  0  0
   36.7730   25.0740   32.3670 N   0  0  0  0  0  0  0  0  0  0  0  0
   38.1320   22.1800   33.4920 H   0  0  0  0  0  0  0  0  0  0  0  0
   35.2020   25.1460   30.9360 H   0  0  0  0  0  0  0  0  0  0  0  0
   38.6220   24.8390   34.0290 C   0  0  0  0  0  0  0  0  0  0  0  0
   37.9940   25.0780   35.3870 C   0  0  0  0  0  0  0  0  0  0  0  0
   37.8340   26.5380   35.6990 C   0  0  0  0  0  0  0  0  0  0  0  0
   39.1480   27.2800   35.6090 C   0  0  0  0  0  0  0  0  0  0  0  0
   39.9310   26.9500   34.3810 C   0  0  0  0  0  0  0  0  0  0  0  0
   39.1840   26.0640   33.4080 C   0  0  0  0  0  0  0  0  0  0  0  0
   39.3820   24.0420   34.1500 H   0  0  0  0  0  0  0  0  0  0  0  0
   38.6480   24.6500   36.1930 H   0  0  0  0  0  0  0  0  0  0  0  0
   37.0200   24.5920   35.4700 H   0  0  0  0  0  0  0  0  0  0  0  0
   37.4760   26.6320   36.7320 H   0  0  0  0  0  0  0  0  0  0  0  0
   37.0660   26.9350   34.9890 H   0  0  0  0  0  0  0  0  0  0  0  0
   39.7540   26.9830   36.4820 H   0  0  0  0  0  0  0  0  0  0  0  0
   38.9020   28.3690   35.6990 H   0  0  0  0  0  0  0  0  0  0  0  0
   40.1030   27.9070   33.8330 H   0  0  0  0  0  0  0  0  0  0  0  0
   40.9530   26.5650   34.6020 H   0  0  0  0  0  0  0  0  0  0  0  0
   38.4570   26.6670   32.8430 H   0  0  0  0  0  0  0  0  0  0  0  0
   39.9500   25.7390   32.6560 H   0  0  0  0  0  0  0  0  0  0  0  0
   35.4950   20.7700   34.4590 Cl  0  0  0  0  0  0  0  0  0  0  0  0
   35.9230   20.1100   32.8920 C   0  0  0  0  0  0  0  0  0  0  0  0
   36.4190   20.9180   31.8950 C   0  0  0  0  0  0  0  0  0  0  0  0
   36.7050   20.2620   30.7420 C   0  0  0  0  0  0  0  0  0  0  0  0
   37.0980   20.8030   29.8970 H   0  0  0  0  0  0  0  0  0  0  0  0
   36.5320   18.9060   30.5330 C   0  0  0  0  0  0  0  0  0  0  0  0
   36.7810   18.4440   29.5820 H   0  0  0  0  0  0  0  0  0  0  0  0
   36.0380   18.1360   31.5440 C   0  0  0  0  0  3  0  0  0  0  0  0
   35.7320   18.7540   32.7370 C   0  0  0  0  0  3  0  0  0  0  0  0
  1  9  1  0  0  0  0
  2  1  1  0  0  0  0
  2  7  1  0  0  0  0
  3  2  2  0  0  0  0
  4  5  2  0  0  0  0
  4  3  1  0  0  0  0
  5  6  1  0  0  0  0
  6  1  2  0  0  0  0
  8  5  1  0  0  0  0
  9 15  1  0  0  0  0
  9 10  1  0  0  0  0
 10 17  1  0  0  0  0
 10 11  1  0  0  0  0
 10 16  1  0  0  0  0
 11 18  1  0  0  0  0
 12 21  1  0  0  0  0
 12 11  1  0  0  0  0
 12 20  1  0  0  0  0
 13 23  1  0  0  0  0
 13 12  1  0  0  0  0
 14  9  1  0  0  0  0
 14 13  1  0  0  0  0
 19 11  1  0  0  0  0
 22 13  1  0  0  0  0
 24 14  1  0  0  0  0
 25 14  1  0  0  0  0
 27 26  1  0  0  0  0
 28  3  1  0  0  0  0
 28 27  2  0  0  0  0
 29 28  1  0  0  0  0
 30 29  1  0  0  0  0
 31 29  2  0  0  0  0
 31 33  1  0  0  0  0
 32 31  1  0  0  0  0
 33 34  2  0  0  0  0
 34 27  1  0  0  0  0
M  END
>  <minimizedAffinity>
-5.43710375

$$$$

 OpenBabel03272506193D

 34 36  0  0  0  0  0  0  0  0999 V2000
   36.9410   22.5740   31.2150 C   0  0  0  0  0  0  0  0  0  0  0  0
   36.5880   23.6310   32.0670 C   0  0  0  0  0  0  0  0  0  0  0  0
   37.4350   24.7270   32.1270 C   0  0  0  0  0  0  0  0  0  0  0  0
   38.5740   24.7220   31.3470 N   0  0  0  0  0  0  0  0  0  0  0  0
   38.8870   23.6870   30.5340 C   0  0  0  0  0  0  0  0  0  0  0  0
   38.0750   22.6260   30.4740 N   0  0  0  0  0  0  0  0  0  0  0  0
   35.7320   23.6930   32.6790 H   0  0  0  0  0  0  0  0  0  0  0  0
   39.7960   23.7650   29.9600 H   0  0  0  0  0  0  0  0  0  0  0  0
   36.0080   21.4070   31.1640 C   0  0  0  0  0  0  0  0  0  0  0  0
   35.1350   21.3930   32.4020 C   0  0  0  0  0  0  0  0  0  0  0  0
   35.4780   20.2690   33.3360 C   0  0  0  0  0  0  0  0  0  0  0  0
   35.4070   18.9250   32.6490 C   0  0  0  0  0  0  0  0  0  0  0  0
   36.0820   18.9040   31.3180 C   0  0  0  0  0  0  0  0  0  0  0  0
   36.8290   20.1810   30.9990 C   0  0  0  0  0  0  0  0  0  0  0  0
   35.3490   21.5920   30.2930 H   0  0  0  0  0  0  0  0  0  0  0  0
   34.0600   21.2500   32.1110 H   0  0  0  0  0  0  0  0  0  0  0  0
   35.1980   22.3360   32.9470 H   0  0  0  0  0  0  0  0  0  0  0  0
   34.7400   20.2600   34.1480 H   0  0  0  0  0  0  0  0  0  0  0  0
   36.4950   20.4910   33.7440 H   0  0  0  0  0  0  0  0  0  0  0  0
   34.3390   18.6940   32.4860 H   0  0  0  0  0  0  0  0  0  0  0  0
   35.8270   18.1790   33.3710 H   0  0  0  0  0  0  0  0  0  0  0  0
   36.8640   18.1090   31.3570 H   0  0  0  0  0  0  0  0  0  0  0  0
   35.4070   18.5920   30.4870 H   0  0  0  0  0  0  0  0  0  0  0  0
   37.7860   20.1930   31.5410 H   0  0  0  0  0  0  0  0  0  0  0  0
   37.1010   20.1020   29.9130 H   0  0  0  0  0  0  0  0  0  0  0  0
   36.1040   27.0920   30.7680 Cl  0  0  0  0  0  0  0  0  0  0  0  0
   36.6030   27.0210   32.4480 C   0  0  0  0  0  0  0  0  0  0  0  0
   37.2000   25.8930   32.9620 C   0  0  0  0  0  0  0  0  0  0  0  0
   37.5300   25.9910   34.2750 C   0  0  0  0  0  0  0  0  0  0  0  0
   38.0030   25.1610   34.7750 H   0  0  0  0  0  0  0  0  0  0  0  0
   37.3090   27.0990   35.0710 C   0  0  0  0  0  0  0  0  0  0  0  0
   37.5980   27.1100   36.1180 H   0  0  0  0  0  0  0  0  0  0  0  0
   36.7140   28.2000   34.5280 C   0  0  0  0  0  3  0  0  0  0  0  0
   36.3600   28.1510   33.1970 C   0  0  0  0  0  3  0  0  0  0  0  0
  1  2  1  0  0  0  0
  2  3  2  0  0  0  0
  2  7  1  0  0  0  0
  3 28  1  0  0  0  0
  4  3  1  0  0  0  0
  5  4  2  0  0  0  0
  6  5  1  0  0  0  0
  6  1  2  0  0  0  0
  8  5  1  0  0  0  0
  9  1  1  0  0  0  0
  9 10  1  0  0  0  0
 10 17  1  0  0  0  0
 10 11  1  0  0  0  0
 11 19  1  0  0  0  0
 11 18  1  0  0  0  0
 12 11  1  0  0  0  0
 12 21  1  0  0  0  0
 13 22  1  0  0  0  0
 13 12  1  0  0  0  0
 14  9  1  0  0  0  0
 14 13  1  0  0  0  0
 14 24  1  0  0  0  0
 15  9  1  0  0  0  0
 16 10  1  0  0  0  0
 20 12  1  0  0  0  0
 23 13  1  0  0  0  0
 25 14  1  0  0  0  0
 26 27  1  0  0  0  0
 27 28  2  0  0  0  0
 27 34  1  0  0  0  0
 28 29  1  0  0  0  0
 29 30  1  0  0  0  0
 29 31  2  0  0  0  0
 31 32  1  0  0  0  0
 33 31  1  0  0  0  0
 34 33  2  0  0  0  0
M  END
>  <minimizedAffinity>
-5.41836357

$$$$

 OpenBabel03272506193D

 34 36  0  0  0  0  0  0  0  0999 V2000
   38.1800   24.8990   34.4370 C   0  0  0  0  0  0  0  0  0  0  0  0
   37.9230   26.1650   33.8910 C   0  0  0  0  0  0  0  0  0  0  0  0
   37.3380   26.2240   32.6360 C   0  0  0  0  0  0  0  0  0  0  0  0
   37.0400   25.0400   31.9910 N   0  0  0  0  0  0  0  0  0  0  0  0
   37.3000   23.8330   32.5450 C   0  0  0  0  0  0  0  0  0  0  0  0
   37.8660   23.7700   33.7550 N   0  0  0  0  0  0  0  0  0  0  0  0
   38.1220   27.1000   34.3360 H   0  0  0  0  0  0  0  0  0  0  0  0
   37.0350   22.9590   31.9740 H   0  0  0  0  0  0  0  0  0  0  0  0
   38.8050   24.8620   35.7950 C   0  0  0  0  0  0  0  0  0  0  0  0
   39.9560   23.8780   35.8040 C   0  0  0  0  0  0  0  0  0  0  0  0
   39.6530   22.6450   36.6050 C   0  0  0  0  0  0  0  0  0  0  0  0
   39.2600   22.9790   38.0250 C   0  0  0  0  0  0  0  0  0  0  0  0
   38.2630   24.0870   38.1180 C   0  0  0  0  0  0  0  0  0  0  0  0
   37.7360   24.5400   36.7730 C   0  0  0  0  0  0  0  0  0  0  0  0
   39.2290   25.8730   35.9530 H   0  0  0  0  0  0  0  0  0  0  0  0
   40.8600   24.3500   36.2730 H   0  0  0  0  0  0  0  0  0  0  0  0
   40.2370   23.5800   34.7930 H   0  0  0  0  0  0  0  0  0  0  0  0
   40.5640   22.0350   36.6540 H   0  0  0  0  0  0  0  0  0  0  0  0
   38.8510   22.0940   36.0540 H   0  0  0  0  0  0  0  0  0  0  0  0
   40.1730   23.3070   38.5520 H   0  0  0  0  0  0  0  0  0  0  0  0
   38.9050   22.0230   38.4880 H   0  0  0  0  0  0  0  0  0  0  0  0
   37.3740   23.6850   38.6600 H   0  0  0  0  0  0  0  0  0  0  0  0
   38.6110   24.9410   38.7440 H   0  0  0  0  0  0  0  0  0  0  0  0
   36.9830   23.8240   36.4120 H   0  0  0  0  0  0  0  0  0  0  0  0
   37.1730   25.4880   36.9800 H   0  0  0  0  0  0  0  0  0  0  0  0
   36.0870   28.4080   34.3310 Cl  0  0  0  0  0  0  0  0  0  0  0  0
   36.4430   28.5170   32.6180 C   0  0  0  0  0  0  0  0  0  0  0  0
   37.0140   27.4610   31.9450 C   0  0  0  0  0  0  0  0  0  0  0  0
   37.2280   27.6960   30.6250 C   0  0  0  0  0  0  0  0  0  0  0  0
   37.6720   26.9330   30.0070 H   0  0  0  0  0  0  0  0  0  0  0  0
   36.9200   28.8720   29.9660 C   0  0  0  0  0  0  0  0  0  0  0  0
   37.1190   28.9940   28.9050 H   0  0  0  0  0  0  0  0  0  0  0  0
   36.3550   29.8980   30.6650 C   0  0  0  0  0  3  0  0  0  0  0  0
   36.1170   29.7090   32.0090 C   0  0  0  0  0  3  0  0  0  0  0  0
  1  9  1  0  0  0  0
  2  7  1  0  0  0  0
  2  1  1  0  0  0  0
  3  2  2  0  0  0  0
  4  5  2  0  0  0  0
  4  3  1  0  0  0  0
  5  6  1  0  0  0  0
  6  1  2  0  0  0  0
  8  5  1  0  0  0  0
  9 10  1  0  0  0  0
  9 15  1  0  0  0  0
  9 14  1  0  0  0  0
 10 16  1  0  0  0  0
 10 11  1  0  0  0  0
 11 18  1  0  0  0  0
 11 12  1  0  0  0  0
 12 13  1  0  0  0  0
 12 21  1  0  0  0  0
 12 20  1  0  0  0  0
 13 22  1  0  0  0  0
 13 23  1  0  0  0  0
 14 25  1  0  0  0  0
 14 13  1  0  0  0  0
 17 10  1  0  0  0  0
 19 11  1  0  0  0  0
 24 14  1  0  0  0  0
 27 26  1  0  0  0  0
 28 27  2  0  0  0  0
 28  3  1  0  0  0  0
 29 28  1  0  0  0  0
 30 29  1  0  0  0  0
 31 29  2  0  0  0  0
 31 33  1  0  0  0  0
 32 31  1  0  0  0  0
 33 34  2  0  0  0  0
 34 27  1  0  0  0  0
M  END
>  <minimizedAffinity>
-5.37731791

$$$$

 OpenBabel03272506193D

 34 36  0  0  0  0  0  0  0  0999 V2000
   39.4820   25.1940   34.8760 C   0  0  0  0  0  0  0  0  0  0  0  0
   38.5310   25.7760   34.0250 C   0  0  0  0  0  0  0  0  0  0  0  0
   38.9280   26.8520   33.2470 C   0  0  0  0  0  0  0  0  0  0  0  0
   40.2330   27.2910   33.3480 N   0  0  0  0  0  0  0  0  0  0  0  0
   41.1280   26.7080   34.1780 C   0  0  0  0  0  0  0  0  0  0  0  0
   40.7500   25.6710   34.9320 N   0  0  0  0  0  0  0  0  0  0  0  0
   37.5260   25.4810   33.9020 H   0  0  0  0  0  0  0  0  0  0  0  0
   42.1260   27.1140   34.1950 H   0  0  0  0  0  0  0  0  0  0  0  0
   39.0300   24.0310   35.7000 C   0  0  0  0  0  0  0  0  0  0  0  0
   37.8130   24.4200   36.5130 C   0  0  0  0  0  0  0  0  0  0  0  0
   38.1110   24.5310   37.9800 C   0  0  0  0  0  0  0  0  0  0  0  0
   38.7040   23.2550   38.5320 C   0  0  0  0  0  0  0  0  0  0  0  0
   39.7920   22.6910   37.6790 C   0  0  0  0  0  0  0  0  0  0  0  0
   40.1820   23.5880   36.5240 C   0  0  0  0  0  0  0  0  0  0  0  0
   38.7120   23.2580   34.9720 H   0  0  0  0  0  0  0  0  0  0  0  0
   37.0150   23.6370   36.4080 H   0  0  0  0  0  0  0  0  0  0  0  0
   37.3850   25.3630   36.1680 H   0  0  0  0  0  0  0  0  0  0  0  0
   37.1660   24.7080   38.5100 H   0  0  0  0  0  0  0  0  0  0  0  0
   38.7910   25.4100   38.1020 H   0  0  0  0  0  0  0  0  0  0  0  0
   37.8930   22.5080   38.5770 H   0  0  0  0  0  0  0  0  0  0  0  0
   39.0350   23.4870   39.5760 H   0  0  0  0  0  0  0  0  0  0  0  0
   40.7050   22.6180   38.3160 H   0  0  0  0  0  0  0  0  0  0  0  0
   39.5950   21.6440   37.3510 H   0  0  0  0  0  0  0  0  0  0  0  0
   40.8230   24.4030   36.8920 H   0  0  0  0  0  0  0  0  0  0  0  0
   40.8420   22.9600   35.8710 H   0  0  0  0  0  0  0  0  0  0  0  0
   36.5240   28.2370   34.4750 Cl  0  0  0  0  0  0  0  0  0  0  0  0
   36.9370   28.2180   32.7710 C   0  0  0  0  0  0  0  0  0  0  0  0
   38.0550   27.5550   32.3220 C   0  0  0  0  0  0  0  0  0  0  0  0
   38.2410   27.6300   30.9790 C   0  0  0  0  0  0  0  0  0  0  0  0
   39.0890   27.1450   30.5240 H   0  0  0  0  0  0  0  0  0  0  0  0
   37.4120   28.2980   30.0970 C   0  0  0  0  0  0  0  0  0  0  0  0
   37.6200   28.3190   29.0310 H   0  0  0  0  0  0  0  0  0  0  0  0
   36.3120   28.9440   30.5780 C   0  0  0  0  0  3  0  0  0  0  0  0
   36.0790   28.8980   31.9350 C   0  0  0  0  0  3  0  0  0  0  0  0
  1  6  1  0  0  0  0
  1  9  1  0  0  0  0
  2  1  2  0  0  0  0
  3  4  2  0  0  0  0
  3  2  1  0  0  0  0
  4  5  1  0  0  0  0
  5  8  1  0  0  0  0
  5  6  2  0  0  0  0
  7  2  1  0  0  0  0
  9 10  1  0  0  0  0
  9 14  1  0  0  0  0
 10 11  1  0  0  0  0
 11 19  1  0  0  0  0
 11 18  1  0  0  0  0
 11 12  1  0  0  0  0
 12 20  1  0  0  0  0
 12 21  1  0  0  0  0
 13 22  1  0  0  0  0
 13 12  1  0  0  0  0
 14 24  1  0  0  0  0
 14 13  1  0  0  0  0
 15  9  1  0  0  0  0
 16 10  1  0  0  0  0
 17 10  1  0  0  0  0
 23 13  1  0  0  0  0
 25 14  1  0  0  0  0
 27 26  1  0  0  0  0
 28 27  1  0  0  0  0
 28  3  1  0  0  0  0
 29 28  2  0  0  0  0
 30 29  1  0  0  0  0
 31 33  2  0  0  0  0
 31 29  1  0  0  0  0
 32 31  1  0  0  0  0
 33 34  1  0  0  0  0
 34 27  2  0  0  0  0
M  END
>  <minimizedAffinity>
-5.36659813

$$$$

 OpenBabel03272506193D

 34 36  0  0  0  0  0  0  0  0999 V2000
   37.8060   26.1330   32.8850 C   0  0  0  0  0  0  0  0  0  0  0  0
   38.1070   25.8480   34.2250 C   0  0  0  0  0  0  0  0  0  0  0  0
   38.1420   24.5180   34.6130 C   0  0  0  0  0  0  0  0  0  0  0  0
   37.8820   23.5470   33.6650 N   0  0  0  0  0  0  0  0  0  0  0  0
   37.5950   23.8550   32.3790 C   0  0  0  0  0  0  0  0  0  0  0  0
   37.5580   25.1370   32.0000 N   0  0  0  0  0  0  0  0  0  0  0  0
   38.3190   26.5420   34.9890 H   0  0  0  0  0  0  0  0  0  0  0  0
   37.4050   23.0370   31.7040 H   0  0  0  0  0  0  0  0  0  0  0  0
   37.7800   27.5750   32.4900 C   0  0  0  0  0  0  0  0  0  0  0  0
   36.5700   28.2520   33.0990 C   0  0  0  0  0  0  0  0  0  0  0  0
   35.5320   28.6090   32.0730 C   0  0  0  0  0  0  0  0  0  0  0  0
   36.1020   29.4770   30.9750 C   0  0  0  0  0  0  0  0  0  0  0  0
   37.4090   28.9830   30.4470 C   0  0  0  0  0  0  0  0  0  0  0  0
   37.8170   27.6370   31.0080 C   0  0  0  0  0  0  0  0  0  0  0  0
   38.6810   28.0250   32.9530 H   0  0  0  0  0  0  0  0  0  0  0  0
   36.8750   29.2140   33.5910 H   0  0  0  0  0  0  0  0  0  0  0  0
   36.1060   27.6310   33.8660 H   0  0  0  0  0  0  0  0  0  0  0  0
   34.7430   29.1870   32.5690 H   0  0  0  0  0  0  0  0  0  0  0  0
   35.1190   27.6440   31.6880 H   0  0  0  0  0  0  0  0  0  0  0  0
   36.2730   30.4800   31.4030 H   0  0  0  0  0  0  0  0  0  0  0  0
   35.3080   29.5540   30.1890 H   0  0  0  0  0  0  0  0  0  0  0  0
   37.2790   28.8160   29.3510 H   0  0  0  0  0  0  0  0  0  0  0  0
   38.2260   29.7360   30.5220 H   0  0  0  0  0  0  0  0  0  0  0  0
   37.2530   26.8400   30.5010 H   0  0  0  0  0  0  0  0  0  0  0  0
   38.8840   27.4960   30.6920 H   0  0  0  0  0  0  0  0  0  0  0  0
   40.8050   23.1150   34.9960 Cl  0  0  0  0  0  0  0  0  0  0  0  0
   39.6180   23.4220   36.2500 C   0  0  0  0  0  0  0  0  0  0  0  0
   38.4390   24.0700   35.9640 C   0  0  0  0  0  0  0  0  0  0  0  0
   37.6230   24.2340   37.0360 C   0  0  0  0  0  0  0  0  0  0  0  0
   36.6730   24.7300   36.9200 H   0  0  0  0  0  0  0  0  0  0  0  0
   37.9030   23.8080   38.3210 C   0  0  0  0  0  0  0  0  0  0  0  0
   37.2030   23.9730   39.1360 H   0  0  0  0  0  0  0  0  0  0  0  0
   39.0820   23.1700   38.5680 C   0  0  0  0  0  3  0  0  0  0  0  0
   39.9460   22.9790   37.5120 C   0  0  0  0  0  3  0  0  0  0  0  0
  1  2  1  0  0  0  0
  2  3  2  0  0  0  0
  2  7  1  0  0  0  0
  3 28  1  0  0  0  0
  4  3  1  0  0  0  0
  5  4  2  0  0  0  0
  6  5  1  0  0  0  0
  6  1  2  0  0  0  0
  8  5  1  0  0  0  0
  9  1  1  0  0  0  0
  9 15  1  0  0  0  0
  9 10  1  0  0  0  0
 10 16  1  0  0  0  0
 10 17  1  0  0  0  0
 11 18  1  0  0  0  0
 11 10  1  0  0  0  0
 12 20  1  0  0  0  0
 12 11  1  0  0  0  0
 13 23  1  0  0  0  0
 13 12  1  0  0  0  0
 13 14  1  0  0  0  0
 14  9  1  0  0  0  0
 19 11  1  0  0  0  0
 21 12  1  0  0  0  0
 22 13  1  0  0  0  0
 24 14  1  0  0  0  0
 25 14  1  0  0  0  0
 26 27  1  0  0  0  0
 27 34  1  0  0  0  0
 28 27  2  0  0  0  0
 28 29  1  0  0  0  0
 29 31  2  0  0  0  0
 30 29  1  0  0  0  0
 31 33  1  0  0  0  0
 31 32  1  0  0  0  0
 34 33  2  0  0  0  0
M  END
>  <minimizedAffinity>
-5.34413052

$$$$

 OpenBabel03272506193D

 34 36  0  0  0  0  0  0  0  0999 V2000
   35.6370   30.2130   32.4460 C   0  0  0  0  0  0  0  0  0  0  0  0
   35.6280   28.8220   32.6300 C   0  0  0  0  0  0  0  0  0  0  0  0
   36.0940   28.0280   31.5950 C   0  0  0  0  0  0  0  0  0  0  0  0
   36.5430   28.6430   30.4430 N   0  0  0  0  0  0  0  0  0  0  0  0
   36.5390   29.9880   30.2960 C   0  0  0  0  0  0  0  0  0  0  0  0
   36.0890   30.7590   31.2910 N   0  0  0  0  0  0  0  0  0  0  0  0
   35.3040   28.2980   33.4860 H   0  0  0  0  0  0  0  0  0  0  0  0
   36.9070   30.3850   29.3640 H   0  0  0  0  0  0  0  0  0  0  0  0
   35.1360   31.0480   33.5810 C   0  0  0  0  0  0  0  0  0  0  0  0
   35.4680   32.5040   33.3320 C   0  0  0  0  0  0  0  0  0  0  0  0
   36.5330   33.0190   34.2560 C   0  0  0  0  0  0  0  0  0  0  0  0
   36.1600   32.8240   35.7080 C   0  0  0  0  0  0  0  0  0  0  0  0
   35.6320   31.4590   36.0050 C   0  0  0  0  0  0  0  0  0  0  0  0
   35.7230   30.5070   34.8320 C   0  0  0  0  0  0  0  0  0  0  0  0
   34.0320   30.9490   33.5570 H   0  0  0  0  0  0  0  0  0  0  0  0
   34.5590   33.1400   33.5060 H   0  0  0  0  0  0  0  0  0  0  0  0
   35.7850   32.6730   32.3020 H   0  0  0  0  0  0  0  0  0  0  0  0
   36.6410   34.0980   34.0900 H   0  0  0  0  0  0  0  0  0  0  0  0
   37.4790   32.4910   33.9800 H   0  0  0  0  0  0  0  0  0  0  0  0
   35.3620   33.5500   35.9430 H   0  0  0  0  0  0  0  0  0  0  0  0
   37.0700   33.0870   36.3060 H   0  0  0  0  0  0  0  0  0  0  0  0
   36.2870   31.0170   36.7930 H   0  0  0  0  0  0  0  0  0  0  0  0
   34.6140   31.4710   36.4600 H   0  0  0  0  0  0  0  0  0  0  0  0
   36.7560   30.1410   34.7340 H   0  0  0  0  0  0  0  0  0  0  0  0
   35.1160   29.6120   35.1300 H   0  0  0  0  0  0  0  0  0  0  0  0
   38.4330   26.8230   33.1070 Cl  0  0  0  0  0  0  0  0  0  0  0  0
   37.1620   25.9250   32.3000 C   0  0  0  0  0  0  0  0  0  0  0  0
   36.1450   26.5750   31.6400 C   0  0  0  0  0  0  0  0  0  0  0  0
   35.2380   25.7460   31.0650 C   0  0  0  0  0  0  0  0  0  0  0  0
   34.4000   26.1540   30.5240 H   0  0  0  0  0  0  0  0  0  0  0  0
   35.2840   24.3650   31.1070 C   0  0  0  0  0  0  0  0  0  0  0  0
   34.5230   23.7590   30.6240 H   0  0  0  0  0  0  0  0  0  0  0  0
   36.3070   23.7530   31.7690 C   0  0  0  0  0  3  0  0  0  0  0  0
   37.2550   24.5520   32.3710 C   0  0  0  0  0  3  0  0  0  0  0  0
  1  2  1  0  0  0  0
  1  9  1  0  0  0  0
  2  7  1  0  0  0  0
  3 28  1  0  0  0  0
  3  2  2  0  0  0  0
  4  3  1  0  0  0  0
  5  4  2  0  0  0  0
  5  6  1  0  0  0  0
  6  1  2  0  0  0  0
  8  5  1  0  0  0  0
  9 14  1  0  0  0  0
 10 16  1  0  0  0  0
 10  9  1  0  0  0  0
 10 11  1  0  0  0  0
 11 12  1  0  0  0  0
 12 20  1  0  0  0  0
 12 13  1  0  0  0  0
 12 21  1  0  0  0  0
 13 23  1  0  0  0  0
 13 22  1  0  0  0  0
 14 25  1  0  0  0  0
 14 13  1  0  0  0  0
 15  9  1  0  0  0  0
 17 10  1  0  0  0  0
 18 11  1  0  0  0  0
 19 11  1  0  0  0  0
 24 14  1  0  0  0  0
 27 34  1  0  0  0  0
 27 26  1  0  0  0  0
 28 27  2  0  0  0  0
 29 31  2  0  0  0  0
 29 28  1  0  0  0  0
 30 29  1  0  0  0  0
 31 33  1  0  0  0  0
 32 31  1  0  0  0  0
 33 34  2  0  0  0  0
M  END
>  <minimizedAffinity>
-5.31141806

$$$$
