
 OpenBabel03262523583D

 28 30  0  0  0  0  0  0  0  0999 V2000
   38.8480   27.0240   34.7110 C   0  0  0  0  0  0  0  0  0  0  0  0
   37.7820   26.7170   33.8180 C   0  0  0  0  0  0  0  0  0  0  0  0
   37.5200   25.3750   33.5990 C   0  0  0  0  0  0  0  0  0  0  0  0
   38.2660   24.4090   34.2240 N   0  0  0  0  0  0  0  0  0  0  0  0
   39.2780   24.7660   35.0710 C   0  0  0  0  0  0  0  0  0  0  0  0
   39.5660   26.0660   35.3130 N   0  0  0  0  0  0  0  0  0  0  0  0
   39.0940   28.0570   34.9170 H   0  0  0  0  0  0  0  0  0  0  0  0
   36.7120   25.1350   32.9210 H   0  0  0  0  0  0  0  0  0  0  0  0
   38.0390   23.7920   37.7870 Br  0  0  0  0  0  0  0  0  0  0  0  0
   39.6720   23.2300   36.9590 C   0  0  0  0  0  0  0  0  0  0  0  0
   40.0840   23.7610   35.7460 C   0  0  0  0  0  0  0  0  0  0  0  0
   41.2740   23.3000   35.2180 C   0  0  0  0  0  0  0  0  0  0  0  0
   42.0520   22.3430   35.8530 C   0  0  0  0  0  0  0  0  0  0  0  0
   41.6190   21.8370   37.0500 C   0  0  0  0  0  0  0  0  0  0  0  0
   40.4260   22.2850   37.5990 C   0  0  0  0  0  0  0  0  0  0  0  0
   41.6060   23.7080   34.2720 H   0  0  0  0  0  0  0  0  0  0  0  0
   42.9840   21.9850   35.4360 H   0  0  0  0  0  0  0  0  0  0  0  0
   42.1740   21.0860   37.6040 H   0  0  0  0  0  0  0  0  0  0  0  0
   40.0950   21.8770   38.5460 H   0  0  0  0  0  0  0  0  0  0  0  0
   38.3680   27.4740   30.9170 Cl  0  0  0  0  0  0  0  0  0  0  0  0
   37.2160   28.3050   31.9470 C   0  0  0  0  0  0  0  0  0  0  0  0
   37.0830   27.8200   33.2330 C   0  0  0  0  0  0  0  0  0  0  0  0
   36.1760   28.4610   34.0720 C   0  0  0  0  0  0  0  0  0  0  0  0
   36.0130   28.1350   35.1100 H   0  0  0  0  0  0  0  0  0  0  0  0
   35.4550   29.5380   33.5910 C   0  0  0  0  0  0  0  0  0  0  0  0
   34.7350   30.0480   34.2510 H   0  0  0  0  0  0  0  0  0  0  0  0
   35.6020   30.0090   32.2990 C   0  0  0  0  0  3  0  0  0  0  0  0
   36.5080   29.3770   31.4470 C   0  0  0  0  0  3  0  0  0  0  0  0
  1  7  1  0  0  0  0
  1  6  1  0  0  0  0
  2  1  2  0  0  0  0
  3  2  1  0  0  0  0
  3  4  2  0  0  0  0
  4  5  1  0  0  0  0
  5  6  2  0  0  0  0
  5 11  1  0  0  0  0
  8  3  1  0  0  0  0
 10 15  1  0  0  0  0
 10  9  1  0  0  0  0
 11 10  2  0  0  0  0
 12 11  1  0  0  0  0
 12 13  2  0  0  0  0
 13 14  1  0  0  0  0
 14 15  2  0  0  0  0
 14 18  1  0  0  0  0
 15 19  1  0  0  0  0
 16 12  1  0  0  0  0
 17 13  1  0  0  0  0
 20 21  1  0  0  0  0
 21 22  1  0  0  0  0
 22  2  1  0  0  0  0
 22 23  2  0  0  0  0
 23 24  1  0  0  0  0
 25 23  1  0  0  0  0
 25 26  1  0  0  0  0
 27 25  2  0  0  0  0
 28 21  2  0  0  0  0
 28 27  1  0  0  0  0
M  END
>  <minimizedAffinity>
-5.51273823

$$$$

 OpenBabel03262523583D

 28 30  0  0  0  0  0  0  0  0999 V2000
   39.5920   26.1940   34.6180 C   0  0  0  0  0  0  0  0  0  0  0  0
   39.0530   24.8790   34.7250 C   0  0  0  0  0  0  0  0  0  0  0  0
   38.0030   24.5660   33.8790 C   0  0  0  0  0  0  0  0  0  0  0  0
   37.5240   25.4940   32.9910 N   0  0  0  0  0  0  0  0  0  0  0  0
   38.0810   26.7400   32.9340 C   0  0  0  0  0  0  0  0  0  0  0  0
   39.1100   27.0880   33.7430 N   0  0  0  0  0  0  0  0  0  0  0  0
   40.4140   26.4900   35.2560 H   0  0  0  0  0  0  0  0  0  0  0  0
   37.5890   23.5690   33.9560 H   0  0  0  0  0  0  0  0  0  0  0  0
   35.9570   28.6820   34.1900 Br  0  0  0  0  0  0  0  0  0  0  0  0
   36.6480   28.6750   32.4040 C   0  0  0  0  0  0  0  0  0  0  0  0
   37.5920   27.7430   32.0010 C   0  0  0  0  0  0  0  0  0  0  0  0
   38.0380   27.8090   30.6960 C   0  0  0  0  0  0  0  0  0  0  0  0
   37.5790   28.7600   29.7960 C   0  0  0  0  0  0  0  0  0  0  0  0
   36.6460   29.6680   30.2230 C   0  0  0  0  0  0  0  0  0  0  0  0
   36.1840   29.6210   31.5310 C   0  0  0  0  0  0  0  0  0  0  0  0
   38.7740   27.0860   30.3700 H   0  0  0  0  0  0  0  0  0  0  0  0
   37.9310   28.8080   28.7740 H   0  0  0  0  0  0  0  0  0  0  0  0
   36.2420   30.4410   29.5770 H   0  0  0  0  0  0  0  0  0  0  0  0
   35.4470   30.3440   31.8560 H   0  0  0  0  0  0  0  0  0  0  0  0
   37.5120   24.2340   37.2820 Cl  0  0  0  0  0  0  0  0  0  0  0  0
   39.1050   23.6070   36.8980 C   0  0  0  0  0  0  0  0  0  0  0  0
   39.6470   24.0090   35.6940 C   0  0  0  0  0  0  0  0  0  0  0  0
   40.9100   23.5270   35.3630 C   0  0  0  0  0  0  0  0  0  0  0  0
   41.4100   23.8010   34.4230 H   0  0  0  0  0  0  0  0  0  0  0  0
   41.5600   22.6790   36.2400 C   0  0  0  0  0  0  0  0  0  0  0  0
   42.5600   22.2940   35.9840 H   0  0  0  0  0  0  0  0  0  0  0  0
   41.0010   22.2880   37.4430 C   0  0  0  0  0  3  0  0  0  0  0  0
   39.7350   22.7630   37.7870 C   0  0  0  0  0  3  0  0  0  0  0  0
  1  2  1  0  0  0  0
  1  7  1  0  0  0  0
  2 22  1  0  0  0  0
  3  8  1  0  0  0  0
  3  2  2  0  0  0  0
  4  3  1  0  0  0  0
  5  4  2  0  0  0  0
  5  6  1  0  0  0  0
  6  1  2  0  0  0  0
 10  9  1  0  0  0  0
 11 10  1  0  0  0  0
 11  5  1  0  0  0  0
 12 11  2  0  0  0  0
 13 14  2  0  0  0  0
 13 12  1  0  0  0  0
 14 15  1  0  0  0  0
 15 19  1  0  0  0  0
 15 10  2  0  0  0  0
 16 12  1  0  0  0  0
 17 13  1  0  0  0  0
 18 14  1  0  0  0  0
 21 20  1  0  0  0  0
 21 28  1  0  0  0  0
 22 21  2  0  0  0  0
 23 22  1  0  0  0  0
 23 25  2  0  0  0  0
 24 23  1  0  0  0  0
 25 27  1  0  0  0  0
 26 25  1  0  0  0  0
 27 28  2  0  0  0  0
M  END
>  <minimizedAffinity>
-5.45347357

$$$$

 OpenBabel03262523583D

 28 30  0  0  0  0  0  0  0  0999 V2000
   37.8300   27.5680   34.6380 C   0  0  0  0  0  0  0  0  0  0  0  0
   37.1800   27.1900   33.4280 C   0  0  0  0  0  0  0  0  0  0  0  0
   37.1600   25.8380   33.1280 C   0  0  0  0  0  0  0  0  0  0  0  0
   37.7450   24.9290   33.9710 N   0  0  0  0  0  0  0  0  0  0  0  0
   38.3550   25.3520   35.1180 C   0  0  0  0  0  0  0  0  0  0  0  0
   38.3970   26.6640   35.4500 N   0  0  0  0  0  0  0  0  0  0  0  0
   37.8740   28.6110   34.9200 H   0  0  0  0  0  0  0  0  0  0  0  0
   36.6680   25.5450   32.2100 H   0  0  0  0  0  0  0  0  0  0  0  0
   41.1370   24.3050   34.1100 Br  0  0  0  0  0  0  0  0  0  0  0  0
   40.2160   23.8540   35.7260 C   0  0  0  0  0  0  0  0  0  0  0  0
   38.9820   24.4080   36.0300 C   0  0  0  0  0  0  0  0  0  0  0  0
   38.3860   24.0300   37.2170 C   0  0  0  0  0  0  0  0  0  0  0  0
   38.9740   23.1300   38.0950 C   0  0  0  0  0  0  0  0  0  0  0  0
   40.1940   22.5990   37.7680 C   0  0  0  0  0  0  0  0  0  0  0  0
   40.8110   22.9660   36.5810 C   0  0  0  0  0  0  0  0  0  0  0  0
   37.4230   24.4560   37.4650 H   0  0  0  0  0  0  0  0  0  0  0  0
   38.5040   22.8360   39.0240 H   0  0  0  0  0  0  0  0  0  0  0  0
   40.7150   21.8910   38.4040 H   0  0  0  0  0  0  0  0  0  0  0  0
   41.7750   22.5390   36.3330 H   0  0  0  0  0  0  0  0  0  0  0  0
   38.5440   27.9890   30.8140 Cl  0  0  0  0  0  0  0  0  0  0  0  0
   37.0830   28.7330   31.4400 C   0  0  0  0  0  0  0  0  0  0  0  0
   36.6100   28.2390   32.6390 C   0  0  0  0  0  0  0  0  0  0  0  0
   35.4530   28.8110   33.1590 C   0  0  0  0  0  0  0  0  0  0  0  0
   35.0130   28.4740   34.1100 H   0  0  0  0  0  0  0  0  0  0  0  0
   34.8320   29.8330   32.4640 C   0  0  0  0  0  0  0  0  0  0  0  0
   33.9160   30.2890   32.8710 H   0  0  0  0  0  0  0  0  0  0  0  0
   35.3220   30.3140   31.2630 C   0  0  0  0  0  3  0  0  0  0  0  0
   36.4820   29.7500   30.7300 C   0  0  0  0  0  3  0  0  0  0  0  0
  1  7  1  0  0  0  0
  1  6  1  0  0  0  0
  2  1  2  0  0  0  0
  3  2  1  0  0  0  0
  3  4  2  0  0  0  0
  4  5  1  0  0  0  0
  5  6  2  0  0  0  0
  5 11  1  0  0  0  0
  8  3  1  0  0  0  0
  9 10  1  0  0  0  0
 10 11  2  0  0  0  0
 10 15  1  0  0  0  0
 11 12  1  0  0  0  0
 12 16  1  0  0  0  0
 12 13  2  0  0  0  0
 13 17  1  0  0  0  0
 14 13  1  0  0  0  0
 14 18  1  0  0  0  0
 15 14  2  0  0  0  0
 19 15  1  0  0  0  0
 20 21  1  0  0  0  0
 21 22  1  0  0  0  0
 22 23  2  0  0  0  0
 22  2  1  0  0  0  0
 23 24  1  0  0  0  0
 25 26  1  0  0  0  0
 25 23  1  0  0  0  0
 27 25  2  0  0  0  0
 28 27  1  0  0  0  0
 28 21  2  0  0  0  0
M  END
>  <minimizedAffinity>
-5.4482584

$$$$

 OpenBabel03262523583D

 28 30  0  0  0  0  0  0  0  0999 V2000
   38.1750   25.2980   33.1780 C   0  0  0  0  0  0  0  0  0  0  0  0
   38.5130   26.6800   33.2520 C   0  0  0  0  0  0  0  0  0  0  0  0
   39.4780   27.0350   34.1790 C   0  0  0  0  0  0  0  0  0  0  0  0
   40.0630   26.0840   34.9750 N   0  0  0  0  0  0  0  0  0  0  0  0
   39.6970   24.7730   34.8580 C   0  0  0  0  0  0  0  0  0  0  0  0
   38.7590   24.3820   33.9650 N   0  0  0  0  0  0  0  0  0  0  0  0
   37.4270   24.9660   32.4700 H   0  0  0  0  0  0  0  0  0  0  0  0
   39.7390   28.0840   34.2410 H   0  0  0  0  0  0  0  0  0  0  0  0
   38.0280   24.1070   37.4330 Br  0  0  0  0  0  0  0  0  0  0  0  0
   39.6860   23.3390   36.8630 C   0  0  0  0  0  0  0  0  0  0  0  0
   40.3020   23.7450   35.6900 C   0  0  0  0  0  0  0  0  0  0  0  0
   41.4960   23.1390   35.3520 C   0  0  0  0  0  0  0  0  0  0  0  0
   42.0850   22.1570   36.1370 C   0  0  0  0  0  0  0  0  0  0  0  0
   41.4530   21.7770   37.2910 C   0  0  0  0  0  0  0  0  0  0  0  0
   40.2520   22.3710   37.6500 C   0  0  0  0  0  0  0  0  0  0  0  0
   41.9870   23.4480   34.4380 H   0  0  0  0  0  0  0  0  0  0  0  0
   43.0210   21.6850   35.8680 H   0  0  0  0  0  0  0  0  0  0  0  0
   41.8510   21.0160   37.9540 H   0  0  0  0  0  0  0  0  0  0  0  0
   39.7620   22.0620   38.5640 H   0  0  0  0  0  0  0  0  0  0  0  0
   36.1710   28.3250   34.3170 Cl  0  0  0  0  0  0  0  0  0  0  0  0
   36.7550   28.3830   32.6630 C   0  0  0  0  0  0  0  0  0  0  0  0
   37.8270   27.5670   32.3640 C   0  0  0  0  0  0  0  0  0  0  0  0
   38.3110   27.5920   31.0590 C   0  0  0  0  0  0  0  0  0  0  0  0
   39.1610   26.9720   30.7420 H   0  0  0  0  0  0  0  0  0  0  0  0
   37.7080   28.4220   30.1310 C   0  0  0  0  0  0  0  0  0  0  0  0
   38.0870   28.4460   29.0970 H   0  0  0  0  0  0  0  0  0  0  0  0
   36.6340   29.2330   30.4510 C   0  0  0  0  0  3  0  0  0  0  0  0
   36.1390   29.2170   31.7550 C   0  0  0  0  0  3  0  0  0  0  0  0
  1  2  2  0  0  0  0
  1  6  1  0  0  0  0
  2  3  1  0  0  0  0
  3  8  1  0  0  0  0
  3  4  2  0  0  0  0
  5  4  1  0  0  0  0
  5 11  1  0  0  0  0
  6  5  2  0  0  0  0
  7  1  1  0  0  0  0
 10  9  1  0  0  0  0
 10 15  1  0  0  0  0
 11 10  2  0  0  0  0
 12 11  1  0  0  0  0
 12 13  2  0  0  0  0
 13 14  1  0  0  0  0
 14 15  2  0  0  0  0
 14 18  1  0  0  0  0
 15 19  1  0  0  0  0
 16 12  1  0  0  0  0
 17 13  1  0  0  0  0
 21 20  1  0  0  0  0
 22 21  1  0  0  0  0
 22  2  1  0  0  0  0
 23 22  2  0  0  0  0
 24 23  1  0  0  0  0
 25 27  2  0  0  0  0
 25 23  1  0  0  0  0
 26 25  1  0  0  0  0
 27 28  1  0  0  0  0
 28 21  2  0  0  0  0
M  END
>  <minimizedAffinity>
-5.41462994

$$$$

 OpenBabel03262523583D

 28 30  0  0  0  0  0  0  0  0999 V2000
   39.2840   26.2030   35.1240 C   0  0  0  0  0  0  0  0  0  0  0  0
   38.9530   24.8210   35.0170 C   0  0  0  0  0  0  0  0  0  0  0  0
   37.9850   24.4830   34.0870 C   0  0  0  0  0  0  0  0  0  0  0  0
   37.3890   25.4500   33.3200 N   0  0  0  0  0  0  0  0  0  0  0  0
   37.7480   26.7600   33.4680 C   0  0  0  0  0  0  0  0  0  0  0  0
   38.6900   27.1340   34.3640 N   0  0  0  0  0  0  0  0  0  0  0  0
   40.0340   26.5210   35.8360 H   0  0  0  0  0  0  0  0  0  0  0  0
   37.7290   23.4350   34.0020 H   0  0  0  0  0  0  0  0  0  0  0  0
   39.0980   27.1380   30.6580 Br  0  0  0  0  0  0  0  0  0  0  0  0
   37.6140   28.0940   31.3990 C   0  0  0  0  0  0  0  0  0  0  0  0
   37.1320   27.8060   32.6660 C   0  0  0  0  0  0  0  0  0  0  0  0
   36.0570   28.5430   33.1240 C   0  0  0  0  0  0  0  0  0  0  0  0
   35.4610   29.5430   32.3690 C   0  0  0  0  0  0  0  0  0  0  0  0
   35.9600   29.8050   31.1200 C   0  0  0  0  0  0  0  0  0  0  0  0
   37.0380   29.0770   30.6400 C   0  0  0  0  0  0  0  0  0  0  0  0
   35.6720   28.3260   34.1120 H   0  0  0  0  0  0  0  0  0  0  0  0
   34.6190   30.1180   32.7320 H   0  0  0  0  0  0  0  0  0  0  0  0
   35.5450   30.5710   30.4730 H   0  0  0  0  0  0  0  0  0  0  0  0
   37.4230   29.2940   29.6510 H   0  0  0  0  0  0  0  0  0  0  0  0
   37.7740   24.1750   37.7600 Cl  0  0  0  0  0  0  0  0  0  0  0  0
   39.2750   23.5080   37.1420 C   0  0  0  0  0  0  0  0  0  0  0  0
   39.6510   23.9160   35.8780 C   0  0  0  0  0  0  0  0  0  0  0  0
   40.8380   23.4030   35.3630 C   0  0  0  0  0  0  0  0  0  0  0  0
   41.2060   23.6780   34.3650 H   0  0  0  0  0  0  0  0  0  0  0  0
   41.5790   22.5190   36.1260 C   0  0  0  0  0  0  0  0  0  0  0  0
   42.5190   22.1090   35.7230 H   0  0  0  0  0  0  0  0  0  0  0  0
   41.1850   22.1220   37.3910 C   0  0  0  0  0  3  0  0  0  0  0  0
   39.9970   22.6290   37.9200 C   0  0  0  0  0  3  0  0  0  0  0  0
  1  7  1  0  0  0  0
  2  1  1  0  0  0  0
  2 22  1  0  0  0  0
  3  2  2  0  0  0  0
  4  5  2  0  0  0  0
  4  3  1  0  0  0  0
  5  6  1  0  0  0  0
  6  1  2  0  0  0  0
  8  3  1  0  0  0  0
  9 10  1  0  0  0  0
 10 11  1  0  0  0  0
 11 12  2  0  0  0  0
 11  5  1  0  0  0  0
 12 16  1  0  0  0  0
 13 17  1  0  0  0  0
 13 12  1  0  0  0  0
 14 13  2  0  0  0  0
 15 14  1  0  0  0  0
 15 10  2  0  0  0  0
 18 14  1  0  0  0  0
 19 15  1  0  0  0  0
 21 20  1  0  0  0  0
 21 28  1  0  0  0  0
 22 21  2  0  0  0  0
 23 22  1  0  0  0  0
 23 25  2  0  0  0  0
 24 23  1  0  0  0  0
 25 27  1  0  0  0  0
 26 25  1  0  0  0  0
 27 28  2  0  0  0  0
M  END
>  <minimizedAffinity>
-5.4120512

$$$$

 OpenBabel03262523583D

 28 30  0  0  0  0  0  0  0  0999 V2000
   39.1680   26.4100   34.6890 C   0  0  0  0  0  0  0  0  0  0  0  0
   38.5410   25.1390   34.8330 C   0  0  0  0  0  0  0  0  0  0  0  0
   37.7520   24.7110   33.7790 C   0  0  0  0  0  0  0  0  0  0  0  0
   37.6000   25.4920   32.6620 N   0  0  0  0  0  0  0  0  0  0  0  0
   38.2270   26.7030   32.5810 C   0  0  0  0  0  0  0  0  0  0  0  0
   39.0070   27.1590   33.5890 N   0  0  0  0  0  0  0  0  0  0  0  0
   39.7950   26.7920   35.4840 H   0  0  0  0  0  0  0  0  0  0  0  0
   37.2730   23.7470   33.8820 H   0  0  0  0  0  0  0  0  0  0  0  0
   35.8970   28.7930   32.8310 Br  0  0  0  0  0  0  0  0  0  0  0  0
   37.0960   28.5240   31.3630 C   0  0  0  0  0  0  0  0  0  0  0  0
   38.0810   27.5500   31.4080 C   0  0  0  0  0  0  0  0  0  0  0  0
   38.9050   27.4230   30.3060 C   0  0  0  0  0  0  0  0  0  0  0  0
   38.7760   28.2240   29.1800 C   0  0  0  0  0  0  0  0  0  0  0  0
   37.7930   29.1780   29.1660 C   0  0  0  0  0  0  0  0  0  0  0  0
   36.9550   29.3240   30.2620 C   0  0  0  0  0  0  0  0  0  0  0  0
   39.6770   26.6650   30.3290 H   0  0  0  0  0  0  0  0  0  0  0  0
   39.4230   28.1210   28.3190 H   0  0  0  0  0  0  0  0  0  0  0  0
   37.6330   29.8410   28.3220 H   0  0  0  0  0  0  0  0  0  0  0  0
   36.1820   30.0810   30.2380 H   0  0  0  0  0  0  0  0  0  0  0  0
   40.8190   23.1070   34.9330 Cl  0  0  0  0  0  0  0  0  0  0  0  0
   39.7600   23.4790   36.2820 C   0  0  0  0  0  0  0  0  0  0  0  0
   38.7840   24.4270   36.0500 C   0  0  0  0  0  0  0  0  0  0  0  0
   37.9300   24.7410   37.1030 C   0  0  0  0  0  0  0  0  0  0  0  0
   37.1270   25.4850   36.9980 H   0  0  0  0  0  0  0  0  0  0  0  0
   38.0910   24.1020   38.3180 C   0  0  0  0  0  0  0  0  0  0  0  0
   37.4180   24.3470   39.1550 H   0  0  0  0  0  0  0  0  0  0  0  0
   39.0760   23.1540   38.5310 C   0  0  0  0  0  3  0  0  0  0  0  0
   39.9390   22.8290   37.4840 C   0  0  0  0  0  3  0  0  0  0  0  0
  1  2  1  0  0  0  0
  1  7  1  0  0  0  0
  2 22  1  0  0  0  0
  3  8  1  0  0  0  0
  3  2  2  0  0  0  0
  4  3  1  0  0  0  0
  5  4  2  0  0  0  0
  5  6  1  0  0  0  0
  6  1  2  0  0  0  0
 10 11  1  0  0  0  0
 10  9  1  0  0  0  0
 11  5  1  0  0  0  0
 12 16  1  0  0  0  0
 12 11  2  0  0  0  0
 13 12  1  0  0  0  0
 14 13  2  0  0  0  0
 14 15  1  0  0  0  0
 15 10  2  0  0  0  0
 17 13  1  0  0  0  0
 18 14  1  0  0  0  0
 19 15  1  0  0  0  0
 20 21  1  0  0  0  0
 21 28  1  0  0  0  0
 22 21  2  0  0  0  0
 22 23  1  0  0  0  0
 23 25  2  0  0  0  0
 24 23  1  0  0  0  0
 25 27  1  0  0  0  0
 25 26  1  0  0  0  0
 28 27  2  0  0  0  0
M  END
>  <minimizedAffinity>
-5.38326406

$$$$

 OpenBabel03262523583D

 28 30  0  0  0  0  0  0  0  0999 V2000
   35.3870   24.8450   31.0400 C   0  0  0  0  0  0  0  0  0  0  0  0
   36.3500   24.0680   31.7480 C   0  0  0  0  0  0  0  0  0  0  0  0
   37.2240   24.7590   32.5690 C   0  0  0  0  0  0  0  0  0  0  0  0
   37.1470   26.1230   32.6780 N   0  0  0  0  0  0  0  0  0  0  0  0
   36.2020   26.8150   31.9740 C   0  0  0  0  0  0  0  0  0  0  0  0
   35.3270   26.1790   31.1600 N   0  0  0  0  0  0  0  0  0  0  0  0
   34.6800   24.3550   30.3850 H   0  0  0  0  0  0  0  0  0  0  0  0
   37.9580   24.1750   33.1090 H   0  0  0  0  0  0  0  0  0  0  0  0
   37.7440   28.3330   29.6990 Br  0  0  0  0  0  0  0  0  0  0  0  0
   36.7250   29.0750   31.1400 C   0  0  0  0  0  0  0  0  0  0  0  0
   36.0980   28.2620   32.0720 C   0  0  0  0  0  0  0  0  0  0  0  0
   35.3820   28.8780   33.0790 C   0  0  0  0  0  0  0  0  0  0  0  0
   35.2760   30.2590   33.1840 C   0  0  0  0  0  0  0  0  0  0  0  0
   35.9070   31.0360   32.2490 C   0  0  0  0  0  0  0  0  0  0  0  0
   36.6310   30.4380   31.2280 C   0  0  0  0  0  0  0  0  0  0  0  0
   34.8890   28.2540   33.8120 H   0  0  0  0  0  0  0  0  0  0  0  0
   34.7140   30.7370   33.9760 H   0  0  0  0  0  0  0  0  0  0  0  0
   35.8680   32.1200   32.2660 H   0  0  0  0  0  0  0  0  0  0  0  0
   37.1250   31.0630   30.4950 H   0  0  0  0  0  0  0  0  0  0  0  0
   38.6040   22.7530   30.1620 Cl  0  0  0  0  0  0  0  0  0  0  0  0
   37.2450   21.8890   30.8590 C   0  0  0  0  0  0  0  0  0  0  0  0
   36.3210   22.6520   31.5440 C   0  0  0  0  0  0  0  0  0  0  0  0
   35.2320   21.9930   32.1070 C   0  0  0  0  0  0  0  0  0  0  0  0
   34.4530   22.5300   32.6680 H   0  0  0  0  0  0  0  0  0  0  0  0
   35.1220   20.6220   31.9610 C   0  0  0  0  0  0  0  0  0  0  0  0
   34.2630   20.0960   32.4040 H   0  0  0  0  0  0  0  0  0  0  0  0
   36.0590   19.8750   31.2700 C   0  0  0  0  0  3  0  0  0  0  0  0
   37.1560   20.5230   30.7000 C   0  0  0  0  0  3  0  0  0  0  0  0
  1  6  2  0  0  0  0
  1  2  1  0  0  0  0
  2  3  2  0  0  0  0
  3  4  1  0  0  0  0
  3  8  1  0  0  0  0
  5 11  1  0  0  0  0
  5  4  2  0  0  0  0
  6  5  1  0  0  0  0
  7  1  1  0  0  0  0
  9 10  1  0  0  0  0
 10 15  2  0  0  0  0
 10 11  1  0  0  0  0
 11 12  2  0  0  0  0
 12 13  1  0  0  0  0
 12 16  1  0  0  0  0
 13 17  1  0  0  0  0
 14 18  1  0  0  0  0
 14 13  2  0  0  0  0
 15 14  1  0  0  0  0
 19 15  1  0  0  0  0
 20 21  1  0  0  0  0
 21 22  1  0  0  0  0
 22  2  1  0  0  0  0
 22 23  2  0  0  0  0
 23 24  1  0  0  0  0
 25 23  1  0  0  0  0
 25 26  1  0  0  0  0
 27 25  2  0  0  0  0
 28 21  2  0  0  0  0
 28 27  1  0  0  0  0
M  END
>  <minimizedAffinity>
-5.34215689

$$$$

 OpenBabel03262523583D

 28 30  0  0  0  0  0  0  0  0999 V2000
   38.9330   27.1440   33.5090 C   0  0  0  0  0  0  0  0  0  0  0  0
   38.0780   26.6850   32.4650 C   0  0  0  0  0  0  0  0  0  0  0  0
   37.4380   25.4750   32.6720 C   0  0  0  0  0  0  0  0  0  0  0  0
   37.6350   24.7720   33.8320 N   0  0  0  0  0  0  0  0  0  0  0  0
   38.4680   25.2630   34.7980 C   0  0  0  0  0  0  0  0  0  0  0  0
   39.1120   26.4430   34.6380 N   0  0  0  0  0  0  0  0  0  0  0  0
   39.4570   28.0840   33.3990 H   0  0  0  0  0  0  0  0  0  0  0  0
   36.7880   25.1210   31.8820 H   0  0  0  0  0  0  0  0  0  0  0  0
   40.8430   23.2170   34.6330 Br  0  0  0  0  0  0  0  0  0  0  0  0
   39.7070   23.5970   36.1260 C   0  0  0  0  0  0  0  0  0  0  0  0
   38.6930   24.5380   36.0380 C   0  0  0  0  0  0  0  0  0  0  0  0
   37.9200   24.7520   37.1630 C   0  0  0  0  0  0  0  0  0  0  0  0
   38.1250   24.0660   38.3520 C   0  0  0  0  0  0  0  0  0  0  0  0
   39.1340   23.1420   38.4090 C   0  0  0  0  0  0  0  0  0  0  0  0
   39.9240   22.9110   37.2910 C   0  0  0  0  0  0  0  0  0  0  0  0
   37.1250   25.4840   37.1060 H   0  0  0  0  0  0  0  0  0  0  0  0
   37.5160   24.2360   39.2310 H   0  0  0  0  0  0  0  0  0  0  0  0
   39.3540   22.5680   39.3030 H   0  0  0  0  0  0  0  0  0  0  0  0
   40.7190   22.1780   37.3480 H   0  0  0  0  0  0  0  0  0  0  0  0
   35.8610   28.7830   32.3600 Cl  0  0  0  0  0  0  0  0  0  0  0  0
   37.0310   28.5100   31.0810 C   0  0  0  0  0  0  0  0  0  0  0  0
   37.9620   27.5160   31.3060 C   0  0  0  0  0  0  0  0  0  0  0  0
   38.9030   27.2780   30.3080 C   0  0  0  0  0  0  0  0  0  0  0  0
   39.6770   26.5040   30.4110 H   0  0  0  0  0  0  0  0  0  0  0  0
   38.8670   28.0350   29.1510 C   0  0  0  0  0  0  0  0  0  0  0  0
   39.6090   27.8500   28.3590 H   0  0  0  0  0  0  0  0  0  0  0  0
   37.9250   29.0260   28.9450 C   0  0  0  0  0  3  0  0  0  0  0  0
   36.9760   29.2760   29.9370 C   0  0  0  0  0  3  0  0  0  0  0  0
  1  6  1  0  0  0  0
  2  3  1  0  0  0  0
  2  1  2  0  0  0  0
  3  4  2  0  0  0  0
  4  5  1  0  0  0  0
  5 11  1  0  0  0  0
  6  5  2  0  0  0  0
  7  1  1  0  0  0  0
  8  3  1  0  0  0  0
  9 10  1  0  0  0  0
 10 15  1  0  0  0  0
 11 10  2  0  0  0  0
 11 12  1  0  0  0  0
 12 13  2  0  0  0  0
 13 14  1  0  0  0  0
 13 17  1  0  0  0  0
 14 18  1  0  0  0  0
 15 19  1  0  0  0  0
 15 14  2  0  0  0  0
 16 12  1  0  0  0  0
 21 22  1  0  0  0  0
 21 20  1  0  0  0  0
 22  2  1  0  0  0  0
 23 24  1  0  0  0  0
 23 22  2  0  0  0  0
 25 23  1  0  0  0  0
 26 25  1  0  0  0  0
 27 25  2  0  0  0  0
 27 28  1  0  0  0  0
 28 21  2  0  0  0  0
M  END
>  <minimizedAffinity>
-5.31424856

$$$$

 OpenBabel03262523583D

 28 30  0  0  0  0  0  0  0  0999 V2000
   37.6750   25.7330   32.7460 C   0  0  0  0  0  0  0  0  0  0  0  0
   38.5060   26.8550   32.4610 C   0  0  0  0  0  0  0  0  0  0  0  0
   39.4340   27.2040   33.4280 C   0  0  0  0  0  0  0  0  0  0  0  0
   39.5260   26.4880   34.5940 N   0  0  0  0  0  0  0  0  0  0  0  0
   38.7000   25.4220   34.8120 C   0  0  0  0  0  0  0  0  0  0  0  0
   37.7800   25.0460   33.8930 N   0  0  0  0  0  0  0  0  0  0  0  0
   36.9330   25.4180   32.0240 H   0  0  0  0  0  0  0  0  0  0  0  0
   40.0680   28.0550   33.2170 H   0  0  0  0  0  0  0  0  0  0  0  0
   40.8700   23.1540   34.7200 Br  0  0  0  0  0  0  0  0  0  0  0  0
   39.6880   23.6080   36.1570 C   0  0  0  0  0  0  0  0  0  0  0  0
   38.7780   24.6470   36.0400 C   0  0  0  0  0  0  0  0  0  0  0  0
   37.9640   24.9080   37.1240 C   0  0  0  0  0  0  0  0  0  0  0  0
   38.0280   24.1760   38.3010 C   0  0  0  0  0  0  0  0  0  0  0  0
   38.9370   23.1550   38.3870 C   0  0  0  0  0  0  0  0  0  0  0  0
   39.7660   22.8750   37.3100 C   0  0  0  0  0  0  0  0  0  0  0  0
   37.2490   25.7170   37.0440 H   0  0  0  0  0  0  0  0  0  0  0  0
   37.3870   24.3840   39.1480 H   0  0  0  0  0  0  0  0  0  0  0  0
   39.0450   22.5400   39.2750 H   0  0  0  0  0  0  0  0  0  0  0  0
   40.4800   22.0650   37.3910 H   0  0  0  0  0  0  0  0  0  0  0  0
   40.3830   26.2190   30.1370 Cl  0  0  0  0  0  0  0  0  0  0  0  0
   39.0470   27.3530   30.0520 C   0  0  0  0  0  0  0  0  0  0  0  0
   38.3050   27.5120   31.2060 C   0  0  0  0  0  0  0  0  0  0  0  0
   37.2390   28.4060   31.1680 C   0  0  0  0  0  0  0  0  0  0  0  0
   36.6010   28.5880   32.0450 H   0  0  0  0  0  0  0  0  0  0  0  0
   36.9690   29.0870   29.9950 C   0  0  0  0  0  0  0  0  0  0  0  0
   36.1270   29.7950   29.9590 H   0  0  0  0  0  0  0  0  0  0  0  0
   37.7250   28.9140   28.8490 C   0  0  0  0  0  3  0  0  0  0  0  0
   38.7970   28.0210   28.8730 C   0  0  0  0  0  3  0  0  0  0  0  0
  1  6  1  0  0  0  0
  2  1  2  0  0  0  0
  2  3  1  0  0  0  0
  3  4  2  0  0  0  0
  4  5  1  0  0  0  0
  5 11  1  0  0  0  0
  6  5  2  0  0  0  0
  7  1  1  0  0  0  0
  8  3  1  0  0  0  0
  9 10  1  0  0  0  0
 10 15  1  0  0  0  0
 11 10  2  0  0  0  0
 11 12  1  0  0  0  0
 12 13  2  0  0  0  0
 13 14  1  0  0  0  0
 13 17  1  0  0  0  0
 14 18  1  0  0  0  0
 15 19  1  0  0  0  0
 15 14  2  0  0  0  0
 16 12  1  0  0  0  0
 21 20  1  0  0  0  0
 21 22  1  0  0  0  0
 22  2  1  0  0  0  0
 23 22  2  0  0  0  0
 23 24  1  0  0  0  0
 25 23  1  0  0  0  0
 26 25  1  0  0  0  0
 27 28  1  0  0  0  0
 27 25  2  0  0  0  0
 28 21  2  0  0  0  0
M  END
>  <minimizedAffinity>
-5.28985167

$$$$
