
 OpenBabel03272506313D

 34 36  0  0  1  0  0  0  0  0999 V2000
   38.7310   24.7760   33.5980 C   0  0  1  0  0  0  0  0  0  0  0  0
   39.7380   25.7980   33.2210 C   0  0  0  0  0  0  0  0  0  0  0  0
   39.6530   27.1140   33.9000 C   0  0  0  0  0  0  0  0  0  0  0  0
   39.2010   27.1330   35.2990 C   0  0  0  0  0  0  0  0  0  0  0  0
   38.2220   26.1080   35.6830 C   0  0  0  0  0  0  0  0  0  0  0  0
   38.4210   24.7580   35.0490 C   0  0  2  0  0  0  0  0  0  0  0  0
   39.2110   23.7680   33.3780 H   0  0  0  0  0  0  0  0  0  0  0  0
   40.7820   25.4170   33.4760 H   0  0  0  0  0  0  0  0  0  0  0  0
   39.8500   26.0000   32.1500 H   0  0  0  0  0  0  0  0  0  0  0  0
   38.9760   27.7770   33.2920 H   0  0  0  0  0  0  0  0  0  0  0  0
   40.6380   27.6320   33.8470 H   0  0  0  0  0  0  0  0  0  0  0  0
   38.6940   28.1430   35.4640 H   0  0  0  0  0  0  0  0  0  0  0  0
   40.0450   27.1570   36.0040 H   0  0  0  0  0  0  0  0  0  0  0  0
   37.1900   26.4870   35.5130 H   0  0  0  0  0  0  0  0  0  0  0  0
   38.3010   25.9520   36.7800 H   0  0  0  0  0  0  0  0  0  0  0  0
   37.4480   24.2760   35.2110 H   0  0  0  0  0  0  0  0  0  0  0  0
   36.8560   25.8960   32.2880 C   0  0  0  0  0  0  0  0  0  0  0  0
   37.5260   24.7370   32.7300 C   0  0  0  0  0  0  0  0  0  0  0  0
   37.0010   23.5250   32.3340 C   0  0  0  0  0  0  0  0  0  0  0  0
   35.8880   23.4740   31.5560 N   0  0  0  0  0  0  0  0  0  0  0  0
   35.2800   24.6270   31.1590 C   0  0  0  0  0  0  0  0  0  0  0  0
   35.7660   25.8230   31.5250 N   0  0  0  0  0  0  0  0  0  0  0  0
   37.1920   26.8810   32.5430 H   0  0  0  0  0  0  0  0  0  0  0  0
   37.3140   22.5300   32.5210 H   0  0  0  0  0  0  0  0  0  0  0  0
   34.3830   24.6350   30.5350 H   0  0  0  0  0  0  0  0  0  0  0  0
   37.6620   23.9300   37.9700 Cl  0  0  0  0  0  0  0  0  0  0  0  0
   39.1110   23.4390   37.1240 C   0  0  0  0  0  0  0  0  0  0  0  0
   39.3490   23.8810   35.8370 C   0  0  0  0  0  0  0  0  0  0  0  0
   40.5380   23.4040   35.3480 C   0  0  0  0  0  0  0  0  0  0  0  0
   40.8930   23.6300   34.3700 H   0  0  0  0  0  0  0  0  0  0  0  0
   41.4110   22.5850   36.0250 C   0  0  0  0  0  0  0  0  0  0  0  0
   42.3490   22.2180   35.6180 H   0  0  0  0  0  0  0  0  0  0  0  0
   41.1120   22.1810   37.3040 C   0  0  0  0  0  3  0  0  0  0  0  0
   39.9320   22.6200   37.8660 C   0  0  0  0  0  3  0  0  0  0  0  0
  1  7  1  6  0  0  0
  1  6  1  0  0  0  0
  2  8  1  0  0  0  0
  2  1  1  0  0  0  0
  2  3  1  0  0  0  0
  3  4  1  0  0  0  0
  4 12  1  0  0  0  0
  4  5  1  0  0  0  0
  4 13  1  0  0  0  0
  5 15  1  0  0  0  0
  6 16  1  1  0  0  0
  6  5  1  0  0  0  0
  6 28  1  0  0  0  0
  9  2  1  0  0  0  0
 10  3  1  0  0  0  0
 11  3  1  0  0  0  0
 14  5  1  0  0  0  0
 17 23  1  0  0  0  0
 17 18  1  0  0  0  0
 18  1  1  0  0  0  0
 19 24  1  0  0  0  0
 19 18  2  0  0  0  0
 20 19  1  0  0  0  0
 21 22  1  0  0  0  0
 21 20  2  0  0  0  0
 22 17  2  0  0  0  0
 25 21  1  0  0  0  0
 27 34  1  0  0  0  0
 27 26  1  0  0  0  0
 28 27  2  0  0  0  0
 29 28  1  0  0  0  0
 29 31  2  0  0  0  0
 30 29  1  0  0  0  0
 31 33  1  0  0  0  0
 32 31  1  0  0  0  0
 33 34  2  0  0  0  0
M  END
>  <minimizedAffinity>
-5.63859653

$$$$

 OpenBabel03272506313D

 34 36  0  0  1  0  0  0  0  0999 V2000
   38.2400   24.5200   35.1250 C   0  0  1  0  0  0  0  0  0  0  0  0
   37.8900   25.7430   35.8890 C   0  0  0  0  0  0  0  0  0  0  0  0
   38.7280   26.9450   35.6630 C   0  0  0  0  0  0  0  0  0  0  0  0
   39.2660   27.1560   34.3110 C   0  0  0  0  0  0  0  0  0  0  0  0
   39.5920   25.9490   33.5410 C   0  0  0  0  0  0  0  0  0  0  0  0
   38.6440   24.7940   33.7240 C   0  0  2  0  0  0  0  0  0  0  0  0
   37.2800   23.9140   35.0490 H   0  0  0  0  0  0  0  0  0  0  0  0
   36.8350   26.0770   35.6120 H   0  0  0  0  0  0  0  0  0  0  0  0
   37.7880   25.6260   36.9740 H   0  0  0  0  0  0  0  0  0  0  0  0
   39.5830   26.9160   36.3930 H   0  0  0  0  0  0  0  0  0  0  0  0
   38.1650   27.8600   35.9580 H   0  0  0  0  0  0  0  0  0  0  0  0
   40.2440   27.7330   34.4370 H   0  0  0  0  0  0  0  0  0  0  0  0
   38.6420   27.8450   33.7220 H   0  0  0  0  0  0  0  0  0  0  0  0
   40.6430   25.6450   33.7380 H   0  0  0  0  0  0  0  0  0  0  0  0
   39.5590   26.2120   32.4620 H   0  0  0  0  0  0  0  0  0  0  0  0
   39.2270   23.9480   33.3370 H   0  0  0  0  0  0  0  0  0  0  0  0
   39.1760   23.4490   37.2360 C   0  0  0  0  0  0  0  0  0  0  0  0
   39.1420   23.5770   35.8330 C   0  0  0  0  0  0  0  0  0  0  0  0
   40.0150   22.7870   35.1140 C   0  0  0  0  0  0  0  0  0  0  0  0
   40.8600   21.9340   35.7500 N   0  0  0  0  0  0  0  0  0  0  0  0
   40.8500   21.8520   37.1100 C   0  0  0  0  0  0  0  0  0  0  0  0
   40.0120   22.6050   37.8400 N   0  0  0  0  0  0  0  0  0  0  0  0
   38.5330   24.0190   37.8760 H   0  0  0  0  0  0  0  0  0  0  0  0
   40.1790   22.6920   34.0720 H   0  0  0  0  0  0  0  0  0  0  0  0
   41.5120   21.1820   37.6650 H   0  0  0  0  0  0  0  0  0  0  0  0
   37.4310   22.1300   32.6160 Cl  0  0  0  0  0  0  0  0  0  0  0  0
   36.8580   23.7380   32.2370 C   0  0  0  0  0  0  0  0  0  0  0  0
   37.4830   24.8450   32.7750 C   0  0  0  0  0  0  0  0  0  0  0  0
   36.9010   26.0130   32.3520 C   0  0  0  0  0  0  0  0  0  0  0  0
   37.2410   26.9730   32.6630 H   0  0  0  0  0  0  0  0  0  0  0  0
   35.8270   26.1090   31.4990 C   0  0  0  0  0  0  0  0  0  0  0  0
   35.3820   27.0450   31.1770 H   0  0  0  0  0  0  0  0  0  0  0  0
   35.2510   24.9660   30.9990 C   0  0  0  0  0  3  0  0  0  0  0  0
   35.7800   23.7500   31.3790 C   0  0  0  0  0  3  0  0  0  0  0  0
  1  7  1  6  0  0  0
  1 18  1  0  0  0  0
  1  2  1  0  0  0  0
  2  9  1  0  0  0  0
  3  2  1  0  0  0  0
  3 11  1  0  0  0  0
  3 10  1  0  0  0  0
  4 12  1  0  0  0  0
  4  3  1  0  0  0  0
  5  6  1  0  0  0  0
  5 14  1  0  0  0  0
  5  4  1  0  0  0  0
  6 16  1  6  0  0  0
  6  1  1  0  0  0  0
  8  2  1  0  0  0  0
 13  4  1  0  0  0  0
 15  5  1  0  0  0  0
 17 22  1  0  0  0  0
 17 23  1  0  0  0  0
 18 17  2  0  0  0  0
 19 20  2  0  0  0  0
 19 18  1  0  0  0  0
 20 21  1  0  0  0  0
 21 25  1  0  0  0  0
 21 22  2  0  0  0  0
 24 19  1  0  0  0  0
 27 26  1  0  0  0  0
 27 28  1  0  0  0  0
 28  6  1  0  0  0  0
 29 30  1  0  0  0  0
 29 28  2  0  0  0  0
 31 29  1  0  0  0  0
 32 31  1  0  0  0  0
 33 34  1  0  0  0  0
 33 31  2  0  0  0  0
 34 27  2  0  0  0  0
M  END
>  <minimizedAffinity>
-5.44238567

$$$$

 OpenBabel03272506313D

 34 36  0  0  1  0  0  0  0  0999 V2000
   38.0430   26.2100   34.9370 C   0  0  1  0  0  0  0  0  0  0  0  0
   39.2640   26.9480   35.3440 C   0  0  0  0  0  0  0  0  0  0  0  0
   40.3400   27.0850   34.3330 C   0  0  0  0  0  0  0  0  0  0  0  0
   39.9410   27.2180   32.9240 C   0  0  0  0  0  0  0  0  0  0  0  0
   38.7200   26.5090   32.5220 C   0  0  0  0  0  0  0  0  0  0  0  0
   37.6160   26.4960   33.5450 C   0  0  2  0  0  0  0  0  0  0  0  0
   37.2050   26.6050   35.5980 H   0  0  0  0  0  0  0  0  0  0  0  0
   38.9890   28.0230   35.6110 H   0  0  0  0  0  0  0  0  0  0  0  0
   39.7420   26.6230   36.2750 H   0  0  0  0  0  0  0  0  0  0  0  0
   41.0270   26.1980   34.4330 H   0  0  0  0  0  0  0  0  0  0  0  0
   40.9950   27.9490   34.5910 H   0  0  0  0  0  0  0  0  0  0  0  0
   40.7910   26.7770   32.3020 H   0  0  0  0  0  0  0  0  0  0  0  0
   39.9120   28.2690   32.6020 H   0  0  0  0  0  0  0  0  0  0  0  0
   38.9720   25.4790   32.1860 H   0  0  0  0  0  0  0  0  0  0  0  0
   38.3080   27.0180   31.6250 H   0  0  0  0  0  0  0  0  0  0  0  0
   36.9700   25.6840   33.1840 H   0  0  0  0  0  0  0  0  0  0  0  0
   38.2660   23.7490   34.3230 C   0  0  0  0  0  0  0  0  0  0  0  0
   38.0450   24.7640   35.2760 C   0  0  0  0  0  0  0  0  0  0  0  0
   37.8040   24.3590   36.5720 C   0  0  0  0  0  0  0  0  0  0  0  0
   37.7840   23.0390   36.8920 N   0  0  0  0  0  0  0  0  0  0  0  0
   38.0040   22.1010   35.9290 C   0  0  0  0  0  0  0  0  0  0  0  0
   38.2430   22.4590   34.6580 N   0  0  0  0  0  0  0  0  0  0  0  0
   38.4640   23.9680   33.2920 H   0  0  0  0  0  0  0  0  0  0  0  0
   37.6190   24.9120   37.4560 H   0  0  0  0  0  0  0  0  0  0  0  0
   37.9960   21.0280   36.1390 H   0  0  0  0  0  0  0  0  0  0  0  0
   36.1650   27.1090   30.8410 Cl  0  0  0  0  0  0  0  0  0  0  0  0
   36.0140   28.0500   32.3060 C   0  0  0  0  0  0  0  0  0  0  0  0
   36.7170   27.6920   33.4390 C   0  0  0  0  0  0  0  0  0  0  0  0
   36.4800   28.5560   34.4780 C   0  0  0  0  0  0  0  0  0  0  0  0
   36.9280   28.4430   35.4380 H   0  0  0  0  0  0  0  0  0  0  0  0
   35.6520   29.6530   34.4350 C   0  0  0  0  0  0  0  0  0  0  0  0
   35.4790   30.3240   35.2710 H   0  0  0  0  0  0  0  0  0  0  0  0
   34.9810   29.9530   33.2730 C   0  0  0  0  0  3  0  0  0  0  0  0
   35.1670   29.1300   32.1830 C   0  0  0  0  0  3  0  0  0  0  0  0
  1 18  1  0  0  0  0
  1  2  1  0  0  0  0
  1  7  1  1  0  0  0
  2  8  1  0  0  0  0
  2  9  1  0  0  0  0
  3 10  1  0  0  0  0
  3 11  1  0  0  0  0
  3  2  1  0  0  0  0
  4  3  1  0  0  0  0
  5  4  1  0  0  0  0
  5  6  1  0  0  0  0
  6 16  1  6  0  0  0
  6  1  1  0  0  0  0
 12  4  1  0  0  0  0
 13  4  1  0  0  0  0
 14  5  1  0  0  0  0
 15  5  1  0  0  0  0
 17 22  2  0  0  0  0
 17 18  1  0  0  0  0
 18 19  2  0  0  0  0
 19 20  1  0  0  0  0
 19 24  1  0  0  0  0
 21 25  1  0  0  0  0
 21 20  2  0  0  0  0
 22 21  1  0  0  0  0
 23 17  1  0  0  0  0
 26 27  1  0  0  0  0
 27 28  1  0  0  0  0
 28  6  1  0  0  0  0
 28 29  2  0  0  0  0
 29 30  1  0  0  0  0
 31 29  1  0  0  0  0
 31 32  1  0  0  0  0
 33 31  2  0  0  0  0
 34 27  2  0  0  0  0
 34 33  1  0  0  0  0
M  END
>  <minimizedAffinity>
-5.40060425

$$$$

 OpenBabel03272506313D

 34 36  0  0  1  0  0  0  0  0999 V2000
   38.3960   24.3260   35.2150 C   0  0  1  0  0  0  0  0  0  0  0  0
   37.9410   25.4700   36.0440 C   0  0  0  0  0  0  0  0  0  0  0  0
   38.6720   26.7510   35.8870 C   0  0  0  0  0  0  0  0  0  0  0  0
   39.1900   27.0810   34.5510 C   0  0  0  0  0  0  0  0  0  0  0  0
   39.6190   25.9510   33.7180 C   0  0  0  0  0  0  0  0  0  0  0  0
   38.7750   24.7100   33.8340 C   0  0  2  0  0  0  0  0  0  0  0  0
   37.4920   23.6430   35.1020 H   0  0  0  0  0  0  0  0  0  0  0  0
   36.8610   25.7270   35.7800 H   0  0  0  0  0  0  0  0  0  0  0  0
   37.8500   25.2860   37.1200 H   0  0  0  0  0  0  0  0  0  0  0  0
   39.5270   26.7560   36.6180 H   0  0  0  0  0  0  0  0  0  0  0  0
   38.0320   27.5960   36.2290 H   0  0  0  0  0  0  0  0  0  0  0  0
   40.1140   27.7330   34.7120 H   0  0  0  0  0  0  0  0  0  0  0  0
   38.5090   27.7450   33.9980 H   0  0  0  0  0  0  0  0  0  0  0  0
   40.6930   25.7280   33.9030 H   0  0  0  0  0  0  0  0  0  0  0  0
   39.5630   26.2680   32.6550 H   0  0  0  0  0  0  0  0  0  0  0  0
   39.4290   23.9400   33.4040 H   0  0  0  0  0  0  0  0  0  0  0  0
   40.3280   22.6690   35.1640 C   0  0  0  0  0  0  0  0  0  0  0  0
   39.3770   23.4270   35.8750 C   0  0  0  0  0  0  0  0  0  0  0  0
   39.3730   23.2910   37.2480 C   0  0  0  0  0  0  0  0  0  0  0  0
   40.2510   22.4570   37.8630 N   0  0  0  0  0  0  0  0  0  0  0  0
   41.1500   21.7480   37.1240 C   0  0  0  0  0  0  0  0  0  0  0  0
   41.1830   21.8580   35.7870 N   0  0  0  0  0  0  0  0  0  0  0  0
   40.4080   22.7120   34.0950 H   0  0  0  0  0  0  0  0  0  0  0  0
   38.7750   23.7450   37.9960 H   0  0  0  0  0  0  0  0  0  0  0  0
   41.8750   21.0650   37.5750 H   0  0  0  0  0  0  0  0  0  0  0  0
   37.6560   21.9950   32.7490 Cl  0  0  0  0  0  0  0  0  0  0  0  0
   37.0270   23.5780   32.3550 C   0  0  0  0  0  0  0  0  0  0  0  0
   37.6140   24.7110   32.8830 C   0  0  0  0  0  0  0  0  0  0  0  0
   36.9920   25.8550   32.4490 C   0  0  0  0  0  0  0  0  0  0  0  0
   37.2980   26.8290   32.7510 H   0  0  0  0  0  0  0  0  0  0  0  0
   35.9170   25.9060   31.5950 C   0  0  0  0  0  0  0  0  0  0  0  0
   35.4390   26.8230   31.2630 H   0  0  0  0  0  0  0  0  0  0  0  0
   35.3800   24.7390   31.1050 C   0  0  0  0  0  3  0  0  0  0  0  0
   35.9510   23.5460   31.4960 C   0  0  0  0  0  3  0  0  0  0  0  0
  1  7  1  6  0  0  0
  1 18  1  0  0  0  0
  1  2  1  0  0  0  0
  2  9  1  0  0  0  0
  3  2  1  0  0  0  0
  3 11  1  0  0  0  0
  3 10  1  0  0  0  0
  4 12  1  0  0  0  0
  4  3  1  0  0  0  0
  5  6  1  0  0  0  0
  5 14  1  0  0  0  0
  5  4  1  0  0  0  0
  6 16  1  6  0  0  0
  6  1  1  0  0  0  0
  8  2  1  0  0  0  0
 13  4  1  0  0  0  0
 15  5  1  0  0  0  0
 17 22  2  0  0  0  0
 17 18  1  0  0  0  0
 18 19  2  0  0  0  0
 19 20  1  0  0  0  0
 19 24  1  0  0  0  0
 21 25  1  0  0  0  0
 21 20  2  0  0  0  0
 22 21  1  0  0  0  0
 23 17  1  0  0  0  0
 27 26  1  0  0  0  0
 27 28  1  0  0  0  0
 28  6  1  0  0  0  0
 29 30  1  0  0  0  0
 29 28  2  0  0  0  0
 31 29  1  0  0  0  0
 32 31  1  0  0  0  0
 33 34  1  0  0  0  0
 33 31  2  0  0  0  0
 34 27  2  0  0  0  0
M  END
>  <minimizedAffinity>
-5.31535339

$$$$

 OpenBabel03272506313D

 34 36  0  0  1  0  0  0  0  0999 V2000
   35.8150   29.5450   33.2310 C   0  0  1  0  0  0  0  0  0  0  0  0
   36.0130   30.4920   32.1060 C   0  0  0  0  0  0  0  0  0  0  0  0
   34.8390   30.7720   31.2440 C   0  0  0  0  0  0  0  0  0  0  0  0
   33.5130   30.7870   31.8800 C   0  0  0  0  0  0  0  0  0  0  0  0
   33.3200   29.8690   33.0090 C   0  0  0  0  0  0  0  0  0  0  0  0
   34.5100   29.7060   33.9170 C   0  0  2  0  0  0  0  0  0  0  0  0
   36.6010   29.8150   34.0090 H   0  0  0  0  0  0  0  0  0  0  0  0
   36.3130   31.5130   32.5150 H   0  0  0  0  0  0  0  0  0  0  0  0
   36.8560   30.2840   31.4370 H   0  0  0  0  0  0  0  0  0  0  0  0
   34.8320   30.0180   30.4090 H   0  0  0  0  0  0  0  0  0  0  0  0
   34.9810   31.7430   30.7160 H   0  0  0  0  0  0  0  0  0  0  0  0
   32.7640   30.4740   31.0770 H   0  0  0  0  0  0  0  0  0  0  0  0
   33.1930   31.8070   32.1400 H   0  0  0  0  0  0  0  0  0  0  0  0
   32.9550   28.8850   32.6410 H   0  0  0  0  0  0  0  0  0  0  0  0
   32.4990   30.2700   33.6400 H   0  0  0  0  0  0  0  0  0  0  0  0
   34.2640   28.7850   34.4630 H   0  0  0  0  0  0  0  0  0  0  0  0
   35.7730   27.4840   31.7360 C   0  0  0  0  0  0  0  0  0  0  0  0
   36.1590   28.1320   32.9270 C   0  0  0  0  0  0  0  0  0  0  0  0
   36.8750   27.3850   33.8390 C   0  0  0  0  0  0  0  0  0  0  0  0
   37.1790   26.0860   33.5820 N   0  0  0  0  0  0  0  0  0  0  0  0
   36.7790   25.5100   32.4140 C   0  0  0  0  0  0  0  0  0  0  0  0
   36.0830   26.2090   31.5040 N   0  0  0  0  0  0  0  0  0  0  0  0
   35.2180   27.9850   30.9680 H   0  0  0  0  0  0  0  0  0  0  0  0
   37.2790   27.6340   34.7860 H   0  0  0  0  0  0  0  0  0  0  0  0
   37.0000   24.4690   32.1650 H   0  0  0  0  0  0  0  0  0  0  0  0
   32.2120   29.7770   36.0410 Cl  0  0  0  0  0  0  0  0  0  0  0  0
   33.5970   30.8440   36.0130 C   0  0  0  0  0  0  0  0  0  0  0  0
   34.5430   30.7290   35.0140 C   0  0  0  0  0  0  0  0  0  0  0  0
   35.5430   31.6580   35.1520 C   0  0  0  0  0  0  0  0  0  0  0  0
   36.3670   31.7250   34.4810 H   0  0  0  0  0  0  0  0  0  0  0  0
   35.6260   32.6020   36.1490 C   0  0  0  0  0  0  0  0  0  0  0  0
   36.4280   33.3290   36.2390 H   0  0  0  0  0  0  0  0  0  0  0  0
   34.6490   32.6610   37.1130 C   0  0  0  0  0  3  0  0  0  0  0  0
   33.6090   31.7580   37.0420 C   0  0  0  0  0  3  0  0  0  0  0  0
  1  6  1  0  0  0  0
  1  7  1  1  0  0  0
  2  8  1  0  0  0  0
  2  1  1  0  0  0  0
  3  4  1  0  0  0  0
  3  2  1  0  0  0  0
  4 13  1  0  0  0  0
  4  5  1  0  0  0  0
  5 15  1  0  0  0  0
  5  6  1  0  0  0  0
  6 16  1  1  0  0  0
  6 28  1  0  0  0  0
  9  2  1  0  0  0  0
 10  3  1  0  0  0  0
 11  3  1  0  0  0  0
 12  4  1  0  0  0  0
 14  5  1  0  0  0  0
 17 18  1  0  0  0  0
 18  1  1  0  0  0  0
 18 19  2  0  0  0  0
 19 24  1  0  0  0  0
 20 19  1  0  0  0  0
 21 20  2  0  0  0  0
 22 17  2  0  0  0  0
 22 21  1  0  0  0  0
 23 17  1  0  0  0  0
 25 21  1  0  0  0  0
 27 26  1  0  0  0  0
 27 34  1  0  0  0  0
 28 29  1  0  0  0  0
 28 27  2  0  0  0  0
 29 31  2  0  0  0  0
 30 29  1  0  0  0  0
 31 32  1  0  0  0  0
 31 33  1  0  0  0  0
 34 33  2  0  0  0  0
M  END
>  <minimizedAffinity>
-5.22056484

$$$$

 OpenBabel03272506313D

 34 36  0  0  1  0  0  0  0  0999 V2000
   38.8260   25.4780   33.7440 C   0  0  1  0  0  0  0  0  0  0  0  0
   38.8290   26.9480   33.9470 C   0  0  0  0  0  0  0  0  0  0  0  0
   38.1800   27.4610   35.1780 C   0  0  0  0  0  0  0  0  0  0  0  0
   38.2710   26.6370   36.3930 C   0  0  0  0  0  0  0  0  0  0  0  0
   38.2930   25.1830   36.1950 C   0  0  0  0  0  0  0  0  0  0  0  0
   39.0610   24.7090   34.9900 C   0  0  2  0  0  0  0  0  0  0  0  0
   39.7210   25.2540   33.0770 H   0  0  0  0  0  0  0  0  0  0  0  0
   39.9050   27.3210   34.0190 H   0  0  0  0  0  0  0  0  0  0  0  0
   38.4570   27.5560   33.1150 H   0  0  0  0  0  0  0  0  0  0  0  0
   37.0950   27.6480   34.9470 H   0  0  0  0  0  0  0  0  0  0  0  0
   38.5730   28.4770   35.4180 H   0  0  0  0  0  0  0  0  0  0  0  0
   37.3390   26.8660   37.0120 H   0  0  0  0  0  0  0  0  0  0  0  0
   39.0940   26.9600   37.0480 H   0  0  0  0  0  0  0  0  0  0  0  0
   37.2550   24.7840   36.1960 H   0  0  0  0  0  0  0  0  0  0  0  0
   38.7860   24.7250   37.0790 H   0  0  0  0  0  0  0  0  0  0  0  0
   38.6900   23.6820   34.8640 H   0  0  0  0  0  0  0  0  0  0  0  0
   37.4450   23.5890   32.7420 C   0  0  0  0  0  0  0  0  0  0  0  0
   37.6990   24.9630   32.9270 C   0  0  0  0  0  0  0  0  0  0  0  0
   36.8490   25.8440   32.2900 C   0  0  0  0  0  0  0  0  0  0  0  0
   35.8250   25.3860   31.5240 N   0  0  0  0  0  0  0  0  0  0  0  0
   35.6280   24.0450   31.3800 C   0  0  0  0  0  0  0  0  0  0  0  0
   36.4340   23.1600   31.9870 N   0  0  0  0  0  0  0  0  0  0  0  0
   38.0500   22.8310   33.2000 H   0  0  0  0  0  0  0  0  0  0  0  0
   36.8210   26.9020   32.2740 H   0  0  0  0  0  0  0  0  0  0  0  0
   34.8190   23.6300   30.7730 H   0  0  0  0  0  0  0  0  0  0  0  0
   39.9720   22.0930   36.4470 Cl  0  0  0  0  0  0  0  0  0  0  0  0
   41.0340   23.3700   35.9020 C   0  0  0  0  0  0  0  0  0  0  0  0
   40.5160   24.4890   35.2830 C   0  0  0  0  0  0  0  0  0  0  0  0
   41.5000   25.3830   34.9410 C   0  0  0  0  0  0  0  0  0  0  0  0
   41.2970   26.3050   34.4490 H   0  0  0  0  0  0  0  0  0  0  0  0
   42.8450   25.2180   35.1710 C   0  0  0  0  0  0  0  0  0  0  0  0
   43.6080   25.9390   34.8920 H   0  0  0  0  0  0  0  0  0  0  0  0
   43.2940   24.0780   35.7940 C   0  0  0  0  0  3  0  0  0  0  0  0
   42.3650   23.1310   36.1680 C   0  0  0  0  0  3  0  0  0  0  0  0
  1  7  1  6  0  0  0
  1  2  1  0  0  0  0
  1  6  1  0  0  0  0
  2  8  1  0  0  0  0
  2  3  1  0  0  0  0
  3 11  1  0  0  0  0
  3  4  1  0  0  0  0
  4 12  1  0  0  0  0
  4 13  1  0  0  0  0
  5 14  1  0  0  0  0
  5  4  1  0  0  0  0
  5 15  1  0  0  0  0
  6 16  1  6  0  0  0
  6 28  1  0  0  0  0
  6  5  1  0  0  0  0
  9  2  1  0  0  0  0
 10  3  1  0  0  0  0
 17 18  1  0  0  0  0
 17 23  1  0  0  0  0
 18  1  1  0  0  0  0
 19 18  2  0  0  0  0
 20 19  1  0  0  0  0
 21 20  2  0  0  0  0
 21 22  1  0  0  0  0
 22 17  2  0  0  0  0
 24 19  1  0  0  0  0
 25 21  1  0  0  0  0
 27 34  1  0  0  0  0
 27 26  1  0  0  0  0
 28 27  2  0  0  0  0
 29 31  2  0  0  0  0
 29 28  1  0  0  0  0
 30 29  1  0  0  0  0
 31 33  1  0  0  0  0
 32 31  1  0  0  0  0
 33 34  2  0  0  0  0
M  END
>  <minimizedAffinity>
-5.1324482

$$$$

 OpenBabel03272506313D

 34 36  0  0  1  0  0  0  0  0999 V2000
   37.8190   26.6510   33.3600 C   0  0  1  0  0  0  0  0  0  0  0  0
   38.9660   26.6380   32.4200 C   0  0  0  0  0  0  0  0  0  0  0  0
   40.2600   27.1560   32.9250 C   0  0  0  0  0  0  0  0  0  0  0  0
   40.5800   26.9280   34.3430 C   0  0  0  0  0  0  0  0  0  0  0  0
   39.4450   26.9160   35.2740 C   0  0  0  0  0  0  0  0  0  0  0  0
   38.1870   26.2780   34.7480 C   0  0  2  0  0  0  0  0  0  0  0  0
   37.1140   25.8310   33.0040 H   0  0  0  0  0  0  0  0  0  0  0  0
   39.1930   25.5640   32.1100 H   0  0  0  0  0  0  0  0  0  0  0  0
   38.7990   27.1020   31.4410 H   0  0  0  0  0  0  0  0  0  0  0  0
   40.2980   28.2610   32.7180 H   0  0  0  0  0  0  0  0  0  0  0  0
   41.0970   26.7480   32.3120 H   0  0  0  0  0  0  0  0  0  0  0  0
   41.2550   27.7900   34.6660 H   0  0  0  0  0  0  0  0  0  0  0  0
   41.2180   26.0430   34.4840 H   0  0  0  0  0  0  0  0  0  0  0  0
   39.2510   27.9450   35.6490 H   0  0  0  0  0  0  0  0  0  0  0  0
   39.7430   26.3280   36.1680 H   0  0  0  0  0  0  0  0  0  0  0  0
   37.4250   26.6530   35.4450 H   0  0  0  0  0  0  0  0  0  0  0  0
   36.7600   28.5830   32.0830 C   0  0  0  0  0  0  0  0  0  0  0  0
   36.9550   27.8560   33.2750 C   0  0  0  0  0  0  0  0  0  0  0  0
   36.3110   28.3240   34.4020 C   0  0  0  0  0  0  0  0  0  0  0  0
   35.5330   29.4360   34.3430 N   0  0  0  0  0  0  0  0  0  0  0  0
   35.3810   30.1000   33.1630 C   0  0  0  0  0  0  0  0  0  0  0  0
   35.9910   29.6710   32.0470 N   0  0  0  0  0  0  0  0  0  0  0  0
   37.2170   28.2930   31.1580 H   0  0  0  0  0  0  0  0  0  0  0  0
   36.2890   27.9620   35.3970 H   0  0  0  0  0  0  0  0  0  0  0  0
   34.7670   30.9990   33.0670 H   0  0  0  0  0  0  0  0  0  0  0  0
   38.0020   25.1950   37.6780 Cl  0  0  0  0  0  0  0  0  0  0  0  0
   38.0470   24.2080   36.2360 C   0  0  0  0  0  0  0  0  0  0  0  0
   38.1450   24.7990   34.9920 C   0  0  0  0  0  0  0  0  0  0  0  0
   38.1810   23.8650   33.9870 C   0  0  0  0  0  0  0  0  0  0  0  0
   38.2500   24.1260   32.9570 H   0  0  0  0  0  0  0  0  0  0  0  0
   38.1260   22.5020   34.1590 C   0  0  0  0  0  0  0  0  0  0  0  0
   38.1560   21.7790   33.3490 H   0  0  0  0  0  0  0  0  0  0  0  0
   38.0280   21.9800   35.4270 C   0  0  0  0  0  3  0  0  0  0  0  0
   37.9870   22.8560   36.4910 C   0  0  0  0  0  3  0  0  0  0  0  0
  1  7  1  6  0  0  0
  1  6  1  0  0  0  0
  2  3  1  0  0  0  0
  2  1  1  0  0  0  0
  3  4  1  0  0  0  0
  4 13  1  0  0  0  0
  4 12  1  0  0  0  0
  4  5  1  0  0  0  0
  5 14  1  0  0  0  0
  5 15  1  0  0  0  0
  6 28  1  0  0  0  0
  6  5  1  0  0  0  0
  6 16  1  1  0  0  0
  8  2  1  0  0  0  0
  9  2  1  0  0  0  0
 10  3  1  0  0  0  0
 11  3  1  0  0  0  0
 17 18  1  0  0  0  0
 18  1  1  0  0  0  0
 18 19  2  0  0  0  0
 19 24  1  0  0  0  0
 20 19  1  0  0  0  0
 21 20  2  0  0  0  0
 22 17  2  0  0  0  0
 22 21  1  0  0  0  0
 23 17  1  0  0  0  0
 25 21  1  0  0  0  0
 27 34  1  0  0  0  0
 27 26  1  0  0  0  0
 28 27  2  0  0  0  0
 29 31  2  0  0  0  0
 29 28  1  0  0  0  0
 30 29  1  0  0  0  0
 31 33  1  0  0  0  0
 32 31  1  0  0  0  0
 33 34  2  0  0  0  0
M  END
>  <minimizedAffinity>
-5.10522795

$$$$

 OpenBabel03272506313D

 34 36  0  0  1  0  0  0  0  0999 V2000
   40.0510   26.4160   34.8900 C   0  0  1  0  0  0  0  0  0  0  0  0
   38.9430   27.4030   34.8970 C   0  0  0  0  0  0  0  0  0  0  0  0
   37.8220   27.1680   33.9550 C   0  0  0  0  0  0  0  0  0  0  0  0
   37.4490   25.7740   33.6720 C   0  0  0  0  0  0  0  0  0  0  0  0
   38.5380   24.7900   33.6880 C   0  0  0  0  0  0  0  0  0  0  0  0
   39.5920   25.0140   34.7380 C   0  0  2  0  0  0  0  0  0  0  0  0
   40.5230   26.4700   35.9240 H   0  0  0  0  0  0  0  0  0  0  0  0
   38.4490   27.4150   35.9250 H   0  0  0  0  0  0  0  0  0  0  0  0
   39.2280   28.4560   34.7960 H   0  0  0  0  0  0  0  0  0  0  0  0
   38.0700   27.6810   32.9840 H   0  0  0  0  0  0  0  0  0  0  0  0
   36.9120   27.7060   34.3070 H   0  0  0  0  0  0  0  0  0  0  0  0
   37.0160   25.7610   32.6150 H   0  0  0  0  0  0  0  0  0  0  0  0
   36.6050   25.4400   34.2940 H   0  0  0  0  0  0  0  0  0  0  0  0
   38.9880   24.7060   32.6740 H   0  0  0  0  0  0  0  0  0  0  0  0
   38.0960   23.7930   33.8970 H   0  0  0  0  0  0  0  0  0  0  0  0
   40.4220   24.3920   34.3740 H   0  0  0  0  0  0  0  0  0  0  0  0
   41.0610   27.5450   32.8430 C   0  0  0  0  0  0  0  0  0  0  0  0
   41.1960   26.7680   34.0120 C   0  0  0  0  0  0  0  0  0  0  0  0
   42.4630   26.3150   34.3150 C   0  0  0  0  0  0  0  0  0  0  0  0
   43.5160   26.6130   33.5100 N   0  0  0  0  0  0  0  0  0  0  0  0
   43.3260   27.3680   32.3920 C   0  0  0  0  0  0  0  0  0  0  0  0
   42.1070   27.8270   32.0680 N   0  0  0  0  0  0  0  0  0  0  0  0
   40.1160   27.9430   32.5290 H   0  0  0  0  0  0  0  0  0  0  0  0
   42.8240   25.7320   35.1230 H   0  0  0  0  0  0  0  0  0  0  0  0
   44.1420   27.6320   31.7140 H   0  0  0  0  0  0  0  0  0  0  0  0
   41.4620   22.7830   35.8900 Cl  0  0  0  0  0  0  0  0  0  0  0  0
   40.0090   23.3810   36.6570 C   0  0  0  0  0  0  0  0  0  0  0  0
   39.2520   24.3600   36.0450 C   0  0  0  0  0  0  0  0  0  0  0  0
   38.1470   24.6870   36.7900 C   0  0  0  0  0  0  0  0  0  0  0  0
   37.4440   25.4270   36.4870 H   0  0  0  0  0  0  0  0  0  0  0  0
   37.8040   24.1310   37.9990 C   0  0  0  0  0  0  0  0  0  0  0  0
   36.9240   24.4050   38.5730 H   0  0  0  0  0  0  0  0  0  0  0  0
   38.6030   23.1590   38.5530 C   0  0  0  0  0  3  0  0  0  0  0  0
   39.7340   22.7760   37.8630 C   0  0  0  0  0  3  0  0  0  0  0  0
  1  2  1  0  0  0  0
  1  7  1  1  0  0  0
  2  8  1  0  0  0  0
  3 11  1  0  0  0  0
  3  2  1  0  0  0  0
  4  5  1  0  0  0  0
  4  3  1  0  0  0  0
  4 13  1  0  0  0  0
  5 15  1  0  0  0  0
  5  6  1  0  0  0  0
  6 16  1  6  0  0  0
  6  1  1  0  0  0  0
  6 28  1  0  0  0  0
  9  2  1  0  0  0  0
 10  3  1  0  0  0  0
 12  4  1  0  0  0  0
 14  5  1  0  0  0  0
 17 18  1  0  0  0  0
 18 19  2  0  0  0  0
 18  1  1  0  0  0  0
 19 24  1  0  0  0  0
 20 19  1  0  0  0  0
 21 20  2  0  0  0  0
 22 21  1  0  0  0  0
 22 17  2  0  0  0  0
 23 17  1  0  0  0  0
 25 21  1  0  0  0  0
 26 27  1  0  0  0  0
 27 34  1  0  0  0  0
 28 27  2  0  0  0  0
 28 29  1  0  0  0  0
 29 31  2  0  0  0  0
 30 29  1  0  0  0  0
 31 33  1  0  0  0  0
 31 32  1  0  0  0  0
 34 33  2  0  0  0  0
M  END
>  <minimizedAffinity>
-5.07127237

$$$$

 OpenBabel03272506313D

 34 36  0  0  1  0  0  0  0  0999 V2000
   36.8140   25.8870   32.6250 C   0  0  1  0  0  0  0  0  0  0  0  0
   36.2830   24.7690   31.8070 C   0  0  0  0  0  0  0  0  0  0  0  0
   37.2350   24.0850   30.8980 C   0  0  0  0  0  0  0  0  0  0  0  0
   38.6310   23.9600   31.3400 C   0  0  0  0  0  0  0  0  0  0  0  0
   39.1540   25.0520   32.1710 C   0  0  0  0  0  0  0  0  0  0  0  0
   38.1770   25.6360   33.1550 C   0  0  2  0  0  0  0  0  0  0  0  0
   36.1410   25.9510   33.5400 H   0  0  0  0  0  0  0  0  0  0  0  0
   35.9030   23.9410   32.4930 H   0  0  0  0  0  0  0  0  0  0  0  0
   35.3810   24.9790   31.2220 H   0  0  0  0  0  0  0  0  0  0  0  0
   37.2150   24.6190   29.9070 H   0  0  0  0  0  0  0  0  0  0  0  0
   36.8570   23.0660   30.6510 H   0  0  0  0  0  0  0  0  0  0  0  0
   39.2710   23.9370   30.3950 H   0  0  0  0  0  0  0  0  0  0  0  0
   38.8300   22.9810   31.8020 H   0  0  0  0  0  0  0  0  0  0  0  0
   39.5980   25.8400   31.5240 H   0  0  0  0  0  0  0  0  0  0  0  0
   39.9990   24.6520   32.7700 H   0  0  0  0  0  0  0  0  0  0  0  0
   38.6510   26.5910   33.4180 H   0  0  0  0  0  0  0  0  0  0  0  0
   36.7890   27.4900   30.6470 C   0  0  0  0  0  0  0  0  0  0  0  0
   36.6450   27.2350   32.0260 C   0  0  0  0  0  0  0  0  0  0  0  0
   36.3510   28.3160   32.8310 C   0  0  0  0  0  0  0  0  0  0  0  0
   36.2130   29.5580   32.2990 N   0  0  0  0  0  0  0  0  0  0  0  0
   36.3640   29.7460   30.9580 C   0  0  0  0  0  0  0  0  0  0  0  0
   36.6490   28.7170   30.1450 N   0  0  0  0  0  0  0  0  0  0  0  0
   37.0150   26.7120   29.9440 H   0  0  0  0  0  0  0  0  0  0  0  0
   36.1890   28.3880   33.8760 H   0  0  0  0  0  0  0  0  0  0  0  0
   36.2640   30.7260   30.4850 H   0  0  0  0  0  0  0  0  0  0  0  0
   38.2060   27.2610   35.8300 Cl  0  0  0  0  0  0  0  0  0  0  0  0
   38.1690   25.5180   35.7060 C   0  0  0  0  0  0  0  0  0  0  0  0
   38.1740   24.9080   34.4670 C   0  0  0  0  0  0  0  0  0  0  0  0
   38.1560   23.5400   34.5740 C   0  0  0  0  0  0  0  0  0  0  0  0
   38.1520   22.8950   33.7270 H   0  0  0  0  0  0  0  0  0  0  0  0
   38.1350   22.8300   35.7500 C   0  0  0  0  0  0  0  0  0  0  0  0
   38.1210   21.7450   35.8120 H   0  0  0  0  0  0  0  0  0  0  0  0
   38.1310   23.5000   36.9500 C   0  0  0  0  0  3  0  0  0  0  0  0
   38.1480   24.8790   36.9250 C   0  0  0  0  0  3  0  0  0  0  0  0
  1  6  1  0  0  0  0
  1  7  1  1  0  0  0
  2  8  1  0  0  0  0
  2  1  1  0  0  0  0
  3  4  1  0  0  0  0
  3  2  1  0  0  0  0
  4 13  1  0  0  0  0
  4  5  1  0  0  0  0
  5 15  1  0  0  0  0
  5  6  1  0  0  0  0
  6 16  1  1  0  0  0
  6 28  1  0  0  0  0
  9  2  1  0  0  0  0
 10  3  1  0  0  0  0
 11  3  1  0  0  0  0
 12  4  1  0  0  0  0
 14  5  1  0  0  0  0
 17 18  1  0  0  0  0
 18  1  1  0  0  0  0
 18 19  2  0  0  0  0
 19 24  1  0  0  0  0
 20 19  1  0  0  0  0
 21 20  2  0  0  0  0
 22 17  2  0  0  0  0
 22 21  1  0  0  0  0
 23 17  1  0  0  0  0
 25 21  1  0  0  0  0
 27 26  1  0  0  0  0
 27 34  1  0  0  0  0
 28 29  1  0  0  0  0
 28 27  2  0  0  0  0
 29 31  2  0  0  0  0
 30 29  1  0  0  0  0
 31 32  1  0  0  0  0
 31 33  1  0  0  0  0
 34 33  2  0  0  0  0
M  END
>  <minimizedAffinity>
-4.93550158

$$$$
