
 OpenBabel03272510173D

 28 30  0  0  0  0  0  0  0  0999 V2000
   37.3570   29.4760   51.2250 Br  0  0  0  0  0  0  0  0  0  0  0  0
   36.0470   29.3220   49.8370 C   0  0  0  0  0  0  0  0  0  0  0  0
   36.0670   30.1710   48.7400 C   0  0  0  0  0  0  0  0  0  0  0  0
   35.0920   29.9910   47.7930 C   0  0  0  0  0  0  0  0  0  0  0  0
   34.1030   29.0150   47.8800 C   0  0  0  0  0  0  0  0  0  0  0  0
   34.1270   28.2010   48.9810 C   0  0  0  0  0  0  0  0  0  0  0  0
   35.0940   28.3580   49.9520 C   0  0  0  0  0  0  0  0  0  0  0  0
   35.1370   30.6770   46.9410 H   0  0  0  0  0  0  0  0  0  0  0  0
   33.3890   27.4220   49.1150 H   0  0  0  0  0  0  0  0  0  0  0  0
   35.0830   27.7000   50.8070 H   0  0  0  0  0  0  0  0  0  0  0  0
   37.9690   33.2010   49.4170 C   0  0  0  0  0  0  0  0  0  0  0  0
   38.9970   33.1870   48.4440 C   0  0  0  0  0  0  0  0  0  0  0  0
   39.0200   32.1190   47.5560 C   0  0  0  0  0  0  0  0  0  0  0  0
   38.0570   31.1390   47.6610 N   0  0  0  0  0  0  0  0  0  0  0  0
   37.0920   31.2070   48.6200 C   0  0  0  0  0  0  0  0  0  0  0  0
   37.0540   32.2320   49.4870 N   0  0  0  0  0  0  0  0  0  0  0  0
   37.9750   34.0450   50.0960 H   0  0  0  0  0  0  0  0  0  0  0  0
   39.7240   33.9860   48.4120 H   0  0  0  0  0  0  0  0  0  0  0  0
   39.7890   32.0700   46.7980 H   0  0  0  0  0  0  0  0  0  0  0  0
   31.4370   27.7270   48.6280 Cl  0  0  0  0  0  0  0  0  0  0  0  0
   31.8640   28.3220   47.0530 C   0  0  0  0  0  0  0  0  0  0  0  0
   33.0990   28.8860   46.8300 C   0  0  0  0  0  0  0  0  0  0  0  0
   33.3870   29.3450   45.5450 C   0  0  0  0  0  0  0  0  0  0  0  0
   34.3740   29.7950   45.3660 H   0  0  0  0  0  0  0  0  0  0  0  0
   32.5010   29.2640   44.4940 C   0  0  0  0  0  0  0  0  0  0  0  0
   32.7290   29.6220   43.5020 H   0  0  0  0  0  0  0  0  0  0  0  0
   31.2770   28.6900   44.7790 C   0  0  0  0  0  3  0  0  0  0  0  0
   30.9230   28.2130   46.0250 C   0  0  0  0  0  3  0  0  0  0  0  0
  2  7  1  0  0  0  0
  2  1  1  0  0  0  0
  3  2  2  0  0  0  0
  4  5  2  0  0  0  0
  4  3  1  0  0  0  0
  5  6  1  0  0  0  0
  6  9  1  0  0  0  0
  6  7  2  0  0  0  0
  7 10  1  0  0  0  0
  8  4  1  0  0  0  0
 11 16  1  0  0  0  0
 11 17  1  0  0  0  0
 12 11  2  0  0  0  0
 13 14  2  0  0  0  0
 13 12  1  0  0  0  0
 14 15  1  0  0  0  0
 15  3  1  0  0  0  0
 15 16  2  0  0  0  0
 18 12  1  0  0  0  0
 19 13  1  0  0  0  0
 21 20  1  0  0  0  0
 22 21  1  0  0  0  0
 22  5  1  0  0  0  0
 23 22  2  0  0  0  0
 24 23  1  0  0  0  0
 25 27  2  0  0  0  0
 25 23  1  0  0  0  0
 26 25  1  0  0  0  0
 27 28  1  0  0  0  0
 28 21  2  0  0  0  0
M  END
>  <minimizedAffinity>
-6.13695335

>  <minimizedRMSD>
0.414370596

$$$$
