
 OpenBabel03272506303D

 34 36  0  0  1  0  0  0  0  0999 V2000
   33.3920   28.1880   47.4100 C   0  0  1  0  0  0  0  0  0  0  0  0
   33.9440   27.6030   46.1630 C   0  0  0  0  0  0  0  0  0  0  0  0
   33.8490   28.4240   44.9310 C   0  0  0  0  0  0  0  0  0  0  0  0
   33.9680   29.8830   45.0720 C   0  0  0  0  0  0  0  0  0  0  0  0
   33.4450   30.4640   46.3150 C   0  0  0  0  0  0  0  0  0  0  0  0
   33.6670   29.6390   47.5540 C   0  0  2  0  0  0  0  0  0  0  0  0
   33.9520   27.6880   48.2640 H   0  0  0  0  0  0  0  0  0  0  0  0
   35.0610   27.4160   46.2920 H   0  0  0  0  0  0  0  0  0  0  0  0
   33.5970   26.5970   45.9020 H   0  0  0  0  0  0  0  0  0  0  0  0
   32.8700   28.1870   44.4300 H   0  0  0  0  0  0  0  0  0  0  0  0
   34.6090   28.0850   44.1900 H   0  0  0  0  0  0  0  0  0  0  0  0
   33.3620   30.3430   44.2200 H   0  0  0  0  0  0  0  0  0  0  0  0
   34.9910   30.2340   44.8710 H   0  0  0  0  0  0  0  0  0  0  0  0
   32.3710   30.7250   46.1900 H   0  0  0  0  0  0  0  0  0  0  0  0
   33.9650   31.4300   46.4860 H   0  0  0  0  0  0  0  0  0  0  0  0
   32.9520   30.0810   48.2620 H   0  0  0  0  0  0  0  0  0  0  0  0
   31.0140   27.6120   46.7050 C   0  0  0  0  0  0  0  0  0  0  0  0
   31.9850   27.8150   47.7060 C   0  0  0  0  0  0  0  0  0  0  0  0
   31.5710   27.6690   49.0140 C   0  0  0  0  0  0  0  0  0  0  0  0
   30.2830   27.3470   49.3000 N   0  0  0  0  0  0  0  0  0  0  0  0
   29.3860   27.1640   48.2910 C   0  0  0  0  0  0  0  0  0  0  0  0
   29.7550   27.2960   47.0070 N   0  0  0  0  0  0  0  0  0  0  0  0
   31.2440   27.7010   45.6610 H   0  0  0  0  0  0  0  0  0  0  0  0
   32.0960   27.7590   49.9290 H   0  0  0  0  0  0  0  0  0  0  0  0
   28.3390   26.9050   48.4720 H   0  0  0  0  0  0  0  0  0  0  0  0
   33.8800   29.6290   50.6770 Cl  0  0  0  0  0  0  0  0  0  0  0  0
   35.2020   29.9320   49.5740 C   0  0  0  0  0  0  0  0  0  0  0  0
   34.9850   29.9260   48.2100 C   0  0  0  0  0  0  0  0  0  0  0  0
   36.1350   30.1970   47.5120 C   0  0  0  0  0  0  0  0  0  0  0  0
   36.1700   30.2320   46.4490 H   0  0  0  0  0  0  0  0  0  0  0  0
   37.3670   30.4480   48.0670 C   0  0  0  0  0  0  0  0  0  0  0  0
   38.2660   30.6610   47.4950 H   0  0  0  0  0  0  0  0  0  0  0  0
   37.5130   30.4380   49.4330 C   0  0  0  0  0  0  0  0  0  0  0  0
   36.4020   30.1730   50.2050 C   0  0  0  0  0  0  0  0  0  0  0  0
  1  6  1  0  0  0  0
  1 18  1  0  0  0  0
  1  7  1  1  0  0  0
  2  8  1  0  0  0  0
  2  1  1  0  0  0  0
  3  4  1  0  0  0  0
  3  2  1  0  0  0  0
  4  5  1  0  0  0  0
  5 15  1  0  0  0  0
  5  6  1  0  0  0  0
  6 28  1  0  0  0  0
  6 16  1  1  0  0  0
  9  2  1  0  0  0  0
 10  3  1  0  0  0  0
 11  3  1  0  0  0  0
 12  4  1  0  0  0  0
 13  4  1  0  0  0  0
 14  5  1  0  0  0  0
 17 22  2  0  0  0  0
 17 18  1  0  0  0  0
 18 19  2  0  0  0  0
 19 20  1  0  0  0  0
 19 24  1  0  0  0  0
 21 25  1  0  0  0  0
 21 20  2  0  0  0  0
 22 21  1  0  0  0  0
 23 17  1  0  0  0  0
 27 34  1  0  0  0  0
 27 26  1  0  0  0  0
 28 27  2  0  0  0  0
 29 31  2  0  0  0  0
 29 28  1  0  0  0  0
 30 29  1  0  0  0  0
 31 33  1  0  0  0  0
 32 31  1  0  0  0  0
 33 34  2  0  0  0  0
M  END
>  <minimizedAffinity>
-5.04325676

>  <minimizedRMSD>
5.82549143

$$$$
