
 OpenBabel03272507453D

 33 35  0  0  0  0  0  0  0  0999 V2000
   38.1310   26.8440   32.6530 N   0  0  0  0  0  0  0  0  0  0  0  0
   37.9170   25.4310   32.5170 C   0  0  0  0  0  0  0  0  0  0  0  0
   38.1760   24.5640   33.6610 C   0  0  0  0  0  0  0  0  0  0  0  0
   39.1860   25.0440   34.6600 C   0  0  0  0  0  0  0  0  0  0  0  0
   39.3980   26.5170   34.6970 C   0  0  0  0  0  0  0  0  0  0  0  0
   39.4270   27.0440   33.2520 C   0  0  0  0  0  0  0  0  0  0  0  0
   36.8790   25.2980   32.1290 H   0  0  0  0  0  0  0  0  0  0  0  0
   38.5560   25.1190   31.6400 H   0  0  0  0  0  0  0  0  0  0  0  0
   38.4560   23.5460   33.3170 H   0  0  0  0  0  0  0  0  0  0  0  0
   37.1980   24.3920   34.1990 H   0  0  0  0  0  0  0  0  0  0  0  0
   40.1770   24.6390   34.2540 H   0  0  0  0  0  0  0  0  0  0  0  0
   40.4500   26.7130   35.0640 H   0  0  0  0  0  0  0  0  0  0  0  0
   38.7640   27.1150   35.3330 H   0  0  0  0  0  0  0  0  0  0  0  0
   40.2500   26.5200   32.7280 H   0  0  0  0  0  0  0  0  0  0  0  0
   39.6360   28.1200   33.2320 H   0  0  0  0  0  0  0  0  0  0  0  0
   37.2250   27.8830   32.2670 C   0  0  0  0  0  0  0  0  0  0  0  0
   36.2700   28.4730   33.1090 C   0  0  0  0  0  0  0  0  0  0  0  0
   35.4830   29.4670   32.5520 C   0  0  0  0  0  0  0  0  0  0  0  0
   35.6540   29.8290   31.2530 N   0  0  0  0  0  0  0  0  0  0  0  0
   36.5870   29.2310   30.4800 C   0  0  0  0  0  0  0  0  0  0  0  0
   37.3690   28.2620   30.9910 N   0  0  0  0  0  0  0  0  0  0  0  0
   36.2420   28.0930   34.1120 H   0  0  0  0  0  0  0  0  0  0  0  0
   34.7500   29.9130   33.2130 H   0  0  0  0  0  0  0  0  0  0  0  0
   36.6900   29.5510   29.4520 H   0  0  0  0  0  0  0  0  0  0  0  0
   41.1510   22.7910   35.5100 Cl  0  0  0  0  0  0  0  0  0  0  0  0
   39.8700   23.4160   36.4870 C   0  0  0  0  0  0  0  0  0  0  0  0
   39.0760   24.4300   35.9920 C   0  0  0  0  0  0  0  0  0  0  0  0
   38.1040   24.8190   36.9260 C   0  0  0  0  0  0  0  0  0  0  0  0
   37.4210   25.6280   36.6160 H   0  0  0  0  0  0  0  0  0  0  0  0
   37.9060   24.3040   38.1880 C   0  0  0  0  0  0  0  0  0  0  0  0
   37.1200   24.6970   38.8040 H   0  0  0  0  0  0  0  0  0  0  0  0
   38.7540   23.2950   38.5840 C   0  0  0  0  0  3  0  0  0  0  0  0
   39.7240   22.8580   37.7400 C   0  0  0  0  0  3  0  0  0  0  0  0
  1  6  1  0  0  0  0
  2  1  1  0  0  0  0
  2  3  1  0  0  0  0
  3 10  1  0  0  0  0
  3  4  1  0  0  0  0
  4  5  1  0  0  0  0
  4 27  1  0  0  0  0
  5 12  1  0  0  0  0
  5 13  1  0  0  0  0
  6  5  1  0  0  0  0
  7  2  1  0  0  0  0
  8  2  1  0  0  0  0
  9  3  1  0  0  0  0
 11  4  1  0  0  0  0
 14  6  1  0  0  0  0
 15  6  1  0  0  0  0
 16  1  1  0  0  0  0
 16 17  1  0  0  0  0
 17 22  1  0  0  0  0
 18 17  2  0  0  0  0
 18 23  1  0  0  0  0
 19 18  1  0  0  0  0
 20 21  1  0  0  0  0
 20 19  2  0  0  0  0
 21 16  2  0  0  0  0
 24 20  1  0  0  0  0
 25 26  1  0  0  0  0
 26 33  1  0  0  0  0
 27 26  2  0  0  0  0
 27 28  1  0  0  0  0
 28 30  2  0  0  0  0
 29 28  1  0  0  0  0
 30 32  1  0  0  0  0
 30 31  1  0  0  0  0
 33 32  2  0  0  0  0
M  END
>  <minimizedAffinity>
-5.38655472

$$$$

 OpenBabel03272507453D

 33 35  0  0  0  0  0  0  0  0999 V2000
   39.0820   24.7750   34.6910 N   0  0  0  0  0  0  0  0  0  0  0  0
   39.9590   25.8170   34.2390 C   0  0  0  0  0  0  0  0  0  0  0  0
   39.4270   26.8640   33.3730 C   0  0  0  0  0  0  0  0  0  0  0  0
   38.2430   26.5030   32.5260 C   0  0  0  0  0  0  0  0  0  0  0  0
   37.4180   25.3710   33.0280 C   0  0  0  0  0  0  0  0  0  0  0  0
   38.3600   24.2720   33.5490 C   0  0  0  0  0  0  0  0  0  0  0  0
   40.4460   26.2460   35.1480 H   0  0  0  0  0  0  0  0  0  0  0  0
   40.8110   25.2840   33.7250 H   0  0  0  0  0  0  0  0  0  0  0  0
   40.2300   27.2730   32.7260 H   0  0  0  0  0  0  0  0  0  0  0  0
   39.1450   27.7440   34.0210 H   0  0  0  0  0  0  0  0  0  0  0  0
   38.7160   26.0890   31.5680 H   0  0  0  0  0  0  0  0  0  0  0  0
   36.9160   24.8800   32.1410 H   0  0  0  0  0  0  0  0  0  0  0  0
   36.6200   25.5800   33.7220 H   0  0  0  0  0  0  0  0  0  0  0  0
   39.0100   23.9690   32.7040 H   0  0  0  0  0  0  0  0  0  0  0  0
   37.7930   23.3940   33.8790 H   0  0  0  0  0  0  0  0  0  0  0  0
   38.9380   24.3070   36.0370 C   0  0  0  0  0  0  0  0  0  0  0  0
   37.9780   24.7670   36.9500 C   0  0  0  0  0  0  0  0  0  0  0  0
   37.9950   24.1910   38.2090 C   0  0  0  0  0  0  0  0  0  0  0  0
   38.9090   23.2310   38.5100 N   0  0  0  0  0  0  0  0  0  0  0  0
   39.8160   22.8200   37.5970 C   0  0  0  0  0  0  0  0  0  0  0  0
   39.8260   23.3600   36.3640 N   0  0  0  0  0  0  0  0  0  0  0  0
   37.3170   25.5270   36.5820 H   0  0  0  0  0  0  0  0  0  0  0  0
   37.2490   24.5550   38.9040 H   0  0  0  0  0  0  0  0  0  0  0  0
   40.5250   22.0530   37.8790 H   0  0  0  0  0  0  0  0  0  0  0  0
   36.4860   28.1120   34.5220 Cl  0  0  0  0  0  0  0  0  0  0  0  0
   36.6200   28.4350   32.8300 C   0  0  0  0  0  0  0  0  0  0  0  0
   37.4500   27.6490   32.0560 C   0  0  0  0  0  0  0  0  0  0  0  0
   37.4450   28.0670   30.7170 C   0  0  0  0  0  0  0  0  0  0  0  0
   38.0830   27.4950   30.0220 H   0  0  0  0  0  0  0  0  0  0  0  0
   36.7340   29.1140   30.1720 C   0  0  0  0  0  0  0  0  0  0  0  0
   36.8230   29.3270   29.1230 H   0  0  0  0  0  0  0  0  0  0  0  0
   35.9360   29.8330   31.0320 C   0  0  0  0  0  3  0  0  0  0  0  0
   35.8820   29.4940   32.3460 C   0  0  0  0  0  3  0  0  0  0  0  0
  1 16  1  0  0  0  0
  2  1  1  0  0  0  0
  2  7  1  0  0  0  0
  3 10  1  0  0  0  0
  3  2  1  0  0  0  0
  4  5  1  0  0  0  0
  4  3  1  0  0  0  0
  5  6  1  0  0  0  0
  5 13  1  0  0  0  0
  6 15  1  0  0  0  0
  6  1  1  0  0  0  0
  8  2  1  0  0  0  0
  9  3  1  0  0  0  0
 11  4  1  0  0  0  0
 12  5  1  0  0  0  0
 14  6  1  0  0  0  0
 16 21  2  0  0  0  0
 16 17  1  0  0  0  0
 17 18  2  0  0  0  0
 18 19  1  0  0  0  0
 18 23  1  0  0  0  0
 20 24  1  0  0  0  0
 20 19  2  0  0  0  0
 21 20  1  0  0  0  0
 22 17  1  0  0  0  0
 26 25  1  0  0  0  0
 27  4  1  0  0  0  0
 27 26  2  0  0  0  0
 28 27  1  0  0  0  0
 29 28  1  0  0  0  0
 30 28  2  0  0  0  0
 30 32  1  0  0  0  0
 31 30  1  0  0  0  0
 32 33  2  0  0  0  0
 33 26  1  0  0  0  0
M  END
>  <minimizedAffinity>
-5.3643961

$$$$

 OpenBabel03272507453D

 33 35  0  0  0  0  0  0  0  0999 V2000
   39.0740   24.8600   34.8000 N   0  0  0  0  0  0  0  0  0  0  0  0
   39.9370   25.9280   34.3830 C   0  0  0  0  0  0  0  0  0  0  0  0
   39.3870   27.0020   33.5620 C   0  0  0  0  0  0  0  0  0  0  0  0
   38.2010   26.6630   32.7100 C   0  0  0  0  0  0  0  0  0  0  0  0
   37.3910   25.5030   33.1740 C   0  0  0  0  0  0  0  0  0  0  0  0
   38.3480   24.3940   33.6440 C   0  0  0  0  0  0  0  0  0  0  0  0
   40.4260   26.3260   35.3040 H   0  0  0  0  0  0  0  0  0  0  0  0
   40.7900   25.4230   33.8420 H   0  0  0  0  0  0  0  0  0  0  0  0
   40.1810   27.4440   32.9260 H   0  0  0  0  0  0  0  0  0  0  0  0
   39.1020   27.8530   34.2470 H   0  0  0  0  0  0  0  0  0  0  0  0
   38.6700   26.2910   31.7340 H   0  0  0  0  0  0  0  0  0  0  0  0
   36.8870   25.0420   32.2720 H   0  0  0  0  0  0  0  0  0  0  0  0
   36.5960   25.6770   33.8810 H   0  0  0  0  0  0  0  0  0  0  0  0
   38.9940   24.1320   32.7830 H   0  0  0  0  0  0  0  0  0  0  0  0
   37.7920   23.4980   33.9440 H   0  0  0  0  0  0  0  0  0  0  0  0
   38.9440   24.3380   36.1270 C   0  0  0  0  0  0  0  0  0  0  0  0
   37.9760   24.7400   37.0590 C   0  0  0  0  0  0  0  0  0  0  0  0
   38.0110   24.1170   38.2960 C   0  0  0  0  0  0  0  0  0  0  0  0
   38.9490   23.1680   38.5580 N   0  0  0  0  0  0  0  0  0  0  0  0
   39.8620   22.8140   37.6280 C   0  0  0  0  0  0  0  0  0  0  0  0
   39.8550   23.4000   36.4160 N   0  0  0  0  0  0  0  0  0  0  0  0
   37.2970   25.4970   36.7210 H   0  0  0  0  0  0  0  0  0  0  0  0
   37.2590   24.4370   39.0060 H   0  0  0  0  0  0  0  0  0  0  0  0
   40.5900   22.0540   37.8800 H   0  0  0  0  0  0  0  0  0  0  0  0
   38.6340   27.9450   29.9120 Cl  0  0  0  0  0  0  0  0  0  0  0  0
   37.4930   28.4880   31.0900 C   0  0  0  0  0  0  0  0  0  0  0  0
   37.3920   27.8180   32.2920 C   0  0  0  0  0  0  0  0  0  0  0  0
   36.4070   28.3880   33.1130 C   0  0  0  0  0  0  0  0  0  0  0  0
   36.2550   27.9150   34.0980 H   0  0  0  0  0  0  0  0  0  0  0  0
   35.6060   29.4710   32.8260 C   0  0  0  0  0  0  0  0  0  0  0  0
   34.8860   29.8050   33.5490 H   0  0  0  0  0  0  0  0  0  0  0  0
   35.7880   30.0670   31.5990 C   0  0  0  0  0  3  0  0  0  0  0  0
   36.7230   29.5780   30.7430 C   0  0  0  0  0  3  0  0  0  0  0  0
  1 16  1  0  0  0  0
  2  1  1  0  0  0  0
  2  7  1  0  0  0  0
  3 10  1  0  0  0  0
  3  2  1  0  0  0  0
  4  5  1  0  0  0  0
  4  3  1  0  0  0  0
  5  6  1  0  0  0  0
  5 13  1  0  0  0  0
  6 15  1  0  0  0  0
  6  1  1  0  0  0  0
  8  2  1  0  0  0  0
  9  3  1  0  0  0  0
 11  4  1  0  0  0  0
 12  5  1  0  0  0  0
 14  6  1  0  0  0  0
 16 21  2  0  0  0  0
 16 17  1  0  0  0  0
 17 18  2  0  0  0  0
 18 19  1  0  0  0  0
 18 23  1  0  0  0  0
 20 24  1  0  0  0  0
 20 19  2  0  0  0  0
 21 20  1  0  0  0  0
 22 17  1  0  0  0  0
 25 26  1  0  0  0  0
 26 27  1  0  0  0  0
 27  4  1  0  0  0  0
 27 28  2  0  0  0  0
 28 29  1  0  0  0  0
 30 28  1  0  0  0  0
 30 31  1  0  0  0  0
 32 30  2  0  0  0  0
 33 26  2  0  0  0  0
 33 32  1  0  0  0  0
M  END
>  <minimizedAffinity>
-5.26231527

$$$$

 OpenBabel03272507453D

 33 35  0  0  0  0  0  0  0  0999 V2000
   36.6370   27.0280   32.6410 N   0  0  0  0  0  0  0  0  0  0  0  0
   37.2450   27.4910   33.8550 C   0  0  0  0  0  0  0  0  0  0  0  0
   36.5400   28.4750   34.6690 C   0  0  0  0  0  0  0  0  0  0  0  0
   35.5810   29.3810   33.9550 C   0  0  0  0  0  0  0  0  0  0  0  0
   35.0420   28.8570   32.6710 C   0  0  0  0  0  0  0  0  0  0  0  0
   36.1880   28.1800   31.8990 C   0  0  0  0  0  0  0  0  0  0  0  0
   37.5100   26.5830   34.4490 H   0  0  0  0  0  0  0  0  0  0  0  0
   38.2530   27.8930   33.5460 H   0  0  0  0  0  0  0  0  0  0  0  0
   37.2630   29.0880   35.2450 H   0  0  0  0  0  0  0  0  0  0  0  0
   35.9730   27.9220   35.4740 H   0  0  0  0  0  0  0  0  0  0  0  0
   36.2370   30.2630   33.6340 H   0  0  0  0  0  0  0  0  0  0  0  0
   34.7760   29.7390   32.0140 H   0  0  0  0  0  0  0  0  0  0  0  0
   34.1540   28.2460   32.6930 H   0  0  0  0  0  0  0  0  0  0  0  0
   36.9720   28.9460   31.7380 H   0  0  0  0  0  0  0  0  0  0  0  0
   35.8450   27.8270   30.9190 H   0  0  0  0  0  0  0  0  0  0  0  0
   36.4940   25.6650   32.2250 C   0  0  0  0  0  0  0  0  0  0  0  0
   35.5630   25.2050   31.2810 C   0  0  0  0  0  0  0  0  0  0  0  0
   35.5770   23.8470   31.0090 C   0  0  0  0  0  0  0  0  0  0  0  0
   36.4610   23.0310   31.6420 N   0  0  0  0  0  0  0  0  0  0  0  0
   37.3380   23.5200   32.5460 C   0  0  0  0  0  0  0  0  0  0  0  0
   37.3510   24.8350   32.8320 N   0  0  0  0  0  0  0  0  0  0  0  0
   34.9260   25.9560   30.8580 H   0  0  0  0  0  0  0  0  0  0  0  0
   34.8540   23.5060   30.2790 H   0  0  0  0  0  0  0  0  0  0  0  0
   38.0240   22.8350   33.0250 H   0  0  0  0  0  0  0  0  0  0  0  0
   36.2960   31.8460   35.7080 Cl  0  0  0  0  0  0  0  0  0  0  0  0
   34.7480   31.0810   35.6500 C   0  0  0  0  0  0  0  0  0  0  0  0
   34.5610   29.9990   34.8160 C   0  0  0  0  0  0  0  0  0  0  0  0
   33.2430   29.5210   34.8880 C   0  0  0  0  0  0  0  0  0  0  0  0
   33.0000   28.6540   34.2510 H   0  0  0  0  0  0  0  0  0  0  0  0
   32.2180   30.0150   35.6650 C   0  0  0  0  0  0  0  0  0  0  0  0
   31.2510   29.5510   35.6240 H   0  0  0  0  0  0  0  0  0  0  0  0
   32.5120   31.0970   36.4610 C   0  0  0  0  0  3  0  0  0  0  0  0
   33.7650   31.6220   36.4520 C   0  0  0  0  0  3  0  0  0  0  0  0
  1  2  1  0  0  0  0
  2  7  1  0  0  0  0
  2  3  1  0  0  0  0
  3  9  1  0  0  0  0
  3 10  1  0  0  0  0
  4  3  1  0  0  0  0
  4 27  1  0  0  0  0
  5 13  1  0  0  0  0
  5  4  1  0  0  0  0
  6  1  1  0  0  0  0
  6  5  1  0  0  0  0
  8  2  1  0  0  0  0
 11  4  1  0  0  0  0
 12  5  1  0  0  0  0
 14  6  1  0  0  0  0
 15  6  1  0  0  0  0
 16  1  1  0  0  0  0
 16 21  1  0  0  0  0
 17 16  2  0  0  0  0
 18 17  1  0  0  0  0
 18 19  2  0  0  0  0
 19 20  1  0  0  0  0
 20 21  2  0  0  0  0
 20 24  1  0  0  0  0
 22 17  1  0  0  0  0
 23 18  1  0  0  0  0
 26 25  1  0  0  0  0
 26 33  1  0  0  0  0
 27 28  1  0  0  0  0
 27 26  2  0  0  0  0
 28 30  2  0  0  0  0
 29 28  1  0  0  0  0
 30 32  1  0  0  0  0
 31 30  1  0  0  0  0
 33 32  2  0  0  0  0
M  END
>  <minimizedAffinity>
-5.22604513

$$$$

 OpenBabel03272507453D

 33 35  0  0  0  0  0  0  0  0999 V2000
   36.7660   27.3970   32.8070 N   0  0  0  0  0  0  0  0  0  0  0  0
   37.3130   27.5570   34.1230 C   0  0  0  0  0  0  0  0  0  0  0  0
   36.7680   28.5910   34.9960 C   0  0  0  0  0  0  0  0  0  0  0  0
   36.1460   29.7810   34.3270 C   0  0  0  0  0  0  0  0  0  0  0  0
   35.6590   29.5530   32.9400 C   0  0  0  0  0  0  0  0  0  0  0  0
   36.6970   28.6990   32.1900 C   0  0  0  0  0  0  0  0  0  0  0  0
   37.2820   26.5520   34.6090 H   0  0  0  0  0  0  0  0  0  0  0  0
   38.4190   27.7250   33.9650 H   0  0  0  0  0  0  0  0  0  0  0  0
   37.5400   28.9360   35.7140 H   0  0  0  0  0  0  0  0  0  0  0  0
   35.9920   28.1120   35.6630 H   0  0  0  0  0  0  0  0  0  0  0  0
   37.0270   30.5000   34.1900 H   0  0  0  0  0  0  0  0  0  0  0  0
   35.6920   30.5410   32.3870 H   0  0  0  0  0  0  0  0  0  0  0  0
   34.6550   29.1850   32.7970 H   0  0  0  0  0  0  0  0  0  0  0  0
   37.6550   29.2570   32.2080 H   0  0  0  0  0  0  0  0  0  0  0  0
   36.4030   28.5530   31.1440 H   0  0  0  0  0  0  0  0  0  0  0  0
   36.3550   26.1680   32.1980 C   0  0  0  0  0  0  0  0  0  0  0  0
   36.9500   24.9180   32.4270 C   0  0  0  0  0  0  0  0  0  0  0  0
   36.4100   23.8410   31.7430 C   0  0  0  0  0  0  0  0  0  0  0  0
   35.3580   24.0220   30.9010 N   0  0  0  0  0  0  0  0  0  0  0  0
   34.8190   25.2460   30.7120 C   0  0  0  0  0  0  0  0  0  0  0  0
   35.3200   26.3140   31.3620 N   0  0  0  0  0  0  0  0  0  0  0  0
   37.7710   24.9180   33.1150 H   0  0  0  0  0  0  0  0  0  0  0  0
   36.8790   22.8830   31.9290 H   0  0  0  0  0  0  0  0  0  0  0  0
   33.9820   25.3450   30.0330 H   0  0  0  0  0  0  0  0  0  0  0  0
   33.0960   29.2030   34.1670 Cl  0  0  0  0  0  0  0  0  0  0  0  0
   33.8320   30.3910   35.1820 C   0  0  0  0  0  0  0  0  0  0  0  0
   35.2040   30.5360   35.1670 C   0  0  0  0  0  0  0  0  0  0  0  0
   35.6220   31.5320   36.0630 C   0  0  0  0  0  0  0  0  0  0  0  0
   36.7080   31.7180   36.1190 H   0  0  0  0  0  0  0  0  0  0  0  0
   34.8270   32.3040   36.8820 C   0  0  0  0  0  0  0  0  0  0  0  0
   35.2800   33.0350   37.5250 H   0  0  0  0  0  0  0  0  0  0  0  0
   33.4710   32.0780   36.8200 C   0  0  0  0  0  3  0  0  0  0  0  0
   32.9820   31.1310   35.9770 C   0  0  0  0  0  3  0  0  0  0  0  0
  1  2  1  0  0  0  0
  2  7  1  0  0  0  0
  2  3  1  0  0  0  0
  3 10  1  0  0  0  0
  3  9  1  0  0  0  0
  4  3  1  0  0  0  0
  4 27  1  0  0  0  0
  5  4  1  0  0  0  0
  6 14  1  0  0  0  0
  6  1  1  0  0  0  0
  6  5  1  0  0  0  0
  8  2  1  0  0  0  0
 11  4  1  0  0  0  0
 12  5  1  0  0  0  0
 13  5  1  0  0  0  0
 15  6  1  0  0  0  0
 16 17  1  0  0  0  0
 16  1  1  0  0  0  0
 17 22  1  0  0  0  0
 18 23  1  0  0  0  0
 18 17  2  0  0  0  0
 19 18  1  0  0  0  0
 20 19  2  0  0  0  0
 20 21  1  0  0  0  0
 21 16  2  0  0  0  0
 24 20  1  0  0  0  0
 25 26  1  0  0  0  0
 26 33  1  0  0  0  0
 27 26  2  0  0  0  0
 27 28  1  0  0  0  0
 28 29  1  0  0  0  0
 28 30  2  0  0  0  0
 30 31  1  0  0  0  0
 32 30  1  0  0  0  0
 33 32  2  0  0  0  0
M  END
>  <minimizedAffinity>
-5.1036315

$$$$

 OpenBabel03272507453D

 33 35  0  0  0  0  0  0  0  0999 V2000
   38.0870   26.8250   33.0830 N   0  0  0  0  0  0  0  0  0  0  0  0
   37.8990   25.4520   32.7120 C   0  0  0  0  0  0  0  0  0  0  0  0
   38.5010   24.4080   33.5340 C   0  0  0  0  0  0  0  0  0  0  0  0
   39.7300   24.7800   34.3070 C   0  0  0  0  0  0  0  0  0  0  0  0
   39.8870   26.2310   34.5990 C   0  0  0  0  0  0  0  0  0  0  0  0
   39.4900   27.0290   33.3450 C   0  0  0  0  0  0  0  0  0  0  0  0
   36.7990   25.2970   32.5940 H   0  0  0  0  0  0  0  0  0  0  0  0
   38.2790   25.3780   31.6510 H   0  0  0  0  0  0  0  0  0  0  0  0
   38.7130   23.5080   32.9190 H   0  0  0  0  0  0  0  0  0  0  0  0
   37.7190   24.0420   34.2620 H   0  0  0  0  0  0  0  0  0  0  0  0
   40.5830   24.5590   33.5760 H   0  0  0  0  0  0  0  0  0  0  0  0
   40.9910   26.4530   34.7060 H   0  0  0  0  0  0  0  0  0  0  0  0
   39.4330   26.6310   35.4920 H   0  0  0  0  0  0  0  0  0  0  0  0
   40.1540   26.6970   32.5220 H   0  0  0  0  0  0  0  0  0  0  0  0
   39.6430   28.1040   33.4990 H   0  0  0  0  0  0  0  0  0  0  0  0
   37.0690   27.8280   33.1820 C   0  0  0  0  0  0  0  0  0  0  0  0
   36.4300   28.2110   34.3700 C   0  0  0  0  0  0  0  0  0  0  0  0
   35.4690   29.2030   34.2640 C   0  0  0  0  0  0  0  0  0  0  0  0
   35.1860   29.7550   33.0540 N   0  0  0  0  0  0  0  0  0  0  0  0
   35.8280   29.3520   31.9360 C   0  0  0  0  0  0  0  0  0  0  0  0
   36.7680   28.3910   32.0050 N   0  0  0  0  0  0  0  0  0  0  0  0
   36.7500   27.6950   35.2540 H   0  0  0  0  0  0  0  0  0  0  0  0
   34.9830   29.4890   35.1880 H   0  0  0  0  0  0  0  0  0  0  0  0
   35.5720   29.8190   30.9950 H   0  0  0  0  0  0  0  0  0  0  0  0
   37.7130   24.5780   36.6640 Cl  0  0  0  0  0  0  0  0  0  0  0  0
   39.2230   23.7430   36.5710 C   0  0  0  0  0  0  0  0  0  0  0  0
   40.0210   23.9120   35.4580 C   0  0  0  0  0  0  0  0  0  0  0  0
   41.1940   23.1470   35.5500 C   0  0  0  0  0  0  0  0  0  0  0  0
   41.8950   23.2190   34.7010 H   0  0  0  0  0  0  0  0  0  0  0  0
   41.5680   22.3150   36.5820 C   0  0  0  0  0  0  0  0  0  0  0  0
   42.4990   21.7840   36.5240 H   0  0  0  0  0  0  0  0  0  0  0  0
   40.7000   22.2190   37.6450 C   0  0  0  0  0  3  0  0  0  0  0  0
   39.5400   22.9270   37.6360 C   0  0  0  0  0  3  0  0  0  0  0  0
  1 16  1  0  0  0  0
  1  6  1  0  0  0  0
  2  1  1  0  0  0  0
  2  3  1  0  0  0  0
  3 10  1  0  0  0  0
  3  4  1  0  0  0  0
  4  5  1  0  0  0  0
  4 27  1  0  0  0  0
  5 12  1  0  0  0  0
  5 13  1  0  0  0  0
  6 15  1  0  0  0  0
  6  5  1  0  0  0  0
  7  2  1  0  0  0  0
  8  2  1  0  0  0  0
  9  3  1  0  0  0  0
 11  4  1  0  0  0  0
 14  6  1  0  0  0  0
 16 17  1  0  0  0  0
 17 22  1  0  0  0  0
 18 17  2  0  0  0  0
 18 23  1  0  0  0  0
 19 18  1  0  0  0  0
 20 21  1  0  0  0  0
 20 19  2  0  0  0  0
 21 16  2  0  0  0  0
 24 20  1  0  0  0  0
 26 25  1  0  0  0  0
 26 33  1  0  0  0  0
 27 28  1  0  0  0  0
 27 26  2  0  0  0  0
 28 30  2  0  0  0  0
 29 28  1  0  0  0  0
 30 32  1  0  0  0  0
 31 30  1  0  0  0  0
 33 32  2  0  0  0  0
M  END
>  <minimizedAffinity>
-5.04313898

$$$$

 OpenBabel03272507453D

 33 35  0  0  0  0  0  0  0  0999 V2000
   41.2030   24.3210   34.6230 N   0  0  0  0  0  0  0  0  0  0  0  0
   41.5780   25.7040   34.7010 C   0  0  0  0  0  0  0  0  0  0  0  0
   40.5990   26.7230   34.3390 C   0  0  0  0  0  0  0  0  0  0  0  0
   39.5350   26.3220   33.3620 C   0  0  0  0  0  0  0  0  0  0  0  0
   39.2460   24.8640   33.2930 C   0  0  0  0  0  0  0  0  0  0  0  0
   40.5800   24.0980   33.3410 C   0  0  0  0  0  0  0  0  0  0  0  0
   41.9810   25.8700   35.7290 H   0  0  0  0  0  0  0  0  0  0  0  0
   42.4960   25.7980   34.0510 H   0  0  0  0  0  0  0  0  0  0  0  0
   41.1130   27.6350   33.9680 H   0  0  0  0  0  0  0  0  0  0  0  0
   40.0980   27.0790   35.2860 H   0  0  0  0  0  0  0  0  0  0  0  0
   40.0050   26.5530   32.3440 H   0  0  0  0  0  0  0  0  0  0  0  0
   38.8530   24.6300   32.2580 H   0  0  0  0  0  0  0  0  0  0  0  0
   38.5170   24.4480   33.9700 H   0  0  0  0  0  0  0  0  0  0  0  0
   41.1870   24.4430   32.4810 H   0  0  0  0  0  0  0  0  0  0  0  0
   40.4170   23.0190   33.2380 H   0  0  0  0  0  0  0  0  0  0  0  0
   41.4040   23.3250   35.6320 C   0  0  0  0  0  0  0  0  0  0  0  0
   42.5540   22.5330   35.7630 C   0  0  0  0  0  0  0  0  0  0  0  0
   42.5630   21.6220   36.8060 C   0  0  0  0  0  0  0  0  0  0  0  0
   41.4940   21.5270   37.6410 N   0  0  0  0  0  0  0  0  0  0  0  0
   40.4070   22.3100   37.4740 C   0  0  0  0  0  0  0  0  0  0  0  0
   40.3670   23.2070   36.4710 N   0  0  0  0  0  0  0  0  0  0  0  0
   43.3230   22.7120   35.0370 H   0  0  0  0  0  0  0  0  0  0  0  0
   43.4570   21.0170   36.8960 H   0  0  0  0  0  0  0  0  0  0  0  0
   39.5790   22.2010   38.1620 H   0  0  0  0  0  0  0  0  0  0  0  0
   38.0380   26.8290   36.0390 Cl  0  0  0  0  0  0  0  0  0  0  0  0
   37.5630   27.4530   34.4990 C   0  0  0  0  0  0  0  0  0  0  0  0
   38.3270   27.1620   33.3880 C   0  0  0  0  0  0  0  0  0  0  0  0
   37.8010   27.7650   32.2350 C   0  0  0  0  0  0  0  0  0  0  0  0
   38.3490   27.5870   31.2940 H   0  0  0  0  0  0  0  0  0  0  0  0
   36.6760   28.5550   32.1460 C   0  0  0  0  0  0  0  0  0  0  0  0
   36.3840   28.9560   31.1940 H   0  0  0  0  0  0  0  0  0  0  0  0
   35.9870   28.7830   33.3150 C   0  0  0  0  0  3  0  0  0  0  0  0
   36.4280   28.2360   34.4770 C   0  0  0  0  0  3  0  0  0  0  0  0
  1  2  1  0  0  0  0
  1 16  1  0  0  0  0
  2  7  1  0  0  0  0
  3  2  1  0  0  0  0
  3 10  1  0  0  0  0
  4 27  1  0  0  0  0
  4  3  1  0  0  0  0
  5  6  1  0  0  0  0
  5  4  1  0  0  0  0
  5 13  1  0  0  0  0
  6  1  1  0  0  0  0
  8  2  1  0  0  0  0
  9  3  1  0  0  0  0
 11  4  1  0  0  0  0
 12  5  1  0  0  0  0
 14  6  1  0  0  0  0
 15  6  1  0  0  0  0
 16 17  2  0  0  0  0
 16 21  1  0  0  0  0
 17 18  1  0  0  0  0
 18 23  1  0  0  0  0
 18 19  2  0  0  0  0
 20 19  1  0  0  0  0
 20 24  1  0  0  0  0
 21 20  2  0  0  0  0
 22 17  1  0  0  0  0
 26 25  1  0  0  0  0
 27 26  2  0  0  0  0
 28 27  1  0  0  0  0
 29 28  1  0  0  0  0
 30 28  2  0  0  0  0
 30 32  1  0  0  0  0
 31 30  1  0  0  0  0
 32 33  2  0  0  0  0
 33 26  1  0  0  0  0
M  END
>  <minimizedAffinity>
-4.95594549

$$$$

 OpenBabel03272507453D

 33 35  0  0  0  0  0  0  0  0999 V2000
   37.5340   25.2830   32.4180 N   0  0  0  0  0  0  0  0  0  0  0  0
   36.2770   25.1240   31.7450 C   0  0  0  0  0  0  0  0  0  0  0  0
   35.7960   23.7780   31.4520 C   0  0  0  0  0  0  0  0  0  0  0  0
   36.8360   22.7090   31.2940 C   0  0  0  0  0  0  0  0  0  0  0  0
   38.1350   22.9750   31.9690 C   0  0  0  0  0  0  0  0  0  0  0  0
   38.5060   24.4530   31.7510 C   0  0  0  0  0  0  0  0  0  0  0  0
   35.5240   25.7100   32.3260 H   0  0  0  0  0  0  0  0  0  0  0  0
   36.3760   25.7180   30.7900 H   0  0  0  0  0  0  0  0  0  0  0  0
   35.1430   23.7900   30.5550 H   0  0  0  0  0  0  0  0  0  0  0  0
   35.0920   23.4710   32.2800 H   0  0  0  0  0  0  0  0  0  0  0  0
   37.0960   22.7520   30.1800 H   0  0  0  0  0  0  0  0  0  0  0  0
   38.9450   22.4210   31.4050 H   0  0  0  0  0  0  0  0  0  0  0  0
   38.2550   22.6760   32.9980 H   0  0  0  0  0  0  0  0  0  0  0  0
   38.5640   24.6180   30.6570 H   0  0  0  0  0  0  0  0  0  0  0  0
   39.4860   24.6790   32.1860 H   0  0  0  0  0  0  0  0  0  0  0  0
   37.7940   26.1160   33.5530 C   0  0  0  0  0  0  0  0  0  0  0  0
   36.9810   27.1790   33.9750 C   0  0  0  0  0  0  0  0  0  0  0  0
   37.3990   27.8700   35.1000 C   0  0  0  0  0  0  0  0  0  0  0  0
   38.5430   27.5090   35.7390 N   0  0  0  0  0  0  0  0  0  0  0  0
   39.2950   26.4780   35.2950 C   0  0  0  0  0  0  0  0  0  0  0  0
   38.9160   25.7860   34.2050 N   0  0  0  0  0  0  0  0  0  0  0  0
   36.1060   27.3550   33.3800 H   0  0  0  0  0  0  0  0  0  0  0  0
   36.7620   28.6880   35.4140 H   0  0  0  0  0  0  0  0  0  0  0  0
   40.1980   26.2250   35.8340 H   0  0  0  0  0  0  0  0  0  0  0  0
   38.0650   20.3620   29.6690 Cl  0  0  0  0  0  0  0  0  0  0  0  0
   36.7870   20.2130   30.8210 C   0  0  0  0  0  0  0  0  0  0  0  0
   36.3420   21.3370   31.4860 C   0  0  0  0  0  0  0  0  0  0  0  0
   35.3160   21.0220   32.3910 C   0  0  0  0  0  0  0  0  0  0  0  0
   34.8980   21.8620   32.9700 H   0  0  0  0  0  0  0  0  0  0  0  0
   34.7740   19.7800   32.6380 C   0  0  0  0  0  0  0  0  0  0  0  0
   33.9880   19.6790   33.3620 H   0  0  0  0  0  0  0  0  0  0  0  0
   35.2900   18.7260   31.9200 C   0  0  0  0  0  3  0  0  0  0  0  0
   36.2860   18.9430   31.0220 C   0  0  0  0  0  3  0  0  0  0  0  0
  1 16  1  0  0  0  0
  2  7  1  0  0  0  0
  2  1  1  0  0  0  0
  3  2  1  0  0  0  0
  3 10  1  0  0  0  0
  4  3  1  0  0  0  0
  4 27  1  0  0  0  0
  4  5  1  0  0  0  0
  5 13  1  0  0  0  0
  6  5  1  0  0  0  0
  6 15  1  0  0  0  0
  6  1  1  0  0  0  0
  8  2  1  0  0  0  0
  9  3  1  0  0  0  0
 11  4  1  0  0  0  0
 12  5  1  0  0  0  0
 14  6  1  0  0  0  0
 16 17  2  0  0  0  0
 16 21  1  0  0  0  0
 17 18  1  0  0  0  0
 18 23  1  0  0  0  0
 18 19  2  0  0  0  0
 20 19  1  0  0  0  0
 20 24  1  0  0  0  0
 21 20  2  0  0  0  0
 22 17  1  0  0  0  0
 25 26  1  0  0  0  0
 26 33  2  0  0  0  0
 26 27  1  0  0  0  0
 27 28  2  0  0  0  0
 28 30  1  0  0  0  0
 28 29  1  0  0  0  0
 30 31  1  0  0  0  0
 32 30  2  0  0  0  0
 33 32  1  0  0  0  0
M  END
>  <minimizedAffinity>
-4.92416143

$$$$

 OpenBabel03272507453D

 33 35  0  0  0  0  0  0  0  0999 V2000
   37.4340   26.6650   33.1030 N   0  0  0  0  0  0  0  0  0  0  0  0
   37.4280   27.0260   34.4910 C   0  0  0  0  0  0  0  0  0  0  0  0
   38.1010   26.1590   35.4510 C   0  0  0  0  0  0  0  0  0  0  0  0
   38.2160   24.7090   35.0880 C   0  0  0  0  0  0  0  0  0  0  0  0
   38.1500   24.4070   33.6320 C   0  0  0  0  0  0  0  0  0  0  0  0
   37.0510   25.2780   33.0000 C   0  0  0  0  0  0  0  0  0  0  0  0
   37.8050   28.0760   34.5530 H   0  0  0  0  0  0  0  0  0  0  0  0
   36.3370   27.1350   34.7630 H   0  0  0  0  0  0  0  0  0  0  0  0
   37.6270   26.2500   36.4510 H   0  0  0  0  0  0  0  0  0  0  0  0
   39.1410   26.5660   35.6220 H   0  0  0  0  0  0  0  0  0  0  0  0
   37.2510   24.2520   35.5020 H   0  0  0  0  0  0  0  0  0  0  0  0
   37.7490   23.3560   33.5070 H   0  0  0  0  0  0  0  0  0  0  0  0
   39.0630   24.4290   33.0570 H   0  0  0  0  0  0  0  0  0  0  0  0
   36.1020   25.0350   33.5180 H   0  0  0  0  0  0  0  0  0  0  0  0
   36.9310   25.0480   31.9350 H   0  0  0  0  0  0  0  0  0  0  0  0
   37.7620   27.5190   32.0010 C   0  0  0  0  0  0  0  0  0  0  0  0
   38.8970   27.3840   31.1880 C   0  0  0  0  0  0  0  0  0  0  0  0
   39.0410   28.3100   30.1680 C   0  0  0  0  0  0  0  0  0  0  0  0
   38.1110   29.2860   29.9920 N   0  0  0  0  0  0  0  0  0  0  0  0
   37.0330   29.3760   30.8020 C   0  0  0  0  0  0  0  0  0  0  0  0
   36.8630   28.4910   31.8020 N   0  0  0  0  0  0  0  0  0  0  0  0
   39.5490   26.5700   31.4370 H   0  0  0  0  0  0  0  0  0  0  0  0
   39.9220   28.1950   29.5490 H   0  0  0  0  0  0  0  0  0  0  0  0
   36.3180   30.1680   30.6250 H   0  0  0  0  0  0  0  0  0  0  0  0
   37.6290   23.3440   37.8180 Cl  0  0  0  0  0  0  0  0  0  0  0  0
   39.1580   23.3440   37.0130 C   0  0  0  0  0  0  0  0  0  0  0  0
   39.2800   23.9790   35.7940 C   0  0  0  0  0  0  0  0  0  0  0  0
   40.5820   23.8610   35.2860 C   0  0  0  0  0  0  0  0  0  0  0  0
   40.7730   24.3390   34.3100 H   0  0  0  0  0  0  0  0  0  0  0  0
   41.6500   23.2140   35.8680 C   0  0  0  0  0  0  0  0  0  0  0  0
   42.5990   23.2010   35.3660 H   0  0  0  0  0  0  0  0  0  0  0  0
   41.4210   22.6150   37.0850 C   0  0  0  0  0  3  0  0  0  0  0  0
   40.1870   22.6810   37.6490 C   0  0  0  0  0  3  0  0  0  0  0  0
  1  2  1  0  0  0  0
  2  7  1  0  0  0  0
  2  8  1  0  0  0  0
  2  3  1  0  0  0  0
  3 10  1  0  0  0  0
  3  9  1  0  0  0  0
  4  3  1  0  0  0  0
  4 11  1  0  0  0  0
  4 27  1  0  0  0  0
  5  4  1  0  0  0  0
  6  1  1  0  0  0  0
  6 14  1  0  0  0  0
  6  5  1  0  0  0  0
 12  5  1  0  0  0  0
 13  5  1  0  0  0  0
 15  6  1  0  0  0  0
 16  1  1  0  0  0  0
 17 22  1  0  0  0  0
 17 16  2  0  0  0  0
 18 17  1  0  0  0  0
 19 18  2  0  0  0  0
 19 20  1  0  0  0  0
 20 21  2  0  0  0  0
 21 16  1  0  0  0  0
 23 18  1  0  0  0  0
 24 20  1  0  0  0  0
 26 33  1  0  0  0  0
 26 25  1  0  0  0  0
 27 26  2  0  0  0  0
 28 27  1  0  0  0  0
 28 30  2  0  0  0  0
 29 28  1  0  0  0  0
 30 32  1  0  0  0  0
 31 30  1  0  0  0  0
 32 33  2  0  0  0  0
M  END
>  <minimizedAffinity>
-4.86981535

$$$$
