
 OpenBabel03262523583D

 28 30  0  0  0  0  0  0  0  0999 V2000
   36.4500   31.1130   48.3290 C   0  0  0  0  0  0  0  0  0  0  0  0
   37.3090   31.5370   47.2750 C   0  0  0  0  0  0  0  0  0  0  0  0
   37.0790   30.9870   46.0250 C   0  0  0  0  0  0  0  0  0  0  0  0
   36.0670   30.0820   45.8390 N   0  0  0  0  0  0  0  0  0  0  0  0
   35.2750   29.7130   46.8890 C   0  0  0  0  0  0  0  0  0  0  0  0
   35.4650   30.2260   48.1270 N   0  0  0  0  0  0  0  0  0  0  0  0
   36.5870   31.5110   49.3260 H   0  0  0  0  0  0  0  0  0  0  0  0
   37.7290   31.3050   45.2200 H   0  0  0  0  0  0  0  0  0  0  0  0
   34.5510   28.1640   49.5230 Br  0  0  0  0  0  0  0  0  0  0  0  0
   33.7580   27.9910   47.7890 C   0  0  0  0  0  0  0  0  0  0  0  0
   34.1940   28.7540   46.7180 C   0  0  0  0  0  0  0  0  0  0  0  0
   33.5670   28.5680   45.5020 C   0  0  0  0  0  0  0  0  0  0  0  0
   32.5350   27.6560   45.3250 C   0  0  0  0  0  0  0  0  0  0  0  0
   32.1250   26.9150   46.4020 C   0  0  0  0  0  0  0  0  0  0  0  0
   32.7410   27.0870   47.6330 C   0  0  0  0  0  0  0  0  0  0  0  0
   33.8990   29.1580   44.6580 H   0  0  0  0  0  0  0  0  0  0  0  0
   32.0460   27.5130   44.3700 H   0  0  0  0  0  0  0  0  0  0  0  0
   31.3250   26.1850   46.3410 H   0  0  0  0  0  0  0  0  0  0  0  0
   32.4080   26.4960   48.4770 H   0  0  0  0  0  0  0  0  0  0  0  0
   37.2130   32.9260   49.9930 Cl  0  0  0  0  0  0  0  0  0  0  0  0
   38.4460   33.2090   48.7770 C   0  0  0  0  0  0  0  0  0  0  0  0
   38.3260   32.4870   47.6060 C   0  0  0  0  0  0  0  0  0  0  0  0
   39.2910   32.6910   46.6230 C   0  0  0  0  0  0  0  0  0  0  0  0
   39.2660   32.1560   45.6630 H   0  0  0  0  0  0  0  0  0  0  0  0
   40.3130   33.5930   46.8560 C   0  0  0  0  0  0  0  0  0  0  0  0
   41.0790   33.7580   46.0820 H   0  0  0  0  0  0  0  0  0  0  0  0
   40.4150   34.3060   48.0370 C   0  0  0  0  0  0  0  0  0  0  0  0
   39.4550   34.1120   49.0310 C   0  0  0  0  0  0  0  0  0  0  0  0
  1  7  1  0  0  0  0
  2 22  1  0  0  0  0
  2  1  2  0  0  0  0
  3  2  1  0  0  0  0
  4  3  2  0  0  0  0
  4  5  1  0  0  0  0
  5  6  2  0  0  0  0
  6  1  1  0  0  0  0
  8  3  1  0  0  0  0
 10  9  1  0  0  0  0
 11  5  1  0  0  0  0
 11 10  2  0  0  0  0
 12 11  1  0  0  0  0
 13 12  2  0  0  0  0
 13 14  1  0  0  0  0
 14 15  2  0  0  0  0
 15 10  1  0  0  0  0
 15 19  1  0  0  0  0
 16 12  1  0  0  0  0
 17 13  1  0  0  0  0
 18 14  1  0  0  0  0
 21 28  1  0  0  0  0
 21 20  1  0  0  0  0
 22 21  2  0  0  0  0
 23 25  2  0  0  0  0
 23 22  1  0  0  0  0
 24 23  1  0  0  0  0
 25 27  1  0  0  0  0
 26 25  1  0  0  0  0
 27 28  2  0  0  0  0
M  END
>  <minimizedAffinity>
-4.98268175

>  <minimizedRMSD>
2.99139452

$$$$
