
 OpenBabel03262523373D

 34 36  0  0  1  0  0  0  0  0999 V2000
   37.8490   26.2940   33.3060 C   0  0  2  0  0  0  0  0  0  0  0  0
   38.7380   25.2550   33.9460 C   0  0  0  0  0  0  0  0  0  0  0  0
   38.4830   25.1070   35.4210 C   0  0  2  0  0  0  0  0  0  0  0  0
   38.5400   26.3810   36.1960 C   0  0  0  0  0  0  0  0  0  0  0  0
   37.9320   27.5590   35.4580 C   0  0  0  0  0  0  0  0  0  0  0  0
   37.0850   27.1160   34.2840 C   0  0  0  0  0  0  0  0  0  0  0  0
   38.4900   26.9100   32.6470 H   0  0  0  0  0  0  0  0  0  0  0  0
   39.8070   25.4900   33.7880 H   0  0  0  0  0  0  0  0  0  0  0  0
   38.6030   24.2290   33.5120 H   0  0  0  0  0  0  0  0  0  0  0  0
   37.5000   24.5670   35.5880 H   0  0  0  0  0  0  0  0  0  0  0  0
   39.5450   26.6410   36.5250 H   0  0  0  0  0  0  0  0  0  0  0  0
   37.8680   26.2200   37.0910 H   0  0  0  0  0  0  0  0  0  0  0  0
   38.7680   28.2070   35.0850 H   0  0  0  0  0  0  0  0  0  0  0  0
   37.3320   28.1820   36.1170 H   0  0  0  0  0  0  0  0  0  0  0  0
   36.8240   28.0710   33.7470 H   0  0  0  0  0  0  0  0  0  0  0  0
   36.1680   26.6230   34.6490 H   0  0  0  0  0  0  0  0  0  0  0  0
   36.8690   25.6300   32.4040 C   0  0  0  0  0  0  0  0  0  0  0  0
   36.9960   24.2330   32.2740 C   0  0  0  0  0  0  0  0  0  0  0  0
   36.0810   23.6040   31.4060 C   0  0  0  0  0  0  0  0  0  0  0  0
   35.1340   24.3580   30.7450 N   0  0  0  0  0  0  0  0  0  0  0  0
   35.0610   25.7020   30.9110 C   0  0  0  0  0  0  0  0  0  0  0  0
   35.9270   26.3120   31.7350 N   0  0  0  0  0  0  0  0  0  0  0  0
   37.7230   23.6160   32.7760 H   0  0  0  0  0  0  0  0  0  0  0  0
   36.0730   22.5400   31.2200 H   0  0  0  0  0  0  0  0  0  0  0  0
   34.3330   26.3080   30.4070 H   0  0  0  0  0  0  0  0  0  0  0  0
   37.6440   23.3990   37.6700 Cl  0  0  0  0  0  0  0  0  0  0  0  0
   39.2740   23.3460   36.9860 C   0  0  0  0  0  0  0  0  0  0  0  0
   39.5470   24.2070   35.9290 C   0  0  0  0  0  0  0  0  0  0  0  0
   40.8400   24.0810   35.4770 C   0  0  0  0  0  0  0  0  0  0  0  0
   41.1560   24.6990   34.6520 H   0  0  0  0  0  0  0  0  0  0  0  0
   41.7480   23.1980   36.0210 C   0  0  0  0  0  0  0  0  0  0  0  0
   42.7590   23.1750   35.5860 H   0  0  0  0  0  0  0  0  0  0  0  0
   41.3970   22.3770   37.0700 C   0  0  0  0  0  3  0  0  0  0  0  0
   40.1170   22.4540   37.5700 C   0  0  0  0  0  3  0  0  0  0  0  0
  1  7  1  6  0  0  0
  1  2  1  0  0  0  0
  1  6  1  0  0  0  0
  2  3  1  0  0  0  0
  3 10  1  1  0  0  0
  3 28  1  0  0  0  0
  3  4  1  0  0  0  0
  4 11  1  0  0  0  0
  4 12  1  0  0  0  0
  5 14  1  0  0  0  0
  5  4  1  0  0  0  0
  6 16  1  0  0  0  0
  6  5  1  0  0  0  0
  8  2  1  0  0  0  0
  9  2  1  0  0  0  0
 13  5  1  0  0  0  0
 15  6  1  0  0  0  0
 17  1  1  0  0  0  0
 18 17  1  0  0  0  0
 18 23  1  0  0  0  0
 19 18  2  0  0  0  0
 20 21  2  0  0  0  0
 20 19  1  0  0  0  0
 21 22  1  0  0  0  0
 22 17  2  0  0  0  0
 24 19  1  0  0  0  0
 25 21  1  0  0  0  0
 27 34  1  0  0  0  0
 27 26  1  0  0  0  0
 28 27  2  0  0  0  0
 29 28  1  0  0  0  0
 29 31  2  0  0  0  0
 30 29  1  0  0  0  0
 31 33  1  0  0  0  0
 32 31  1  0  0  0  0
 33 34  2  0  0  0  0
M  END
>  <minimizedAffinity>
-5.6688242

$$$$

 OpenBabel03262523373D

 34 36  0  0  1  0  0  0  0  0999 V2000
   37.4820   26.9680   33.1690 C   0  0  2  0  0  0  0  0  0  0  0  0
   38.9690   26.7020   33.1550 C   0  0  0  0  0  0  0  0  0  0  0  0
   39.4920   26.2870   34.5030 C   0  0  2  0  0  0  0  0  0  0  0  0
   39.1440   27.2120   35.6210 C   0  0  0  0  0  0  0  0  0  0  0  0
   37.7380   27.7730   35.5180 C   0  0  0  0  0  0  0  0  0  0  0  0
   36.8890   26.9990   34.5340 C   0  0  0  0  0  0  0  0  0  0  0  0
   37.3140   27.9110   32.6150 H   0  0  0  0  0  0  0  0  0  0  0  0
   39.5310   27.5900   32.8090 H   0  0  0  0  0  0  0  0  0  0  0  0
   39.2660   25.8820   32.4500 H   0  0  0  0  0  0  0  0  0  0  0  0
   39.1670   25.2250   34.7300 H   0  0  0  0  0  0  0  0  0  0  0  0
   39.8520   28.0310   35.7400 H   0  0  0  0  0  0  0  0  0  0  0  0
   39.1340   26.5700   36.5520 H   0  0  0  0  0  0  0  0  0  0  0  0
   37.8120   28.8410   35.1810 H   0  0  0  0  0  0  0  0  0  0  0  0
   37.2390   27.7910   36.4850 H   0  0  0  0  0  0  0  0  0  0  0  0
   35.9400   27.5980   34.4440 H   0  0  0  0  0  0  0  0  0  0  0  0
   36.6680   25.9960   34.9380 H   0  0  0  0  0  0  0  0  0  0  0  0
   36.7780   25.9140   32.3880 C   0  0  0  0  0  0  0  0  0  0  0  0
   35.7560   26.3600   31.5270 C   0  0  0  0  0  0  0  0  0  0  0  0
   35.0750   25.3620   30.8010 C   0  0  0  0  0  0  0  0  0  0  0  0
   35.4280   24.0380   30.9600 N   0  0  0  0  0  0  0  0  0  0  0  0
   36.4220   23.6700   31.8060 C   0  0  0  0  0  0  0  0  0  0  0  0
   37.0780   24.6110   32.5020 N   0  0  0  0  0  0  0  0  0  0  0  0
   35.4570   27.3840   31.3810 H   0  0  0  0  0  0  0  0  0  0  0  0
   34.2740   25.5720   30.1100 H   0  0  0  0  0  0  0  0  0  0  0  0
   36.7130   22.6460   31.9450 H   0  0  0  0  0  0  0  0  0  0  0  0
   40.7500   23.8830   35.6510 Cl  0  0  0  0  0  0  0  0  0  0  0  0
   41.6810   25.1670   34.8700 C   0  0  0  0  0  0  0  0  0  0  0  0
   40.9700   26.2530   34.3720 C   0  0  0  0  0  0  0  0  0  0  0  0
   41.7920   27.1880   33.7860 C   0  0  0  0  0  0  0  0  0  0  0  0
   41.3410   28.0700   33.3600 H   0  0  0  0  0  0  0  0  0  0  0  0
   43.1600   27.0490   33.7110 C   0  0  0  0  0  0  0  0  0  0  0  0
   43.7290   27.8550   33.2220 H   0  0  0  0  0  0  0  0  0  0  0  0
   43.7900   25.9380   34.2300 C   0  0  0  0  0  3  0  0  0  0  0  0
   43.0240   24.9650   34.8300 C   0  0  0  0  0  3  0  0  0  0  0  0
  1  7  1  6  0  0  0
  1  6  1  0  0  0  0
  2  1  1  0  0  0  0
  2  3  1  0  0  0  0
  3 10  1  1  0  0  0
  3  4  1  0  0  0  0
  4 11  1  0  0  0  0
  4 12  1  0  0  0  0
  5  4  1  0  0  0  0
  5 14  1  0  0  0  0
  6 16  1  0  0  0  0
  6  5  1  0  0  0  0
  8  2  1  0  0  0  0
  9  2  1  0  0  0  0
 13  5  1  0  0  0  0
 15  6  1  0  0  0  0
 17 22  1  0  0  0  0
 17  1  1  0  0  0  0
 18 17  2  0  0  0  0
 19 20  2  0  0  0  0
 19 18  1  0  0  0  0
 20 21  1  0  0  0  0
 21 25  1  0  0  0  0
 21 22  2  0  0  0  0
 23 18  1  0  0  0  0
 24 19  1  0  0  0  0
 27 26  1  0  0  0  0
 28  3  1  0  0  0  0
 28 27  2  0  0  0  0
 29 28  1  0  0  0  0
 30 29  1  0  0  0  0
 31 29  2  0  0  0  0
 31 33  1  0  0  0  0
 32 31  1  0  0  0  0
 33 34  2  0  0  0  0
 34 27  1  0  0  0  0
M  END
>  <minimizedAffinity>
-5.35497475

$$$$

 OpenBabel03262523373D

 34 36  0  0  1  0  0  0  0  0999 V2000
   37.0530   27.9930   31.9130 C   0  0  2  0  0  0  0  0  0  0  0  0
   36.4230   28.6190   33.1350 C   0  0  0  0  0  0  0  0  0  0  0  0
   35.3440   29.6070   32.7840 C   0  0  2  0  0  0  0  0  0  0  0  0
   35.7550   30.6650   31.8160 C   0  0  0  0  0  0  0  0  0  0  0  0
   36.6660   30.1510   30.7180 C   0  0  0  0  0  0  0  0  0  0  0  0
   36.6550   28.6400   30.6330 C   0  0  0  0  0  0  0  0  0  0  0  0
   38.1480   28.0040   32.0690 H   0  0  0  0  0  0  0  0  0  0  0  0
   37.1820   29.1240   33.7620 H   0  0  0  0  0  0  0  0  0  0  0  0
   35.9390   27.8720   33.8160 H   0  0  0  0  0  0  0  0  0  0  0  0
   34.4210   29.0550   32.4250 H   0  0  0  0  0  0  0  0  0  0  0  0
   36.2150   31.5300   32.2920 H   0  0  0  0  0  0  0  0  0  0  0  0
   34.8050   30.9740   31.2860 H   0  0  0  0  0  0  0  0  0  0  0  0
   37.7100   30.5000   30.9380 H   0  0  0  0  0  0  0  0  0  0  0  0
   36.4030   30.5660   29.7470 H   0  0  0  0  0  0  0  0  0  0  0  0
   37.4690   28.3910   29.8960 H   0  0  0  0  0  0  0  0  0  0  0  0
   35.6790   28.2940   30.2520 H   0  0  0  0  0  0  0  0  0  0  0  0
   36.6740   26.5550   31.8360 C   0  0  0  0  0  0  0  0  0  0  0  0
   35.5160   26.2600   31.0900 C   0  0  0  0  0  0  0  0  0  0  0  0
   35.1450   24.9020   31.0310 C   0  0  0  0  0  0  0  0  0  0  0  0
   35.9060   23.9540   31.6830 N   0  0  0  0  0  0  0  0  0  0  0  0
   37.0120   24.3000   32.3860 C   0  0  0  0  0  0  0  0  0  0  0  0
   37.3760   25.5900   32.4490 N   0  0  0  0  0  0  0  0  0  0  0  0
   34.9010   26.9750   30.5700 H   0  0  0  0  0  0  0  0  0  0  0  0
   34.2790   24.5450   30.4930 H   0  0  0  0  0  0  0  0  0  0  0  0
   37.6190   23.5810   32.9010 H   0  0  0  0  0  0  0  0  0  0  0  0
   32.5010   29.3120   33.5000 Cl  0  0  0  0  0  0  0  0  0  0  0  0
   33.6540   30.1930   34.5110 C   0  0  0  0  0  0  0  0  0  0  0  0
   34.9670   30.2650   34.0590 C   0  0  0  0  0  0  0  0  0  0  0  0
   35.7740   30.9710   34.9210 C   0  0  0  0  0  0  0  0  0  0  0  0
   36.8170   31.0820   34.6710 H   0  0  0  0  0  0  0  0  0  0  0  0
   35.3170   31.5370   36.0920 C   0  0  0  0  0  0  0  0  0  0  0  0
   36.0450   32.0830   36.7120 H   0  0  0  0  0  0  0  0  0  0  0  0
   33.9960   31.4190   36.4680 C   0  0  0  0  0  3  0  0  0  0  0  0
   33.1360   30.7240   35.6490 C   0  0  0  0  0  3  0  0  0  0  0  0
  1  7  1  1  0  0  0
  1  2  1  0  0  0  0
  2  8  1  0  0  0  0
  2  9  1  0  0  0  0
  3 10  1  6  0  0  0
  3  2  1  0  0  0  0
  3 28  1  0  0  0  0
  4 11  1  0  0  0  0
  4  3  1  0  0  0  0
  5 13  1  0  0  0  0
  5  4  1  0  0  0  0
  6  5  1  0  0  0  0
  6  1  1  0  0  0  0
 12  4  1  0  0  0  0
 14  5  1  0  0  0  0
 15  6  1  0  0  0  0
 16  6  1  0  0  0  0
 17  1  1  0  0  0  0
 17 22  1  0  0  0  0
 18 17  2  0  0  0  0
 19 18  1  0  0  0  0
 19 20  2  0  0  0  0
 20 21  1  0  0  0  0
 21 22  2  0  0  0  0
 21 25  1  0  0  0  0
 23 18  1  0  0  0  0
 24 19  1  0  0  0  0
 26 27  1  0  0  0  0
 27 34  1  0  0  0  0
 28 27  2  0  0  0  0
 28 29  1  0  0  0  0
 29 31  2  0  0  0  0
 30 29  1  0  0  0  0
 31 33  1  0  0  0  0
 31 32  1  0  0  0  0
 34 33  2  0  0  0  0
M  END
>  <minimizedAffinity>
-5.24790621

$$$$

 OpenBabel03262523373D

 34 36  0  0  1  0  0  0  0  0999 V2000
   35.0450   31.8130   36.3110 C   0  0  2  0  0  0  0  0  0  0  0  0
   35.8390   30.8280   35.4870 C   0  0  0  0  0  0  0  0  0  0  0  0
   35.0470   30.2660   34.3390 C   0  0  2  0  0  0  0  0  0  0  0  0
   33.7300   29.6770   34.7170 C   0  0  0  0  0  0  0  0  0  0  0  0
   33.0070   30.4650   35.7930 C   0  0  0  0  0  0  0  0  0  0  0  0
   33.5950   31.8480   35.9730 C   0  0  0  0  0  0  0  0  0  0  0  0
   35.2240   31.5670   37.3750 H   0  0  0  0  0  0  0  0  0  0  0  0
   36.2110   29.9930   36.1090 H   0  0  0  0  0  0  0  0  0  0  0  0
   36.7600   31.2760   35.0280 H   0  0  0  0  0  0  0  0  0  0  0  0
   34.9290   31.0540   33.5320 H   0  0  0  0  0  0  0  0  0  0  0  0
   33.7950   28.6320   35.0170 H   0  0  0  0  0  0  0  0  0  0  0  0
   33.0790   29.7760   33.7970 H   0  0  0  0  0  0  0  0  0  0  0  0
   33.0940   29.8990   36.7580 H   0  0  0  0  0  0  0  0  0  0  0  0
   31.9430   30.5530   35.5840 H   0  0  0  0  0  0  0  0  0  0  0  0
   33.0770   32.2600   36.8830 H   0  0  0  0  0  0  0  0  0  0  0  0
   33.3660   32.4700   35.0910 H   0  0  0  0  0  0  0  0  0  0  0  0
   35.5920   33.1840   36.1180 C   0  0  0  0  0  0  0  0  0  0  0  0
   36.8160   33.2710   35.4290 C   0  0  0  0  0  0  0  0  0  0  0  0
   37.3460   34.5660   35.2620 C   0  0  0  0  0  0  0  0  0  0  0  0
   36.6640   35.6550   35.7630 N   0  0  0  0  0  0  0  0  0  0  0  0
   35.4860   35.5080   36.4190 C   0  0  0  0  0  0  0  0  0  0  0  0
   34.9720   34.2800   36.5840 N   0  0  0  0  0  0  0  0  0  0  0  0
   37.3730   32.4410   35.0260 H   0  0  0  0  0  0  0  0  0  0  0  0
   38.2760   34.7670   34.7520 H   0  0  0  0  0  0  0  0  0  0  0  0
   34.9380   36.3410   36.8170 H   0  0  0  0  0  0  0  0  0  0  0  0
   35.3530   30.4310   31.4130 Cl  0  0  0  0  0  0  0  0  0  0  0  0
   36.1120   29.1610   32.3820 C   0  0  0  0  0  0  0  0  0  0  0  0
   35.8860   29.1910   33.7540 C   0  0  0  0  0  0  0  0  0  0  0  0
   36.5220   28.1610   34.4070 C   0  0  0  0  0  0  0  0  0  0  0  0
   36.4200   28.0930   35.4790 H   0  0  0  0  0  0  0  0  0  0  0  0
   37.2900   27.2160   33.7610 C   0  0  0  0  0  0  0  0  0  0  0  0
   37.7570   26.4320   34.3760 H   0  0  0  0  0  0  0  0  0  0  0  0
   37.4640   27.2580   32.3950 C   0  0  0  0  0  3  0  0  0  0  0  0
   36.8540   28.2650   31.6820 C   0  0  0  0  0  3  0  0  0  0  0  0
  1  7  1  1  0  0  0
  2  8  1  0  0  0  0
  2  1  1  0  0  0  0
  3 10  1  6  0  0  0
  3  4  1  0  0  0  0
  3  2  1  0  0  0  0
  4 11  1  0  0  0  0
  4  5  1  0  0  0  0
  5  6  1  0  0  0  0
  5 13  1  0  0  0  0
  6  1  1  0  0  0  0
  6 15  1  0  0  0  0
  9  2  1  0  0  0  0
 12  4  1  0  0  0  0
 14  5  1  0  0  0  0
 16  6  1  0  0  0  0
 17  1  1  0  0  0  0
 17 22  1  0  0  0  0
 18 17  2  0  0  0  0
 19 18  1  0  0  0  0
 19 20  2  0  0  0  0
 20 21  1  0  0  0  0
 21 22  2  0  0  0  0
 21 25  1  0  0  0  0
 23 18  1  0  0  0  0
 24 19  1  0  0  0  0
 26 27  1  0  0  0  0
 27 28  1  0  0  0  0
 28  3  1  0  0  0  0
 28 29  2  0  0  0  0
 29 30  1  0  0  0  0
 31 32  1  0  0  0  0
 31 29  1  0  0  0  0
 33 31  2  0  0  0  0
 34 27  2  0  0  0  0
 34 33  1  0  0  0  0
M  END
>  <minimizedAffinity>
-5.24150658

$$$$

 OpenBabel03262523373D

 34 36  0  0  1  0  0  0  0  0999 V2000
   36.4260   23.5730   31.2950 C   0  0  2  0  0  0  0  0  0  0  0  0
   37.6280   24.2260   31.9370 C   0  0  0  0  0  0  0  0  0  0  0  0
   37.2730   25.4870   32.6760 C   0  0  2  0  0  0  0  0  0  0  0  0
   36.5100   26.4880   31.8740 C   0  0  0  0  0  0  0  0  0  0  0  0
   35.4810   25.8600   30.9540 C   0  0  0  0  0  0  0  0  0  0  0  0
   35.2000   24.4180   31.3180 C   0  0  0  0  0  0  0  0  0  0  0  0
   36.7210   23.2860   30.2680 H   0  0  0  0  0  0  0  0  0  0  0  0
   38.4070   24.4560   31.1870 H   0  0  0  0  0  0  0  0  0  0  0  0
   38.1390   23.5690   32.6890 H   0  0  0  0  0  0  0  0  0  0  0  0
   36.7300   25.2290   33.6370 H   0  0  0  0  0  0  0  0  0  0  0  0
   37.1490   27.1560   31.2980 H   0  0  0  0  0  0  0  0  0  0  0  0
   35.9070   27.0800   32.6250 H   0  0  0  0  0  0  0  0  0  0  0  0
   35.8760   25.9040   29.9050 H   0  0  0  0  0  0  0  0  0  0  0  0
   34.5460   26.4170   30.9540 H   0  0  0  0  0  0  0  0  0  0  0  0
   34.5480   24.0360   30.4840 H   0  0  0  0  0  0  0  0  0  0  0  0
   34.6560   24.3730   32.2770 H   0  0  0  0  0  0  0  0  0  0  0  0
   36.1160   22.2970   31.9950 C   0  0  0  0  0  0  0  0  0  0  0  0
   35.2550   21.4130   31.3160 C   0  0  0  0  0  0  0  0  0  0  0  0
   34.9450   20.2120   31.9850 C   0  0  0  0  0  0  0  0  0  0  0  0
   35.4790   19.9630   33.2320 N   0  0  0  0  0  0  0  0  0  0  0  0
   36.3030   20.8550   33.8360 C   0  0  0  0  0  0  0  0  0  0  0  0
   36.6060   22.0020   33.2080 N   0  0  0  0  0  0  0  0  0  0  0  0
   34.8220   21.5760   30.3430 H   0  0  0  0  0  0  0  0  0  0  0  0
   34.2980   19.4520   31.5730 H   0  0  0  0  0  0  0  0  0  0  0  0
   36.7300   20.6830   34.8050 H   0  0  0  0  0  0  0  0  0  0  0  0
   37.6900   25.6220   35.5900 Cl  0  0  0  0  0  0  0  0  0  0  0  0
   38.8820   26.2160   34.4260 C   0  0  0  0  0  0  0  0  0  0  0  0
   38.5630   26.1000   33.0770 C   0  0  0  0  0  0  0  0  0  0  0  0
   39.5590   26.5910   32.2640 C   0  0  0  0  0  0  0  0  0  0  0  0
   39.4180   26.5430   31.1960 H   0  0  0  0  0  0  0  0  0  0  0  0
   40.7300   27.1330   32.7470 C   0  0  0  0  0  0  0  0  0  0  0  0
   41.4640   27.4990   32.0120 H   0  0  0  0  0  0  0  0  0  0  0  0
   40.9690   27.2120   34.1020 C   0  0  0  0  0  3  0  0  0  0  0  0
   40.0120   26.7370   34.9700 C   0  0  0  0  0  3  0  0  0  0  0  0
  1  7  1  6  0  0  0
  1  6  1  0  0  0  0
  1  2  1  0  0  0  0
  1 17  1  0  0  0  0
  2  3  1  0  0  0  0
  2  9  1  0  0  0  0
  3 28  1  0  0  0  0
  3 10  1  1  0  0  0
  4 12  1  0  0  0  0
  4  3  1  0  0  0  0
  5 14  1  0  0  0  0
  5  6  1  0  0  0  0
  5  4  1  0  0  0  0
  6 16  1  0  0  0  0
  8  2  1  0  0  0  0
 11  4  1  0  0  0  0
 13  5  1  0  0  0  0
 15  6  1  0  0  0  0
 17 22  1  0  0  0  0
 18 19  1  0  0  0  0
 18 17  2  0  0  0  0
 19 20  2  0  0  0  0
 20 21  1  0  0  0  0
 21 25  1  0  0  0  0
 22 21  2  0  0  0  0
 23 18  1  0  0  0  0
 24 19  1  0  0  0  0
 27 34  1  0  0  0  0
 27 26  1  0  0  0  0
 28 27  2  0  0  0  0
 29 31  2  0  0  0  0
 29 28  1  0  0  0  0
 30 29  1  0  0  0  0
 31 33  1  0  0  0  0
 32 31  1  0  0  0  0
 33 34  2  0  0  0  0
M  END
>  <minimizedAffinity>
-5.22175837

$$$$

 OpenBabel03262523373D

 34 36  0  0  1  0  0  0  0  0999 V2000
   38.9900   25.5360   32.3840 C   0  0  2  0  0  0  0  0  0  0  0  0
   39.2050   24.5730   33.5280 C   0  0  0  0  0  0  0  0  0  0  0  0
   39.3470   25.2730   34.8510 C   0  0  2  0  0  0  0  0  0  0  0  0
   40.3790   26.3490   34.8820 C   0  0  0  0  0  0  0  0  0  0  0  0
   40.4290   27.1700   33.6070 C   0  0  0  0  0  0  0  0  0  0  0  0
   39.1970   26.9630   32.7530 C   0  0  0  0  0  0  0  0  0  0  0  0
   39.6510   25.2140   31.5580 H   0  0  0  0  0  0  0  0  0  0  0  0
   40.0980   23.9430   33.3570 H   0  0  0  0  0  0  0  0  0  0  0  0
   38.3610   23.8460   33.6590 H   0  0  0  0  0  0  0  0  0  0  0  0
   38.3370   25.6620   35.1900 H   0  0  0  0  0  0  0  0  0  0  0  0
   41.3780   25.9820   35.1140 H   0  0  0  0  0  0  0  0  0  0  0  0
   40.0380   27.0730   35.6810 H   0  0  0  0  0  0  0  0  0  0  0  0
   41.3370   26.8580   33.0260 H   0  0  0  0  0  0  0  0  0  0  0  0
   40.5470   28.2310   33.8140 H   0  0  0  0  0  0  0  0  0  0  0  0
   39.4260   27.5000   31.7900 H   0  0  0  0  0  0  0  0  0  0  0  0
   38.3200   27.4200   33.2430 H   0  0  0  0  0  0  0  0  0  0  0  0
   37.6020   25.3950   31.8650 C   0  0  0  0  0  0  0  0  0  0  0  0
   37.1130   24.0790   31.7540 C   0  0  0  0  0  0  0  0  0  0  0  0
   35.8060   23.9410   31.2450 C   0  0  0  0  0  0  0  0  0  0  0  0
   35.0870   25.0640   30.8900 N   0  0  0  0  0  0  0  0  0  0  0  0
   35.6130   26.3070   31.0200 C   0  0  0  0  0  0  0  0  0  0  0  0
   36.8560   26.4500   31.5040 N   0  0  0  0  0  0  0  0  0  0  0  0
   37.6480   23.1830   32.0220 H   0  0  0  0  0  0  0  0  0  0  0  0
   35.3170   22.9880   31.1110 H   0  0  0  0  0  0  0  0  0  0  0  0
   35.0720   27.1940   30.7500 H   0  0  0  0  0  0  0  0  0  0  0  0
   41.9760   24.0550   34.3190 Cl  0  0  0  0  0  0  0  0  0  0  0  0
   40.9620   23.5780   35.6870 C   0  0  0  0  0  0  0  0  0  0  0  0
   39.7390   24.2250   35.8250 C   0  0  0  0  0  0  0  0  0  0  0  0
   39.0360   23.7770   36.9200 C   0  0  0  0  0  0  0  0  0  0  0  0
   38.0740   24.2190   37.1260 H   0  0  0  0  0  0  0  0  0  0  0  0
   39.5030   22.7980   37.7690 C   0  0  0  0  0  0  0  0  0  0  0  0
   38.8630   22.5100   38.6170 H   0  0  0  0  0  0  0  0  0  0  0  0
   40.7300   22.2050   37.5610 C   0  0  0  0  0  3  0  0  0  0  0  0
   41.4840   22.6090   36.4830 C   0  0  0  0  0  3  0  0  0  0  0  0
  1  7  1  6  0  0  0
  1  6  1  0  0  0  0
  1  2  1  0  0  0  0
  2  9  1  0  0  0  0
  2  3  1  0  0  0  0
  3  4  1  0  0  0  0
  3 10  1  1  0  0  0
  3 28  1  0  0  0  0
  4 11  1  0  0  0  0
  4 12  1  0  0  0  0
  5 14  1  0  0  0  0
  5  4  1  0  0  0  0
  6 16  1  0  0  0  0
  6  5  1  0  0  0  0
  8  2  1  0  0  0  0
 13  5  1  0  0  0  0
 15  6  1  0  0  0  0
 17  1  1  0  0  0  0
 18 17  1  0  0  0  0
 18 23  1  0  0  0  0
 19 18  2  0  0  0  0
 20 21  2  0  0  0  0
 20 19  1  0  0  0  0
 21 22  1  0  0  0  0
 22 17  2  0  0  0  0
 24 19  1  0  0  0  0
 25 21  1  0  0  0  0
 26 27  1  0  0  0  0
 27 28  2  0  0  0  0
 27 34  1  0  0  0  0
 28 29  1  0  0  0  0
 29 30  1  0  0  0  0
 29 31  2  0  0  0  0
 31 32  1  0  0  0  0
 33 31  1  0  0  0  0
 34 33  2  0  0  0  0
M  END
>  <minimizedAffinity>
-5.18216467

$$$$

 OpenBabel03262523373D

 34 36  0  0  1  0  0  0  0  0999 V2000
   36.1590   28.5480   31.5630 C   0  0  2  0  0  0  0  0  0  0  0  0
   35.1410   29.2090   32.4630 C   0  0  0  0  0  0  0  0  0  0  0  0
   35.6820   29.4860   33.8390 C   0  0  2  0  0  0  0  0  0  0  0  0
   36.2850   28.3050   34.5230 C   0  0  0  0  0  0  0  0  0  0  0  0
   37.0760   27.4100   33.5880 C   0  0  0  0  0  0  0  0  0  0  0  0
   37.3860   28.0950   32.2750 C   0  0  0  0  0  0  0  0  0  0  0  0
   35.6430   27.7190   31.0420 H   0  0  0  0  0  0  0  0  0  0  0  0
   34.2270   28.5930   32.5540 H   0  0  0  0  0  0  0  0  0  0  0  0
   34.7830   30.1980   32.0740 H   0  0  0  0  0  0  0  0  0  0  0  0
   36.4100   30.3540   33.7970 H   0  0  0  0  0  0  0  0  0  0  0  0
   35.5580   27.7050   35.0680 H   0  0  0  0  0  0  0  0  0  0  0  0
   37.0520   28.7290   35.2380 H   0  0  0  0  0  0  0  0  0  0  0  0
   36.4680   26.4880   33.3890 H   0  0  0  0  0  0  0  0  0  0  0  0
   38.0050   27.0710   34.0430 H   0  0  0  0  0  0  0  0  0  0  0  0
   37.8340   27.2870   31.6320 H   0  0  0  0  0  0  0  0  0  0  0  0
   38.1200   28.9010   32.4370 H   0  0  0  0  0  0  0  0  0  0  0  0
   36.5740   29.4970   30.4950 C   0  0  0  0  0  0  0  0  0  0  0  0
   36.1850   30.8390   30.6730 C   0  0  0  0  0  0  0  0  0  0  0  0
   36.5610   31.7360   29.6530 C   0  0  0  0  0  0  0  0  0  0  0  0
   37.2700   31.2760   28.5630 N   0  0  0  0  0  0  0  0  0  0  0  0
   37.6170   29.9700   28.4470 C   0  0  0  0  0  0  0  0  0  0  0  0
   37.2650   29.1070   29.4120 N   0  0  0  0  0  0  0  0  0  0  0  0
   35.6320   31.2290   31.5110 H   0  0  0  0  0  0  0  0  0  0  0  0
   36.3240   32.7890   29.6700 H   0  0  0  0  0  0  0  0  0  0  0  0
   38.1680   29.5900   27.6090 H   0  0  0  0  0  0  0  0  0  0  0  0
   36.3140   31.6710   35.7120 Cl  0  0  0  0  0  0  0  0  0  0  0  0
   34.6930   30.9800   35.5620 C   0  0  0  0  0  0  0  0  0  0  0  0
   34.5260   29.9480   34.6440 C   0  0  0  0  0  0  0  0  0  0  0  0
   33.2290   29.4890   34.6110 C   0  0  0  0  0  0  0  0  0  0  0  0
   32.9870   28.6910   33.9260 H   0  0  0  0  0  0  0  0  0  0  0  0
   32.2250   30.0020   35.4020 C   0  0  0  0  0  0  0  0  0  0  0  0
   31.2200   29.5630   35.2990 H   0  0  0  0  0  0  0  0  0  0  0  0
   32.4740   31.0280   36.2880 C   0  0  0  0  0  3  0  0  0  0  0  0
   33.7520   31.5330   36.3710 C   0  0  0  0  0  3  0  0  0  0  0  0
  1  7  1  6  0  0  0
  1  6  1  0  0  0  0
  1  2  1  0  0  0  0
  2  8  1  0  0  0  0
  2  3  1  0  0  0  0
  3 10  1  6  0  0  0
  3  4  1  0  0  0  0
  3 28  1  0  0  0  0
  4 11  1  0  0  0  0
  4 12  1  0  0  0  0
  5 14  1  0  0  0  0
  5  4  1  0  0  0  0
  6 16  1  0  0  0  0
  6  5  1  0  0  0  0
  9  2  1  0  0  0  0
 13  5  1  0  0  0  0
 15  6  1  0  0  0  0
 17 18  1  0  0  0  0
 17  1  1  0  0  0  0
 18 23  1  0  0  0  0
 19 24  1  0  0  0  0
 19 18  2  0  0  0  0
 20 19  1  0  0  0  0
 21 20  2  0  0  0  0
 21 22  1  0  0  0  0
 22 17  2  0  0  0  0
 25 21  1  0  0  0  0
 27 26  1  0  0  0  0
 27 34  1  0  0  0  0
 28 27  2  0  0  0  0
 29 28  1  0  0  0  0
 29 31  2  0  0  0  0
 30 29  1  0  0  0  0
 31 33  1  0  0  0  0
 32 31  1  0  0  0  0
 33 34  2  0  0  0  0
M  END
>  <minimizedAffinity>
-5.07035303

$$$$

 OpenBabel03262523373D

 34 36  0  0  1  0  0  0  0  0999 V2000
   37.1630   27.1320   31.9650 C   0  0  2  0  0  0  0  0  0  0  0  0
   37.1310   26.2400   33.1840 C   0  0  0  0  0  0  0  0  0  0  0  0
   38.5070   25.9280   33.7050 C   0  0  2  0  0  0  0  0  0  0  0  0
   39.4510   25.3780   32.6890 C   0  0  0  0  0  0  0  0  0  0  0  0
   39.3110   26.0300   31.3260 C   0  0  0  0  0  0  0  0  0  0  0  0
   38.5250   27.3210   31.3940 C   0  0  0  0  0  0  0  0  0  0  0  0
   36.4540   26.7050   31.2310 H   0  0  0  0  0  0  0  0  0  0  0  0
   36.6030   25.2920   32.9720 H   0  0  0  0  0  0  0  0  0  0  0  0
   36.5760   26.6910   34.0480 H   0  0  0  0  0  0  0  0  0  0  0  0
   38.9400   26.8420   34.2170 H   0  0  0  0  0  0  0  0  0  0  0  0
   39.3850   24.2960   32.5800 H   0  0  0  0  0  0  0  0  0  0  0  0
   40.4830   25.6700   33.0470 H   0  0  0  0  0  0  0  0  0  0  0  0
   38.7810   25.3110   30.6480 H   0  0  0  0  0  0  0  0  0  0  0  0
   40.2800   26.2240   30.8710 H   0  0  0  0  0  0  0  0  0  0  0  0
   38.3700   27.6160   30.3190 H   0  0  0  0  0  0  0  0  0  0  0  0
   39.1160   28.0920   31.9180 H   0  0  0  0  0  0  0  0  0  0  0  0
   36.6220   28.4740   32.3120 C   0  0  0  0  0  0  0  0  0  0  0  0
   36.0480   28.5980   33.5920 C   0  0  0  0  0  0  0  0  0  0  0  0
   35.5180   29.8640   33.9160 C   0  0  0  0  0  0  0  0  0  0  0  0
   35.5840   30.8900   32.9960 N   0  0  0  0  0  0  0  0  0  0  0  0
   36.1500   30.7090   31.7780 C   0  0  0  0  0  0  0  0  0  0  0  0
   36.6590   29.5090   31.4580 N   0  0  0  0  0  0  0  0  0  0  0  0
   35.9810   27.8180   34.3320 H   0  0  0  0  0  0  0  0  0  0  0  0
   35.0520   30.0880   34.8630 H   0  0  0  0  0  0  0  0  0  0  0  0
   36.2120   31.4930   31.0470 H   0  0  0  0  0  0  0  0  0  0  0  0
   38.3650   27.0290   36.4340 Cl  0  0  0  0  0  0  0  0  0  0  0  0
   38.2290   25.2990   36.0940 C   0  0  0  0  0  0  0  0  0  0  0  0
   38.3180   24.9050   34.7640 C   0  0  0  0  0  0  0  0  0  0  0  0
   38.1980   23.5430   34.6170 C   0  0  0  0  0  0  0  0  0  0  0  0
   38.2460   23.1290   33.6210 H   0  0  0  0  0  0  0  0  0  0  0  0
   38.0140   22.6810   35.6760 C   0  0  0  0  0  0  0  0  0  0  0  0
   37.9310   21.6070   35.4510 H   0  0  0  0  0  0  0  0  0  0  0  0
   37.9370   23.1540   36.9680 C   0  0  0  0  0  3  0  0  0  0  0  0
   38.0490   24.5080   37.1840 C   0  0  0  0  0  3  0  0  0  0  0  0
  1  7  1  6  0  0  0
  1 17  1  0  0  0  0
  1  2  1  0  0  0  0
  2  3  1  0  0  0  0
  2  9  1  0  0  0  0
  3 10  1  1  0  0  0
  3 28  1  0  0  0  0
  4 12  1  0  0  0  0
  4  3  1  0  0  0  0
  5  6  1  0  0  0  0
  5  4  1  0  0  0  0
  6 16  1  0  0  0  0
  6  1  1  0  0  0  0
  8  2  1  0  0  0  0
 11  4  1  0  0  0  0
 13  5  1  0  0  0  0
 14  5  1  0  0  0  0
 15  6  1  0  0  0  0
 17 18  1  0  0  0  0
 18 19  2  0  0  0  0
 18 23  1  0  0  0  0
 19 24  1  0  0  0  0
 20 19  1  0  0  0  0
 21 20  2  0  0  0  0
 22 21  1  0  0  0  0
 22 17  2  0  0  0  0
 25 21  1  0  0  0  0
 27 26  1  0  0  0  0
 27 34  1  0  0  0  0
 28 27  2  0  0  0  0
 29 28  1  0  0  0  0
 29 31  2  0  0  0  0
 30 29  1  0  0  0  0
 31 33  1  0  0  0  0
 32 31  1  0  0  0  0
 33 34  2  0  0  0  0
M  END
>  <minimizedAffinity>
-4.87869406

$$$$

 OpenBabel03262523373D

 34 36  0  0  1  0  0  0  0  0999 V2000
   37.6650   25.6630   32.0300 C   0  0  2  0  0  0  0  0  0  0  0  0
   36.8730   24.4090   32.3170 C   0  0  0  0  0  0  0  0  0  0  0  0
   37.6350   23.1570   31.9780 C   0  0  2  0  0  0  0  0  0  0  0  0
   38.1830   23.1140   30.5910 C   0  0  0  0  0  0  0  0  0  0  0  0
   38.7180   24.4510   30.1160 C   0  0  0  0  0  0  0  0  0  0  0  0
   38.9170   25.4200   31.2620 C   0  0  0  0  0  0  0  0  0  0  0  0
   36.9830   26.3670   31.5150 H   0  0  0  0  0  0  0  0  0  0  0  0
   35.9140   24.4050   31.7670 H   0  0  0  0  0  0  0  0  0  0  0  0
   36.5850   24.3040   33.3960 H   0  0  0  0  0  0  0  0  0  0  0  0
   38.4490   22.9820   32.7480 H   0  0  0  0  0  0  0  0  0  0  0  0
   37.4740   22.7280   29.8600 H   0  0  0  0  0  0  0  0  0  0  0  0
   39.0890   22.4400   30.6450 H   0  0  0  0  0  0  0  0  0  0  0  0
   37.9800   24.8850   29.3910 H   0  0  0  0  0  0  0  0  0  0  0  0
   39.6540   24.3420   29.5730 H   0  0  0  0  0  0  0  0  0  0  0  0
   39.1670   26.3990   30.7650 H   0  0  0  0  0  0  0  0  0  0  0  0
   39.7590   25.0880   31.8910 H   0  0  0  0  0  0  0  0  0  0  0  0
   38.0340   26.3260   33.3100 C   0  0  0  0  0  0  0  0  0  0  0  0
   39.3890   26.2400   33.6830 C   0  0  0  0  0  0  0  0  0  0  0  0
   39.7380   26.8510   34.9040 C   0  0  0  0  0  0  0  0  0  0  0  0
   38.7710   27.4860   35.6530 N   0  0  0  0  0  0  0  0  0  0  0  0
   37.4800   27.5370   35.2410 C   0  0  0  0  0  0  0  0  0  0  0  0
   37.1360   26.9580   34.0800 N   0  0  0  0  0  0  0  0  0  0  0  0
   40.1690   25.7520   33.1210 H   0  0  0  0  0  0  0  0  0  0  0  0
   40.7420   26.8550   35.3010 H   0  0  0  0  0  0  0  0  0  0  0  0
   36.7100   28.0250   35.8070 H   0  0  0  0  0  0  0  0  0  0  0  0
   37.6680   21.8880   34.6380 Cl  0  0  0  0  0  0  0  0  0  0  0  0
   36.5840   21.3630   33.3430 C   0  0  0  0  0  0  0  0  0  0  0  0
   36.6700   22.0400   32.1310 C   0  0  0  0  0  0  0  0  0  0  0  0
   35.7840   21.5500   31.1990 C   0  0  0  0  0  0  0  0  0  0  0  0
   35.7610   22.0100   30.2240 H   0  0  0  0  0  0  0  0  0  0  0  0
   34.9190   20.5080   31.4530 C   0  0  0  0  0  0  0  0  0  0  0  0
   34.2500   20.1910   30.6390 H   0  0  0  0  0  0  0  0  0  0  0  0
   34.8970   19.8890   32.6850 C   0  0  0  0  0  3  0  0  0  0  0  0
   35.7590   20.3320   33.6620 C   0  0  0  0  0  3  0  0  0  0  0  0
  1  7  1  6  0  0  0
  1  2  1  0  0  0  0
  1 17  1  0  0  0  0
  2  9  1  0  0  0  0
  3 28  1  0  0  0  0
  3  2  1  0  0  0  0
  3 10  1  1  0  0  0
  4 12  1  0  0  0  0
  4  3  1  0  0  0  0
  5  4  1  0  0  0  0
  5  6  1  0  0  0  0
  6 16  1  0  0  0  0
  6  1  1  0  0  0  0
  8  2  1  0  0  0  0
 11  4  1  0  0  0  0
 13  5  1  0  0  0  0
 14  5  1  0  0  0  0
 15  6  1  0  0  0  0
 17 18  2  0  0  0  0
 17 22  1  0  0  0  0
 18 19  1  0  0  0  0
 19 24  1  0  0  0  0
 19 20  2  0  0  0  0
 21 20  1  0  0  0  0
 21 25  1  0  0  0  0
 22 21  2  0  0  0  0
 23 18  1  0  0  0  0
 27 34  1  0  0  0  0
 27 26  1  0  0  0  0
 28 27  2  0  0  0  0
 29 31  2  0  0  0  0
 29 28  1  0  0  0  0
 30 29  1  0  0  0  0
 31 33  1  0  0  0  0
 32 31  1  0  0  0  0
 33 34  2  0  0  0  0
M  END
>  <minimizedAffinity>
-4.86530733

$$$$
