
 OpenBabel03272502343D

 36 38  0  0  1  0  0  0  0  0999 V2000
   35.5880   29.9150   47.9200 C   0  0  0  0  0  3  0  0  0  0  0  0
   36.7320   30.4120   47.5710 C   0  0  0  0  0  3  0  0  0  0  0  0
   33.8540   29.4700   44.6520 C   0  0  0  0  0  0  0  0  0  0  0  0
   34.8090   29.7200   45.6230 C   0  0  0  0  0  0  0  0  0  0  0  0
   34.5460   29.6300   46.9650 C   0  0  0  0  0  0  0  0  0  0  0  0
   33.2910   29.2810   47.3050 N   0  0  0  0  0  0  0  0  0  0  0  0
   32.3630   29.0370   46.3870 C   0  0  0  0  0  0  0  0  0  0  0  0
   32.6170   29.1240   45.0720 N   0  0  0  0  0  0  0  0  0  0  0  0
   34.0200   29.5290   43.5890 H   0  0  0  0  0  0  0  0  0  0  0  0
   35.7530   29.9850   45.1720 H   0  0  0  0  0  0  0  0  0  0  0  0
   30.0790   30.6850   45.2540 Cl  0  0  0  0  0  0  0  0  0  0  0  0
   29.9030   29.3510   46.3420 C   0  0  0  0  0  0  0  0  0  0  0  0
   31.0160   28.6600   46.8030 C   0  0  0  0  0  0  0  0  0  0  0  0
   30.7800   27.6200   47.6590 C   0  0  0  0  0  0  0  0  0  0  0  0
   31.6720   27.0930   48.0080 H   0  0  0  0  0  0  0  0  0  0  0  0
   29.5550   27.1810   48.1160 C   0  0  0  0  0  0  0  0  0  0  0  0
   29.4600   26.3440   48.7960 H   0  0  0  0  0  0  0  0  0  0  0  0
   28.4690   27.8970   47.6310 C   0  0  0  0  0  3  0  0  0  0  0  0
   28.6390   28.9510   46.7690 C   0  0  0  0  0  3  0  0  0  0  0  0
   37.7380   30.6760   48.6540 C   0  0  1  0  0  0  0  0  0  0  0  0
   38.3900   29.7980   48.7620 H   0  0  0  0  0  0  0  0  0  0  0  0
   38.5190   31.8800   48.3190 C   0  0  0  0  0  0  0  0  0  0  0  0
   38.5970   32.8100   49.3900 C   0  0  0  0  0  0  0  0  0  0  0  0
   39.2710   34.0020   49.3100 C   0  0  0  0  0  0  0  0  0  0  0  0
   39.9380   34.3730   48.1290 C   0  0  0  0  0  0  0  0  0  0  0  0
   39.8110   33.4100   47.1350 C   0  0  0  0  0  0  0  0  0  0  0  0
   39.1610   32.2420   47.1870 N   0  0  0  0  0  0  0  0  0  0  0  0
   38.1690   32.7530   50.4020 H   0  0  0  0  0  0  0  0  0  0  0  0
   39.3700   34.7510   50.0830 H   0  0  0  0  0  0  0  0  0  0  0  0
   40.4990   35.2550   47.9110 H   0  0  0  0  0  0  0  0  0  0  0  0
   40.2750   33.5520   46.1560 H   0  0  0  0  0  0  0  0  0  0  0  0
   36.8090   31.0860   50.1710 S   0  0  0  0  0  0  0  0  0  0  0  0
   36.8570   29.7380   51.3370 C   0  0  0  0  0  0  0  0  0  0  0  0
   37.5230   30.0510   52.5110 F   0  0  0  0  0  0  0  0  0  0  0  0
   35.5940   29.2320   51.5840 F   0  0  0  0  0  0  0  0  0  0  0  0
   37.5750   28.6960   50.7080 F   0  0  0  0  0  0  0  0  0  0  0  0
  2  1  2  0  0  0  0
  2 20  1  0  0  0  0
  3  8  2  0  0  0  0
  3  4  1  0  0  0  0
  4  5  2  0  0  0  0
  5  6  1  0  0  0  0
  5  1  1  0  0  0  0
  7 13  1  0  0  0  0
  7  6  2  0  0  0  0
  8  7  1  0  0  0  0
  9  3  1  0  0  0  0
 10  4  1  0  0  0  0
 11 12  1  0  0  0  0
 12 19  2  0  0  0  0
 12 13  1  0  0  0  0
 13 14  2  0  0  0  0
 14 15  1  0  0  0  0
 14 16  1  0  0  0  0
 16 17  1  0  0  0  0
 18 16  2  0  0  0  0
 19 18  1  0  0  0  0
 20 21  1  1  0  0  0
 20 32  1  0  0  0  0
 22 20  1  0  0  0  0
 22 23  1  0  0  0  0
 23 28  1  0  0  0  0
 24 23  2  0  0  0  0
 24 29  1  0  0  0  0
 25 24  1  0  0  0  0
 26 27  1  0  0  0  0
 26 25  2  0  0  0  0
 27 22  2  0  0  0  0
 30 25  1  0  0  0  0
 31 26  1  0  0  0  0
 32 33  1  0  0  0  0
 33 35  1  0  0  0  0
 33 34  1  0  0  0  0
 36 33  1  0  0  0  0
M  END
>  <minimizedAffinity>
-6.64501572

>  <minimizedRMSD>
0.442313582

$$$$
