
 OpenBabel03272502343D

 36 38  0  0  1  0  0  0  0  0999 V2000
   35.5690   29.9400   47.9680 C   0  0  0  0  0  3  0  0  0  0  0  0
   36.7100   30.4300   47.5960 C   0  0  0  0  0  3  0  0  0  0  0  0
   33.7150   29.6680   44.7480 C   0  0  0  0  0  0  0  0  0  0  0  0
   34.6960   29.8970   45.6960 C   0  0  0  0  0  0  0  0  0  0  0  0
   34.5040   29.6700   47.0350 C   0  0  0  0  0  0  0  0  0  0  0  0
   33.2920   29.2040   47.3930 N   0  0  0  0  0  0  0  0  0  0  0  0
   32.3410   28.9780   46.4960 C   0  0  0  0  0  0  0  0  0  0  0  0
   32.5250   29.1990   45.1850 N   0  0  0  0  0  0  0  0  0  0  0  0
   33.8260   29.8330   43.6890 H   0  0  0  0  0  0  0  0  0  0  0  0
   35.5980   30.2660   45.2330 H   0  0  0  0  0  0  0  0  0  0  0  0
   32.3060   26.2120   47.7480 Cl  0  0  0  0  0  0  0  0  0  0  0  0
   30.9180   27.2190   47.5150 C   0  0  0  0  0  0  0  0  0  0  0  0
   31.0430   28.4730   46.9300 C   0  0  0  0  0  0  0  0  0  0  0  0
   29.8910   29.1980   46.7870 C   0  0  0  0  0  0  0  0  0  0  0  0
   30.0150   30.1800   46.3240 H   0  0  0  0  0  0  0  0  0  0  0  0
   28.6180   28.8200   47.1600 C   0  0  0  0  0  0  0  0  0  0  0  0
   27.7600   29.4600   47.0090 H   0  0  0  0  0  0  0  0  0  0  0  0
   28.5380   27.5620   47.7400 C   0  0  0  0  0  3  0  0  0  0  0  0
   29.6570   26.7840   47.9120 C   0  0  0  0  0  3  0  0  0  0  0  0
   37.7410   30.6800   48.6580 C   0  0  1  0  0  0  0  0  0  0  0  0
   38.3890   29.7960   48.7460 H   0  0  0  0  0  0  0  0  0  0  0  0
   38.5250   31.8800   48.3120 C   0  0  0  0  0  0  0  0  0  0  0  0
   38.6050   32.8190   49.3750 C   0  0  0  0  0  0  0  0  0  0  0  0
   39.2810   34.0080   49.2850 C   0  0  0  0  0  0  0  0  0  0  0  0
   39.9480   34.3680   48.1000 C   0  0  0  0  0  0  0  0  0  0  0  0
   39.8190   33.3970   47.1140 C   0  0  0  0  0  0  0  0  0  0  0  0
   39.1670   32.2310   47.1760 N   0  0  0  0  0  0  0  0  0  0  0  0
   38.1770   32.7710   50.3870 H   0  0  0  0  0  0  0  0  0  0  0  0
   39.3820   34.7640   50.0500 H   0  0  0  0  0  0  0  0  0  0  0  0
   40.5110   35.2470   47.8740 H   0  0  0  0  0  0  0  0  0  0  0  0
   40.2820   33.5290   46.1340 H   0  0  0  0  0  0  0  0  0  0  0  0
   36.8500   31.0880   50.1980 S   0  0  0  0  0  0  0  0  0  0  0  0
   36.8930   29.7250   51.3460 C   0  0  0  0  0  0  0  0  0  0  0  0
   37.5700   30.0170   52.5180 F   0  0  0  0  0  0  0  0  0  0  0  0
   35.6270   29.2280   51.5950 F   0  0  0  0  0  0  0  0  0  0  0  0
   37.5970   28.6850   50.6970 F   0  0  0  0  0  0  0  0  0  0  0  0
  2  1  2  0  0  0  0
  2 20  1  0  0  0  0
  3  8  2  0  0  0  0
  3  4  1  0  0  0  0
  4  5  2  0  0  0  0
  5  6  1  0  0  0  0
  5  1  1  0  0  0  0
  7 13  1  0  0  0  0
  7  6  2  0  0  0  0
  8  7  1  0  0  0  0
  9  3  1  0  0  0  0
 10  4  1  0  0  0  0
 12 11  1  0  0  0  0
 12 19  1  0  0  0  0
 13 12  2  0  0  0  0
 14 13  1  0  0  0  0
 14 16  2  0  0  0  0
 15 14  1  0  0  0  0
 16 18  1  0  0  0  0
 17 16  1  0  0  0  0
 18 19  2  0  0  0  0
 20 21  1  1  0  0  0
 20 32  1  0  0  0  0
 22 20  1  0  0  0  0
 22 23  1  0  0  0  0
 23 28  1  0  0  0  0
 24 23  2  0  0  0  0
 24 29  1  0  0  0  0
 25 24  1  0  0  0  0
 26 27  1  0  0  0  0
 26 25  2  0  0  0  0
 27 22  2  0  0  0  0
 30 25  1  0  0  0  0
 31 26  1  0  0  0  0
 32 33  1  0  0  0  0
 33 35  1  0  0  0  0
 33 34  1  0  0  0  0
 36 33  1  0  0  0  0
M  END
>  <minimizedAffinity>
-6.72296

>  <minimizedRMSD>
0.537265301

$$$$
