
 OpenBabel03272502353D

 36 38  0  0  1  0  0  0  0  0999 V2000
   35.5640   29.9590   47.9480 C   0  0  0  0  0  3  0  0  0  0  0  0
   36.7160   30.4290   47.5850 C   0  0  0  0  0  3  0  0  0  0  0  0
   33.7450   29.6770   44.7090 C   0  0  0  0  0  0  0  0  0  0  0  0
   34.7170   29.9050   45.6670 C   0  0  0  0  0  0  0  0  0  0  0  0
   34.5080   29.6900   47.0050 C   0  0  0  0  0  0  0  0  0  0  0  0
   33.2880   29.2380   47.3520 N   0  0  0  0  0  0  0  0  0  0  0  0
   32.3450   29.0130   46.4460 C   0  0  0  0  0  0  0  0  0  0  0  0
   32.5460   29.2220   45.1360 N   0  0  0  0  0  0  0  0  0  0  0  0
   33.8690   29.8320   43.6500 H   0  0  0  0  0  0  0  0  0  0  0  0
   35.6270   30.2630   45.2110 H   0  0  0  0  0  0  0  0  0  0  0  0
   32.2810   26.2870   47.7820 Cl  0  0  0  0  0  0  0  0  0  0  0  0
   30.9000   27.2870   47.4890 C   0  0  0  0  0  0  0  0  0  0  0  0
   31.0370   28.5220   46.8690 C   0  0  0  0  0  0  0  0  0  0  0  0
   29.8910   29.2450   46.6800 C   0  0  0  0  0  0  0  0  0  0  0  0
   30.0250   30.2120   46.1900 H   0  0  0  0  0  0  0  0  0  0  0  0
   28.6100   28.8790   47.0390 C   0  0  0  0  0  0  0  0  0  0  0  0
   27.7550   29.5150   46.8510 H   0  0  0  0  0  0  0  0  0  0  0  0
   28.5160   27.6390   47.6560 C   0  0  0  0  0  3  0  0  0  0  0  0
   29.6290   26.8660   47.8740 C   0  0  0  0  0  3  0  0  0  0  0  0
   37.7370   30.6790   48.6570 C   0  0  1  0  0  0  0  0  0  0  0  0
   38.3850   29.7960   48.7500 H   0  0  0  0  0  0  0  0  0  0  0  0
   38.5220   31.8810   48.3200 C   0  0  0  0  0  0  0  0  0  0  0  0
   38.5990   32.8130   49.3880 C   0  0  0  0  0  0  0  0  0  0  0  0
   39.2750   34.0040   49.3070 C   0  0  0  0  0  0  0  0  0  0  0  0
   39.9460   34.3700   48.1260 C   0  0  0  0  0  0  0  0  0  0  0  0
   39.8190   33.4040   47.1350 C   0  0  0  0  0  0  0  0  0  0  0  0
   39.1670   32.2380   47.1880 N   0  0  0  0  0  0  0  0  0  0  0  0
   38.1680   32.7600   50.3990 H   0  0  0  0  0  0  0  0  0  0  0  0
   39.3740   34.7550   50.0770 H   0  0  0  0  0  0  0  0  0  0  0  0
   40.5100   35.2500   47.9060 H   0  0  0  0  0  0  0  0  0  0  0  0
   40.2860   33.5420   46.1560 H   0  0  0  0  0  0  0  0  0  0  0  0
   36.8300   31.0840   50.1880 S   0  0  0  0  0  0  0  0  0  0  0  0
   36.8790   29.7250   51.3420 C   0  0  0  0  0  0  0  0  0  0  0  0
   37.5570   30.0230   52.5120 F   0  0  0  0  0  0  0  0  0  0  0  0
   35.6150   29.2260   51.5950 F   0  0  0  0  0  0  0  0  0  0  0  0
   37.5840   28.6840   50.6960 F   0  0  0  0  0  0  0  0  0  0  0  0
  2  1  2  0  0  0  0
  2 20  1  0  0  0  0
  3  8  2  0  0  0  0
  3  4  1  0  0  0  0
  4  5  2  0  0  0  0
  5  6  1  0  0  0  0
  5  1  1  0  0  0  0
  7 13  1  0  0  0  0
  7  6  2  0  0  0  0
  8  7  1  0  0  0  0
  9  3  1  0  0  0  0
 10  4  1  0  0  0  0
 12 11  1  0  0  0  0
 12 19  1  0  0  0  0
 13 12  2  0  0  0  0
 14 13  1  0  0  0  0
 14 16  2  0  0  0  0
 15 14  1  0  0  0  0
 16 18  1  0  0  0  0
 17 16  1  0  0  0  0
 18 19  2  0  0  0  0
 20 21  1  1  0  0  0
 20 32  1  0  0  0  0
 22 20  1  0  0  0  0
 22 23  1  0  0  0  0
 23 28  1  0  0  0  0
 24 23  2  0  0  0  0
 24 29  1  0  0  0  0
 25 24  1  0  0  0  0
 26 27  1  0  0  0  0
 26 25  2  0  0  0  0
 27 22  2  0  0  0  0
 30 25  1  0  0  0  0
 31 26  1  0  0  0  0
 32 33  1  0  0  0  0
 33 35  1  0  0  0  0
 33 34  1  0  0  0  0
 36 33  1  0  0  0  0
M  END
>  <minimizedAffinity>
-6.72295856

>  <minimizedRMSD>
0.106363833

$$$$
