
 OpenBabel03272502343D

 36 38  0  0  1  0  0  0  0  0999 V2000
   35.5870   29.9220   47.9220 C   0  0  0  0  0  3  0  0  0  0  0  0
   36.7370   30.4060   47.5720 C   0  0  0  0  0  3  0  0  0  0  0  0
   33.8560   29.4730   44.6530 C   0  0  0  0  0  0  0  0  0  0  0  0
   34.8100   29.7250   45.6240 C   0  0  0  0  0  0  0  0  0  0  0  0
   34.5460   29.6360   46.9660 C   0  0  0  0  0  0  0  0  0  0  0  0
   33.2910   29.2850   47.3060 N   0  0  0  0  0  0  0  0  0  0  0  0
   32.3650   29.0390   46.3870 C   0  0  0  0  0  0  0  0  0  0  0  0
   32.6190   29.1260   45.0720 N   0  0  0  0  0  0  0  0  0  0  0  0
   34.0230   29.5320   43.5900 H   0  0  0  0  0  0  0  0  0  0  0  0
   35.7540   29.9910   45.1740 H   0  0  0  0  0  0  0  0  0  0  0  0
   30.0790   30.6860   45.2510 Cl  0  0  0  0  0  0  0  0  0  0  0  0
   29.9040   29.3520   46.3400 C   0  0  0  0  0  0  0  0  0  0  0  0
   31.0180   28.6620   46.8020 C   0  0  0  0  0  0  0  0  0  0  0  0
   30.7820   27.6210   47.6580 C   0  0  0  0  0  0  0  0  0  0  0  0
   31.6740   27.0950   48.0070 H   0  0  0  0  0  0  0  0  0  0  0  0
   29.5570   27.1810   48.1130 C   0  0  0  0  0  0  0  0  0  0  0  0
   29.4620   26.3450   48.7940 H   0  0  0  0  0  0  0  0  0  0  0  0
   28.4710   27.8960   47.6280 C   0  0  0  0  0  3  0  0  0  0  0  0
   28.6410   28.9500   46.7660 C   0  0  0  0  0  3  0  0  0  0  0  0
   37.7400   30.6740   48.6550 C   0  0  1  0  0  0  0  0  0  0  0  0
   38.3950   29.7970   48.7650 H   0  0  0  0  0  0  0  0  0  0  0  0
   38.5200   31.8790   48.3190 C   0  0  0  0  0  0  0  0  0  0  0  0
   38.5980   32.8090   49.3900 C   0  0  0  0  0  0  0  0  0  0  0  0
   39.2710   34.0020   49.3090 C   0  0  0  0  0  0  0  0  0  0  0  0
   39.9360   34.3730   48.1270 C   0  0  0  0  0  0  0  0  0  0  0  0
   39.8090   33.4100   47.1340 C   0  0  0  0  0  0  0  0  0  0  0  0
   39.1610   32.2410   47.1860 N   0  0  0  0  0  0  0  0  0  0  0  0
   38.1710   32.7520   50.4020 H   0  0  0  0  0  0  0  0  0  0  0  0
   39.3690   34.7510   50.0810 H   0  0  0  0  0  0  0  0  0  0  0  0
   40.4960   35.2550   47.9080 H   0  0  0  0  0  0  0  0  0  0  0  0
   40.2720   33.5520   46.1540 H   0  0  0  0  0  0  0  0  0  0  0  0
   36.8100   31.0840   50.1710 S   0  0  0  0  0  0  0  0  0  0  0  0
   36.8570   29.7370   51.3380 C   0  0  0  0  0  0  0  0  0  0  0  0
   37.5220   30.0510   52.5120 F   0  0  0  0  0  0  0  0  0  0  0  0
   35.5930   29.2330   51.5850 F   0  0  0  0  0  0  0  0  0  0  0  0
   37.5740   28.6950   50.7090 F   0  0  0  0  0  0  0  0  0  0  0  0
  2  1  2  0  0  0  0
  2 20  1  0  0  0  0
  3  8  2  0  0  0  0
  3  4  1  0  0  0  0
  4  5  2  0  0  0  0
  5  6  1  0  0  0  0
  5  1  1  0  0  0  0
  7 13  1  0  0  0  0
  7  6  2  0  0  0  0
  8  7  1  0  0  0  0
  9  3  1  0  0  0  0
 10  4  1  0  0  0  0
 11 12  1  0  0  0  0
 12 19  2  0  0  0  0
 12 13  1  0  0  0  0
 13 14  2  0  0  0  0
 14 15  1  0  0  0  0
 14 16  1  0  0  0  0
 16 17  1  0  0  0  0
 18 16  2  0  0  0  0
 19 18  1  0  0  0  0
 20 21  1  1  0  0  0
 20 32  1  0  0  0  0
 22 20  1  0  0  0  0
 22 23  1  0  0  0  0
 23 28  1  0  0  0  0
 24 23  2  0  0  0  0
 24 29  1  0  0  0  0
 25 24  1  0  0  0  0
 26 27  1  0  0  0  0
 26 25  2  0  0  0  0
 27 22  2  0  0  0  0
 30 25  1  0  0  0  0
 31 26  1  0  0  0  0
 32 33  1  0  0  0  0
 33 35  1  0  0  0  0
 33 34  1  0  0  0  0
 36 33  1  0  0  0  0
M  END
>  <minimizedAffinity>
-6.64712334

>  <minimizedRMSD>
0.509468615

$$$$
