
 OpenBabel03272501083D

 40 43  0  0  1  0  0  0  0  0999 V2000
   38.9050   32.4860   47.6690 C   0  0  2  0  0  0  0  0  0  0  0  0
   38.0520   32.7680   48.9490 C   0  0  2  0  0  0  0  0  0  0  0  0
   39.0220   33.4600   49.7750 C   0  0  0  0  0  0  0  0  0  0  0  0
   39.8330   34.2300   48.9550 O   0  0  0  0  0  0  0  0  0  0  0  0
   39.6250   33.8600   47.6670 C   0  0  0  0  0  0  0  0  0  0  0  0
   39.6830   31.7600   47.8720 H   0  0  0  0  0  0  0  0  0  0  0  0
   37.2720   33.4630   48.5720 H   0  0  0  0  0  0  0  0  0  0  0  0
   38.4870   34.1780   50.4650 H   0  0  0  0  0  0  0  0  0  0  0  0
   39.6870   32.8690   50.4000 H   0  0  0  0  0  0  0  0  0  0  0  0
   39.0320   34.5470   47.0410 H   0  0  0  0  0  0  0  0  0  0  0  0
   40.6150   33.7150   47.1620 H   0  0  0  0  0  0  0  0  0  0  0  0
   37.3790   29.6330   50.9150 C   0  0  0  0  0  0  0  0  0  0  0  0
   38.0540   30.8010   50.4650 C   0  0  0  0  0  0  0  0  0  0  0  0
   37.4160   31.5810   49.4560 C   0  0  0  0  0  0  0  0  0  0  0  0
   36.1840   31.1820   48.9600 N   0  0  0  0  0  0  0  0  0  0  0  0
   35.6000   30.0700   49.4280 C   0  0  0  0  0  0  0  0  0  0  0  0
   36.1700   29.2940   50.3870 N   0  0  0  0  0  0  0  0  0  0  0  0
   37.8530   29.0500   51.6660 H   0  0  0  0  0  0  0  0  0  0  0  0
   38.9920   31.0700   50.8690 H   0  0  0  0  0  0  0  0  0  0  0  0
   34.6410   29.7390   49.0560 H   0  0  0  0  0  0  0  0  0  0  0  0
   38.1420   32.3870   46.5560 O   0  0  0  0  0  0  0  0  0  0  0  0
   40.3920   32.2600   44.4480 Cl  0  0  0  0  0  0  0  0  0  0  0  0
   38.9200   31.3300   44.4050 C   0  0  0  0  0  0  0  0  0  0  0  0
   38.0700   31.5760   45.4760 C   0  0  0  0  0  0  0  0  0  0  0  0
   36.8890   30.8500   45.4610 C   0  0  0  0  0  0  0  0  0  0  0  0
   36.5870   29.9500   44.4530 C   0  0  0  0  0  0  0  0  0  0  0  0
   37.4670   29.7530   43.4270 C   0  0  0  0  0  0  0  0  0  0  0  0
   38.6450   30.4480   43.4010 C   0  0  0  0  0  0  0  0  0  0  0  0
   36.1050   30.9030   46.2050 H   0  0  0  0  0  0  0  0  0  0  0  0
   35.6760   29.3670   44.4100 H   0  0  0  0  0  0  0  0  0  0  0  0
   37.2730   29.0700   42.6320 H   0  0  0  0  0  0  0  0  0  0  0  0
   38.6920   32.4110   41.0650 Cl  0  0  0  0  0  0  0  0  0  0  0  0
   39.8460   31.1060   41.2430 C   0  0  0  0  0  0  0  0  0  0  0  0
   39.6630   30.3270   42.3610 C   0  0  0  0  0  0  0  0  0  0  0  0
   40.5210   29.2540   42.6120 C   0  0  0  0  0  0  0  0  0  0  0  0
   40.4740   28.5750   43.4550 H   0  0  0  0  0  0  0  0  0  0  0  0
   41.5660   28.9590   41.7420 C   0  0  0  0  0  0  0  0  0  0  0  0
   42.2550   28.1420   41.8920 H   0  0  0  0  0  0  0  0  0  0  0  0
   41.7350   29.7630   40.6130 C   0  0  0  0  0  3  0  0  0  0  0  0
   40.8780   30.8180   40.3800 C   0  0  0  0  0  3  0  0  0  0  0  0
  1  6  1  1  0  0  0
  1  2  1  0  0  0  0
  2  7  1  6  0  0  0
  2 14  1  0  0  0  0
  2  3  1  0  0  0  0
  3  9  1  0  0  0  0
  3  8  1  0  0  0  0
  4  3  1  0  0  0  0
  5  1  1  0  0  0  0
  5  4  1  0  0  0  0
 10  5  1  0  0  0  0
 11  5  1  0  0  0  0
 12 18  1  0  0  0  0
 13 19  1  0  0  0  0
 13 12  1  0  0  0  0
 14 13  2  0  0  0  0
 15 16  2  0  0  0  0
 15 14  1  0  0  0  0
 16 17  1  0  0  0  0
 17 12  2  0  0  0  0
 20 16  1  0  0  0  0
 21  1  1  0  0  0  0
 23 22  1  0  0  0  0
 23 24  1  0  0  0  0
 24 21  1  0  0  0  0
 25 24  2  0  0  0  0
 25 29  1  0  0  0  0
 26 25  1  0  0  0  0
 27 26  2  0  0  0  0
 28 27  1  0  0  0  0
 28 23  2  0  0  0  0
 30 26  1  0  0  0  0
 31 27  1  0  0  0  0
 32 33  1  0  0  0  0
 33 34  1  0  0  0  0
 34 35  2  0  0  0  0
 34 28  1  0  0  0  0
 35 36  1  0  0  0  0
 37 38  1  0  0  0  0
 37 35  1  0  0  0  0
 39 37  2  0  0  0  0
 40 39  1  0  0  0  0
 40 33  2  0  0  0  0
M  END
>  <minimizedAffinity>
-6.36838341

>  <minimizedRMSD>
1.20046318

$$$$
