
 OpenBabel03272501093D

 40 43  0  0  1  0  0  0  0  0999 V2000
   37.3510   25.1120   30.7430 C   0  0  2  0  0  0  0  0  0  0  0  0
   36.2370   25.8070   31.5910 C   0  0  2  0  0  0  0  0  0  0  0  0
   35.0550   25.1250   31.0990 C   0  0  0  0  0  0  0  0  0  0  0  0
   35.3890   23.8090   30.8190 O   0  0  0  0  0  0  0  0  0  0  0  0
   36.7400   23.6900   30.8330 C   0  0  0  0  0  0  0  0  0  0  0  0
   37.2730   25.3880   29.6970 H   0  0  0  0  0  0  0  0  0  0  0  0
   36.4870   25.4870   32.6260 H   0  0  0  0  0  0  0  0  0  0  0  0
   34.2720   25.0930   31.9130 H   0  0  0  0  0  0  0  0  0  0  0  0
   34.5640   25.5160   30.2120 H   0  0  0  0  0  0  0  0  0  0  0  0
   37.1860   23.1890   31.7090 H   0  0  0  0  0  0  0  0  0  0  0  0
   37.0680   23.1280   29.9210 H   0  0  0  0  0  0  0  0  0  0  0  0
   36.1630   29.4460   32.5370 C   0  0  0  0  0  0  0  0  0  0  0  0
   36.0950   28.0330   32.6820 C   0  0  0  0  0  0  0  0  0  0  0  0
   36.3040   27.2420   31.5150 C   0  0  0  0  0  0  0  0  0  0  0  0
   36.5610   27.8660   30.3030 N   0  0  0  0  0  0  0  0  0  0  0  0
   36.6120   29.2030   30.2340 C   0  0  0  0  0  0  0  0  0  0  0  0
   36.4180   29.9980   31.3190 N   0  0  0  0  0  0  0  0  0  0  0  0
   36.0070   30.0370   33.4060 H   0  0  0  0  0  0  0  0  0  0  0  0
   35.8960   27.5980   33.6230 H   0  0  0  0  0  0  0  0  0  0  0  0
   36.8090   29.7110   29.3010 H   0  0  0  0  0  0  0  0  0  0  0  0
   38.5510   25.1160   31.3700 O   0  0  0  0  0  0  0  0  0  0  0  0
   38.0630   23.3010   33.8170 Cl  0  0  0  0  0  0  0  0  0  0  0  0
   38.9490   24.8010   33.8370 C   0  0  0  0  0  0  0  0  0  0  0  0
   39.0220   25.4250   32.6000 C   0  0  0  0  0  0  0  0  0  0  0  0
   39.7200   26.6240   32.5910 C   0  0  0  0  0  0  0  0  0  0  0  0
   40.2970   27.1500   33.7340 C   0  0  0  0  0  0  0  0  0  0  0  0
   40.1900   26.4860   34.9230 C   0  0  0  0  0  0  0  0  0  0  0  0
   39.5110   25.3000   34.9770 C   0  0  0  0  0  0  0  0  0  0  0  0
   39.8840   27.2540   31.7270 H   0  0  0  0  0  0  0  0  0  0  0  0
   40.8480   28.0820   33.7640 H   0  0  0  0  0  0  0  0  0  0  0  0
   40.6200   26.8560   35.8250 H   0  0  0  0  0  0  0  0  0  0  0  0
   41.4460   23.0280   35.6160 Cl  0  0  0  0  0  0  0  0  0  0  0  0
   40.0850   23.4440   36.6370 C   0  0  0  0  0  0  0  0  0  0  0  0
   39.3270   24.4970   36.1840 C   0  0  0  0  0  0  0  0  0  0  0  0
   38.2140   24.9210   36.9130 C   0  0  0  0  0  0  0  0  0  0  0  0
   37.5470   25.7350   36.6540 H   0  0  0  0  0  0  0  0  0  0  0  0
   37.8580   24.2910   38.1010 C   0  0  0  0  0  0  0  0  0  0  0  0
   37.0080   24.5820   38.6990 H   0  0  0  0  0  0  0  0  0  0  0  0
   38.6400   23.2240   38.5440 C   0  0  0  0  0  3  0  0  0  0  0  0
   39.7360   22.8170   37.8120 C   0  0  0  0  0  3  0  0  0  0  0  0
  1  6  1  6  0  0  0
  1  5  1  0  0  0  0
  1 21  1  0  0  0  0
  1  2  1  0  0  0  0
  2  7  1  1  0  0  0
  3  2  1  0  0  0  0
  3  8  1  0  0  0  0
  4  5  1  0  0  0  0
  4  3  1  0  0  0  0
  5 10  1  0  0  0  0
  9  3  1  0  0  0  0
 11  5  1  0  0  0  0
 12 13  1  0  0  0  0
 12 18  1  0  0  0  0
 13 19  1  0  0  0  0
 14  2  1  0  0  0  0
 14 13  2  0  0  0  0
 15 14  1  0  0  0  0
 16 15  2  0  0  0  0
 16 17  1  0  0  0  0
 17 12  2  0  0  0  0
 20 16  1  0  0  0  0
 21 24  1  0  0  0  0
 22 23  1  0  0  0  0
 23 28  1  0  0  0  0
 24 23  2  0  0  0  0
 25 24  1  0  0  0  0
 25 26  2  0  0  0  0
 26 30  1  0  0  0  0
 26 27  1  0  0  0  0
 27 28  2  0  0  0  0
 27 31  1  0  0  0  0
 28 34  1  0  0  0  0
 29 25  1  0  0  0  0
 32 33  1  0  0  0  0
 33 40  1  0  0  0  0
 34 33  2  0  0  0  0
 34 35  1  0  0  0  0
 35 37  2  0  0  0  0
 36 35  1  0  0  0  0
 37 39  1  0  0  0  0
 37 38  1  0  0  0  0
 40 39  2  0  0  0  0
M  END
>  <minimizedAffinity>
-6.20056629

$$$$

 OpenBabel03272501093D

 40 43  0  0  1  0  0  0  0  0999 V2000
   39.2150   26.0980   32.9830 C   0  0  2  0  0  0  0  0  0  0  0  0
   39.3360   26.0650   34.5420 C   0  0  2  0  0  0  0  0  0  0  0  0
   40.7550   26.3120   34.7090 C   0  0  0  0  0  0  0  0  0  0  0  0
   41.1720   27.1860   33.7160 O   0  0  0  0  0  0  0  0  0  0  0  0
   40.1920   27.2840   32.7840 C   0  0  0  0  0  0  0  0  0  0  0  0
   39.7110   25.2440   32.5370 H   0  0  0  0  0  0  0  0  0  0  0  0
   38.7340   26.9470   34.8500 H   0  0  0  0  0  0  0  0  0  0  0  0
   40.9340   26.8350   35.6950 H   0  0  0  0  0  0  0  0  0  0  0  0
   41.4350   25.4640   34.6810 H   0  0  0  0  0  0  0  0  0  0  0  0
   39.5970   28.2130   32.7840 H   0  0  0  0  0  0  0  0  0  0  0  0
   40.6440   27.1750   31.7640 H   0  0  0  0  0  0  0  0  0  0  0  0
   37.6810   23.6950   36.9470 C   0  0  0  0  0  0  0  0  0  0  0  0
   38.2290   24.9040   36.4370 C   0  0  0  0  0  0  0  0  0  0  0  0
   38.7570   24.8790   35.1130 C   0  0  0  0  0  0  0  0  0  0  0  0
   38.7180   23.7000   34.3840 N   0  0  0  0  0  0  0  0  0  0  0  0
   38.1860   22.5940   34.9230 C   0  0  0  0  0  0  0  0  0  0  0  0
   37.6720   22.5700   36.1810 N   0  0  0  0  0  0  0  0  0  0  0  0
   37.2870   23.7120   37.9340 H   0  0  0  0  0  0  0  0  0  0  0  0
   38.2400   25.7800   37.0260 H   0  0  0  0  0  0  0  0  0  0  0  0
   38.1460   21.6640   34.3740 H   0  0  0  0  0  0  0  0  0  0  0  0
   37.9800   26.4710   32.5730 O   0  0  0  0  0  0  0  0  0  0  0  0
   36.4350   27.6680   34.9620 Cl  0  0  0  0  0  0  0  0  0  0  0  0
   36.5170   28.3620   33.3660 C   0  0  0  0  0  0  0  0  0  0  0  0
   37.2790   27.6230   32.4710 C   0  0  0  0  0  0  0  0  0  0  0  0
   37.3550   28.1550   31.1920 C   0  0  0  0  0  0  0  0  0  0  0  0
   36.7180   29.3330   30.8430 C   0  0  0  0  0  0  0  0  0  0  0  0
   35.9830   30.0140   31.7710 C   0  0  0  0  0  0  0  0  0  0  0  0
   35.8800   29.5260   33.0450 C   0  0  0  0  0  0  0  0  0  0  0  0
   37.8980   27.7260   30.3610 H   0  0  0  0  0  0  0  0  0  0  0  0
   36.7550   29.7760   29.8560 H   0  0  0  0  0  0  0  0  0  0  0  0
   35.4770   30.9240   31.5430 H   0  0  0  0  0  0  0  0  0  0  0  0
   32.8620   29.1250   33.2460 Cl  0  0  0  0  0  0  0  0  0  0  0  0
   33.7760   30.0980   34.3780 C   0  0  0  0  0  0  0  0  0  0  0  0
   35.1260   30.1600   34.1240 C   0  0  0  0  0  0  0  0  0  0  0  0
   35.9610   30.9070   34.9580 C   0  0  0  0  0  0  0  0  0  0  0  0
   37.0320   31.0270   34.8560 H   0  0  0  0  0  0  0  0  0  0  0  0
   35.4440   31.5930   36.0530 C   0  0  0  0  0  0  0  0  0  0  0  0
   36.0470   32.1830   36.7260 H   0  0  0  0  0  0  0  0  0  0  0  0
   34.0720   31.5180   36.2940 C   0  0  0  0  0  3  0  0  0  0  0  0
   33.2610   30.7770   35.4590 C   0  0  0  0  0  3  0  0  0  0  0  0
  1  6  1  6  0  0  0
  1  2  1  0  0  0  0
  2  3  1  0  0  0  0
  2  7  1  1  0  0  0
  2 14  1  0  0  0  0
  3  8  1  0  0  0  0
  4  3  1  0  0  0  0
  5 10  1  0  0  0  0
  5  1  1  0  0  0  0
  5  4  1  0  0  0  0
  9  3  1  0  0  0  0
 11  5  1  0  0  0  0
 12 18  1  0  0  0  0
 13 12  1  0  0  0  0
 13 19  1  0  0  0  0
 14 13  2  0  0  0  0
 15 16  2  0  0  0  0
 15 14  1  0  0  0  0
 16 17  1  0  0  0  0
 17 12  2  0  0  0  0
 20 16  1  0  0  0  0
 21  1  1  0  0  0  0
 23 22  1  0  0  0  0
 24 21  1  0  0  0  0
 24 23  2  0  0  0  0
 25 24  1  0  0  0  0
 26 25  2  0  0  0  0
 26 27  1  0  0  0  0
 27 28  2  0  0  0  0
 28 23  1  0  0  0  0
 28 34  1  0  0  0  0
 29 25  1  0  0  0  0
 30 26  1  0  0  0  0
 31 27  1  0  0  0  0
 32 33  1  0  0  0  0
 33 40  1  0  0  0  0
 34 33  2  0  0  0  0
 34 35  1  0  0  0  0
 35 37  2  0  0  0  0
 36 35  1  0  0  0  0
 37 39  1  0  0  0  0
 37 38  1  0  0  0  0
 40 39  2  0  0  0  0
M  END
>  <minimizedAffinity>
-5.95895052

$$$$

 OpenBabel03272501093D

 40 43  0  0  1  0  0  0  0  0999 V2000
   36.8210   25.0440   32.2600 C   0  0  2  0  0  0  0  0  0  0  0  0
   36.3170   24.1980   31.0460 C   0  0  2  0  0  0  0  0  0  0  0  0
   35.0120   24.7910   30.8250 C   0  0  0  0  0  0  0  0  0  0  0  0
   35.0890   26.1470   31.1040 O   0  0  0  0  0  0  0  0  0  0  0  0
   36.2590   26.3930   31.7440 C   0  0  0  0  0  0  0  0  0  0  0  0
   36.2480   24.8220   33.1530 H   0  0  0  0  0  0  0  0  0  0  0  0
   37.0300   24.4810   30.2420 H   0  0  0  0  0  0  0  0  0  0  0  0
   34.7360   24.7010   29.7330 H   0  0  0  0  0  0  0  0  0  0  0  0
   34.1660   24.4060   31.3890 H   0  0  0  0  0  0  0  0  0  0  0  0
   37.0530   26.8840   31.1570 H   0  0  0  0  0  0  0  0  0  0  0  0
   36.0590   27.0350   32.6400 H   0  0  0  0  0  0  0  0  0  0  0  0
   35.5820   20.7180   32.2650 C   0  0  0  0  0  0  0  0  0  0  0  0
   35.4200   22.1150   32.0560 C   0  0  0  0  0  0  0  0  0  0  0  0
   36.4150   22.7830   31.2840 C   0  0  0  0  0  0  0  0  0  0  0  0
   37.4850   22.0610   30.7750 N   0  0  0  0  0  0  0  0  0  0  0  0
   37.5780   20.7450   31.0080 C   0  0  0  0  0  0  0  0  0  0  0  0
   36.6550   20.0650   31.7380 N   0  0  0  0  0  0  0  0  0  0  0  0
   34.8410   20.2180   32.8400 H   0  0  0  0  0  0  0  0  0  0  0  0
   34.5910   22.6270   32.4620 H   0  0  0  0  0  0  0  0  0  0  0  0
   38.4020   20.1620   30.6220 H   0  0  0  0  0  0  0  0  0  0  0  0
   38.1720   25.1190   32.3070 O   0  0  0  0  0  0  0  0  0  0  0  0
   39.0130   22.6240   33.9170 Cl  0  0  0  0  0  0  0  0  0  0  0  0
   39.6810   24.2210   34.1140 C   0  0  0  0  0  0  0  0  0  0  0  0
   39.1260   25.1690   33.2650 C   0  0  0  0  0  0  0  0  0  0  0  0
   39.6390   26.4500   33.4060 C   0  0  0  0  0  0  0  0  0  0  0  0
   40.6290   26.7520   34.3250 C   0  0  0  0  0  0  0  0  0  0  0  0
   41.1350   25.7720   35.1320 C   0  0  0  0  0  0  0  0  0  0  0  0
   40.6580   24.4940   35.0270 C   0  0  0  0  0  0  0  0  0  0  0  0
   39.3360   27.3190   32.8380 H   0  0  0  0  0  0  0  0  0  0  0  0
   41.0520   27.7380   34.4620 H   0  0  0  0  0  0  0  0  0  0  0  0
   41.8970   25.9620   35.8520 H   0  0  0  0  0  0  0  0  0  0  0  0
   38.9890   23.5180   37.3880 Cl  0  0  0  0  0  0  0  0  0  0  0  0
   40.5090   22.7850   36.9210 C   0  0  0  0  0  0  0  0  0  0  0  0
   41.1150   23.3630   35.8310 C   0  0  0  0  0  0  0  0  0  0  0  0
   42.3330   22.8660   35.3630 C   0  0  0  0  0  0  0  0  0  0  0  0
   42.9000   23.2390   34.5190 H   0  0  0  0  0  0  0  0  0  0  0  0
   42.9480   21.7850   35.9870 C   0  0  0  0  0  0  0  0  0  0  0  0
   43.8880   21.3650   35.6640 H   0  0  0  0  0  0  0  0  0  0  0  0
   42.3170   21.2120   37.0920 C   0  0  0  0  0  3  0  0  0  0  0  0
   41.1140   21.7160   37.5410 C   0  0  0  0  0  3  0  0  0  0  0  0
  1 21  1  0  0  0  0
  1  6  1  1  0  0  0
  2  7  1  6  0  0  0
  2 14  1  0  0  0  0
  2  1  1  0  0  0  0
  3  2  1  0  0  0  0
  3  4  1  0  0  0  0
  3  9  1  0  0  0  0
  4  5  1  0  0  0  0
  5  1  1  0  0  0  0
  5 11  1  0  0  0  0
  8  3  1  0  0  0  0
 10  5  1  0  0  0  0
 12 18  1  0  0  0  0
 13 12  1  0  0  0  0
 13 19  1  0  0  0  0
 14 13  2  0  0  0  0
 15 16  2  0  0  0  0
 15 14  1  0  0  0  0
 16 17  1  0  0  0  0
 17 12  2  0  0  0  0
 20 16  1  0  0  0  0
 21 24  1  0  0  0  0
 22 23  1  0  0  0  0
 23 28  1  0  0  0  0
 24 25  1  0  0  0  0
 24 23  2  0  0  0  0
 25 26  2  0  0  0  0
 26 30  1  0  0  0  0
 26 27  1  0  0  0  0
 27 31  1  0  0  0  0
 28 27  2  0  0  0  0
 28 34  1  0  0  0  0
 29 25  1  0  0  0  0
 33 32  1  0  0  0  0
 33 40  1  0  0  0  0
 34 33  2  0  0  0  0
 35 34  1  0  0  0  0
 35 37  2  0  0  0  0
 36 35  1  0  0  0  0
 37 39  1  0  0  0  0
 38 37  1  0  0  0  0
 39 40  2  0  0  0  0
M  END
>  <minimizedAffinity>
-5.86295986

$$$$

 OpenBabel03272501093D

 40 43  0  0  1  0  0  0  0  0999 V2000
   38.9940   23.7130   33.5720 C   0  0  2  0  0  0  0  0  0  0  0  0
   39.7150   24.5670   34.6660 C   0  0  2  0  0  0  0  0  0  0  0  0
   41.0800   24.5380   34.1780 C   0  0  0  0  0  0  0  0  0  0  0  0
   41.0550   24.5500   32.7920 O   0  0  0  0  0  0  0  0  0  0  0  0
   39.7860   24.3050   32.3780 C   0  0  0  0  0  0  0  0  0  0  0  0
   39.2990   22.6740   33.6270 H   0  0  0  0  0  0  0  0  0  0  0  0
   39.2580   25.5700   34.5290 H   0  0  0  0  0  0  0  0  0  0  0  0
   41.6160   25.4790   34.4990 H   0  0  0  0  0  0  0  0  0  0  0  0
   41.7170   23.7060   34.4690 H   0  0  0  0  0  0  0  0  0  0  0  0
   39.2150   25.1650   31.9900 H   0  0  0  0  0  0  0  0  0  0  0  0
   39.8070   23.5250   31.5740 H   0  0  0  0  0  0  0  0  0  0  0  0
   38.1050   24.1290   38.0360 C   0  0  0  0  0  0  0  0  0  0  0  0
   38.3200   24.6220   36.7200 C   0  0  0  0  0  0  0  0  0  0  0  0
   39.4340   24.1010   35.9980 C   0  0  0  0  0  0  0  0  0  0  0  0
   40.2520   23.1520   36.5930 N   0  0  0  0  0  0  0  0  0  0  0  0
   39.9930   22.7290   37.8390 C   0  0  0  0  0  0  0  0  0  0  0  0
   38.9440   23.1960   38.5650 N   0  0  0  0  0  0  0  0  0  0  0  0
   37.2750   24.5160   38.5760 H   0  0  0  0  0  0  0  0  0  0  0  0
   37.6740   25.3450   36.3030 H   0  0  0  0  0  0  0  0  0  0  0  0
   40.6160   21.9910   38.3230 H   0  0  0  0  0  0  0  0  0  0  0  0
   37.6880   24.0440   33.4420 O   0  0  0  0  0  0  0  0  0  0  0  0
   37.8250   27.1250   33.5500 Cl  0  0  0  0  0  0  0  0  0  0  0  0
   36.8180   26.1990   32.4710 C   0  0  0  0  0  0  0  0  0  0  0  0
   36.9430   24.8250   32.6270 C   0  0  0  0  0  0  0  0  0  0  0  0
   36.1480   24.0670   31.7810 C   0  0  0  0  0  0  0  0  0  0  0  0
   35.2970   24.6430   30.8540 C   0  0  0  0  0  0  0  0  0  0  0  0
   35.2190   26.0030   30.7490 C   0  0  0  0  0  0  0  0  0  0  0  0
   35.9860   26.7900   31.5640 C   0  0  0  0  0  0  0  0  0  0  0  0
   36.1070   22.9860   31.7520 H   0  0  0  0  0  0  0  0  0  0  0  0
   34.6630   24.0840   30.1790 H   0  0  0  0  0  0  0  0  0  0  0  0
   34.5770   26.4870   30.0490 H   0  0  0  0  0  0  0  0  0  0  0  0
   37.9150   28.2960   29.7410 Cl  0  0  0  0  0  0  0  0  0  0  0  0
   36.7780   29.0980   30.8040 C   0  0  0  0  0  0  0  0  0  0  0  0
   35.9930   28.2510   31.5490 C   0  0  0  0  0  0  0  0  0  0  0  0
   35.0480   28.7730   32.4350 C   0  0  0  0  0  0  0  0  0  0  0  0
   34.3780   28.2060   33.0700 H   0  0  0  0  0  0  0  0  0  0  0  0
   34.8870   30.1480   32.5770 C   0  0  0  0  0  0  0  0  0  0  0  0
   34.1720   30.5990   33.2480 H   0  0  0  0  0  0  0  0  0  0  0  0
   35.6950   30.9910   31.8130 C   0  0  0  0  0  3  0  0  0  0  0  0
   36.6240   30.4580   30.9420 C   0  0  0  0  0  3  0  0  0  0  0  0
  1  6  1  1  0  0  0
  1  2  1  0  0  0  0
  2  7  1  6  0  0  0
  2 14  1  0  0  0  0
  3  9  1  0  0  0  0
  3  8  1  0  0  0  0
  3  2  1  0  0  0  0
  4  3  1  0  0  0  0
  5  4  1  0  0  0  0
  5  1  1  0  0  0  0
 10  5  1  0  0  0  0
 11  5  1  0  0  0  0
 12 17  1  0  0  0  0
 12 18  1  0  0  0  0
 13 12  2  0  0  0  0
 14 15  2  0  0  0  0
 14 13  1  0  0  0  0
 15 16  1  0  0  0  0
 16 20  1  0  0  0  0
 16 17  2  0  0  0  0
 19 13  1  0  0  0  0
 21  1  1  0  0  0  0
 23 24  1  0  0  0  0
 23 22  1  0  0  0  0
 24 21  1  0  0  0  0
 25 24  2  0  0  0  0
 26 25  1  0  0  0  0
 27 26  2  0  0  0  0
 27 28  1  0  0  0  0
 28 23  2  0  0  0  0
 29 25  1  0  0  0  0
 30 26  1  0  0  0  0
 31 27  1  0  0  0  0
 32 33  1  0  0  0  0
 33 40  2  0  0  0  0
 33 34  1  0  0  0  0
 34 28  1  0  0  0  0
 34 35  2  0  0  0  0
 35 37  1  0  0  0  0
 35 36  1  0  0  0  0
 37 38  1  0  0  0  0
 39 37  2  0  0  0  0
 40 39  1  0  0  0  0
M  END
>  <minimizedAffinity>
-5.80965328

$$$$

 OpenBabel03272501093D

 40 43  0  0  1  0  0  0  0  0999 V2000
   39.4250   25.4790   33.3970 C   0  0  2  0  0  0  0  0  0  0  0  0
   39.9440   25.6570   34.8620 C   0  0  2  0  0  0  0  0  0  0  0  0
   41.0740   26.5400   34.6430 C   0  0  0  0  0  0  0  0  0  0  0  0
   40.7640   27.4060   33.6060 O   0  0  0  0  0  0  0  0  0  0  0  0
   39.6480   26.9550   32.9810 C   0  0  0  0  0  0  0  0  0  0  0  0
   40.1270   24.9070   32.8020 H   0  0  0  0  0  0  0  0  0  0  0  0
   39.1030   26.1910   35.3530 H   0  0  0  0  0  0  0  0  0  0  0  0
   41.2360   27.1790   35.5600 H   0  0  0  0  0  0  0  0  0  0  0  0
   42.0370   26.0980   34.4000 H   0  0  0  0  0  0  0  0  0  0  0  0
   38.7120   27.5040   33.1770 H   0  0  0  0  0  0  0  0  0  0  0  0
   39.8190   26.9660   31.8730 H   0  0  0  0  0  0  0  0  0  0  0  0
   39.4920   22.6930   37.1310 C   0  0  0  0  0  0  0  0  0  0  0  0
   39.2210   23.9390   36.5020 C   0  0  0  0  0  0  0  0  0  0  0  0
   40.1540   24.3990   35.5260 C   0  0  0  0  0  0  0  0  0  0  0  0
   41.2690   23.6290   35.2310 N   0  0  0  0  0  0  0  0  0  0  0  0
   41.4660   22.4620   35.8610 C   0  0  0  0  0  0  0  0  0  0  0  0
   40.6050   21.9840   36.7980 N   0  0  0  0  0  0  0  0  0  0  0  0
   38.7980   22.3490   37.8590 H   0  0  0  0  0  0  0  0  0  0  0  0
   38.3600   24.4940   36.7560 H   0  0  0  0  0  0  0  0  0  0  0  0
   42.3280   21.8470   35.6480 H   0  0  0  0  0  0  0  0  0  0  0  0
   38.1000   25.2040   33.3540 O   0  0  0  0  0  0  0  0  0  0  0  0
   38.3680   22.1360   33.5460 Cl  0  0  0  0  0  0  0  0  0  0  0  0
   37.1920   22.9850   32.5810 C   0  0  0  0  0  0  0  0  0  0  0  0
   37.2860   24.3670   32.6700 C   0  0  0  0  0  0  0  0  0  0  0  0
   36.3620   25.0660   31.9070 C   0  0  0  0  0  0  0  0  0  0  0  0
   35.4200   24.4260   31.1200 C   0  0  0  0  0  0  0  0  0  0  0  0
   35.3790   23.0610   31.0750 C   0  0  0  0  0  0  0  0  0  0  0  0
   36.2720   22.3320   31.8120 C   0  0  0  0  0  0  0  0  0  0  0  0
   36.2770   26.1420   31.8460 H   0  0  0  0  0  0  0  0  0  0  0  0
   34.6850   24.9380   30.5130 H   0  0  0  0  0  0  0  0  0  0  0  0
   34.6700   22.5300   30.4830 H   0  0  0  0  0  0  0  0  0  0  0  0
   38.2230   20.8310   30.0090 Cl  0  0  0  0  0  0  0  0  0  0  0  0
   37.1340   20.0280   31.1210 C   0  0  0  0  0  0  0  0  0  0  0  0
   36.3300   20.8730   31.8490 C   0  0  0  0  0  0  0  0  0  0  0  0
   35.4190   20.3500   32.7690 C   0  0  0  0  0  0  0  0  0  0  0  0
   34.7390   20.9160   33.3940 H   0  0  0  0  0  0  0  0  0  0  0  0
   35.3110   18.9770   32.9620 C   0  0  0  0  0  0  0  0  0  0  0  0
   34.6230   18.5240   33.6600 H   0  0  0  0  0  0  0  0  0  0  0  0
   36.1340   18.1350   32.2140 C   0  0  0  0  0  3  0  0  0  0  0  0
   37.0290   18.6690   31.3080 C   0  0  0  0  0  3  0  0  0  0  0  0
  1  6  1  6  0  0  0
  1  2  1  0  0  0  0
  2  7  1  1  0  0  0
  2 14  1  0  0  0  0
  3  2  1  0  0  0  0
  3  8  1  0  0  0  0
  4  3  1  0  0  0  0
  5 10  1  0  0  0  0
  5  1  1  0  0  0  0
  5  4  1  0  0  0  0
  9  3  1  0  0  0  0
 11  5  1  0  0  0  0
 12 18  1  0  0  0  0
 13 19  1  0  0  0  0
 13 12  2  0  0  0  0
 14 13  1  0  0  0  0
 15 14  2  0  0  0  0
 15 16  1  0  0  0  0
 16 17  2  0  0  0  0
 17 12  1  0  0  0  0
 20 16  1  0  0  0  0
 21  1  1  0  0  0  0
 23 24  1  0  0  0  0
 23 22  1  0  0  0  0
 24 21  1  0  0  0  0
 25 24  2  0  0  0  0
 26 25  1  0  0  0  0
 27 26  2  0  0  0  0
 27 28  1  0  0  0  0
 28 34  1  0  0  0  0
 28 23  2  0  0  0  0
 29 25  1  0  0  0  0
 30 26  1  0  0  0  0
 31 27  1  0  0  0  0
 32 33  1  0  0  0  0
 33 40  2  0  0  0  0
 33 34  1  0  0  0  0
 34 35  2  0  0  0  0
 35 37  1  0  0  0  0
 35 36  1  0  0  0  0
 37 38  1  0  0  0  0
 39 37  2  0  0  0  0
 40 39  1  0  0  0  0
M  END
>  <minimizedAffinity>
-5.8008709

$$$$

 OpenBabel03272501093D

 40 43  0  0  1  0  0  0  0  0999 V2000
   37.2440   21.3640   32.7060 C   0  0  2  0  0  0  0  0  0  0  0  0
   36.0510   22.0830   31.9930 C   0  0  2  0  0  0  0  0  0  0  0  0
   35.9210   21.2710   30.7980 C   0  0  0  0  0  0  0  0  0  0  0  0
   36.2130   19.9550   31.1230 O   0  0  0  0  0  0  0  0  0  0  0  0
   36.7820   19.9270   32.3540 C   0  0  0  0  0  0  0  0  0  0  0  0
   38.1680   21.5070   32.1580 H   0  0  0  0  0  0  0  0  0  0  0  0
   35.2090   21.9060   32.6950 H   0  0  0  0  0  0  0  0  0  0  0  0
   34.8470   21.2860   30.4470 H   0  0  0  0  0  0  0  0  0  0  0  0
   36.5320   21.5190   29.9340 H   0  0  0  0  0  0  0  0  0  0  0  0
   36.1520   19.5640   33.1840 H   0  0  0  0  0  0  0  0  0  0  0  0
   37.6970   19.2820   32.3210 H   0  0  0  0  0  0  0  0  0  0  0  0
   35.5330   25.7150   31.1700 C   0  0  0  0  0  0  0  0  0  0  0  0
   35.2560   24.3250   31.2820 C   0  0  0  0  0  0  0  0  0  0  0  0
   36.2640   23.4990   31.8610 C   0  0  0  0  0  0  0  0  0  0  0  0
   37.4550   24.0690   32.2850 N   0  0  0  0  0  0  0  0  0  0  0  0
   37.6540   25.3880   32.1500 C   0  0  0  0  0  0  0  0  0  0  0  0
   36.7220   26.2140   31.6050 N   0  0  0  0  0  0  0  0  0  0  0  0
   34.7830   26.3320   30.7390 H   0  0  0  0  0  0  0  0  0  0  0  0
   34.3360   23.9300   30.9470 H   0  0  0  0  0  0  0  0  0  0  0  0
   38.5740   25.8540   32.4720 H   0  0  0  0  0  0  0  0  0  0  0  0
   37.2070   21.5220   34.0500 O   0  0  0  0  0  0  0  0  0  0  0  0
   40.2300   22.0040   33.6610 Cl  0  0  0  0  0  0  0  0  0  0  0  0
   39.3130   22.4510   35.0730 C   0  0  0  0  0  0  0  0  0  0  0  0
   37.9670   22.1200   34.9960 C   0  0  0  0  0  0  0  0  0  0  0  0
   37.2170   22.4630   36.1110 C   0  0  0  0  0  0  0  0  0  0  0  0
   37.7750   23.0870   37.2130 C   0  0  0  0  0  0  0  0  0  0  0  0
   39.1080   23.3870   37.2270 C   0  0  0  0  0  0  0  0  0  0  0  0
   39.8860   23.0680   36.1480 C   0  0  0  0  0  0  0  0  0  0  0  0
   36.1570   22.2880   36.2380 H   0  0  0  0  0  0  0  0  0  0  0  0
   37.2210   23.3690   38.0990 H   0  0  0  0  0  0  0  0  0  0  0  0
   39.5760   23.8680   38.0550 H   0  0  0  0  0  0  0  0  0  0  0  0
   41.8990   21.1360   37.3840 Cl  0  0  0  0  0  0  0  0  0  0  0  0
   42.3670   22.5910   36.5290 C   0  0  0  0  0  0  0  0  0  0  0  0
   41.3180   23.3350   36.0430 C   0  0  0  0  0  0  0  0  0  0  0  0
   41.5650   24.5180   35.3430 C   0  0  0  0  0  0  0  0  0  0  0  0
   40.8220   25.1810   34.9170 H   0  0  0  0  0  0  0  0  0  0  0  0
   42.8670   24.9580   35.1280 C   0  0  0  0  0  0  0  0  0  0  0  0
   43.1090   25.8650   34.5940 H   0  0  0  0  0  0  0  0  0  0  0  0
   43.9180   24.1910   35.6290 C   0  0  0  0  0  3  0  0  0  0  0  0
   43.6560   23.0240   36.3190 C   0  0  0  0  0  3  0  0  0  0  0  0
  1  6  1  6  0  0  0
  1 21  1  0  0  0  0
  2  7  1  1  0  0  0
  2  1  1  0  0  0  0
  3  4  1  0  0  0  0
  3  2  1  0  0  0  0
  4  5  1  0  0  0  0
  5  1  1  0  0  0  0
  5 10  1  0  0  0  0
  8  3  1  0  0  0  0
  9  3  1  0  0  0  0
 11  5  1  0  0  0  0
 12 13  2  0  0  0  0
 12 17  1  0  0  0  0
 13 14  1  0  0  0  0
 14  2  1  0  0  0  0
 14 15  2  0  0  0  0
 16 15  1  0  0  0  0
 16 20  1  0  0  0  0
 17 16  2  0  0  0  0
 18 12  1  0  0  0  0
 19 13  1  0  0  0  0
 21 24  1  0  0  0  0
 22 23  1  0  0  0  0
 23 28  1  0  0  0  0
 24 23  2  0  0  0  0
 24 25  1  0  0  0  0
 25 29  1  0  0  0  0
 25 26  2  0  0  0  0
 26 27  1  0  0  0  0
 26 30  1  0  0  0  0
 27 31  1  0  0  0  0
 28 27  2  0  0  0  0
 33 32  1  0  0  0  0
 34 28  1  0  0  0  0
 34 33  2  0  0  0  0
 35 34  1  0  0  0  0
 36 35  1  0  0  0  0
 37 35  2  0  0  0  0
 37 39  1  0  0  0  0
 38 37  1  0  0  0  0
 39 40  2  0  0  0  0
 40 33  1  0  0  0  0
M  END
>  <minimizedAffinity>
-5.79062557

$$$$

 OpenBabel03272501093D

 40 43  0  0  1  0  0  0  0  0999 V2000
   38.2330   26.8740   31.5940 C   0  0  2  0  0  0  0  0  0  0  0  0
   39.1260   27.2810   32.8110 C   0  0  2  0  0  0  0  0  0  0  0  0
   40.4510   27.1150   32.2440 C   0  0  0  0  0  0  0  0  0  0  0  0
   40.4060   27.4710   30.9050 O   0  0  0  0  0  0  0  0  0  0  0  0
   39.1080   27.5800   30.5260 C   0  0  0  0  0  0  0  0  0  0  0  0
   38.3250   25.8160   31.3810 H   0  0  0  0  0  0  0  0  0  0  0  0
   38.8760   28.3550   32.9460 H   0  0  0  0  0  0  0  0  0  0  0  0
   41.1680   27.8300   32.7450 H   0  0  0  0  0  0  0  0  0  0  0  0
   40.9130   26.1320   32.2880 H   0  0  0  0  0  0  0  0  0  0  0  0
   38.7140   28.6010   30.3910 H   0  0  0  0  0  0  0  0  0  0  0  0
   38.9610   27.0320   29.5600 H   0  0  0  0  0  0  0  0  0  0  0  0
   38.4830   26.4540   36.4230 C   0  0  0  0  0  0  0  0  0  0  0  0
   38.8260   27.2200   35.2750 C   0  0  0  0  0  0  0  0  0  0  0  0
   38.7790   26.5650   34.0100 C   0  0  0  0  0  0  0  0  0  0  0  0
   38.4080   25.2300   33.9440 N   0  0  0  0  0  0  0  0  0  0  0  0
   38.0960   24.5640   35.0640 C   0  0  0  0  0  0  0  0  0  0  0  0
   38.1270   25.1460   36.2920 N   0  0  0  0  0  0  0  0  0  0  0  0
   38.5170   26.9400   37.3670 H   0  0  0  0  0  0  0  0  0  0  0  0
   39.1030   28.2340   35.3690 H   0  0  0  0  0  0  0  0  0  0  0  0
   37.8050   23.5240   35.0370 H   0  0  0  0  0  0  0  0  0  0  0  0
   37.0170   27.4680   31.6290 O   0  0  0  0  0  0  0  0  0  0  0  0
   35.8010   28.1460   34.3830 Cl  0  0  0  0  0  0  0  0  0  0  0  0
   35.9400   29.2520   33.0440 C   0  0  0  0  0  0  0  0  0  0  0  0
   36.5250   28.6950   31.9150 C   0  0  0  0  0  0  0  0  0  0  0  0
   36.6420   29.5560   30.8340 C   0  0  0  0  0  0  0  0  0  0  0  0
   36.2070   30.8690   30.8850 C   0  0  0  0  0  0  0  0  0  0  0  0
   35.6390   31.3580   32.0280 C   0  0  0  0  0  0  0  0  0  0  0  0
   35.5040   30.5430   33.1190 C   0  0  0  0  0  0  0  0  0  0  0  0
   37.0690   29.3080   29.8720 H   0  0  0  0  0  0  0  0  0  0  0  0
   36.2820   31.5680   30.0620 H   0  0  0  0  0  0  0  0  0  0  0  0
   35.2920   32.3620   32.1090 H   0  0  0  0  0  0  0  0  0  0  0  0
   32.5680   29.9530   33.7060 Cl  0  0  0  0  0  0  0  0  0  0  0  0
   33.6260   30.7700   34.8370 C   0  0  0  0  0  0  0  0  0  0  0  0
   34.9150   30.9460   34.3940 C   0  0  0  0  0  0  0  0  0  0  0  0
   35.8520   31.5860   35.2080 C   0  0  0  0  0  0  0  0  0  0  0  0
   36.8900   31.7790   34.9650 H   0  0  0  0  0  0  0  0  0  0  0  0
   35.5000   32.0510   36.4700 C   0  0  0  0  0  0  0  0  0  0  0  0
   36.1870   32.5510   37.1360 H   0  0  0  0  0  0  0  0  0  0  0  0
   34.1860   31.8630   36.9020 C   0  0  0  0  0  3  0  0  0  0  0  0
   33.2720   31.2300   36.0850 C   0  0  0  0  0  3  0  0  0  0  0  0
  1  6  1  6  0  0  0
  1 21  1  0  0  0  0
  1  2  1  0  0  0  0
  2  7  1  1  0  0  0
  2 14  1  0  0  0  0
  3  9  1  0  0  0  0
  3  8  1  0  0  0  0
  3  2  1  0  0  0  0
  4  3  1  0  0  0  0
  5  4  1  0  0  0  0
  5  1  1  0  0  0  0
 10  5  1  0  0  0  0
 11  5  1  0  0  0  0
 12 18  1  0  0  0  0
 13 19  1  0  0  0  0
 13 12  2  0  0  0  0
 14 13  1  0  0  0  0
 15 14  2  0  0  0  0
 15 16  1  0  0  0  0
 16 17  2  0  0  0  0
 17 12  1  0  0  0  0
 20 16  1  0  0  0  0
 21 24  1  0  0  0  0
 23 28  1  0  0  0  0
 23 22  1  0  0  0  0
 24 23  2  0  0  0  0
 25 26  2  0  0  0  0
 25 24  1  0  0  0  0
 26 27  1  0  0  0  0
 27 31  1  0  0  0  0
 27 28  2  0  0  0  0
 28 34  1  0  0  0  0
 29 25  1  0  0  0  0
 30 26  1  0  0  0  0
 32 33  1  0  0  0  0
 33 40  1  0  0  0  0
 34 33  2  0  0  0  0
 34 35  1  0  0  0  0
 35 37  2  0  0  0  0
 36 35  1  0  0  0  0
 37 39  1  0  0  0  0
 37 38  1  0  0  0  0
 40 39  2  0  0  0  0
M  END
>  <minimizedAffinity>
-5.69404268

$$$$

 OpenBabel03272501093D

 40 43  0  0  1  0  0  0  0  0999 V2000
   38.0300   27.0950   30.6620 C   0  0  2  0  0  0  0  0  0  0  0  0
   38.6320   25.6950   31.0110 C   0  0  2  0  0  0  0  0  0  0  0  0
   39.6780   25.5920   30.0120 C   0  0  0  0  0  0  0  0  0  0  0  0
   40.2080   26.8550   29.7950 O   0  0  0  0  0  0  0  0  0  0  0  0
   39.3930   27.7740   30.3710 C   0  0  0  0  0  0  0  0  0  0  0  0
   37.5160   27.0710   29.7080 H   0  0  0  0  0  0  0  0  0  0  0  0
   39.0560   25.8600   32.0250 H   0  0  0  0  0  0  0  0  0  0  0  0
   40.5200   24.9530   30.4110 H   0  0  0  0  0  0  0  0  0  0  0  0
   39.4220   25.1920   29.0340 H   0  0  0  0  0  0  0  0  0  0  0  0
   39.7460   28.2320   31.3100 H   0  0  0  0  0  0  0  0  0  0  0  0
   39.2030   28.6040   29.6430 H   0  0  0  0  0  0  0  0  0  0  0  0
   36.9640   22.3290   31.1750 C   0  0  0  0  0  0  0  0  0  0  0  0
   38.0060   23.2940   31.1140 C   0  0  0  0  0  0  0  0  0  0  0  0
   37.6270   24.6690   31.0850 C   0  0  0  0  0  0  0  0  0  0  0  0
   36.2820   25.0080   31.1160 N   0  0  0  0  0  0  0  0  0  0  0  0
   35.3480   24.0480   31.1740 C   0  0  0  0  0  0  0  0  0  0  0  0
   35.6620   22.7260   31.2030 N   0  0  0  0  0  0  0  0  0  0  0  0
   37.2440   21.3040   31.1960 H   0  0  0  0  0  0  0  0  0  0  0  0
   39.0170   22.9940   31.0910 H   0  0  0  0  0  0  0  0  0  0  0  0
   34.2950   24.2880   31.1990 H   0  0  0  0  0  0  0  0  0  0  0  0
   37.4620   27.6910   31.7370 O   0  0  0  0  0  0  0  0  0  0  0  0
   36.4300   28.3910   34.5600 Cl  0  0  0  0  0  0  0  0  0  0  0  0
   36.1100   29.3100   33.1150 C   0  0  0  0  0  0  0  0  0  0  0  0
   36.6910   28.7780   31.9720 C   0  0  0  0  0  0  0  0  0  0  0  0
   36.4470   29.4910   30.8080 C   0  0  0  0  0  0  0  0  0  0  0  0
   35.6820   30.6440   30.7950 C   0  0  0  0  0  0  0  0  0  0  0  0
   35.1380   31.1170   31.9550 C   0  0  0  0  0  0  0  0  0  0  0  0
   35.3530   30.4450   33.1270 C   0  0  0  0  0  0  0  0  0  0  0  0
   36.8130   29.2360   29.8220 H   0  0  0  0  0  0  0  0  0  0  0  0
   35.4710   31.2250   29.9060 H   0  0  0  0  0  0  0  0  0  0  0  0
   34.5430   32.0010   31.9890 H   0  0  0  0  0  0  0  0  0  0  0  0
   32.6120   29.4650   34.0420 Cl  0  0  0  0  0  0  0  0  0  0  0  0
   33.6270   30.5130   35.0100 C   0  0  0  0  0  0  0  0  0  0  0  0
   34.8270   30.8480   34.4290 C   0  0  0  0  0  0  0  0  0  0  0  0
   35.7220   31.6800   35.1050 C   0  0  0  0  0  0  0  0  0  0  0  0
   36.6900   32.0090   34.7480 H   0  0  0  0  0  0  0  0  0  0  0  0
   35.4170   32.1780   36.3670 C   0  0  0  0  0  0  0  0  0  0  0  0
   36.0750   32.8240   36.9290 H   0  0  0  0  0  0  0  0  0  0  0  0
   34.1940   31.8280   36.9400 C   0  0  0  0  0  3  0  0  0  0  0  0
   33.3200   31.0050   36.2580 C   0  0  0  0  0  3  0  0  0  0  0  0
  1  6  1  6  0  0  0
  1  2  1  0  0  0  0
  1 21  1  0  0  0  0
  2 14  1  0  0  0  0
  2  7  1  1  0  0  0
  3  8  1  0  0  0  0
  3  2  1  0  0  0  0
  4  3  1  0  0  0  0
  4  5  1  0  0  0  0
  5  1  1  0  0  0  0
  5 10  1  0  0  0  0
  9  3  1  0  0  0  0
 11  5  1  0  0  0  0
 12 18  1  0  0  0  0
 12 17  1  0  0  0  0
 13 12  2  0  0  0  0
 14 13  1  0  0  0  0
 14 15  2  0  0  0  0
 15 16  1  0  0  0  0
 16 20  1  0  0  0  0
 16 17  2  0  0  0  0
 19 13  1  0  0  0  0
 21 24  1  0  0  0  0
 23 28  1  0  0  0  0
 23 22  1  0  0  0  0
 24 23  2  0  0  0  0
 25 24  1  0  0  0  0
 26 25  2  0  0  0  0
 26 27  1  0  0  0  0
 27 31  1  0  0  0  0
 27 28  2  0  0  0  0
 28 34  1  0  0  0  0
 29 25  1  0  0  0  0
 30 26  1  0  0  0  0
 32 33  1  0  0  0  0
 33 40  1  0  0  0  0
 34 33  2  0  0  0  0
 34 35  1  0  0  0  0
 35 37  2  0  0  0  0
 36 35  1  0  0  0  0
 37 38  1  0  0  0  0
 37 39  1  0  0  0  0
 40 39  2  0  0  0  0
M  END
>  <minimizedAffinity>
-5.67362928

$$$$

 OpenBabel03272501093D

 40 43  0  0  1  0  0  0  0  0999 V2000
   35.8630   28.6260   32.7000 C   0  0  2  0  0  0  0  0  0  0  0  0
   36.2730   30.0240   32.1300 C   0  0  2  0  0  0  0  0  0  0  0  0
   35.0610   30.7820   32.3720 C   0  0  0  0  0  0  0  0  0  0  0  0
   34.4910   30.3400   33.5560 O   0  0  0  0  0  0  0  0  0  0  0  0
   35.0980   29.1850   33.9270 C   0  0  0  0  0  0  0  0  0  0  0  0
   35.1040   28.1620   32.0800 H   0  0  0  0  0  0  0  0  0  0  0  0
   37.0880   30.3350   32.8180 H   0  0  0  0  0  0  0  0  0  0  0  0
   35.3210   31.8710   32.5250 H   0  0  0  0  0  0  0  0  0  0  0  0
   34.2750   30.7540   31.6210 H   0  0  0  0  0  0  0  0  0  0  0  0
   35.8110   29.2450   34.7670 H   0  0  0  0  0  0  0  0  0  0  0  0
   34.3160   28.4320   34.2030 H   0  0  0  0  0  0  0  0  0  0  0  0
   37.6680   30.9740   28.7700 C   0  0  0  0  0  0  0  0  0  0  0  0
   37.1700   31.1240   30.0930 C   0  0  0  0  0  0  0  0  0  0  0  0
   36.7950   29.9400   30.7930 C   0  0  0  0  0  0  0  0  0  0  0  0
   36.9270   28.7070   30.1700 N   0  0  0  0  0  0  0  0  0  0  0  0
   37.4040   28.6340   28.9200 C   0  0  0  0  0  0  0  0  0  0  0  0
   37.7730   29.7350   28.2140 N   0  0  0  0  0  0  0  0  0  0  0  0
   37.9480   31.8560   28.2470 H   0  0  0  0  0  0  0  0  0  0  0  0
   37.0860   32.0810   30.5310 H   0  0  0  0  0  0  0  0  0  0  0  0
   37.5140   27.6850   28.4140 H   0  0  0  0  0  0  0  0  0  0  0  0
   36.9310   27.9160   33.1320 O   0  0  0  0  0  0  0  0  0  0  0  0
   38.3820   26.9380   35.6740 Cl  0  0  0  0  0  0  0  0  0  0  0  0
   37.8670   25.9220   34.3550 C   0  0  0  0  0  0  0  0  0  0  0  0
   37.2360   26.6130   33.3290 C   0  0  0  0  0  0  0  0  0  0  0  0
   36.8210   25.8250   32.2660 C   0  0  0  0  0  0  0  0  0  0  0  0
   37.0220   24.4560   32.2380 C   0  0  0  0  0  0  0  0  0  0  0  0
   37.6500   23.8350   33.2810 C   0  0  0  0  0  0  0  0  0  0  0  0
   38.0760   24.5740   34.3510 C   0  0  0  0  0  0  0  0  0  0  0  0
   36.3140   26.1780   31.3780 H   0  0  0  0  0  0  0  0  0  0  0  0
   36.7120   23.8110   31.4260 H   0  0  0  0  0  0  0  0  0  0  0  0
   37.8240   22.7840   33.2990 H   0  0  0  0  0  0  0  0  0  0  0  0
   41.0710   23.9970   34.2510 Cl  0  0  0  0  0  0  0  0  0  0  0  0
   40.0860   23.7070   35.6700 C   0  0  0  0  0  0  0  0  0  0  0  0
   38.7580   24.0290   35.5220 C   0  0  0  0  0  0  0  0  0  0  0  0
   37.8710   23.8410   36.5850 C   0  0  0  0  0  0  0  0  0  0  0  0
   36.8100   24.0580   36.5840 H   0  0  0  0  0  0  0  0  0  0  0  0
   38.3150   23.3310   37.8010 C   0  0  0  0  0  0  0  0  0  0  0  0
   37.6700   23.1670   38.6510 H   0  0  0  0  0  0  0  0  0  0  0  0
   39.6670   23.0090   37.9310 C   0  0  0  0  0  3  0  0  0  0  0  0
   40.5290   23.2000   36.8700 C   0  0  0  0  0  3  0  0  0  0  0  0
  1  6  1  6  0  0  0
  1 21  1  0  0  0  0
  1  5  1  0  0  0  0
  2  3  1  0  0  0  0
  2  1  1  0  0  0  0
  2  7  1  1  0  0  0
  3  8  1  0  0  0  0
  3  4  1  0  0  0  0
  4  5  1  0  0  0  0
  5 11  1  0  0  0  0
  5 10  1  0  0  0  0
  9  3  1  0  0  0  0
 12 13  1  0  0  0  0
 13 19  1  0  0  0  0
 13 14  2  0  0  0  0
 14  2  1  0  0  0  0
 15 14  1  0  0  0  0
 16 15  2  0  0  0  0
 17 12  2  0  0  0  0
 17 16  1  0  0  0  0
 18 12  1  0  0  0  0
 20 16  1  0  0  0  0
 21 24  1  0  0  0  0
 23 22  1  0  0  0  0
 24 23  2  0  0  0  0
 25 24  1  0  0  0  0
 26 25  2  0  0  0  0
 26 27  1  0  0  0  0
 27 31  1  0  0  0  0
 27 28  2  0  0  0  0
 28 23  1  0  0  0  0
 28 34  1  0  0  0  0
 29 25  1  0  0  0  0
 30 26  1  0  0  0  0
 32 33  1  0  0  0  0
 33 40  1  0  0  0  0
 34 33  2  0  0  0  0
 34 35  1  0  0  0  0
 35 37  2  0  0  0  0
 36 35  1  0  0  0  0
 37 39  1  0  0  0  0
 37 38  1  0  0  0  0
 40 39  2  0  0  0  0
M  END
>  <minimizedAffinity>
-5.66388845

$$$$
