
 OpenBabel03272501083D

 40 43  0  0  1  0  0  0  0  0999 V2000
   38.8910   32.4780   47.6810 C   0  0  2  0  0  0  0  0  0  0  0  0
   37.9900   32.6800   48.9430 C   0  0  2  0  0  0  0  0  0  0  0  0
   38.9180   33.3520   49.8330 C   0  0  0  0  0  0  0  0  0  0  0  0
   39.7380   34.1770   49.0780 O   0  0  0  0  0  0  0  0  0  0  0  0
   39.5800   33.8640   47.7680 C   0  0  0  0  0  0  0  0  0  0  0  0
   39.6780   31.7580   47.8760 H   0  0  0  0  0  0  0  0  0  0  0  0
   37.2090   33.3770   48.5730 H   0  0  0  0  0  0  0  0  0  0  0  0
   38.3440   34.0250   50.5380 H   0  0  0  0  0  0  0  0  0  0  0  0
   39.5740   32.7450   50.4520 H   0  0  0  0  0  0  0  0  0  0  0  0
   38.9930   34.5690   47.1550 H   0  0  0  0  0  0  0  0  0  0  0  0
   40.5890   33.7640   47.2910 H   0  0  0  0  0  0  0  0  0  0  0  0
   37.3700   29.3880   50.6520 C   0  0  0  0  0  0  0  0  0  0  0  0
   38.0390   30.5860   50.2760 C   0  0  0  0  0  0  0  0  0  0  0  0
   37.3640   31.4580   49.3720 C   0  0  0  0  0  0  0  0  0  0  0  0
   36.1060   31.1140   48.9000 N   0  0  0  0  0  0  0  0  0  0  0  0
   35.5310   29.9700   49.2940 C   0  0  0  0  0  0  0  0  0  0  0  0
   36.1350   29.1070   50.1530 N   0  0  0  0  0  0  0  0  0  0  0  0
   37.8710   28.7370   51.3260 H   0  0  0  0  0  0  0  0  0  0  0  0
   38.9970   30.8100   50.6590 H   0  0  0  0  0  0  0  0  0  0  0  0
   34.5520   29.6810   48.9390 H   0  0  0  0  0  0  0  0  0  0  0  0
   38.1670   32.4170   46.5390 O   0  0  0  0  0  0  0  0  0  0  0  0
   40.4170   32.2670   44.4330 Cl  0  0  0  0  0  0  0  0  0  0  0  0
   38.9370   31.3490   44.3910 C   0  0  0  0  0  0  0  0  0  0  0  0
   38.0890   31.6040   45.4610 C   0  0  0  0  0  0  0  0  0  0  0  0
   36.9020   30.8870   45.4470 C   0  0  0  0  0  0  0  0  0  0  0  0
   36.5930   29.9880   44.4410 C   0  0  0  0  0  0  0  0  0  0  0  0
   37.4710   29.7820   43.4150 C   0  0  0  0  0  0  0  0  0  0  0  0
   38.6550   30.4670   43.3880 C   0  0  0  0  0  0  0  0  0  0  0  0
   36.1180   30.9480   46.1900 H   0  0  0  0  0  0  0  0  0  0  0  0
   35.6770   29.4130   44.3980 H   0  0  0  0  0  0  0  0  0  0  0  0
   37.2720   29.0990   42.6220 H   0  0  0  0  0  0  0  0  0  0  0  0
   38.7130   32.4210   41.0440 Cl  0  0  0  0  0  0  0  0  0  0  0  0
   39.8600   31.1090   41.2270 C   0  0  0  0  0  0  0  0  0  0  0  0
   39.6730   30.3350   42.3490 C   0  0  0  0  0  0  0  0  0  0  0  0
   40.5240   29.2590   42.6040 C   0  0  0  0  0  0  0  0  0  0  0  0
   40.4740   28.5840   43.4500 H   0  0  0  0  0  0  0  0  0  0  0  0
   41.5670   28.9540   41.7350 C   0  0  0  0  0  0  0  0  0  0  0  0
   42.2510   28.1340   41.8890 H   0  0  0  0  0  0  0  0  0  0  0  0
   41.7410   29.7520   40.6030 C   0  0  0  0  0  3  0  0  0  0  0  0
   40.8900   30.8120   40.3660 C   0  0  0  0  0  3  0  0  0  0  0  0
  1  5  1  0  0  0  0
  1  6  1  1  0  0  0
  1  2  1  0  0  0  0
  2  7  1  6  0  0  0
  2 14  1  0  0  0  0
  2  3  1  0  0  0  0
  3  9  1  0  0  0  0
  3  8  1  0  0  0  0
  4  3  1  0  0  0  0
  5  4  1  0  0  0  0
 10  5  1  0  0  0  0
 11  5  1  0  0  0  0
 12 18  1  0  0  0  0
 13 12  1  0  0  0  0
 13 19  1  0  0  0  0
 14 13  2  0  0  0  0
 15 16  2  0  0  0  0
 15 14  1  0  0  0  0
 16 17  1  0  0  0  0
 17 12  2  0  0  0  0
 20 16  1  0  0  0  0
 21  1  1  0  0  0  0
 23 22  1  0  0  0  0
 23 24  1  0  0  0  0
 24 21  1  0  0  0  0
 25 24  2  0  0  0  0
 25 29  1  0  0  0  0
 26 25  1  0  0  0  0
 27 26  2  0  0  0  0
 28 27  1  0  0  0  0
 28 23  2  0  0  0  0
 30 26  1  0  0  0  0
 31 27  1  0  0  0  0
 32 33  1  0  0  0  0
 33 34  1  0  0  0  0
 34 35  2  0  0  0  0
 34 28  1  0  0  0  0
 35 36  1  0  0  0  0
 37 38  1  0  0  0  0
 37 35  1  0  0  0  0
 39 37  2  0  0  0  0
 40 39  1  0  0  0  0
 40 33  2  0  0  0  0
M  END
>  <minimizedAffinity>
-6.33803558

>  <minimizedRMSD>
1.47032905

$$$$
