
 OpenBabel03272508563D

 40 43  0  0  1  0  0  0  0  0999 V2000
   38.3670   31.8850   44.5210 C   0  0  0  0  0  0  0  0  0  0  0  0
   37.2440   32.4350   44.4150 O   0  0  0  0  0  0  0  0  0  0  0  0
   38.9500   31.6140   45.8280 N   0  0  0  0  0  0  0  0  0  0  0  0
   39.9290   31.3470   45.9720 H   0  0  0  0  0  0  0  0  0  0  0  0
   39.1470   31.4860   43.3310 C   0  0  0  0  0  0  0  0  0  0  0  0
   40.1330   30.5510   43.4710 C   0  0  0  0  0  0  0  0  0  0  0  0
   40.8490   30.1980   42.3400 C   0  0  0  0  0  0  0  0  0  0  0  0
   40.5230   30.8120   41.1450 C   0  0  0  0  0  0  0  0  0  0  0  0
   39.5170   31.7670   41.0040 C   0  0  0  0  0  0  0  0  0  0  0  0
   38.8640   32.0620   42.1360 N   0  0  0  0  0  0  0  0  0  0  0  0
   40.3840   30.0720   44.4060 H   0  0  0  0  0  0  0  0  0  0  0  0
   41.6520   29.4730   42.3190 H   0  0  0  0  0  0  0  0  0  0  0  0
   41.0620   30.5680   40.2180 H   0  0  0  0  0  0  0  0  0  0  0  0
   39.2280   32.3700   39.7140 C   0  0  0  0  0  0  0  0  0  0  0  0
   38.7280   33.5170   39.6840 O   0  0  0  0  0  0  0  0  0  0  0  0
   36.9140   30.7190   38.9840 Cl  0  0  0  0  0  0  0  0  0  0  0  0
   38.4110   30.8910   38.0930 C   0  0  0  0  0  0  0  0  0  0  0  0
   39.5040   31.6780   38.4490 C   0  0  0  0  0  0  0  0  0  0  0  0
   40.6140   31.7210   37.6600 C   0  0  0  0  0  0  0  0  0  0  0  0
   41.3830   32.3590   38.0380 H   0  0  0  0  0  0  0  0  0  0  0  0
   40.6540   30.9780   36.4980 C   0  0  0  0  0  0  0  0  0  0  0  0
   41.5580   31.0410   35.8980 H   0  0  0  0  0  0  0  0  0  0  0  0
   39.5710   30.1790   36.1170 C   0  0  0  0  0  3  0  0  0  0  0  0
   38.4400   30.1330   36.9170 C   0  0  0  0  0  3  0  0  0  0  0  0
   38.4370   31.1060   48.2000 C   0  0  2  0  0  0  0  0  0  0  0  0
   38.6760   32.5720   48.1210 C   0  0  0  0  0  0  0  0  0  0  0  0
   38.0790   31.7340   46.9710 C   0  0  1  0  0  0  0  0  0  0  0  0
   39.3700   30.5160   48.3040 H   0  0  0  0  0  0  0  0  0  0  0  0
   38.0040   33.2110   48.7130 H   0  0  0  0  0  0  0  0  0  0  0  0
   39.6930   32.9420   48.0050 H   0  0  0  0  0  0  0  0  0  0  0  0
   37.0010   32.0070   46.7840 H   0  0  0  0  0  0  0  0  0  0  0  0
   35.0670   30.2340   49.5160 C   0  0  0  0  0  0  0  0  0  0  0  0
   35.4020   29.5480   50.7310 C   0  0  0  0  0  0  0  0  0  0  0  0
   36.8040   29.4090   51.0720 C   0  0  0  0  0  0  0  0  0  0  0  0
   37.7500   29.9320   50.2340 N   0  0  0  0  0  0  0  0  0  0  0  0
   37.3500   30.5650   49.1050 C   0  0  0  0  0  0  0  0  0  0  0  0
   36.0270   30.7380   48.7110 N   0  0  0  0  0  0  0  0  0  0  0  0
   34.0130   30.3160   49.2960 H   0  0  0  0  0  0  0  0  0  0  0  0
   34.6630   29.1420   51.3810 H   0  0  0  0  0  0  0  0  0  0  0  0
   37.0380   28.8990   51.9760 H   0  0  0  0  0  0  0  0  0  0  0  0
  1  3  1  0  0  0  0
  2  1  2  0  0  0  0
  3  4  1  0  0  0  0
  3 27  1  0  0  0  0
  5  6  1  0  0  0  0
  5  1  1  0  0  0  0
  6 11  1  0  0  0  0
  7  6  2  0  0  0  0
  8  7  1  0  0  0  0
  9  8  2  0  0  0  0
  9 10  1  0  0  0  0
 10  5  2  0  0  0  0
 12  7  1  0  0  0  0
 13  8  1  0  0  0  0
 14  9  1  0  0  0  0
 15 14  2  0  0  0  0
 17 18  1  0  0  0  0
 17 16  1  0  0  0  0
 18 14  1  0  0  0  0
 19 20  1  0  0  0  0
 19 18  2  0  0  0  0
 21 19  1  0  0  0  0
 22 21  1  0  0  0  0
 23 21  2  0  0  0  0
 23 24  1  0  0  0  0
 24 17  2  0  0  0  0
 25 28  1  6  0  0  0
 25 36  1  0  0  0  0
 26 25  1  0  0  0  0
 26 29  1  0  0  0  0
 27 31  1  6  0  0  0
 27 26  1  0  0  0  0
 27 25  1  0  0  0  0
 30 26  1  0  0  0  0
 32 33  1  0  0  0  0
 33 34  2  0  0  0  0
 33 39  1  0  0  0  0
 34 40  1  0  0  0  0
 35 34  1  0  0  0  0
 36 35  2  0  0  0  0
 37 36  1  0  0  0  0
 37 32  2  0  0  0  0
 38 32  1  0  0  0  0
M  END
>  <minimizedAffinity>
-4.94575214

>  <minimizedRMSD>
0.655621469

$$$$
