
 OpenBabel03272508563D

 40 43  0  0  1  0  0  0  0  0999 V2000
   38.3680   31.8840   44.5210 C   0  0  0  0  0  0  0  0  0  0  0  0
   37.2480   32.4380   44.4150 O   0  0  0  0  0  0  0  0  0  0  0  0
   38.9500   31.6090   45.8280 N   0  0  0  0  0  0  0  0  0  0  0  0
   39.9270   31.3380   45.9720 H   0  0  0  0  0  0  0  0  0  0  0  0
   39.1490   31.4850   43.3310 C   0  0  0  0  0  0  0  0  0  0  0  0
   40.1340   30.5500   43.4710 C   0  0  0  0  0  0  0  0  0  0  0  0
   40.8500   30.1970   42.3400 C   0  0  0  0  0  0  0  0  0  0  0  0
   40.5240   30.8110   41.1450 C   0  0  0  0  0  0  0  0  0  0  0  0
   39.5180   31.7650   41.0040 C   0  0  0  0  0  0  0  0  0  0  0  0
   38.8650   32.0610   42.1360 N   0  0  0  0  0  0  0  0  0  0  0  0
   40.3860   30.0710   44.4060 H   0  0  0  0  0  0  0  0  0  0  0  0
   41.6530   29.4710   42.3180 H   0  0  0  0  0  0  0  0  0  0  0  0
   41.0630   30.5660   40.2170 H   0  0  0  0  0  0  0  0  0  0  0  0
   39.2300   32.3690   39.7140 C   0  0  0  0  0  0  0  0  0  0  0  0
   38.7300   33.5160   39.6830 O   0  0  0  0  0  0  0  0  0  0  0  0
   36.9150   30.7170   38.9850 Cl  0  0  0  0  0  0  0  0  0  0  0  0
   38.4120   30.8890   38.0930 C   0  0  0  0  0  0  0  0  0  0  0  0
   39.5040   31.6770   38.4490 C   0  0  0  0  0  0  0  0  0  0  0  0
   40.6140   31.7190   37.6590 C   0  0  0  0  0  0  0  0  0  0  0  0
   41.3830   32.3580   38.0370 H   0  0  0  0  0  0  0  0  0  0  0  0
   40.6550   30.9760   36.4980 C   0  0  0  0  0  0  0  0  0  0  0  0
   41.5580   31.0380   35.8960 H   0  0  0  0  0  0  0  0  0  0  0  0
   39.5710   30.1760   36.1170 C   0  0  0  0  0  3  0  0  0  0  0  0
   38.4410   30.1300   36.9170 C   0  0  0  0  0  3  0  0  0  0  0  0
   38.4360   31.1030   48.2000 C   0  0  2  0  0  0  0  0  0  0  0  0
   38.6740   32.5700   48.1190 C   0  0  0  0  0  0  0  0  0  0  0  0
   38.0790   31.7290   46.9700 C   0  0  1  0  0  0  0  0  0  0  0  0
   39.3700   30.5150   48.3060 H   0  0  0  0  0  0  0  0  0  0  0  0
   38.0010   33.2090   48.7100 H   0  0  0  0  0  0  0  0  0  0  0  0
   39.6900   32.9410   48.0030 H   0  0  0  0  0  0  0  0  0  0  0  0
   37.0000   32.0010   46.7830 H   0  0  0  0  0  0  0  0  0  0  0  0
   35.0670   30.2350   49.5190 C   0  0  0  0  0  0  0  0  0  0  0  0
   35.4030   29.5460   50.7330 C   0  0  0  0  0  0  0  0  0  0  0  0
   36.8040   29.4040   51.0720 C   0  0  0  0  0  0  0  0  0  0  0  0
   37.7500   29.9270   50.2330 N   0  0  0  0  0  0  0  0  0  0  0  0
   37.3490   30.5630   49.1060 C   0  0  0  0  0  0  0  0  0  0  0  0
   36.0260   30.7390   48.7140 N   0  0  0  0  0  0  0  0  0  0  0  0
   34.0130   30.3200   49.3010 H   0  0  0  0  0  0  0  0  0  0  0  0
   34.6630   29.1400   51.3830 H   0  0  0  0  0  0  0  0  0  0  0  0
   37.0390   28.8920   51.9740 H   0  0  0  0  0  0  0  0  0  0  0  0
  1  3  1  0  0  0  0
  2  1  2  0  0  0  0
  3  4  1  0  0  0  0
  3 27  1  0  0  0  0
  5  6  1  0  0  0  0
  5  1  1  0  0  0  0
  6 11  1  0  0  0  0
  7  6  2  0  0  0  0
  8  7  1  0  0  0  0
  9  8  2  0  0  0  0
  9 10  1  0  0  0  0
 10  5  2  0  0  0  0
 12  7  1  0  0  0  0
 13  8  1  0  0  0  0
 14  9  1  0  0  0  0
 15 14  2  0  0  0  0
 17 18  1  0  0  0  0
 17 16  1  0  0  0  0
 18 14  1  0  0  0  0
 19 20  1  0  0  0  0
 19 18  2  0  0  0  0
 21 19  1  0  0  0  0
 22 21  1  0  0  0  0
 23 21  2  0  0  0  0
 23 24  1  0  0  0  0
 24 17  2  0  0  0  0
 25 28  1  6  0  0  0
 25 36  1  0  0  0  0
 26 25  1  0  0  0  0
 26 29  1  0  0  0  0
 27 31  1  6  0  0  0
 27 26  1  0  0  0  0
 27 25  1  0  0  0  0
 30 26  1  0  0  0  0
 32 33  1  0  0  0  0
 33 34  2  0  0  0  0
 33 39  1  0  0  0  0
 34 40  1  0  0  0  0
 35 34  1  0  0  0  0
 36 35  2  0  0  0  0
 37 36  1  0  0  0  0
 37 32  2  0  0  0  0
 38 32  1  0  0  0  0
M  END
>  <minimizedAffinity>
-4.94553995

>  <minimizedRMSD>
0.234554082

$$$$
