
 OpenBabel03272500543D

 32 34  0  0  0  0  0  0  0  0999 V2000
   37.0940   32.0710   42.8370 C   0  0  0  0  0  0  0  0  0  0  0  0
   37.5270   31.8340   41.5260 C   0  0  0  0  0  0  0  0  0  0  0  0
   38.8690   31.8790   41.1770 C   0  0  0  0  0  0  0  0  0  0  0  0
   39.8310   32.1770   42.1800 C   0  0  0  0  0  0  0  0  0  0  0  0
   39.3600   32.4010   43.4420 C   0  0  0  0  0  0  0  0  0  0  0  0
   38.0480   32.3530   43.7940 C   0  0  0  0  0  0  0  0  0  0  0  0
   36.7970   31.6060   40.7440 H   0  0  0  0  0  0  0  0  0  0  0  0
   39.0990   31.6760   40.1170 H   0  0  0  0  0  0  0  0  0  0  0  0
   40.8050   32.1730   41.7420 H   0  0  0  0  0  0  0  0  0  0  0  0
   40.2400   32.6490   43.9930 H   0  0  0  0  0  0  0  0  0  0  0  0
   34.9680   33.2150   42.6470 C   0  0  0  0  0  0  0  0  0  0  0  0
   35.6540   32.0470   43.0240 C   0  0  0  0  0  0  0  0  0  0  0  0
   34.8870   30.9890   43.5400 C   0  0  0  0  0  0  0  0  0  0  0  0
   33.5560   31.1290   43.6510 N   0  0  0  0  0  0  0  0  0  0  0  0
   32.9140   32.2460   43.2890 C   0  0  0  0  0  0  0  0  0  0  0  0
   33.6220   33.2760   42.7920 N   0  0  0  0  0  0  0  0  0  0  0  0
   35.4800   34.0790   42.2400 H   0  0  0  0  0  0  0  0  0  0  0  0
   35.4670   30.1130   43.8150 H   0  0  0  0  0  0  0  0  0  0  0  0
   31.8450   32.2360   43.4260 H   0  0  0  0  0  0  0  0  0  0  0  0
   37.8650   31.4160   45.9370 C   0  0  0  0  0  0  0  0  0  0  0  0
   38.3520   30.3620   45.3980 O   0  0  0  0  0  0  0  0  0  0  0  0
   37.5890   32.5520   45.0980 N   0  0  0  0  0  0  0  0  0  0  0  0
   37.1140   33.4180   45.4070 H   0  0  0  0  0  0  0  0  0  0  0  0
   35.3970   29.9470   46.9750 Cl  0  0  0  0  0  0  0  0  0  0  0  0
   36.4770   30.9180   47.9540 C   0  0  0  0  0  0  0  0  0  0  0  0
   37.5650   31.5390   47.3860 C   0  0  0  0  0  0  0  0  0  0  0  0
   38.4790   32.3260   48.0600 C   0  0  0  0  0  0  0  0  0  0  0  0
   39.3200   32.8030   47.6000 H   0  0  0  0  0  0  0  0  0  0  0  0
   38.2610   32.4850   49.4180 C   0  0  0  0  0  0  0  0  0  0  0  0
   38.9350   33.0920   50.0310 H   0  0  0  0  0  0  0  0  0  0  0  0
   37.1900   31.8930   50.0580 C   0  0  0  0  0  0  0  0  0  0  0  0
   36.3290   31.1240   49.3020 C   0  0  0  0  0  0  0  0  0  0  0  0
  1 12  1  0  0  0  0
  1  6  1  0  0  0  0
  2  1  2  0  0  0  0
  3  2  1  0  0  0  0
  3  4  2  0  0  0  0
  4  5  1  0  0  0  0
  5  6  2  0  0  0  0
  5 10  1  0  0  0  0
  6 22  1  0  0  0  0
  7  2  1  0  0  0  0
  8  3  1  0  0  0  0
  9  4  1  0  0  0  0
 11 16  2  0  0  0  0
 11 12  1  0  0  0  0
 12 13  2  0  0  0  0
 13 14  1  0  0  0  0
 13 18  1  0  0  0  0
 15 19  1  0  0  0  0
 15 14  2  0  0  0  0
 16 15  1  0  0  0  0
 17 11  1  0  0  0  0
 20 26  1  0  0  0  0
 21 20  2  0  0  0  0
 22 23  1  0  0  0  0
 22 20  1  0  0  0  0
 24 25  1  0  0  0  0
 25 32  1  0  0  0  0
 26 25  2  0  0  0  0
 26 27  1  0  0  0  0
 27 29  2  0  0  0  0
 28 27  1  0  0  0  0
 29 30  1  0  0  0  0
 29 31  1  0  0  0  0
 32 31  2  0  0  0  0
M  END
>  <minimizedAffinity>
-5.69419003

>  <minimizedRMSD>
5.86228561

$$$$
