
 OpenBabel03272508563D

 40 43  0  0  1  0  0  0  0  0999 V2000
   38.4010   31.7830   44.5520 C   0  0  0  0  0  0  0  0  0  0  0  0
   37.3670   32.4810   44.4180 O   0  0  0  0  0  0  0  0  0  0  0  0
   38.8660   31.3740   45.8700 N   0  0  0  0  0  0  0  0  0  0  0  0
   39.7920   30.9740   46.0500 H   0  0  0  0  0  0  0  0  0  0  0  0
   39.1930   31.3440   43.3830 C   0  0  0  0  0  0  0  0  0  0  0  0
   40.2510   30.5040   43.5820 C   0  0  0  0  0  0  0  0  0  0  0  0
   40.9760   30.1100   42.4700 C   0  0  0  0  0  0  0  0  0  0  0  0
   40.5840   30.5900   41.2340 C   0  0  0  0  0  0  0  0  0  0  0  0
   39.5040   31.4470   41.0340 C   0  0  0  0  0  0  0  0  0  0  0  0
   38.8460   31.7890   42.1500 N   0  0  0  0  0  0  0  0  0  0  0  0
   40.5540   30.1300   44.5490 H   0  0  0  0  0  0  0  0  0  0  0  0
   41.8340   29.4510   42.4940 H   0  0  0  0  0  0  0  0  0  0  0  0
   41.1270   30.3080   40.3200 H   0  0  0  0  0  0  0  0  0  0  0  0
   39.1490   31.9110   39.7030 C   0  0  0  0  0  0  0  0  0  0  0  0
   39.0840   33.1430   39.4910 O   0  0  0  0  0  0  0  0  0  0  0  0
   41.4750   31.7720   37.9190 Cl  0  0  0  0  0  0  0  0  0  0  0  0
   39.9620   30.9090   37.7490 C   0  0  0  0  0  0  0  0  0  0  0  0
   38.8640   30.9820   38.6020 C   0  0  0  0  0  0  0  0  0  0  0  0
   37.7410   30.2520   38.3510 C   0  0  0  0  0  0  0  0  0  0  0  0
   36.9690   30.3930   39.0760 H   0  0  0  0  0  0  0  0  0  0  0  0
   37.6930   29.4340   37.2420 C   0  0  0  0  0  0  0  0  0  0  0  0
   36.7800   28.8680   37.0780 H   0  0  0  0  0  0  0  0  0  0  0  0
   38.7820   29.3410   36.3690 C   0  0  0  0  0  3  0  0  0  0  0  0
   39.9260   30.0810   36.6210 C   0  0  0  0  0  3  0  0  0  0  0  0
   38.2150   30.9130   48.2180 C   0  0  2  0  0  0  0  0  0  0  0  0
   38.5430   32.3620   48.1440 C   0  0  0  0  0  0  0  0  0  0  0  0
   37.9520   31.5520   46.9700 C   0  0  1  0  0  0  0  0  0  0  0  0
   39.1070   30.2710   48.3670 H   0  0  0  0  0  0  0  0  0  0  0  0
   37.8830   33.0430   48.7010 H   0  0  0  0  0  0  0  0  0  0  0  0
   39.5840   32.6720   48.0740 H   0  0  0  0  0  0  0  0  0  0  0  0
   36.9010   31.8860   46.7330 H   0  0  0  0  0  0  0  0  0  0  0  0
   34.7510   30.1160   49.3180 C   0  0  0  0  0  0  0  0  0  0  0  0
   34.9850   29.5500   50.6160 C   0  0  0  0  0  0  0  0  0  0  0  0
   36.3530   29.4650   51.0870 C   0  0  0  0  0  0  0  0  0  0  0  0
   37.3640   29.9220   50.2860 N   0  0  0  0  0  0  0  0  0  0  0  0
   37.0580   30.4420   49.0730 C   0  0  0  0  0  0  0  0  0  0  0  0
   35.7730   30.5580   48.5540 N   0  0  0  0  0  0  0  0  0  0  0  0
   33.7190   30.1620   49.0030 H   0  0  0  0  0  0  0  0  0  0  0  0
   34.1960   29.1960   51.2360 H   0  0  0  0  0  0  0  0  0  0  0  0
   36.5120   29.0440   52.0510 H   0  0  0  0  0  0  0  0  0  0  0  0
  1  3  1  0  0  0  0
  2  1  2  0  0  0  0
  3  4  1  0  0  0  0
  3 27  1  0  0  0  0
  5  6  1  0  0  0  0
  5  1  1  0  0  0  0
  6 11  1  0  0  0  0
  7 12  1  0  0  0  0
  7  6  2  0  0  0  0
  8  7  1  0  0  0  0
  9  8  2  0  0  0  0
  9 10  1  0  0  0  0
 10  5  2  0  0  0  0
 13  8  1  0  0  0  0
 14  9  1  0  0  0  0
 15 14  2  0  0  0  0
 17 16  1  0  0  0  0
 17 18  1  0  0  0  0
 18 14  1  0  0  0  0
 19 18  2  0  0  0  0
 19 20  1  0  0  0  0
 21 19  1  0  0  0  0
 22 21  1  0  0  0  0
 23 24  1  0  0  0  0
 23 21  2  0  0  0  0
 24 17  2  0  0  0  0
 25 28  1  6  0  0  0
 25 36  1  0  0  0  0
 26 25  1  0  0  0  0
 26 29  1  0  0  0  0
 27 31  1  6  0  0  0
 27 26  1  0  0  0  0
 27 25  1  0  0  0  0
 30 26  1  0  0  0  0
 32 33  1  0  0  0  0
 33 34  2  0  0  0  0
 33 39  1  0  0  0  0
 34 40  1  0  0  0  0
 35 34  1  0  0  0  0
 36 35  2  0  0  0  0
 37 36  1  0  0  0  0
 37 32  2  0  0  0  0
 38 32  1  0  0  0  0
M  END
>  <minimizedAffinity>
-4.91799212

>  <minimizedRMSD>
0.860356331

$$$$
