
 OpenBabel03272508563D

 40 43  0  0  1  0  0  0  0  0999 V2000
   38.3330   31.8710   44.5870 C   0  0  0  0  0  0  0  0  0  0  0  0
   37.1730   32.3340   44.4720 O   0  0  0  0  0  0  0  0  0  0  0  0
   38.9480   31.7030   45.8970 N   0  0  0  0  0  0  0  0  0  0  0  0
   39.9450   31.5140   46.0390 H   0  0  0  0  0  0  0  0  0  0  0  0
   39.1280   31.4760   43.4050 C   0  0  0  0  0  0  0  0  0  0  0  0
   40.1150   30.5440   43.5550 C   0  0  0  0  0  0  0  0  0  0  0  0
   40.8450   30.1940   42.4320 C   0  0  0  0  0  0  0  0  0  0  0  0
   40.5300   30.8080   41.2350 C   0  0  0  0  0  0  0  0  0  0  0  0
   39.5230   31.7600   41.0830 C   0  0  0  0  0  0  0  0  0  0  0  0
   38.8570   32.0520   42.2070 N   0  0  0  0  0  0  0  0  0  0  0  0
   40.3570   30.0650   44.4930 H   0  0  0  0  0  0  0  0  0  0  0  0
   41.6500   29.4710   42.4190 H   0  0  0  0  0  0  0  0  0  0  0  0
   41.0810   30.5660   40.3130 H   0  0  0  0  0  0  0  0  0  0  0  0
   39.2470   32.3630   39.7900 C   0  0  0  0  0  0  0  0  0  0  0  0
   38.6290   33.4510   39.7530 O   0  0  0  0  0  0  0  0  0  0  0  0
   37.1650   30.5070   38.8770 Cl  0  0  0  0  0  0  0  0  0  0  0  0
   38.6890   30.8560   38.0880 C   0  0  0  0  0  0  0  0  0  0  0  0
   39.6690   31.7390   38.5300 C   0  0  0  0  0  0  0  0  0  0  0  0
   40.8160   31.9170   37.8160 C   0  0  0  0  0  0  0  0  0  0  0  0
   41.4900   32.6190   38.2560 H   0  0  0  0  0  0  0  0  0  0  0  0
   41.0040   31.2150   36.6420 C   0  0  0  0  0  0  0  0  0  0  0  0
   41.9320   31.3860   36.1030 H   0  0  0  0  0  0  0  0  0  0  0  0
   40.0350   30.3220   36.1750 C   0  0  0  0  0  3  0  0  0  0  0  0
   38.8670   30.1370   36.9000 C   0  0  0  0  0  3  0  0  0  0  0  0
   38.4350   31.1540   48.2600 C   0  0  2  0  0  0  0  0  0  0  0  0
   38.6950   32.6180   48.2090 C   0  0  0  0  0  0  0  0  0  0  0  0
   38.0830   31.8120   47.0440 C   0  0  1  0  0  0  0  0  0  0  0  0
   39.3610   30.5500   48.3480 H   0  0  0  0  0  0  0  0  0  0  0  0
   38.0340   33.2550   48.8160 H   0  0  0  0  0  0  0  0  0  0  0  0
   39.7160   32.9760   48.0970 H   0  0  0  0  0  0  0  0  0  0  0  0
   37.0070   32.1040   46.8670 H   0  0  0  0  0  0  0  0  0  0  0  0
   35.0620   30.2390   49.5340 C   0  0  0  0  0  0  0  0  0  0  0  0
   35.3890   29.5880   50.7720 C   0  0  0  0  0  0  0  0  0  0  0  0
   36.7870   29.4880   51.1410 C   0  0  0  0  0  0  0  0  0  0  0  0
   37.7370   30.0130   50.3070 N   0  0  0  0  0  0  0  0  0  0  0  0
   37.3440   30.6100   49.1570 C   0  0  0  0  0  0  0  0  0  0  0  0
   36.0250   30.7450   48.7360 N   0  0  0  0  0  0  0  0  0  0  0  0
   34.0110   30.2930   49.2940 H   0  0  0  0  0  0  0  0  0  0  0  0
   34.6470   29.1810   51.4180 H   0  0  0  0  0  0  0  0  0  0  0  0
   37.0150   29.0040   52.0610 H   0  0  0  0  0  0  0  0  0  0  0  0
  1  3  1  0  0  0  0
  2  1  2  0  0  0  0
  3  4  1  0  0  0  0
  3 27  1  0  0  0  0
  5  6  1  0  0  0  0
  5  1  1  0  0  0  0
  6 11  1  0  0  0  0
  7  6  2  0  0  0  0
  8  7  1  0  0  0  0
  9  8  2  0  0  0  0
  9 10  1  0  0  0  0
 10  5  2  0  0  0  0
 12  7  1  0  0  0  0
 13  8  1  0  0  0  0
 14  9  1  0  0  0  0
 15 14  2  0  0  0  0
 17 18  1  0  0  0  0
 17 16  1  0  0  0  0
 18 14  1  0  0  0  0
 19 20  1  0  0  0  0
 19 18  2  0  0  0  0
 21 19  1  0  0  0  0
 22 21  1  0  0  0  0
 23 21  2  0  0  0  0
 23 24  1  0  0  0  0
 24 17  2  0  0  0  0
 25 28  1  6  0  0  0
 25 36  1  0  0  0  0
 26 25  1  0  0  0  0
 26 29  1  0  0  0  0
 27 31  1  6  0  0  0
 27 26  1  0  0  0  0
 27 25  1  0  0  0  0
 30 26  1  0  0  0  0
 32 33  1  0  0  0  0
 33 34  2  0  0  0  0
 33 39  1  0  0  0  0
 34 40  1  0  0  0  0
 35 34  1  0  0  0  0
 36 35  2  0  0  0  0
 37 36  1  0  0  0  0
 37 32  2  0  0  0  0
 38 32  1  0  0  0  0
M  END
>  <minimizedAffinity>
-4.97352409

>  <minimizedRMSD>
0.870013177

$$$$
