
 OpenBabel03272508563D

 40 43  0  0  1  0  0  0  0  0999 V2000
   38.4010   31.8370   44.5560 C   0  0  0  0  0  0  0  0  0  0  0  0
   37.3290   32.4780   44.4390 O   0  0  0  0  0  0  0  0  0  0  0  0
   38.9270   31.4870   45.8690 N   0  0  0  0  0  0  0  0  0  0  0  0
   39.8780   31.1400   46.0290 H   0  0  0  0  0  0  0  0  0  0  0  0
   39.1800   31.4090   43.3740 C   0  0  0  0  0  0  0  0  0  0  0  0
   40.2270   30.5510   43.5500 C   0  0  0  0  0  0  0  0  0  0  0  0
   40.9390   30.1680   42.4260 C   0  0  0  0  0  0  0  0  0  0  0  0
   40.5460   30.6770   41.2020 C   0  0  0  0  0  0  0  0  0  0  0  0
   39.4760   31.5530   41.0250 C   0  0  0  0  0  0  0  0  0  0  0  0
   38.8310   31.8820   42.1520 N   0  0  0  0  0  0  0  0  0  0  0  0
   40.5310   30.1550   44.5080 H   0  0  0  0  0  0  0  0  0  0  0  0
   41.7870   29.4960   42.4320 H   0  0  0  0  0  0  0  0  0  0  0  0
   41.0790   30.4050   40.2790 H   0  0  0  0  0  0  0  0  0  0  0  0
   39.1190   32.0470   39.7050 C   0  0  0  0  0  0  0  0  0  0  0  0
   39.1230   33.2820   39.5030 O   0  0  0  0  0  0  0  0  0  0  0  0
   41.4010   31.7650   37.8810 Cl  0  0  0  0  0  0  0  0  0  0  0  0
   39.8310   31.0030   37.7340 C   0  0  0  0  0  0  0  0  0  0  0  0
   38.7550   31.1450   38.6060 C   0  0  0  0  0  0  0  0  0  0  0  0
   37.5820   30.4920   38.3720 C   0  0  0  0  0  0  0  0  0  0  0  0
   36.8340   30.6790   39.1110 H   0  0  0  0  0  0  0  0  0  0  0  0
   37.4620   29.6830   37.2600 C   0  0  0  0  0  0  0  0  0  0  0  0
   36.5100   29.1810   37.1100 H   0  0  0  0  0  0  0  0  0  0  0  0
   38.5270   29.5230   36.3680 C   0  0  0  0  0  3  0  0  0  0  0  0
   39.7210   30.1870   36.6020 C   0  0  0  0  0  3  0  0  0  0  0  0
   38.2940   30.9320   48.2010 C   0  0  2  0  0  0  0  0  0  0  0  0
   38.6820   32.3680   48.1960 C   0  0  0  0  0  0  0  0  0  0  0  0
   38.0390   31.6460   46.9930 C   0  0  1  0  0  0  0  0  0  0  0  0
   39.1590   30.2460   48.3010 H   0  0  0  0  0  0  0  0  0  0  0  0
   38.0610   33.0470   48.7990 H   0  0  0  0  0  0  0  0  0  0  0  0
   39.7350   32.6370   48.1230 H   0  0  0  0  0  0  0  0  0  0  0  0
   37.0000   32.0370   46.7910 H   0  0  0  0  0  0  0  0  0  0  0  0
   34.8210   30.1550   49.2870 C   0  0  0  0  0  0  0  0  0  0  0  0
   35.0470   29.5860   50.5860 C   0  0  0  0  0  0  0  0  0  0  0  0
   36.4130   29.4920   51.0610 C   0  0  0  0  0  0  0  0  0  0  0  0
   37.4290   29.9450   50.2650 N   0  0  0  0  0  0  0  0  0  0  0  0
   37.1310   30.4670   49.0510 C   0  0  0  0  0  0  0  0  0  0  0  0
   35.8480   30.5910   48.5280 N   0  0  0  0  0  0  0  0  0  0  0  0
   33.7910   30.2070   48.9680 H   0  0  0  0  0  0  0  0  0  0  0  0
   34.2530   29.2350   51.2020 H   0  0  0  0  0  0  0  0  0  0  0  0
   36.5650   29.0700   52.0260 H   0  0  0  0  0  0  0  0  0  0  0  0
  1  3  1  0  0  0  0
  2  1  2  0  0  0  0
  3  4  1  0  0  0  0
  3 27  1  0  0  0  0
  5  6  1  0  0  0  0
  5  1  1  0  0  0  0
  6 11  1  0  0  0  0
  7 12  1  0  0  0  0
  7  6  2  0  0  0  0
  8  7  1  0  0  0  0
  9  8  2  0  0  0  0
  9 10  1  0  0  0  0
 10  5  2  0  0  0  0
 13  8  1  0  0  0  0
 14  9  1  0  0  0  0
 15 14  2  0  0  0  0
 17 16  1  0  0  0  0
 17 18  1  0  0  0  0
 18 14  1  0  0  0  0
 19 18  2  0  0  0  0
 19 20  1  0  0  0  0
 21 19  1  0  0  0  0
 22 21  1  0  0  0  0
 23 24  1  0  0  0  0
 23 21  2  0  0  0  0
 24 17  2  0  0  0  0
 25 28  1  6  0  0  0
 25 36  1  0  0  0  0
 26 25  1  0  0  0  0
 26 29  1  0  0  0  0
 27 31  1  6  0  0  0
 27 26  1  0  0  0  0
 27 25  1  0  0  0  0
 30 26  1  0  0  0  0
 32 33  1  0  0  0  0
 33 34  2  0  0  0  0
 33 39  1  0  0  0  0
 34 40  1  0  0  0  0
 35 34  1  0  0  0  0
 36 35  2  0  0  0  0
 37 36  1  0  0  0  0
 37 32  2  0  0  0  0
 38 32  1  0  0  0  0
M  END
>  <minimizedAffinity>
-4.91088629

>  <minimizedRMSD>
0.943385243

$$$$
