
 OpenBabel03272509303D

 38 40  0  0  1  0  0  0  0  0999 V2000
   35.7840   30.5230   48.7820 C   0  0  2  0  0  0  0  0  0  0  0  0
   36.8660   31.1830   49.5820 C   0  0  0  0  0  0  0  0  0  0  0  0
   37.6150   30.2140   50.4730 C   0  0  0  0  0  0  0  0  0  0  0  0
   36.6520   29.5040   51.4180 C   0  0  0  0  0  0  0  0  0  0  0  0
   35.3200   29.1640   50.7830 C   0  0  0  0  0  0  0  0  0  0  0  0
   35.5000   29.1380   49.2560 C   0  0  1  0  0  0  0  0  0  0  0  0
   34.7910   31.0620   48.8290 H   0  0  0  0  0  0  0  0  0  0  0  0
   37.5130   31.8680   49.0680 H   0  0  0  0  0  0  0  0  0  0  0  0
   36.2970   31.8300   50.3320 H   0  0  0  0  0  0  0  0  0  0  0  0
   38.2780   30.8300   51.1130 H   0  0  0  0  0  0  0  0  0  0  0  0
   38.1470   29.4240   49.9140 H   0  0  0  0  0  0  0  0  0  0  0  0
   37.1050   28.5380   51.7650 H   0  0  0  0  0  0  0  0  0  0  0  0
   36.4790   30.1100   52.3220 H   0  0  0  0  0  0  0  0  0  0  0  0
   34.5730   29.9120   51.0560 H   0  0  0  0  0  0  0  0  0  0  0  0
   34.9440   28.1590   51.0970 H   0  0  0  0  0  0  0  0  0  0  0  0
   36.3560   28.5150   49.1680 H   0  0  0  0  0  0  0  0  0  0  0  0
   36.1400   30.4720   47.3390 C   0  0  0  0  0  0  0  0  0  0  0  0
   37.4740   30.7680   47.0310 C   0  0  0  0  0  0  0  0  0  0  0  0
   37.8300   30.7240   45.6780 C   0  0  0  0  0  0  0  0  0  0  0  0
   36.8740   30.3990   44.7480 N   0  0  0  0  0  0  0  0  0  0  0  0
   35.5780   30.1170   45.1050 C   0  0  0  0  0  0  0  0  0  0  0  0
   35.2340   30.1590   46.4020 N   0  0  0  0  0  0  0  0  0  0  0  0
   38.3060   31.0260   47.6530 H   0  0  0  0  0  0  0  0  0  0  0  0
   38.8130   30.9280   45.2920 H   0  0  0  0  0  0  0  0  0  0  0  0
   34.8360   29.8610   44.3620 H   0  0  0  0  0  0  0  0  0  0  0  0
   33.1410   28.2650   48.9570 C   0  0  0  0  0  0  0  0  0  0  0  0
   32.4920   28.7030   49.9510 O   0  0  0  0  0  0  0  0  0  0  0  0
   34.4880   28.4470   48.5460 N   0  0  0  0  0  0  0  0  0  0  0  0
   34.6170   27.9720   47.5990 H   0  0  0  0  0  0  0  0  0  0  0  0
   34.2350   25.8270   47.6550 Cl  0  0  0  0  0  0  0  0  0  0  0  0
   32.5280   26.2860   47.5810 C   0  0  0  0  0  0  0  0  0  0  0  0
   32.1380   27.4490   48.2340 C   0  0  0  0  0  0  0  0  0  0  0  0
   30.8080   27.8470   48.2030 C   0  0  0  0  0  0  0  0  0  0  0  0
   30.5130   28.7450   48.7070 H   0  0  0  0  0  0  0  0  0  0  0  0
   29.8630   27.0830   47.5200 C   0  0  0  0  0  0  0  0  0  0  0  0
   28.8170   27.3530   47.4670 H   0  0  0  0  0  0  0  0  0  0  0  0
   30.2490   25.9110   46.8620 C   0  0  0  0  0  3  0  0  0  0  0  0
   31.5860   25.5270   46.9030 C   0  0  0  0  0  3  0  0  0  0  0  0
  1  7  1  1  0  0  0
  1  6  1  0  0  0  0
  1  2  1  0  0  0  0
  2  9  1  0  0  0  0
  2  3  1  0  0  0  0
  3 10  1  0  0  0  0
  3  4  1  0  0  0  0
  4 12  1  0  0  0  0
  4 13  1  0  0  0  0
  5 14  1  0  0  0  0
  5 15  1  0  0  0  0
  5  4  1  0  0  0  0
  6 16  1  6  0  0  0
  6  5  1  0  0  0  0
  8  2  1  0  0  0  0
 11  3  1  0  0  0  0
 17  1  1  0  0  0  0
 18 17  1  0  0  0  0
 18 23  1  0  0  0  0
 19 18  2  0  0  0  0
 20 21  2  0  0  0  0
 20 19  1  0  0  0  0
 21 22  1  0  0  0  0
 22 17  2  0  0  0  0
 24 19  1  0  0  0  0
 25 21  1  0  0  0  0
 26 27  2  0  0  0  0
 28 26  1  0  0  0  0
 28  6  1  0  0  0  0
 29 28  1  0  0  0  0
 31 30  1  0  0  0  0
 31 32  1  0  0  0  0
 32 26  1  0  0  0  0
 33 32  2  0  0  0  0
 33 34  1  0  0  0  0
 35 33  1  0  0  0  0
 36 35  1  0  0  0  0
 37 38  1  0  0  0  0
 37 35  2  0  0  0  0
 38 31  2  0  0  0  0
M  END
>  <minimizedAffinity>
-5.51395512

>  <minimizedRMSD>
1.03165174

$$$$
