
 OpenBabel03272509323D

 38 40  0  0  1  0  0  0  0  0999 V2000
   38.7660   25.7160   34.5510 C   0  0  2  0  0  0  0  0  0  0  0  0
   38.7650   27.1130   35.0950 C   0  0  0  0  0  0  0  0  0  0  0  0
   37.4240   27.8010   34.9500 C   0  0  0  0  0  0  0  0  0  0  0  0
   36.9950   27.8300   33.4860 C   0  0  0  0  0  0  0  0  0  0  0  0
   37.3510   26.5720   32.7250 C   0  0  0  0  0  0  0  0  0  0  0  0
   37.5500   25.4300   33.7360 C   0  0  1  0  0  0  0  0  0  0  0  0
   39.6390   25.4950   33.8680 H   0  0  0  0  0  0  0  0  0  0  0  0
   39.2160   27.2690   36.0570 H   0  0  0  0  0  0  0  0  0  0  0  0
   39.4280   27.6920   34.3670 H   0  0  0  0  0  0  0  0  0  0  0  0
   37.5830   28.8570   35.2450 H   0  0  0  0  0  0  0  0  0  0  0  0
   36.6110   27.3020   35.5050 H   0  0  0  0  0  0  0  0  0  0  0  0
   35.8820   27.9490   33.4210 H   0  0  0  0  0  0  0  0  0  0  0  0
   37.4320   28.7020   32.9720 H   0  0  0  0  0  0  0  0  0  0  0  0
   38.2690   26.7260   32.1540 H   0  0  0  0  0  0  0  0  0  0  0  0
   36.5440   26.2600   32.0170 H   0  0  0  0  0  0  0  0  0  0  0  0
   36.6650   25.5210   34.3150 H   0  0  0  0  0  0  0  0  0  0  0  0
   38.8560   24.7140   35.6460 C   0  0  0  0  0  0  0  0  0  0  0  0
   38.0510   24.9630   36.7650 C   0  0  0  0  0  0  0  0  0  0  0  0
   38.1190   24.0310   37.8070 C   0  0  0  0  0  0  0  0  0  0  0  0
   38.9520   22.9470   37.6780 N   0  0  0  0  0  0  0  0  0  0  0  0
   39.7210   22.7500   36.5560 C   0  0  0  0  0  0  0  0  0  0  0  0
   39.6580   23.6440   35.5560 N   0  0  0  0  0  0  0  0  0  0  0  0
   37.3640   25.7540   36.9840 H   0  0  0  0  0  0  0  0  0  0  0  0
   37.5630   24.0900   38.7250 H   0  0  0  0  0  0  0  0  0  0  0  0
   40.3720   21.8920   36.4670 H   0  0  0  0  0  0  0  0  0  0  0  0
   36.5180   23.6530   32.2530 C   0  0  0  0  0  0  0  0  0  0  0  0
   35.5830   24.2370   31.6320 O   0  0  0  0  0  0  0  0  0  0  0  0
   37.4780   24.1260   33.1880 N   0  0  0  0  0  0  0  0  0  0  0  0
   38.1490   23.3260   33.4140 H   0  0  0  0  0  0  0  0  0  0  0  0
   38.6570   22.8210   30.3630 Cl  0  0  0  0  0  0  0  0  0  0  0  0
   37.3560   21.7470   30.8920 C   0  0  0  0  0  0  0  0  0  0  0  0
   36.4160   22.2530   31.7810 C   0  0  0  0  0  0  0  0  0  0  0  0
   35.3760   21.4450   32.2240 C   0  0  0  0  0  0  0  0  0  0  0  0
   34.6540   21.8390   32.9090 H   0  0  0  0  0  0  0  0  0  0  0  0
   35.2740   20.1280   31.7790 C   0  0  0  0  0  0  0  0  0  0  0  0
   34.4830   19.4600   32.0950 H   0  0  0  0  0  0  0  0  0  0  0  0
   36.2170   19.6120   30.8850 C   0  0  0  0  0  3  0  0  0  0  0  0
   37.2510   20.4360   30.4520 C   0  0  0  0  0  3  0  0  0  0  0  0
  1  7  1  6  0  0  0
  1  2  1  0  0  0  0
  1 17  1  0  0  0  0
  2  8  1  0  0  0  0
  3  2  1  0  0  0  0
  3 10  1  0  0  0  0
  3 11  1  0  0  0  0
  4  3  1  0  0  0  0
  5  4  1  0  0  0  0
  5  6  1  0  0  0  0
  6 16  1  1  0  0  0
  6  1  1  0  0  0  0
  9  2  1  0  0  0  0
 12  4  1  0  0  0  0
 13  4  1  0  0  0  0
 14  5  1  0  0  0  0
 15  5  1  0  0  0  0
 17 18  1  0  0  0  0
 18 23  1  0  0  0  0
 18 19  2  0  0  0  0
 19 24  1  0  0  0  0
 20 19  1  0  0  0  0
 21 20  2  0  0  0  0
 22 17  2  0  0  0  0
 22 21  1  0  0  0  0
 25 21  1  0  0  0  0
 26 28  1  0  0  0  0
 27 26  2  0  0  0  0
 28 29  1  0  0  0  0
 28  6  1  0  0  0  0
 30 31  1  0  0  0  0
 31 32  1  0  0  0  0
 32 33  2  0  0  0  0
 32 26  1  0  0  0  0
 33 34  1  0  0  0  0
 35 36  1  0  0  0  0
 35 33  1  0  0  0  0
 37 35  2  0  0  0  0
 38 37  1  0  0  0  0
 38 31  2  0  0  0  0
M  END
>  <minimizedAffinity>
-5.89761019

$$$$

 OpenBabel03272509323D

 38 40  0  0  1  0  0  0  0  0999 V2000
   37.1630   27.3940   32.2620 C   0  0  2  0  0  0  0  0  0  0  0  0
   37.9450   27.0180   31.0390 C   0  0  0  0  0  0  0  0  0  0  0  0
   38.3200   28.2130   30.1880 C   0  0  0  0  0  0  0  0  0  0  0  0
   37.0710   28.9830   29.7700 C   0  0  0  0  0  0  0  0  0  0  0  0
   36.0110   29.0510   30.8490 C   0  0  0  0  0  0  0  0  0  0  0  0
   36.6840   28.8050   32.2100 C   0  0  1  0  0  0  0  0  0  0  0  0
   36.2320   26.7700   32.4140 H   0  0  0  0  0  0  0  0  0  0  0  0
   38.7520   26.3210   31.1640 H   0  0  0  0  0  0  0  0  0  0  0  0
   37.1870   26.4680   30.3850 H   0  0  0  0  0  0  0  0  0  0  0  0
   38.7570   27.8060   29.2550 H   0  0  0  0  0  0  0  0  0  0  0  0
   38.9740   28.9350   30.7070 H   0  0  0  0  0  0  0  0  0  0  0  0
   37.3460   30.0400   29.5140 H   0  0  0  0  0  0  0  0  0  0  0  0
   36.6340   28.5440   28.8580 H   0  0  0  0  0  0  0  0  0  0  0  0
   35.2460   28.2930   30.6710 H   0  0  0  0  0  0  0  0  0  0  0  0
   35.5130   30.0510   30.8930 H   0  0  0  0  0  0  0  0  0  0  0  0
   37.4950   29.4880   32.1560 H   0  0  0  0  0  0  0  0  0  0  0  0
   37.9730   27.2070   33.4940 C   0  0  0  0  0  0  0  0  0  0  0  0
   39.3570   27.1030   33.3020 C   0  0  0  0  0  0  0  0  0  0  0  0
   40.1380   26.9280   34.4510 C   0  0  0  0  0  0  0  0  0  0  0  0
   39.5190   26.8720   35.6750 N   0  0  0  0  0  0  0  0  0  0  0  0
   38.1550   26.9800   35.8070 C   0  0  0  0  0  0  0  0  0  0  0  0
   37.4040   27.1460   34.7060 N   0  0  0  0  0  0  0  0  0  0  0  0
   39.9550   27.1370   32.4160 H   0  0  0  0  0  0  0  0  0  0  0  0
   41.2090   26.8320   34.4600 H   0  0  0  0  0  0  0  0  0  0  0  0
   37.6810   26.9350   36.7770 H   0  0  0  0  0  0  0  0  0  0  0  0
   35.5390   30.5680   33.6240 C   0  0  0  0  0  0  0  0  0  0  0  0
   35.6550   31.6470   32.9740 O   0  0  0  0  0  0  0  0  0  0  0  0
   35.9370   29.2350   33.3330 N   0  0  0  0  0  0  0  0  0  0  0  0
   35.5750   28.6000   34.1110 H   0  0  0  0  0  0  0  0  0  0  0  0
   32.6850   29.7500   33.7890 Cl  0  0  0  0  0  0  0  0  0  0  0  0
   33.5060   30.6720   35.0540 C   0  0  0  0  0  0  0  0  0  0  0  0
   34.8440   30.9920   34.8610 C   0  0  0  0  0  0  0  0  0  0  0  0
   35.5310   31.7150   35.8300 C   0  0  0  0  0  0  0  0  0  0  0  0
   36.5610   31.9590   35.6770 H   0  0  0  0  0  0  0  0  0  0  0  0
   34.8800   32.1190   36.9940 C   0  0  0  0  0  0  0  0  0  0  0  0
   35.3700   32.6830   37.7760 H   0  0  0  0  0  0  0  0  0  0  0  0
   33.5330   31.7990   37.1950 C   0  0  0  0  0  3  0  0  0  0  0  0
   32.8620   31.0760   36.2140 C   0  0  0  0  0  3  0  0  0  0  0  0
  1  7  1  1  0  0  0
  1 17  1  0  0  0  0
  2  8  1  0  0  0  0
  2  1  1  0  0  0  0
  3 11  1  0  0  0  0
  3  2  1  0  0  0  0
  4  3  1  0  0  0  0
  4  5  1  0  0  0  0
  5 15  1  0  0  0  0
  5  6  1  0  0  0  0
  6 16  1  6  0  0  0
  6  1  1  0  0  0  0
  6 28  1  0  0  0  0
  9  2  1  0  0  0  0
 10  3  1  0  0  0  0
 12  4  1  0  0  0  0
 13  4  1  0  0  0  0
 14  5  1  0  0  0  0
 17 22  1  0  0  0  0
 18 17  2  0  0  0  0
 18 19  1  0  0  0  0
 19 24  1  0  0  0  0
 19 20  2  0  0  0  0
 20 21  1  0  0  0  0
 21 25  1  0  0  0  0
 22 21  2  0  0  0  0
 23 18  1  0  0  0  0
 26 32  1  0  0  0  0
 27 26  2  0  0  0  0
 28 26  1  0  0  0  0
 28 29  1  0  0  0  0
 30 31  1  0  0  0  0
 31 38  1  0  0  0  0
 32 31  2  0  0  0  0
 32 33  1  0  0  0  0
 33 35  2  0  0  0  0
 34 33  1  0  0  0  0
 35 37  1  0  0  0  0
 35 36  1  0  0  0  0
 38 37  2  0  0  0  0
M  END
>  <minimizedAffinity>
-5.62845802

$$$$

 OpenBabel03272509323D

 38 40  0  0  1  0  0  0  0  0999 V2000
   40.0480   24.6770   34.5430 C   0  0  2  0  0  0  0  0  0  0  0  0
   41.0460   25.7840   34.7010 C   0  0  0  0  0  0  0  0  0  0  0  0
   40.5080   27.1300   34.2630 C   0  0  0  0  0  0  0  0  0  0  0  0
   40.0450   27.0730   32.8110 C   0  0  0  0  0  0  0  0  0  0  0  0
   39.3740   25.7680   32.4400 C   0  0  0  0  0  0  0  0  0  0  0  0
   38.8710   25.0940   33.7270 C   0  0  1  0  0  0  0  0  0  0  0  0
   40.4610   23.7630   34.0210 H   0  0  0  0  0  0  0  0  0  0  0  0
   41.5920   25.8290   35.6250 H   0  0  0  0  0  0  0  0  0  0  0  0
   41.8370   25.5570   33.9080 H   0  0  0  0  0  0  0  0  0  0  0  0
   41.3660   27.8310   34.2860 H   0  0  0  0  0  0  0  0  0  0  0  0
   39.6410   27.4710   34.8560 H   0  0  0  0  0  0  0  0  0  0  0  0
   39.3000   27.8900   32.6190 H   0  0  0  0  0  0  0  0  0  0  0  0
   40.8900   27.2550   32.1280 H   0  0  0  0  0  0  0  0  0  0  0  0
   40.0850   25.1140   31.9310 H   0  0  0  0  0  0  0  0  0  0  0  0
   38.4920   25.9190   31.7690 H   0  0  0  0  0  0  0  0  0  0  0  0
   38.3500   25.9000   34.1820 H   0  0  0  0  0  0  0  0  0  0  0  0
   39.5680   24.1950   35.8650 C   0  0  0  0  0  0  0  0  0  0  0  0
   40.3310   23.1800   36.4560 C   0  0  0  0  0  0  0  0  0  0  0  0
   39.8970   22.7140   37.7030 C   0  0  0  0  0  0  0  0  0  0  0  0
   38.7730   23.2660   38.2660 N   0  0  0  0  0  0  0  0  0  0  0  0
   38.0610   24.2620   37.6420 C   0  0  0  0  0  0  0  0  0  0  0  0
   38.4750   24.7090   36.4460 N   0  0  0  0  0  0  0  0  0  0  0  0
   41.2170   22.6770   36.1300 H   0  0  0  0  0  0  0  0  0  0  0  0
   40.3790   21.9400   38.2740 H   0  0  0  0  0  0  0  0  0  0  0  0
   37.1790   24.6880   38.0980 H   0  0  0  0  0  0  0  0  0  0  0  0
   38.0710   22.8190   32.9490 C   0  0  0  0  0  0  0  0  0  0  0  0
   39.1090   22.2190   32.5440 O   0  0  0  0  0  0  0  0  0  0  0  0
   37.8810   24.1000   33.5340 N   0  0  0  0  0  0  0  0  0  0  0  0
   36.8540   24.1930   33.8110 H   0  0  0  0  0  0  0  0  0  0  0  0
   36.9760   21.4640   35.3580 Cl  0  0  0  0  0  0  0  0  0  0  0  0
   36.3980   21.1470   33.7180 C   0  0  0  0  0  0  0  0  0  0  0  0
   36.9890   21.8460   32.6730 C   0  0  0  0  0  0  0  0  0  0  0  0
   36.5670   21.6290   31.3670 C   0  0  0  0  0  0  0  0  0  0  0  0
   37.0250   22.1700   30.5660 H   0  0  0  0  0  0  0  0  0  0  0  0
   35.5510   20.7120   31.1030 C   0  0  0  0  0  0  0  0  0  0  0  0
   35.1880   20.5080   30.1050 H   0  0  0  0  0  0  0  0  0  0  0  0
   34.9510   20.0050   32.1500 C   0  0  0  0  0  3  0  0  0  0  0  0
   35.3880   20.2350   33.4510 C   0  0  0  0  0  3  0  0  0  0  0  0
  1  7  1  6  0  0  0
  1  2  1  0  0  0  0
  1 17  1  0  0  0  0
  2  8  1  0  0  0  0
  3 10  1  0  0  0  0
  3  2  1  0  0  0  0
  3 11  1  0  0  0  0
  4  3  1  0  0  0  0
  5  4  1  0  0  0  0
  5  6  1  0  0  0  0
  6 16  1  1  0  0  0
  6  1  1  0  0  0  0
  9  2  1  0  0  0  0
 12  4  1  0  0  0  0
 13  4  1  0  0  0  0
 14  5  1  0  0  0  0
 15  5  1  0  0  0  0
 17 22  2  0  0  0  0
 17 18  1  0  0  0  0
 18 19  2  0  0  0  0
 19 20  1  0  0  0  0
 19 24  1  0  0  0  0
 21 25  1  0  0  0  0
 21 20  2  0  0  0  0
 22 21  1  0  0  0  0
 23 18  1  0  0  0  0
 26 28  1  0  0  0  0
 27 26  2  0  0  0  0
 28  6  1  0  0  0  0
 28 29  1  0  0  0  0
 31 30  1  0  0  0  0
 32 26  1  0  0  0  0
 32 31  2  0  0  0  0
 33 32  1  0  0  0  0
 34 33  1  0  0  0  0
 35 33  2  0  0  0  0
 35 37  1  0  0  0  0
 36 35  1  0  0  0  0
 37 38  2  0  0  0  0
 38 31  1  0  0  0  0
M  END
>  <minimizedAffinity>
-5.62521458

$$$$

 OpenBabel03272509323D

 38 40  0  0  1  0  0  0  0  0999 V2000
   36.1440   25.8150   32.0010 C   0  0  2  0  0  0  0  0  0  0  0  0
   36.0070   26.6810   30.7850 C   0  0  0  0  0  0  0  0  0  0  0  0
   37.0590   27.7680   30.7140 C   0  0  0  0  0  0  0  0  0  0  0  0
   37.0080   28.6420   31.9630 C   0  0  0  0  0  0  0  0  0  0  0  0
   36.7190   27.8690   33.2320 C   0  0  0  0  0  0  0  0  0  0  0  0
   37.0880   26.3940   32.9990 C   0  0  1  0  0  0  0  0  0  0  0  0
   35.1740   25.6630   32.5620 H   0  0  0  0  0  0  0  0  0  0  0  0
   35.8460   26.1900   29.8430 H   0  0  0  0  0  0  0  0  0  0  0  0
   35.0460   27.2690   30.9720 H   0  0  0  0  0  0  0  0  0  0  0  0
   36.7720   28.4230   29.8670 H   0  0  0  0  0  0  0  0  0  0  0  0
   38.0900   27.3790   30.6450 H   0  0  0  0  0  0  0  0  0  0  0  0
   37.9960   29.1530   32.1080 H   0  0  0  0  0  0  0  0  0  0  0  0
   36.2580   29.4410   31.8450 H   0  0  0  0  0  0  0  0  0  0  0  0
   35.6620   27.9510   33.4880 H   0  0  0  0  0  0  0  0  0  0  0  0
   37.3220   28.2360   34.0990 H   0  0  0  0  0  0  0  0  0  0  0  0
   38.0650   26.4950   32.5960 H   0  0  0  0  0  0  0  0  0  0  0  0
   36.6090   24.4500   31.6360 C   0  0  0  0  0  0  0  0  0  0  0  0
   35.6040   23.4860   31.4820 C   0  0  0  0  0  0  0  0  0  0  0  0
   36.0220   22.1950   31.1380 C   0  0  0  0  0  0  0  0  0  0  0  0
   37.3620   21.9500   30.9710 N   0  0  0  0  0  0  0  0  0  0  0  0
   38.3070   22.9340   31.1340 C   0  0  0  0  0  0  0  0  0  0  0  0
   37.9090   24.1730   31.4660 N   0  0  0  0  0  0  0  0  0  0  0  0
   34.5400   23.5480   31.5750 H   0  0  0  0  0  0  0  0  0  0  0  0
   35.3670   21.3550   30.9880 H   0  0  0  0  0  0  0  0  0  0  0  0
   39.3590   22.7280   30.9990 H   0  0  0  0  0  0  0  0  0  0  0  0
   38.2970   25.8010   35.1450 C   0  0  0  0  0  0  0  0  0  0  0  0
   39.2130   26.6660   35.2640 O   0  0  0  0  0  0  0  0  0  0  0  0
   37.2710   25.6300   34.1770 N   0  0  0  0  0  0  0  0  0  0  0  0
   36.6490   24.8190   34.4870 H   0  0  0  0  0  0  0  0  0  0  0  0
   40.0440   23.4540   34.6160 Cl  0  0  0  0  0  0  0  0  0  0  0  0
   39.3100   23.7840   36.1910 C   0  0  0  0  0  0  0  0  0  0  0  0
   38.5140   24.9160   36.3130 C   0  0  0  0  0  0  0  0  0  0  0  0
   37.9180   25.2150   37.5320 C   0  0  0  0  0  0  0  0  0  0  0  0
   37.3050   26.0880   37.6210 H   0  0  0  0  0  0  0  0  0  0  0  0
   38.1170   24.3840   38.6320 C   0  0  0  0  0  0  0  0  0  0  0  0
   37.6760   24.5740   39.6010 H   0  0  0  0  0  0  0  0  0  0  0  0
   38.9190   23.2430   38.5160 C   0  0  0  0  0  3  0  0  0  0  0  0
   39.5070   22.9590   37.2880 C   0  0  0  0  0  3  0  0  0  0  0  0
  1  7  1  1  0  0  0
  1  6  1  0  0  0  0
  2  9  1  0  0  0  0
  2  1  1  0  0  0  0
  3  2  1  0  0  0  0
  3  4  1  0  0  0  0
  4 12  1  0  0  0  0
  4  5  1  0  0  0  0
  5 14  1  0  0  0  0
  5 15  1  0  0  0  0
  6 16  1  6  0  0  0
  6  5  1  0  0  0  0
  6 28  1  0  0  0  0
  8  2  1  0  0  0  0
 10  3  1  0  0  0  0
 11  3  1  0  0  0  0
 13  4  1  0  0  0  0
 17  1  1  0  0  0  0
 18 23  1  0  0  0  0
 18 17  1  0  0  0  0
 19 18  2  0  0  0  0
 20 21  2  0  0  0  0
 20 19  1  0  0  0  0
 21 22  1  0  0  0  0
 22 17  2  0  0  0  0
 24 19  1  0  0  0  0
 25 21  1  0  0  0  0
 26 27  2  0  0  0  0
 26 32  1  0  0  0  0
 28 29  1  0  0  0  0
 28 26  1  0  0  0  0
 30 31  1  0  0  0  0
 31 32  2  0  0  0  0
 31 38  1  0  0  0  0
 32 33  1  0  0  0  0
 33 34  1  0  0  0  0
 33 35  2  0  0  0  0
 35 36  1  0  0  0  0
 37 35  1  0  0  0  0
 38 37  2  0  0  0  0
M  END
>  <minimizedAffinity>
-5.53312063

$$$$

 OpenBabel03272509323D

 38 40  0  0  1  0  0  0  0  0999 V2000
   38.5770   26.2780   34.8480 C   0  0  2  0  0  0  0  0  0  0  0  0
   39.7500   27.1710   35.1210 C   0  0  0  0  0  0  0  0  0  0  0  0
   41.0270   26.6830   34.4690 C   0  0  0  0  0  0  0  0  0  0  0  0
   41.3540   25.2670   34.9310 C   0  0  0  0  0  0  0  0  0  0  0  0
   40.1340   24.3860   35.0950 C   0  0  0  0  0  0  0  0  0  0  0  0
   38.9900   24.9750   34.2530 C   0  0  1  0  0  0  0  0  0  0  0  0
   37.9870   26.0080   35.7740 H   0  0  0  0  0  0  0  0  0  0  0  0
   39.6010   28.2290   35.0140 H   0  0  0  0  0  0  0  0  0  0  0  0
   39.9580   27.0200   36.2340 H   0  0  0  0  0  0  0  0  0  0  0  0
   41.8400   27.3290   34.8560 H   0  0  0  0  0  0  0  0  0  0  0  0
   40.9730   26.6480   33.3670 H   0  0  0  0  0  0  0  0  0  0  0  0
   42.0200   24.7670   34.1800 H   0  0  0  0  0  0  0  0  0  0  0  0
   41.9150   25.2890   35.8790 H   0  0  0  0  0  0  0  0  0  0  0  0
   39.8390   24.3450   36.1450 H   0  0  0  0  0  0  0  0  0  0  0  0
   40.3140   23.3410   34.7380 H   0  0  0  0  0  0  0  0  0  0  0  0
   39.4800   25.1120   33.3210 H   0  0  0  0  0  0  0  0  0  0  0  0
   37.6040   26.9360   33.9350 C   0  0  0  0  0  0  0  0  0  0  0  0
   36.7740   27.8990   34.5230 C   0  0  0  0  0  0  0  0  0  0  0  0
   35.8520   28.5310   33.6800 C   0  0  0  0  0  0  0  0  0  0  0  0
   35.8140   28.1810   32.3530 N   0  0  0  0  0  0  0  0  0  0  0  0
   36.6530   27.2280   31.8270 C   0  0  0  0  0  0  0  0  0  0  0  0
   37.5370   26.6190   32.6350 N   0  0  0  0  0  0  0  0  0  0  0  0
   36.7100   28.2630   35.5270 H   0  0  0  0  0  0  0  0  0  0  0  0
   35.1520   29.2870   33.9880 H   0  0  0  0  0  0  0  0  0  0  0  0
   36.6120   26.9630   30.7810 H   0  0  0  0  0  0  0  0  0  0  0  0
   38.0370   22.8510   33.2510 C   0  0  0  0  0  0  0  0  0  0  0  0
   39.0320   22.2250   32.7830 O   0  0  0  0  0  0  0  0  0  0  0  0
   37.9350   24.0760   33.9640 N   0  0  0  0  0  0  0  0  0  0  0  0
   36.9160   24.2110   34.2540 H   0  0  0  0  0  0  0  0  0  0  0  0
   36.6300   23.6530   30.7580 Cl  0  0  0  0  0  0  0  0  0  0  0  0
   36.1520   22.2620   31.7390 C   0  0  0  0  0  0  0  0  0  0  0  0
   36.8910   21.9880   32.8830 C   0  0  0  0  0  0  0  0  0  0  0  0
   36.5520   20.9050   33.6840 C   0  0  0  0  0  0  0  0  0  0  0  0
   37.1240   20.6980   34.5640 H   0  0  0  0  0  0  0  0  0  0  0  0
   35.4730   20.0920   33.3430 C   0  0  0  0  0  0  0  0  0  0  0  0
   35.1700   19.2380   33.9340 H   0  0  0  0  0  0  0  0  0  0  0  0
   34.7250   20.3610   32.1920 C   0  0  0  0  0  3  0  0  0  0  0  0
   35.0790   21.4510   31.4020 C   0  0  0  0  0  3  0  0  0  0  0  0
  1  2  1  0  0  0  0
  1  7  1  1  0  0  0
  2  9  1  0  0  0  0
  3 10  1  0  0  0  0
  3  4  1  0  0  0  0
  3  2  1  0  0  0  0
  4  5  1  0  0  0  0
  4 13  1  0  0  0  0
  5 14  1  0  0  0  0
  6 16  1  6  0  0  0
  6  1  1  0  0  0  0
  6  5  1  0  0  0  0
  8  2  1  0  0  0  0
 11  3  1  0  0  0  0
 12  4  1  0  0  0  0
 15  5  1  0  0  0  0
 17 18  1  0  0  0  0
 17  1  1  0  0  0  0
 18 23  1  0  0  0  0
 19 24  1  0  0  0  0
 19 18  2  0  0  0  0
 20 19  1  0  0  0  0
 21 20  2  0  0  0  0
 21 22  1  0  0  0  0
 22 17  2  0  0  0  0
 25 21  1  0  0  0  0
 26 28  1  0  0  0  0
 27 26  2  0  0  0  0
 28  6  1  0  0  0  0
 28 29  1  0  0  0  0
 30 31  1  0  0  0  0
 31 32  1  0  0  0  0
 32 26  1  0  0  0  0
 32 33  2  0  0  0  0
 33 34  1  0  0  0  0
 35 33  1  0  0  0  0
 35 36  1  0  0  0  0
 37 35  2  0  0  0  0
 38 31  2  0  0  0  0
 38 37  1  0  0  0  0
M  END
>  <minimizedAffinity>
-5.43212271

$$$$

 OpenBabel03272509323D

 38 40  0  0  1  0  0  0  0  0999 V2000
   39.3160   25.3460   34.7910 C   0  0  2  0  0  0  0  0  0  0  0  0
   39.5060   26.7260   35.3440 C   0  0  0  0  0  0  0  0  0  0  0  0
   38.1960   27.4340   35.6270 C   0  0  0  0  0  0  0  0  0  0  0  0
   37.3470   27.5100   34.3620 C   0  0  0  0  0  0  0  0  0  0  0  0
   37.4340   26.2700   33.4990 C   0  0  0  0  0  0  0  0  0  0  0  0
   37.9060   25.0970   34.3740 C   0  0  1  0  0  0  0  0  0  0  0  0
   39.9390   25.1360   33.8720 H   0  0  0  0  0  0  0  0  0  0  0  0
   40.2280   26.8500   36.1290 H   0  0  0  0  0  0  0  0  0  0  0  0
   39.9300   27.3200   34.4650 H   0  0  0  0  0  0  0  0  0  0  0  0
   38.4570   28.4790   35.8870 H   0  0  0  0  0  0  0  0  0  0  0  0
   37.5780   26.9270   36.3890 H   0  0  0  0  0  0  0  0  0  0  0  0
   36.2680   27.6420   34.6380 H   0  0  0  0  0  0  0  0  0  0  0  0
   37.6260   28.3910   33.7620 H   0  0  0  0  0  0  0  0  0  0  0  0
   38.1390   26.4310   32.6810 H   0  0  0  0  0  0  0  0  0  0  0  0
   36.4450   25.9880   33.0590 H   0  0  0  0  0  0  0  0  0  0  0  0
   37.2380   25.1810   35.1950 H   0  0  0  0  0  0  0  0  0  0  0  0
   39.7120   24.3120   35.7840 C   0  0  0  0  0  0  0  0  0  0  0  0
   40.9880   23.7600   35.6110 C   0  0  0  0  0  0  0  0  0  0  0  0
   41.3800   22.7860   36.5370 C   0  0  0  0  0  0  0  0  0  0  0  0
   40.5140   22.4350   37.5420 N   0  0  0  0  0  0  0  0  0  0  0  0
   39.2720   23.0090   37.6660 C   0  0  0  0  0  0  0  0  0  0  0  0
   38.8930   23.9430   36.7780 N   0  0  0  0  0  0  0  0  0  0  0  0
   41.7510   23.9490   34.8850 H   0  0  0  0  0  0  0  0  0  0  0  0
   42.3260   22.2750   36.5300 H   0  0  0  0  0  0  0  0  0  0  0  0
   38.6000   22.7240   38.4630 H   0  0  0  0  0  0  0  0  0  0  0  0
   38.1260   23.2940   32.6080 C   0  0  0  0  0  0  0  0  0  0  0  0
   38.9230   23.7650   31.7450 O   0  0  0  0  0  0  0  0  0  0  0  0
   37.6470   23.8110   33.8410 N   0  0  0  0  0  0  0  0  0  0  0  0
   37.0520   23.0600   34.3110 H   0  0  0  0  0  0  0  0  0  0  0  0
   35.5240   23.2620   31.1700 Cl  0  0  0  0  0  0  0  0  0  0  0  0
   36.5550   21.8360   31.3450 C   0  0  0  0  0  0  0  0  0  0  0  0
   37.7500   21.9800   32.0380 C   0  0  0  0  0  0  0  0  0  0  0  0
   38.5930   20.8860   32.2000 C   0  0  0  0  0  0  0  0  0  0  0  0
   39.5120   21.0010   32.7350 H   0  0  0  0  0  0  0  0  0  0  0  0
   38.2410   19.6470   31.6690 C   0  0  0  0  0  0  0  0  0  0  0  0
   38.8630   18.7670   31.7680 H   0  0  0  0  0  0  0  0  0  0  0  0
   37.0400   19.4960   30.9690 C   0  0  0  0  0  3  0  0  0  0  0  0
   36.2090   20.6020   30.8170 C   0  0  0  0  0  3  0  0  0  0  0  0
  1  7  1  6  0  0  0
  1  2  1  0  0  0  0
  1 17  1  0  0  0  0
  2  3  1  0  0  0  0
  2  8  1  0  0  0  0
  3 10  1  0  0  0  0
  3 11  1  0  0  0  0
  4 12  1  0  0  0  0
  4  3  1  0  0  0  0
  5  4  1  0  0  0  0
  5  6  1  0  0  0  0
  6  1  1  0  0  0  0
  6 16  1  1  0  0  0
  9  2  1  0  0  0  0
 13  4  1  0  0  0  0
 14  5  1  0  0  0  0
 15  5  1  0  0  0  0
 17 22  1  0  0  0  0
 18 17  2  0  0  0  0
 18 19  1  0  0  0  0
 19 20  2  0  0  0  0
 20 21  1  0  0  0  0
 21 25  1  0  0  0  0
 22 21  2  0  0  0  0
 23 18  1  0  0  0  0
 24 19  1  0  0  0  0
 26 28  1  0  0  0  0
 27 26  2  0  0  0  0
 28 29  1  0  0  0  0
 28  6  1  0  0  0  0
 30 31  1  0  0  0  0
 31 32  1  0  0  0  0
 32 33  2  0  0  0  0
 32 26  1  0  0  0  0
 33 34  1  0  0  0  0
 35 36  1  0  0  0  0
 35 33  1  0  0  0  0
 37 35  2  0  0  0  0
 38 37  1  0  0  0  0
 38 31  2  0  0  0  0
M  END
>  <minimizedAffinity>
-5.39652061

$$$$

 OpenBabel03272509323D

 38 40  0  0  1  0  0  0  0  0999 V2000
   36.5620   26.5840   31.8430 C   0  0  2  0  0  0  0  0  0  0  0  0
   36.2950   27.6940   30.8710 C   0  0  0  0  0  0  0  0  0  0  0  0
   36.8180   29.0330   31.3460 C   0  0  0  0  0  0  0  0  0  0  0  0
   36.2130   29.3920   32.6990 C   0  0  0  0  0  0  0  0  0  0  0  0
   36.0510   28.2060   33.6250 C   0  0  0  0  0  0  0  0  0  0  0  0
   37.0120   27.0960   33.1690 C   0  0  1  0  0  0  0  0  0  0  0  0
   35.6560   25.9460   32.0640 H   0  0  0  0  0  0  0  0  0  0  0  0
   36.5040   27.5040   29.8350 H   0  0  0  0  0  0  0  0  0  0  0  0
   35.1620   27.8330   30.9160 H   0  0  0  0  0  0  0  0  0  0  0  0
   36.4390   29.7880   30.6290 H   0  0  0  0  0  0  0  0  0  0  0  0
   37.9140   29.0560   31.4770 H   0  0  0  0  0  0  0  0  0  0  0  0
   36.8740   30.1300   33.2260 H   0  0  0  0  0  0  0  0  0  0  0  0
   35.2370   29.8870   32.5670 H   0  0  0  0  0  0  0  0  0  0  0  0
   35.0220   27.8420   33.5910 H   0  0  0  0  0  0  0  0  0  0  0  0
   36.3010   28.4570   34.6860 H   0  0  0  0  0  0  0  0  0  0  0  0
   37.9200   27.6420   33.0860 H   0  0  0  0  0  0  0  0  0  0  0  0
   37.5890   25.6460   31.3160 C   0  0  0  0  0  0  0  0  0  0  0  0
   37.1120   24.4030   30.8840 C   0  0  0  0  0  0  0  0  0  0  0  0
   38.0640   23.5060   30.3830 C   0  0  0  0  0  0  0  0  0  0  0  0
   39.3820   23.8870   30.3420 N   0  0  0  0  0  0  0  0  0  0  0  0
   39.7960   25.1220   30.7800 C   0  0  0  0  0  0  0  0  0  0  0  0
   38.8850   25.9830   31.2620 N   0  0  0  0  0  0  0  0  0  0  0  0
   36.1250   23.9910   30.8560 H   0  0  0  0  0  0  0  0  0  0  0  0
   37.8470   22.5180   30.0170 H   0  0  0  0  0  0  0  0  0  0  0  0
   40.8370   25.4090   30.7410 H   0  0  0  0  0  0  0  0  0  0  0  0
   38.1970   26.2140   35.2280 C   0  0  0  0  0  0  0  0  0  0  0  0
   38.9010   27.1780   35.6490 O   0  0  0  0  0  0  0  0  0  0  0  0
   37.2870   26.1050   34.1420 N   0  0  0  0  0  0  0  0  0  0  0  0
   36.8340   25.1380   34.1800 H   0  0  0  0  0  0  0  0  0  0  0  0
   40.2870   24.3380   34.2510 Cl  0  0  0  0  0  0  0  0  0  0  0  0
   39.4910   24.1740   35.8220 C   0  0  0  0  0  0  0  0  0  0  0  0
   38.5310   25.1170   36.1660 C   0  0  0  0  0  0  0  0  0  0  0  0
   37.8800   25.0280   37.3900 C   0  0  0  0  0  0  0  0  0  0  0  0
   37.1410   25.7570   37.6510 H   0  0  0  0  0  0  0  0  0  0  0  0
   38.1880   23.9960   38.2740 C   0  0  0  0  0  0  0  0  0  0  0  0
   37.7100   23.8850   39.2380 H   0  0  0  0  0  0  0  0  0  0  0  0
   39.1550   23.0440   37.9350 C   0  0  0  0  0  3  0  0  0  0  0  0
   39.7960   23.1490   36.7040 C   0  0  0  0  0  3  0  0  0  0  0  0
  1  7  1  1  0  0  0
  1  6  1  0  0  0  0
  2  9  1  0  0  0  0
  2  3  1  0  0  0  0
  2  1  1  0  0  0  0
  3 11  1  0  0  0  0
  3  4  1  0  0  0  0
  4 12  1  0  0  0  0
  4  5  1  0  0  0  0
  5 15  1  0  0  0  0
  6 16  1  6  0  0  0
  6  5  1  0  0  0  0
  6 28  1  0  0  0  0
  8  2  1  0  0  0  0
 10  3  1  0  0  0  0
 13  4  1  0  0  0  0
 14  5  1  0  0  0  0
 17  1  1  0  0  0  0
 18 17  2  0  0  0  0
 19 18  1  0  0  0  0
 20 19  2  0  0  0  0
 20 21  1  0  0  0  0
 21 22  2  0  0  0  0
 22 17  1  0  0  0  0
 23 18  1  0  0  0  0
 24 19  1  0  0  0  0
 25 21  1  0  0  0  0
 26 27  2  0  0  0  0
 26 32  1  0  0  0  0
 28 29  1  0  0  0  0
 28 26  1  0  0  0  0
 30 31  1  0  0  0  0
 31 32  2  0  0  0  0
 31 38  1  0  0  0  0
 32 33  1  0  0  0  0
 33 34  1  0  0  0  0
 33 35  2  0  0  0  0
 35 36  1  0  0  0  0
 37 35  1  0  0  0  0
 38 37  2  0  0  0  0
M  END
>  <minimizedAffinity>
-5.35236073

$$$$

 OpenBabel03272509323D

 38 40  0  0  1  0  0  0  0  0999 V2000
   36.3900   24.8130   32.2950 C   0  0  2  0  0  0  0  0  0  0  0  0
   35.9070   25.7630   31.2410 C   0  0  0  0  0  0  0  0  0  0  0  0
   36.9120   26.8500   30.9210 C   0  0  0  0  0  0  0  0  0  0  0  0
   37.2690   27.6330   32.1800 C   0  0  0  0  0  0  0  0  0  0  0  0
   37.3670   26.7740   33.4220 C   0  0  0  0  0  0  0  0  0  0  0  0
   37.6100   25.3180   32.9890 C   0  0  1  0  0  0  0  0  0  0  0  0
   35.6370   24.6250   33.1170 H   0  0  0  0  0  0  0  0  0  0  0  0
   35.4520   25.3400   30.3650 H   0  0  0  0  0  0  0  0  0  0  0  0
   35.0650   26.3390   31.7550 H   0  0  0  0  0  0  0  0  0  0  0  0
   36.3950   27.5640   30.2500 H   0  0  0  0  0  0  0  0  0  0  0  0
   37.8620   26.4640   30.5110 H   0  0  0  0  0  0  0  0  0  0  0  0
   38.2660   28.1300   32.0460 H   0  0  0  0  0  0  0  0  0  0  0  0
   36.5390   28.4410   32.3530 H   0  0  0  0  0  0  0  0  0  0  0  0
   36.4420   26.8410   33.9970 H   0  0  0  0  0  0  0  0  0  0  0  0
   38.2160   27.0770   34.0830 H   0  0  0  0  0  0  0  0  0  0  0  0
   38.4170   25.4440   32.3120 H   0  0  0  0  0  0  0  0  0  0  0  0
   36.6880   23.4760   31.7150 C   0  0  0  0  0  0  0  0  0  0  0  0
   35.6240   22.5640   31.7140 C   0  0  0  0  0  0  0  0  0  0  0  0
   35.8830   21.3000   31.1700 C   0  0  0  0  0  0  0  0  0  0  0  0
   37.1360   21.0300   30.6780 N   0  0  0  0  0  0  0  0  0  0  0  0
   38.1450   21.9630   30.7040 C   0  0  0  0  0  0  0  0  0  0  0  0
   37.8990   23.1760   31.2260 N   0  0  0  0  0  0  0  0  0  0  0  0
   34.6140   22.6510   32.0550 H   0  0  0  0  0  0  0  0  0  0  0  0
   35.1680   20.5000   31.1020 H   0  0  0  0  0  0  0  0  0  0  0  0
   39.1260   21.7380   30.3120 H   0  0  0  0  0  0  0  0  0  0  0  0
   39.3410   24.6550   34.7170 C   0  0  0  0  0  0  0  0  0  0  0  0
   40.1910   25.5930   34.7160 O   0  0  0  0  0  0  0  0  0  0  0  0
   38.1280   24.4720   34.0000 N   0  0  0  0  0  0  0  0  0  0  0  0
   37.6620   23.5790   34.3530 H   0  0  0  0  0  0  0  0  0  0  0  0
   37.8600   24.5040   37.2910 Cl  0  0  0  0  0  0  0  0  0  0  0  0
   39.2960   23.5350   36.9370 C   0  0  0  0  0  0  0  0  0  0  0  0
   39.8990   23.6950   35.6950 C   0  0  0  0  0  0  0  0  0  0  0  0
   41.0300   22.9530   35.3740 C   0  0  0  0  0  0  0  0  0  0  0  0
   41.4910   23.0790   34.4170 H   0  0  0  0  0  0  0  0  0  0  0  0
   41.5600   22.0500   36.2940 C   0  0  0  0  0  0  0  0  0  0  0  0
   42.4370   21.4510   36.0910 H   0  0  0  0  0  0  0  0  0  0  0  0
   40.9570   21.8840   37.5450 C   0  0  0  0  0  3  0  0  0  0  0  0
   39.8260   22.6360   37.8490 C   0  0  0  0  0  3  0  0  0  0  0  0
  1  6  1  0  0  0  0
  1  7  1  1  0  0  0
  2  9  1  0  0  0  0
  2  1  1  0  0  0  0
  3  2  1  0  0  0  0
  3  4  1  0  0  0  0
  4 13  1  0  0  0  0
  4  5  1  0  0  0  0
  5 14  1  0  0  0  0
  5 15  1  0  0  0  0
  6 16  1  6  0  0  0
  6  5  1  0  0  0  0
  6 28  1  0  0  0  0
  8  2  1  0  0  0  0
 10  3  1  0  0  0  0
 11  3  1  0  0  0  0
 12  4  1  0  0  0  0
 17  1  1  0  0  0  0
 18 17  1  0  0  0  0
 18 23  1  0  0  0  0
 19 18  2  0  0  0  0
 20 21  2  0  0  0  0
 20 19  1  0  0  0  0
 21 22  1  0  0  0  0
 22 17  2  0  0  0  0
 24 19  1  0  0  0  0
 25 21  1  0  0  0  0
 26 32  1  0  0  0  0
 27 26  2  0  0  0  0
 28 29  1  0  0  0  0
 28 26  1  0  0  0  0
 31 30  1  0  0  0  0
 31 38  1  0  0  0  0
 32 31  2  0  0  0  0
 33 32  1  0  0  0  0
 33 35  2  0  0  0  0
 34 33  1  0  0  0  0
 35 37  1  0  0  0  0
 36 35  1  0  0  0  0
 37 38  2  0  0  0  0
M  END
>  <minimizedAffinity>
-5.32283211

$$$$

 OpenBabel03272509323D

 38 40  0  0  1  0  0  0  0  0999 V2000
   39.2190   23.7770   36.0860 C   0  0  2  0  0  0  0  0  0  0  0  0
   39.5270   23.0150   37.3400 C   0  0  0  0  0  0  0  0  0  0  0  0
   38.3720   23.0020   38.3210 C   0  0  0  0  0  0  0  0  0  0  0  0
   37.9650   24.4270   38.6830 C   0  0  0  0  0  0  0  0  0  0  0  0
   38.0350   25.3920   37.5200 C   0  0  0  0  0  0  0  0  0  0  0  0
   37.9730   24.5860   36.2120 C   0  0  1  0  0  0  0  0  0  0  0  0
   40.0240   24.5150   35.7950 H   0  0  0  0  0  0  0  0  0  0  0  0
   39.9980   22.0560   37.2330 H   0  0  0  0  0  0  0  0  0  0  0  0
   40.3040   23.6620   37.8720 H   0  0  0  0  0  0  0  0  0  0  0  0
   38.7610   22.5460   39.2530 H   0  0  0  0  0  0  0  0  0  0  0  0
   37.4670   22.5070   37.9280 H   0  0  0  0  0  0  0  0  0  0  0  0
   36.9060   24.4350   39.0520 H   0  0  0  0  0  0  0  0  0  0  0  0
   38.5860   24.8080   39.5100 H   0  0  0  0  0  0  0  0  0  0  0  0
   38.9660   25.9610   37.5610 H   0  0  0  0  0  0  0  0  0  0  0  0
   37.1810   26.1140   37.5140 H   0  0  0  0  0  0  0  0  0  0  0  0
   37.1280   23.9700   36.3990 H   0  0  0  0  0  0  0  0  0  0  0  0
   39.0810   22.8600   34.9230 C   0  0  0  0  0  0  0  0  0  0  0  0
   40.2660   22.5680   34.2360 C   0  0  0  0  0  0  0  0  0  0  0  0
   40.1580   21.7050   33.1380 C   0  0  0  0  0  0  0  0  0  0  0  0
   38.9240   21.2030   32.8050 N   0  0  0  0  0  0  0  0  0  0  0  0
   37.7920   21.5220   33.5160 C   0  0  0  0  0  0  0  0  0  0  0  0
   37.8940   22.3510   34.5680 N   0  0  0  0  0  0  0  0  0  0  0  0
   41.2760   22.8830   34.3950 H   0  0  0  0  0  0  0  0  0  0  0  0
   40.9770   21.3920   32.5170 H   0  0  0  0  0  0  0  0  0  0  0  0
   36.8270   21.1190   33.2430 H   0  0  0  0  0  0  0  0  0  0  0  0
   38.0380   26.6520   34.7470 C   0  0  0  0  0  0  0  0  0  0  0  0
   38.8550   27.4370   35.3120 O   0  0  0  0  0  0  0  0  0  0  0  0
   37.6150   25.3330   35.0640 N   0  0  0  0  0  0  0  0  0  0  0  0
   36.9730   24.9910   34.2830 H   0  0  0  0  0  0  0  0  0  0  0  0
   39.5890   26.2370   32.2450 Cl  0  0  0  0  0  0  0  0  0  0  0  0
   38.2060   27.3320   32.3610 C   0  0  0  0  0  0  0  0  0  0  0  0
   37.5610   27.4380   33.5870 C   0  0  0  0  0  0  0  0  0  0  0  0
   36.4690   28.2870   33.7240 C   0  0  0  0  0  0  0  0  0  0  0  0
   35.9760   28.3650   34.6700 H   0  0  0  0  0  0  0  0  0  0  0  0
   36.0190   29.0310   32.6350 C   0  0  0  0  0  0  0  0  0  0  0  0
   35.1740   29.7040   32.6920 H   0  0  0  0  0  0  0  0  0  0  0  0
   36.6630   28.9280   31.3980 C   0  0  0  0  0  3  0  0  0  0  0  0
   37.7550   28.0740   31.2790 C   0  0  0  0  0  3  0  0  0  0  0  0
  1  7  1  6  0  0  0
  1  6  1  0  0  0  0
  1  2  1  0  0  0  0
  2  9  1  0  0  0  0
  2  3  1  0  0  0  0
  3  4  1  0  0  0  0
  3 10  1  0  0  0  0
  4 12  1  0  0  0  0
  4 13  1  0  0  0  0
  5 14  1  0  0  0  0
  5  4  1  0  0  0  0
  6 16  1  1  0  0  0
  6  5  1  0  0  0  0
  8  2  1  0  0  0  0
 11  3  1  0  0  0  0
 15  5  1  0  0  0  0
 17  1  1  0  0  0  0
 18 23  1  0  0  0  0
 18 17  2  0  0  0  0
 19 18  1  0  0  0  0
 20 19  2  0  0  0  0
 20 21  1  0  0  0  0
 21 22  2  0  0  0  0
 22 17  1  0  0  0  0
 24 19  1  0  0  0  0
 25 21  1  0  0  0  0
 26 28  1  0  0  0  0
 26 27  2  0  0  0  0
 28  6  1  0  0  0  0
 29 28  1  0  0  0  0
 30 31  1  0  0  0  0
 31 32  1  0  0  0  0
 32 33  2  0  0  0  0
 32 26  1  0  0  0  0
 33 34  1  0  0  0  0
 35 36  1  0  0  0  0
 35 33  1  0  0  0  0
 37 35  2  0  0  0  0
 38 37  1  0  0  0  0
 38 31  2  0  0  0  0
M  END
>  <minimizedAffinity>
-5.26894188

$$$$
