
 OpenBabel03262522093D

 20 21  0  0  0  0  0  0  0  0999 V2000
   38.8450   22.9830   36.0740 C   0  0  0  0  0  0  0  0  0  0  0  0
   39.4960   22.3830   36.9280 O   0  0  0  0  0  0  0  0  0  0  0  0
   36.7770   21.6420   36.1370 C   0  0  0  0  0  0  0  0  0  0  0  0
   37.8050   22.2240   35.3740 C   0  0  0  0  0  0  0  0  0  0  0  0
   37.7820   22.0520   34.0010 C   0  0  0  0  0  0  0  0  0  0  0  0
   36.7720   21.3330   33.4460 N   0  0  0  0  0  0  0  0  0  0  0  0
   35.7880   20.7770   34.1970 C   0  0  0  0  0  0  0  0  0  0  0  0
   35.7860   20.9270   35.5200 N   0  0  0  0  0  0  0  0  0  0  0  0
   36.7200   21.7280   37.2220 H   0  0  0  0  0  0  0  0  0  0  0  0
   38.5730   22.5010   33.4140 H   0  0  0  0  0  0  0  0  0  0  0  0
   34.9820   20.2030   33.7500 H   0  0  0  0  0  0  0  0  0  0  0  0
   41.1010   23.7160   34.2050 Cl  0  0  0  0  0  0  0  0  0  0  0  0
   40.0430   24.9120   34.9160 C   0  0  0  0  0  0  0  0  0  0  0  0
   39.0700   24.3920   35.7450 C   0  0  0  0  0  0  0  0  0  0  0  0
   38.1580   25.2460   36.3770 C   0  0  0  0  0  0  0  0  0  0  0  0
   37.3610   24.9050   37.0460 H   0  0  0  0  0  0  0  0  0  0  0  0
   38.2140   26.6060   36.1880 C   0  0  0  0  0  0  0  0  0  0  0  0
   37.5250   27.3020   36.6610 H   0  0  0  0  0  0  0  0  0  0  0  0
   39.1920   27.0900   35.3580 C   0  0  0  0  0  3  0  0  0  0  0  0
   40.1040   26.2750   34.7220 C   0  0  0  0  0  3  0  0  0  0  0  0
  1  2  2  0  0  0  0
  3  9  1  0  0  0  0
  4  1  1  0  0  0  0
  4  3  2  0  0  0  0
  5  4  1  0  0  0  0
  6  5  2  0  0  0  0
  6  7  1  0  0  0  0
  7  8  2  0  0  0  0
  8  3  1  0  0  0  0
 10  5  1  0  0  0  0
 11  7  1  0  0  0  0
 12 13  1  0  0  0  0
 13 14  1  0  0  0  0
 14  1  1  0  0  0  0
 14 15  2  0  0  0  0
 15 16  1  0  0  0  0
 17 15  1  0  0  0  0
 17 18  1  0  0  0  0
 19 17  2  0  0  0  0
 20 13  2  0  0  0  0
 20 19  1  0  0  0  0
M  END
>  <minimizedAffinity>
-4.33735275

$$$$

 OpenBabel03262522093D

 20 21  0  0  0  0  0  0  0  0999 V2000
   38.9020   25.0930   34.6190 C   0  0  0  0  0  0  0  0  0  0  0  0
   39.6100   26.0590   34.3390 O   0  0  0  0  0  0  0  0  0  0  0  0
   37.1570   25.6230   32.9590 C   0  0  0  0  0  0  0  0  0  0  0  0
   37.9460   24.6510   33.6000 C   0  0  0  0  0  0  0  0  0  0  0  0
   37.7810   23.3260   33.2350 C   0  0  0  0  0  0  0  0  0  0  0  0
   36.8690   23.0180   32.2760 N   0  0  0  0  0  0  0  0  0  0  0  0
   36.1150   23.9680   31.6680 C   0  0  0  0  0  0  0  0  0  0  0  0
   36.2540   25.2510   32.0010 N   0  0  0  0  0  0  0  0  0  0  0  0
   37.2240   26.6870   33.1870 H   0  0  0  0  0  0  0  0  0  0  0  0
   38.3890   22.5780   33.7280 H   0  0  0  0  0  0  0  0  0  0  0  0
   35.3880   23.7180   30.9020 H   0  0  0  0  0  0  0  0  0  0  0  0
   41.0200   22.9760   35.0090 Cl  0  0  0  0  0  0  0  0  0  0  0  0
   39.8760   23.4040   36.2600 C   0  0  0  0  0  0  0  0  0  0  0  0
   38.9820   24.3910   35.9020 C   0  0  0  0  0  0  0  0  0  0  0  0
   38.0130   24.8250   36.8150 C   0  0  0  0  0  0  0  0  0  0  0  0
   37.2740   25.6030   36.6010 H   0  0  0  0  0  0  0  0  0  0  0  0
   37.9330   24.2810   38.0750 C   0  0  0  0  0  0  0  0  0  0  0  0
   37.1960   24.5900   38.8120 H   0  0  0  0  0  0  0  0  0  0  0  0
   38.8370   23.3010   38.3990 C   0  0  0  0  0  3  0  0  0  0  0  0
   39.8010   22.8530   37.5220 C   0  0  0  0  0  3  0  0  0  0  0  0
  1 14  1  0  0  0  0
  2  1  2  0  0  0  0
  3  9  1  0  0  0  0
  3  4  1  0  0  0  0
  4  1  1  0  0  0  0
  5  4  2  0  0  0  0
  5 10  1  0  0  0  0
  6  5  1  0  0  0  0
  7  8  1  0  0  0  0
  7  6  2  0  0  0  0
  8  3  2  0  0  0  0
 11  7  1  0  0  0  0
 12 13  1  0  0  0  0
 13 20  1  0  0  0  0
 14 13  2  0  0  0  0
 14 15  1  0  0  0  0
 15 17  2  0  0  0  0
 16 15  1  0  0  0  0
 17 19  1  0  0  0  0
 17 18  1  0  0  0  0
 20 19  2  0  0  0  0
M  END
>  <minimizedAffinity>
-4.3253417

$$$$

 OpenBabel03262522093D

 20 21  0  0  0  0  0  0  0  0999 V2000
   35.6260   30.0150   33.4060 C   0  0  0  0  0  0  0  0  0  0  0  0
   35.8000   30.6700   32.3790 O   0  0  0  0  0  0  0  0  0  0  0  0
   36.6210   28.1210   34.6310 C   0  0  0  0  0  0  0  0  0  0  0  0
   36.1410   28.6430   33.4160 C   0  0  0  0  0  0  0  0  0  0  0  0
   36.1770   27.8350   32.2940 C   0  0  0  0  0  0  0  0  0  0  0  0
   36.6720   26.5750   32.4080 N   0  0  0  0  0  0  0  0  0  0  0  0
   37.1330   26.0870   33.5870 C   0  0  0  0  0  0  0  0  0  0  0  0
   37.1090   26.8430   34.6830 N   0  0  0  0  0  0  0  0  0  0  0  0
   36.6300   28.6900   35.5610 H   0  0  0  0  0  0  0  0  0  0  0  0
   35.8060   28.2380   31.3590 H   0  0  0  0  0  0  0  0  0  0  0  0
   37.5270   25.0780   33.6740 H   0  0  0  0  0  0  0  0  0  0  0  0
   32.7220   29.3210   33.8600 Cl  0  0  0  0  0  0  0  0  0  0  0  0
   33.6270   30.3410   34.9540 C   0  0  0  0  0  0  0  0  0  0  0  0
   34.9400   30.5490   34.5850 C   0  0  0  0  0  0  0  0  0  0  0  0
   35.7730   31.3480   35.3770 C   0  0  0  0  0  0  0  0  0  0  0  0
   36.8230   31.5560   35.1480 H   0  0  0  0  0  0  0  0  0  0  0  0
   35.3040   31.9370   36.5270 C   0  0  0  0  0  0  0  0  0  0  0  0
   35.9190   32.5640   37.1690 H   0  0  0  0  0  0  0  0  0  0  0  0
   33.9950   31.7100   36.8660 C   0  0  0  0  0  3  0  0  0  0  0  0
   33.1510   30.9290   36.1060 C   0  0  0  0  0  3  0  0  0  0  0  0
  1  4  1  0  0  0  0
  1 14  1  0  0  0  0
  2  1  2  0  0  0  0
  3  8  1  0  0  0  0
  3  9  1  0  0  0  0
  4  3  2  0  0  0  0
  5  6  2  0  0  0  0
  5  4  1  0  0  0  0
  6  7  1  0  0  0  0
  7 11  1  0  0  0  0
  7  8  2  0  0  0  0
 10  5  1  0  0  0  0
 12 13  1  0  0  0  0
 13 20  1  0  0  0  0
 14 13  2  0  0  0  0
 14 15  1  0  0  0  0
 15 17  2  0  0  0  0
 16 15  1  0  0  0  0
 17 19  1  0  0  0  0
 17 18  1  0  0  0  0
 20 19  2  0  0  0  0
M  END
>  <minimizedAffinity>
-4.23534441

$$$$

 OpenBabel03262522093D

 20 21  0  0  0  0  0  0  0  0999 V2000
   38.6090   25.1540   33.7090 C   0  0  0  0  0  0  0  0  0  0  0  0
   39.7470   25.3420   33.2840 O   0  0  0  0  0  0  0  0  0  0  0  0
   36.9900   24.4770   31.9760 C   0  0  0  0  0  0  0  0  0  0  0  0
   37.4990   25.4870   32.8110 C   0  0  0  0  0  0  0  0  0  0  0  0
   36.9260   26.7450   32.7450 C   0  0  0  0  0  0  0  0  0  0  0  0
   35.8980   26.9530   31.8810 N   0  0  0  0  0  0  0  0  0  0  0  0
   35.4200   25.9670   31.0810 C   0  0  0  0  0  0  0  0  0  0  0  0
   35.9540   24.7480   31.1250 N   0  0  0  0  0  0  0  0  0  0  0  0
   37.3850   23.4600   31.9650 H   0  0  0  0  0  0  0  0  0  0  0  0
   37.3180   27.5220   33.3890 H   0  0  0  0  0  0  0  0  0  0  0  0
   34.5980   26.1370   30.3920 H   0  0  0  0  0  0  0  0  0  0  0  0
   38.4850   27.0530   36.0530 Cl  0  0  0  0  0  0  0  0  0  0  0  0
   38.2410   25.3310   36.2250 C   0  0  0  0  0  0  0  0  0  0  0  0
   38.3350   24.6220   35.0460 C   0  0  0  0  0  0  0  0  0  0  0  0
   38.1580   23.2320   35.0470 C   0  0  0  0  0  0  0  0  0  0  0  0
   38.2170   22.6060   34.1520 H   0  0  0  0  0  0  0  0  0  0  0  0
   37.8920   22.5540   36.2130 C   0  0  0  0  0  0  0  0  0  0  0  0
   37.7500   21.4760   36.2560 H   0  0  0  0  0  0  0  0  0  0  0  0
   37.8050   23.2890   37.3670 C   0  0  0  0  0  3  0  0  0  0  0  0
   37.9740   24.6560   37.3970 C   0  0  0  0  0  3  0  0  0  0  0  0
  1 14  1  0  0  0  0
  2  1  2  0  0  0  0
  3  4  1  0  0  0  0
  4  1  1  0  0  0  0
  5  4  2  0  0  0  0
  5 10  1  0  0  0  0
  6  5  1  0  0  0  0
  7  8  1  0  0  0  0
  7  6  2  0  0  0  0
  8  3  2  0  0  0  0
  9  3  1  0  0  0  0
 11  7  1  0  0  0  0
 12 13  1  0  0  0  0
 13 20  1  0  0  0  0
 14 15  1  0  0  0  0
 14 13  2  0  0  0  0
 15 17  2  0  0  0  0
 16 15  1  0  0  0  0
 17 18  1  0  0  0  0
 17 19  1  0  0  0  0
 19 20  2  0  0  0  0
M  END
>  <minimizedAffinity>
-4.22901154

$$$$

 OpenBabel03262522093D

 20 21  0  0  0  0  0  0  0  0999 V2000
   38.8650   26.4320   34.8750 C   0  0  0  0  0  0  0  0  0  0  0  0
   39.9440   26.8500   35.2910 O   0  0  0  0  0  0  0  0  0  0  0  0
   38.1130   24.8550   36.6150 C   0  0  0  0  0  0  0  0  0  0  0  0
   38.4760   25.0760   35.2740 C   0  0  0  0  0  0  0  0  0  0  0  0
   38.4460   24.0040   34.4000 C   0  0  0  0  0  0  0  0  0  0  0  0
   38.0680   22.7860   34.8680 N   0  0  0  0  0  0  0  0  0  0  0  0
   37.7220   22.5890   36.1650 C   0  0  0  0  0  0  0  0  0  0  0  0
   37.7430   23.6040   37.0270 N   0  0  0  0  0  0  0  0  0  0  0  0
   38.1110   25.6440   37.3680 H   0  0  0  0  0  0  0  0  0  0  0  0
   38.7250   24.1760   33.3680 H   0  0  0  0  0  0  0  0  0  0  0  0
   37.4200   21.6140   36.5350 H   0  0  0  0  0  0  0  0  0  0  0  0
   39.4070   26.5410   31.9060 Cl  0  0  0  0  0  0  0  0  0  0  0  0
   38.0720   27.3900   32.6500 C   0  0  0  0  0  0  0  0  0  0  0  0
   37.9820   27.2240   34.0160 C   0  0  0  0  0  0  0  0  0  0  0  0
   36.9550   27.8520   34.7320 C   0  0  0  0  0  0  0  0  0  0  0  0
   36.8210   27.7650   35.8150 H   0  0  0  0  0  0  0  0  0  0  0  0
   36.0260   28.6390   34.0950 C   0  0  0  0  0  0  0  0  0  0  0  0
   35.2150   29.1440   34.6150 H   0  0  0  0  0  0  0  0  0  0  0  0
   36.1450   28.7830   32.7360 C   0  0  0  0  0  3  0  0  0  0  0  0
   37.1440   28.1790   32.0040 C   0  0  0  0  0  3  0  0  0  0  0  0
  1  4  1  0  0  0  0
  1  2  2  0  0  0  0
  3  8  1  0  0  0  0
  3  9  1  0  0  0  0
  4  3  2  0  0  0  0
  5  6  2  0  0  0  0
  5  4  1  0  0  0  0
  6  7  1  0  0  0  0
  7 11  1  0  0  0  0
  7  8  2  0  0  0  0
 10  5  1  0  0  0  0
 12 13  1  0  0  0  0
 13 14  1  0  0  0  0
 14 15  2  0  0  0  0
 14  1  1  0  0  0  0
 15 16  1  0  0  0  0
 17 18  1  0  0  0  0
 17 15  1  0  0  0  0
 19 17  2  0  0  0  0
 20 13  2  0  0  0  0
 20 19  1  0  0  0  0
M  END
>  <minimizedAffinity>
-4.22623873

$$$$

 OpenBabel03262522093D

 20 21  0  0  0  0  0  0  0  0999 V2000
   37.4330   27.2170   32.9020 C   0  0  0  0  0  0  0  0  0  0  0  0
   36.7700   28.2420   33.0500 O   0  0  0  0  0  0  0  0  0  0  0  0
   35.7230   26.3150   31.3730 C   0  0  0  0  0  0  0  0  0  0  0  0
   36.7580   26.0680   32.2930 C   0  0  0  0  0  0  0  0  0  0  0  0
   37.0870   24.7550   32.5740 C   0  0  0  0  0  0  0  0  0  0  0  0
   36.4020   23.7590   31.9530 N   0  0  0  0  0  0  0  0  0  0  0  0
   35.4050   24.0140   31.0690 C   0  0  0  0  0  0  0  0  0  0  0  0
   35.0680   25.2700   30.7800 N   0  0  0  0  0  0  0  0  0  0  0  0
   35.4000   27.3190   31.0960 H   0  0  0  0  0  0  0  0  0  0  0  0
   37.8850   24.5650   33.2820 H   0  0  0  0  0  0  0  0  0  0  0  0
   34.8600   23.2150   30.5750 H   0  0  0  0  0  0  0  0  0  0  0  0
   38.0990   26.7550   35.8110 Cl  0  0  0  0  0  0  0  0  0  0  0  0
   39.3290   26.9030   34.5780 C   0  0  0  0  0  0  0  0  0  0  0  0
   38.8370   27.1120   33.3060 C   0  0  0  0  0  0  0  0  0  0  0  0
   39.7200   27.2470   32.2270 C   0  0  0  0  0  0  0  0  0  0  0  0
   39.4030   27.4130   31.1920 H   0  0  0  0  0  0  0  0  0  0  0  0
   41.0800   27.1760   32.4110 C   0  0  0  0  0  0  0  0  0  0  0  0
   41.7980   27.2760   31.6000 H   0  0  0  0  0  0  0  0  0  0  0  0
   41.5350   26.9670   33.6880 C   0  0  0  0  0  3  0  0  0  0  0  0
   40.6920   26.8310   34.7690 C   0  0  0  0  0  3  0  0  0  0  0  0
  1  2  2  0  0  0  0
  1 14  1  0  0  0  0
  3  4  1  0  0  0  0
  4  5  2  0  0  0  0
  4  1  1  0  0  0  0
  5 10  1  0  0  0  0
  6  5  1  0  0  0  0
  7  6  2  0  0  0  0
  8  7  1  0  0  0  0
  8  3  2  0  0  0  0
  9  3  1  0  0  0  0
 11  7  1  0  0  0  0
 13 20  1  0  0  0  0
 13 12  1  0  0  0  0
 14 13  2  0  0  0  0
 15 17  2  0  0  0  0
 15 14  1  0  0  0  0
 16 15  1  0  0  0  0
 17 19  1  0  0  0  0
 18 17  1  0  0  0  0
 19 20  2  0  0  0  0
M  END
>  <minimizedAffinity>
-4.22150517

$$$$

 OpenBabel03262522093D

 20 21  0  0  0  0  0  0  0  0999 V2000
   32.1100   30.5630   35.2340 C   0  0  0  0  0  0  0  0  0  0  0  0
   31.3470   31.1900   34.5020 O   0  0  0  0  0  0  0  0  0  0  0  0
   31.6560   29.1700   37.2170 C   0  0  0  0  0  0  0  0  0  0  0  0
   31.6000   29.3200   35.8200 C   0  0  0  0  0  0  0  0  0  0  0  0
   31.0640   28.2890   35.0690 C   0  0  0  0  0  0  0  0  0  0  0  0
   30.6150   27.1770   35.7080 N   0  0  0  0  0  0  0  0  0  0  0  0
   30.6780   27.0470   37.0570 C   0  0  0  0  0  0  0  0  0  0  0  0
   31.1880   28.0250   37.8030 N   0  0  0  0  0  0  0  0  0  0  0  0
   32.0630   29.9330   37.8810 H   0  0  0  0  0  0  0  0  0  0  0  0
   31.0210   28.4050   33.9930 H   0  0  0  0  0  0  0  0  0  0  0  0
   30.3170   26.1570   37.5640 H   0  0  0  0  0  0  0  0  0  0  0  0
   32.5330   32.8110   37.2050 Cl  0  0  0  0  0  0  0  0  0  0  0  0
   33.8580   32.0080   36.3960 C   0  0  0  0  0  0  0  0  0  0  0  0
   33.4750   31.0060   35.5300 C   0  0  0  0  0  0  0  0  0  0  0  0
   34.4420   30.2850   34.8190 C   0  0  0  0  0  0  0  0  0  0  0  0
   34.2120   29.4770   34.1170 H   0  0  0  0  0  0  0  0  0  0  0  0
   35.7810   30.5600   34.9670 C   0  0  0  0  0  0  0  0  0  0  0  0
   36.5620   30.0240   34.4330 H   0  0  0  0  0  0  0  0  0  0  0  0
   36.1280   31.5620   35.8360 C   0  0  0  0  0  3  0  0  0  0  0  0
   35.1990   32.2890   36.5490 C   0  0  0  0  0  3  0  0  0  0  0  0
  1 14  1  0  0  0  0
  1  4  1  0  0  0  0
  2  1  2  0  0  0  0
  3  8  1  0  0  0  0
  3  9  1  0  0  0  0
  4  3  2  0  0  0  0
  5  6  2  0  0  0  0
  5  4  1  0  0  0  0
  6  7  1  0  0  0  0
  7 11  1  0  0  0  0
  7  8  2  0  0  0  0
 10  5  1  0  0  0  0
 13 20  1  0  0  0  0
 13 12  1  0  0  0  0
 14 13  2  0  0  0  0
 15 17  2  0  0  0  0
 15 14  1  0  0  0  0
 16 15  1  0  0  0  0
 17 19  1  0  0  0  0
 18 17  1  0  0  0  0
 19 20  2  0  0  0  0
M  END
>  <minimizedAffinity>
-4.20977306

$$$$

 OpenBabel03262522093D

 20 21  0  0  0  0  0  0  0  0999 V2000
   38.3590   23.8870   36.3530 C   0  0  0  0  0  0  0  0  0  0  0  0
   37.4530   23.3260   36.9660 O   0  0  0  0  0  0  0  0  0  0  0  0
   40.6810   23.6950   35.5480 C   0  0  0  0  0  0  0  0  0  0  0  0
   39.7040   23.3210   36.4880 C   0  0  0  0  0  0  0  0  0  0  0  0
   40.0620   22.4390   37.4920 C   0  0  0  0  0  0  0  0  0  0  0  0
   41.3370   21.9730   37.5320 N   0  0  0  0  0  0  0  0  0  0  0  0
   42.2680   22.3430   36.6170 C   0  0  0  0  0  0  0  0  0  0  0  0
   41.9500   23.1900   35.6400 N   0  0  0  0  0  0  0  0  0  0  0  0
   40.4830   24.3830   34.7260 H   0  0  0  0  0  0  0  0  0  0  0  0
   39.3090   22.1520   38.2160 H   0  0  0  0  0  0  0  0  0  0  0  0
   43.2870   21.9680   36.6520 H   0  0  0  0  0  0  0  0  0  0  0  0
   37.7150   23.5200   33.4260 Cl  0  0  0  0  0  0  0  0  0  0  0  0
   37.8400   25.0970   34.1710 C   0  0  0  0  0  0  0  0  0  0  0  0
   38.1420   25.0690   35.5170 C   0  0  0  0  0  0  0  0  0  0  0  0
   38.2700   26.2660   36.2310 C   0  0  0  0  0  0  0  0  0  0  0  0
   38.5070   26.3210   37.2990 H   0  0  0  0  0  0  0  0  0  0  0  0
   38.1010   27.4820   35.6120 C   0  0  0  0  0  0  0  0  0  0  0  0
   38.1930   28.4330   36.1320 H   0  0  0  0  0  0  0  0  0  0  0  0
   37.8020   27.4740   34.2740 C   0  0  0  0  0  3  0  0  0  0  0  0
   37.6690   26.3130   33.5440 C   0  0  0  0  0  3  0  0  0  0  0  0
  1  4  1  0  0  0  0
  1  2  2  0  0  0  0
  3  8  2  0  0  0  0
  3  4  1  0  0  0  0
  4  5  2  0  0  0  0
  5  6  1  0  0  0  0
  5 10  1  0  0  0  0
  7 11  1  0  0  0  0
  7  6  2  0  0  0  0
  8  7  1  0  0  0  0
  9  3  1  0  0  0  0
 12 13  1  0  0  0  0
 13 14  1  0  0  0  0
 14 15  2  0  0  0  0
 14  1  1  0  0  0  0
 15 16  1  0  0  0  0
 17 18  1  0  0  0  0
 17 15  1  0  0  0  0
 19 17  2  0  0  0  0
 20 13  2  0  0  0  0
 20 19  1  0  0  0  0
M  END
>  <minimizedAffinity>
-4.20690346

$$$$

 OpenBabel03262522093D

 20 21  0  0  0  0  0  0  0  0999 V2000
   38.9760   22.8670   35.7100 C   0  0  0  0  0  0  0  0  0  0  0  0
   39.9510   22.3240   36.2240 O   0  0  0  0  0  0  0  0  0  0  0  0
   40.0560   24.9760   35.0280 C   0  0  0  0  0  0  0  0  0  0  0  0
   38.9780   24.3320   35.6610 C   0  0  0  0  0  0  0  0  0  0  0  0
   37.9730   25.1130   36.2030 C   0  0  0  0  0  0  0  0  0  0  0  0
   38.0660   26.4650   36.1030 N   0  0  0  0  0  0  0  0  0  0  0  0
   39.1140   27.0700   35.4900 C   0  0  0  0  0  0  0  0  0  0  0  0
   40.0950   26.3420   34.9600 N   0  0  0  0  0  0  0  0  0  0  0  0
   40.8890   24.4360   34.5770 H   0  0  0  0  0  0  0  0  0  0  0  0
   37.1420   24.6160   36.6890 H   0  0  0  0  0  0  0  0  0  0  0  0
   39.1840   28.1510   35.4120 H   0  0  0  0  0  0  0  0  0  0  0  0
   38.8070   22.4330   32.7260 Cl  0  0  0  0  0  0  0  0  0  0  0  0
   37.6010   21.8220   33.8350 C   0  0  0  0  0  0  0  0  0  0  0  0
   37.8440   22.1180   35.1600 C   0  0  0  0  0  0  0  0  0  0  0  0
   36.9520   21.6850   36.1500 C   0  0  0  0  0  0  0  0  0  0  0  0
   37.0800   21.8810   37.2190 H   0  0  0  0  0  0  0  0  0  0  0  0
   35.8280   20.9640   35.8240 C   0  0  0  0  0  0  0  0  0  0  0  0
   35.1120   20.6110   36.5620 H   0  0  0  0  0  0  0  0  0  0  0  0
   35.6170   20.6870   34.4970 C   0  0  0  0  0  3  0  0  0  0  0  0
   36.4750   21.1000   33.5010 C   0  0  0  0  0  3  0  0  0  0  0  0
  1  2  2  0  0  0  0
  3  4  1  0  0  0  0
  4  1  1  0  0  0  0
  4  5  2  0  0  0  0
  5 10  1  0  0  0  0
  6  5  1  0  0  0  0
  7  6  2  0  0  0  0
  8  3  2  0  0  0  0
  8  7  1  0  0  0  0
  9  3  1  0  0  0  0
 11  7  1  0  0  0  0
 12 13  1  0  0  0  0
 13 14  1  0  0  0  0
 14  1  1  0  0  0  0
 14 15  2  0  0  0  0
 15 16  1  0  0  0  0
 17 15  1  0  0  0  0
 17 18  1  0  0  0  0
 19 17  2  0  0  0  0
 20 13  2  0  0  0  0
 20 19  1  0  0  0  0
M  END
>  <minimizedAffinity>
-4.20145559

$$$$
