
 OpenBabel03272508523D

 29 31  0  0  1  0  0  0  0  0999 V2000
   36.0980   23.1960   31.2620 C   0  0  2  0  0  0  0  0  0  0  0  0
   37.3430   23.6640   30.6640 C   0  0  0  0  0  0  0  0  0  0  0  0
   36.8500   24.1740   32.0340 C   0  0  1  0  0  0  0  0  0  0  0  0
   35.1330   23.5650   30.7630 H   0  0  0  0  0  0  0  0  0  0  0  0
   38.2640   23.0540   30.7150 H   0  0  0  0  0  0  0  0  0  0  0  0
   37.3230   24.3990   29.8420 H   0  0  0  0  0  0  0  0  0  0  0  0
   37.5130   23.9400   32.8570 H   0  0  0  0  0  0  0  0  0  0  0  0
   35.6110   20.3660   33.6000 C   0  0  0  0  0  0  0  0  0  0  0  0
   35.5830   19.2560   32.7140 C   0  0  0  0  0  0  0  0  0  0  0  0
   35.7300   19.5150   31.3080 C   0  0  0  0  0  0  0  0  0  0  0  0
   35.8880   20.7860   30.8970 N   0  0  0  0  0  0  0  0  0  0  0  0
   35.9080   21.8130   31.7900 C   0  0  0  0  0  0  0  0  0  0  0  0
   35.7740   21.6330   33.1210 N   0  0  0  0  0  0  0  0  0  0  0  0
   35.4950   20.1030   34.6320 H   0  0  0  0  0  0  0  0  0  0  0  0
   35.4530   18.2550   33.0950 H   0  0  0  0  0  0  0  0  0  0  0  0
   35.7100   18.6740   30.6250 H   0  0  0  0  0  0  0  0  0  0  0  0
   37.2760   26.5530   32.5060 C   0  0  0  0  0  0  0  0  0  0  0  0
   38.4650   26.2630   32.7990 O   0  0  0  0  0  0  0  0  0  0  0  0
   36.3700   25.5550   31.9950 N   0  0  0  0  0  0  0  0  0  0  0  0
   35.4360   25.7780   31.6230 H   0  0  0  0  0  0  0  0  0  0  0  0
   36.8730   28.3480   30.0570 Cl  0  0  0  0  0  0  0  0  0  0  0  0
   36.4290   28.8160   31.6810 C   0  0  0  0  0  0  0  0  0  0  0  0
   36.6900   27.8810   32.6390 C   0  0  0  0  0  0  0  0  0  0  0  0
   36.3890   28.1210   33.9660 C   0  0  0  0  0  0  0  0  0  0  0  0
   36.5450   27.4590   34.8310 H   0  0  0  0  0  0  0  0  0  0  0  0
   35.8100   29.3130   34.3940 C   0  0  0  0  0  0  0  0  0  0  0  0
   35.5500   29.5590   35.4200 H   0  0  0  0  0  0  0  0  0  0  0  0
   35.5470   30.2620   33.4040 C   0  0  0  0  0  3  0  0  0  0  0  0
   35.8540   30.0050   32.0890 C   0  0  0  0  0  3  0  0  0  0  0  0
  1  4  1  6  0  0  0
  1 12  1  0  0  0  0
  1  3  1  0  0  0  0
  2  5  1  0  0  0  0
  2  1  1  0  0  0  0
  2  3  1  0  0  0  0
  3  7  1  1  0  0  0
  6  2  1  0  0  0  0
  8 14  1  0  0  0  0
  9 15  1  0  0  0  0
  9  8  2  0  0  0  0
 10  9  1  0  0  0  0
 11 10  2  0  0  0  0
 11 12  1  0  0  0  0
 12 13  2  0  0  0  0
 13  8  1  0  0  0  0
 16 10  1  0  0  0  0
 17 23  1  0  0  0  0
 17 18  2  0  0  0  0
 19  3  1  0  0  0  0
 19 17  1  0  0  0  0
 20 19  1  0  0  0  0
 21 22  1  0  0  0  0
 22 29  2  0  0  0  0
 22 23  1  0  0  0  0
 23 24  2  0  0  0  0
 24 26  1  0  0  0  0
 24 25  1  0  0  0  0
 26 27  1  0  0  0  0
 28 26  2  0  0  0  0
 29 28  1  0  0  0  0
M  END
>  <minimizedAffinity>
-4.92602205

$$$$

 OpenBabel03272508523D

 29 31  0  0  1  0  0  0  0  0999 V2000
   35.9240   27.5620   31.2410 C   0  0  2  0  0  0  0  0  0  0  0  0
   36.5610   28.6030   30.4430 C   0  0  0  0  0  0  0  0  0  0  0  0
   36.8060   28.4690   31.9600 C   0  0  1  0  0  0  0  0  0  0  0  0
   34.7970   27.6880   31.4210 H   0  0  0  0  0  0  0  0  0  0  0  0
   37.4480   28.3800   29.8220 H   0  0  0  0  0  0  0  0  0  0  0  0
   35.9870   29.4900   30.1240 H   0  0  0  0  0  0  0  0  0  0  0  0
   37.8340   28.2570   32.2240 H   0  0  0  0  0  0  0  0  0  0  0  0
   35.6120   23.8730   31.1840 C   0  0  0  0  0  0  0  0  0  0  0  0
   36.9540   23.4700   30.9450 C   0  0  0  0  0  0  0  0  0  0  0  0
   37.9490   24.4980   30.8020 C   0  0  0  0  0  0  0  0  0  0  0  0
   37.5690   25.7840   30.9010 N   0  0  0  0  0  0  0  0  0  0  0  0
   36.2690   26.1140   31.1320 C   0  0  0  0  0  0  0  0  0  0  0  0
   35.2910   25.1950   31.2740 N   0  0  0  0  0  0  0  0  0  0  0  0
   34.9240   23.0590   31.2800 H   0  0  0  0  0  0  0  0  0  0  0  0
   37.2070   22.4230   30.8740 H   0  0  0  0  0  0  0  0  0  0  0  0
   38.9750   24.1990   30.6190 H   0  0  0  0  0  0  0  0  0  0  0  0
   35.9050   29.2210   34.1250 C   0  0  0  0  0  0  0  0  0  0  0  0
   36.3570   28.1740   34.6560 O   0  0  0  0  0  0  0  0  0  0  0  0
   36.1690   29.5290   32.7410 N   0  0  0  0  0  0  0  0  0  0  0  0
   35.9290   30.4320   32.3080 H   0  0  0  0  0  0  0  0  0  0  0  0
   32.8690   29.3130   33.7380 Cl  0  0  0  0  0  0  0  0  0  0  0  0
   33.7430   30.4130   34.7760 C   0  0  0  0  0  0  0  0  0  0  0  0
   35.0920   30.2150   34.8140 C   0  0  0  0  0  0  0  0  0  0  0  0
   35.9050   31.0150   35.5950 C   0  0  0  0  0  0  0  0  0  0  0  0
   36.9970   30.9630   35.7170 H   0  0  0  0  0  0  0  0  0  0  0  0
   35.4000   32.0510   36.3760 C   0  0  0  0  0  0  0  0  0  0  0  0
   35.9870   32.7120   37.0080 H   0  0  0  0  0  0  0  0  0  0  0  0
   34.0180   32.2440   36.3280 C   0  0  0  0  0  3  0  0  0  0  0  0
   33.2250   31.4390   35.5450 C   0  0  0  0  0  3  0  0  0  0  0  0
  1  4  1  1  0  0  0
  1  3  1  0  0  0  0
  2  1  1  0  0  0  0
  2  3  1  0  0  0  0
  3  7  1  1  0  0  0
  3 19  1  0  0  0  0
  5  2  1  0  0  0  0
  6  2  1  0  0  0  0
  8 13  1  0  0  0  0
  8 14  1  0  0  0  0
  9  8  2  0  0  0  0
 10 11  2  0  0  0  0
 10  9  1  0  0  0  0
 11 12  1  0  0  0  0
 12  1  1  0  0  0  0
 12 13  2  0  0  0  0
 15  9  1  0  0  0  0
 16 10  1  0  0  0  0
 17 18  2  0  0  0  0
 17 23  1  0  0  0  0
 19 17  1  0  0  0  0
 20 19  1  0  0  0  0
 21 22  1  0  0  0  0
 22 23  2  0  0  0  0
 22 29  1  0  0  0  0
 23 24  1  0  0  0  0
 24 25  1  0  0  0  0
 24 26  2  0  0  0  0
 26 27  1  0  0  0  0
 28 26  1  0  0  0  0
 29 28  2  0  0  0  0
M  END
>  <minimizedAffinity>
-4.90546989

$$$$

 OpenBabel03272508523D

 29 31  0  0  1  0  0  0  0  0999 V2000
   36.0240   28.1930   33.0460 C   0  0  2  0  0  0  0  0  0  0  0  0
   35.6880   28.9560   34.2420 C   0  0  0  0  0  0  0  0  0  0  0  0
   36.9750   28.1110   34.1450 C   0  0  1  0  0  0  0  0  0  0  0  0
   35.3820   27.2620   32.8490 H   0  0  0  0  0  0  0  0  0  0  0  0
   35.8670   30.0460   34.2910 H   0  0  0  0  0  0  0  0  0  0  0  0
   34.9200   28.5840   34.9420 H   0  0  0  0  0  0  0  0  0  0  0  0
   37.8880   28.6870   34.2200 H   0  0  0  0  0  0  0  0  0  0  0  0
   37.1580   28.6100   29.5460 C   0  0  0  0  0  0  0  0  0  0  0  0
   37.1790   30.0250   29.4120 C   0  0  0  0  0  0  0  0  0  0  0  0
   36.7910   30.8130   30.5490 C   0  0  0  0  0  0  0  0  0  0  0  0
   36.4290   30.1820   31.6800 N   0  0  0  0  0  0  0  0  0  0  0  0
   36.4270   28.8230   31.7540 C   0  0  0  0  0  0  0  0  0  0  0  0
   36.7800   28.0300   30.7210 N   0  0  0  0  0  0  0  0  0  0  0  0
   37.4580   28.0840   28.6620 H   0  0  0  0  0  0  0  0  0  0  0  0
   37.4780   30.4820   28.4810 H   0  0  0  0  0  0  0  0  0  0  0  0
   36.8040   31.8930   30.4560 H   0  0  0  0  0  0  0  0  0  0  0  0
   38.1690   26.5280   35.6060 C   0  0  0  0  0  0  0  0  0  0  0  0
   39.1650   27.2980   35.5930 O   0  0  0  0  0  0  0  0  0  0  0  0
   36.9320   26.9010   34.9650 N   0  0  0  0  0  0  0  0  0  0  0  0
   36.0600   26.3620   35.0640 H   0  0  0  0  0  0  0  0  0  0  0  0
   38.4150   23.9660   33.9470 Cl  0  0  0  0  0  0  0  0  0  0  0  0
   38.2390   23.9770   35.6850 C   0  0  0  0  0  0  0  0  0  0  0  0
   38.1410   25.2180   36.2430 C   0  0  0  0  0  0  0  0  0  0  0  0
   37.9980   25.3740   37.6090 C   0  0  0  0  0  0  0  0  0  0  0  0
   37.9100   26.3080   38.1840 H   0  0  0  0  0  0  0  0  0  0  0  0
   37.9470   24.2880   38.4800 C   0  0  0  0  0  0  0  0  0  0  0  0
   37.8360   24.3460   39.5590 H   0  0  0  0  0  0  0  0  0  0  0  0
   38.0480   23.0230   37.8970 C   0  0  0  0  0  3  0  0  0  0  0  0
   38.1900   22.8890   36.5360 C   0  0  0  0  0  3  0  0  0  0  0  0
  1  4  1  6  0  0  0
  1  3  1  0  0  0  0
  1  2  1  0  0  0  0
  2  5  1  0  0  0  0
  2  6  1  0  0  0  0
  3  7  1  6  0  0  0
  3  2  1  0  0  0  0
  3 19  1  0  0  0  0
  8 13  1  0  0  0  0
  9  8  2  0  0  0  0
  9 10  1  0  0  0  0
 10 11  2  0  0  0  0
 11 12  1  0  0  0  0
 12  1  1  0  0  0  0
 13 12  2  0  0  0  0
 14  8  1  0  0  0  0
 15  9  1  0  0  0  0
 16 10  1  0  0  0  0
 17 23  1  0  0  0  0
 18 17  2  0  0  0  0
 19 20  1  0  0  0  0
 19 17  1  0  0  0  0
 21 22  1  0  0  0  0
 22 23  2  0  0  0  0
 22 29  1  0  0  0  0
 23 24  1  0  0  0  0
 24 25  1  0  0  0  0
 24 26  2  0  0  0  0
 26 27  1  0  0  0  0
 28 26  1  0  0  0  0
 29 28  2  0  0  0  0
M  END
>  <minimizedAffinity>
-4.85000324

$$$$

 OpenBabel03272508523D

 29 31  0  0  1  0  0  0  0  0999 V2000
   38.1580   23.8990   34.5490 C   0  0  2  0  0  0  0  0  0  0  0  0
   38.7000   23.0660   33.4820 C   0  0  0  0  0  0  0  0  0  0  0  0
   39.1250   24.5370   33.6690 C   0  0  1  0  0  0  0  0  0  0  0  0
   37.0610   24.2180   34.4280 H   0  0  0  0  0  0  0  0  0  0  0  0
   39.5040   22.3350   33.6840 H   0  0  0  0  0  0  0  0  0  0  0  0
   38.0970   22.8500   32.5840 H   0  0  0  0  0  0  0  0  0  0  0  0
   40.1760   24.6670   33.8920 H   0  0  0  0  0  0  0  0  0  0  0  0
   39.8450   22.7780   37.6490 C   0  0  0  0  0  0  0  0  0  0  0  0
   39.0140   23.3440   38.6540 C   0  0  0  0  0  0  0  0  0  0  0  0
   37.8780   24.1150   38.2310 C   0  0  0  0  0  0  0  0  0  0  0  0
   37.6510   24.2640   36.9140 N   0  0  0  0  0  0  0  0  0  0  0  0
   38.4790   23.6990   35.9930 C   0  0  0  0  0  0  0  0  0  0  0  0
   39.5610   22.9660   36.3280 N   0  0  0  0  0  0  0  0  0  0  0  0
   40.6720   22.2180   38.0320 H   0  0  0  0  0  0  0  0  0  0  0  0
   39.2410   23.1940   39.6990 H   0  0  0  0  0  0  0  0  0  0  0  0
   37.2390   24.5500   38.9920 H   0  0  0  0  0  0  0  0  0  0  0  0
   38.7660   26.8380   32.8680 C   0  0  0  0  0  0  0  0  0  0  0  0
   39.4840   27.2580   33.8120 O   0  0  0  0  0  0  0  0  0  0  0  0
   38.5920   25.4250   32.6370 N   0  0  0  0  0  0  0  0  0  0  0  0
   38.1230   25.0430   31.8030 H   0  0  0  0  0  0  0  0  0  0  0  0
   36.2170   28.3120   33.7090 Cl  0  0  0  0  0  0  0  0  0  0  0  0
   36.9140   28.4240   32.1110 C   0  0  0  0  0  0  0  0  0  0  0  0
   38.0500   27.6900   31.9280 C   0  0  0  0  0  0  0  0  0  0  0  0
   38.7050   27.6880   30.7110 C   0  0  0  0  0  0  0  0  0  0  0  0
   39.6220   27.1470   30.4320 H   0  0  0  0  0  0  0  0  0  0  0  0
   38.2500   28.4230   29.6200 C   0  0  0  0  0  0  0  0  0  0  0  0
   38.7200   28.4610   28.6410 H   0  0  0  0  0  0  0  0  0  0  0  0
   37.0870   29.1690   29.8180 C   0  0  0  0  0  3  0  0  0  0  0  0
   36.4490   29.1590   31.0360 C   0  0  0  0  0  3  0  0  0  0  0  0
  1  4  1  6  0  0  0
  1 12  1  0  0  0  0
  2  3  1  0  0  0  0
  2  5  1  0  0  0  0
  2  1  1  0  0  0  0
  3  7  1  1  0  0  0
  3  1  1  0  0  0  0
  6  2  1  0  0  0  0
  8 14  1  0  0  0  0
  8  9  1  0  0  0  0
  9 15  1  0  0  0  0
 10  9  2  0  0  0  0
 10 16  1  0  0  0  0
 11 10  1  0  0  0  0
 12 13  1  0  0  0  0
 12 11  2  0  0  0  0
 13  8  2  0  0  0  0
 17 18  2  0  0  0  0
 19 17  1  0  0  0  0
 19  3  1  0  0  0  0
 20 19  1  0  0  0  0
 22 21  1  0  0  0  0
 23 22  1  0  0  0  0
 23 17  1  0  0  0  0
 24 23  2  0  0  0  0
 25 24  1  0  0  0  0
 26 28  2  0  0  0  0
 26 24  1  0  0  0  0
 27 26  1  0  0  0  0
 28 29  1  0  0  0  0
 29 22  2  0  0  0  0
M  END
>  <minimizedAffinity>
-4.83594084

$$$$

 OpenBabel03272508523D

 29 31  0  0  1  0  0  0  0  0999 V2000
   37.9250   26.6530   32.7350 C   0  0  2  0  0  0  0  0  0  0  0  0
   37.8080   25.6130   31.7200 C   0  0  0  0  0  0  0  0  0  0  0  0
   37.3250   25.4010   33.1700 C   0  0  1  0  0  0  0  0  0  0  0  0
   38.9890   26.8730   33.1070 H   0  0  0  0  0  0  0  0  0  0  0  0
   36.9930   25.6360   30.9730 H   0  0  0  0  0  0  0  0  0  0  0  0
   38.6930   25.0290   31.4180 H   0  0  0  0  0  0  0  0  0  0  0  0
   36.2620   25.2190   33.2600 H   0  0  0  0  0  0  0  0  0  0  0  0
   35.6740   29.3870   33.8180 C   0  0  0  0  0  0  0  0  0  0  0  0
   35.6260   30.2030   32.6550 C   0  0  0  0  0  0  0  0  0  0  0  0
   36.3880   29.7870   31.5100 C   0  0  0  0  0  0  0  0  0  0  0  0
   37.1050   28.6520   31.5880 N   0  0  0  0  0  0  0  0  0  0  0  0
   37.1150   27.9070   32.7260 C   0  0  0  0  0  0  0  0  0  0  0  0
   36.4210   28.2460   33.8330 N   0  0  0  0  0  0  0  0  0  0  0  0
   35.0850   29.7540   34.6330 H   0  0  0  0  0  0  0  0  0  0  0  0
   35.0340   31.1060   32.6450 H   0  0  0  0  0  0  0  0  0  0  0  0
   36.3570   30.4050   30.6200 H   0  0  0  0  0  0  0  0  0  0  0  0
   38.3220   24.7870   35.3370 C   0  0  0  0  0  0  0  0  0  0  0  0
   37.6140   25.6680   35.8910 O   0  0  0  0  0  0  0  0  0  0  0  0
   38.1790   24.4910   33.9330 N   0  0  0  0  0  0  0  0  0  0  0  0
   38.6430   23.6940   33.4740 H   0  0  0  0  0  0  0  0  0  0  0  0
   37.6360   23.2090   37.8710 Cl  0  0  0  0  0  0  0  0  0  0  0  0
   39.2230   23.2210   37.1410 C   0  0  0  0  0  0  0  0  0  0  0  0
   39.3320   23.9870   36.0180 C   0  0  0  0  0  0  0  0  0  0  0  0
   40.5320   24.0860   35.3390 C   0  0  0  0  0  0  0  0  0  0  0  0
   40.7550   24.6620   34.4290 H   0  0  0  0  0  0  0  0  0  0  0  0
   41.6810   23.4190   35.7580 C   0  0  0  0  0  0  0  0  0  0  0  0
   42.6500   23.4570   35.2680 H   0  0  0  0  0  0  0  0  0  0  0  0
   41.5570   22.6380   36.9090 C   0  0  0  0  0  3  0  0  0  0  0  0
   40.3550   22.5520   37.5700 C   0  0  0  0  0  3  0  0  0  0  0  0
  1  4  1  1  0  0  0
  1  3  1  0  0  0  0
  2  1  1  0  0  0  0
  2  3  1  0  0  0  0
  3  7  1  1  0  0  0
  3 19  1  0  0  0  0
  5  2  1  0  0  0  0
  6  2  1  0  0  0  0
  8 13  1  0  0  0  0
  8 14  1  0  0  0  0
  9  8  2  0  0  0  0
 10 11  2  0  0  0  0
 10  9  1  0  0  0  0
 11 12  1  0  0  0  0
 12  1  1  0  0  0  0
 12 13  2  0  0  0  0
 15  9  1  0  0  0  0
 16 10  1  0  0  0  0
 17 18  2  0  0  0  0
 17 23  1  0  0  0  0
 19 17  1  0  0  0  0
 20 19  1  0  0  0  0
 22 29  1  0  0  0  0
 22 21  1  0  0  0  0
 23 22  2  0  0  0  0
 24 26  2  0  0  0  0
 24 23  1  0  0  0  0
 25 24  1  0  0  0  0
 26 28  1  0  0  0  0
 27 26  1  0  0  0  0
 28 29  2  0  0  0  0
M  END
>  <minimizedAffinity>
-4.83508062

$$$$

 OpenBabel03272508523D

 29 31  0  0  1  0  0  0  0  0999 V2000
   37.2840   28.0720   33.5910 C   0  0  2  0  0  0  0  0  0  0  0  0
   38.1540   27.3080   32.7050 C   0  0  0  0  0  0  0  0  0  0  0  0
   37.2090   26.6240   33.7150 C   0  0  1  0  0  0  0  0  0  0  0  0
   37.8070   28.6370   34.4430 H   0  0  0  0  0  0  0  0  0  0  0  0
   37.8800   27.1390   31.6470 H   0  0  0  0  0  0  0  0  0  0  0  0
   39.2320   27.2240   32.9210 H   0  0  0  0  0  0  0  0  0  0  0  0
   36.4520   25.9990   33.2590 H   0  0  0  0  0  0  0  0  0  0  0  0
   35.0270   30.0760   31.4450 C   0  0  0  0  0  0  0  0  0  0  0  0
   33.9070   30.2670   32.2980 C   0  0  0  0  0  0  0  0  0  0  0  0
   33.9560   29.6870   33.6120 C   0  0  0  0  0  0  0  0  0  0  0  0
   35.0510   28.9960   33.9730 N   0  0  0  0  0  0  0  0  0  0  0  0
   36.0970   28.8430   33.1160 C   0  0  0  0  0  0  0  0  0  0  0  0
   36.1090   29.3630   31.8710 N   0  0  0  0  0  0  0  0  0  0  0  0
   34.9250   30.5330   30.4820 H   0  0  0  0  0  0  0  0  0  0  0  0
   33.0510   30.8320   31.9590 H   0  0  0  0  0  0  0  0  0  0  0  0
   33.1050   29.8290   34.2690 H   0  0  0  0  0  0  0  0  0  0  0  0
   38.0460   24.5860   34.8160 C   0  0  0  0  0  0  0  0  0  0  0  0
   37.7250   23.9250   33.7940 O   0  0  0  0  0  0  0  0  0  0  0  0
   37.9150   26.0220   34.8450 N   0  0  0  0  0  0  0  0  0  0  0  0
   38.2870   26.6070   35.6070 H   0  0  0  0  0  0  0  0  0  0  0  0
   40.5330   22.8000   34.7800 Cl  0  0  0  0  0  0  0  0  0  0  0  0
   39.6550   23.2010   36.2350 C   0  0  0  0  0  0  0  0  0  0  0  0
   38.5710   24.0080   36.0460 C   0  0  0  0  0  0  0  0  0  0  0  0
   37.7850   24.4030   37.1130 C   0  0  0  0  0  0  0  0  0  0  0  0
   36.8930   25.0460   37.1010 H   0  0  0  0  0  0  0  0  0  0  0  0
   38.0530   24.0060   38.4200 C   0  0  0  0  0  0  0  0  0  0  0  0
   37.4740   24.2830   39.2970 H   0  0  0  0  0  0  0  0  0  0  0  0
   39.1640   23.1810   38.6010 C   0  0  0  0  0  3  0  0  0  0  0  0
   39.9330   22.7980   37.5280 C   0  0  0  0  0  3  0  0  0  0  0  0
  1  3  1  0  0  0  0
  1  4  1  1  0  0  0
  2  6  1  0  0  0  0
  2  1  1  0  0  0  0
  2  3  1  0  0  0  0
  3  7  1  6  0  0  0
  3 19  1  0  0  0  0
  5  2  1  0  0  0  0
  8 13  2  0  0  0  0
  8  9  1  0  0  0  0
  9 10  2  0  0  0  0
 10 11  1  0  0  0  0
 10 16  1  0  0  0  0
 12  1  1  0  0  0  0
 12 11  2  0  0  0  0
 13 12  1  0  0  0  0
 14  8  1  0  0  0  0
 15  9  1  0  0  0  0
 17 19  1  0  0  0  0
 17 23  1  0  0  0  0
 18 17  2  0  0  0  0
 19 20  1  0  0  0  0
 21 22  1  0  0  0  0
 22 29  1  0  0  0  0
 23 22  2  0  0  0  0
 23 24  1  0  0  0  0
 24 26  2  0  0  0  0
 25 24  1  0  0  0  0
 26 28  1  0  0  0  0
 26 27  1  0  0  0  0
 29 28  2  0  0  0  0
M  END
>  <minimizedAffinity>
-4.74721813

$$$$

 OpenBabel03272508523D

 29 31  0  0  1  0  0  0  0  0999 V2000
   39.1160   26.9880   32.3420 C   0  0  2  0  0  0  0  0  0  0  0  0
   39.7900   25.8290   31.7710 C   0  0  0  0  0  0  0  0  0  0  0  0
   38.6310   25.6880   32.7780 C   0  0  1  0  0  0  0  0  0  0  0  0
   39.7220   27.5950   33.1050 H   0  0  0  0  0  0  0  0  0  0  0  0
   39.5480   25.4740   30.7520 H   0  0  0  0  0  0  0  0  0  0  0  0
   40.7860   25.5270   32.1380 H   0  0  0  0  0  0  0  0  0  0  0  0
   37.7590   25.1840   32.3800 H   0  0  0  0  0  0  0  0  0  0  0  0
   36.2550   29.1340   31.3830 C   0  0  0  0  0  0  0  0  0  0  0  0
   36.6180   29.5340   30.0680 C   0  0  0  0  0  0  0  0  0  0  0  0
   37.8620   29.0500   29.5380 C   0  0  0  0  0  0  0  0  0  0  0  0
   38.6220   28.2460   30.3020 N   0  0  0  0  0  0  0  0  0  0  0  0
   38.2260   27.8930   31.5560 C   0  0  0  0  0  0  0  0  0  0  0  0
   37.0700   28.3160   32.1080 N   0  0  0  0  0  0  0  0  0  0  0  0
   35.3170   29.5300   31.7160 H   0  0  0  0  0  0  0  0  0  0  0  0
   35.9710   30.1820   29.4950 H   0  0  0  0  0  0  0  0  0  0  0  0
   38.1460   29.3500   28.5360 H   0  0  0  0  0  0  0  0  0  0  0  0
   38.4520   24.0170   34.5790 C   0  0  0  0  0  0  0  0  0  0  0  0
   37.7220   23.3170   33.8310 O   0  0  0  0  0  0  0  0  0  0  0  0
   39.0670   25.2290   34.0970 N   0  0  0  0  0  0  0  0  0  0  0  0
   39.7700   25.7570   34.6320 H   0  0  0  0  0  0  0  0  0  0  0  0
   40.8040   22.1940   35.3020 Cl  0  0  0  0  0  0  0  0  0  0  0  0
   39.7510   22.9270   36.4880 C   0  0  0  0  0  0  0  0  0  0  0  0
   38.7570   23.7040   35.9690 C   0  0  0  0  0  0  0  0  0  0  0  0
   37.8510   24.3430   36.7950 C   0  0  0  0  0  0  0  0  0  0  0  0
   37.0110   24.9940   36.5110 H   0  0  0  0  0  0  0  0  0  0  0  0
   37.9020   24.2320   38.1820 C   0  0  0  0  0  0  0  0  0  0  0  0
   37.2210   24.7090   38.8810 H   0  0  0  0  0  0  0  0  0  0  0  0
   38.9230   23.4330   38.7010 C   0  0  0  0  0  3  0  0  0  0  0  0
   39.8140   22.8050   37.8630 C   0  0  0  0  0  3  0  0  0  0  0  0
  1  3  1  0  0  0  0
  1  4  1  1  0  0  0
  2  6  1  0  0  0  0
  2  1  1  0  0  0  0
  2  3  1  0  0  0  0
  3  7  1  6  0  0  0
  3 19  1  0  0  0  0
  5  2  1  0  0  0  0
  8 14  1  0  0  0  0
  8 13  1  0  0  0  0
  9  8  2  0  0  0  0
 10  9  1  0  0  0  0
 10 11  2  0  0  0  0
 11 12  1  0  0  0  0
 12 13  2  0  0  0  0
 12  1  1  0  0  0  0
 15  9  1  0  0  0  0
 16 10  1  0  0  0  0
 17 23  1  0  0  0  0
 18 17  2  0  0  0  0
 19 17  1  0  0  0  0
 19 20  1  0  0  0  0
 21 22  1  0  0  0  0
 22 29  1  0  0  0  0
 23 22  2  0  0  0  0
 23 24  1  0  0  0  0
 24 26  2  0  0  0  0
 25 24  1  0  0  0  0
 26 28  1  0  0  0  0
 26 27  1  0  0  0  0
 29 28  2  0  0  0  0
M  END
>  <minimizedAffinity>
-4.74256611

$$$$

 OpenBabel03272508523D

 29 31  0  0  1  0  0  0  0  0999 V2000
   37.3580   27.2560   33.3450 C   0  0  2  0  0  0  0  0  0  0  0  0
   38.2090   27.0690   34.5130 C   0  0  0  0  0  0  0  0  0  0  0  0
   36.7730   27.6200   34.6270 C   0  0  1  0  0  0  0  0  0  0  0  0
   37.6470   28.1190   32.6460 H   0  0  0  0  0  0  0  0  0  0  0  0
   38.3450   26.0690   34.9640 H   0  0  0  0  0  0  0  0  0  0  0  0
   39.0190   27.7860   34.7320 H   0  0  0  0  0  0  0  0  0  0  0  0
   36.1050   26.9960   35.2050 H   0  0  0  0  0  0  0  0  0  0  0  0
   36.7530   23.8560   32.0080 C   0  0  0  0  0  0  0  0  0  0  0  0
   35.7110   24.0920   31.0710 C   0  0  0  0  0  0  0  0  0  0  0  0
   35.2320   25.4380   30.9240 C   0  0  0  0  0  0  0  0  0  0  0  0
   35.7860   26.4070   31.6720 N   0  0  0  0  0  0  0  0  0  0  0  0
   36.7830   26.1260   32.5560 C   0  0  0  0  0  0  0  0  0  0  0  0
   37.2740   24.8830   32.7390 N   0  0  0  0  0  0  0  0  0  0  0  0
   37.0620   22.8320   32.0680 H   0  0  0  0  0  0  0  0  0  0  0  0
   35.3000   23.2770   30.4940 H   0  0  0  0  0  0  0  0  0  0  0  0
   34.4370   25.6260   30.2110 H   0  0  0  0  0  0  0  0  0  0  0  0
   35.5410   29.7510   34.5320 C   0  0  0  0  0  0  0  0  0  0  0  0
   34.5440   29.1320   34.0780 O   0  0  0  0  0  0  0  0  0  0  0  0
   36.7280   29.0460   34.9500 N   0  0  0  0  0  0  0  0  0  0  0  0
   37.5090   29.5000   35.4440 H   0  0  0  0  0  0  0  0  0  0  0  0
   36.1600   31.5590   32.1400 Cl  0  0  0  0  0  0  0  0  0  0  0  0
   35.8750   32.1600   33.7550 C   0  0  0  0  0  0  0  0  0  0  0  0
   35.6190   31.1980   34.6880 C   0  0  0  0  0  0  0  0  0  0  0  0
   35.3760   31.5330   36.0060 C   0  0  0  0  0  0  0  0  0  0  0  0
   35.1570   30.8640   36.8510 H   0  0  0  0  0  0  0  0  0  0  0  0
   35.3780   32.8530   36.4500 C   0  0  0  0  0  0  0  0  0  0  0  0
   35.1950   33.1790   37.4700 H   0  0  0  0  0  0  0  0  0  0  0  0
   35.6420   33.8290   35.4870 C   0  0  0  0  0  3  0  0  0  0  0  0
   35.8820   33.4760   34.1800 C   0  0  0  0  0  3  0  0  0  0  0  0
  1  4  1  6  0  0  0
  1  2  1  0  0  0  0
  1  3  1  0  0  0  0
  2  3  1  0  0  0  0
  2  6  1  0  0  0  0
  2  5  1  0  0  0  0
  3 19  1  0  0  0  0
  3  7  1  1  0  0  0
  8 14  1  0  0  0  0
  8 13  1  0  0  0  0
  9  8  2  0  0  0  0
 10  9  1  0  0  0  0
 10 11  2  0  0  0  0
 11 12  1  0  0  0  0
 12 13  2  0  0  0  0
 12  1  1  0  0  0  0
 15  9  1  0  0  0  0
 16 10  1  0  0  0  0
 17 23  1  0  0  0  0
 17 19  1  0  0  0  0
 18 17  2  0  0  0  0
 19 20  1  0  0  0  0
 21 22  1  0  0  0  0
 22 29  2  0  0  0  0
 22 23  1  0  0  0  0
 23 24  2  0  0  0  0
 24 26  1  0  0  0  0
 24 25  1  0  0  0  0
 26 27  1  0  0  0  0
 28 26  2  0  0  0  0
 29 28  1  0  0  0  0
M  END
>  <minimizedAffinity>
-4.74037457

$$$$

 OpenBabel03272508523D

 29 31  0  0  1  0  0  0  0  0999 V2000
   38.8730   26.1910   35.2650 C   0  0  2  0  0  0  0  0  0  0  0  0
   38.3750   27.1320   36.2600 C   0  0  0  0  0  0  0  0  0  0  0  0
   37.5030   26.6470   35.0840 C   0  0  1  0  0  0  0  0  0  0  0  0
   39.6540   26.6040   34.5320 H   0  0  0  0  0  0  0  0  0  0  0  0
   38.0300   26.7830   37.2510 H   0  0  0  0  0  0  0  0  0  0  0  0
   38.6810   28.1920   36.2270 H   0  0  0  0  0  0  0  0  0  0  0  0
   36.6200   26.0980   35.3860 H   0  0  0  0  0  0  0  0  0  0  0  0
   38.3950   22.6490   36.2310 C   0  0  0  0  0  0  0  0  0  0  0  0
   39.7110   22.1300   36.0990 C   0  0  0  0  0  0  0  0  0  0  0  0
   40.7470   23.0280   35.6690 C   0  0  0  0  0  0  0  0  0  0  0  0
   40.4280   24.3090   35.4130 N   0  0  0  0  0  0  0  0  0  0  0  0
   39.1500   24.7540   35.5560 C   0  0  0  0  0  0  0  0  0  0  0  0
   38.1350   23.9590   35.9560 N   0  0  0  0  0  0  0  0  0  0  0  0
   37.6720   21.9280   36.5550 H   0  0  0  0  0  0  0  0  0  0  0  0
   39.9150   21.0930   36.3170 H   0  0  0  0  0  0  0  0  0  0  0  0
   41.7540   22.6400   35.5650 H   0  0  0  0  0  0  0  0  0  0  0  0
   36.8870   27.2060   32.7660 C   0  0  0  0  0  0  0  0  0  0  0  0
   36.5920   25.9980   32.5730 O   0  0  0  0  0  0  0  0  0  0  0  0
   37.2780   27.6780   34.0710 N   0  0  0  0  0  0  0  0  0  0  0  0
   37.4000   28.6750   34.2970 H   0  0  0  0  0  0  0  0  0  0  0  0
   34.5770   29.2080   32.5820 Cl  0  0  0  0  0  0  0  0  0  0  0  0
   35.9460   29.2110   31.4960 C   0  0  0  0  0  0  0  0  0  0  0  0
   36.8710   28.2370   31.7370 C   0  0  0  0  0  0  0  0  0  0  0  0
   38.0030   28.1250   30.9530 C   0  0  0  0  0  0  0  0  0  0  0  0
   38.8210   27.3940   31.0380 H   0  0  0  0  0  0  0  0  0  0  0  0
   38.2610   28.9860   29.8900 C   0  0  0  0  0  0  0  0  0  0  0  0
   39.1310   28.9480   29.2400 H   0  0  0  0  0  0  0  0  0  0  0  0
   37.3080   29.9780   29.6530 C   0  0  0  0  0  3  0  0  0  0  0  0
   36.1860   30.0740   30.4430 C   0  0  0  0  0  3  0  0  0  0  0  0
  1  4  1  6  0  0  0
  1 12  1  0  0  0  0
  1  2  1  0  0  0  0
  2  5  1  0  0  0  0
  3  1  1  0  0  0  0
  3  7  1  1  0  0  0
  3  2  1  0  0  0  0
  6  2  1  0  0  0  0
  8 14  1  0  0  0  0
  9  8  1  0  0  0  0
  9 15  1  0  0  0  0
 10  9  2  0  0  0  0
 11 12  2  0  0  0  0
 11 10  1  0  0  0  0
 12 13  1  0  0  0  0
 13  8  2  0  0  0  0
 16 10  1  0  0  0  0
 17 19  1  0  0  0  0
 18 17  2  0  0  0  0
 19 20  1  0  0  0  0
 19  3  1  0  0  0  0
 22 23  1  0  0  0  0
 22 21  1  0  0  0  0
 23 17  1  0  0  0  0
 24 25  1  0  0  0  0
 24 23  2  0  0  0  0
 26 24  1  0  0  0  0
 27 26  1  0  0  0  0
 28 26  2  0  0  0  0
 28 29  1  0  0  0  0
 29 22  2  0  0  0  0
M  END
>  <minimizedAffinity>
-4.7362051

$$$$
