
 OpenBabel03272507433D

 41 44  0  0  0  0  0  0  0  0999 V2000
   37.7920   26.6600   33.1270 C   0  0  0  0  0  0  0  0  0  0  0  0
   36.6550   27.4730   33.0300 C   0  0  0  0  0  0  0  0  0  0  0  0
   35.8860   27.5300   31.8900 C   0  0  0  0  0  0  0  0  0  0  0  0
   36.2870   26.7480   30.8450 N   0  0  0  0  0  0  0  0  0  0  0  0
   37.3980   25.9550   30.9420 C   0  0  0  0  0  0  0  0  0  0  0  0
   38.1070   25.9270   32.0480 N   0  0  0  0  0  0  0  0  0  0  0  0
   35.0150   28.1220   31.7510 H   0  0  0  0  0  0  0  0  0  0  0  0
   37.7020   25.3390   30.1000 H   0  0  0  0  0  0  0  0  0  0  0  0
   35.7860   29.6470   33.7540 C   0  0  0  0  0  0  0  0  0  0  0  0
   35.8680   30.3690   32.6880 O   0  0  0  0  0  0  0  0  0  0  0  0
   36.1750   28.3080   34.0520 N   0  0  0  0  0  0  0  0  0  0  0  0
   36.0930   27.9860   35.0220 H   0  0  0  0  0  0  0  0  0  0  0  0
   32.7650   29.3330   34.0160 Cl  0  0  0  0  0  0  0  0  0  0  0  0
   33.7850   30.3510   35.0490 C   0  0  0  0  0  0  0  0  0  0  0  0
   35.1510   30.4260   34.8450 C   0  0  0  0  0  0  0  0  0  0  0  0
   35.8980   31.2490   35.6950 C   0  0  0  0  0  0  0  0  0  0  0  0
   36.9790   31.2700   35.4850 H   0  0  0  0  0  0  0  0  0  0  0  0
   35.3270   31.9660   36.7030 C   0  0  0  0  0  0  0  0  0  0  0  0
   35.9810   32.5780   37.3170 H   0  0  0  0  0  0  0  0  0  0  0  0
   33.9480   31.8590   36.8730 C   0  0  0  0  0  3  0  0  0  0  0  0
   33.1770   31.0570   36.0530 C   0  0  0  0  0  3  0  0  0  0  0  0
   38.4030   26.7490   34.3260 O   0  0  0  0  0  0  0  0  0  0  0  0
   39.8140   24.8760   35.1080 C   0  0  0  0  0  0  0  0  0  0  0  0
   38.6690   25.6690   35.1530 C   0  0  0  0  0  0  0  0  0  0  0  0
   37.6770   25.4170   36.0720 C   0  0  0  0  0  0  0  0  0  0  0  0
   37.8130   24.3590   36.9700 C   0  0  0  0  0  0  0  0  0  0  0  0
   38.9580   23.5670   36.9230 C   0  0  0  0  0  0  0  0  0  0  0  0
   39.9280   23.8500   35.9920 C   0  0  0  0  0  0  0  0  0  0  0  0
   36.7680   25.9960   36.1550 H   0  0  0  0  0  0  0  0  0  0  0  0
   37.0380   24.1540   37.6950 H   0  0  0  0  0  0  0  0  0  0  0  0
   39.0390   22.7470   37.6360 H   0  0  0  0  0  0  0  0  0  0  0  0
   41.1350   22.9970   35.9590 C   0  0  0  0  0  0  0  0  0  0  0  0
   42.2800   23.0840   36.7000 C   0  0  0  0  0  0  0  0  0  0  0  0
   43.1200   22.0380   36.2860 C   0  0  0  0  0  0  0  0  0  0  0  0
   42.4110   21.3910   35.3130 C   0  0  0  0  0  0  0  0  0  0  0  0
   41.2370   21.9680   35.1280 O   0  0  0  0  0  0  0  0  0  0  0  0
   42.4520   23.8550   37.4660 H   0  0  0  0  0  0  0  0  0  0  0  0
   44.0770   21.9520   36.7690 H   0  0  0  0  0  0  0  0  0  0  0  0
   42.8640   20.5330   34.8360 H   0  0  0  0  0  0  0  0  0  0  0  0
   41.5820   25.4730   33.3500 N   0  0  0  0  0  0  0  0  0  0  0  0
   40.7940   25.1980   34.1380 C   0  0  0  0  0  0  0  0  0  0  0  0
  1 22  1  0  0  0  0
  2  1  1  0  0  0  0
  2 11  1  0  0  0  0
  3  2  2  0  0  0  0
  4  5  2  0  0  0  0
  4  3  1  0  0  0  0
  5  6  1  0  0  0  0
  6  1  2  0  0  0  0
  7  3  1  0  0  0  0
  8  5  1  0  0  0  0
  9 11  1  0  0  0  0
  9 15  1  0  0  0  0
 10  9  2  0  0  0  0
 11 12  1  0  0  0  0
 13 14  1  0  0  0  0
 14 21  1  0  0  0  0
 15 14  2  0  0  0  0
 15 16  1  0  0  0  0
 16 18  2  0  0  0  0
 17 16  1  0  0  0  0
 18 20  1  0  0  0  0
 18 19  1  0  0  0  0
 21 20  2  0  0  0  0
 22 24  1  0  0  0  0
 23 24  2  0  0  0  0
 23 28  1  0  0  0  0
 24 25  1  0  0  0  0
 25 29  1  0  0  0  0
 25 26  2  0  0  0  0
 26 30  1  0  0  0  0
 27 26  1  0  0  0  0
 27 31  1  0  0  0  0
 28 27  2  0  0  0  0
 32 28  1  0  0  0  0
 32 33  2  0  0  0  0
 33 37  1  0  0  0  0
 34 33  1  0  0  0  0
 34 38  1  0  0  0  0
 35 34  2  0  0  0  0
 36 35  1  0  0  0  0
 36 32  1  0  0  0  0
 39 35  1  0  0  0  0
 40 41  3  0  0  0  0
 41 23  1  0  0  0  0
M  END
>  <minimizedAffinity>
-6.17478275

$$$$

 OpenBabel03272507433D

 41 44  0  0  0  0  0  0  0  0999 V2000
   37.0020   25.9200   33.0650 C   0  0  0  0  0  0  0  0  0  0  0  0
   36.5020   27.0760   32.4500 C   0  0  0  0  0  0  0  0  0  0  0  0
   35.8010   27.0360   31.2670 C   0  0  0  0  0  0  0  0  0  0  0  0
   35.6140   25.8030   30.7110 N   0  0  0  0  0  0  0  0  0  0  0  0
   36.1040   24.6760   31.3130 C   0  0  0  0  0  0  0  0  0  0  0  0
   36.7690   24.7540   32.4440 N   0  0  0  0  0  0  0  0  0  0  0  0
   35.3960   27.8710   30.7500 H   0  0  0  0  0  0  0  0  0  0  0  0
   35.9460   23.7030   30.8550 H   0  0  0  0  0  0  0  0  0  0  0  0
   35.4980   29.1610   33.2570 C   0  0  0  0  0  0  0  0  0  0  0  0
   34.2350   28.9700   33.0780 O   0  0  0  0  0  0  0  0  0  0  0  0
   36.6510   28.3800   32.9500 N   0  0  0  0  0  0  0  0  0  0  0  0
   37.5740   28.8000   33.1050 H   0  0  0  0  0  0  0  0  0  0  0  0
   35.8240   31.5480   31.3890 Cl  0  0  0  0  0  0  0  0  0  0  0  0
   35.8810   31.6150   33.1600 C   0  0  0  0  0  0  0  0  0  0  0  0
   35.7230   30.4690   33.9190 C   0  0  0  0  0  0  0  0  0  0  0  0
   35.7790   30.5920   35.3120 C   0  0  0  0  0  0  0  0  0  0  0  0
   35.6480   29.6470   35.8630 H   0  0  0  0  0  0  0  0  0  0  0  0
   35.9810   31.7880   35.9320 C   0  0  0  0  0  0  0  0  0  0  0  0
   36.0100   31.7930   37.0170 H   0  0  0  0  0  0  0  0  0  0  0  0
   36.1330   32.9160   35.1270 C   0  0  0  0  0  3  0  0  0  0  0  0
   36.0840   32.8350   33.7490 C   0  0  0  0  0  3  0  0  0  0  0  0
   37.6570   26.1770   34.2150 O   0  0  0  0  0  0  0  0  0  0  0  0
   39.5080   24.6990   34.9270 C   0  0  0  0  0  0  0  0  0  0  0  0
   38.9980   25.8980   34.4330 C   0  0  0  0  0  0  0  0  0  0  0  0
   39.8390   26.9380   34.1110 C   0  0  0  0  0  0  0  0  0  0  0  0
   41.2160   26.7980   34.2800 C   0  0  0  0  0  0  0  0  0  0  0  0
   41.7240   25.5980   34.7740 C   0  0  0  0  0  0  0  0  0  0  0  0
   40.8530   24.5810   35.0840 C   0  0  0  0  0  0  0  0  0  0  0  0
   39.5030   27.8910   33.7240 H   0  0  0  0  0  0  0  0  0  0  0  0
   41.8840   27.6100   34.0300 H   0  0  0  0  0  0  0  0  0  0  0  0
   42.8040   25.5140   34.8960 H   0  0  0  0  0  0  0  0  0  0  0  0
   41.4110   23.3170   35.6070 C   0  0  0  0  0  0  0  0  0  0  0  0
   41.4840   22.8680   36.8970 C   0  0  0  0  0  0  0  0  0  0  0  0
   42.1030   21.6080   36.8600 C   0  0  0  0  0  0  0  0  0  0  0  0
   42.3610   21.3880   35.5350 C   0  0  0  0  0  0  0  0  0  0  0  0
   41.9460   22.4070   34.8040 O   0  0  0  0  0  0  0  0  0  0  0  0
   41.1100   23.4360   37.7600 H   0  0  0  0  0  0  0  0  0  0  0  0
   42.2450   21.1000   37.7970 H   0  0  0  0  0  0  0  0  0  0  0  0
   42.8440   20.4620   35.2560 H   0  0  0  0  0  0  0  0  0  0  0  0
   37.8350   22.8330   35.4660 N   0  0  0  0  0  0  0  0  0  0  0  0
   38.5820   23.6720   35.2320 C   0  0  0  0  0  0  0  0  0  0  0  0
  1 22  1  0  0  0  0
  2 11  1  0  0  0  0
  2  1  1  0  0  0  0
  3  2  2  0  0  0  0
  4  3  1  0  0  0  0
  4  5  2  0  0  0  0
  5  6  1  0  0  0  0
  6  1  2  0  0  0  0
  7  3  1  0  0  0  0
  8  5  1  0  0  0  0
  9 15  1  0  0  0  0
 10  9  2  0  0  0  0
 11 12  1  0  0  0  0
 11  9  1  0  0  0  0
 13 14  1  0  0  0  0
 14 21  2  0  0  0  0
 14 15  1  0  0  0  0
 15 16  2  0  0  0  0
 16 17  1  0  0  0  0
 16 18  1  0  0  0  0
 18 19  1  0  0  0  0
 20 18  2  0  0  0  0
 21 20  1  0  0  0  0
 22 24  1  0  0  0  0
 23 28  1  0  0  0  0
 23 41  1  0  0  0  0
 24 23  2  0  0  0  0
 25 26  2  0  0  0  0
 25 24  1  0  0  0  0
 26 27  1  0  0  0  0
 27 31  1  0  0  0  0
 27 28  2  0  0  0  0
 28 32  1  0  0  0  0
 29 25  1  0  0  0  0
 30 26  1  0  0  0  0
 32 33  2  0  0  0  0
 33 37  1  0  0  0  0
 34 33  1  0  0  0  0
 34 38  1  0  0  0  0
 35 34  2  0  0  0  0
 36 35  1  0  0  0  0
 36 32  1  0  0  0  0
 39 35  1  0  0  0  0
 41 40  3  0  0  0  0
M  END
>  <minimizedAffinity>
-6.14336252

$$$$

 OpenBabel03272507433D

 41 44  0  0  0  0  0  0  0  0999 V2000
   35.9050   28.8780   32.5400 C   0  0  0  0  0  0  0  0  0  0  0  0
   36.5500   27.7200   32.0870 C   0  0  0  0  0  0  0  0  0  0  0  0
   37.0440   27.6050   30.8080 C   0  0  0  0  0  0  0  0  0  0  0  0
   36.8730   28.6840   29.9900 N   0  0  0  0  0  0  0  0  0  0  0  0
   36.2410   29.8130   30.4340 C   0  0  0  0  0  0  0  0  0  0  0  0
   35.7830   29.8860   31.6640 N   0  0  0  0  0  0  0  0  0  0  0  0
   37.5430   26.7580   30.4030 H   0  0  0  0  0  0  0  0  0  0  0  0
   36.1140   30.6620   29.7680 H   0  0  0  0  0  0  0  0  0  0  0  0
   38.0630   26.2940   33.3850 C   0  0  0  0  0  0  0  0  0  0  0  0
   39.2120   26.8590   33.2260 O   0  0  0  0  0  0  0  0  0  0  0  0
   36.7660   26.5660   32.8600 N   0  0  0  0  0  0  0  0  0  0  0  0
   36.0130   25.9010   33.0630 H   0  0  0  0  0  0  0  0  0  0  0  0
   38.3140   26.9990   36.3410 Cl  0  0  0  0  0  0  0  0  0  0  0  0
   38.3070   25.3560   35.6740 C   0  0  0  0  0  0  0  0  0  0  0  0
   38.1900   25.1430   34.3130 C   0  0  0  0  0  0  0  0  0  0  0  0
   38.1910   23.8220   33.8520 C   0  0  0  0  0  0  0  0  0  0  0  0
   38.0960   23.7140   32.7600 H   0  0  0  0  0  0  0  0  0  0  0  0
   38.3030   22.7560   34.6930 C   0  0  0  0  0  0  0  0  0  0  0  0
   38.2940   21.7640   34.2520 H   0  0  0  0  0  0  0  0  0  0  0  0
   38.4170   23.0180   36.0580 C   0  0  0  0  0  3  0  0  0  0  0  0
   38.4190   24.3090   36.5500 C   0  0  0  0  0  3  0  0  0  0  0  0
   35.4980   28.7870   33.8220 O   0  0  0  0  0  0  0  0  0  0  0  0
   33.7380   30.2780   34.7130 C   0  0  0  0  0  0  0  0  0  0  0  0
   35.0600   29.8600   34.5840 C   0  0  0  0  0  0  0  0  0  0  0  0
   36.0720   30.5200   35.2430 C   0  0  0  0  0  0  0  0  0  0  0  0
   35.7770   31.6190   36.0480 C   0  0  0  0  0  0  0  0  0  0  0  0
   34.4540   32.0370   36.1750 C   0  0  0  0  0  0  0  0  0  0  0  0
   33.4710   31.3520   35.5030 C   0  0  0  0  0  0  0  0  0  0  0  0
   37.1150   30.2420   35.1830 H   0  0  0  0  0  0  0  0  0  0  0  0
   36.5660   32.1440   36.5690 H   0  0  0  0  0  0  0  0  0  0  0  0
   34.2510   32.8990   36.8100 H   0  0  0  0  0  0  0  0  0  0  0  0
   32.0730   31.8110   35.6500 C   0  0  0  0  0  0  0  0  0  0  0  0
   31.1640   31.5250   36.6300 C   0  0  0  0  0  0  0  0  0  0  0  0
   29.9810   32.2090   36.3070 C   0  0  0  0  0  0  0  0  0  0  0  0
   30.2680   32.8640   35.1420 C   0  0  0  0  0  0  0  0  0  0  0  0
   31.5100   32.6210   34.7630 O   0  0  0  0  0  0  0  0  0  0  0  0
   31.3800   30.8720   37.4880 H   0  0  0  0  0  0  0  0  0  0  0  0
   29.1480   32.0980   36.9780 H   0  0  0  0  0  0  0  0  0  0  0  0
   29.4930   33.4700   34.6920 H   0  0  0  0  0  0  0  0  0  0  0  0
   31.9570   28.9580   33.4240 N   0  0  0  0  0  0  0  0  0  0  0  0
   32.7500   29.5480   34.0090 C   0  0  0  0  0  0  0  0  0  0  0  0
  1 22  1  0  0  0  0
  2  1  1  0  0  0  0
  2 11  1  0  0  0  0
  3  2  2  0  0  0  0
  4  5  2  0  0  0  0
  4  3  1  0  0  0  0
  5  6  1  0  0  0  0
  6  1  2  0  0  0  0
  7  3  1  0  0  0  0
  8  5  1  0  0  0  0
  9 15  1  0  0  0  0
 10  9  2  0  0  0  0
 11 12  1  0  0  0  0
 11  9  1  0  0  0  0
 14 13  1  0  0  0  0
 14 21  1  0  0  0  0
 15 14  2  0  0  0  0
 16 15  1  0  0  0  0
 16 18  2  0  0  0  0
 17 16  1  0  0  0  0
 18 20  1  0  0  0  0
 19 18  1  0  0  0  0
 20 21  2  0  0  0  0
 22 24  1  0  0  0  0
 23 28  1  0  0  0  0
 24 23  2  0  0  0  0
 24 25  1  0  0  0  0
 25 26  2  0  0  0  0
 26 27  1  0  0  0  0
 26 30  1  0  0  0  0
 27 31  1  0  0  0  0
 28 32  1  0  0  0  0
 28 27  2  0  0  0  0
 29 25  1  0  0  0  0
 32 33  2  0  0  0  0
 33 37  1  0  0  0  0
 34 33  1  0  0  0  0
 34 38  1  0  0  0  0
 35 34  2  0  0  0  0
 36 35  1  0  0  0  0
 36 32  1  0  0  0  0
 39 35  1  0  0  0  0
 40 41  3  0  0  0  0
 41 23  1  0  0  0  0
M  END
>  <minimizedAffinity>
-5.9068656

$$$$

 OpenBabel03272507433D

 41 44  0  0  0  0  0  0  0  0999 V2000
   38.0540   25.8410   33.7310 C   0  0  0  0  0  0  0  0  0  0  0  0
   38.5940   25.5400   34.9890 C   0  0  0  0  0  0  0  0  0  0  0  0
   38.4940   26.4020   36.0570 C   0  0  0  0  0  0  0  0  0  0  0  0
   37.8370   27.5780   35.8330 N   0  0  0  0  0  0  0  0  0  0  0  0
   37.3120   27.8690   34.6030 C   0  0  0  0  0  0  0  0  0  0  0  0
   37.4280   27.0200   33.6060 N   0  0  0  0  0  0  0  0  0  0  0  0
   38.8780   26.2360   37.0340 H   0  0  0  0  0  0  0  0  0  0  0  0
   36.7930   28.8100   34.4430 H   0  0  0  0  0  0  0  0  0  0  0  0
   40.7080   24.3670   35.3880 C   0  0  0  0  0  0  0  0  0  0  0  0
   41.5980   25.2620   35.1250 O   0  0  0  0  0  0  0  0  0  0  0  0
   39.2840   24.3590   35.3050 N   0  0  0  0  0  0  0  0  0  0  0  0
   38.7950   23.4750   35.4810 H   0  0  0  0  0  0  0  0  0  0  0  0
   39.5880   23.1960   37.9710 Cl  0  0  0  0  0  0  0  0  0  0  0  0
   40.9290   22.5150   37.0320 C   0  0  0  0  0  0  0  0  0  0  0  0
   41.3650   23.1270   35.8700 C   0  0  0  0  0  0  0  0  0  0  0  0
   42.4280   22.5380   35.1770 C   0  0  0  0  0  0  0  0  0  0  0  0
   42.7310   23.0690   34.2610 H   0  0  0  0  0  0  0  0  0  0  0  0
   43.0370   21.3980   35.6060 C   0  0  0  0  0  0  0  0  0  0  0  0
   43.8540   21.0080   35.0070 H   0  0  0  0  0  0  0  0  0  0  0  0
   42.5640   20.8150   36.7810 C   0  0  0  0  0  3  0  0  0  0  0  0
   41.5170   21.3670   37.4940 C   0  0  0  0  0  3  0  0  0  0  0  0
   38.2600   24.8660   32.8230 O   0  0  0  0  0  0  0  0  0  0  0  0
   37.1780   22.6770   32.4330 C   0  0  0  0  0  0  0  0  0  0  0  0
   37.2620   24.0610   32.2960 C   0  0  0  0  0  0  0  0  0  0  0  0
   36.3060   24.7550   31.5900 C   0  0  0  0  0  0  0  0  0  0  0  0
   35.2410   24.0720   31.0050 C   0  0  0  0  0  0  0  0  0  0  0  0
   35.1590   22.6870   31.1430 C   0  0  0  0  0  0  0  0  0  0  0  0
   36.1320   22.0290   31.8550 C   0  0  0  0  0  0  0  0  0  0  0  0
   36.3170   25.8270   31.4500 H   0  0  0  0  0  0  0  0  0  0  0  0
   34.4860   24.6090   30.4480 H   0  0  0  0  0  0  0  0  0  0  0  0
   34.3170   22.1790   30.6750 H   0  0  0  0  0  0  0  0  0  0  0  0
   36.0280   20.5610   31.9900 C   0  0  0  0  0  0  0  0  0  0  0  0
   35.3980   19.8200   32.9520 C   0  0  0  0  0  0  0  0  0  0  0  0
   35.5930   18.4690   32.6230 C   0  0  0  0  0  0  0  0  0  0  0  0
   36.3350   18.4950   31.4760 C   0  0  0  0  0  0  0  0  0  0  0  0
   36.5860   19.7400   31.1110 O   0  0  0  0  0  0  0  0  0  0  0  0
   34.8550   20.2600   33.8010 H   0  0  0  0  0  0  0  0  0  0  0  0
   35.1610   17.7340   33.2790 H   0  0  0  0  0  0  0  0  0  0  0  0
   36.6150   17.5530   31.0260 H   0  0  0  0  0  0  0  0  0  0  0  0
   39.0310   21.5080   33.7660 N   0  0  0  0  0  0  0  0  0  0  0  0
   38.1960   22.0320   33.1760 C   0  0  0  0  0  0  0  0  0  0  0  0
  1  2  1  0  0  0  0
  2 11  1  0  0  0  0
  2  3  2  0  0  0  0
  3  7  1  0  0  0  0
  4  3  1  0  0  0  0
  5  4  2  0  0  0  0
  6  1  2  0  0  0  0
  6  5  1  0  0  0  0
  8  5  1  0  0  0  0
  9 15  1  0  0  0  0
 10  9  2  0  0  0  0
 11  9  1  0  0  0  0
 11 12  1  0  0  0  0
 14 21  1  0  0  0  0
 14 13  1  0  0  0  0
 15 14  2  0  0  0  0
 16 18  2  0  0  0  0
 16 15  1  0  0  0  0
 17 16  1  0  0  0  0
 18 20  1  0  0  0  0
 19 18  1  0  0  0  0
 20 21  2  0  0  0  0
 22  1  1  0  0  0  0
 23 41  1  0  0  0  0
 24 23  1  0  0  0  0
 24 22  1  0  0  0  0
 25 24  2  0  0  0  0
 26 27  2  0  0  0  0
 26 25  1  0  0  0  0
 27 28  1  0  0  0  0
 28 32  1  0  0  0  0
 28 23  2  0  0  0  0
 29 25  1  0  0  0  0
 30 26  1  0  0  0  0
 31 27  1  0  0  0  0
 32 33  2  0  0  0  0
 33 37  1  0  0  0  0
 34 33  1  0  0  0  0
 34 38  1  0  0  0  0
 35 34  2  0  0  0  0
 36 35  1  0  0  0  0
 36 32  1  0  0  0  0
 39 35  1  0  0  0  0
 41 40  3  0  0  0  0
M  END
>  <minimizedAffinity>
-5.89074469

$$$$

 OpenBabel03272507433D

 41 44  0  0  0  0  0  0  0  0999 V2000
   40.1890   26.9920   32.2920 C   0  0  0  0  0  0  0  0  0  0  0  0
   40.8430   26.6980   33.4950 C   0  0  0  0  0  0  0  0  0  0  0  0
   42.1810   26.9550   33.6880 C   0  0  0  0  0  0  0  0  0  0  0  0
   42.8510   27.5150   32.6380 N   0  0  0  0  0  0  0  0  0  0  0  0
   42.2100   27.7990   31.4630 C   0  0  0  0  0  0  0  0  0  0  0  0
   40.9300   27.5400   31.3170 N   0  0  0  0  0  0  0  0  0  0  0  0
   42.7360   26.7580   34.5720 H   0  0  0  0  0  0  0  0  0  0  0  0
   42.7600   28.2440   30.6380 H   0  0  0  0  0  0  0  0  0  0  0  0
   39.9710   24.7210   34.6490 C   0  0  0  0  0  0  0  0  0  0  0  0
   40.0860   23.7870   33.7670 O   0  0  0  0  0  0  0  0  0  0  0  0
   40.2320   26.1220   34.6210 N   0  0  0  0  0  0  0  0  0  0  0  0
   39.9620   26.6800   35.4380 H   0  0  0  0  0  0  0  0  0  0  0  0
   41.9630   23.0520   36.2420 Cl  0  0  0  0  0  0  0  0  0  0  0  0
   40.2880   23.3830   36.7200 C   0  0  0  0  0  0  0  0  0  0  0  0
   39.4610   24.1530   35.9220 C   0  0  0  0  0  0  0  0  0  0  0  0
   38.1500   24.3750   36.3570 C   0  0  0  0  0  0  0  0  0  0  0  0
   37.5390   24.9940   35.6810 H   0  0  0  0  0  0  0  0  0  0  0  0
   37.6720   23.8630   37.5250 C   0  0  0  0  0  0  0  0  0  0  0  0
   36.6420   24.0850   37.7870 H   0  0  0  0  0  0  0  0  0  0  0  0
   38.5400   23.0940   38.2970 C   0  0  0  0  0  3  0  0  0  0  0  0
   39.8420   22.8520   37.9020 C   0  0  0  0  0  3  0  0  0  0  0  0
   38.8810   26.6650   32.3090 O   0  0  0  0  0  0  0  0  0  0  0  0
   37.0560   28.1550   33.0590 C   0  0  0  0  0  0  0  0  0  0  0  0
   37.8460   27.5580   32.0790 C   0  0  0  0  0  0  0  0  0  0  0  0
   37.6370   27.8330   30.7470 C   0  0  0  0  0  0  0  0  0  0  0  0
   36.6270   28.7160   30.3690 C   0  0  0  0  0  0  0  0  0  0  0  0
   35.8380   29.3120   31.3510 C   0  0  0  0  0  0  0  0  0  0  0  0
   36.0770   29.0140   32.6700 C   0  0  0  0  0  0  0  0  0  0  0  0
   38.2170   27.4020   29.9420 H   0  0  0  0  0  0  0  0  0  0  0  0
   36.4560   28.9380   29.3240 H   0  0  0  0  0  0  0  0  0  0  0  0
   35.0560   29.9980   31.0280 H   0  0  0  0  0  0  0  0  0  0  0  0
   35.2290   29.6560   33.6970 C   0  0  0  0  0  0  0  0  0  0  0  0
   35.4840   30.7520   34.4730 C   0  0  0  0  0  0  0  0  0  0  0  0
   34.3580   30.9520   35.2870 C   0  0  0  0  0  0  0  0  0  0  0  0
   33.4970   29.9490   34.9380 C   0  0  0  0  0  0  0  0  0  0  0  0
   34.0240   29.1880   33.9950 O   0  0  0  0  0  0  0  0  0  0  0  0
   36.4190   31.3280   34.4220 H   0  0  0  0  0  0  0  0  0  0  0  0
   34.3840   31.7820   35.9700 H   0  0  0  0  0  0  0  0  0  0  0  0
   32.5420   29.8970   35.4420 H   0  0  0  0  0  0  0  0  0  0  0  0
   37.5700   27.5660   35.5010 N   0  0  0  0  0  0  0  0  0  0  0  0
   37.3320   27.8270   34.4090 C   0  0  0  0  0  0  0  0  0  0  0  0
  1 22  1  0  0  0  0
  1  2  1  0  0  0  0
  2  3  2  0  0  0  0
  2 11  1  0  0  0  0
  3  7  1  0  0  0  0
  4  3  1  0  0  0  0
  5  4  2  0  0  0  0
  6  5  1  0  0  0  0
  6  1  2  0  0  0  0
  8  5  1  0  0  0  0
  9 15  1  0  0  0  0
 10  9  2  0  0  0  0
 11  9  1  0  0  0  0
 11 12  1  0  0  0  0
 13 14  1  0  0  0  0
 14 21  1  0  0  0  0
 15 16  1  0  0  0  0
 15 14  2  0  0  0  0
 16 18  2  0  0  0  0
 17 16  1  0  0  0  0
 18 19  1  0  0  0  0
 18 20  1  0  0  0  0
 21 20  2  0  0  0  0
 23 41  1  0  0  0  0
 24 22  1  0  0  0  0
 24 23  2  0  0  0  0
 25 24  1  0  0  0  0
 26 25  2  0  0  0  0
 26 27  1  0  0  0  0
 27 28  2  0  0  0  0
 28 23  1  0  0  0  0
 28 32  1  0  0  0  0
 29 25  1  0  0  0  0
 30 26  1  0  0  0  0
 31 27  1  0  0  0  0
 32 36  1  0  0  0  0
 32 33  2  0  0  0  0
 33 34  1  0  0  0  0
 34 38  1  0  0  0  0
 35 34  2  0  0  0  0
 35 39  1  0  0  0  0
 36 35  1  0  0  0  0
 37 33  1  0  0  0  0
 41 40  3  0  0  0  0
M  END
>  <minimizedAffinity>
-5.85724401

$$$$

 OpenBabel03272507433D

 41 44  0  0  0  0  0  0  0  0999 V2000
   39.0880   26.3420   31.9430 C   0  0  0  0  0  0  0  0  0  0  0  0
   40.3510   25.8180   32.2470 C   0  0  0  0  0  0  0  0  0  0  0  0
   41.4980   26.2540   31.6220 C   0  0  0  0  0  0  0  0  0  0  0  0
   41.3450   27.2310   30.6810 N   0  0  0  0  0  0  0  0  0  0  0  0
   40.1090   27.7400   30.3860 C   0  0  0  0  0  0  0  0  0  0  0  0
   39.0370   27.2980   31.0040 N   0  0  0  0  0  0  0  0  0  0  0  0
   42.4830   25.9010   31.8040 H   0  0  0  0  0  0  0  0  0  0  0  0
   40.0070   28.5170   29.6330 H   0  0  0  0  0  0  0  0  0  0  0  0
   40.7970   25.1600   34.5640 C   0  0  0  0  0  0  0  0  0  0  0  0
   40.9090   26.2900   35.1770 O   0  0  0  0  0  0  0  0  0  0  0  0
   40.5980   24.8130   33.1960 N   0  0  0  0  0  0  0  0  0  0  0  0
   40.6410   23.8220   32.9380 H   0  0  0  0  0  0  0  0  0  0  0  0
   38.2450   24.4860   36.0890 Cl  0  0  0  0  0  0  0  0  0  0  0  0
   39.8020   23.6590   36.2780 C   0  0  0  0  0  0  0  0  0  0  0  0
   40.9040   24.0450   35.5370 C   0  0  0  0  0  0  0  0  0  0  0  0
   42.1030   23.3510   35.7350 C   0  0  0  0  0  0  0  0  0  0  0  0
   42.9470   23.7030   35.1190 H   0  0  0  0  0  0  0  0  0  0  0  0
   42.2140   22.3230   36.6210 C   0  0  0  0  0  0  0  0  0  0  0  0
   43.1820   21.8390   36.7110 H   0  0  0  0  0  0  0  0  0  0  0  0
   41.0770   21.9680   37.3450 C   0  0  0  0  0  3  0  0  0  0  0  0
   39.8750   22.6290   37.1780 C   0  0  0  0  0  3  0  0  0  0  0  0
   38.0980   25.7810   32.6670 O   0  0  0  0  0  0  0  0  0  0  0  0
   36.8910   23.6890   32.1350 C   0  0  0  0  0  0  0  0  0  0  0  0
   37.0340   25.0750   32.1260 C   0  0  0  0  0  0  0  0  0  0  0  0
   36.0750   25.8750   31.5490 C   0  0  0  0  0  0  0  0  0  0  0  0
   34.9470   25.3000   30.9650 C   0  0  0  0  0  0  0  0  0  0  0  0
   34.8060   23.9130   30.9740 C   0  0  0  0  0  0  0  0  0  0  0  0
   35.7840   23.1470   31.5610 C   0  0  0  0  0  0  0  0  0  0  0  0
   36.1300   26.9550   31.5110 H   0  0  0  0  0  0  0  0  0  0  0  0
   34.1890   25.9210   30.5090 H   0  0  0  0  0  0  0  0  0  0  0  0
   33.9150   23.4890   30.5120 H   0  0  0  0  0  0  0  0  0  0  0  0
   35.6160   21.6780   31.5610 C   0  0  0  0  0  0  0  0  0  0  0  0
   34.8470   20.8920   32.3730 C   0  0  0  0  0  0  0  0  0  0  0  0
   35.0380   19.5640   31.9610 C   0  0  0  0  0  0  0  0  0  0  0  0
   35.9200   19.6480   30.9190 C   0  0  0  0  0  0  0  0  0  0  0  0
   36.2540   20.9060   30.6920 O   0  0  0  0  0  0  0  0  0  0  0  0
   34.2160   21.2870   33.1820 H   0  0  0  0  0  0  0  0  0  0  0  0
   34.5040   18.7990   32.4950 H   0  0  0  0  0  0  0  0  0  0  0  0
   36.2230   18.7320   30.4310 H   0  0  0  0  0  0  0  0  0  0  0  0
   38.7450   22.3050   33.2390 N   0  0  0  0  0  0  0  0  0  0  0  0
   37.9160   22.9310   32.7500 C   0  0  0  0  0  0  0  0  0  0  0  0
  1  2  1  0  0  0  0
  1 22  1  0  0  0  0
  2 11  1  0  0  0  0
  3  7  1  0  0  0  0
  3  2  2  0  0  0  0
  4  3  1  0  0  0  0
  5  4  2  0  0  0  0
  5  6  1  0  0  0  0
  6  1  2  0  0  0  0
  8  5  1  0  0  0  0
  9 10  2  0  0  0  0
  9 15  1  0  0  0  0
 11  9  1  0  0  0  0
 12 11  1  0  0  0  0
 13 14  1  0  0  0  0
 14 21  1  0  0  0  0
 15 16  1  0  0  0  0
 15 14  2  0  0  0  0
 16 18  2  0  0  0  0
 17 16  1  0  0  0  0
 18 19  1  0  0  0  0
 18 20  1  0  0  0  0
 21 20  2  0  0  0  0
 23 41  1  0  0  0  0
 24 23  1  0  0  0  0
 24 22  1  0  0  0  0
 25 24  2  0  0  0  0
 26 27  2  0  0  0  0
 26 25  1  0  0  0  0
 27 28  1  0  0  0  0
 28 32  1  0  0  0  0
 28 23  2  0  0  0  0
 29 25  1  0  0  0  0
 30 26  1  0  0  0  0
 31 27  1  0  0  0  0
 32 33  2  0  0  0  0
 33 37  1  0  0  0  0
 34 33  1  0  0  0  0
 34 38  1  0  0  0  0
 35 34  2  0  0  0  0
 36 35  1  0  0  0  0
 36 32  1  0  0  0  0
 39 35  1  0  0  0  0
 41 40  3  0  0  0  0
M  END
>  <minimizedAffinity>
-5.84819889

$$$$

 OpenBabel03272507433D

 41 44  0  0  0  0  0  0  0  0999 V2000
   36.0840   28.5820   31.2540 C   0  0  0  0  0  0  0  0  0  0  0  0
   35.9530   29.7680   31.9880 C   0  0  0  0  0  0  0  0  0  0  0  0
   36.4280   30.9740   31.5270 C   0  0  0  0  0  0  0  0  0  0  0  0
   37.0410   30.9620   30.3070 N   0  0  0  0  0  0  0  0  0  0  0  0
   37.1690   29.8010   29.5930 C   0  0  0  0  0  0  0  0  0  0  0  0
   36.7010   28.6680   30.0660 N   0  0  0  0  0  0  0  0  0  0  0  0
   36.3620   31.9080   32.0310 H   0  0  0  0  0  0  0  0  0  0  0  0
   37.6600   29.8110   28.6240 H   0  0  0  0  0  0  0  0  0  0  0  0
   33.9950   30.3290   33.3500 C   0  0  0  0  0  0  0  0  0  0  0  0
   33.1620   30.8070   32.4890 O   0  0  0  0  0  0  0  0  0  0  0  0
   35.3410   29.8700   33.2480 N   0  0  0  0  0  0  0  0  0  0  0  0
   35.8340   29.6230   34.1130 H   0  0  0  0  0  0  0  0  0  0  0  0
   34.7120   32.6040   35.2490 Cl  0  0  0  0  0  0  0  0  0  0  0  0
   33.6190   31.2590   35.6240 C   0  0  0  0  0  0  0  0  0  0  0  0
   33.3600   30.2720   34.6900 C   0  0  0  0  0  0  0  0  0  0  0  0
   32.4890   29.2390   35.0500 C   0  0  0  0  0  0  0  0  0  0  0  0
   32.3220   28.4820   34.2670 H   0  0  0  0  0  0  0  0  0  0  0  0
   31.8960   29.1770   36.2750 C   0  0  0  0  0  0  0  0  0  0  0  0
   31.2330   28.3410   36.4710 H   0  0  0  0  0  0  0  0  0  0  0  0
   32.1850   30.1940   37.1850 C   0  0  0  0  0  3  0  0  0  0  0  0
   33.0400   31.2310   36.8660 C   0  0  0  0  0  3  0  0  0  0  0  0
   35.5520   27.5130   31.8810 O   0  0  0  0  0  0  0  0  0  0  0  0
   37.0270   25.9620   33.1190 C   0  0  0  0  0  0  0  0  0  0  0  0
   36.2000   26.2990   32.0500 C   0  0  0  0  0  0  0  0  0  0  0  0
   35.9600   25.3990   31.0380 C   0  0  0  0  0  0  0  0  0  0  0  0
   36.5480   24.1350   31.0770 C   0  0  0  0  0  0  0  0  0  0  0  0
   37.3760   23.8000   32.1470 C   0  0  0  0  0  0  0  0  0  0  0  0
   37.5910   24.7250   33.1390 C   0  0  0  0  0  0  0  0  0  0  0  0
   35.3290   25.6010   30.1840 H   0  0  0  0  0  0  0  0  0  0  0  0
   36.3650   23.4210   30.2860 H   0  0  0  0  0  0  0  0  0  0  0  0
   37.8220   22.8060   32.1530 H   0  0  0  0  0  0  0  0  0  0  0  0
   38.4720   24.3510   34.2660 C   0  0  0  0  0  0  0  0  0  0  0  0
   39.8330   24.4250   34.3650 C   0  0  0  0  0  0  0  0  0  0  0  0
   40.1800   23.9490   35.6390 C   0  0  0  0  0  0  0  0  0  0  0  0
   38.9880   23.6190   36.2210 C   0  0  0  0  0  0  0  0  0  0  0  0
   37.9830   23.8620   35.3980 O   0  0  0  0  0  0  0  0  0  0  0  0
   40.4820   24.7970   33.5600 H   0  0  0  0  0  0  0  0  0  0  0  0
   41.2240   23.9340   35.8940 H   0  0  0  0  0  0  0  0  0  0  0  0
   39.0020   23.2210   37.2270 H   0  0  0  0  0  0  0  0  0  0  0  0
   37.3700   27.7370   34.9370 N   0  0  0  0  0  0  0  0  0  0  0  0
   37.2240   26.9390   34.1250 C   0  0  0  0  0  0  0  0  0  0  0  0
  1 22  1  0  0  0  0
  1  2  1  0  0  0  0
  2 11  1  0  0  0  0
  3  2  2  0  0  0  0
  3  7  1  0  0  0  0
  4  3  1  0  0  0  0
  5  6  1  0  0  0  0
  5  4  2  0  0  0  0
  6  1  2  0  0  0  0
  8  5  1  0  0  0  0
  9 15  1  0  0  0  0
 10  9  2  0  0  0  0
 11  9  1  0  0  0  0
 11 12  1  0  0  0  0
 13 14  1  0  0  0  0
 14 21  1  0  0  0  0
 15 16  1  0  0  0  0
 15 14  2  0  0  0  0
 16 18  2  0  0  0  0
 17 16  1  0  0  0  0
 18 19  1  0  0  0  0
 18 20  1  0  0  0  0
 21 20  2  0  0  0  0
 22 24  1  0  0  0  0
 23 28  1  0  0  0  0
 23 41  1  0  0  0  0
 24 23  2  0  0  0  0
 25 26  2  0  0  0  0
 25 24  1  0  0  0  0
 26 27  1  0  0  0  0
 27 31  1  0  0  0  0
 27 28  2  0  0  0  0
 28 32  1  0  0  0  0
 29 25  1  0  0  0  0
 30 26  1  0  0  0  0
 32 33  2  0  0  0  0
 32 36  1  0  0  0  0
 33 34  1  0  0  0  0
 34 38  1  0  0  0  0
 34 35  2  0  0  0  0
 35 39  1  0  0  0  0
 36 35  1  0  0  0  0
 37 33  1  0  0  0  0
 41 40  3  0  0  0  0
M  END
>  <minimizedAffinity>
-5.73860407

$$$$

 OpenBabel03272507433D

 41 44  0  0  0  0  0  0  0  0999 V2000
   36.2290   28.9010   31.4440 C   0  0  0  0  0  0  0  0  0  0  0  0
   36.0850   30.1640   32.0330 C   0  0  0  0  0  0  0  0  0  0  0  0
   36.4440   31.3240   31.3840 C   0  0  0  0  0  0  0  0  0  0  0  0
   36.9540   31.1850   30.1260 N   0  0  0  0  0  0  0  0  0  0  0  0
   37.0950   29.9500   29.5540 C   0  0  0  0  0  0  0  0  0  0  0  0
   36.7400   28.8650   30.2040 N   0  0  0  0  0  0  0  0  0  0  0  0
   36.3600   32.3100   31.7720 H   0  0  0  0  0  0  0  0  0  0  0  0
   37.5030   29.8590   28.5510 H   0  0  0  0  0  0  0  0  0  0  0  0
   34.2680   30.9500   33.4780 C   0  0  0  0  0  0  0  0  0  0  0  0
   33.4060   31.4190   32.6410 O   0  0  0  0  0  0  0  0  0  0  0  0
   35.5730   30.3970   33.3200 N   0  0  0  0  0  0  0  0  0  0  0  0
   36.1110   30.1810   34.1650 H   0  0  0  0  0  0  0  0  0  0  0  0
   31.9960   29.0240   34.1270 Cl  0  0  0  0  0  0  0  0  0  0  0  0
   32.6990   30.1990   35.2530 C   0  0  0  0  0  0  0  0  0  0  0  0
   33.7300   31.0320   34.8580 C   0  0  0  0  0  0  0  0  0  0  0  0
   34.2400   31.9370   35.7960 C   0  0  0  0  0  0  0  0  0  0  0  0
   35.0580   32.5740   35.4240 H   0  0  0  0  0  0  0  0  0  0  0  0
   33.7580   32.0190   37.0670 C   0  0  0  0  0  0  0  0  0  0  0  0
   34.2120   32.7490   37.7300 H   0  0  0  0  0  0  0  0  0  0  0  0
   32.7190   31.1600   37.4220 C   0  0  0  0  0  3  0  0  0  0  0  0
   32.1900   30.2530   36.5240 C   0  0  0  0  0  3  0  0  0  0  0  0
   35.8190   27.8970   32.2450 O   0  0  0  0  0  0  0  0  0  0  0  0
   36.4270   25.5060   32.0780 C   0  0  0  0  0  0  0  0  0  0  0  0
   36.5910   26.7950   32.5800 C   0  0  0  0  0  0  0  0  0  0  0  0
   37.5850   27.0720   33.4890 C   0  0  0  0  0  0  0  0  0  0  0  0
   38.4400   26.0570   33.9170 C   0  0  0  0  0  0  0  0  0  0  0  0
   38.2740   24.7680   33.4140 C   0  0  0  0  0  0  0  0  0  0  0  0
   37.2700   24.5300   32.5070 C   0  0  0  0  0  0  0  0  0  0  0  0
   37.7620   28.0510   33.9130 H   0  0  0  0  0  0  0  0  0  0  0  0
   39.2240   26.2660   34.6310 H   0  0  0  0  0  0  0  0  0  0  0  0
   38.9560   23.9930   33.7650 H   0  0  0  0  0  0  0  0  0  0  0  0
   37.1100   23.1560   31.9850 C   0  0  0  0  0  0  0  0  0  0  0  0
   36.2730   22.1600   32.4060 C   0  0  0  0  0  0  0  0  0  0  0  0
   36.5080   21.0490   31.5790 C   0  0  0  0  0  0  0  0  0  0  0  0
   37.4800   21.4620   30.7120 C   0  0  0  0  0  0  0  0  0  0  0  0
   37.8290   22.7120   30.9630 O   0  0  0  0  0  0  0  0  0  0  0  0
   35.5690   22.2700   33.2430 H   0  0  0  0  0  0  0  0  0  0  0  0
   35.9300   20.1620   31.7680 H   0  0  0  0  0  0  0  0  0  0  0  0
   37.8320   20.7630   29.9670 H   0  0  0  0  0  0  0  0  0  0  0  0
   34.5320   25.1410   30.3890 N   0  0  0  0  0  0  0  0  0  0  0  0
   35.3840   25.2970   31.1430 C   0  0  0  0  0  0  0  0  0  0  0  0
  1  2  1  0  0  0  0
  1 22  1  0  0  0  0
  2 11  1  0  0  0  0
  3  7  1  0  0  0  0
  3  2  2  0  0  0  0
  4  3  1  0  0  0  0
  5  4  2  0  0  0  0
  5  6  1  0  0  0  0
  6  1  2  0  0  0  0
  8  5  1  0  0  0  0
  9 15  1  0  0  0  0
 10  9  2  0  0  0  0
 11  9  1  0  0  0  0
 11 12  1  0  0  0  0
 13 14  1  0  0  0  0
 14 21  1  0  0  0  0
 15 14  2  0  0  0  0
 15 16  1  0  0  0  0
 16 18  2  0  0  0  0
 17 16  1  0  0  0  0
 18 20  1  0  0  0  0
 18 19  1  0  0  0  0
 21 20  2  0  0  0  0
 22 24  1  0  0  0  0
 23 28  2  0  0  0  0
 23 24  1  0  0  0  0
 24 25  2  0  0  0  0
 25 29  1  0  0  0  0
 25 26  1  0  0  0  0
 26 30  1  0  0  0  0
 27 31  1  0  0  0  0
 27 26  2  0  0  0  0
 28 27  1  0  0  0  0
 32 33  2  0  0  0  0
 32 28  1  0  0  0  0
 33 37  1  0  0  0  0
 34 38  1  0  0  0  0
 34 33  1  0  0  0  0
 35 36  1  0  0  0  0
 35 34  2  0  0  0  0
 36 32  1  0  0  0  0
 39 35  1  0  0  0  0
 40 41  3  0  0  0  0
 41 23  1  0  0  0  0
M  END
>  <minimizedAffinity>
-5.73277998

$$$$

 OpenBabel03272507433D

 41 44  0  0  0  0  0  0  0  0999 V2000
   38.2360   25.3600   33.9990 C   0  0  0  0  0  0  0  0  0  0  0  0
   38.2140   26.7600   33.9480 C   0  0  0  0  0  0  0  0  0  0  0  0
   38.1900   27.5370   35.0840 C   0  0  0  0  0  0  0  0  0  0  0  0
   38.1870   26.8730   36.2770 N   0  0  0  0  0  0  0  0  0  0  0  0
   38.2070   25.5050   36.3230 C   0  0  0  0  0  0  0  0  0  0  0  0
   38.2310   24.7970   35.2160 N   0  0  0  0  0  0  0  0  0  0  0  0
   38.1730   28.5990   35.1160 H   0  0  0  0  0  0  0  0  0  0  0  0
   38.2050   24.9940   37.2820 H   0  0  0  0  0  0  0  0  0  0  0  0
   36.9850   28.0300   32.2510 C   0  0  0  0  0  0  0  0  0  0  0  0
   35.7520   27.8620   32.5900 O   0  0  0  0  0  0  0  0  0  0  0  0
   38.2130   27.5220   32.7680 N   0  0  0  0  0  0  0  0  0  0  0  0
   39.0750   27.7280   32.2540 H   0  0  0  0  0  0  0  0  0  0  0  0
   36.0020   30.8750   32.7370 Cl  0  0  0  0  0  0  0  0  0  0  0  0
   36.6510   30.2600   31.2050 C   0  0  0  0  0  0  0  0  0  0  0  0
   37.0690   28.9480   31.0880 C   0  0  0  0  0  0  0  0  0  0  0  0
   37.5700   28.5260   29.8510 C   0  0  0  0  0  0  0  0  0  0  0  0
   37.8870   27.4720   29.8170 H   0  0  0  0  0  0  0  0  0  0  0  0
   37.6570   29.3600   28.7770 C   0  0  0  0  0  0  0  0  0  0  0  0
   38.0590   28.9510   27.8550 H   0  0  0  0  0  0  0  0  0  0  0  0
   37.2240   30.6750   28.9410 C   0  0  0  0  0  3  0  0  0  0  0  0
   36.7230   31.1270   30.1470 C   0  0  0  0  0  3  0  0  0  0  0  0
   38.2590   24.7890   32.7770 O   0  0  0  0  0  0  0  0  0  0  0  0
   37.2350   22.5730   32.3880 C   0  0  0  0  0  0  0  0  0  0  0  0
   37.2640   23.9610   32.2800 C   0  0  0  0  0  0  0  0  0  0  0  0
   36.2520   24.6360   31.6380 C   0  0  0  0  0  0  0  0  0  0  0  0
   35.1830   23.9290   31.0880 C   0  0  0  0  0  0  0  0  0  0  0  0
   35.1560   22.5400   31.1970 C   0  0  0  0  0  0  0  0  0  0  0  0
   36.1840   21.9010   31.8460 C   0  0  0  0  0  0  0  0  0  0  0  0
   36.2180   25.7110   31.5230 H   0  0  0  0  0  0  0  0  0  0  0  0
   34.3830   24.4510   30.5820 H   0  0  0  0  0  0  0  0  0  0  0  0
   34.3090   22.0120   30.7590 H   0  0  0  0  0  0  0  0  0  0  0  0
   36.1370   20.4270   31.9510 C   0  0  0  0  0  0  0  0  0  0  0  0
   35.5020   19.6420   32.8720 C   0  0  0  0  0  0  0  0  0  0  0  0
   35.7680   18.3070   32.5280 C   0  0  0  0  0  0  0  0  0  0  0  0
   36.5540   18.3870   31.4130 C   0  0  0  0  0  0  0  0  0  0  0  0
   36.7660   19.6480   31.0810 O   0  0  0  0  0  0  0  0  0  0  0  0
   34.9070   20.0420   33.7050 H   0  0  0  0  0  0  0  0  0  0  0  0
   35.3410   17.5420   33.1520 H   0  0  0  0  0  0  0  0  0  0  0  0
   36.8910   17.4660   30.9580 H   0  0  0  0  0  0  0  0  0  0  0  0
   39.1890   21.4410   33.6020 N   0  0  0  0  0  0  0  0  0  0  0  0
   38.3100   21.9480   33.0660 C   0  0  0  0  0  0  0  0  0  0  0  0
  1  6  1  0  0  0  0
  2  1  2  0  0  0  0
  2  3  1  0  0  0  0
  3  7  1  0  0  0  0
  3  4  2  0  0  0  0
  4  5  1  0  0  0  0
  5  8  1  0  0  0  0
  6  5  2  0  0  0  0
  9 10  2  0  0  0  0
  9 11  1  0  0  0  0
 11  2  1  0  0  0  0
 12 11  1  0  0  0  0
 14 13  1  0  0  0  0
 15 14  1  0  0  0  0
 15  9  1  0  0  0  0
 16 15  2  0  0  0  0
 17 16  1  0  0  0  0
 18 20  2  0  0  0  0
 18 16  1  0  0  0  0
 19 18  1  0  0  0  0
 20 21  1  0  0  0  0
 21 14  2  0  0  0  0
 22  1  1  0  0  0  0
 23 41  1  0  0  0  0
 24 23  1  0  0  0  0
 24 22  1  0  0  0  0
 25 24  2  0  0  0  0
 26 27  2  0  0  0  0
 26 25  1  0  0  0  0
 27 28  1  0  0  0  0
 28 32  1  0  0  0  0
 28 23  2  0  0  0  0
 29 25  1  0  0  0  0
 30 26  1  0  0  0  0
 31 27  1  0  0  0  0
 32 33  2  0  0  0  0
 33 37  1  0  0  0  0
 34 33  1  0  0  0  0
 34 38  1  0  0  0  0
 35 34  2  0  0  0  0
 36 35  1  0  0  0  0
 36 32  1  0  0  0  0
 39 35  1  0  0  0  0
 41 40  3  0  0  0  0
M  END
>  <minimizedAffinity>
-5.68476582

$$$$
