
 OpenBabel03272509303D

 38 40  0  0  1  0  0  0  0  0999 V2000
   36.1710   30.5840   48.9550 C   0  0  2  0  0  0  0  0  0  0  0  0
   36.9870   31.5440   49.7660 C   0  0  0  0  0  0  0  0  0  0  0  0
   37.8800   30.8530   50.7760 C   0  0  0  0  0  0  0  0  0  0  0  0
   37.0490   29.9820   51.7130 C   0  0  0  0  0  0  0  0  0  0  0  0
   35.8990   29.2780   51.0260 C   0  0  0  0  0  0  0  0  0  0  0  0
   36.2020   29.2040   49.5200 C   0  0  1  0  0  0  0  0  0  0  0  0
   35.0750   30.8560   48.8970 H   0  0  0  0  0  0  0  0  0  0  0  0
   37.4840   32.3380   49.2400 H   0  0  0  0  0  0  0  0  0  0  0  0
   36.2180   32.0720   50.4260 H   0  0  0  0  0  0  0  0  0  0  0  0
   38.3160   31.6540   51.4060 H   0  0  0  0  0  0  0  0  0  0  0  0
   38.6330   30.1900   50.3170 H   0  0  0  0  0  0  0  0  0  0  0  0
   37.6980   29.1860   52.1640 H   0  0  0  0  0  0  0  0  0  0  0  0
   36.6600   30.5800   52.5540 H   0  0  0  0  0  0  0  0  0  0  0  0
   34.9710   29.8280   51.1920 H   0  0  0  0  0  0  0  0  0  0  0  0
   35.7590   28.2320   51.3950 H   0  0  0  0  0  0  0  0  0  0  0  0
   37.1890   28.8130   49.5350 H   0  0  0  0  0  0  0  0  0  0  0  0
   36.6430   30.5360   47.5460 C   0  0  0  0  0  0  0  0  0  0  0  0
   38.0240   30.6820   47.3630 C   0  0  0  0  0  0  0  0  0  0  0  0
   38.4890   30.6380   46.0430 C   0  0  0  0  0  0  0  0  0  0  0  0
   37.5870   30.4570   45.0240 N   0  0  0  0  0  0  0  0  0  0  0  0
   36.2410   30.3180   45.2600 C   0  0  0  0  0  0  0  0  0  0  0  0
   35.7920   30.3610   46.5250 N   0  0  0  0  0  0  0  0  0  0  0  0
   38.8230   30.8210   48.0610 H   0  0  0  0  0  0  0  0  0  0  0  0
   39.5190   30.7370   45.7480 H   0  0  0  0  0  0  0  0  0  0  0  0
   35.5420   30.1740   44.4490 H   0  0  0  0  0  0  0  0  0  0  0  0
   34.0590   28.2790   48.5320 C   0  0  0  0  0  0  0  0  0  0  0  0
   33.1790   29.1610   48.7570 O   0  0  0  0  0  0  0  0  0  0  0  0
   35.4530   28.2370   48.8060 N   0  0  0  0  0  0  0  0  0  0  0  0
   35.8510   27.3440   48.3780 H   0  0  0  0  0  0  0  0  0  0  0  0
   31.2680   27.9590   49.5060 Cl  0  0  0  0  0  0  0  0  0  0  0  0
   31.9790   26.9500   48.2400 C   0  0  0  0  0  0  0  0  0  0  0  0
   33.2940   27.1990   47.8690 C   0  0  0  0  0  0  0  0  0  0  0  0
   33.8930   26.4310   46.8780 C   0  0  0  0  0  0  0  0  0  0  0  0
   34.9060   26.6270   46.5970 H   0  0  0  0  0  0  0  0  0  0  0  0
   33.1770   25.4110   46.2550 C   0  0  0  0  0  0  0  0  0  0  0  0
   33.5980   24.7860   45.4790 H   0  0  0  0  0  0  0  0  0  0  0  0
   31.8520   25.1540   46.6220 C   0  0  0  0  0  3  0  0  0  0  0  0
   31.2690   25.9330   47.6160 C   0  0  0  0  0  3  0  0  0  0  0  0
  1  7  1  1  0  0  0
  1  6  1  0  0  0  0
  1  2  1  0  0  0  0
  2  9  1  0  0  0  0
  2  3  1  0  0  0  0
  3 10  1  0  0  0  0
  3  4  1  0  0  0  0
  4 12  1  0  0  0  0
  4 13  1  0  0  0  0
  5 14  1  0  0  0  0
  5 15  1  0  0  0  0
  5  4  1  0  0  0  0
  6 16  1  6  0  0  0
  6  5  1  0  0  0  0
  8  2  1  0  0  0  0
 11  3  1  0  0  0  0
 17  1  1  0  0  0  0
 18 17  1  0  0  0  0
 18 23  1  0  0  0  0
 19 18  2  0  0  0  0
 20 21  2  0  0  0  0
 20 19  1  0  0  0  0
 21 22  1  0  0  0  0
 22 17  2  0  0  0  0
 24 19  1  0  0  0  0
 25 21  1  0  0  0  0
 26 27  2  0  0  0  0
 26 28  1  0  0  0  0
 28  6  1  0  0  0  0
 29 28  1  0  0  0  0
 31 30  1  0  0  0  0
 32 31  1  0  0  0  0
 32 26  1  0  0  0  0
 33 32  2  0  0  0  0
 34 33  1  0  0  0  0
 35 37  2  0  0  0  0
 35 33  1  0  0  0  0
 36 35  1  0  0  0  0
 37 38  1  0  0  0  0
 38 31  2  0  0  0  0
M  END
>  <minimizedAffinity>
-5.75285149

>  <minimizedRMSD>
0.793327391

$$$$
