
 OpenBabel03272508423D

 20 21  0  0  0  0  0  0  0  0999 V2000
   34.1370   28.9850   49.4550 C   0  0  0  0  0  0  0  0  0  0  0  0
   33.1500   29.2780   50.1640 O   0  0  0  0  0  0  0  0  0  0  0  0
   37.1180   29.8330   51.3190 C   0  0  0  0  0  0  0  0  0  0  0  0
   38.0490   30.2100   50.3150 C   0  0  0  0  0  0  0  0  0  0  0  0
   37.6110   30.1630   48.9750 C   0  0  0  0  0  0  0  0  0  0  0  0
   36.3310   29.7610   48.7150 N   0  0  0  0  0  0  0  0  0  0  0  0
   35.5000   29.4170   49.7010 C   0  0  0  0  0  0  0  0  0  0  0  0
   35.8680   29.4470   50.9780 N   0  0  0  0  0  0  0  0  0  0  0  0
   37.5040   29.8880   52.3200 H   0  0  0  0  0  0  0  0  0  0  0  0
   39.0510   30.5240   50.5180 H   0  0  0  0  0  0  0  0  0  0  0  0
   38.2410   30.4300   48.1340 H   0  0  0  0  0  0  0  0  0  0  0  0
   33.4750   30.5910   47.0770 Cl  0  0  0  0  0  0  0  0  0  0  0  0
   33.6770   28.8340   47.1250 C   0  0  0  0  0  0  0  0  0  0  0  0
   33.9860   28.1450   48.2660 C   0  0  0  0  0  0  0  0  0  0  0  0
   34.1330   26.7700   48.2430 C   0  0  0  0  0  0  0  0  0  0  0  0
   34.3750   26.2820   49.1660 H   0  0  0  0  0  0  0  0  0  0  0  0
   33.9460   26.1670   47.0060 C   0  0  0  0  0  0  0  0  0  0  0  0
   34.0550   25.0950   46.9670 H   0  0  0  0  0  0  0  0  0  0  0  0
   33.6390   26.8350   45.8640 C   0  0  0  0  0  0  0  0  0  0  0  0
   33.4930   28.2260   45.8940 C   0  0  0  0  0  0  0  0  0  0  0  0
  1  7  1  0  0  0  0
  1  2  2  0  0  0  0
  3  9  1  0  0  0  0
  4 10  1  0  0  0  0
  4  3  2  0  0  0  0
  5  4  1  0  0  0  0
  6  5  2  0  0  0  0
  6  7  1  0  0  0  0
  7  8  2  0  0  0  0
  8  3  1  0  0  0  0
 11  5  1  0  0  0  0
 12 13  1  0  0  0  0
 13 14  1  0  0  0  0
 14  1  1  0  0  0  0
 15 14  2  0  0  0  0
 15 16  1  0  0  0  0
 17 15  1  0  0  0  0
 18 17  1  0  0  0  0
 19 20  1  0  0  0  0
 19 17  2  0  0  0  0
 20 13  2  0  0  0  0
M  END
>  <minimizedAffinity>
-3.98484945

>  <minimizedRMSD>
2.12829661

$$$$
