
 OpenBabel03262522083D

 20 21  0  0  0  0  0  0  0  0999 V2000
   37.2640   31.1650   47.7370 C   0  0  0  0  0  0  0  0  0  0  0  0
   36.7890   30.7830   46.6690 O   0  0  0  0  0  0  0  0  0  0  0  0
   37.7190   29.9290   49.8210 C   0  0  0  0  0  0  0  0  0  0  0  0
   36.7760   30.5120   48.9540 C   0  0  0  0  0  0  0  0  0  0  0  0
   35.4380   30.4400   49.2960 C   0  0  0  0  0  0  0  0  0  0  0  0
   35.0870   29.8140   50.4500 N   0  0  0  0  0  0  0  0  0  0  0  0
   36.0090   29.2560   51.2740 C   0  0  0  0  0  0  0  0  0  0  0  0
   37.3040   29.3110   50.9690 N   0  0  0  0  0  0  0  0  0  0  0  0
   38.7920   29.9410   49.6270 H   0  0  0  0  0  0  0  0  0  0  0  0
   34.7130   30.8890   48.6290 H   0  0  0  0  0  0  0  0  0  0  0  0
   35.7250   28.7560   52.1960 H   0  0  0  0  0  0  0  0  0  0  0  0
   39.2440   31.5080   45.4820 Cl  0  0  0  0  0  0  0  0  0  0  0  0
   39.2500   32.5280   46.9020 C   0  0  0  0  0  0  0  0  0  0  0  0
   38.2720   32.2230   47.8270 C   0  0  0  0  0  0  0  0  0  0  0  0
   38.1700   32.9670   49.0090 C   0  0  0  0  0  0  0  0  0  0  0  0
   37.4210   32.7840   49.7860 H   0  0  0  0  0  0  0  0  0  0  0  0
   39.0330   34.0040   49.2710 C   0  0  0  0  0  0  0  0  0  0  0  0
   38.9870   34.6040   50.1760 H   0  0  0  0  0  0  0  0  0  0  0  0
   39.9930   34.2800   48.3300 C   0  0  0  0  0  0  0  0  0  0  0  0
   40.1190   33.5670   47.1580 C   0  0  0  0  0  0  0  0  0  0  0  0
  1 14  1  0  0  0  0
  1  4  1  0  0  0  0
  2  1  2  0  0  0  0
  3  8  1  0  0  0  0
  4  5  1  0  0  0  0
  4  3  2  0  0  0  0
  5  6  2  0  0  0  0
  6  7  1  0  0  0  0
  7 11  1  0  0  0  0
  8  7  2  0  0  0  0
  9  3  1  0  0  0  0
 10  5  1  0  0  0  0
 12 13  1  0  0  0  0
 13 20  2  0  0  0  0
 13 14  1  0  0  0  0
 14 15  2  0  0  0  0
 15 17  1  0  0  0  0
 15 16  1  0  0  0  0
 17 18  1  0  0  0  0
 19 17  2  0  0  0  0
 20 19  1  0  0  0  0
M  END
>  <minimizedAffinity>
-5.09724617

>  <minimizedRMSD>
3.42679262

$$$$
