
 OpenBabel03272508433D

 20 21  0  0  0  0  0  0  0  0999 V2000
   38.8540   22.7210   35.7780 C   0  0  0  0  0  0  0  0  0  0  0  0
   39.7870   22.2140   36.4380 O   0  0  0  0  0  0  0  0  0  0  0  0
   36.7420   21.1010   33.3300 C   0  0  0  0  0  0  0  0  0  0  0  0
   35.6420   20.6260   34.0930 C   0  0  0  0  0  0  0  0  0  0  0  0
   35.6560   20.8870   35.4790 C   0  0  0  0  0  0  0  0  0  0  0  0
   36.7120   21.5720   36.0090 N   0  0  0  0  0  0  0  0  0  0  0  0
   37.7190   21.9930   35.2420 C   0  0  0  0  0  0  0  0  0  0  0  0
   37.7500   21.7720   33.9320 N   0  0  0  0  0  0  0  0  0  0  0  0
   36.6810   20.8760   32.2810 H   0  0  0  0  0  0  0  0  0  0  0  0
   34.8160   20.0900   33.6770 H   0  0  0  0  0  0  0  0  0  0  0  0
   34.8670   20.5690   36.1510 H   0  0  0  0  0  0  0  0  0  0  0  0
   37.7770   24.2760   38.0340 Cl  0  0  0  0  0  0  0  0  0  0  0  0
   38.3450   24.9330   36.4930 C   0  0  0  0  0  0  0  0  0  0  0  0
   38.8360   24.1540   35.4810 C   0  0  0  0  0  0  0  0  0  0  0  0
   39.2660   24.7240   34.2960 C   0  0  0  0  0  0  0  0  0  0  0  0
   39.6420   24.0660   33.5380 H   0  0  0  0  0  0  0  0  0  0  0  0
   39.1620   26.1060   34.2230 C   0  0  0  0  0  0  0  0  0  0  0  0
   39.4920   26.5700   33.3070 H   0  0  0  0  0  0  0  0  0  0  0  0
   38.6760   26.8940   35.2170 C   0  0  0  0  0  3  0  0  0  0  0  0
   38.2440   26.3120   36.4120 C   0  0  0  0  0  3  0  0  0  0  0  0
  1  2  2  0  0  0  0
  3  8  2  0  0  0  0
  3  4  1  0  0  0  0
  4  5  2  0  0  0  0
  5  6  1  0  0  0  0
  5 11  1  0  0  0  0
  7  1  1  0  0  0  0
  7  6  2  0  0  0  0
  8  7  1  0  0  0  0
  9  3  1  0  0  0  0
 10  4  1  0  0  0  0
 13 12  1  0  0  0  0
 14  1  1  0  0  0  0
 14 13  2  0  0  0  0
 15 14  1  0  0  0  0
 16 15  1  0  0  0  0
 17 15  2  0  0  0  0
 17 19  1  0  0  0  0
 18 17  1  0  0  0  0
 19 20  2  0  0  0  0
 20 13  1  0  0  0  0
M  END
>  <minimizedAffinity>
-4.48860645

$$$$

 OpenBabel03272508433D

 20 21  0  0  0  0  0  0  0  0999 V2000
   38.8450   22.9270   36.3060 C   0  0  0  0  0  0  0  0  0  0  0  0
   39.6010   22.4130   37.1580 O   0  0  0  0  0  0  0  0  0  0  0  0
   35.8640   20.9930   35.6300 C   0  0  0  0  0  0  0  0  0  0  0  0
   35.8780   20.8330   34.2200 C   0  0  0  0  0  0  0  0  0  0  0  0
   36.9510   21.4130   33.5120 C   0  0  0  0  0  0  0  0  0  0  0  0
   37.9090   22.0920   34.2110 N   0  0  0  0  0  0  0  0  0  0  0  0
   37.8440   22.2110   35.5380 C   0  0  0  0  0  0  0  0  0  0  0  0
   36.8530   21.6810   36.2470 N   0  0  0  0  0  0  0  0  0  0  0  0
   35.0260   20.5320   36.1190 H   0  0  0  0  0  0  0  0  0  0  0  0
   35.1270   20.3020   33.6730 H   0  0  0  0  0  0  0  0  0  0  0  0
   37.0560   21.3490   32.4350 H   0  0  0  0  0  0  0  0  0  0  0  0
   41.1500   23.5480   34.5810 Cl  0  0  0  0  0  0  0  0  0  0  0  0
   39.9690   24.7100   35.2020 C   0  0  0  0  0  0  0  0  0  0  0  0
   38.9170   24.3570   36.0010 C   0  0  0  0  0  0  0  0  0  0  0  0
   38.0240   25.3100   36.4570 C   0  0  0  0  0  0  0  0  0  0  0  0
   37.2180   24.9760   37.0800 H   0  0  0  0  0  0  0  0  0  0  0  0
   38.2760   26.6120   36.0480 C   0  0  0  0  0  0  0  0  0  0  0  0
   37.5920   27.3710   36.3920 H   0  0  0  0  0  0  0  0  0  0  0  0
   39.3160   26.9810   35.2550 C   0  0  0  0  0  3  0  0  0  0  0  0
   40.2140   26.0130   34.7970 C   0  0  0  0  0  3  0  0  0  0  0  0
  1  2  2  0  0  0  0
  3  9  1  0  0  0  0
  3  8  1  0  0  0  0
  4  3  2  0  0  0  0
  5  6  2  0  0  0  0
  5  4  1  0  0  0  0
  6  7  1  0  0  0  0
  7  8  2  0  0  0  0
  7  1  1  0  0  0  0
 10  4  1  0  0  0  0
 11  5  1  0  0  0  0
 12 13  1  0  0  0  0
 13 14  1  0  0  0  0
 14  1  1  0  0  0  0
 14 15  2  0  0  0  0
 15 16  1  0  0  0  0
 17 18  1  0  0  0  0
 17 15  1  0  0  0  0
 19 17  2  0  0  0  0
 20 13  2  0  0  0  0
 20 19  1  0  0  0  0
M  END
>  <minimizedAffinity>
-4.44589663

$$$$

 OpenBabel03272508433D

 20 21  0  0  0  0  0  0  0  0999 V2000
   38.7940   23.9510   34.3980 C   0  0  0  0  0  0  0  0  0  0  0  0
   39.6450   24.6810   33.8460 O   0  0  0  0  0  0  0  0  0  0  0  0
   36.3570   23.0450   31.8830 C   0  0  0  0  0  0  0  0  0  0  0  0
   35.9200   21.7550   32.2850 C   0  0  0  0  0  0  0  0  0  0  0  0
   36.4950   21.2110   33.4530 C   0  0  0  0  0  0  0  0  0  0  0  0
   37.4300   21.9440   34.1280 N   0  0  0  0  0  0  0  0  0  0  0  0
   37.8020   23.1520   33.7020 C   0  0  0  0  0  0  0  0  0  0  0  0
   37.2880   23.7060   32.6090 N   0  0  0  0  0  0  0  0  0  0  0  0
   35.8870   23.4110   30.9890 H   0  0  0  0  0  0  0  0  0  0  0  0
   35.1880   21.1820   31.7560 H   0  0  0  0  0  0  0  0  0  0  0  0
   36.2310   20.2360   33.8450 H   0  0  0  0  0  0  0  0  0  0  0  0
   40.8890   22.1620   35.4380 Cl  0  0  0  0  0  0  0  0  0  0  0  0
   39.6790   23.0220   36.4010 C   0  0  0  0  0  0  0  0  0  0  0  0
   38.7290   23.8410   35.8560 C   0  0  0  0  0  0  0  0  0  0  0  0
   37.8090   24.4890   36.6600 C   0  0  0  0  0  0  0  0  0  0  0  0
   37.0870   25.1190   36.1790 H   0  0  0  0  0  0  0  0  0  0  0  0
   37.9260   24.2450   38.0210 C   0  0  0  0  0  0  0  0  0  0  0  0
   37.2170   24.7400   38.6660 H   0  0  0  0  0  0  0  0  0  0  0  0
   38.8620   23.4350   38.5800 C   0  0  0  0  0  3  0  0  0  0  0  0
   39.7900   22.7840   37.7620 C   0  0  0  0  0  3  0  0  0  0  0  0
  1 14  1  0  0  0  0
  2  1  2  0  0  0  0
  3  4  2  0  0  0  0
  3  8  1  0  0  0  0
  4  5  1  0  0  0  0
  5 11  1  0  0  0  0
  5  6  2  0  0  0  0
  7  6  1  0  0  0  0
  7  1  1  0  0  0  0
  8  7  2  0  0  0  0
  9  3  1  0  0  0  0
 10  4  1  0  0  0  0
 12 13  1  0  0  0  0
 13 20  1  0  0  0  0
 14 13  2  0  0  0  0
 14 15  1  0  0  0  0
 15 17  2  0  0  0  0
 16 15  1  0  0  0  0
 17 19  1  0  0  0  0
 17 18  1  0  0  0  0
 20 19  2  0  0  0  0
M  END
>  <minimizedAffinity>
-4.37074089

$$$$

 OpenBabel03272508433D

 20 21  0  0  0  0  0  0  0  0999 V2000
   37.2780   27.1640   33.0010 C   0  0  0  0  0  0  0  0  0  0  0  0
   36.6220   28.1590   33.3770 O   0  0  0  0  0  0  0  0  0  0  0  0
   35.1250   25.1570   30.9000 C   0  0  0  0  0  0  0  0  0  0  0  0
   35.5610   23.8270   31.1400 C   0  0  0  0  0  0  0  0  0  0  0  0
   36.6220   23.6490   32.0530 C   0  0  0  0  0  0  0  0  0  0  0  0
   37.1680   24.7500   32.6500 N   0  0  0  0  0  0  0  0  0  0  0  0
   36.7160   25.9770   32.3840 C   0  0  0  0  0  0  0  0  0  0  0  0
   35.7190   26.1940   31.5320 N   0  0  0  0  0  0  0  0  0  0  0  0
   34.3160   25.2350   30.1970 H   0  0  0  0  0  0  0  0  0  0  0  0
   35.1330   22.9660   30.6730 H   0  0  0  0  0  0  0  0  0  0  0  0
   37.0290   22.6770   32.3070 H   0  0  0  0  0  0  0  0  0  0  0  0
   38.0370   26.7150   35.8100 Cl  0  0  0  0  0  0  0  0  0  0  0  0
   39.1500   26.9110   34.4480 C   0  0  0  0  0  0  0  0  0  0  0  0
   38.7330   27.1180   33.1620 C   0  0  0  0  0  0  0  0  0  0  0  0
   39.6490   27.2640   32.1370 C   0  0  0  0  0  0  0  0  0  0  0  0
   39.2660   27.4230   31.1490 H   0  0  0  0  0  0  0  0  0  0  0  0
   40.9840   27.1860   32.5100 C   0  0  0  0  0  0  0  0  0  0  0  0
   41.7150   27.2970   31.7260 H   0  0  0  0  0  0  0  0  0  0  0  0
   41.4160   26.9810   33.7820 C   0  0  0  0  0  3  0  0  0  0  0  0
   40.4840   26.8330   34.8130 C   0  0  0  0  0  3  0  0  0  0  0  0
  1 14  1  0  0  0  0
  1  2  2  0  0  0  0
  3  4  2  0  0  0  0
  3  8  1  0  0  0  0
  4  5  1  0  0  0  0
  5 11  1  0  0  0  0
  5  6  2  0  0  0  0
  7  6  1  0  0  0  0
  7  1  1  0  0  0  0
  8  7  2  0  0  0  0
  9  3  1  0  0  0  0
 10  4  1  0  0  0  0
 13 20  1  0  0  0  0
 13 12  1  0  0  0  0
 14 13  2  0  0  0  0
 15 17  2  0  0  0  0
 15 14  1  0  0  0  0
 16 15  1  0  0  0  0
 17 19  1  0  0  0  0
 18 17  1  0  0  0  0
 19 20  2  0  0  0  0
M  END
>  <minimizedAffinity>
-4.367764

$$$$

 OpenBabel03272508433D

 20 21  0  0  0  0  0  0  0  0999 V2000
   37.2880   27.2980   32.1440 C   0  0  0  0  0  0  0  0  0  0  0  0
   37.3650   28.3300   31.4430 O   0  0  0  0  0  0  0  0  0  0  0  0
   34.7100   25.1950   30.7260 C   0  0  0  0  0  0  0  0  0  0  0  0
   35.1640   23.8770   30.9930 C   0  0  0  0  0  0  0  0  0  0  0  0
   36.3880   23.7400   31.6800 C   0  0  0  0  0  0  0  0  0  0  0  0
   37.0650   24.8680   32.0480 N   0  0  0  0  0  0  0  0  0  0  0  0
   36.5890   26.0830   31.7680 C   0  0  0  0  0  0  0  0  0  0  0  0
   35.4410   26.2620   31.1240 N   0  0  0  0  0  0  0  0  0  0  0  0
   33.7740   25.2420   30.2000 H   0  0  0  0  0  0  0  0  0  0  0  0
   34.6330   22.9940   30.7050 H   0  0  0  0  0  0  0  0  0  0  0  0
   36.8230   22.7800   31.9330 H   0  0  0  0  0  0  0  0  0  0  0  0
   40.1750   26.7640   31.9170 Cl  0  0  0  0  0  0  0  0  0  0  0  0
   39.2710   26.9870   33.4210 C   0  0  0  0  0  0  0  0  0  0  0  0
   37.9260   27.2340   33.4600 C   0  0  0  0  0  0  0  0  0  0  0  0
   37.2730   27.4010   34.6670 C   0  0  0  0  0  0  0  0  0  0  0  0
   36.2190   27.5920   34.6380 H   0  0  0  0  0  0  0  0  0  0  0  0
   38.0700   27.3010   35.7990 C   0  0  0  0  0  0  0  0  0  0  0  0
   37.5800   27.4270   36.7510 H   0  0  0  0  0  0  0  0  0  0  0  0
   39.4060   27.0560   35.7800 C   0  0  0  0  0  3  0  0  0  0  0  0
   40.0610   26.8890   34.5560 C   0  0  0  0  0  3  0  0  0  0  0  0
  1 14  1  0  0  0  0
  2  1  2  0  0  0  0
  3  4  2  0  0  0  0
  3  8  1  0  0  0  0
  4  5  1  0  0  0  0
  5 11  1  0  0  0  0
  5  6  2  0  0  0  0
  7  6  1  0  0  0  0
  7  1  1  0  0  0  0
  8  7  2  0  0  0  0
  9  3  1  0  0  0  0
 10  4  1  0  0  0  0
 12 13  1  0  0  0  0
 13 14  2  0  0  0  0
 13 20  1  0  0  0  0
 14 15  1  0  0  0  0
 15 17  2  0  0  0  0
 16 15  1  0  0  0  0
 17 18  1  0  0  0  0
 19 17  1  0  0  0  0
 20 19  2  0  0  0  0
M  END
>  <minimizedAffinity>
-4.32610989

$$$$

 OpenBabel03272508433D

 20 21  0  0  0  0  0  0  0  0999 V2000
   38.5380   24.9930   33.3800 C   0  0  0  0  0  0  0  0  0  0  0  0
   39.6900   25.3440   33.0450 O   0  0  0  0  0  0  0  0  0  0  0  0
   35.8580   26.5970   31.5570 C   0  0  0  0  0  0  0  0  0  0  0  0
   35.1290   25.5130   31.0020 C   0  0  0  0  0  0  0  0  0  0  0  0
   35.5950   24.2100   31.2800 C   0  0  0  0  0  0  0  0  0  0  0  0
   36.7080   24.0620   32.0580 N   0  0  0  0  0  0  0  0  0  0  0  0
   37.3530   25.1200   32.5530 C   0  0  0  0  0  0  0  0  0  0  0  0
   36.9520   26.3650   32.3180 N   0  0  0  0  0  0  0  0  0  0  0  0
   35.4610   27.5650   31.3140 H   0  0  0  0  0  0  0  0  0  0  0  0
   34.2580   25.6290   30.3920 H   0  0  0  0  0  0  0  0  0  0  0  0
   35.1120   23.3150   30.9060 H   0  0  0  0  0  0  0  0  0  0  0  0
   38.3580   27.0520   35.4770 Cl  0  0  0  0  0  0  0  0  0  0  0  0
   38.1900   25.3060   35.7120 C   0  0  0  0  0  0  0  0  0  0  0  0
   38.2850   24.3990   34.6930 C   0  0  0  0  0  0  0  0  0  0  0  0
   38.1450   23.0450   34.9380 C   0  0  0  0  0  0  0  0  0  0  0  0
   38.2280   22.3790   34.1020 H   0  0  0  0  0  0  0  0  0  0  0  0
   37.9080   22.6950   36.2600 C   0  0  0  0  0  0  0  0  0  0  0  0
   37.7960   21.6440   36.4720 H   0  0  0  0  0  0  0  0  0  0  0  0
   37.8120   23.5830   37.2840 C   0  0  0  0  0  3  0  0  0  0  0  0
   37.9530   24.9500   37.0300 C   0  0  0  0  0  3  0  0  0  0  0  0
  1 14  1  0  0  0  0
  2  1  2  0  0  0  0
  3  8  1  0  0  0  0
  4  5  1  0  0  0  0
  4  3  2  0  0  0  0
  5  6  2  0  0  0  0
  6  7  1  0  0  0  0
  7  1  1  0  0  0  0
  8  7  2  0  0  0  0
  9  3  1  0  0  0  0
 10  4  1  0  0  0  0
 11  5  1  0  0  0  0
 12 13  1  0  0  0  0
 13 20  1  0  0  0  0
 14 15  1  0  0  0  0
 14 13  2  0  0  0  0
 15 17  2  0  0  0  0
 16 15  1  0  0  0  0
 17 18  1  0  0  0  0
 17 19  1  0  0  0  0
 20 19  2  0  0  0  0
M  END
>  <minimizedAffinity>
-4.26749182

$$$$

 OpenBabel03272508433D

 20 21  0  0  0  0  0  0  0  0999 V2000
   38.1860   23.5450   34.6050 C   0  0  0  0  0  0  0  0  0  0  0  0
   37.8380   22.4940   34.0250 O   0  0  0  0  0  0  0  0  0  0  0  0
   40.0360   26.2860   33.1410 C   0  0  0  0  0  0  0  0  0  0  0  0
   39.0260   27.1920   32.7250 C   0  0  0  0  0  0  0  0  0  0  0  0
   37.6860   26.8250   32.9690 C   0  0  0  0  0  0  0  0  0  0  0  0
   37.4330   25.6320   33.5840 N   0  0  0  0  0  0  0  0  0  0  0  0
   38.4250   24.8190   33.9530 C   0  0  0  0  0  0  0  0  0  0  0  0
   39.7020   25.1220   33.7440 N   0  0  0  0  0  0  0  0  0  0  0  0
   41.0370   26.6140   32.9300 H   0  0  0  0  0  0  0  0  0  0  0  0
   39.2240   28.1260   32.2430 H   0  0  0  0  0  0  0  0  0  0  0  0
   36.8410   27.4440   32.6920 H   0  0  0  0  0  0  0  0  0  0  0  0
   40.6270   22.0920   35.3810 Cl  0  0  0  0  0  0  0  0  0  0  0  0
   39.5090   22.9130   36.4800 C   0  0  0  0  0  0  0  0  0  0  0  0
   38.3880   23.5730   36.0550 C   0  0  0  0  0  0  0  0  0  0  0  0
   37.5500   24.1980   36.9610 C   0  0  0  0  0  0  0  0  0  0  0  0
   36.6870   24.7000   36.5720 H   0  0  0  0  0  0  0  0  0  0  0  0
   37.9290   24.1020   38.2930 C   0  0  0  0  0  0  0  0  0  0  0  0
   37.2890   24.5820   39.0150 H   0  0  0  0  0  0  0  0  0  0  0  0
   39.0380   23.4510   38.7320 C   0  0  0  0  0  3  0  0  0  0  0  0
   39.8810   22.8220   37.8110 C   0  0  0  0  0  3  0  0  0  0  0  0
  1 14  1  0  0  0  0
  2  1  2  0  0  0  0
  3  8  1  0  0  0  0
  4  5  1  0  0  0  0
  4  3  2  0  0  0  0
  5  6  2  0  0  0  0
  6  7  1  0  0  0  0
  7  1  1  0  0  0  0
  8  7  2  0  0  0  0
  9  3  1  0  0  0  0
 10  4  1  0  0  0  0
 11  5  1  0  0  0  0
 12 13  1  0  0  0  0
 13 20  1  0  0  0  0
 14 13  2  0  0  0  0
 14 15  1  0  0  0  0
 15 17  2  0  0  0  0
 16 15  1  0  0  0  0
 17 19  1  0  0  0  0
 17 18  1  0  0  0  0
 20 19  2  0  0  0  0
M  END
>  <minimizedAffinity>
-4.18669891

$$$$

 OpenBabel03272508433D

 20 21  0  0  0  0  0  0  0  0999 V2000
   36.4380   27.0910   32.3450 C   0  0  0  0  0  0  0  0  0  0  0  0
   36.1300   26.0150   31.7860 O   0  0  0  0  0  0  0  0  0  0  0  0
   36.2320   30.2430   30.5830 C   0  0  0  0  0  0  0  0  0  0  0  0
   35.0990   30.8780   31.1570 C   0  0  0  0  0  0  0  0  0  0  0  0
   34.4110   30.1810   32.1740 C   0  0  0  0  0  0  0  0  0  0  0  0
   34.8640   28.9470   32.5470 N   0  0  0  0  0  0  0  0  0  0  0  0
   35.9360   28.4000   31.9700 C   0  0  0  0  0  0  0  0  0  0  0  0
   36.6160   29.0180   31.0100 N   0  0  0  0  0  0  0  0  0  0  0  0
   36.7170   30.8170   29.8160 H   0  0  0  0  0  0  0  0  0  0  0  0
   34.7440   31.8440   30.8650 H   0  0  0  0  0  0  0  0  0  0  0  0
   33.5360   30.5760   32.6770 H   0  0  0  0  0  0  0  0  0  0  0  0
   39.2250   26.8090   31.4390 Cl  0  0  0  0  0  0  0  0  0  0  0  0
   38.6870   26.9850   33.1150 C   0  0  0  0  0  0  0  0  0  0  0  0
   37.3720   27.1120   33.4710 C   0  0  0  0  0  0  0  0  0  0  0  0
   37.0100   27.2480   34.7990 C   0  0  0  0  0  0  0  0  0  0  0  0
   35.9660   27.3450   35.0200 H   0  0  0  0  0  0  0  0  0  0  0  0
   38.0580   27.2440   35.7100 C   0  0  0  0  0  0  0  0  0  0  0  0
   37.7970   27.3490   36.7510 H   0  0  0  0  0  0  0  0  0  0  0  0
   39.3680   27.1190   35.3740 C   0  0  0  0  0  3  0  0  0  0  0  0
   39.7270   26.9830   34.0300 C   0  0  0  0  0  3  0  0  0  0  0  0
  1 14  1  0  0  0  0
  2  1  2  0  0  0  0
  3  8  2  0  0  0  0
  3  4  1  0  0  0  0
  4  5  2  0  0  0  0
  5  6  1  0  0  0  0
  5 11  1  0  0  0  0
  7  1  1  0  0  0  0
  7  6  2  0  0  0  0
  8  7  1  0  0  0  0
  9  3  1  0  0  0  0
 10  4  1  0  0  0  0
 12 13  1  0  0  0  0
 13 14  2  0  0  0  0
 13 20  1  0  0  0  0
 14 15  1  0  0  0  0
 15 16  1  0  0  0  0
 15 17  2  0  0  0  0
 17 18  1  0  0  0  0
 19 17  1  0  0  0  0
 20 19  2  0  0  0  0
M  END
>  <minimizedAffinity>
-4.18500948

$$$$

 OpenBabel03272508433D

 20 21  0  0  0  0  0  0  0  0999 V2000
   39.0680   26.3950   34.9370 C   0  0  0  0  0  0  0  0  0  0  0  0
   40.2030   26.8640   35.1720 O   0  0  0  0  0  0  0  0  0  0  0  0
   37.7320   23.7930   37.0640 C   0  0  0  0  0  0  0  0  0  0  0  0
   37.7130   22.6470   36.2260 C   0  0  0  0  0  0  0  0  0  0  0  0
   38.1780   22.8050   34.9030 C   0  0  0  0  0  0  0  0  0  0  0  0
   38.6160   24.0350   34.5020 N   0  0  0  0  0  0  0  0  0  0  0  0
   38.6110   25.0770   35.3360 C   0  0  0  0  0  0  0  0  0  0  0  0
   38.1830   24.9770   36.5900 N   0  0  0  0  0  0  0  0  0  0  0  0
   37.3680   23.6170   38.0590 H   0  0  0  0  0  0  0  0  0  0  0  0
   37.3700   21.6840   36.5390 H   0  0  0  0  0  0  0  0  0  0  0  0
   38.2060   21.9950   34.1830 H   0  0  0  0  0  0  0  0  0  0  0  0
   39.6210   26.4210   32.0450 Cl  0  0  0  0  0  0  0  0  0  0  0  0
   38.2700   27.2260   32.8550 C   0  0  0  0  0  0  0  0  0  0  0  0
   38.0680   27.1760   34.2070 C   0  0  0  0  0  0  0  0  0  0  0  0
   36.9920   27.8250   34.7850 C   0  0  0  0  0  0  0  0  0  0  0  0
   36.8820   27.7510   35.8490 H   0  0  0  0  0  0  0  0  0  0  0  0
   36.1620   28.5090   33.9080 C   0  0  0  0  0  0  0  0  0  0  0  0
   35.3180   29.0230   34.3380 H   0  0  0  0  0  0  0  0  0  0  0  0
   36.3480   28.5710   32.5630 C   0  0  0  0  0  3  0  0  0  0  0  0
   37.4370   27.9110   31.9850 C   0  0  0  0  0  3  0  0  0  0  0  0
  1  2  2  0  0  0  0
  1  7  1  0  0  0  0
  3  9  1  0  0  0  0
  4 10  1  0  0  0  0
  4  3  2  0  0  0  0
  5  4  1  0  0  0  0
  6  5  2  0  0  0  0
  6  7  1  0  0  0  0
  7  8  2  0  0  0  0
  8  3  1  0  0  0  0
 11  5  1  0  0  0  0
 12 13  1  0  0  0  0
 13 14  1  0  0  0  0
 14 15  2  0  0  0  0
 14  1  1  0  0  0  0
 15 16  1  0  0  0  0
 17 18  1  0  0  0  0
 17 15  1  0  0  0  0
 19 17  2  0  0  0  0
 20 19  1  0  0  0  0
 20 13  2  0  0  0  0
M  END
>  <minimizedAffinity>
-4.18111038

$$$$
