
 OpenBabel03272503063D

 32 34  0  0  0  0  0  0  0  0999 V2000
   40.1040   24.1630   34.5410 F   0  0  0  0  0  0  0  0  0  0  0  0
   39.6220   23.9230   35.7860 C   0  0  0  0  0  0  0  0  0  0  0  0
   40.3330   23.1590   36.6780 C   0  0  0  0  0  0  0  0  0  0  0  0
   39.7860   22.9580   37.9140 C   0  0  0  0  0  0  0  0  0  0  0  0
   38.5670   23.4900   38.2830 C   0  0  0  0  0  0  0  0  0  0  0  0
   37.8680   24.2530   37.3790 C   0  0  0  0  0  0  0  0  0  0  0  0
   38.3940   24.4760   36.1190 C   0  0  0  0  0  0  0  0  0  0  0  0
   40.3460   22.3580   38.6110 H   0  0  0  0  0  0  0  0  0  0  0  0
   38.1880   23.2940   39.2790 H   0  0  0  0  0  0  0  0  0  0  0  0
   36.8980   24.6870   37.6510 H   0  0  0  0  0  0  0  0  0  0  0  0
   44.0480   22.7260   36.0870 C   0  0  0  0  0  0  0  0  0  0  0  0
   42.8270   23.2490   36.5230 C   0  0  0  0  0  0  0  0  0  0  0  0
   41.6140   22.6240   36.2290 C   0  0  0  0  0  0  0  0  0  0  0  0
   41.6840   21.4760   35.4940 N   0  0  0  0  0  0  0  0  0  0  0  0
   42.8700   20.9820   35.0790 C   0  0  0  0  0  0  0  0  0  0  0  0
   44.0220   21.5940   35.3710 N   0  0  0  0  0  0  0  0  0  0  0  0
   44.9210   23.2840   36.3690 H   0  0  0  0  0  0  0  0  0  0  0  0
   42.7720   24.1650   37.1110 H   0  0  0  0  0  0  0  0  0  0  0  0
   42.9670   20.0760   34.4960 H   0  0  0  0  0  0  0  0  0  0  0  0
   38.0950   26.6460   35.1370 C   0  0  0  0  0  0  0  0  0  0  0  0
   38.9620   26.9710   36.0280 O   0  0  0  0  0  0  0  0  0  0  0  0
   37.7020   25.2680   35.1360 N   0  0  0  0  0  0  0  0  0  0  0  0
   36.9900   24.8560   34.4990 H   0  0  0  0  0  0  0  0  0  0  0  0
   39.4320   26.4380   32.4920 Cl  0  0  0  0  0  0  0  0  0  0  0  0
   38.0310   27.4040   32.8670 C   0  0  0  0  0  0  0  0  0  0  0  0
   37.4390   27.4730   34.1080 C   0  0  0  0  0  0  0  0  0  0  0  0
   36.3180   28.2630   34.3540 C   0  0  0  0  0  0  0  0  0  0  0  0
   35.9200   28.2550   35.3620 H   0  0  0  0  0  0  0  0  0  0  0  0
   35.7940   28.9950   33.3090 C   0  0  0  0  0  0  0  0  0  0  0  0
   34.9130   29.6020   33.5450 H   0  0  0  0  0  0  0  0  0  0  0  0
   36.3790   28.9350   32.0550 C   0  0  0  0  0  3  0  0  0  0  0  0
   37.4880   28.1460   31.8330 C   0  0  0  0  0  3  0  0  0  0  0  0
  1  2  1  0  0  0  0
  2  7  2  0  0  0  0
  2  3  1  0  0  0  0
  3  4  2  0  0  0  0
  4  5  1  0  0  0  0
  4  8  1  0  0  0  0
  5  9  1  0  0  0  0
  6 10  1  0  0  0  0
  6  5  2  0  0  0  0
  7  6  1  0  0  0  0
 11 17  1  0  0  0  0
 11 12  1  0  0  0  0
 12 18  1  0  0  0  0
 13 12  2  0  0  0  0
 13  3  1  0  0  0  0
 14 13  1  0  0  0  0
 15 16  1  0  0  0  0
 15 14  2  0  0  0  0
 16 11  2  0  0  0  0
 19 15  1  0  0  0  0
 20 21  2  0  0  0  0
 22 20  1  0  0  0  0
 22  7  1  0  0  0  0
 23 22  1  0  0  0  0
 24 25  1  0  0  0  0
 25 26  1  0  0  0  0
 26 27  2  0  0  0  0
 26 20  1  0  0  0  0
 27 28  1  0  0  0  0
 29 30  1  0  0  0  0
 29 27  1  0  0  0  0
 31 29  2  0  0  0  0
 32 31  1  0  0  0  0
 32 25  2  0  0  0  0
M  END
>  <minimizedAffinity>
-5.86963129

$$$$

 OpenBabel03272503063D

 32 34  0  0  0  0  0  0  0  0999 V2000
   36.3570   28.0210   34.9160 F   0  0  0  0  0  0  0  0  0  0  0  0
   36.9480   27.9570   33.6960 C   0  0  0  0  0  0  0  0  0  0  0  0
   36.4380   28.6590   32.6320 C   0  0  0  0  0  0  0  0  0  0  0  0
   37.0850   28.5480   31.4330 C   0  0  0  0  0  0  0  0  0  0  0  0
   38.2100   27.7660   31.2650 C   0  0  0  0  0  0  0  0  0  0  0  0
   38.7080   27.0690   32.3410 C   0  0  0  0  0  0  0  0  0  0  0  0
   38.0780   27.1620   33.5680 C   0  0  0  0  0  0  0  0  0  0  0  0
   36.6820   29.0990   30.6010 H   0  0  0  0  0  0  0  0  0  0  0  0
   38.6760   27.7200   30.2890 H   0  0  0  0  0  0  0  0  0  0  0  0
   39.6020   26.4430   32.2300 H   0  0  0  0  0  0  0  0  0  0  0  0
   34.1690   31.5470   33.5540 C   0  0  0  0  0  0  0  0  0  0  0  0
   35.3180   30.7830   33.3280 C   0  0  0  0  0  0  0  0  0  0  0  0
   35.2460   29.4670   32.8720 C   0  0  0  0  0  0  0  0  0  0  0  0
   33.9960   28.9640   32.6580 N   0  0  0  0  0  0  0  0  0  0  0  0
   32.8940   29.7120   32.8810 C   0  0  0  0  0  0  0  0  0  0  0  0
   32.9820   30.9730   33.3170 N   0  0  0  0  0  0  0  0  0  0  0  0
   34.3350   32.5480   33.9040 H   0  0  0  0  0  0  0  0  0  0  0  0
   36.3160   31.1860   33.4980 H   0  0  0  0  0  0  0  0  0  0  0  0
   31.8870   29.3500   32.7230 H   0  0  0  0  0  0  0  0  0  0  0  0
   38.1870   25.0690   34.7390 C   0  0  0  0  0  0  0  0  0  0  0  0
   37.4580   24.6840   33.7520 O   0  0  0  0  0  0  0  0  0  0  0  0
   38.5590   26.4530   34.7250 N   0  0  0  0  0  0  0  0  0  0  0  0
   39.1200   26.9220   35.4650 H   0  0  0  0  0  0  0  0  0  0  0  0
   40.8200   23.8160   34.1700 Cl  0  0  0  0  0  0  0  0  0  0  0  0
   39.9260   23.7070   35.6610 C   0  0  0  0  0  0  0  0  0  0  0  0
   38.7070   24.3040   35.8870 C   0  0  0  0  0  0  0  0  0  0  0  0
   38.0330   24.1840   37.1010 C   0  0  0  0  0  0  0  0  0  0  0  0
   37.0780   24.6890   37.1870 H   0  0  0  0  0  0  0  0  0  0  0  0
   38.6210   23.4400   38.1020 C   0  0  0  0  0  0  0  0  0  0  0  0
   38.0590   23.3710   39.0400 H   0  0  0  0  0  0  0  0  0  0  0  0
   39.8480   22.8340   37.8900 C   0  0  0  0  0  3  0  0  0  0  0  0
   40.4980   22.9650   36.6800 C   0  0  0  0  0  3  0  0  0  0  0  0
  2  1  1  0  0  0  0
  3 13  1  0  0  0  0
  3  2  2  0  0  0  0
  4  3  1  0  0  0  0
  5  4  2  0  0  0  0
  5  6  1  0  0  0  0
  6  7  2  0  0  0  0
  7  2  1  0  0  0  0
  7 22  1  0  0  0  0
  8  4  1  0  0  0  0
  9  5  1  0  0  0  0
 10  6  1  0  0  0  0
 11 17  1  0  0  0  0
 12 18  1  0  0  0  0
 12 11  1  0  0  0  0
 13 12  2  0  0  0  0
 14 13  1  0  0  0  0
 14 15  2  0  0  0  0
 15 16  1  0  0  0  0
 16 11  2  0  0  0  0
 19 15  1  0  0  0  0
 20 26  1  0  0  0  0
 21 20  2  0  0  0  0
 22 20  1  0  0  0  0
 22 23  1  0  0  0  0
 24 25  1  0  0  0  0
 25 26  2  0  0  0  0
 25 32  1  0  0  0  0
 26 27  1  0  0  0  0
 27 28  1  0  0  0  0
 27 29  2  0  0  0  0
 29 30  1  0  0  0  0
 31 29  1  0  0  0  0
 32 31  2  0  0  0  0
M  END
>  <minimizedAffinity>
-5.58276606

$$$$

 OpenBabel03272503063D

 32 34  0  0  0  0  0  0  0  0999 V2000
   37.0140   27.4290   35.1940 F   0  0  0  0  0  0  0  0  0  0  0  0
   37.4600   27.5250   33.9160 C   0  0  0  0  0  0  0  0  0  0  0  0
   36.7740   28.2700   32.9890 C   0  0  0  0  0  0  0  0  0  0  0  0
   37.2810   28.3220   31.7210 C   0  0  0  0  0  0  0  0  0  0  0  0
   38.4370   27.6620   31.3540 C   0  0  0  0  0  0  0  0  0  0  0  0
   39.1110   26.9200   32.2950 C   0  0  0  0  0  0  0  0  0  0  0  0
   38.6250   26.8480   33.5870 C   0  0  0  0  0  0  0  0  0  0  0  0
   36.7410   28.9070   30.9960 H   0  0  0  0  0  0  0  0  0  0  0  0
   38.7860   27.7430   30.3320 H   0  0  0  0  0  0  0  0  0  0  0  0
   40.0320   26.3880   32.0260 H   0  0  0  0  0  0  0  0  0  0  0  0
   33.1860   29.4590   33.2070 C   0  0  0  0  0  0  0  0  0  0  0  0
   34.3420   28.8070   32.7680 C   0  0  0  0  0  0  0  0  0  0  0  0
   35.5590   28.9440   33.4370 C   0  0  0  0  0  0  0  0  0  0  0  0
   35.5610   29.7460   34.5400 N   0  0  0  0  0  0  0  0  0  0  0  0
   34.4370   30.3700   34.9530 C   0  0  0  0  0  0  0  0  0  0  0  0
   33.2790   30.2270   34.3010 N   0  0  0  0  0  0  0  0  0  0  0  0
   32.3020   29.2860   32.6220 H   0  0  0  0  0  0  0  0  0  0  0  0
   34.3400   28.1660   31.8870 H   0  0  0  0  0  0  0  0  0  0  0  0
   34.3970   31.0120   35.8220 H   0  0  0  0  0  0  0  0  0  0  0  0
   38.9470   24.6960   34.6000 C   0  0  0  0  0  0  0  0  0  0  0  0
   38.0740   24.3510   33.7210 O   0  0  0  0  0  0  0  0  0  0  0  0
   39.2940   26.0860   34.6090 N   0  0  0  0  0  0  0  0  0  0  0  0
   39.9600   26.5250   35.2770 H   0  0  0  0  0  0  0  0  0  0  0  0
   37.3490   24.3110   37.0750 Cl  0  0  0  0  0  0  0  0  0  0  0  0
   38.9440   23.6790   36.7670 C   0  0  0  0  0  0  0  0  0  0  0  0
   39.6530   23.8790   35.6040 C   0  0  0  0  0  0  0  0  0  0  0  0
   40.9270   23.3500   35.4100 C   0  0  0  0  0  0  0  0  0  0  0  0
   41.4090   23.5600   34.4630 H   0  0  0  0  0  0  0  0  0  0  0  0
   41.4850   22.6020   36.4250 C   0  0  0  0  0  0  0  0  0  0  0  0
   42.4870   22.2040   36.2320 H   0  0  0  0  0  0  0  0  0  0  0  0
   40.7830   22.3910   37.6010 C   0  0  0  0  0  3  0  0  0  0  0  0
   39.5220   22.9240   37.7730 C   0  0  0  0  0  3  0  0  0  0  0  0
  2  1  1  0  0  0  0
  3 13  1  0  0  0  0
  3  2  2  0  0  0  0
  4  3  1  0  0  0  0
  5  4  2  0  0  0  0
  5  6  1  0  0  0  0
  6  7  2  0  0  0  0
  7  2  1  0  0  0  0
  7 22  1  0  0  0  0
  8  4  1  0  0  0  0
  9  5  1  0  0  0  0
 10  6  1  0  0  0  0
 11 16  1  0  0  0  0
 12 11  2  0  0  0  0
 12 13  1  0  0  0  0
 13 14  2  0  0  0  0
 14 15  1  0  0  0  0
 15 19  1  0  0  0  0
 16 15  2  0  0  0  0
 17 11  1  0  0  0  0
 18 12  1  0  0  0  0
 20 22  1  0  0  0  0
 20 26  1  0  0  0  0
 21 20  2  0  0  0  0
 22 23  1  0  0  0  0
 25 24  1  0  0  0  0
 25 32  1  0  0  0  0
 26 25  2  0  0  0  0
 27 26  1  0  0  0  0
 27 29  2  0  0  0  0
 28 27  1  0  0  0  0
 29 31  1  0  0  0  0
 30 29  1  0  0  0  0
 31 32  2  0  0  0  0
M  END
>  <minimizedAffinity>
-5.53871346

$$$$

 OpenBabel03272503063D

 32 34  0  0  0  0  0  0  0  0999 V2000
   38.4890   25.9130   34.6720 F   0  0  0  0  0  0  0  0  0  0  0  0
   38.3230   24.8170   33.8890 C   0  0  0  0  0  0  0  0  0  0  0  0
   38.3430   23.5570   34.4340 C   0  0  0  0  0  0  0  0  0  0  0  0
   38.1690   22.5000   33.5850 C   0  0  0  0  0  0  0  0  0  0  0  0
   37.9770   22.6590   32.2270 C   0  0  0  0  0  0  0  0  0  0  0  0
   37.9590   23.9280   31.6980 C   0  0  0  0  0  0  0  0  0  0  0  0
   38.1320   25.0190   32.5300 C   0  0  0  0  0  0  0  0  0  0  0  0
   38.1860   21.5120   34.0150 H   0  0  0  0  0  0  0  0  0  0  0  0
   37.8450   21.7800   31.6090 H   0  0  0  0  0  0  0  0  0  0  0  0
   37.8080   24.0780   30.6230 H   0  0  0  0  0  0  0  0  0  0  0  0
   39.9110   22.8410   37.8050 C   0  0  0  0  0  0  0  0  0  0  0  0
   39.7250   22.9360   36.4230 C   0  0  0  0  0  0  0  0  0  0  0  0
   38.5500   23.4530   35.8750 C   0  0  0  0  0  0  0  0  0  0  0  0
   37.5940   23.8600   36.7580 N   0  0  0  0  0  0  0  0  0  0  0  0
   37.7870   23.7630   38.0910 C   0  0  0  0  0  0  0  0  0  0  0  0
   38.9190   23.2660   38.5990 N   0  0  0  0  0  0  0  0  0  0  0  0
   40.8510   22.4300   38.1220 H   0  0  0  0  0  0  0  0  0  0  0  0
   40.4900   22.6110   35.7180 H   0  0  0  0  0  0  0  0  0  0  0  0
   37.0540   24.0750   38.8230 H   0  0  0  0  0  0  0  0  0  0  0  0
   36.8080   26.8420   31.7010 C   0  0  0  0  0  0  0  0  0  0  0  0
   35.8580   25.9920   31.8670 O   0  0  0  0  0  0  0  0  0  0  0  0
   38.1210   26.3680   32.0260 N   0  0  0  0  0  0  0  0  0  0  0  0
   38.9940   26.9230   31.9180 H   0  0  0  0  0  0  0  0  0  0  0  0
   35.8870   28.7230   33.8080 Cl  0  0  0  0  0  0  0  0  0  0  0  0
   36.3350   29.1400   32.1770 C   0  0  0  0  0  0  0  0  0  0  0  0
   36.7580   28.2370   31.2280 C   0  0  0  0  0  0  0  0  0  0  0  0
   37.1050   28.6250   29.9350 C   0  0  0  0  0  0  0  0  0  0  0  0
   37.4260   27.8460   29.2550 H   0  0  0  0  0  0  0  0  0  0  0  0
   37.0150   29.9630   29.6090 C   0  0  0  0  0  0  0  0  0  0  0  0
   37.2970   30.2250   28.5830 H   0  0  0  0  0  0  0  0  0  0  0  0
   36.5920   30.8820   30.5540 C   0  0  0  0  0  3  0  0  0  0  0  0
   36.2540   30.4770   31.8280 C   0  0  0  0  0  3  0  0  0  0  0  0
  2  3  1  0  0  0  0
  2  1  1  0  0  0  0
  3 13  1  0  0  0  0
  4  8  1  0  0  0  0
  4  3  2  0  0  0  0
  5  4  1  0  0  0  0
  6  5  2  0  0  0  0
  6  7  1  0  0  0  0
  7  2  2  0  0  0  0
  9  5  1  0  0  0  0
 10  6  1  0  0  0  0
 11 17  1  0  0  0  0
 11 16  1  0  0  0  0
 12 11  2  0  0  0  0
 13 12  1  0  0  0  0
 13 14  2  0  0  0  0
 14 15  1  0  0  0  0
 15 16  2  0  0  0  0
 15 19  1  0  0  0  0
 18 12  1  0  0  0  0
 20 21  2  0  0  0  0
 20 22  1  0  0  0  0
 22  7  1  0  0  0  0
 23 22  1  0  0  0  0
 25 24  1  0  0  0  0
 26 20  1  0  0  0  0
 26 25  2  0  0  0  0
 27 26  1  0  0  0  0
 28 27  1  0  0  0  0
 29 27  2  0  0  0  0
 29 31  1  0  0  0  0
 30 29  1  0  0  0  0
 31 32  2  0  0  0  0
 32 25  1  0  0  0  0
M  END
>  <minimizedAffinity>
-5.37003899

$$$$

 OpenBabel03272503063D

 32 34  0  0  0  0  0  0  0  0999 V2000
   36.2070   27.6440   35.0010 F   0  0  0  0  0  0  0  0  0  0  0  0
   36.3550   28.1680   33.7580 C   0  0  0  0  0  0  0  0  0  0  0  0
   35.8830   29.4250   33.4670 C   0  0  0  0  0  0  0  0  0  0  0  0
   36.0680   29.8890   32.1940 C   0  0  0  0  0  0  0  0  0  0  0  0
   36.7000   29.1470   31.2160 C   0  0  0  0  0  0  0  0  0  0  0  0
   37.1660   27.8910   31.5250 C   0  0  0  0  0  0  0  0  0  0  0  0
   36.9960   27.3930   32.8030 C   0  0  0  0  0  0  0  0  0  0  0  0
   35.6970   30.8740   31.9690 H   0  0  0  0  0  0  0  0  0  0  0  0
   36.8140   29.5720   30.2270 H   0  0  0  0  0  0  0  0  0  0  0  0
   37.6720   27.2850   30.7640 H   0  0  0  0  0  0  0  0  0  0  0  0
   35.2740   31.7280   36.4090 C   0  0  0  0  0  0  0  0  0  0  0  0
   35.9170   31.0300   35.3830 C   0  0  0  0  0  0  0  0  0  0  0  0
   35.2240   30.1590   34.5420 C   0  0  0  0  0  0  0  0  0  0  0  0
   33.8860   30.0250   34.7740 N   0  0  0  0  0  0  0  0  0  0  0  0
   33.2770   30.7050   35.7690 C   0  0  0  0  0  0  0  0  0  0  0  0
   33.9570   31.5360   36.5650 N   0  0  0  0  0  0  0  0  0  0  0  0
   35.8990   32.3730   36.9990 H   0  0  0  0  0  0  0  0  0  0  0  0
   36.9860   31.1390   35.1980 H   0  0  0  0  0  0  0  0  0  0  0  0
   32.2200   30.6260   35.9830 H   0  0  0  0  0  0  0  0  0  0  0  0
   38.7920   26.0910   33.7210 C   0  0  0  0  0  0  0  0  0  0  0  0
   39.3680   27.2400   33.7560 O   0  0  0  0  0  0  0  0  0  0  0  0
   37.4660   26.0840   33.1770 N   0  0  0  0  0  0  0  0  0  0  0  0
   36.8810   25.2330   33.0550 H   0  0  0  0  0  0  0  0  0  0  0  0
   38.1860   25.5450   36.5780 Cl  0  0  0  0  0  0  0  0  0  0  0  0
   39.0220   24.4820   35.4790 C   0  0  0  0  0  0  0  0  0  0  0  0
   39.2830   24.7720   34.1590 C   0  0  0  0  0  0  0  0  0  0  0  0
   39.9570   23.8840   33.3220 C   0  0  0  0  0  0  0  0  0  0  0  0
   40.1180   24.1980   32.2980 H   0  0  0  0  0  0  0  0  0  0  0  0
   40.3700   22.6780   33.8480 C   0  0  0  0  0  0  0  0  0  0  0  0
   40.8960   22.0100   33.1570 H   0  0  0  0  0  0  0  0  0  0  0  0
   40.1140   22.3720   35.1740 C   0  0  0  0  0  3  0  0  0  0  0  0
   39.4450   23.2650   35.9850 C   0  0  0  0  0  3  0  0  0  0  0  0
  2  1  1  0  0  0  0
  3  2  1  0  0  0  0
  3 13  1  0  0  0  0
  4  3  2  0  0  0  0
  5  6  2  0  0  0  0
  5  4  1  0  0  0  0
  6  7  1  0  0  0  0
  7 22  1  0  0  0  0
  7  2  2  0  0  0  0
  8  4  1  0  0  0  0
  9  5  1  0  0  0  0
 10  6  1  0  0  0  0
 11 16  1  0  0  0  0
 11 17  1  0  0  0  0
 12 11  2  0  0  0  0
 13 14  2  0  0  0  0
 13 12  1  0  0  0  0
 14 15  1  0  0  0  0
 15 19  1  0  0  0  0
 15 16  2  0  0  0  0
 18 12  1  0  0  0  0
 20 21  2  0  0  0  0
 20 26  1  0  0  0  0
 22 20  1  0  0  0  0
 23 22  1  0  0  0  0
 25 32  1  0  0  0  0
 25 24  1  0  0  0  0
 26 25  2  0  0  0  0
 27 29  2  0  0  0  0
 27 26  1  0  0  0  0
 28 27  1  0  0  0  0
 29 31  1  0  0  0  0
 30 29  1  0  0  0  0
 31 32  2  0  0  0  0
M  END
>  <minimizedAffinity>
-5.34825563

$$$$

 OpenBabel03272503063D

 32 34  0  0  0  0  0  0  0  0999 V2000
   37.7760   27.6750   35.1350 F   0  0  0  0  0  0  0  0  0  0  0  0
   37.5150   27.6810   33.8030 C   0  0  0  0  0  0  0  0  0  0  0  0
   38.4310   27.1860   32.9080 C   0  0  0  0  0  0  0  0  0  0  0  0
   38.1010   27.2230   31.5820 C   0  0  0  0  0  0  0  0  0  0  0  0
   36.9010   27.7330   31.1280 C   0  0  0  0  0  0  0  0  0  0  0  0
   35.9950   28.2250   32.0380 C   0  0  0  0  0  0  0  0  0  0  0  0
   36.2980   28.2010   33.3870 C   0  0  0  0  0  0  0  0  0  0  0  0
   38.8210   26.8350   30.8820 H   0  0  0  0  0  0  0  0  0  0  0  0
   36.7000   27.7340   30.0640 H   0  0  0  0  0  0  0  0  0  0  0  0
   35.0360   28.6340   31.7000 H   0  0  0  0  0  0  0  0  0  0  0  0
   42.0760   26.8460   33.8750 C   0  0  0  0  0  0  0  0  0  0  0  0
   40.8850   27.3600   33.3530 C   0  0  0  0  0  0  0  0  0  0  0  0
   39.6810   26.6610   33.4480 C   0  0  0  0  0  0  0  0  0  0  0  0
   39.7270   25.4510   34.0770 N   0  0  0  0  0  0  0  0  0  0  0  0
   40.8840   24.9670   34.5760 C   0  0  0  0  0  0  0  0  0  0  0  0
   42.0290   25.6500   34.4770 N   0  0  0  0  0  0  0  0  0  0  0  0
   42.9450   27.4640   33.7490 H   0  0  0  0  0  0  0  0  0  0  0  0
   40.8480   28.3270   32.8520 H   0  0  0  0  0  0  0  0  0  0  0  0
   40.9620   24.0130   35.0810 H   0  0  0  0  0  0  0  0  0  0  0  0
   35.1230   30.1060   34.2540 C   0  0  0  0  0  0  0  0  0  0  0  0
   35.7650   30.7040   33.3140 O   0  0  0  0  0  0  0  0  0  0  0  0
   35.3840   28.7030   34.3800 N   0  0  0  0  0  0  0  0  0  0  0  0
   34.9680   28.0860   35.1070 H   0  0  0  0  0  0  0  0  0  0  0  0
   36.3010   32.2100   35.9910 Cl  0  0  0  0  0  0  0  0  0  0  0  0
   34.6630   31.6180   36.0520 C   0  0  0  0  0  0  0  0  0  0  0  0
   34.1540   30.6400   35.2270 C   0  0  0  0  0  0  0  0  0  0  0  0
   32.8330   30.2030   35.3190 C   0  0  0  0  0  0  0  0  0  0  0  0
   32.5210   29.4290   34.6290 H   0  0  0  0  0  0  0  0  0  0  0  0
   32.0200   30.7800   36.2720 C   0  0  0  0  0  0  0  0  0  0  0  0
   30.9910   30.4080   36.3110 H   0  0  0  0  0  0  0  0  0  0  0  0
   32.5190   31.7660   37.1080 C   0  0  0  0  0  3  0  0  0  0  0  0
   33.8290   32.1840   37.0010 C   0  0  0  0  0  3  0  0  0  0  0  0
  2  1  1  0  0  0  0
  3 13  1  0  0  0  0
  3  2  2  0  0  0  0
  4  3  1  0  0  0  0
  5  4  2  0  0  0  0
  5  6  1  0  0  0  0
  6  7  2  0  0  0  0
  7  2  1  0  0  0  0
  7 22  1  0  0  0  0
  8  4  1  0  0  0  0
  9  5  1  0  0  0  0
 10  6  1  0  0  0  0
 11 16  1  0  0  0  0
 12 13  1  0  0  0  0
 12 11  2  0  0  0  0
 13 14  2  0  0  0  0
 14 15  1  0  0  0  0
 15 19  1  0  0  0  0
 16 15  2  0  0  0  0
 17 11  1  0  0  0  0
 18 12  1  0  0  0  0
 20 22  1  0  0  0  0
 20 26  1  0  0  0  0
 21 20  2  0  0  0  0
 22 23  1  0  0  0  0
 24 25  1  0  0  0  0
 25 32  1  0  0  0  0
 26 27  1  0  0  0  0
 26 25  2  0  0  0  0
 27 29  2  0  0  0  0
 28 27  1  0  0  0  0
 29 30  1  0  0  0  0
 29 31  1  0  0  0  0
 32 31  2  0  0  0  0
M  END
>  <minimizedAffinity>
-5.335639

$$$$

 OpenBabel03272503063D

 32 34  0  0  0  0  0  0  0  0999 V2000
   38.6180   26.7590   32.1340 F   0  0  0  0  0  0  0  0  0  0  0  0
   37.5150   26.0310   31.8270 C   0  0  0  0  0  0  0  0  0  0  0  0
   36.4590   26.6040   31.1620 C   0  0  0  0  0  0  0  0  0  0  0  0
   35.3810   25.8110   30.8860 C   0  0  0  0  0  0  0  0  0  0  0  0
   35.3250   24.4800   31.2480 C   0  0  0  0  0  0  0  0  0  0  0  0
   36.3900   23.9210   31.9130 C   0  0  0  0  0  0  0  0  0  0  0  0
   37.4970   24.6970   32.2070 C   0  0  0  0  0  0  0  0  0  0  0  0
   34.5550   26.2640   30.3640 H   0  0  0  0  0  0  0  0  0  0  0  0
   34.4410   23.9050   30.9990 H   0  0  0  0  0  0  0  0  0  0  0  0
   36.3670   22.8660   32.2090 H   0  0  0  0  0  0  0  0  0  0  0  0
   36.2330   30.3820   31.2870 C   0  0  0  0  0  0  0  0  0  0  0  0
   36.1140   29.0340   31.6390 C   0  0  0  0  0  0  0  0  0  0  0  0
   36.5780   28.0150   30.8070 C   0  0  0  0  0  0  0  0  0  0  0  0
   37.1530   28.4030   29.6320 N   0  0  0  0  0  0  0  0  0  0  0  0
   37.2620   29.7080   29.3040 C   0  0  0  0  0  0  0  0  0  0  0  0
   36.8130   30.6720   30.1150 N   0  0  0  0  0  0  0  0  0  0  0  0
   35.8450   31.0860   31.9990 H   0  0  0  0  0  0  0  0  0  0  0  0
   35.6550   28.7250   32.5780 H   0  0  0  0  0  0  0  0  0  0  0  0
   37.7110   30.0550   28.3840 H   0  0  0  0  0  0  0  0  0  0  0  0
   38.6260   24.4280   34.3080 C   0  0  0  0  0  0  0  0  0  0  0  0
   37.6340   25.1320   34.7260 O   0  0  0  0  0  0  0  0  0  0  0  0
   38.6380   24.1600   32.9010 N   0  0  0  0  0  0  0  0  0  0  0  0
   39.3860   23.6320   32.4060 H   0  0  0  0  0  0  0  0  0  0  0  0
   37.8540   21.9990   35.8340 Cl  0  0  0  0  0  0  0  0  0  0  0  0
   39.4390   22.7210   35.7760 C   0  0  0  0  0  0  0  0  0  0  0  0
   39.7570   23.8500   35.0550 C   0  0  0  0  0  0  0  0  0  0  0  0
   41.0430   24.3870   35.0440 C   0  0  0  0  0  0  0  0  0  0  0  0
   41.2010   25.2770   34.4480 H   0  0  0  0  0  0  0  0  0  0  0  0
   42.0200   23.7560   35.7850 C   0  0  0  0  0  0  0  0  0  0  0  0
   43.0160   24.2100   35.7490 H   0  0  0  0  0  0  0  0  0  0  0  0
   41.7150   22.6190   36.5150 C   0  0  0  0  0  3  0  0  0  0  0  0
   40.4350   22.1040   36.5120 C   0  0  0  0  0  3  0  0  0  0  0  0
  2  1  1  0  0  0  0
  2  7  1  0  0  0  0
  3  2  2  0  0  0  0
  4  3  1  0  0  0  0
  4  5  2  0  0  0  0
  5  6  1  0  0  0  0
  6  7  2  0  0  0  0
  6 10  1  0  0  0  0
  7 22  1  0  0  0  0
  8  4  1  0  0  0  0
  9  5  1  0  0  0  0
 11 12  1  0  0  0  0
 11 17  1  0  0  0  0
 12 18  1  0  0  0  0
 13  3  1  0  0  0  0
 13 12  2  0  0  0  0
 14 13  1  0  0  0  0
 15 14  2  0  0  0  0
 15 16  1  0  0  0  0
 16 11  2  0  0  0  0
 19 15  1  0  0  0  0
 20 21  2  0  0  0  0
 20 26  1  0  0  0  0
 22 20  1  0  0  0  0
 23 22  1  0  0  0  0
 25 24  1  0  0  0  0
 25 32  1  0  0  0  0
 26 25  2  0  0  0  0
 27 26  1  0  0  0  0
 27 29  2  0  0  0  0
 28 27  1  0  0  0  0
 29 31  1  0  0  0  0
 30 29  1  0  0  0  0
 32 31  2  0  0  0  0
M  END
>  <minimizedAffinity>
-5.29503918

$$$$

 OpenBabel03272503063D

 32 34  0  0  0  0  0  0  0  0999 V2000
   36.6520   26.1360   34.3680 F   0  0  0  0  0  0  0  0  0  0  0  0
   36.9880   26.5650   33.1250 C   0  0  0  0  0  0  0  0  0  0  0  0
   37.3330   25.6680   32.1440 C   0  0  0  0  0  0  0  0  0  0  0  0
   37.6600   26.1720   30.9160 C   0  0  0  0  0  0  0  0  0  0  0  0
   37.6530   27.5240   30.6400 C   0  0  0  0  0  0  0  0  0  0  0  0
   37.3050   28.4080   31.6340 C   0  0  0  0  0  0  0  0  0  0  0  0
   36.9680   27.9310   32.8870 C   0  0  0  0  0  0  0  0  0  0  0  0
   37.9310   25.4660   30.1480 H   0  0  0  0  0  0  0  0  0  0  0  0
   37.9230   27.8590   29.6460 H   0  0  0  0  0  0  0  0  0  0  0  0
   37.2920   29.4870   31.4370 H   0  0  0  0  0  0  0  0  0  0  0  0
   38.3070   22.3110   33.5970 C   0  0  0  0  0  0  0  0  0  0  0  0
   38.3290   23.6690   33.2660 C   0  0  0  0  0  0  0  0  0  0  0  0
   37.3220   24.2520   32.4960 C   0  0  0  0  0  0  0  0  0  0  0  0
   36.3170   23.4280   32.0830 N   0  0  0  0  0  0  0  0  0  0  0  0
   36.3080   22.1180   32.4090 C   0  0  0  0  0  0  0  0  0  0  0  0
   37.2810   21.5750   33.1490 N   0  0  0  0  0  0  0  0  0  0  0  0
   39.1290   21.9620   34.1940 H   0  0  0  0  0  0  0  0  0  0  0  0
   39.1320   24.3270   33.5970 H   0  0  0  0  0  0  0  0  0  0  0  0
   35.5290   21.4330   32.1020 H   0  0  0  0  0  0  0  0  0  0  0  0
   35.3250   29.4460   33.7640 C   0  0  0  0  0  0  0  0  0  0  0  0
   34.7360   29.1630   32.6570 O   0  0  0  0  0  0  0  0  0  0  0  0
   36.5960   28.8150   33.9620 N   0  0  0  0  0  0  0  0  0  0  0  0
   37.2080   28.9640   34.7890 H   0  0  0  0  0  0  0  0  0  0  0  0
   32.4320   29.1560   34.3760 Cl  0  0  0  0  0  0  0  0  0  0  0  0
   33.5560   30.2150   35.1830 C   0  0  0  0  0  0  0  0  0  0  0  0
   34.8930   30.3190   34.8700 C   0  0  0  0  0  0  0  0  0  0  0  0
   35.7500   31.1840   35.5480 C   0  0  0  0  0  0  0  0  0  0  0  0
   36.7860   31.2000   35.2330 H   0  0  0  0  0  0  0  0  0  0  0  0
   35.2280   31.9540   36.5670 C   0  0  0  0  0  0  0  0  0  0  0  0
   35.9350   32.6190   37.0740 H   0  0  0  0  0  0  0  0  0  0  0  0
   33.8850   31.8580   36.8930 C   0  0  0  0  0  3  0  0  0  0  0  0
   33.0540   30.9960   36.2090 C   0  0  0  0  0  3  0  0  0  0  0  0
  2  1  1  0  0  0  0
  3 13  1  0  0  0  0
  3  2  2  0  0  0  0
  4  3  1  0  0  0  0
  5  4  2  0  0  0  0
  5  6  1  0  0  0  0
  6  7  2  0  0  0  0
  7  2  1  0  0  0  0
  7 22  1  0  0  0  0
  8  4  1  0  0  0  0
  9  5  1  0  0  0  0
 10  6  1  0  0  0  0
 11 17  1  0  0  0  0
 12 18  1  0  0  0  0
 12 11  1  0  0  0  0
 13 12  2  0  0  0  0
 14 15  2  0  0  0  0
 14 13  1  0  0  0  0
 15 16  1  0  0  0  0
 16 11  2  0  0  0  0
 19 15  1  0  0  0  0
 20 22  1  0  0  0  0
 20 26  1  0  0  0  0
 21 20  2  0  0  0  0
 22 23  1  0  0  0  0
 24 25  1  0  0  0  0
 25 32  1  0  0  0  0
 26 25  2  0  0  0  0
 26 27  1  0  0  0  0
 27 29  2  0  0  0  0
 28 27  1  0  0  0  0
 29 31  1  0  0  0  0
 29 30  1  0  0  0  0
 32 31  2  0  0  0  0
M  END
>  <minimizedAffinity>
-5.25139952

$$$$

 OpenBabel03272503063D

 32 34  0  0  0  0  0  0  0  0999 V2000
   38.6060   26.2490   32.6330 F   0  0  0  0  0  0  0  0  0  0  0  0
   37.6210   25.3930   32.2630 C   0  0  0  0  0  0  0  0  0  0  0  0
   36.4920   25.8550   31.6310 C   0  0  0  0  0  0  0  0  0  0  0  0
   35.5410   24.9350   31.2870 C   0  0  0  0  0  0  0  0  0  0  0  0
   35.6790   23.5870   31.5500 C   0  0  0  0  0  0  0  0  0  0  0  0
   36.8150   23.1420   32.1820 C   0  0  0  0  0  0  0  0  0  0  0  0
   37.7970   24.0460   32.5430 C   0  0  0  0  0  0  0  0  0  0  0  0
   34.6570   25.3010   30.7920 H   0  0  0  0  0  0  0  0  0  0  0  0
   34.8880   22.9100   31.2510 H   0  0  0  0  0  0  0  0  0  0  0  0
   36.9470   22.0750   32.4000 H   0  0  0  0  0  0  0  0  0  0  0  0
   35.7600   29.5450   32.0530 C   0  0  0  0  0  0  0  0  0  0  0  0
   35.8390   28.1720   32.3040 C   0  0  0  0  0  0  0  0  0  0  0  0
   36.4030   27.2900   31.3820 C   0  0  0  0  0  0  0  0  0  0  0  0
   36.8730   27.8370   30.2240 N   0  0  0  0  0  0  0  0  0  0  0  0
   36.7910   29.1650   29.9940 C   0  0  0  0  0  0  0  0  0  0  0  0
   36.2470   29.9960   30.8890 N   0  0  0  0  0  0  0  0  0  0  0  0
   35.3080   30.1360   32.8270 H   0  0  0  0  0  0  0  0  0  0  0  0
   35.4640   27.7360   33.2290 H   0  0  0  0  0  0  0  0  0  0  0  0
   37.1520   29.6360   29.0900 H   0  0  0  0  0  0  0  0  0  0  0  0
   38.9640   23.8100   34.6280 C   0  0  0  0  0  0  0  0  0  0  0  0
   37.8870   24.3430   35.0850 O   0  0  0  0  0  0  0  0  0  0  0  0
   39.0060   23.6300   33.2070 N   0  0  0  0  0  0  0  0  0  0  0  0
   39.8160   23.2410   32.6840 H   0  0  0  0  0  0  0  0  0  0  0  0
   41.2350   25.7070   34.3640 Cl  0  0  0  0  0  0  0  0  0  0  0  0
   41.2440   24.2020   35.2420 C   0  0  0  0  0  0  0  0  0  0  0  0
   40.1680   23.3490   35.3420 C   0  0  0  0  0  0  0  0  0  0  0  0
   40.2300   22.1550   36.0580 C   0  0  0  0  0  0  0  0  0  0  0  0
   39.3340   21.5470   36.0810 H   0  0  0  0  0  0  0  0  0  0  0  0
   41.4150   21.8300   36.6840 C   0  0  0  0  0  0  0  0  0  0  0  0
   41.4210   20.8840   37.2370 H   0  0  0  0  0  0  0  0  0  0  0  0
   42.5050   22.6790   36.5940 C   0  0  0  0  0  3  0  0  0  0  0  0
   42.4230   23.8560   35.8790 C   0  0  0  0  0  3  0  0  0  0  0  0
  2  7  1  0  0  0  0
  2  1  1  0  0  0  0
  3  2  2  0  0  0  0
  4  5  2  0  0  0  0
  4  3  1  0  0  0  0
  5  6  1  0  0  0  0
  6 10  1  0  0  0  0
  6  7  2  0  0  0  0
  7 22  1  0  0  0  0
  8  4  1  0  0  0  0
  9  5  1  0  0  0  0
 11 12  1  0  0  0  0
 11 17  1  0  0  0  0
 12 18  1  0  0  0  0
 13  3  1  0  0  0  0
 13 12  2  0  0  0  0
 14 13  1  0  0  0  0
 15 14  2  0  0  0  0
 15 16  1  0  0  0  0
 16 11  2  0  0  0  0
 19 15  1  0  0  0  0
 20 21  2  0  0  0  0
 20 26  1  0  0  0  0
 22 20  1  0  0  0  0
 23 22  1  0  0  0  0
 24 25  1  0  0  0  0
 25 26  2  0  0  0  0
 25 32  1  0  0  0  0
 26 27  1  0  0  0  0
 27 28  1  0  0  0  0
 27 29  2  0  0  0  0
 29 30  1  0  0  0  0
 31 29  1  0  0  0  0
 32 31  2  0  0  0  0
M  END
>  <minimizedAffinity>
-5.21399069

$$$$
