
 OpenBabel03272505083D

 29 31  0  0  0  0  0  0  0  0999 V2000
   36.4670   30.9150   45.2920 Cl  0  0  0  0  0  0  0  0  0  0  0  0
   36.6550   30.6720   47.0080 C   0  0  0  0  0  0  0  0  0  0  0  0
   37.8860   30.9630   47.5580 C   0  0  0  0  0  0  0  0  0  0  0  0
   38.0420   30.7740   48.9220 C   0  0  0  0  0  0  0  0  0  0  0  0
   36.9980   30.3140   49.6760 C   0  0  0  0  0  0  0  0  0  0  0  0
   35.7840   30.0410   49.0540 C   0  0  0  0  0  0  0  0  0  0  0  0
   35.5570   30.2040   47.7150 C   0  0  0  0  0  0  0  0  0  0  0  0
   38.9970   30.9930   49.3850 H   0  0  0  0  0  0  0  0  0  0  0  0
   37.0760   30.1510   50.7470 H   0  0  0  0  0  0  0  0  0  0  0  0
   34.9730   29.6770   49.6800 H   0  0  0  0  0  0  0  0  0  0  0  0
   40.1910   33.2890   45.9590 C   0  0  0  0  0  0  0  0  0  0  0  0
   41.0080   32.4700   45.1520 C   0  0  0  0  0  0  0  0  0  0  0  0
   40.7450   31.0950   45.1730 C   0  0  0  0  0  0  0  0  0  0  0  0
   39.7310   30.6280   45.9570 N   0  0  0  0  0  0  0  0  0  0  0  0
   38.9850   31.4570   46.7060 C   0  0  0  0  0  0  0  0  0  0  0  0
   39.2180   32.7650   46.7010 N   0  0  0  0  0  0  0  0  0  0  0  0
   40.3570   34.3550   45.9760 H   0  0  0  0  0  0  0  0  0  0  0  0
   41.7990   32.8700   44.5450 H   0  0  0  0  0  0  0  0  0  0  0  0
   41.3320   30.4040   44.5790 H   0  0  0  0  0  0  0  0  0  0  0  0
   34.0160   29.8740   46.9110 S   0  0  0  0  0  0  0  0  0  0  0  0
   32.8140   28.0610   49.1920 Cl  0  0  0  0  0  0  0  0  0  0  0  0
   33.2720   27.3970   47.6390 C   0  0  0  0  0  0  0  0  0  0  0  0
   33.8100   28.1190   46.5730 C   0  0  0  0  0  0  0  0  0  0  0  0
   34.1300   27.4790   45.4000 C   0  0  0  0  0  0  0  0  0  0  0  0
   34.5380   28.1250   44.6410 H   0  0  0  0  0  0  0  0  0  0  0  0
   33.9240   26.1330   45.2700 C   0  0  0  0  0  0  0  0  0  0  0  0
   34.1890   25.6550   44.3220 H   0  0  0  0  0  0  0  0  0  0  0  0
   33.3910   25.3620   46.2950 C   0  0  0  0  0  3  0  0  0  0  0  0
   33.0810   26.0300   47.4580 C   0  0  0  0  0  3  0  0  0  0  0  0
  1  2  1  0  0  0  0
  2  3  2  0  0  0  0
  2  7  1  0  0  0  0
  3  4  1  0  0  0  0
  4  8  1  0  0  0  0
  4  5  2  0  0  0  0
  5  9  1  0  0  0  0
  6  5  1  0  0  0  0
  6 10  1  0  0  0  0
  7  6  2  0  0  0  0
 11 17  1  0  0  0  0
 11 16  1  0  0  0  0
 12 13  1  0  0  0  0
 12 11  2  0  0  0  0
 13 14  2  0  0  0  0
 14 15  1  0  0  0  0
 15  3  1  0  0  0  0
 16 15  2  0  0  0  0
 18 12  1  0  0  0  0
 19 13  1  0  0  0  0
 20  7  1  0  0  0  0
 22 21  1  0  0  0  0
 23 20  1  0  0  0  0
 23 22  2  0  0  0  0
 24 23  1  0  0  0  0
 25 24  1  0  0  0  0
 26 24  2  0  0  0  0
 26 28  1  0  0  0  0
 27 26  1  0  0  0  0
 28 29  2  0  0  0  0
 29 22  1  0  0  0  0
M  END
>  <minimizedAffinity>
-5.57013035

>  <minimizedRMSD>
1.36283278

$$$$
