
 OpenBabel03272501593D

 31 33  0  0  0  0  0  0  0  0999 V2000
   37.4630   25.1130   33.1040 C   0  0  0  0  0  0  0  0  0  0  0  0
   36.6200   25.6740   32.1840 C   0  0  0  0  0  0  0  0  0  0  0  0
   35.9370   24.6960   31.4720 C   0  0  0  0  0  0  0  0  0  0  0  0
   36.4060   23.5440   32.0010 N   0  0  0  0  0  0  0  0  0  0  0  0
   37.3020   23.7940   32.9610 N   0  0  0  0  0  0  0  0  0  0  0  0
   36.4290   26.7310   31.9540 H   0  0  0  0  0  0  0  0  0  0  0  0
   35.2050   24.6720   30.6850 H   0  0  0  0  0  0  0  0  0  0  0  0
   38.4480   22.3680   30.2390 Cl  0  0  0  0  0  0  0  0  0  0  0  0
   37.0620   21.5230   30.9450 C   0  0  0  0  0  0  0  0  0  0  0  0
   36.1540   22.1630   31.7630 C   0  0  0  0  0  0  0  0  0  0  0  0
   35.0760   21.4970   32.3080 C   0  0  0  0  0  0  0  0  0  0  0  0
   34.3770   22.0380   32.9520 H   0  0  0  0  0  0  0  0  0  0  0  0
   34.9220   20.1420   32.0100 C   0  0  0  0  0  0  0  0  0  0  0  0
   34.0720   19.5970   32.4340 H   0  0  0  0  0  0  0  0  0  0  0  0
   35.8350   19.4940   31.1850 C   0  0  0  0  0  3  0  0  0  0  0  0
   36.9050   20.1720   30.6490 C   0  0  0  0  0  3  0  0  0  0  0  0
   38.3530   25.8690   34.0420 C   0  0  0  0  0  0  0  0  0  0  0  0
   39.3840   25.4500   34.0440 H   0  0  0  0  0  0  0  0  0  0  0  0
   38.4570   26.9080   33.6780 H   0  0  0  0  0  0  0  0  0  0  0  0
   37.7160   25.7930   35.3990 C   0  0  0  0  0  0  0  0  0  0  0  0
   36.6300   25.6540   35.3660 H   0  0  0  0  0  0  0  0  0  0  0  0
   37.8890   26.7680   35.9440 H   0  0  0  0  0  0  0  0  0  0  0  0
   40.1920   23.2820   36.4920 C   0  0  0  0  0  0  0  0  0  0  0  0
   39.6950   22.8570   37.7280 C   0  0  0  0  0  0  0  0  0  0  0  0
   38.4950   23.4480   38.1800 C   0  0  0  0  0  0  0  0  0  0  0  0
   37.8820   24.3860   37.4120 N   0  0  0  0  0  0  0  0  0  0  0  0
   38.4240   24.7540   36.2160 C   0  0  0  0  0  0  0  0  0  0  0  0
   39.5550   24.2050   35.7780 N   0  0  0  0  0  0  0  0  0  0  0  0
   41.1120   22.7800   36.2240 H   0  0  0  0  0  0  0  0  0  0  0  0
   40.0620   22.1430   38.4260 H   0  0  0  0  0  0  0  0  0  0  0  0
   37.9640   23.2530   39.0940 H   0  0  0  0  0  0  0  0  0  0  0  0
  1 17  1  0  0  0  0
  2  1  1  0  0  0  0
  3  4  1  0  0  0  0
  3  2  2  0  0  0  0
  4  5  1  0  0  0  0
  5  1  2  0  0  0  0
  6  2  1  0  0  0  0
  7  3  1  0  0  0  0
  8  9  1  0  0  0  0
  9 10  1  0  0  0  0
 10  4  1  0  0  0  0
 10 11  2  0  0  0  0
 11 12  1  0  0  0  0
 13 11  1  0  0  0  0
 13 14  1  0  0  0  0
 15 13  2  0  0  0  0
 16  9  2  0  0  0  0
 16 15  1  0  0  0  0
 17 18  1  0  0  0  0
 17 20  1  0  0  0  0
 19 17  1  0  0  0  0
 20 22  1  0  0  0  0
 20 27  1  0  0  0  0
 21 20  1  0  0  0  0
 23 24  1  0  0  0  0
 24 25  2  0  0  0  0
 24 30  1  0  0  0  0
 25 31  1  0  0  0  0
 26 25  1  0  0  0  0
 27 26  2  0  0  0  0
 28 27  1  0  0  0  0
 28 23  2  0  0  0  0
 29 23  1  0  0  0  0
M  END
>  <minimizedAffinity>
-5.16500568

$$$$

 OpenBabel03272501593D

 31 33  0  0  0  0  0  0  0  0999 V2000
   36.5720   28.1280   33.3140 C   0  0  0  0  0  0  0  0  0  0  0  0
   36.3380   28.9800   32.2710 C   0  0  0  0  0  0  0  0  0  0  0  0
   35.6710   30.1210   32.6990 C   0  0  0  0  0  0  0  0  0  0  0  0
   35.5200   29.9110   34.0260 N   0  0  0  0  0  0  0  0  0  0  0  0
   36.0520   28.7380   34.3830 N   0  0  0  0  0  0  0  0  0  0  0  0
   36.5950   28.8810   31.2070 H   0  0  0  0  0  0  0  0  0  0  0  0
   35.2970   31.0220   32.2470 H   0  0  0  0  0  0  0  0  0  0  0  0
   32.6360   29.3740   34.2510 Cl  0  0  0  0  0  0  0  0  0  0  0  0
   33.5810   30.4650   35.2750 C   0  0  0  0  0  0  0  0  0  0  0  0
   34.9350   30.6520   35.0910 C   0  0  0  0  0  0  0  0  0  0  0  0
   35.6630   31.5050   35.8940 C   0  0  0  0  0  0  0  0  0  0  0  0
   36.7350   31.6280   35.7180 H   0  0  0  0  0  0  0  0  0  0  0  0
   34.9900   32.1840   36.9110 C   0  0  0  0  0  0  0  0  0  0  0  0
   35.5520   32.8660   37.5590 H   0  0  0  0  0  0  0  0  0  0  0  0
   33.6250   31.9980   37.0990 C   0  0  0  0  0  3  0  0  0  0  0  0
   32.9120   31.1440   36.2900 C   0  0  0  0  0  3  0  0  0  0  0  0
   37.2680   26.8040   33.2160 C   0  0  0  0  0  0  0  0  0  0  0  0
   36.5480   25.9630   33.3300 H   0  0  0  0  0  0  0  0  0  0  0  0
   37.6920   26.6960   32.2000 H   0  0  0  0  0  0  0  0  0  0  0  0
   38.3200   26.7880   34.2850 C   0  0  0  0  0  0  0  0  0  0  0  0
   38.3150   27.6810   34.9190 H   0  0  0  0  0  0  0  0  0  0  0  0
   39.3410   26.7560   33.8000 H   0  0  0  0  0  0  0  0  0  0  0  0
   37.9850   24.4040   37.0850 C   0  0  0  0  0  0  0  0  0  0  0  0
   38.0170   23.1580   36.4520 C   0  0  0  0  0  0  0  0  0  0  0  0
   38.1560   23.1500   35.0470 C   0  0  0  0  0  0  0  0  0  0  0  0
   38.2520   24.3290   34.3780 N   0  0  0  0  0  0  0  0  0  0  0  0
   38.2120   25.5090   35.0610 C   0  0  0  0  0  0  0  0  0  0  0  0
   38.0810   25.5310   36.3860 N   0  0  0  0  0  0  0  0  0  0  0  0
   37.8760   24.3180   38.1580 H   0  0  0  0  0  0  0  0  0  0  0  0
   37.9540   22.1700   36.8410 H   0  0  0  0  0  0  0  0  0  0  0  0
   38.2000   22.3000   34.3910 H   0  0  0  0  0  0  0  0  0  0  0  0
  1  5  2  0  0  0  0
  2  3  2  0  0  0  0
  2  1  1  0  0  0  0
  3  4  1  0  0  0  0
  4  5  1  0  0  0  0
  4 10  1  0  0  0  0
  6  2  1  0  0  0  0
  7  3  1  0  0  0  0
  8  9  1  0  0  0  0
  9 16  1  0  0  0  0
 10  9  2  0  0  0  0
 10 11  1  0  0  0  0
 11 13  2  0  0  0  0
 12 11  1  0  0  0  0
 13 15  1  0  0  0  0
 13 14  1  0  0  0  0
 16 15  2  0  0  0  0
 17  1  1  0  0  0  0
 17 18  1  0  0  0  0
 17 20  1  0  0  0  0
 19 17  1  0  0  0  0
 20 21  1  0  0  0  0
 20 27  1  0  0  0  0
 22 20  1  0  0  0  0
 23 29  1  0  0  0  0
 24 30  1  0  0  0  0
 24 23  1  0  0  0  0
 25 24  2  0  0  0  0
 26 25  1  0  0  0  0
 26 27  2  0  0  0  0
 27 28  1  0  0  0  0
 28 23  2  0  0  0  0
 31 25  1  0  0  0  0
M  END
>  <minimizedAffinity>
-5.14291382

$$$$

 OpenBabel03272501593D

 31 33  0  0  0  0  0  0  0  0999 V2000
   37.8100   23.9090   32.5200 C   0  0  0  0  0  0  0  0  0  0  0  0
   38.7050   24.9410   32.4590 C   0  0  0  0  0  0  0  0  0  0  0  0
   39.2300   25.2220   33.7140 C   0  0  0  0  0  0  0  0  0  0  0  0
   38.6140   24.3230   34.5150 N   0  0  0  0  0  0  0  0  0  0  0  0
   37.7810   23.5530   33.8080 N   0  0  0  0  0  0  0  0  0  0  0  0
   39.0390   25.5340   31.5970 H   0  0  0  0  0  0  0  0  0  0  0  0
   39.9360   25.9200   34.1260 H   0  0  0  0  0  0  0  0  0  0  0  0
   40.7700   22.4200   35.1360 Cl  0  0  0  0  0  0  0  0  0  0  0  0
   39.6470   23.1450   36.2960 C   0  0  0  0  0  0  0  0  0  0  0  0
   38.6640   24.0310   35.9070 C   0  0  0  0  0  0  0  0  0  0  0  0
   37.7930   24.5900   36.8180 C   0  0  0  0  0  0  0  0  0  0  0  0
   37.0260   25.2890   36.4730 H   0  0  0  0  0  0  0  0  0  0  0  0
   37.9300   24.2350   38.1610 C   0  0  0  0  0  0  0  0  0  0  0  0
   37.2470   24.6690   38.8990 H   0  0  0  0  0  0  0  0  0  0  0  0
   38.9190   23.3420   38.5570 C   0  0  0  0  0  3  0  0  0  0  0  0
   39.7800   22.7920   37.6360 C   0  0  0  0  0  3  0  0  0  0  0  0
   37.0540   23.3430   31.3570 C   0  0  0  0  0  0  0  0  0  0  0  0
   36.8880   24.1140   30.5720 H   0  0  0  0  0  0  0  0  0  0  0  0
   37.6700   22.5600   30.8770 H   0  0  0  0  0  0  0  0  0  0  0  0
   35.7610   22.8090   31.8990 C   0  0  0  0  0  0  0  0  0  0  0  0
   34.8750   23.2280   31.4090 H   0  0  0  0  0  0  0  0  0  0  0  0
   35.6750   23.0860   32.9910 H   0  0  0  0  0  0  0  0  0  0  0  0
   36.2160   19.3330   30.7390 C   0  0  0  0  0  0  0  0  0  0  0  0
   35.8610   18.5720   31.8570 C   0  0  0  0  0  0  0  0  0  0  0  0
   35.4640   19.2730   33.0170 C   0  0  0  0  0  0  0  0  0  0  0  0
   35.4410   20.6310   33.0020 N   0  0  0  0  0  0  0  0  0  0  0  0
   35.8000   21.3100   31.8750 C   0  0  0  0  0  0  0  0  0  0  0  0
   36.1770   20.6620   30.7740 N   0  0  0  0  0  0  0  0  0  0  0  0
   36.5060   18.7180   29.8990 H   0  0  0  0  0  0  0  0  0  0  0  0
   35.8330   17.5200   32.0120 H   0  0  0  0  0  0  0  0  0  0  0  0
   35.1600   18.8660   33.9640 H   0  0  0  0  0  0  0  0  0  0  0  0
  1  5  2  0  0  0  0
  2  1  1  0  0  0  0
  2  3  2  0  0  0  0
  3  7  1  0  0  0  0
  3  4  1  0  0  0  0
  4 10  1  0  0  0  0
  5  4  1  0  0  0  0
  6  2  1  0  0  0  0
  8  9  1  0  0  0  0
  9 16  1  0  0  0  0
 10  9  2  0  0  0  0
 10 11  1  0  0  0  0
 11 13  2  0  0  0  0
 12 11  1  0  0  0  0
 13 15  1  0  0  0  0
 13 14  1  0  0  0  0
 16 15  2  0  0  0  0
 17 20  1  0  0  0  0
 17  1  1  0  0  0  0
 18 17  1  0  0  0  0
 19 17  1  0  0  0  0
 20 22  1  0  0  0  0
 21 20  1  0  0  0  0
 23 28  2  0  0  0  0
 23 24  1  0  0  0  0
 24 30  1  0  0  0  0
 24 25  2  0  0  0  0
 25 31  1  0  0  0  0
 26 25  1  0  0  0  0
 27 20  1  0  0  0  0
 27 26  2  0  0  0  0
 28 27  1  0  0  0  0
 29 23  1  0  0  0  0
M  END
>  <minimizedAffinity>
-5.09378815

$$$$

 OpenBabel03272501593D

 31 33  0  0  0  0  0  0  0  0999 V2000
   36.1470   29.6540   32.3460 C   0  0  0  0  0  0  0  0  0  0  0  0
   35.7730   30.8080   31.7140 C   0  0  0  0  0  0  0  0  0  0  0  0
   34.9550   31.5810   32.5280 C   0  0  0  0  0  0  0  0  0  0  0  0
   34.8590   30.8450   33.6580 N   0  0  0  0  0  0  0  0  0  0  0  0
   35.5610   29.7130   33.5460 N   0  0  0  0  0  0  0  0  0  0  0  0
   36.0240   31.1740   30.7090 H   0  0  0  0  0  0  0  0  0  0  0  0
   34.4470   32.5250   32.4520 H   0  0  0  0  0  0  0  0  0  0  0  0
   36.4540   32.4710   35.5200 Cl  0  0  0  0  0  0  0  0  0  0  0  0
   34.8640   31.7660   35.8440 C   0  0  0  0  0  0  0  0  0  0  0  0
   34.1910   31.0150   34.9030 C   0  0  0  0  0  0  0  0  0  0  0  0
   32.9520   30.4690   35.1650 C   0  0  0  0  0  0  0  0  0  0  0  0
   32.4490   29.8780   34.3940 H   0  0  0  0  0  0  0  0  0  0  0  0
   32.3850   30.6970   36.4200 C   0  0  0  0  0  0  0  0  0  0  0  0
   31.4020   30.2710   36.6460 H   0  0  0  0  0  0  0  0  0  0  0  0
   33.0600   31.4530   37.3710 C   0  0  0  0  0  3  0  0  0  0  0  0
   34.2960   31.9910   37.0950 C   0  0  0  0  0  3  0  0  0  0  0  0
   37.0250   28.5890   31.7650 C   0  0  0  0  0  0  0  0  0  0  0  0
   36.6100   28.2040   30.8060 H   0  0  0  0  0  0  0  0  0  0  0  0
   38.0040   29.0340   31.5050 H   0  0  0  0  0  0  0  0  0  0  0  0
   37.1370   27.5080   32.7990 C   0  0  0  0  0  0  0  0  0  0  0  0
   36.6990   27.7790   33.7650 H   0  0  0  0  0  0  0  0  0  0  0  0
   38.2300   27.3000   32.9990 H   0  0  0  0  0  0  0  0  0  0  0  0
   36.6630   23.9210   32.0630 C   0  0  0  0  0  0  0  0  0  0  0  0
   35.5710   23.9140   31.1900 C   0  0  0  0  0  0  0  0  0  0  0  0
   34.9980   25.1610   30.8600 C   0  0  0  0  0  0  0  0  0  0  0  0
   35.5220   26.2980   31.3900 N   0  0  0  0  0  0  0  0  0  0  0  0
   36.5900   26.2310   32.2360 C   0  0  0  0  0  0  0  0  0  0  0  0
   37.1390   25.0610   32.5560 N   0  0  0  0  0  0  0  0  0  0  0  0
   37.0370   22.9260   32.2610 H   0  0  0  0  0  0  0  0  0  0  0  0
   35.0620   23.1140   30.7060 H   0  0  0  0  0  0  0  0  0  0  0  0
   34.1620   25.3560   30.2130 H   0  0  0  0  0  0  0  0  0  0  0  0
  1  5  2  0  0  0  0
  2  1  1  0  0  0  0
  2  3  2  0  0  0  0
  3  4  1  0  0  0  0
  4 10  1  0  0  0  0
  5  4  1  0  0  0  0
  6  2  1  0  0  0  0
  7  3  1  0  0  0  0
  8  9  1  0  0  0  0
  9 16  1  0  0  0  0
 10 11  1  0  0  0  0
 10  9  2  0  0  0  0
 11 13  2  0  0  0  0
 12 11  1  0  0  0  0
 13 14  1  0  0  0  0
 13 15  1  0  0  0  0
 16 15  2  0  0  0  0
 17  1  1  0  0  0  0
 17 20  1  0  0  0  0
 18 17  1  0  0  0  0
 19 17  1  0  0  0  0
 20 22  1  0  0  0  0
 20 21  1  0  0  0  0
 23 29  1  0  0  0  0
 23 28  1  0  0  0  0
 24 23  2  0  0  0  0
 25 24  1  0  0  0  0
 25 26  2  0  0  0  0
 26 27  1  0  0  0  0
 27 28  2  0  0  0  0
 27 20  1  0  0  0  0
 30 24  1  0  0  0  0
 31 25  1  0  0  0  0
M  END
>  <minimizedAffinity>
-4.99149323

$$$$

 OpenBabel03272501593D

 31 33  0  0  0  0  0  0  0  0999 V2000
   36.4660   28.1790   32.7870 C   0  0  0  0  0  0  0  0  0  0  0  0
   36.2350   29.1320   31.8330 C   0  0  0  0  0  0  0  0  0  0  0  0
   35.6350   30.2560   32.3870 C   0  0  0  0  0  0  0  0  0  0  0  0
   35.5200   29.9330   33.6940 N   0  0  0  0  0  0  0  0  0  0  0  0
   36.0100   28.7110   33.9250 N   0  0  0  0  0  0  0  0  0  0  0  0
   36.4520   29.1190   30.7570 H   0  0  0  0  0  0  0  0  0  0  0  0
   35.2880   31.2090   32.0310 H   0  0  0  0  0  0  0  0  0  0  0  0
   32.6590   29.3610   34.0740 Cl  0  0  0  0  0  0  0  0  0  0  0  0
   33.6670   30.3890   35.1030 C   0  0  0  0  0  0  0  0  0  0  0  0
   35.0050   30.5980   34.8420 C   0  0  0  0  0  0  0  0  0  0  0  0
   35.7830   31.4020   35.6500 C   0  0  0  0  0  0  0  0  0  0  0  0
   36.8400   31.5440   35.4110 H   0  0  0  0  0  0  0  0  0  0  0  0
   35.1770   32.0080   36.7520 C   0  0  0  0  0  0  0  0  0  0  0  0
   35.7790   32.6500   37.4040 H   0  0  0  0  0  0  0  0  0  0  0  0
   33.8290   31.8000   37.0180 C   0  0  0  0  0  3  0  0  0  0  0  0
   33.0660   30.9960   36.2030 C   0  0  0  0  0  3  0  0  0  0  0  0
   37.0970   26.8420   32.5460 C   0  0  0  0  0  0  0  0  0  0  0  0
   38.2070   26.9140   32.5530 H   0  0  0  0  0  0  0  0  0  0  0  0
   36.8390   26.1680   33.3840 H   0  0  0  0  0  0  0  0  0  0  0  0
   36.5770   26.3480   31.2280 C   0  0  0  0  0  0  0  0  0  0  0  0
   37.0380   26.8390   30.3640 H   0  0  0  0  0  0  0  0  0  0  0  0
   35.4710   26.5690   31.1600 H   0  0  0  0  0  0  0  0  0  0  0  0
   37.9120   22.9410   30.7350 C   0  0  0  0  0  0  0  0  0  0  0  0
   36.8490   22.1200   31.1230 C   0  0  0  0  0  0  0  0  0  0  0  0
   35.6650   22.7560   31.5570 C   0  0  0  0  0  0  0  0  0  0  0  0
   35.6060   24.1130   31.5800 N   0  0  0  0  0  0  0  0  0  0  0  0
   36.6830   24.8530   31.1870 C   0  0  0  0  0  0  0  0  0  0  0  0
   37.8050   24.2660   30.7760 N   0  0  0  0  0  0  0  0  0  0  0  0
   38.7760   22.3730   30.4180 H   0  0  0  0  0  0  0  0  0  0  0  0
   36.7540   21.0610   31.1570 H   0  0  0  0  0  0  0  0  0  0  0  0
   34.7520   22.2980   31.8920 H   0  0  0  0  0  0  0  0  0  0  0  0
  1  5  2  0  0  0  0
  2  3  2  0  0  0  0
  2  1  1  0  0  0  0
  3  4  1  0  0  0  0
  4  5  1  0  0  0  0
  4 10  1  0  0  0  0
  6  2  1  0  0  0  0
  7  3  1  0  0  0  0
  8  9  1  0  0  0  0
  9 16  1  0  0  0  0
 10  9  2  0  0  0  0
 10 11  1  0  0  0  0
 11 13  2  0  0  0  0
 12 11  1  0  0  0  0
 13 15  1  0  0  0  0
 13 14  1  0  0  0  0
 16 15  2  0  0  0  0
 17 18  1  0  0  0  0
 17  1  1  0  0  0  0
 17 19  1  0  0  0  0
 20 17  1  0  0  0  0
 21 20  1  0  0  0  0
 22 20  1  0  0  0  0
 23 28  2  0  0  0  0
 23 24  1  0  0  0  0
 24 30  1  0  0  0  0
 24 25  2  0  0  0  0
 25 26  1  0  0  0  0
 25 31  1  0  0  0  0
 27 20  1  0  0  0  0
 27 26  2  0  0  0  0
 28 27  1  0  0  0  0
 29 23  1  0  0  0  0
M  END
>  <minimizedAffinity>
-4.92634153

$$$$

 OpenBabel03272501593D

 31 33  0  0  0  0  0  0  0  0999 V2000
   36.7650   27.7730   33.3930 C   0  0  0  0  0  0  0  0  0  0  0  0
   37.2410   28.1480   32.1680 C   0  0  0  0  0  0  0  0  0  0  0  0
   37.4450   27.0410   31.3520 C   0  0  0  0  0  0  0  0  0  0  0  0
   37.0760   26.0060   32.1370 N   0  0  0  0  0  0  0  0  0  0  0  0
   36.6760   26.4400   33.3370 N   0  0  0  0  0  0  0  0  0  0  0  0
   37.4660   29.1480   31.7740 H   0  0  0  0  0  0  0  0  0  0  0  0
   37.7940   26.8650   30.3510 H   0  0  0  0  0  0  0  0  0  0  0  0
   34.5880   25.1840   30.7980 Cl  0  0  0  0  0  0  0  0  0  0  0  0
   35.8880   24.1120   31.3420 C   0  0  0  0  0  0  0  0  0  0  0  0
   37.0210   24.5940   31.9640 C   0  0  0  0  0  0  0  0  0  0  0  0
   38.0280   23.7510   32.3850 C   0  0  0  0  0  0  0  0  0  0  0  0
   38.9120   24.1700   32.8740 H   0  0  0  0  0  0  0  0  0  0  0  0
   37.8740   22.3810   32.1640 C   0  0  0  0  0  0  0  0  0  0  0  0
   38.6640   21.6970   32.4920 H   0  0  0  0  0  0  0  0  0  0  0  0
   36.7330   21.8920   31.5390 C   0  0  0  0  0  3  0  0  0  0  0  0
   35.7370   22.7450   31.1240 C   0  0  0  0  0  3  0  0  0  0  0  0
   36.4350   28.7030   34.5200 C   0  0  0  0  0  0  0  0  0  0  0  0
   35.8880   28.1730   35.3320 H   0  0  0  0  0  0  0  0  0  0  0  0
   37.3760   29.0570   34.9810 H   0  0  0  0  0  0  0  0  0  0  0  0
   35.6220   29.8200   33.9360 C   0  0  0  0  0  0  0  0  0  0  0  0
   34.9410   29.4970   33.1410 H   0  0  0  0  0  0  0  0  0  0  0  0
   36.3170   30.5760   33.4630 H   0  0  0  0  0  0  0  0  0  0  0  0
   35.0190   32.0450   36.8210 C   0  0  0  0  0  0  0  0  0  0  0  0
   33.6500   31.8920   37.0630 C   0  0  0  0  0  0  0  0  0  0  0  0
   32.9380   31.0130   36.2190 C   0  0  0  0  0  0  0  0  0  0  0  0
   33.5960   30.3610   35.2250 N   0  0  0  0  0  0  0  0  0  0  0  0
   34.9330   30.5580   35.0450 C   0  0  0  0  0  0  0  0  0  0  0  0
   35.6180   31.3850   35.8330 N   0  0  0  0  0  0  0  0  0  0  0  0
   35.4840   32.7340   37.5110 H   0  0  0  0  0  0  0  0  0  0  0  0
   33.0120   32.3300   37.7930 H   0  0  0  0  0  0  0  0  0  0  0  0
   31.8910   30.7680   36.2490 H   0  0  0  0  0  0  0  0  0  0  0  0
  1 17  1  0  0  0  0
  2  1  1  0  0  0  0
  3  4  1  0  0  0  0
  3  2  2  0  0  0  0
  4  5  1  0  0  0  0
  5  1  2  0  0  0  0
  6  2  1  0  0  0  0
  7  3  1  0  0  0  0
  8  9  1  0  0  0  0
  9 10  1  0  0  0  0
 10  4  1  0  0  0  0
 10 11  2  0  0  0  0
 11 12  1  0  0  0  0
 13 11  1  0  0  0  0
 13 14  1  0  0  0  0
 15 13  2  0  0  0  0
 16  9  2  0  0  0  0
 16 15  1  0  0  0  0
 17 19  1  0  0  0  0
 17 18  1  0  0  0  0
 20 17  1  0  0  0  0
 20 27  1  0  0  0  0
 21 20  1  0  0  0  0
 22 20  1  0  0  0  0
 23 24  1  0  0  0  0
 23 29  1  0  0  0  0
 24 30  1  0  0  0  0
 25 31  1  0  0  0  0
 25 24  2  0  0  0  0
 26 25  1  0  0  0  0
 27 26  2  0  0  0  0
 27 28  1  0  0  0  0
 28 23  2  0  0  0  0
M  END
>  <minimizedAffinity>
-4.89445782

$$$$

 OpenBabel03272501593D

 31 33  0  0  0  0  0  0  0  0999 V2000
   35.4860   29.6490   32.1050 C   0  0  0  0  0  0  0  0  0  0  0  0
   36.1350   29.7940   30.9110 C   0  0  0  0  0  0  0  0  0  0  0  0
   36.5470   28.5640   30.4140 C   0  0  0  0  0  0  0  0  0  0  0  0
   36.1210   27.6920   31.3550 N   0  0  0  0  0  0  0  0  0  0  0  0
   35.4970   28.3350   32.3470 N   0  0  0  0  0  0  0  0  0  0  0  0
   36.3550   30.7030   30.3330 H   0  0  0  0  0  0  0  0  0  0  0  0
   37.0710   28.2100   29.5450 H   0  0  0  0  0  0  0  0  0  0  0  0
   38.5270   26.8930   32.8470 Cl  0  0  0  0  0  0  0  0  0  0  0  0
   37.2890   25.8070   32.1980 C   0  0  0  0  0  0  0  0  0  0  0  0
   36.1910   26.2790   31.5080 C   0  0  0  0  0  0  0  0  0  0  0  0
   35.2320   25.4260   31.0050 C   0  0  0  0  0  0  0  0  0  0  0  0
   34.3760   25.8360   30.4640 H   0  0  0  0  0  0  0  0  0  0  0  0
   35.3980   24.0550   31.2120 C   0  0  0  0  0  0  0  0  0  0  0  0
   34.6460   23.3620   30.8190 H   0  0  0  0  0  0  0  0  0  0  0  0
   36.5040   23.5760   31.9060 C   0  0  0  0  0  3  0  0  0  0  0  0
   37.4520   24.4400   32.4020 C   0  0  0  0  0  3  0  0  0  0  0  0
   34.9090   30.7640   32.9230 C   0  0  0  0  0  0  0  0  0  0  0  0
   35.1230   31.7540   32.4610 H   0  0  0  0  0  0  0  0  0  0  0  0
   33.8060   30.6720   32.9250 H   0  0  0  0  0  0  0  0  0  0  0  0
   35.5010   30.6470   34.2960 C   0  0  0  0  0  0  0  0  0  0  0  0
   36.3440   31.3250   34.4680 H   0  0  0  0  0  0  0  0  0  0  0  0
   35.9070   29.6020   34.4360 H   0  0  0  0  0  0  0  0  0  0  0  0
   33.5730   31.7820   37.2330 C   0  0  0  0  0  0  0  0  0  0  0  0
   32.4020   31.0210   37.1620 C   0  0  0  0  0  0  0  0  0  0  0  0
   32.2850   30.1110   36.0890 C   0  0  0  0  0  0  0  0  0  0  0  0
   33.2950   30.0120   35.1850 N   0  0  0  0  0  0  0  0  0  0  0  0
   34.4100   30.7870   35.3150 C   0  0  0  0  0  0  0  0  0  0  0  0
   34.5330   31.6490   36.3220 N   0  0  0  0  0  0  0  0  0  0  0  0
   33.5780   32.4510   38.0830 H   0  0  0  0  0  0  0  0  0  0  0  0
   31.5420   30.9930   37.7880 H   0  0  0  0  0  0  0  0  0  0  0  0
   31.4690   29.4470   35.8690 H   0  0  0  0  0  0  0  0  0  0  0  0
  1  5  2  0  0  0  0
  1 17  1  0  0  0  0
  2  1  1  0  0  0  0
  3  2  2  0  0  0  0
  3  4  1  0  0  0  0
  4 10  1  0  0  0  0
  4  5  1  0  0  0  0
  6  2  1  0  0  0  0
  7  3  1  0  0  0  0
  9 16  1  0  0  0  0
  9  8  1  0  0  0  0
 10  9  2  0  0  0  0
 11 13  2  0  0  0  0
 11 10  1  0  0  0  0
 12 11  1  0  0  0  0
 13 15  1  0  0  0  0
 14 13  1  0  0  0  0
 15 16  2  0  0  0  0
 17 19  1  0  0  0  0
 17 20  1  0  0  0  0
 18 17  1  0  0  0  0
 20 22  1  0  0  0  0
 20 21  1  0  0  0  0
 20 27  1  0  0  0  0
 23 29  1  0  0  0  0
 24 23  1  0  0  0  0
 24 30  1  0  0  0  0
 25 24  2  0  0  0  0
 26 27  2  0  0  0  0
 26 25  1  0  0  0  0
 27 28  1  0  0  0  0
 28 23  2  0  0  0  0
 31 25  1  0  0  0  0
M  END
>  <minimizedAffinity>
-4.87372875

$$$$

 OpenBabel03272501593D

 31 33  0  0  0  0  0  0  0  0999 V2000
   37.4170   25.9350   33.0980 C   0  0  0  0  0  0  0  0  0  0  0  0
   38.0810   27.0570   33.5120 C   0  0  0  0  0  0  0  0  0  0  0  0
   38.7420   26.8310   34.7130 C   0  0  0  0  0  0  0  0  0  0  0  0
   38.4440   25.5420   34.9920 N   0  0  0  0  0  0  0  0  0  0  0  0
   37.6650   25.0200   34.0400 N   0  0  0  0  0  0  0  0  0  0  0  0
   38.1530   28.0470   33.0430 H   0  0  0  0  0  0  0  0  0  0  0  0
   39.3620   27.4000   35.3810 H   0  0  0  0  0  0  0  0  0  0  0  0
   40.8310   23.9470   34.3480 Cl  0  0  0  0  0  0  0  0  0  0  0  0
   39.8830   23.8580   35.8410 C   0  0  0  0  0  0  0  0  0  0  0  0
   38.7740   24.6510   36.0520 C   0  0  0  0  0  0  0  0  0  0  0  0
   38.0410   24.5740   37.2170 C   0  0  0  0  0  0  0  0  0  0  0  0
   37.1680   25.2180   37.3490 H   0  0  0  0  0  0  0  0  0  0  0  0
   38.4530   23.6640   38.1930 C   0  0  0  0  0  0  0  0  0  0  0  0
   37.8830   23.5890   39.1260 H   0  0  0  0  0  0  0  0  0  0  0  0
   39.5700   22.8640   37.9840 C   0  0  0  0  0  3  0  0  0  0  0  0
   40.2910   22.9520   36.8160 C   0  0  0  0  0  3  0  0  0  0  0  0
   36.6000   25.8200   31.8480 C   0  0  0  0  0  0  0  0  0  0  0  0
   35.6470   25.2770   32.0390 H   0  0  0  0  0  0  0  0  0  0  0  0
   36.3030   26.8330   31.5190 H   0  0  0  0  0  0  0  0  0  0  0  0
   37.4530   25.1120   30.8370 C   0  0  0  0  0  0  0  0  0  0  0  0
   38.5200   25.3420   30.9270 H   0  0  0  0  0  0  0  0  0  0  0  0
   37.1490   25.4430   29.8000 H   0  0  0  0  0  0  0  0  0  0  0  0
   37.8630   21.4460   30.6770 C   0  0  0  0  0  0  0  0  0  0  0  0
   36.5850   20.9660   30.9810 C   0  0  0  0  0  0  0  0  0  0  0  0
   35.5810   21.9230   31.2430 C   0  0  0  0  0  0  0  0  0  0  0  0
   35.8870   23.2460   31.1890 N   0  0  0  0  0  0  0  0  0  0  0  0
   37.1560   23.6440   30.8860 C   0  0  0  0  0  0  0  0  0  0  0  0
   38.1140   22.7520   30.6370 N   0  0  0  0  0  0  0  0  0  0  0  0
   38.5680   20.6480   30.4910 H   0  0  0  0  0  0  0  0  0  0  0  0
   36.2060   19.9760   31.0590 H   0  0  0  0  0  0  0  0  0  0  0  0
   34.5500   21.7490   31.4930 H   0  0  0  0  0  0  0  0  0  0  0  0
  1  2  1  0  0  0  0
  1  5  2  0  0  0  0
  2  3  2  0  0  0  0
  3  4  1  0  0  0  0
  3  7  1  0  0  0  0
  4 10  1  0  0  0  0
  5  4  1  0  0  0  0
  6  2  1  0  0  0  0
  8  9  1  0  0  0  0
  9 10  2  0  0  0  0
  9 16  1  0  0  0  0
 10 11  1  0  0  0  0
 11 12  1  0  0  0  0
 11 13  2  0  0  0  0
 13 14  1  0  0  0  0
 15 13  1  0  0  0  0
 16 15  2  0  0  0  0
 17 18  1  0  0  0  0
 17  1  1  0  0  0  0
 19 17  1  0  0  0  0
 20 27  1  0  0  0  0
 20 21  1  0  0  0  0
 20 17  1  0  0  0  0
 22 20  1  0  0  0  0
 23 24  1  0  0  0  0
 24 30  1  0  0  0  0
 24 25  2  0  0  0  0
 25 31  1  0  0  0  0
 26 25  1  0  0  0  0
 27 26  2  0  0  0  0
 28 23  2  0  0  0  0
 28 27  1  0  0  0  0
 29 23  1  0  0  0  0
M  END
>  <minimizedAffinity>
-4.82108879

$$$$

 OpenBabel03272501593D

 31 33  0  0  0  0  0  0  0  0999 V2000
   36.0260   29.6000   32.3170 C   0  0  0  0  0  0  0  0  0  0  0  0
   35.8660   30.8400   31.7620 C   0  0  0  0  0  0  0  0  0  0  0  0
   35.1520   31.6780   32.6100 C   0  0  0  0  0  0  0  0  0  0  0  0
   34.8960   30.8910   33.6790 N   0  0  0  0  0  0  0  0  0  0  0  0
   35.4120   29.6710   33.5030 N   0  0  0  0  0  0  0  0  0  0  0  0
   36.2100   31.2290   30.7940 H   0  0  0  0  0  0  0  0  0  0  0  0
   34.8050   32.6950   32.5900 H   0  0  0  0  0  0  0  0  0  0  0  0
   36.5190   32.4620   35.5660 Cl  0  0  0  0  0  0  0  0  0  0  0  0
   34.9010   31.8090   35.8670 C   0  0  0  0  0  0  0  0  0  0  0  0
   34.2170   31.0810   34.9150 C   0  0  0  0  0  0  0  0  0  0  0  0
   32.9570   30.5760   35.1590 C   0  0  0  0  0  0  0  0  0  0  0  0
   32.4460   30.0040   34.3810 H   0  0  0  0  0  0  0  0  0  0  0  0
   32.3810   30.8210   36.4070 C   0  0  0  0  0  0  0  0  0  0  0  0
   31.3810   30.4280   36.6190 H   0  0  0  0  0  0  0  0  0  0  0  0
   33.0680   31.5530   37.3680 C   0  0  0  0  0  3  0  0  0  0  0  0
   34.3240   32.0510   37.1110 C   0  0  0  0  0  3  0  0  0  0  0  0
   36.7440   28.4490   31.6830 C   0  0  0  0  0  0  0  0  0  0  0  0
   36.3560   28.2490   30.6590 H   0  0  0  0  0  0  0  0  0  0  0  0
   37.8070   28.7210   31.5470 H   0  0  0  0  0  0  0  0  0  0  0  0
   36.5600   27.2690   32.5910 C   0  0  0  0  0  0  0  0  0  0  0  0
   36.3150   26.3430   32.0600 H   0  0  0  0  0  0  0  0  0  0  0  0
   35.6920   27.4690   33.2870 H   0  0  0  0  0  0  0  0  0  0  0  0
   38.6710   26.9670   35.6050 C   0  0  0  0  0  0  0  0  0  0  0  0
   39.9680   26.9170   35.0850 C   0  0  0  0  0  0  0  0  0  0  0  0
   40.1060   26.9880   33.6820 C   0  0  0  0  0  0  0  0  0  0  0  0
   38.9960   27.1010   32.9070 N   0  0  0  0  0  0  0  0  0  0  0  0
   37.7590   27.1440   33.4810 C   0  0  0  0  0  0  0  0  0  0  0  0
   37.6150   27.0780   34.8040 N   0  0  0  0  0  0  0  0  0  0  0  0
   38.6580   26.9070   36.6840 H   0  0  0  0  0  0  0  0  0  0  0  0
   40.9140   26.8310   35.5630 H   0  0  0  0  0  0  0  0  0  0  0  0
   41.0110   26.9640   33.1030 H   0  0  0  0  0  0  0  0  0  0  0  0
  1  5  2  0  0  0  0
  2  1  1  0  0  0  0
  2  3  2  0  0  0  0
  3  4  1  0  0  0  0
  4 10  1  0  0  0  0
  5  4  1  0  0  0  0
  6  2  1  0  0  0  0
  7  3  1  0  0  0  0
  8  9  1  0  0  0  0
  9 16  1  0  0  0  0
 10 11  1  0  0  0  0
 10  9  2  0  0  0  0
 11 13  2  0  0  0  0
 12 11  1  0  0  0  0
 13 14  1  0  0  0  0
 13 15  1  0  0  0  0
 16 15  2  0  0  0  0
 17  1  1  0  0  0  0
 17 20  1  0  0  0  0
 18 17  1  0  0  0  0
 19 17  1  0  0  0  0
 20 22  1  0  0  0  0
 20 27  1  0  0  0  0
 21 20  1  0  0  0  0
 23 29  1  0  0  0  0
 24 30  1  0  0  0  0
 24 23  1  0  0  0  0
 25 24  2  0  0  0  0
 26 27  2  0  0  0  0
 26 25  1  0  0  0  0
 27 28  1  0  0  0  0
 28 23  2  0  0  0  0
 31 25  1  0  0  0  0
M  END
>  <minimizedAffinity>
-4.81856203

$$$$
