
 OpenBabel03272509443D

 38 40  0  0  1  0  0  0  0  0999 V2000
   36.7070   28.3890   32.3950 C   0  0  0  0  0  0  0  0  0  0  0  0
   36.1620   29.4380   31.6520 C   0  0  0  0  0  0  0  0  0  0  0  0
   35.3990   30.4340   32.2410 C   0  0  0  0  0  0  0  0  0  0  0  0
   35.1650   30.3940   33.6190 C   0  0  0  0  0  0  0  0  0  0  0  0
   35.7030   29.3640   34.3360 C   0  0  0  0  0  0  0  0  0  0  0  0
   36.4610   28.3850   33.7100 C   0  0  0  0  0  0  0  0  0  0  0  0
   36.3500   29.4590   30.5790 H   0  0  0  0  0  0  0  0  0  0  0  0
   35.0260   31.1920   31.5850 H   0  0  0  0  0  0  0  0  0  0  0  0
   34.5660   31.2040   33.9880 H   0  0  0  0  0  0  0  0  0  0  0  0
   35.4340   29.4690   35.3870 H   0  0  0  0  0  0  0  0  0  0  0  0
   37.4770   27.3320   31.7760 C   0  0  2  0  0  0  0  0  0  0  0  0
   37.3790   27.5140   30.6380 H   0  0  0  0  0  0  0  0  0  0  0  0
   37.3110   23.7140   32.0800 C   0  0  0  0  0  0  0  0  0  0  0  0
   36.0400   23.3980   31.6430 C   0  0  0  0  0  0  0  0  0  0  0  0
   35.2410   24.4240   31.1760 C   0  0  0  0  0  0  0  0  0  0  0  0
   35.7310   25.7120   31.1630 N   0  0  0  0  0  0  0  0  0  0  0  0
   36.9510   25.9480   31.5960 C   0  0  0  0  0  0  0  0  0  0  0  0
   37.7500   24.9580   32.0540 N   0  0  0  0  0  0  0  0  0  0  0  0
   37.9760   22.9320   32.4560 H   0  0  0  0  0  0  0  0  0  0  0  0
   35.7400   22.3610   31.6900 H   0  0  0  0  0  0  0  0  0  0  0  0
   34.2460   24.1850   30.8310 H   0  0  0  0  0  0  0  0  0  0  0  0
   38.7430   27.5330   31.8560 O   0  0  0  0  0  0  0  0  0  0  0  0
   39.3940   26.7950   31.9240 H   0  0  0  0  0  0  0  0  0  0  0  0
   36.9430   27.3380   34.5800 C   0  0  0  0  0  3  0  0  0  0  0  0
   37.9040   27.5090   35.4940 C   0  0  0  0  0  3  0  0  0  0  0  0
   38.4390   26.5250   36.4650 C   0  0  0  0  0  0  0  0  0  0  0  0
   39.5600   26.6010   36.4340 H   0  0  0  0  0  0  0  0  0  0  0  0
   38.0960   26.7280   37.5010 H   0  0  0  0  0  0  0  0  0  0  0  0
   37.9360   24.8680   35.9900 S   0  0  0  0  0  0  0  0  0  0  0  0
   38.4240   23.3560   38.6370 Cl  0  0  0  0  0  0  0  0  0  0  0  0
   39.5190   23.1810   37.2660 C   0  0  0  0  0  0  0  0  0  0  0  0
   39.3800   23.8160   36.0500 C   0  0  0  0  0  0  0  0  0  0  0  0
   40.2990   23.6060   35.0430 C   0  0  0  0  0  0  0  0  0  0  0  0
   40.0950   24.1540   34.1300 H   0  0  0  0  0  0  0  0  0  0  0  0
   41.3640   22.7440   35.2810 C   0  0  0  0  0  0  0  0  0  0  0  0
   42.0540   22.6090   34.4750 H   0  0  0  0  0  0  0  0  0  0  0  0
   41.4940   22.1140   36.5000 C   0  0  0  0  0  3  0  0  0  0  0  0
   40.5820   22.3130   37.5210 C   0  0  0  0  0  3  0  0  0  0  0  0
  1  6  1  0  0  0  0
  2  3  1  0  0  0  0
  2  1  2  0  0  0  0
  3  4  2  0  0  0  0
  4  9  1  0  0  0  0
  4  5  1  0  0  0  0
  5 10  1  0  0  0  0
  6  5  2  0  0  0  0
  6 24  1  0  0  0  0
  7  2  1  0  0  0  0
  8  3  1  0  0  0  0
 11 12  1  6  0  0  0
 11 22  1  0  0  0  0
 11  1  1  0  0  0  0
 13 19  1  0  0  0  0
 14 20  1  0  0  0  0
 14 13  2  0  0  0  0
 15 14  1  0  0  0  0
 16 15  2  0  0  0  0
 16 17  1  0  0  0  0
 17 11  1  0  0  0  0
 17 18  2  0  0  0  0
 18 13  1  0  0  0  0
 21 15  1  0  0  0  0
 22 23  1  0  0  0  0
 24 25  2  0  0  0  0
 25 26  1  0  0  0  0
 26 28  1  0  0  0  0
 27 26  1  0  0  0  0
 29 32  1  0  0  0  0
 29 26  1  0  0  0  0
 31 38  1  0  0  0  0
 31 30  1  0  0  0  0
 32 31  2  0  0  0  0
 33 35  2  0  0  0  0
 33 32  1  0  0  0  0
 34 33  1  0  0  0  0
 35 37  1  0  0  0  0
 36 35  1  0  0  0  0
 37 38  2  0  0  0  0
M  END
>  <minimizedAffinity>
-6.05403662

$$$$

 OpenBabel03272509443D

 38 40  0  0  1  0  0  0  0  0999 V2000
   36.3620   28.2330   31.9450 C   0  0  0  0  0  0  0  0  0  0  0  0
   35.4140   29.2580   31.9270 C   0  0  0  0  0  0  0  0  0  0  0  0
   34.9490   29.8470   33.0920 C   0  0  0  0  0  0  0  0  0  0  0  0
   35.4390   29.4070   34.3260 C   0  0  0  0  0  0  0  0  0  0  0  0
   36.3660   28.4040   34.3320 C   0  0  0  0  0  0  0  0  0  0  0  0
   36.8060   27.8390   33.1450 C   0  0  0  0  0  0  0  0  0  0  0  0
   35.0390   29.5930   30.9610 H   0  0  0  0  0  0  0  0  0  0  0  0
   34.2230   30.6230   32.9700 H   0  0  0  0  0  0  0  0  0  0  0  0
   35.0240   29.9190   35.1720 H   0  0  0  0  0  0  0  0  0  0  0  0
   36.6470   28.1720   35.3590 H   0  0  0  0  0  0  0  0  0  0  0  0
   36.8240   27.5960   30.7320 C   0  0  2  0  0  0  0  0  0  0  0  0
   37.5610   26.7760   31.0820 H   0  0  0  0  0  0  0  0  0  0  0  0
   38.3130   29.5870   28.0800 C   0  0  0  0  0  0  0  0  0  0  0  0
   39.6630   29.5730   28.3680 C   0  0  0  0  0  0  0  0  0  0  0  0
   40.0900   28.8230   29.4470 C   0  0  0  0  0  0  0  0  0  0  0  0
   39.1660   28.1230   30.1930 N   0  0  0  0  0  0  0  0  0  0  0  0
   37.8910   28.1800   29.8680 C   0  0  0  0  0  0  0  0  0  0  0  0
   37.4540   28.9060   28.8140 N   0  0  0  0  0  0  0  0  0  0  0  0
   37.9350   30.1660   27.2340 H   0  0  0  0  0  0  0  0  0  0  0  0
   40.3160   30.1510   27.7290 H   0  0  0  0  0  0  0  0  0  0  0  0
   41.1450   28.8050   29.6780 H   0  0  0  0  0  0  0  0  0  0  0  0
   35.9460   26.8080   30.2240 O   0  0  0  0  0  0  0  0  0  0  0  0
   35.8680   26.6570   29.2520 H   0  0  0  0  0  0  0  0  0  0  0  0
   37.7630   26.7680   33.2980 C   0  0  0  0  0  3  0  0  0  0  0  0
   39.0230   26.9440   33.7090 C   0  0  0  0  0  3  0  0  0  0  0  0
   40.0680   25.9200   33.9460 C   0  0  0  0  0  0  0  0  0  0  0  0
   40.7340   25.9070   33.0400 H   0  0  0  0  0  0  0  0  0  0  0  0
   40.6850   26.1490   34.8400 H   0  0  0  0  0  0  0  0  0  0  0  0
   39.3030   24.3090   34.1530 S   0  0  0  0  0  0  0  0  0  0  0  0
   41.1490   22.3300   35.6390 Cl  0  0  0  0  0  0  0  0  0  0  0  0
   39.8480   23.1760   36.4770 C   0  0  0  0  0  0  0  0  0  0  0  0
   38.9780   24.0740   35.8960 C   0  0  0  0  0  0  0  0  0  0  0  0
   37.9940   24.6810   36.6470 C   0  0  0  0  0  0  0  0  0  0  0  0
   37.3660   25.3680   36.0910 H   0  0  0  0  0  0  0  0  0  0  0  0
   37.8990   24.3670   37.9990 C   0  0  0  0  0  0  0  0  0  0  0  0
   37.1220   24.8590   38.5460 H   0  0  0  0  0  0  0  0  0  0  0  0
   38.7740   23.4690   38.5710 C   0  0  0  0  0  3  0  0  0  0  0  0
   39.7660   22.8510   37.8320 C   0  0  0  0  0  3  0  0  0  0  0  0
  1  6  1  0  0  0  0
  2  1  2  0  0  0  0
  2  3  1  0  0  0  0
  3  4  2  0  0  0  0
  4  5  1  0  0  0  0
  4  9  1  0  0  0  0
  5 10  1  0  0  0  0
  6 24  1  0  0  0  0
  6  5  2  0  0  0  0
  7  2  1  0  0  0  0
  8  3  1  0  0  0  0
 11 12  1  1  0  0  0
 11  1  1  0  0  0  0
 13 14  2  0  0  0  0
 13 18  1  0  0  0  0
 14 15  1  0  0  0  0
 15 21  1  0  0  0  0
 15 16  2  0  0  0  0
 17 16  1  0  0  0  0
 17 11  1  0  0  0  0
 18 17  2  0  0  0  0
 19 13  1  0  0  0  0
 20 14  1  0  0  0  0
 22 11  1  0  0  0  0
 23 22  1  0  0  0  0
 24 25  2  0  0  0  0
 25 26  1  0  0  0  0
 26 29  1  0  0  0  0
 26 28  1  0  0  0  0
 27 26  1  0  0  0  0
 29 32  1  0  0  0  0
 30 31  1  0  0  0  0
 31 38  1  0  0  0  0
 32 31  2  0  0  0  0
 32 33  1  0  0  0  0
 33 35  2  0  0  0  0
 34 33  1  0  0  0  0
 35 36  1  0  0  0  0
 35 37  1  0  0  0  0
 38 37  2  0  0  0  0
M  END
>  <minimizedAffinity>
-5.91030693

$$$$

 OpenBabel03272509443D

 38 40  0  0  1  0  0  0  0  0999 V2000
   37.5460   21.9360   33.4230 C   0  0  0  0  0  0  0  0  0  0  0  0
   36.4450   21.0830   33.5180 C   0  0  0  0  0  0  0  0  0  0  0  0
   35.3390   21.2190   32.6940 C   0  0  0  0  0  0  0  0  0  0  0  0
   35.3180   22.2390   31.7370 C   0  0  0  0  0  0  0  0  0  0  0  0
   36.4000   23.0680   31.6530 C   0  0  0  0  0  0  0  0  0  0  0  0
   37.4880   22.9000   32.4960 C   0  0  0  0  0  0  0  0  0  0  0  0
   36.4710   20.2920   34.2660 H   0  0  0  0  0  0  0  0  0  0  0  0
   34.5480   20.5160   32.8470 H   0  0  0  0  0  0  0  0  0  0  0  0
   34.4240   22.2690   31.1450 H   0  0  0  0  0  0  0  0  0  0  0  0
   36.2360   23.8060   30.8680 H   0  0  0  0  0  0  0  0  0  0  0  0
   38.6870   21.8140   34.3030 C   0  0  2  0  0  0  0  0  0  0  0  0
   38.6350   20.7350   34.7170 H   0  0  0  0  0  0  0  0  0  0  0  0
   39.9820   22.6510   37.5950 C   0  0  0  0  0  0  0  0  0  0  0  0
   39.0230   23.4880   38.1290 C   0  0  0  0  0  0  0  0  0  0  0  0
   37.8820   23.7280   37.3870 C   0  0  0  0  0  0  0  0  0  0  0  0
   37.7410   23.1320   36.1520 N   0  0  0  0  0  0  0  0  0  0  0  0
   38.6940   22.3450   35.6970 C   0  0  0  0  0  0  0  0  0  0  0  0
   39.8160   22.0960   36.4090 N   0  0  0  0  0  0  0  0  0  0  0  0
   40.8970   22.4340   38.1500 H   0  0  0  0  0  0  0  0  0  0  0  0
   39.2180   23.9110   39.1050 H   0  0  0  0  0  0  0  0  0  0  0  0
   37.1270   24.3800   37.7990 H   0  0  0  0  0  0  0  0  0  0  0  0
   39.7920   21.6800   33.6620 O   0  0  0  0  0  0  0  0  0  0  0  0
   40.6500   22.0260   34.0050 H   0  0  0  0  0  0  0  0  0  0  0  0
   38.5500   23.8640   32.3210 C   0  0  0  0  0  3  0  0  0  0  0  0
   38.7650   24.5400   31.1880 C   0  0  0  0  0  3  0  0  0  0  0  0
   39.7860   25.5790   30.9130 C   0  0  0  0  0  0  0  0  0  0  0  0
   40.6940   25.3250   31.5250 H   0  0  0  0  0  0  0  0  0  0  0  0
   40.0750   25.6120   29.8410 H   0  0  0  0  0  0  0  0  0  0  0  0
   39.1610   27.1890   31.4050 S   0  0  0  0  0  0  0  0  0  0  0  0
   36.2290   27.5060   32.3220 Cl  0  0  0  0  0  0  0  0  0  0  0  0
   37.5370   27.3000   33.4870 C   0  0  0  0  0  0  0  0  0  0  0  0
   38.8710   27.1520   33.1690 C   0  0  0  0  0  0  0  0  0  0  0  0
   39.8140   26.9960   34.1640 C   0  0  0  0  0  0  0  0  0  0  0  0
   40.8300   26.8880   33.8030 H   0  0  0  0  0  0  0  0  0  0  0  0
   39.3900   26.9930   35.4890 C   0  0  0  0  0  0  0  0  0  0  0  0
   40.1520   26.8700   36.2290 H   0  0  0  0  0  0  0  0  0  0  0  0
   38.0550   27.1410   35.7960 C   0  0  0  0  0  3  0  0  0  0  0  0
   37.0970   27.2980   34.8110 C   0  0  0  0  0  3  0  0  0  0  0  0
  1  2  1  0  0  0  0
  1 11  1  0  0  0  0
  2  7  1  0  0  0  0
  3  8  1  0  0  0  0
  3  2  2  0  0  0  0
  4  3  1  0  0  0  0
  5  4  2  0  0  0  0
  5  6  1  0  0  0  0
  6  1  2  0  0  0  0
  9  4  1  0  0  0  0
 10  5  1  0  0  0  0
 11 12  1  1  0  0  0
 11 17  1  0  0  0  0
 13 14  1  0  0  0  0
 13 19  1  0  0  0  0
 14 20  1  0  0  0  0
 15 21  1  0  0  0  0
 15 14  2  0  0  0  0
 16 15  1  0  0  0  0
 17 16  2  0  0  0  0
 17 18  1  0  0  0  0
 18 13  2  0  0  0  0
 22 23  1  0  0  0  0
 22 11  1  0  0  0  0
 24  6  1  0  0  0  0
 25 24  2  0  0  0  0
 26 25  1  0  0  0  0
 26 29  1  0  0  0  0
 26 27  1  0  0  0  0
 28 26  1  0  0  0  0
 29 32  1  0  0  0  0
 30 31  1  0  0  0  0
 31 38  1  0  0  0  0
 32 31  2  0  0  0  0
 32 33  1  0  0  0  0
 33 35  2  0  0  0  0
 34 33  1  0  0  0  0
 35 37  1  0  0  0  0
 35 36  1  0  0  0  0
 38 37  2  0  0  0  0
M  END
>  <minimizedAffinity>
-5.80886221

$$$$

 OpenBabel03272509443D

 38 40  0  0  1  0  0  0  0  0999 V2000
   36.8220   23.1520   31.8260 C   0  0  0  0  0  0  0  0  0  0  0  0
   35.4960   22.7950   31.5780 C   0  0  0  0  0  0  0  0  0  0  0  0
   34.9410   21.6320   32.0880 C   0  0  0  0  0  0  0  0  0  0  0  0
   35.7280   20.7860   32.8760 C   0  0  0  0  0  0  0  0  0  0  0  0
   37.0240   21.1440   33.1130 C   0  0  0  0  0  0  0  0  0  0  0  0
   37.5430   22.3170   32.5840 C   0  0  0  0  0  0  0  0  0  0  0  0
   34.8920   23.4610   30.9630 H   0  0  0  0  0  0  0  0  0  0  0  0
   33.9170   21.4490   31.8390 H   0  0  0  0  0  0  0  0  0  0  0  0
   35.2170   19.9110   33.2280 H   0  0  0  0  0  0  0  0  0  0  0  0
   37.5050   20.3900   33.7360 H   0  0  0  0  0  0  0  0  0  0  0  0
   37.4100   24.3490   31.2680 C   0  0  2  0  0  0  0  0  0  0  0  0
   38.4760   24.4000   31.7150 H   0  0  0  0  0  0  0  0  0  0  0  0
   35.9060   27.6520   31.4660 C   0  0  0  0  0  0  0  0  0  0  0  0
   36.2430   28.0990   32.7280 C   0  0  0  0  0  0  0  0  0  0  0  0
   37.0490   27.2930   33.5090 C   0  0  0  0  0  0  0  0  0  0  0  0
   37.4840   26.0840   33.0100 N   0  0  0  0  0  0  0  0  0  0  0  0
   37.1250   25.7130   31.7980 C   0  0  0  0  0  0  0  0  0  0  0  0
   36.3400   26.4900   31.0180 N   0  0  0  0  0  0  0  0  0  0  0  0
   35.2730   28.2600   30.8170 H   0  0  0  0  0  0  0  0  0  0  0  0
   35.8570   29.0600   33.0380 H   0  0  0  0  0  0  0  0  0  0  0  0
   37.3190   27.6350   34.4970 H   0  0  0  0  0  0  0  0  0  0  0  0
   37.7660   24.1980   30.0420 O   0  0  0  0  0  0  0  0  0  0  0  0
   37.7470   24.9370   29.3890 H   0  0  0  0  0  0  0  0  0  0  0  0
   38.9350   22.5580   32.8860 C   0  0  0  0  0  3  0  0  0  0  0  0
   39.6540   21.8180   33.7360 C   0  0  0  0  0  3  0  0  0  0  0  0
   41.0890   21.9450   34.0830 C   0  0  0  0  0  0  0  0  0  0  0  0
   41.3480   21.0840   34.7560 H   0  0  0  0  0  0  0  0  0  0  0  0
   41.7430   21.9070   33.1860 H   0  0  0  0  0  0  0  0  0  0  0  0
   41.3690   23.4920   34.9510 S   0  0  0  0  0  0  0  0  0  0  0  0
   41.2870   21.7830   37.5220 Cl  0  0  0  0  0  0  0  0  0  0  0  0
   40.0270   22.9640   37.1650 C   0  0  0  0  0  0  0  0  0  0  0  0
   39.9820   23.7680   36.0450 C   0  0  0  0  0  0  0  0  0  0  0  0
   38.9460   24.6600   35.8660 C   0  0  0  0  0  0  0  0  0  0  0  0
   39.0090   25.2410   34.9530 H   0  0  0  0  0  0  0  0  0  0  0  0
   37.9520   24.7300   36.8360 C   0  0  0  0  0  0  0  0  0  0  0  0
   37.1660   25.4350   36.6580 H   0  0  0  0  0  0  0  0  0  0  0  0
   38.0050   23.9240   37.9510 C   0  0  0  0  0  3  0  0  0  0  0  0
   39.0360   23.0230   38.1470 C   0  0  0  0  0  3  0  0  0  0  0  0
  1  6  1  0  0  0  0
  2  1  2  0  0  0  0
  2  3  1  0  0  0  0
  3  4  2  0  0  0  0
  4  5  1  0  0  0  0
  4  9  1  0  0  0  0
  5 10  1  0  0  0  0
  6 24  1  0  0  0  0
  6  5  2  0  0  0  0
  7  2  1  0  0  0  0
  8  3  1  0  0  0  0
 11 12  1  1  0  0  0
 11 17  1  0  0  0  0
 11  1  1  0  0  0  0
 13 14  1  0  0  0  0
 14 20  1  0  0  0  0
 14 15  2  0  0  0  0
 15 21  1  0  0  0  0
 16 15  1  0  0  0  0
 17 16  2  0  0  0  0
 18 13  2  0  0  0  0
 18 17  1  0  0  0  0
 19 13  1  0  0  0  0
 22 11  1  0  0  0  0
 23 22  1  0  0  0  0
 24 25  2  0  0  0  0
 25 26  1  0  0  0  0
 26 27  1  0  0  0  0
 26 29  1  0  0  0  0
 28 26  1  0  0  0  0
 29 32  1  0  0  0  0
 31 30  1  0  0  0  0
 31 38  1  0  0  0  0
 32 31  2  0  0  0  0
 33 32  1  0  0  0  0
 33 35  2  0  0  0  0
 34 33  1  0  0  0  0
 35 37  1  0  0  0  0
 36 35  1  0  0  0  0
 37 38  2  0  0  0  0
M  END
>  <minimizedAffinity>
-5.62962246

$$$$

 OpenBabel03272509443D

 38 40  0  0  1  0  0  0  0  0999 V2000
   36.2420   20.7380   33.1040 C   0  0  0  0  0  0  0  0  0  0  0  0
   36.2570   19.3700   32.8220 C   0  0  0  0  0  0  0  0  0  0  0  0
   36.1780   18.8900   31.5240 C   0  0  0  0  0  0  0  0  0  0  0  0
   36.0810   19.7950   30.4620 C   0  0  0  0  0  0  0  0  0  0  0  0
   36.0680   21.1290   30.7500 C   0  0  0  0  0  0  0  0  0  0  0  0
   36.1470   21.5720   32.0620 C   0  0  0  0  0  0  0  0  0  0  0  0
   36.3320   18.6740   33.6560 H   0  0  0  0  0  0  0  0  0  0  0  0
   36.1970   17.8260   31.4140 H   0  0  0  0  0  0  0  0  0  0  0  0
   36.0260   19.3340   29.4950 H   0  0  0  0  0  0  0  0  0  0  0  0
   35.9870   21.7030   29.8270 H   0  0  0  0  0  0  0  0  0  0  0  0
   36.2910   21.2390   34.4600 C   0  0  2  0  0  0  0  0  0  0  0  0
   35.7230   22.2460   34.4310 H   0  0  0  0  0  0  0  0  0  0  0  0
   38.3430   23.0050   36.8860 C   0  0  0  0  0  0  0  0  0  0  0  0
   39.6120   22.9640   36.3440 C   0  0  0  0  0  0  0  0  0  0  0  0
   39.7700   22.3810   35.1010 C   0  0  0  0  0  0  0  0  0  0  0  0
   38.6700   21.8650   34.4510 N   0  0  0  0  0  0  0  0  0  0  0  0
   37.4860   21.9320   35.0230 C   0  0  0  0  0  0  0  0  0  0  0  0
   37.3110   22.5010   36.2370 N   0  0  0  0  0  0  0  0  0  0  0  0
   38.1750   23.4590   37.8650 H   0  0  0  0  0  0  0  0  0  0  0  0
   40.4170   23.3940   36.9240 H   0  0  0  0  0  0  0  0  0  0  0  0
   40.7600   22.3470   34.6690 H   0  0  0  0  0  0  0  0  0  0  0  0
   35.4770   20.6260   35.2420 O   0  0  0  0  0  0  0  0  0  0  0  0
   35.6650   20.4870   36.2000 H   0  0  0  0  0  0  0  0  0  0  0  0
   36.0910   23.0060   32.2260 C   0  0  0  0  0  3  0  0  0  0  0  0
   35.9590   23.8690   31.2140 C   0  0  0  0  0  3  0  0  0  0  0  0
   35.8440   25.3460   31.2700 C   0  0  0  0  0  0  0  0  0  0  0  0
   35.2660   25.6700   30.3630 H   0  0  0  0  0  0  0  0  0  0  0  0
   35.3060   25.6910   32.1790 H   0  0  0  0  0  0  0  0  0  0  0  0
   37.4800   26.0840   31.2370 S   0  0  0  0  0  0  0  0  0  0  0  0
   40.3470   27.1600   31.6370 Cl  0  0  0  0  0  0  0  0  0  0  0  0
   39.3020   26.8010   33.0120 C   0  0  0  0  0  0  0  0  0  0  0  0
   38.0120   26.3190   32.9280 C   0  0  0  0  0  0  0  0  0  0  0  0
   37.2820   26.0730   34.0720 C   0  0  0  0  0  0  0  0  0  0  0  0
   36.2820   25.6960   33.8910 H   0  0  0  0  0  0  0  0  0  0  0  0
   37.8740   26.3210   35.3060 C   0  0  0  0  0  0  0  0  0  0  0  0
   37.2740   26.1160   36.1680 H   0  0  0  0  0  0  0  0  0  0  0  0
   39.1630   26.8020   35.3790 C   0  0  0  0  0  3  0  0  0  0  0  0
   39.9090   27.0550   34.2430 C   0  0  0  0  0  3  0  0  0  0  0  0
  1 11  1  0  0  0  0
  2  1  1  0  0  0  0
  2  7  1  0  0  0  0
  3  2  2  0  0  0  0
  4  5  2  0  0  0  0
  4  3  1  0  0  0  0
  5  6  1  0  0  0  0
  6 24  1  0  0  0  0
  6  1  2  0  0  0  0
  8  3  1  0  0  0  0
  9  4  1  0  0  0  0
 10  5  1  0  0  0  0
 11 12  1  6  0  0  0
 11 17  1  0  0  0  0
 11 22  1  0  0  0  0
 13 19  1  0  0  0  0
 14 13  1  0  0  0  0
 14 20  1  0  0  0  0
 15 14  2  0  0  0  0
 16 17  2  0  0  0  0
 16 15  1  0  0  0  0
 17 18  1  0  0  0  0
 18 13  2  0  0  0  0
 21 15  1  0  0  0  0
 22 23  1  0  0  0  0
 25 26  1  0  0  0  0
 25 24  2  0  0  0  0
 26 28  1  0  0  0  0
 27 26  1  0  0  0  0
 29 26  1  0  0  0  0
 29 32  1  0  0  0  0
 30 31  1  0  0  0  0
 31 38  1  0  0  0  0
 32 31  2  0  0  0  0
 32 33  1  0  0  0  0
 33 35  2  0  0  0  0
 34 33  1  0  0  0  0
 35 37  1  0  0  0  0
 35 36  1  0  0  0  0
 38 37  2  0  0  0  0
M  END
>  <minimizedAffinity>
-5.61386633

$$$$

 OpenBabel03272509443D

 38 40  0  0  1  0  0  0  0  0999 V2000
   36.4710   26.1560   31.1390 C   0  0  0  0  0  0  0  0  0  0  0  0
   35.3320   25.3610   31.0020 C   0  0  0  0  0  0  0  0  0  0  0  0
   35.3670   23.9900   31.1980 C   0  0  0  0  0  0  0  0  0  0  0  0
   36.5770   23.3780   31.5440 C   0  0  0  0  0  0  0  0  0  0  0  0
   37.6840   24.1650   31.6750 C   0  0  0  0  0  0  0  0  0  0  0  0
   37.6080   25.5340   31.4700 C   0  0  0  0  0  0  0  0  0  0  0  0
   34.3950   25.8480   30.7320 H   0  0  0  0  0  0  0  0  0  0  0  0
   34.4410   23.4710   31.0680 H   0  0  0  0  0  0  0  0  0  0  0  0
   36.5100   22.3150   31.6760 H   0  0  0  0  0  0  0  0  0  0  0  0
   38.5420   23.5490   31.9440 H   0  0  0  0  0  0  0  0  0  0  0  0
   36.4410   27.5830   30.9040 C   0  0  2  0  0  0  0  0  0  0  0  0
   37.5180   27.9470   31.1160 H   0  0  0  0  0  0  0  0  0  0  0  0
   35.8430   29.0960   34.1540 C   0  0  0  0  0  0  0  0  0  0  0  0
   35.3230   30.3400   33.8540 C   0  0  0  0  0  0  0  0  0  0  0  0
   35.1110   30.6530   32.5250 C   0  0  0  0  0  0  0  0  0  0  0  0
   35.4230   29.7260   31.5540 N   0  0  0  0  0  0  0  0  0  0  0  0
   35.9180   28.5570   31.9050 C   0  0  0  0  0  0  0  0  0  0  0  0
   36.1300   28.2320   33.2000 N   0  0  0  0  0  0  0  0  0  0  0  0
   36.0230   28.8090   35.1920 H   0  0  0  0  0  0  0  0  0  0  0  0
   35.1080   31.0030   34.6800 H   0  0  0  0  0  0  0  0  0  0  0  0
   34.7030   31.6220   32.2820 H   0  0  0  0  0  0  0  0  0  0  0  0
   36.4230   27.8760   29.6530 O   0  0  0  0  0  0  0  0  0  0  0  0
   35.9660   28.6760   29.3020 H   0  0  0  0  0  0  0  0  0  0  0  0
   38.8600   26.2420   31.6110 C   0  0  0  0  0  3  0  0  0  0  0  0
   40.0020   25.6690   32.0040 C   0  0  0  0  0  3  0  0  0  0  0  0
   41.3440   26.2830   32.1370 C   0  0  0  0  0  0  0  0  0  0  0  0
   42.0760   25.6020   31.6240 H   0  0  0  0  0  0  0  0  0  0  0  0
   41.3960   27.2860   31.6630 H   0  0  0  0  0  0  0  0  0  0  0  0
   41.7760   26.4290   33.8750 S   0  0  0  0  0  0  0  0  0  0  0  0
   41.1910   23.5320   34.7670 Cl  0  0  0  0  0  0  0  0  0  0  0  0
   40.1070   24.8570   35.1890 C   0  0  0  0  0  0  0  0  0  0  0  0
   40.2880   26.1780   34.8340 C   0  0  0  0  0  0  0  0  0  0  0  0
   39.3740   27.1360   35.2190 C   0  0  0  0  0  0  0  0  0  0  0  0
   39.6130   28.1400   34.8870 H   0  0  0  0  0  0  0  0  0  0  0  0
   38.2710   26.7430   35.9690 C   0  0  0  0  0  0  0  0  0  0  0  0
   37.5870   27.5170   36.2460 H   0  0  0  0  0  0  0  0  0  0  0  0
   38.0990   25.4210   36.3180 C   0  0  0  0  0  3  0  0  0  0  0  0
   39.0050   24.4470   35.9410 C   0  0  0  0  0  3  0  0  0  0  0  0
  1  6  1  0  0  0  0
  2  1  2  0  0  0  0
  2  3  1  0  0  0  0
  3  4  2  0  0  0  0
  4  5  1  0  0  0  0
  4  9  1  0  0  0  0
  5 10  1  0  0  0  0
  6 24  1  0  0  0  0
  6  5  2  0  0  0  0
  7  2  1  0  0  0  0
  8  3  1  0  0  0  0
 11 12  1  1  0  0  0
 11  1  1  0  0  0  0
 11 17  1  0  0  0  0
 13 19  1  0  0  0  0
 14 13  1  0  0  0  0
 14 20  1  0  0  0  0
 15 14  2  0  0  0  0
 16 17  2  0  0  0  0
 16 15  1  0  0  0  0
 17 18  1  0  0  0  0
 18 13  2  0  0  0  0
 21 15  1  0  0  0  0
 22 11  1  0  0  0  0
 23 22  1  0  0  0  0
 24 25  2  0  0  0  0
 25 26  1  0  0  0  0
 26 29  1  0  0  0  0
 27 26  1  0  0  0  0
 28 26  1  0  0  0  0
 29 32  1  0  0  0  0
 30 31  1  0  0  0  0
 31 38  1  0  0  0  0
 32 31  2  0  0  0  0
 32 33  1  0  0  0  0
 33 35  2  0  0  0  0
 34 33  1  0  0  0  0
 35 36  1  0  0  0  0
 35 37  1  0  0  0  0
 38 37  2  0  0  0  0
M  END
>  <minimizedAffinity>
-5.57721996

$$$$

 OpenBabel03272509443D

 38 40  0  0  1  0  0  0  0  0999 V2000
   36.3870   21.9990   31.9980 C   0  0  0  0  0  0  0  0  0  0  0  0
   35.3040   21.4030   31.3500 C   0  0  0  0  0  0  0  0  0  0  0  0
   34.6780   20.2740   31.8560 C   0  0  0  0  0  0  0  0  0  0  0  0
   35.1400   19.7110   33.0500 C   0  0  0  0  0  0  0  0  0  0  0  0
   36.2000   20.3020   33.6750 C   0  0  0  0  0  0  0  0  0  0  0  0
   36.8000   21.4310   33.1370 C   0  0  0  0  0  0  0  0  0  0  0  0
   34.9520   21.8490   30.4210 H   0  0  0  0  0  0  0  0  0  0  0  0
   33.8580   19.8930   31.2840 H   0  0  0  0  0  0  0  0  0  0  0  0
   34.5960   18.8410   33.3660 H   0  0  0  0  0  0  0  0  0  0  0  0
   36.4420   19.7520   34.5840 H   0  0  0  0  0  0  0  0  0  0  0  0
   37.0600   23.1580   31.4550 C   0  0  2  0  0  0  0  0  0  0  0  0
   37.9320   23.3710   32.1840 H   0  0  0  0  0  0  0  0  0  0  0  0
   37.0080   26.5950   32.6350 C   0  0  0  0  0  0  0  0  0  0  0  0
   35.9990   27.1860   31.9010 C   0  0  0  0  0  0  0  0  0  0  0  0
   35.2770   26.3920   31.0310 C   0  0  0  0  0  0  0  0  0  0  0  0
   35.5840   25.0520   30.9240 N   0  0  0  0  0  0  0  0  0  0  0  0
   36.5610   24.5490   31.6500 C   0  0  0  0  0  0  0  0  0  0  0  0
   37.2760   25.3090   32.5090 N   0  0  0  0  0  0  0  0  0  0  0  0
   37.6010   27.1870   33.3360 H   0  0  0  0  0  0  0  0  0  0  0  0
   35.8280   28.2430   32.0490 H   0  0  0  0  0  0  0  0  0  0  0  0
   34.4850   26.8460   30.4540 H   0  0  0  0  0  0  0  0  0  0  0  0
   37.7820   22.8730   30.4310 O   0  0  0  0  0  0  0  0  0  0  0  0
   37.9300   23.5090   29.6920 H   0  0  0  0  0  0  0  0  0  0  0  0
   37.9290   21.9350   33.8840 C   0  0  0  0  0  3  0  0  0  0  0  0
   39.1990   21.5920   33.6420 C   0  0  0  0  0  3  0  0  0  0  0  0
   40.4290   22.0790   34.3080 C   0  0  0  0  0  0  0  0  0  0  0  0
   41.0940   21.1890   34.4740 H   0  0  0  0  0  0  0  0  0  0  0  0
   40.9750   22.8230   33.6900 H   0  0  0  0  0  0  0  0  0  0  0  0
   40.0100   22.8200   35.8890 S   0  0  0  0  0  0  0  0  0  0  0  0
   37.4890   24.0350   37.1930 Cl  0  0  0  0  0  0  0  0  0  0  0  0
   38.5950   25.0240   36.2420 C   0  0  0  0  0  0  0  0  0  0  0  0
   39.7410   24.5680   35.6240 C   0  0  0  0  0  0  0  0  0  0  0  0
   40.5370   25.4320   34.9020 C   0  0  0  0  0  0  0  0  0  0  0  0
   41.4120   24.9700   34.4590 H   0  0  0  0  0  0  0  0  0  0  0  0
   40.1590   26.7680   34.8100 C   0  0  0  0  0  0  0  0  0  0  0  0
   40.8030   27.4040   34.2400 H   0  0  0  0  0  0  0  0  0  0  0  0
   39.0130   27.2130   35.4300 C   0  0  0  0  0  3  0  0  0  0  0  0
   38.2030   26.3610   36.1580 C   0  0  0  0  0  3  0  0  0  0  0  0
  1  6  1  0  0  0  0
  2  3  1  0  0  0  0
  2  1  2  0  0  0  0
  3  4  2  0  0  0  0
  4  9  1  0  0  0  0
  4  5  1  0  0  0  0
  5 10  1  0  0  0  0
  6  5  2  0  0  0  0
  6 24  1  0  0  0  0
  7  2  1  0  0  0  0
  8  3  1  0  0  0  0
 11 17  1  0  0  0  0
 11  1  1  0  0  0  0
 11 12  1  1  0  0  0
 13 19  1  0  0  0  0
 14 20  1  0  0  0  0
 14 13  2  0  0  0  0
 15 14  1  0  0  0  0
 16 15  2  0  0  0  0
 16 17  1  0  0  0  0
 17 18  2  0  0  0  0
 18 13  1  0  0  0  0
 21 15  1  0  0  0  0
 22 11  1  0  0  0  0
 23 22  1  0  0  0  0
 25 24  2  0  0  0  0
 25 26  1  0  0  0  0
 26 27  1  0  0  0  0
 26 29  1  0  0  0  0
 28 26  1  0  0  0  0
 31 30  1  0  0  0  0
 32 29  1  0  0  0  0
 32 31  2  0  0  0  0
 33 32  1  0  0  0  0
 34 33  1  0  0  0  0
 35 33  2  0  0  0  0
 35 37  1  0  0  0  0
 36 35  1  0  0  0  0
 37 38  2  0  0  0  0
 38 31  1  0  0  0  0
M  END
>  <minimizedAffinity>
-5.56863689

$$$$

 OpenBabel03272509443D

 38 40  0  0  1  0  0  0  0  0999 V2000
   37.8080   24.6420   33.0200 C   0  0  0  0  0  0  0  0  0  0  0  0
   37.4550   23.4830   32.3270 C   0  0  0  0  0  0  0  0  0  0  0  0
   36.4140   23.4640   31.4120 C   0  0  0  0  0  0  0  0  0  0  0  0
   35.6910   24.6370   31.1710 C   0  0  0  0  0  0  0  0  0  0  0  0
   36.0450   25.7650   31.8540 C   0  0  0  0  0  0  0  0  0  0  0  0
   37.0930   25.7440   32.7620 C   0  0  0  0  0  0  0  0  0  0  0  0
   38.0240   22.5750   32.5220 H   0  0  0  0  0  0  0  0  0  0  0  0
   36.2230   22.5260   30.9350 H   0  0  0  0  0  0  0  0  0  0  0  0
   34.9060   24.5290   30.4480 H   0  0  0  0  0  0  0  0  0  0  0  0
   35.3950   26.5890   31.5620 H   0  0  0  0  0  0  0  0  0  0  0  0
   38.8730   24.6550   33.9970 C   0  0  2  0  0  0  0  0  0  0  0  0
   39.5160   23.7240   33.7560 H   0  0  0  0  0  0  0  0  0  0  0  0
   39.5530   22.7730   37.0320 C   0  0  0  0  0  0  0  0  0  0  0  0
   38.7360   23.3580   37.9790 C   0  0  0  0  0  0  0  0  0  0  0  0
   37.8900   24.3720   37.5710 C   0  0  0  0  0  0  0  0  0  0  0  0
   37.8900   24.7620   36.2490 N   0  0  0  0  0  0  0  0  0  0  0  0
   38.6950   24.1650   35.3950 C   0  0  0  0  0  0  0  0  0  0  0  0
   39.5280   23.1700   35.7740 N   0  0  0  0  0  0  0  0  0  0  0  0
   40.2340   21.9670   37.3130 H   0  0  0  0  0  0  0  0  0  0  0  0
   38.8030   22.9880   38.9920 H   0  0  0  0  0  0  0  0  0  0  0  0
   37.2470   24.8330   38.3060 H   0  0  0  0  0  0  0  0  0  0  0  0
   39.7720   25.5340   33.7350 O   0  0  0  0  0  0  0  0  0  0  0  0
   40.2820   25.9990   34.4400 H   0  0  0  0  0  0  0  0  0  0  0  0
   37.3400   26.9970   33.4370 C   0  0  0  0  0  3  0  0  0  0  0  0
   36.3780   27.8460   33.8120 C   0  0  0  0  0  3  0  0  0  0  0  0
   36.5120   29.1260   34.5460 C   0  0  0  0  0  0  0  0  0  0  0  0
   36.3190   28.9110   35.6320 H   0  0  0  0  0  0  0  0  0  0  0  0
   37.5270   29.5650   34.4440 H   0  0  0  0  0  0  0  0  0  0  0  0
   35.2970   30.3030   33.9410 S   0  0  0  0  0  0  0  0  0  0  0  0
   35.8090   32.4580   36.0930 Cl  0  0  0  0  0  0  0  0  0  0  0  0
   34.3480   31.4700   36.1140 C   0  0  0  0  0  0  0  0  0  0  0  0
   34.0370   30.4870   35.1970 C   0  0  0  0  0  0  0  0  0  0  0  0
   32.8630   29.7730   35.3080 C   0  0  0  0  0  0  0  0  0  0  0  0
   32.7190   29.0260   34.5360 H   0  0  0  0  0  0  0  0  0  0  0  0
   32.0030   30.0640   36.3620 C   0  0  0  0  0  0  0  0  0  0  0  0
   31.1040   29.4870   36.4120 H   0  0  0  0  0  0  0  0  0  0  0  0
   32.3220   31.0480   37.2720 C   0  0  0  0  0  3  0  0  0  0  0  0
   33.4950   31.7740   37.1760 C   0  0  0  0  0  3  0  0  0  0  0  0
  1 11  1  0  0  0  0
  2  7  1  0  0  0  0
  2  1  2  0  0  0  0
  3  2  1  0  0  0  0
  4  3  2  0  0  0  0
  4  5  1  0  0  0  0
  5  6  2  0  0  0  0
  6  1  1  0  0  0  0
  6 24  1  0  0  0  0
  8  3  1  0  0  0  0
  9  4  1  0  0  0  0
 10  5  1  0  0  0  0
 11 12  1  6  0  0  0
 11 17  1  0  0  0  0
 13 19  1  0  0  0  0
 13 14  1  0  0  0  0
 14 20  1  0  0  0  0
 15 14  2  0  0  0  0
 15 21  1  0  0  0  0
 16 15  1  0  0  0  0
 17 18  1  0  0  0  0
 17 16  2  0  0  0  0
 18 13  2  0  0  0  0
 22 11  1  0  0  0  0
 22 23  1  0  0  0  0
 24 25  2  0  0  0  0
 25 26  1  0  0  0  0
 26 27  1  0  0  0  0
 28 26  1  0  0  0  0
 29 26  1  0  0  0  0
 29 32  1  0  0  0  0
 30 31  1  0  0  0  0
 31 38  1  0  0  0  0
 32 33  1  0  0  0  0
 32 31  2  0  0  0  0
 33 35  2  0  0  0  0
 34 33  1  0  0  0  0
 35 36  1  0  0  0  0
 35 37  1  0  0  0  0
 38 37  2  0  0  0  0
M  END
>  <minimizedAffinity>
-5.55074644

$$$$

 OpenBabel03272509443D

 38 40  0  0  1  0  0  0  0  0999 V2000
   37.6870   22.3250   35.1820 C   0  0  0  0  0  0  0  0  0  0  0  0
   36.7430   21.5960   35.9080 C   0  0  0  0  0  0  0  0  0  0  0  0
   35.7940   20.8000   35.2840 C   0  0  0  0  0  0  0  0  0  0  0  0
   35.7770   20.7200   33.8880 C   0  0  0  0  0  0  0  0  0  0  0  0
   36.7050   21.4360   33.1880 C   0  0  0  0  0  0  0  0  0  0  0  0
   37.6380   22.2230   33.8480 C   0  0  0  0  0  0  0  0  0  0  0  0
   36.7650   21.6660   36.9940 H   0  0  0  0  0  0  0  0  0  0  0  0
   35.1160   20.2830   35.9290 H   0  0  0  0  0  0  0  0  0  0  0  0
   35.0110   20.0810   33.4930 H   0  0  0  0  0  0  0  0  0  0  0  0
   36.5650   21.2740   32.1200 H   0  0  0  0  0  0  0  0  0  0  0  0
   38.6560   23.1810   35.8300 C   0  0  2  0  0  0  0  0  0  0  0  0
   39.0150   23.9090   35.0060 H   0  0  0  0  0  0  0  0  0  0  0  0
   42.2840   23.3940   35.8640 C   0  0  0  0  0  0  0  0  0  0  0  0
   42.6740   22.3490   36.6770 C   0  0  0  0  0  0  0  0  0  0  0  0
   41.6930   21.5130   37.1770 C   0  0  0  0  0  0  0  0  0  0  0  0
   40.3740   21.7490   36.8520 N   0  0  0  0  0  0  0  0  0  0  0  0
   40.0670   22.7650   36.0740 C   0  0  0  0  0  0  0  0  0  0  0  0
   41.0130   23.5920   35.5720 N   0  0  0  0  0  0  0  0  0  0  0  0
   43.0290   24.0760   35.4470 H   0  0  0  0  0  0  0  0  0  0  0  0
   43.7300   22.2400   36.8780 H   0  0  0  0  0  0  0  0  0  0  0  0
   41.9900   20.6920   37.8120 H   0  0  0  0  0  0  0  0  0  0  0  0
   38.1070   24.0630   36.5860 O   0  0  0  0  0  0  0  0  0  0  0  0
   38.5380   24.4010   37.4060 H   0  0  0  0  0  0  0  0  0  0  0  0
   38.5390   22.9510   32.9860 C   0  0  0  0  0  3  0  0  0  0  0  0
   38.1400   23.7760   32.0130 C   0  0  0  0  0  3  0  0  0  0  0  0
   38.9700   24.6040   31.1070 C   0  0  0  0  0  0  0  0  0  0  0  0
   40.0430   24.4560   31.4070 H   0  0  0  0  0  0  0  0  0  0  0  0
   38.8530   24.3090   30.0420 H   0  0  0  0  0  0  0  0  0  0  0  0
   38.5270   26.3350   31.2910 S   0  0  0  0  0  0  0  0  0  0  0  0
   35.9770   27.6010   32.4840 Cl  0  0  0  0  0  0  0  0  0  0  0  0
   37.3990   27.2930   33.4800 C   0  0  0  0  0  0  0  0  0  0  0  0
   38.5780   26.7340   33.0330 C   0  0  0  0  0  0  0  0  0  0  0  0
   39.6310   26.5370   33.9010 C   0  0  0  0  0  0  0  0  0  0  0  0
   40.5080   26.0910   33.4460 H   0  0  0  0  0  0  0  0  0  0  0  0
   39.4780   26.9140   35.2310 C   0  0  0  0  0  0  0  0  0  0  0  0
   40.3190   26.7450   35.8710 H   0  0  0  0  0  0  0  0  0  0  0  0
   38.2970   27.4720   35.6680 C   0  0  0  0  0  3  0  0  0  0  0  0
   37.2300   27.6770   34.8110 C   0  0  0  0  0  3  0  0  0  0  0  0
  1 11  1  0  0  0  0
  1  2  1  0  0  0  0
  2  7  1  0  0  0  0
  3  2  2  0  0  0  0
  3  8  1  0  0  0  0
  4  3  1  0  0  0  0
  5  6  1  0  0  0  0
  5  4  2  0  0  0  0
  6  1  2  0  0  0  0
  9  4  1  0  0  0  0
 10  5  1  0  0  0  0
 11 12  1  6  0  0  0
 11 17  1  0  0  0  0
 11 22  1  0  0  0  0
 13 14  1  0  0  0  0
 14 20  1  0  0  0  0
 14 15  2  0  0  0  0
 15 21  1  0  0  0  0
 16 15  1  0  0  0  0
 17 16  2  0  0  0  0
 18 13  2  0  0  0  0
 18 17  1  0  0  0  0
 19 13  1  0  0  0  0
 22 23  1  0  0  0  0
 24  6  1  0  0  0  0
 25 24  2  0  0  0  0
 26 29  1  0  0  0  0
 26 27  1  0  0  0  0
 26 25  1  0  0  0  0
 28 26  1  0  0  0  0
 29 32  1  0  0  0  0
 30 31  1  0  0  0  0
 31 38  1  0  0  0  0
 32 31  2  0  0  0  0
 32 33  1  0  0  0  0
 33 35  2  0  0  0  0
 34 33  1  0  0  0  0
 35 37  1  0  0  0  0
 35 36  1  0  0  0  0
 38 37  2  0  0  0  0
M  END
>  <minimizedAffinity>
-5.54266214

$$$$
