
 OpenBabel03272506253D

 32 34  0  0  0  0  0  0  0  0999 V2000
   34.1040   28.7590   45.8740 C   0  0  0  0  0  0  0  0  0  0  0  0
   34.3210   28.3080   44.5850 C   0  0  0  0  0  0  0  0  0  0  0  0
   35.3170   28.7820   43.7380 C   0  0  0  0  0  0  0  0  0  0  0  0
   36.1650   29.7870   44.2240 C   0  0  0  0  0  0  0  0  0  0  0  0
   35.9490   30.2350   45.5080 C   0  0  0  0  0  0  0  0  0  0  0  0
   34.9590   29.7570   46.3350 C   0  0  0  0  0  0  0  0  0  0  0  0
   33.6920   27.5280   44.1530 H   0  0  0  0  0  0  0  0  0  0  0  0
   35.4330   28.3840   42.7370 H   0  0  0  0  0  0  0  0  0  0  0  0
   36.9410   30.1620   43.5780 H   0  0  0  0  0  0  0  0  0  0  0  0
   36.5980   31.0090   45.8860 H   0  0  0  0  0  0  0  0  0  0  0  0
   33.3350   26.9780   47.3310 C   0  0  0  0  0  0  0  0  0  0  0  0
   33.0220   28.1480   46.6000 C   0  0  0  0  0  0  0  0  0  0  0  0
   31.7120   28.6150   46.6350 C   0  0  0  0  0  0  0  0  0  0  0  0
   30.7920   27.9270   47.3700 N   0  0  0  0  0  0  0  0  0  0  0  0
   31.1140   26.7990   48.0690 C   0  0  0  0  0  0  0  0  0  0  0  0
   32.3930   26.3280   48.0460 N   0  0  0  0  0  0  0  0  0  0  0  0
   34.3470   26.5970   47.3190 H   0  0  0  0  0  0  0  0  0  0  0  0
   30.3620   26.2920   48.6320 H   0  0  0  0  0  0  0  0  0  0  0  0
   31.2430   29.8310   45.9160 C   0  0  0  0  0  0  0  0  0  0  0  0
   29.8780   30.0430   46.1920 F   0  0  0  0  0  0  0  0  0  0  0  0
   31.9140   30.9730   46.1770 F   0  0  0  0  0  0  0  0  0  0  0  0
   31.2640   29.6020   44.5440 F   0  0  0  0  0  0  0  0  0  0  0  0
   34.6630   30.3170   47.9850 S   0  0  0  0  0  0  0  0  0  0  0  0
   34.9980   29.1700   50.8320 Cl  0  0  0  0  0  0  0  0  0  0  0  0
   36.2580   30.1420   50.1220 C   0  0  0  0  0  0  0  0  0  0  0  0
   36.1830   30.6940   48.8460 C   0  0  0  0  0  0  0  0  0  0  0  0
   37.2080   31.4560   48.3290 C   0  0  0  0  0  0  0  0  0  0  0  0
   37.0790   31.8450   47.3470 H   0  0  0  0  0  0  0  0  0  0  0  0
   38.3230   31.6470   49.1440 C   0  0  0  0  0  0  0  0  0  0  0  0
   39.1360   32.2460   48.7480 H   0  0  0  0  0  0  0  0  0  0  0  0
   38.4120   31.1040   50.4160 C   0  0  0  0  0  0  0  0  0  0  0  0
   37.3760   30.3450   50.9160 C   0  0  0  0  0  0  0  0  0  0  0  0
  1  6  1  0  0  0  0
  1 12  1  0  0  0  0
  2  1  2  0  0  0  0
  3  4  2  0  0  0  0
  3  2  1  0  0  0  0
  4  5  1  0  0  0  0
  5 10  1  0  0  0  0
  5  6  2  0  0  0  0
  6 23  1  0  0  0  0
  7  2  1  0  0  0  0
  8  3  1  0  0  0  0
  9  4  1  0  0  0  0
 11 16  1  0  0  0  0
 12 13  1  0  0  0  0
 12 11  2  0  0  0  0
 13 14  2  0  0  0  0
 14 15  1  0  0  0  0
 15 18  1  0  0  0  0
 16 15  2  0  0  0  0
 17 11  1  0  0  0  0
 19 21  1  0  0  0  0
 19 20  1  0  0  0  0
 19 13  1  0  0  0  0
 22 19  1  0  0  0  0
 23 26  1  0  0  0  0
 25 24  1  0  0  0  0
 25 32  1  0  0  0  0
 26 25  2  0  0  0  0
 27 26  1  0  0  0  0
 27 29  2  0  0  0  0
 28 27  1  0  0  0  0
 29 31  1  0  0  0  0
 30 29  1  0  0  0  0
 31 32  2  0  0  0  0
M  END
>  <minimizedAffinity>
-5.56635332

>  <minimizedRMSD>
5.4765892

$$$$
