
 OpenBabel03272509423D

 38 40  0  0  1  0  0  0  0  0999 V2000
   37.0240   31.0090   49.0730 C   0  0  0  0  0  0  0  0  0  0  0  0
   36.6140   31.8560   50.1050 C   0  0  0  0  0  0  0  0  0  0  0  0
   37.1350   33.1320   50.2550 C   0  0  0  0  0  0  0  0  0  0  0  0
   38.0990   33.5900   49.3510 C   0  0  0  0  0  0  0  0  0  0  0  0
   38.4910   32.7540   48.3460 C   0  0  0  0  0  0  0  0  0  0  0  0
   37.9470   31.4840   48.2280 C   0  0  0  0  0  0  0  0  0  0  0  0
   35.8640   31.4890   50.8030 H   0  0  0  0  0  0  0  0  0  0  0  0
   36.7570   33.7010   51.0780 H   0  0  0  0  0  0  0  0  0  0  0  0
   38.4440   34.5880   49.5430 H   0  0  0  0  0  0  0  0  0  0  0  0
   39.2410   33.2490   47.7290 H   0  0  0  0  0  0  0  0  0  0  0  0
   36.5040   29.6660   48.9340 C   0  0  2  0  0  0  0  0  0  0  0  0
   37.0140   29.2410   47.9870 H   0  0  0  0  0  0  0  0  0  0  0  0
   33.6700   29.9610   46.6780 C   0  0  0  0  0  0  0  0  0  0  0  0
   32.9190   28.8310   46.9330 C   0  0  0  0  0  0  0  0  0  0  0  0
   33.3470   27.9790   47.9330 C   0  0  0  0  0  0  0  0  0  0  0  0
   34.4940   28.2810   48.6350 N   0  0  0  0  0  0  0  0  0  0  0  0
   35.1670   29.3740   48.3410 C   0  0  0  0  0  0  0  0  0  0  0  0
   34.7640   30.2210   47.3680 N   0  0  0  0  0  0  0  0  0  0  0  0
   33.3650   30.6610   45.8960 H   0  0  0  0  0  0  0  0  0  0  0  0
   32.0340   28.6740   46.3330 H   0  0  0  0  0  0  0  0  0  0  0  0
   32.7640   27.0930   48.1400 H   0  0  0  0  0  0  0  0  0  0  0  0
   37.0280   28.8460   49.7720 O   0  0  0  0  0  0  0  0  0  0  0  0
   36.5340   28.0770   50.1420 H   0  0  0  0  0  0  0  0  0  0  0  0
   38.4740   30.6930   47.1400 C   0  0  0  0  0  3  0  0  0  0  0  0
   39.3260   31.1600   46.2220 C   0  0  0  0  0  3  0  0  0  0  0  0
   39.9620   30.4310   45.0990 C   0  0  0  0  0  0  0  0  0  0  0  0
   40.9470   30.9320   44.8910 H   0  0  0  0  0  0  0  0  0  0  0  0
   40.1480   29.3630   45.3430 H   0  0  0  0  0  0  0  0  0  0  0  0
   38.9180   30.5300   43.6420 S   0  0  0  0  0  0  0  0  0  0  0  0
   39.1550   27.4800   43.2250 Cl  0  0  0  0  0  0  0  0  0  0  0  0
   39.9340   28.6180   42.1280 C   0  0  0  0  0  0  0  0  0  0  0  0
   39.8830   29.9920   42.2360 C   0  0  0  0  0  0  0  0  0  0  0  0
   40.5320   30.7900   41.3180 C   0  0  0  0  0  0  0  0  0  0  0  0
   40.4260   31.8540   41.4960 H   0  0  0  0  0  0  0  0  0  0  0  0
   41.2380   30.1810   40.2850 C   0  0  0  0  0  0  0  0  0  0  0  0
   41.7270   30.8370   39.5950 H   0  0  0  0  0  0  0  0  0  0  0  0
   41.2830   28.8080   40.1850 C   0  0  0  0  0  3  0  0  0  0  0  0
   40.6380   27.9920   41.0970 C   0  0  0  0  0  3  0  0  0  0  0  0
  1  2  1  0  0  0  0
  2  3  2  0  0  0  0
  2  7  1  0  0  0  0
  3  8  1  0  0  0  0
  4  9  1  0  0  0  0
  4  3  1  0  0  0  0
  5  4  2  0  0  0  0
  6  5  1  0  0  0  0
  6  1  2  0  0  0  0
 10  5  1  0  0  0  0
 11 12  1  6  0  0  0
 11  1  1  0  0  0  0
 11 22  1  0  0  0  0
 13 14  2  0  0  0  0
 13 18  1  0  0  0  0
 14 15  1  0  0  0  0
 15 21  1  0  0  0  0
 15 16  2  0  0  0  0
 17 16  1  0  0  0  0
 17 11  1  0  0  0  0
 18 17  2  0  0  0  0
 19 13  1  0  0  0  0
 20 14  1  0  0  0  0
 22 23  1  0  0  0  0
 24  6  1  0  0  0  0
 25 24  2  0  0  0  0
 26 28  1  0  0  0  0
 26 25  1  0  0  0  0
 27 26  1  0  0  0  0
 29 26  1  0  0  0  0
 31 32  1  0  0  0  0
 31 30  1  0  0  0  0
 32 29  1  0  0  0  0
 33 34  1  0  0  0  0
 33 32  2  0  0  0  0
 35 33  1  0  0  0  0
 36 35  1  0  0  0  0
 37 35  2  0  0  0  0
 37 38  1  0  0  0  0
 38 31  2  0  0  0  0
M  END
>  <minimizedAffinity>
-5.76204586

>  <minimizedRMSD>
0.53677839

$$$$
