
 OpenBabel03272509423D

 38 40  0  0  1  0  0  0  0  0999 V2000
   37.0190   30.9060   49.0980 C   0  0  0  0  0  0  0  0  0  0  0  0
   36.7200   31.8100   50.1200 C   0  0  0  0  0  0  0  0  0  0  0  0
   37.2970   33.0690   50.1750 C   0  0  0  0  0  0  0  0  0  0  0  0
   38.2040   33.4530   49.1820 C   0  0  0  0  0  0  0  0  0  0  0  0
   38.4880   32.5610   48.1880 C   0  0  0  0  0  0  0  0  0  0  0  0
   37.8910   31.3090   48.1670 C   0  0  0  0  0  0  0  0  0  0  0  0
   36.0130   31.5010   50.8880 H   0  0  0  0  0  0  0  0  0  0  0  0
   37.0030   33.6860   50.9980 H   0  0  0  0  0  0  0  0  0  0  0  0
   38.5980   34.4430   49.3050 H   0  0  0  0  0  0  0  0  0  0  0  0
   39.2060   33.0010   47.4960 H   0  0  0  0  0  0  0  0  0  0  0  0
   36.4420   29.5800   49.0570 C   0  0  2  0  0  0  0  0  0  0  0  0
   36.9440   29.0600   48.1550 H   0  0  0  0  0  0  0  0  0  0  0  0
   33.5850   29.9280   46.8370 C   0  0  0  0  0  0  0  0  0  0  0  0
   32.8410   28.7880   47.0670 C   0  0  0  0  0  0  0  0  0  0  0  0
   33.2810   27.9100   48.0390 C   0  0  0  0  0  0  0  0  0  0  0  0
   34.4340   28.1960   48.7380 N   0  0  0  0  0  0  0  0  0  0  0  0
   35.1010   29.2990   48.4690 C   0  0  0  0  0  0  0  0  0  0  0  0
   34.6850   30.1720   47.5240 N   0  0  0  0  0  0  0  0  0  0  0  0
   33.2710   30.6490   46.0790 H   0  0  0  0  0  0  0  0  0  0  0  0
   31.9510   28.6450   46.4720 H   0  0  0  0  0  0  0  0  0  0  0  0
   32.7040   27.0170   48.2270 H   0  0  0  0  0  0  0  0  0  0  0  0
   36.9200   28.8070   49.9650 O   0  0  0  0  0  0  0  0  0  0  0  0
   36.3880   28.0910   50.3870 H   0  0  0  0  0  0  0  0  0  0  0  0
   38.3050   30.4550   47.0780 C   0  0  0  0  0  3  0  0  0  0  0  0
   38.8150   30.9060   45.9270 C   0  0  0  0  0  3  0  0  0  0  0  0
   39.3120   30.1240   44.7700 C   0  0  0  0  0  0  0  0  0  0  0  0
   40.4100   29.9470   44.9340 H   0  0  0  0  0  0  0  0  0  0  0  0
   38.8020   29.1420   44.6760 H   0  0  0  0  0  0  0  0  0  0  0  0
   39.0740   31.0620   43.2570 S   0  0  0  0  0  0  0  0  0  0  0  0
   39.0920   32.5010   40.5260 Cl  0  0  0  0  0  0  0  0  0  0  0  0
   40.1350   31.1140   40.8380 C   0  0  0  0  0  0  0  0  0  0  0  0
   40.1940   30.4110   42.0250 C   0  0  0  0  0  0  0  0  0  0  0  0
   41.0490   29.3380   42.1600 C   0  0  0  0  0  0  0  0  0  0  0  0
   41.0150   28.8590   43.1320 H   0  0  0  0  0  0  0  0  0  0  0  0
   41.8490   28.9830   41.0780 C   0  0  0  0  0  0  0  0  0  0  0  0
   42.4980   28.1450   41.2260 H   0  0  0  0  0  0  0  0  0  0  0  0
   41.7830   29.6900   39.8980 C   0  0  0  0  0  3  0  0  0  0  0  0
   40.9300   30.7690   39.7450 C   0  0  0  0  0  3  0  0  0  0  0  0
  1  2  1  0  0  0  0
  2  3  2  0  0  0  0
  2  7  1  0  0  0  0
  3  8  1  0  0  0  0
  4  9  1  0  0  0  0
  4  3  1  0  0  0  0
  5  4  2  0  0  0  0
  6  5  1  0  0  0  0
  6  1  2  0  0  0  0
 10  5  1  0  0  0  0
 11 12  1  6  0  0  0
 11  1  1  0  0  0  0
 11 22  1  0  0  0  0
 13 14  2  0  0  0  0
 13 18  1  0  0  0  0
 14 15  1  0  0  0  0
 15 21  1  0  0  0  0
 15 16  2  0  0  0  0
 17 16  1  0  0  0  0
 17 11  1  0  0  0  0
 18 17  2  0  0  0  0
 19 13  1  0  0  0  0
 20 14  1  0  0  0  0
 22 23  1  0  0  0  0
 24  6  1  0  0  0  0
 25 24  2  0  0  0  0
 26 27  1  0  0  0  0
 26 25  1  0  0  0  0
 28 26  1  0  0  0  0
 29 26  1  0  0  0  0
 30 31  1  0  0  0  0
 31 32  1  0  0  0  0
 32 33  2  0  0  0  0
 32 29  1  0  0  0  0
 33 34  1  0  0  0  0
 35 36  1  0  0  0  0
 35 33  1  0  0  0  0
 37 35  2  0  0  0  0
 38 37  1  0  0  0  0
 38 31  2  0  0  0  0
M  END
>  <minimizedAffinity>
-5.98274612

>  <minimizedRMSD>
0.824956477

$$$$
