
 OpenBabel03272510103D

 28 30  0  0  0  0  0  0  0  0999 V2000
   38.0750   30.9840   47.8640 C   0  0  0  0  0  0  0  0  0  0  0  0
   38.9270   32.0400   47.7830 C   0  0  0  0  0  0  0  0  0  0  0  0
   39.4590   32.5150   46.5900 C   0  0  0  0  0  0  0  0  0  0  0  0
   39.1500   31.9310   45.4030 C   0  0  0  0  0  0  0  0  0  0  0  0
   38.2890   30.8650   45.5100 C   0  0  0  0  0  0  0  0  0  0  0  0
   37.7860   30.4240   46.6720 N   0  0  0  0  0  0  0  0  0  0  0  0
   39.2210   32.5620   48.7000 H   0  0  0  0  0  0  0  0  0  0  0  0
   40.1430   33.3770   46.6090 H   0  0  0  0  0  0  0  0  0  0  0  0
   37.9510   30.2910   44.6590 H   0  0  0  0  0  0  0  0  0  0  0  0
   37.9920   30.8390   50.3650 C   0  0  0  0  0  0  0  0  0  0  0  0
   37.5140   30.4800   49.0910 C   0  0  0  0  0  0  0  0  0  0  0  0
   36.4550   29.6020   49.0320 C   0  0  0  0  0  0  0  0  0  0  0  0
   35.9130   29.1170   50.1870 N   0  0  0  0  0  0  0  0  0  0  0  0
   36.4050   29.4900   51.3930 C   0  0  0  0  0  0  0  0  0  0  0  0
   37.4490   30.3530   51.4900 N   0  0  0  0  0  0  0  0  0  0  0  0
   38.8240   31.5300   50.4010 H   0  0  0  0  0  0  0  0  0  0  0  0
   36.0250   29.2720   48.1090 H   0  0  0  0  0  0  0  0  0  0  0  0
   35.9230   29.0630   52.2630 H   0  0  0  0  0  0  0  0  0  0  0  0
   39.6410   32.3470   44.1880 O   0  0  0  0  0  0  0  0  0  0  0  0
   38.6670   33.4970   41.5510 Cl  0  0  0  0  0  0  0  0  0  0  0  0
   39.6200   32.0470   41.9010 C   0  0  0  0  0  0  0  0  0  0  0  0
   40.0410   31.5740   43.1480 C   0  0  0  0  0  0  0  0  0  0  0  0
   40.7890   30.4140   43.1420 C   0  0  0  0  0  0  0  0  0  0  0  0
   41.0780   30.1120   44.1560 H   0  0  0  0  0  0  0  0  0  0  0  0
   41.1310   29.7190   42.0160 C   0  0  0  0  0  0  0  0  0  0  0  0
   41.7260   28.8120   42.1210 H   0  0  0  0  0  0  0  0  0  0  0  0
   40.7140   30.1880   40.7960 C   0  0  0  0  0  0  0  0  0  0  0  0
   39.9660   31.3430   40.7420 C   0  0  0  0  0  0  0  0  0  0  0  0
  1 11  1  0  0  0  0
  2  1  1  0  0  0  0
  2  7  1  0  0  0  0
  3  8  1  0  0  0  0
  3  2  2  0  0  0  0
  4  5  2  0  0  0  0
  4  3  1  0  0  0  0
  5  6  1  0  0  0  0
  6  1  2  0  0  0  0
  9  5  1  0  0  0  0
 10 16  1  0  0  0  0
 10 15  1  0  0  0  0
 11 10  2  0  0  0  0
 12 11  1  0  0  0  0
 12 13  2  0  0  0  0
 13 14  1  0  0  0  0
 14 15  2  0  0  0  0
 14 18  1  0  0  0  0
 17 12  1  0  0  0  0
 19  4  1  0  0  0  0
 20 21  1  0  0  0  0
 21 22  1  0  0  0  0
 22 19  1  0  0  0  0
 23 22  2  0  0  0  0
 23 24  1  0  0  0  0
 25 26  1  0  0  0  0
 25 23  1  0  0  0  0
 27 25  2  0  0  0  0
 28 27  1  0  0  0  0
 28 21  2  0  0  0  0
M  END
>  <minimizedAffinity>
-5.6575799

>  <minimizedRMSD>
2.84092879

$$$$
