
 OpenBabel03272509423D

 38 40  0  0  1  0  0  0  0  0999 V2000
   37.0160   30.9260   49.0480 C   0  0  0  0  0  0  0  0  0  0  0  0
   36.6800   31.8170   50.0690 C   0  0  0  0  0  0  0  0  0  0  0  0
   37.2570   33.0740   50.1630 C   0  0  0  0  0  0  0  0  0  0  0  0
   38.2030   33.4680   49.2110 C   0  0  0  0  0  0  0  0  0  0  0  0
   38.5230   32.5880   48.2160 C   0  0  0  0  0  0  0  0  0  0  0  0
   37.9250   31.3390   48.1560 C   0  0  0  0  0  0  0  0  0  0  0  0
   35.9430   31.5010   50.8050 H   0  0  0  0  0  0  0  0  0  0  0  0
   36.9330   33.6810   50.9820 H   0  0  0  0  0  0  0  0  0  0  0  0
   38.5950   34.4550   49.3610 H   0  0  0  0  0  0  0  0  0  0  0  0
   39.2690   33.0340   47.5590 H   0  0  0  0  0  0  0  0  0  0  0  0
   36.4380   29.6020   48.9670 C   0  0  2  0  0  0  0  0  0  0  0  0
   36.9820   29.0880   48.0850 H   0  0  0  0  0  0  0  0  0  0  0  0
   33.6280   30.0660   46.7090 C   0  0  0  0  0  0  0  0  0  0  0  0
   32.9280   28.8790   46.7970 C   0  0  0  0  0  0  0  0  0  0  0  0
   33.3800   27.9220   47.6850 C   0  0  0  0  0  0  0  0  0  0  0  0
   34.5010   28.1800   48.4450 N   0  0  0  0  0  0  0  0  0  0  0  0
   35.1260   29.3310   48.3120 C   0  0  0  0  0  0  0  0  0  0  0  0
   34.6980   30.2810   47.4510 N   0  0  0  0  0  0  0  0  0  0  0  0
   33.3020   30.8490   46.0210 H   0  0  0  0  0  0  0  0  0  0  0  0
   32.0600   28.7640   46.1630 H   0  0  0  0  0  0  0  0  0  0  0  0
   32.8370   26.9920   47.7610 H   0  0  0  0  0  0  0  0  0  0  0  0
   36.8690   28.8200   49.8900 O   0  0  0  0  0  0  0  0  0  0  0  0
   36.3150   28.1020   50.2790 H   0  0  0  0  0  0  0  0  0  0  0  0
   38.3780   30.4970   47.0730 C   0  0  0  0  0  3  0  0  0  0  0  0
   38.4620   30.8980   45.8000 C   0  0  0  0  0  3  0  0  0  0  0  0
   38.9540   30.1410   44.6250 C   0  0  0  0  0  0  0  0  0  0  0  0
   39.1520   29.0880   44.9650 H   0  0  0  0  0  0  0  0  0  0  0  0
   38.2110   30.1160   43.8000 H   0  0  0  0  0  0  0  0  0  0  0  0
   40.4780   30.8760   44.0240 S   0  0  0  0  0  0  0  0  0  0  0  0
   39.2530   32.4690   41.6810 Cl  0  0  0  0  0  0  0  0  0  0  0  0
   40.2040   31.0110   41.4000 C   0  0  0  0  0  0  0  0  0  0  0  0
   40.7870   30.2380   42.3830 C   0  0  0  0  0  0  0  0  0  0  0  0
   41.5120   29.1140   42.0490 C   0  0  0  0  0  0  0  0  0  0  0  0
   41.9260   28.5810   42.8980 H   0  0  0  0  0  0  0  0  0  0  0  0
   41.6410   28.7780   40.7060 C   0  0  0  0  0  0  0  0  0  0  0  0
   42.2110   27.8980   40.4910 H   0  0  0  0  0  0  0  0  0  0  0  0
   41.0560   29.5560   39.7320 C   0  0  0  0  0  3  0  0  0  0  0  0
   40.3250   30.6870   40.0470 C   0  0  0  0  0  3  0  0  0  0  0  0
  1  2  1  0  0  0  0
  2  3  2  0  0  0  0
  2  7  1  0  0  0  0
  3  8  1  0  0  0  0
  4  9  1  0  0  0  0
  4  3  1  0  0  0  0
  5  4  2  0  0  0  0
  6  5  1  0  0  0  0
  6  1  2  0  0  0  0
 10  5  1  0  0  0  0
 11 12  1  6  0  0  0
 11  1  1  0  0  0  0
 11 22  1  0  0  0  0
 13 14  2  0  0  0  0
 13 18  1  0  0  0  0
 14 15  1  0  0  0  0
 15 21  1  0  0  0  0
 15 16  2  0  0  0  0
 17 16  1  0  0  0  0
 17 11  1  0  0  0  0
 18 17  2  0  0  0  0
 19 13  1  0  0  0  0
 20 14  1  0  0  0  0
 22 23  1  0  0  0  0
 24  6  1  0  0  0  0
 25 24  2  0  0  0  0
 26 27  1  0  0  0  0
 26 25  1  0  0  0  0
 28 26  1  0  0  0  0
 29 26  1  0  0  0  0
 31 30  1  0  0  0  0
 31 32  1  0  0  0  0
 32 29  1  0  0  0  0
 33 32  2  0  0  0  0
 33 34  1  0  0  0  0
 35 33  1  0  0  0  0
 36 35  1  0  0  0  0
 37 38  1  0  0  0  0
 37 35  2  0  0  0  0
 38 31  2  0  0  0  0
M  END
>  <minimizedAffinity>
-6.1340189

>  <minimizedRMSD>
0.990753055

$$$$
