
 OpenBabel03272510103D

 28 30  0  0  0  0  0  0  0  0999 V2000
   37.4850   31.2320   48.2780 C   0  0  0  0  0  0  0  0  0  0  0  0
   38.5130   32.1160   48.3820 C   0  0  0  0  0  0  0  0  0  0  0  0
   39.0970   32.7540   47.2930 C   0  0  0  0  0  0  0  0  0  0  0  0
   38.6610   32.5200   46.0270 C   0  0  0  0  0  0  0  0  0  0  0  0
   37.6230   31.6230   45.9480 C   0  0  0  0  0  0  0  0  0  0  0  0
   37.0740   31.0190   47.0120 N   0  0  0  0  0  0  0  0  0  0  0  0
   38.9160   32.3540   49.3710 H   0  0  0  0  0  0  0  0  0  0  0  0
   39.9260   33.4580   47.4610 H   0  0  0  0  0  0  0  0  0  0  0  0
   37.1680   31.3270   45.0140 H   0  0  0  0  0  0  0  0  0  0  0  0
   37.5090   30.3760   50.6340 C   0  0  0  0  0  0  0  0  0  0  0  0
   36.8680   30.5640   49.3950 C   0  0  0  0  0  0  0  0  0  0  0  0
   35.5870   30.0780   49.2610 C   0  0  0  0  0  0  0  0  0  0  0  0
   34.9900   29.4430   50.3100 N   0  0  0  0  0  0  0  0  0  0  0  0
   35.6440   29.2850   51.4870 C   0  0  0  0  0  0  0  0  0  0  0  0
   36.9090   29.7500   51.6560 N   0  0  0  0  0  0  0  0  0  0  0  0
   38.5150   30.7620   50.7310 H   0  0  0  0  0  0  0  0  0  0  0  0
   35.0220   30.1740   48.3560 H   0  0  0  0  0  0  0  0  0  0  0  0
   35.1050   28.7710   52.2720 H   0  0  0  0  0  0  0  0  0  0  0  0
   39.1930   33.1140   44.9070 O   0  0  0  0  0  0  0  0  0  0  0  0
   41.2360   30.8720   45.0930 Cl  0  0  0  0  0  0  0  0  0  0  0  0
   40.3400   31.5120   43.7060 C   0  0  0  0  0  0  0  0  0  0  0  0
   39.4030   32.5500   43.6920 C   0  0  0  0  0  0  0  0  0  0  0  0
   38.8370   32.8470   42.4690 C   0  0  0  0  0  0  0  0  0  0  0  0
   38.1150   33.6690   42.5440 H   0  0  0  0  0  0  0  0  0  0  0  0
   39.1320   32.2000   41.3020 C   0  0  0  0  0  0  0  0  0  0  0  0
   38.6270   32.5120   40.3870 H   0  0  0  0  0  0  0  0  0  0  0  0
   40.0520   31.1820   41.3220 C   0  0  0  0  0  3  0  0  0  0  0  0
   40.6490   30.8430   42.5170 C   0  0  0  0  0  3  0  0  0  0  0  0
  1  2  1  0  0  0  0
  1 11  1  0  0  0  0
  2  7  1  0  0  0  0
  3  8  1  0  0  0  0
  3  2  2  0  0  0  0
  4  3  1  0  0  0  0
  5  4  2  0  0  0  0
  5  6  1  0  0  0  0
  6  1  2  0  0  0  0
  9  5  1  0  0  0  0
 10 16  1  0  0  0  0
 10 15  1  0  0  0  0
 11 10  2  0  0  0  0
 12 11  1  0  0  0  0
 12 13  2  0  0  0  0
 13 14  1  0  0  0  0
 14 15  2  0  0  0  0
 14 18  1  0  0  0  0
 17 12  1  0  0  0  0
 19  4  1  0  0  0  0
 21 20  1  0  0  0  0
 22 21  1  0  0  0  0
 22 19  1  0  0  0  0
 23 24  1  0  0  0  0
 23 22  2  0  0  0  0
 25 27  2  0  0  0  0
 25 23  1  0  0  0  0
 26 25  1  0  0  0  0
 27 28  1  0  0  0  0
 28 21  2  0  0  0  0
M  END
>  <minimizedAffinity>
-5.48484802

>  <minimizedRMSD>
1.87917936

$$$$
