
 OpenBabel03262521523D

 23 24  0  0  0  0  0  0  0  0999 V2000
   34.0240   30.2790   47.3770 C   0  0  0  0  0  0  0  0  0  0  0  0
   33.6720   30.0220   48.3820 H   0  0  0  0  0  0  0  0  0  0  0  0
   33.6780   31.3120   47.1670 H   0  0  0  0  0  0  0  0  0  0  0  0
   35.8230   30.2080   47.2260 S   0  0  0  0  0  0  0  0  0  0  0  0
   36.5100   30.2270   48.8720 C   0  0  0  0  0  0  0  0  0  0  0  0
   35.7890   29.5030   49.8260 C   0  0  0  0  0  0  0  0  0  0  0  0
   36.2840   29.4860   51.1240 C   0  0  0  0  0  0  0  0  0  0  0  0
   37.4520   30.1740   51.4190 N   0  0  0  0  0  0  0  0  0  0  0  0
   38.0940   30.8560   50.4340 C   0  0  0  0  0  0  0  0  0  0  0  0
   37.6390   30.8820   49.1980 N   0  0  0  0  0  0  0  0  0  0  0  0
   34.8790   28.9700   49.5860 H   0  0  0  0  0  0  0  0  0  0  0  0
   35.7220   28.9260   51.8550 H   0  0  0  0  0  0  0  0  0  0  0  0
   38.9830   31.3350   50.8220 H   0  0  0  0  0  0  0  0  0  0  0  0
   33.2070   29.2080   46.1430 S   0  0  0  0  0  0  0  0  0  0  0  0
   33.8200   26.7700   47.9310 Cl  0  0  0  0  0  0  0  0  0  0  0  0
   32.1870   27.3550   47.7240 C   0  0  0  0  0  0  0  0  0  0  0  0
   31.7850   28.4420   46.9440 C   0  0  0  0  0  0  0  0  0  0  0  0
   30.4610   28.8080   46.8630 C   0  0  0  0  0  0  0  0  0  0  0  0
   30.3020   29.6630   46.2250 H   0  0  0  0  0  0  0  0  0  0  0  0
   29.5200   28.0850   47.5620 C   0  0  0  0  0  0  0  0  0  0  0  0
   28.4980   28.4120   47.4660 H   0  0  0  0  0  0  0  0  0  0  0  0
   29.8810   27.0020   48.3450 C   0  0  0  0  0  0  0  0  0  0  0  0
   31.2210   26.6300   48.4310 C   0  0  0  0  0  0  0  0  0  0  0  0
  1  2  1  0  0  0  0
  3  1  1  0  0  0  0
  4  1  1  0  0  0  0
  4  5  1  0  0  0  0
  5 10  2  0  0  0  0
  5  6  1  0  0  0  0
  6  7  2  0  0  0  0
  7  8  1  0  0  0  0
  7 12  1  0  0  0  0
  9 13  1  0  0  0  0
  9  8  2  0  0  0  0
 10  9  1  0  0  0  0
 11  6  1  0  0  0  0
 14 17  1  0  0  0  0
 14  1  1  0  0  0  0
 16 15  1  0  0  0  0
 16 23  1  0  0  0  0
 17 16  2  0  0  0  0
 18 17  1  0  0  0  0
 18 20  2  0  0  0  0
 19 18  1  0  0  0  0
 20 22  1  0  0  0  0
 21 20  1  0  0  0  0
 22 23  2  0  0  0  0
M  END
>  <minimizedAffinity>
-4.116961

>  <minimizedRMSD>
4.45024729

$$$$
