
 OpenBabel03272509423D

 38 40  0  0  1  0  0  0  0  0999 V2000
   37.0230   30.9510   49.0730 C   0  0  0  0  0  0  0  0  0  0  0  0
   36.6830   31.8190   50.1120 C   0  0  0  0  0  0  0  0  0  0  0  0
   37.2400   33.0840   50.2230 C   0  0  0  0  0  0  0  0  0  0  0  0
   38.1700   33.5090   49.2680 C   0  0  0  0  0  0  0  0  0  0  0  0
   38.4940   32.6520   48.2560 C   0  0  0  0  0  0  0  0  0  0  0  0
   37.9160   31.3940   48.1800 C   0  0  0  0  0  0  0  0  0  0  0  0
   35.9580   31.4790   50.8500 H   0  0  0  0  0  0  0  0  0  0  0  0
   36.9150   33.6710   51.0550 H   0  0  0  0  0  0  0  0  0  0  0  0
   38.5470   34.5000   49.4320 H   0  0  0  0  0  0  0  0  0  0  0  0
   39.2260   33.1220   47.5990 H   0  0  0  0  0  0  0  0  0  0  0  0
   36.4660   29.6200   48.9750 C   0  0  2  0  0  0  0  0  0  0  0  0
   36.9900   29.1390   48.0630 H   0  0  0  0  0  0  0  0  0  0  0  0
   33.5990   30.0650   46.7840 C   0  0  0  0  0  0  0  0  0  0  0  0
   32.9050   28.8770   46.8950 C   0  0  0  0  0  0  0  0  0  0  0  0
   33.3810   27.9260   47.7770 C   0  0  0  0  0  0  0  0  0  0  0  0
   34.5200   28.1900   48.5080 N   0  0  0  0  0  0  0  0  0  0  0  0
   35.1390   29.3420   48.3540 C   0  0  0  0  0  0  0  0  0  0  0  0
   34.6870   30.2870   47.4990 N   0  0  0  0  0  0  0  0  0  0  0  0
   33.2550   30.8440   46.1000 H   0  0  0  0  0  0  0  0  0  0  0  0
   32.0220   28.7560   46.2840 H   0  0  0  0  0  0  0  0  0  0  0  0
   32.8430   26.9950   47.8710 H   0  0  0  0  0  0  0  0  0  0  0  0
   36.9390   28.8220   49.8640 O   0  0  0  0  0  0  0  0  0  0  0  0
   36.4100   28.0840   50.2500 H   0  0  0  0  0  0  0  0  0  0  0  0
   38.3720   30.5790   47.0780 C   0  0  0  0  0  3  0  0  0  0  0  0
   39.1450   31.0300   46.0850 C   0  0  0  0  0  3  0  0  0  0  0  0
   39.7060   30.2770   44.9380 C   0  0  0  0  0  0  0  0  0  0  0  0
   40.4970   30.9230   44.4700 H   0  0  0  0  0  0  0  0  0  0  0  0
   40.1680   29.3170   45.2520 H   0  0  0  0  0  0  0  0  0  0  0  0
   38.4120   29.9460   43.7380 S   0  0  0  0  0  0  0  0  0  0  0  0
   40.2700   30.7490   41.4060 Cl  0  0  0  0  0  0  0  0  0  0  0  0
   39.7960   29.0700   41.6650 C   0  0  0  0  0  0  0  0  0  0  0  0
   38.9730   28.6200   42.6770 C   0  0  0  0  0  0  0  0  0  0  0  0
   38.6660   27.2810   42.7860 C   0  0  0  0  0  0  0  0  0  0  0  0
   38.0120   27.0370   43.6150 H   0  0  0  0  0  0  0  0  0  0  0  0
   39.2040   26.3960   41.8560 C   0  0  0  0  0  0  0  0  0  0  0  0
   38.9420   25.3650   41.9760 H   0  0  0  0  0  0  0  0  0  0  0  0
   40.0250   26.8540   40.8490 C   0  0  0  0  0  3  0  0  0  0  0  0
   40.3420   28.1950   40.7250 C   0  0  0  0  0  3  0  0  0  0  0  0
  1  2  1  0  0  0  0
  2  3  2  0  0  0  0
  2  7  1  0  0  0  0
  3  8  1  0  0  0  0
  4  9  1  0  0  0  0
  4  3  1  0  0  0  0
  5  4  2  0  0  0  0
  6  5  1  0  0  0  0
  6  1  2  0  0  0  0
 10  5  1  0  0  0  0
 11 12  1  6  0  0  0
 11  1  1  0  0  0  0
 11 22  1  0  0  0  0
 13 14  2  0  0  0  0
 13 18  1  0  0  0  0
 14 15  1  0  0  0  0
 15 21  1  0  0  0  0
 15 16  2  0  0  0  0
 17 16  1  0  0  0  0
 17 11  1  0  0  0  0
 18 17  2  0  0  0  0
 19 13  1  0  0  0  0
 20 14  1  0  0  0  0
 22 23  1  0  0  0  0
 24  6  1  0  0  0  0
 25 24  2  0  0  0  0
 26 28  1  0  0  0  0
 26 25  1  0  0  0  0
 27 26  1  0  0  0  0
 29 26  1  0  0  0  0
 30 31  1  0  0  0  0
 31 32  1  0  0  0  0
 32 33  2  0  0  0  0
 32 29  1  0  0  0  0
 33 34  1  0  0  0  0
 35 36  1  0  0  0  0
 35 33  1  0  0  0  0
 37 35  2  0  0  0  0
 38 37  1  0  0  0  0
 38 31  2  0  0  0  0
M  END
>  <minimizedAffinity>
-5.7366581

>  <minimizedRMSD>
1.13810933

$$$$
