
 OpenBabel03272508023D

 28 30  0  0  0  0  0  0  0  0999 V2000
   38.5710   30.9610   46.2470 C   0  0  0  0  0  0  0  0  0  0  0  0
   39.6190   31.7920   46.4970 C   0  0  0  0  0  0  0  0  0  0  0  0
   40.4470   31.8920   45.3840 C   0  0  0  0  0  0  0  0  0  0  0  0
   39.8550   31.0940   44.4650 N   0  0  0  0  0  0  0  0  0  0  0  0
   38.7610   30.5530   44.9740 N   0  0  0  0  0  0  0  0  0  0  0  0
   39.8250   32.3240   47.4200 H   0  0  0  0  0  0  0  0  0  0  0  0
   41.3570   32.4500   45.2160 H   0  0  0  0  0  0  0  0  0  0  0  0
   38.7720   33.0310   42.4110 Cl  0  0  0  0  0  0  0  0  0  0  0  0
   39.7860   31.6340   42.1140 C   0  0  0  0  0  0  0  0  0  0  0  0
   40.2400   30.7940   43.1280 C   0  0  0  0  0  0  0  0  0  0  0  0
   41.0330   29.6960   42.9210 C   0  0  0  0  0  0  0  0  0  0  0  0
   41.3600   29.0730   43.7420 H   0  0  0  0  0  0  0  0  0  0  0  0
   41.4210   29.3870   41.6160 C   0  0  0  0  0  0  0  0  0  0  0  0
   42.0490   28.5110   41.4950 H   0  0  0  0  0  0  0  0  0  0  0  0
   40.9840   30.2050   40.5920 C   0  0  0  0  0  3  0  0  0  0  0  0
   40.1860   31.3080   40.8140 C   0  0  0  0  0  3  0  0  0  0  0  0
   37.4870   30.5880   47.1360 C   0  0  0  0  0  0  0  0  0  0  0  0
   37.7910   30.3070   48.4880 C   0  0  0  0  0  0  0  0  0  0  0  0
   36.7600   29.9480   49.3480 C   0  0  0  0  0  0  0  0  0  0  0  0
   35.5040   29.8860   48.8350 N   0  0  0  0  0  0  0  0  0  0  0  0
   35.2230   30.1570   47.5390 C   0  0  0  0  0  0  0  0  0  0  0  0
   36.2250   30.5040   46.7090 N   0  0  0  0  0  0  0  0  0  0  0  0
   38.8170   30.3690   48.8550 H   0  0  0  0  0  0  0  0  0  0  0  0
   34.2270   30.1090   47.1330 H   0  0  0  0  0  0  0  0  0  0  0  0
   37.0710   29.6520   50.7680 C   0  0  0  0  0  0  0  0  0  0  0  0
   35.8670   29.4750   51.3940 F   0  0  0  0  0  0  0  0  0  0  0  0
   37.8360   28.4960   50.9110 F   0  0  0  0  0  0  0  0  0  0  0  0
   37.7250   30.7150   51.3890 F   0  0  0  0  0  0  0  0  0  0  0  0
  1  2  1  0  0  0  0
  1 17  1  0  0  0  0
  2  6  1  0  0  0  0
  3  2  2  0  0  0  0
  4  5  1  0  0  0  0
  4  3  1  0  0  0  0
  5  1  2  0  0  0  0
  7  3  1  0  0  0  0
  9  8  1  0  0  0  0
  9 10  1  0  0  0  0
 10  4  1  0  0  0  0
 11 10  2  0  0  0  0
 11 12  1  0  0  0  0
 13 11  1  0  0  0  0
 14 13  1  0  0  0  0
 15 16  1  0  0  0  0
 15 13  2  0  0  0  0
 16  9  2  0  0  0  0
 17 18  1  0  0  0  0
 18 23  1  0  0  0  0
 18 19  2  0  0  0  0
 19 25  1  0  0  0  0
 20 19  1  0  0  0  0
 21 20  2  0  0  0  0
 22 17  2  0  0  0  0
 22 21  1  0  0  0  0
 24 21  1  0  0  0  0
 25 27  1  0  0  0  0
 25 28  1  0  0  0  0
 25 26  1  0  0  0  0
M  END
>  <minimizedAffinity>
-6.27785206

>  <minimizedRMSD>
2.0011487

$$$$
