
 OpenBabel03272508023D

 28 30  0  0  0  0  0  0  0  0999 V2000
   38.9290   30.9210   45.7490 C   0  0  0  0  0  0  0  0  0  0  0  0
   40.1240   31.5150   46.0140 C   0  0  0  0  0  0  0  0  0  0  0  0
   40.9550   31.4730   44.9000 C   0  0  0  0  0  0  0  0  0  0  0  0
   40.2140   30.8350   43.9640 N   0  0  0  0  0  0  0  0  0  0  0  0
   39.0320   30.5150   44.4650 N   0  0  0  0  0  0  0  0  0  0  0  0
   40.4330   31.9710   46.9490 H   0  0  0  0  0  0  0  0  0  0  0  0
   41.9600   31.8390   44.7410 H   0  0  0  0  0  0  0  0  0  0  0  0
   39.1590   32.8000   41.9230 Cl  0  0  0  0  0  0  0  0  0  0  0  0
   40.0840   31.3460   41.6100 C   0  0  0  0  0  0  0  0  0  0  0  0
   40.5300   30.4970   42.6180 C   0  0  0  0  0  0  0  0  0  0  0  0
   41.2550   29.3540   42.3990 C   0  0  0  0  0  0  0  0  0  0  0  0
   41.5780   28.7250   43.2160 H   0  0  0  0  0  0  0  0  0  0  0  0
   41.5740   29.0050   41.0850 C   0  0  0  0  0  0  0  0  0  0  0  0
   42.1480   28.0960   40.9550 H   0  0  0  0  0  0  0  0  0  0  0  0
   41.1430   29.8330   40.0650 C   0  0  0  0  0  3  0  0  0  0  0  0
   40.4140   30.9810   40.3000 C   0  0  0  0  0  3  0  0  0  0  0  0
   37.7910   30.7540   46.6330 C   0  0  0  0  0  0  0  0  0  0  0  0
   37.9750   30.9820   48.0160 C   0  0  0  0  0  0  0  0  0  0  0  0
   36.8920   30.8250   48.8730 C   0  0  0  0  0  0  0  0  0  0  0  0
   35.7040   30.4550   48.3260 N   0  0  0  0  0  0  0  0  0  0  0  0
   35.5380   30.2390   47.0010 C   0  0  0  0  0  0  0  0  0  0  0  0
   36.5910   30.3920   46.1750 N   0  0  0  0  0  0  0  0  0  0  0  0
   38.9490   31.2780   48.4100 H   0  0  0  0  0  0  0  0  0  0  0  0
   34.5980   29.9470   46.5680 H   0  0  0  0  0  0  0  0  0  0  0  0
   37.0760   31.0620   50.3260 C   0  0  0  0  0  0  0  0  0  0  0  0
   36.5790   32.3130   50.5750 F   0  0  0  0  0  0  0  0  0  0  0  0
   36.3890   30.1330   51.1040 F   0  0  0  0  0  0  0  0  0  0  0  0
   38.4230   31.0560   50.6870 F   0  0  0  0  0  0  0  0  0  0  0  0
  1  2  1  0  0  0  0
  1 17  1  0  0  0  0
  2  6  1  0  0  0  0
  3  2  2  0  0  0  0
  4  5  1  0  0  0  0
  4  3  1  0  0  0  0
  5  1  2  0  0  0  0
  7  3  1  0  0  0  0
  9  8  1  0  0  0  0
  9 10  1  0  0  0  0
 10  4  1  0  0  0  0
 11 10  2  0  0  0  0
 11 12  1  0  0  0  0
 13 11  1  0  0  0  0
 14 13  1  0  0  0  0
 15 16  1  0  0  0  0
 15 13  2  0  0  0  0
 16  9  2  0  0  0  0
 17 18  1  0  0  0  0
 18 23  1  0  0  0  0
 18 19  2  0  0  0  0
 19 25  1  0  0  0  0
 20 19  1  0  0  0  0
 21 20  2  0  0  0  0
 22 17  2  0  0  0  0
 22 21  1  0  0  0  0
 24 21  1  0  0  0  0
 25 26  1  0  0  0  0
 25 28  1  0  0  0  0
 25 27  1  0  0  0  0
M  END
>  <minimizedAffinity>
-6.35335732

>  <minimizedRMSD>
1.06297398

$$$$
