
 OpenBabel03272503293D

 34 36  0  0  1  0  0  0  0  0999 V2000
   34.5970   29.2670   48.0540 C   0  0  0  0  0  0  0  0  0  0  0  0
   34.2340   30.1750   47.0610 C   0  0  0  0  0  0  0  0  0  0  0  0
   33.0230   29.9660   46.4090 C   0  0  0  0  0  0  0  0  0  0  0  0
   32.2820   28.8790   46.8010 N   0  0  0  0  0  0  0  0  0  0  0  0
   32.6560   28.0340   47.7500 C   0  0  0  0  0  0  0  0  0  0  0  0
   33.8210   28.2220   48.3870 N   0  0  0  0  0  0  0  0  0  0  0  0
   34.8630   31.0050   46.8050 H   0  0  0  0  0  0  0  0  0  0  0  0
   32.6680   30.6050   45.6410 H   0  0  0  0  0  0  0  0  0  0  0  0
   35.8510   29.4870   48.7280 N   0  0  0  0  0  0  0  0  0  0  0  0
   36.9790   30.2080   48.2230 C   0  0  0  0  0  0  0  0  0  0  0  0
   37.6280   30.7380   49.5080 C   0  0  2  0  0  0  0  0  0  0  0  0
   36.7120   30.3220   50.6360 C   0  0  0  0  0  0  0  0  0  0  0  0
   36.2050   29.0130   50.0490 C   0  0  0  0  0  0  0  0  0  0  0  0
   37.6790   29.6170   47.6260 H   0  0  0  0  0  0  0  0  0  0  0  0
   36.6870   31.1110   47.6410 H   0  0  0  0  0  0  0  0  0  0  0  0
   38.6010   30.1990   49.7010 H   0  0  0  0  0  0  0  0  0  0  0  0
   35.8870   31.0780   50.6760 H   0  0  0  0  0  0  0  0  0  0  0  0
   37.2360   30.1820   51.5850 H   0  0  0  0  0  0  0  0  0  0  0  0
   35.3140   28.7160   50.6460 H   0  0  0  0  0  0  0  0  0  0  0  0
   37.0210   28.2940   50.0790 H   0  0  0  0  0  0  0  0  0  0  0  0
   37.8820   32.2100   49.4670 C   0  0  0  0  0  0  0  0  0  0  0  0
   36.7760   32.8120   50.0450 F   0  0  0  0  0  0  0  0  0  0  0  0
   37.8790   32.5920   48.1400 F   0  0  0  0  0  0  0  0  0  0  0  0
   39.0510   32.5920   50.0470 F   0  0  0  0  0  0  0  0  0  0  0  0
   31.6340   26.6440   48.1930 S   0  0  0  0  0  0  0  0  0  0  0  0
   29.0700   25.9970   46.3860 Cl  0  0  0  0  0  0  0  0  0  0  0  0
   28.8620   26.8470   47.8870 C   0  0  0  0  0  0  0  0  0  0  0  0
   29.9910   27.1090   48.6390 C   0  0  0  0  0  0  0  0  0  0  0  0
   29.8370   27.7860   49.8400 C   0  0  0  0  0  0  0  0  0  0  0  0
   30.6910   28.0280   50.4890 H   0  0  0  0  0  0  0  0  0  0  0  0
   28.5650   28.1790   50.2450 C   0  0  0  0  0  0  0  0  0  0  0  0
   28.4770   28.7100   51.1920 H   0  0  0  0  0  0  0  0  0  0  0  0
   27.4210   27.9240   49.5000 C   0  0  0  0  0  0  0  0  0  0  0  0
   27.5890   27.2420   48.2970 C   0  0  0  0  0  0  0  0  0  0  0  0
  1  6  1  0  0  0  0
  1  9  1  0  0  0  0
  2  1  2  0  0  0  0
  3  4  2  0  0  0  0
  3  2  1  0  0  0  0
  4  5  1  0  0  0  0
  5 25  1  0  0  0  0
  5  6  2  0  0  0  0
  7  2  1  0  0  0  0
  8  3  1  0  0  0  0
  9 13  1  0  0  0  0
 10  9  1  0  0  0  0
 10 11  1  0  0  0  0
 11 16  1  1  0  0  0
 11 12  1  0  0  0  0
 12 17  1  0  0  0  0
 12 18  1  0  0  0  0
 13 20  1  0  0  0  0
 13 12  1  0  0  0  0
 13 19  1  0  0  0  0
 14 10  1  0  0  0  0
 15 10  1  0  0  0  0
 21 11  1  0  0  0  0
 21 22  1  0  0  0  0
 21 24  1  0  0  0  0
 23 21  1  0  0  0  0
 25 28  1  0  0  0  0
 26 27  1  0  0  0  0
 27 34  2  0  0  0  0
 27 28  1  0  0  0  0
 28 29  2  0  0  0  0
 29 31  1  0  0  0  0
 29 30  1  0  0  0  0
 31 32  1  0  0  0  0
 33 31  2  0  0  0  0
 34 33  1  0  0  0  0
M  END
>  <minimizedAffinity>
-6.52397203

>  <minimizedRMSD>
1.51894736

$$$$
