
 OpenBabel03272510113D

 35 38  0  0  0  0  0  0  0  0999 V2000
   32.7800   28.4240   47.8130 C   0  0  0  0  0  0  0  0  0  0  0  0
   33.6210   28.1820   48.8420 C   0  0  0  0  0  0  0  0  0  0  0  0
   34.7340   28.9290   49.1580 C   0  0  0  0  0  0  0  0  0  0  0  0
   35.0450   30.0140   48.3850 C   0  0  0  0  0  0  0  0  0  0  0  0
   34.1890   30.2730   47.3240 C   0  0  0  0  0  0  0  0  0  0  0  0
   33.1130   29.5020   47.0690 N   0  0  0  0  0  0  0  0  0  0  0  0
   33.4570   27.3400   49.5150 H   0  0  0  0  0  0  0  0  0  0  0  0
   35.4020   28.7250   49.9860 H   0  0  0  0  0  0  0  0  0  0  0  0
   34.3650   31.1160   46.6630 H   0  0  0  0  0  0  0  0  0  0  0  0
   30.4650   27.5680   48.3000 C   0  0  0  0  0  0  0  0  0  0  0  0
   31.6280   27.6270   47.5100 C   0  0  0  0  0  0  0  0  0  0  0  0
   31.6200   26.8470   46.3630 C   0  0  0  0  0  0  0  0  0  0  0  0
   30.5250   26.0860   46.0680 N   0  0  0  0  0  0  0  0  0  0  0  0
   29.4460   26.0780   46.8720 C   0  0  0  0  0  0  0  0  0  0  0  0
   29.4020   26.8190   48.0010 N   0  0  0  0  0  0  0  0  0  0  0  0
   30.4400   28.1590   49.1920 H   0  0  0  0  0  0  0  0  0  0  0  0
   32.4600   26.8160   45.6800 H   0  0  0  0  0  0  0  0  0  0  0  0
   28.6030   25.4580   46.5970 H   0  0  0  0  0  0  0  0  0  0  0  0
   36.1280   30.8790   48.5570 O   0  0  0  0  0  0  0  0  0  0  0  0
   37.1440   30.9560   47.6100 C   0  0  0  0  0  0  0  0  0  0  0  0
   38.3140   31.5510   48.1030 C   0  0  0  0  0  0  0  0  0  0  0  0
   39.2530   31.5760   47.0780 C   0  0  0  0  0  0  0  0  0  0  0  0
   38.6340   31.0100   46.0270 N   0  0  0  0  0  0  0  0  0  0  0  0
   37.4120   30.6500   46.3300 N   0  0  0  0  0  0  0  0  0  0  0  0
   38.6320   31.9770   49.0650 H   0  0  0  0  0  0  0  0  0  0  0  0
   40.2700   31.9420   47.0290 H   0  0  0  0  0  0  0  0  0  0  0  0
   39.7150   33.4230   44.6590 Cl  0  0  0  0  0  0  0  0  0  0  0  0
   39.6660   31.8170   43.9620 C   0  0  0  0  0  0  0  0  0  0  0  0
   39.1330   30.7780   44.7130 C   0  0  0  0  0  0  0  0  0  0  0  0
   39.1080   29.5240   44.1380 C   0  0  0  0  0  0  0  0  0  0  0  0
   38.6980   28.6790   44.6930 H   0  0  0  0  0  0  0  0  0  0  0  0
   39.5720   29.2250   42.8740 C   0  0  0  0  0  0  0  0  0  0  0  0
   39.5360   28.2310   42.4550 H   0  0  0  0  0  0  0  0  0  0  0  0
   40.0990   30.2990   42.1530 C   0  0  0  0  0  3  0  0  0  0  0  0
   40.1500   31.5740   42.6760 C   0  0  0  0  0  3  0  0  0  0  0  0
  1  2  1  0  0  0  0
  2  3  2  0  0  0  0
  2  7  1  0  0  0  0
  3  8  1  0  0  0  0
  4 19  1  0  0  0  0
  4  3  1  0  0  0  0
  5  4  2  0  0  0  0
  6  5  1  0  0  0  0
  6  1  2  0  0  0  0
  9  5  1  0  0  0  0
 10 16  1  0  0  0  0
 11  1  1  0  0  0  0
 11 10  2  0  0  0  0
 12 11  1  0  0  0  0
 13 12  2  0  0  0  0
 13 14  1  0  0  0  0
 14 15  2  0  0  0  0
 15 10  1  0  0  0  0
 17 12  1  0  0  0  0
 18 14  1  0  0  0  0
 20 21  1  0  0  0  0
 20 19  1  0  0  0  0
 21 25  1  0  0  0  0
 22 21  2  0  0  0  0
 23 24  1  0  0  0  0
 23 22  1  0  0  0  0
 24 20  2  0  0  0  0
 26 22  1  0  0  0  0
 28 27  1  0  0  0  0
 28 29  1  0  0  0  0
 29 23  1  0  0  0  0
 30 31  1  0  0  0  0
 30 29  2  0  0  0  0
 32 30  1  0  0  0  0
 33 32  1  0  0  0  0
 34 35  1  0  0  0  0
 34 32  2  0  0  0  0
 35 28  2  0  0  0  0
M  END
>  <minimizedAffinity>
-5.70152998

>  <minimizedRMSD>
3.10090232

$$$$
