
 OpenBabel03272508023D

 28 30  0  0  0  0  0  0  0  0999 V2000
   38.9690   31.9120   46.5400 C   0  0  0  0  0  0  0  0  0  0  0  0
   39.1590   32.9940   47.3430 C   0  0  0  0  0  0  0  0  0  0  0  0
   38.5890   32.7860   48.5940 C   0  0  0  0  0  0  0  0  0  0  0  0
   38.0550   31.5450   48.5070 N   0  0  0  0  0  0  0  0  0  0  0  0
   38.2800   31.0410   47.3060 N   0  0  0  0  0  0  0  0  0  0  0  0
   39.6750   33.9140   47.0890 H   0  0  0  0  0  0  0  0  0  0  0  0
   38.5430   33.4130   49.4730 H   0  0  0  0  0  0  0  0  0  0  0  0
   35.3990   30.4880   47.5240 Cl  0  0  0  0  0  0  0  0  0  0  0  0
   36.1060   30.2580   49.1100 C   0  0  0  0  0  0  0  0  0  0  0  0
   37.3410   30.7850   49.4750 C   0  0  0  0  0  0  0  0  0  0  0  0
   37.9150   30.6180   50.7100 C   0  0  0  0  0  0  0  0  0  0  0  0
   38.8780   31.0480   50.9470 H   0  0  0  0  0  0  0  0  0  0  0  0
   37.2290   29.8760   51.6720 C   0  0  0  0  0  0  0  0  0  0  0  0
   37.7160   29.7670   52.6330 H   0  0  0  0  0  0  0  0  0  0  0  0
   35.9990   29.3420   51.3320 C   0  0  0  0  0  0  0  0  0  0  0  0
   35.4340   29.5170   50.0870 C   0  0  0  0  0  0  0  0  0  0  0  0
   39.4030   31.7230   45.1680 C   0  0  0  0  0  0  0  0  0  0  0  0
   38.8820   32.5820   44.1730 C   0  0  0  0  0  0  0  0  0  0  0  0
   39.2890   32.4100   42.8560 C   0  0  0  0  0  0  0  0  0  0  0  0
   40.1760   31.4140   42.5950 N   0  0  0  0  0  0  0  0  0  0  0  0
   40.6690   30.5970   43.5550 C   0  0  0  0  0  0  0  0  0  0  0  0
   40.2700   30.7680   44.8300 N   0  0  0  0  0  0  0  0  0  0  0  0
   38.1700   33.3690   44.4300 H   0  0  0  0  0  0  0  0  0  0  0  0
   41.3720   29.8090   43.3490 H   0  0  0  0  0  0  0  0  0  0  0  0
   38.7480   33.3070   41.8050 C   0  0  0  0  0  0  0  0  0  0  0  0
   39.4080   34.4980   41.9410 F   0  0  0  0  0  0  0  0  0  0  0  0
   38.9620   32.8070   40.5220 F   0  0  0  0  0  0  0  0  0  0  0  0
   37.3860   33.5490   41.9820 F   0  0  0  0  0  0  0  0  0  0  0  0
  1  5  2  0  0  0  0
  1  2  1  0  0  0  0
  2  3  2  0  0  0  0
  3  7  1  0  0  0  0
  4  3  1  0  0  0  0
  4 10  1  0  0  0  0
  5  4  1  0  0  0  0
  6  2  1  0  0  0  0
  8  9  1  0  0  0  0
  9 10  2  0  0  0  0
  9 16  1  0  0  0  0
 10 11  1  0  0  0  0
 11 12  1  0  0  0  0
 11 13  2  0  0  0  0
 13 14  1  0  0  0  0
 15 13  1  0  0  0  0
 16 15  2  0  0  0  0
 17  1  1  0  0  0  0
 18 23  1  0  0  0  0
 18 17  2  0  0  0  0
 19 18  1  0  0  0  0
 20 19  2  0  0  0  0
 20 21  1  0  0  0  0
 21 22  2  0  0  0  0
 22 17  1  0  0  0  0
 24 21  1  0  0  0  0
 25 26  1  0  0  0  0
 25 28  1  0  0  0  0
 25 19  1  0  0  0  0
 27 25  1  0  0  0  0
M  END
>  <minimizedAffinity>
-6.47495556

>  <minimizedRMSD>
7.62734938

$$$$
