
 OpenBabel03272503313D

 34 36  0  0  1  0  0  0  0  0999 V2000
   36.3990   23.8970   31.7400 C   0  0  0  0  0  0  0  0  0  0  0  0
   35.2690   24.0970   30.9510 C   0  0  0  0  0  0  0  0  0  0  0  0
   34.8160   25.4030   30.7960 C   0  0  0  0  0  0  0  0  0  0  0  0
   35.5230   26.3900   31.4350 N   0  0  0  0  0  0  0  0  0  0  0  0
   36.5950   26.1660   32.1790 C   0  0  0  0  0  0  0  0  0  0  0  0
   37.0450   24.9120   32.3390 N   0  0  0  0  0  0  0  0  0  0  0  0
   34.7640   23.2780   30.4790 H   0  0  0  0  0  0  0  0  0  0  0  0
   33.9640   25.6480   30.2140 H   0  0  0  0  0  0  0  0  0  0  0  0
   36.8670   22.5430   31.8990 N   0  0  0  0  0  0  0  0  0  0  0  0
   36.7810   21.7410   33.0800 C   0  0  0  0  0  0  0  0  0  0  0  0
   36.7080   20.3210   32.5050 C   0  0  2  0  0  0  0  0  0  0  0  0
   36.6660   20.4840   31.0030 C   0  0  0  0  0  0  0  0  0  0  0  0
   37.5170   21.7400   30.8850 C   0  0  0  0  0  0  0  0  0  0  0  0
   37.6120   21.8550   33.7810 H   0  0  0  0  0  0  0  0  0  0  0  0
   35.8260   21.8890   33.6330 H   0  0  0  0  0  0  0  0  0  0  0  0
   37.6680   19.7670   32.7170 H   0  0  0  0  0  0  0  0  0  0  0  0
   35.6030   20.7070   30.7330 H   0  0  0  0  0  0  0  0  0  0  0  0
   37.0940   19.6350   30.4660 H   0  0  0  0  0  0  0  0  0  0  0  0
   37.3600   22.1410   29.8590 H   0  0  0  0  0  0  0  0  0  0  0  0
   38.5480   21.4680   31.1030 H   0  0  0  0  0  0  0  0  0  0  0  0
   35.5580   19.5320   33.0440 C   0  0  0  0  0  0  0  0  0  0  0  0
   34.4370   19.9540   32.3480 F   0  0  0  0  0  0  0  0  0  0  0  0
   35.3680   19.9250   34.3540 F   0  0  0  0  0  0  0  0  0  0  0  0
   35.7320   18.1850   32.9930 F   0  0  0  0  0  0  0  0  0  0  0  0
   37.4530   27.5070   32.9790 S   0  0  0  0  0  0  0  0  0  0  0  0
   38.6870   27.1060   35.9070 Cl  0  0  0  0  0  0  0  0  0  0  0  0
   39.7250   26.9780   34.5210 C   0  0  0  0  0  0  0  0  0  0  0  0
   39.1580   27.1580   33.2740 C   0  0  0  0  0  0  0  0  0  0  0  0
   39.9770   27.0590   32.1590 C   0  0  0  0  0  0  0  0  0  0  0  0
   39.5930   27.1900   31.1370 H   0  0  0  0  0  0  0  0  0  0  0  0
   41.3310   26.7860   32.3280 C   0  0  0  0  0  0  0  0  0  0  0  0
   41.9480   26.7140   31.4330 H   0  0  0  0  0  0  0  0  0  0  0  0
   41.9170   26.6020   33.5740 C   0  0  0  0  0  3  0  0  0  0  0  0
   41.0830   26.7040   34.6850 C   0  0  0  0  0  3  0  0  0  0  0  0
  1  9  1  0  0  0  0
  1  6  1  0  0  0  0
  2  1  2  0  0  0  0
  3  2  1  0  0  0  0
  3  4  2  0  0  0  0
  4  5  1  0  0  0  0
  5  6  2  0  0  0  0
  5 25  1  0  0  0  0
  7  2  1  0  0  0  0
  8  3  1  0  0  0  0
  9 10  1  0  0  0  0
 10 15  1  0  0  0  0
 10 14  1  0  0  0  0
 11 16  1  1  0  0  0
 11 21  1  0  0  0  0
 11 10  1  0  0  0  0
 12 11  1  0  0  0  0
 13 12  1  0  0  0  0
 13 20  1  0  0  0  0
 13  9  1  0  0  0  0
 17 12  1  0  0  0  0
 18 12  1  0  0  0  0
 19 13  1  0  0  0  0
 21 23  1  0  0  0  0
 22 21  1  0  0  0  0
 24 21  1  0  0  0  0
 25 28  1  0  0  0  0
 27 34  1  0  0  0  0
 27 26  1  0  0  0  0
 28 27  2  0  0  0  0
 29 31  2  0  0  0  0
 29 28  1  0  0  0  0
 30 29  1  0  0  0  0
 31 33  1  0  0  0  0
 32 31  1  0  0  0  0
 33 34  2  0  0  0  0
M  END
>  <minimizedAffinity>
-5.89694166

$$$$

 OpenBabel03272503313D

 34 36  0  0  1  0  0  0  0  0999 V2000
   37.0250   26.1020   33.3000 C   0  0  0  0  0  0  0  0  0  0  0  0
   37.7170   25.9290   34.4960 C   0  0  0  0  0  0  0  0  0  0  0  0
   37.7410   26.9980   35.3870 C   0  0  0  0  0  0  0  0  0  0  0  0
   37.0750   28.1380   35.0120 N   0  0  0  0  0  0  0  0  0  0  0  0
   36.4240   28.2700   33.8660 C   0  0  0  0  0  0  0  0  0  0  0  0
   36.3930   27.2490   32.9970 N   0  0  0  0  0  0  0  0  0  0  0  0
   38.2170   25.0090   34.7250 H   0  0  0  0  0  0  0  0  0  0  0  0
   38.2440   26.9560   36.3190 H   0  0  0  0  0  0  0  0  0  0  0  0
   37.0010   24.9930   32.3800 N   0  0  0  0  0  0  0  0  0  0  0  0
   37.5380   23.6860   32.6020 C   0  0  0  0  0  0  0  0  0  0  0  0
   36.6320   22.8090   31.7290 C   0  0  2  0  0  0  0  0  0  0  0  0
   35.5830   23.7360   31.1590 C   0  0  0  0  0  0  0  0  0  0  0  0
   36.4270   24.9980   31.0510 C   0  0  0  0  0  0  0  0  0  0  0  0
   38.5940   23.5670   32.3430 H   0  0  0  0  0  0  0  0  0  0  0  0
   37.3850   23.3290   33.6460 H   0  0  0  0  0  0  0  0  0  0  0  0
   37.2070   22.4260   30.8370 H   0  0  0  0  0  0  0  0  0  0  0  0
   34.7980   23.8580   31.9470 H   0  0  0  0  0  0  0  0  0  0  0  0
   35.1970   23.4060   30.1920 H   0  0  0  0  0  0  0  0  0  0  0  0
   35.7230   25.8450   30.8960 H   0  0  0  0  0  0  0  0  0  0  0  0
   37.1390   24.8570   30.2410 H   0  0  0  0  0  0  0  0  0  0  0  0
   36.0510   21.6500   32.4720 C   0  0  0  0  0  0  0  0  0  0  0  0
   36.2560   20.5340   31.6770 F   0  0  0  0  0  0  0  0  0  0  0  0
   34.6830   21.8380   32.5250 F   0  0  0  0  0  0  0  0  0  0  0  0
   36.5380   21.4930   33.7320 F   0  0  0  0  0  0  0  0  0  0  0  0
   35.5890   29.7890   33.4560 S   0  0  0  0  0  0  0  0  0  0  0  0
   32.5380   29.3180   34.3090 Cl  0  0  0  0  0  0  0  0  0  0  0  0
   33.5310   30.3860   35.2530 C   0  0  0  0  0  0  0  0  0  0  0  0
   34.8420   30.5660   34.8540 C   0  0  0  0  0  0  0  0  0  0  0  0
   35.6450   31.4160   35.6000 C   0  0  0  0  0  0  0  0  0  0  0  0
   36.6970   31.6050   35.3410 H   0  0  0  0  0  0  0  0  0  0  0  0
   35.1110   32.0570   36.7140 C   0  0  0  0  0  0  0  0  0  0  0  0
   35.7660   32.7190   37.2790 H   0  0  0  0  0  0  0  0  0  0  0  0
   33.7960   31.8880   37.1270 C   0  0  0  0  0  3  0  0  0  0  0  0
   33.0010   31.0310   36.3700 C   0  0  0  0  0  3  0  0  0  0  0  0
  1  2  1  0  0  0  0
  2  7  1  0  0  0  0
  2  3  2  0  0  0  0
  3  8  1  0  0  0  0
  4  3  1  0  0  0  0
  5  4  2  0  0  0  0
  6  1  2  0  0  0  0
  6  5  1  0  0  0  0
  9 10  1  0  0  0  0
  9  1  1  0  0  0  0
 10 15  1  0  0  0  0
 11 16  1  6  0  0  0
 11 21  1  0  0  0  0
 11 10  1  0  0  0  0
 12 11  1  0  0  0  0
 12 17  1  0  0  0  0
 13 12  1  0  0  0  0
 13  9  1  0  0  0  0
 14 10  1  0  0  0  0
 18 12  1  0  0  0  0
 19 13  1  0  0  0  0
 20 13  1  0  0  0  0
 21 23  1  0  0  0  0
 21 24  1  0  0  0  0
 22 21  1  0  0  0  0
 25  5  1  0  0  0  0
 25 28  1  0  0  0  0
 26 27  1  0  0  0  0
 27 34  1  0  0  0  0
 28 27  2  0  0  0  0
 28 29  1  0  0  0  0
 29 31  2  0  0  0  0
 30 29  1  0  0  0  0
 31 33  1  0  0  0  0
 31 32  1  0  0  0  0
 34 33  2  0  0  0  0
M  END
>  <minimizedAffinity>
-5.74903202

$$$$

 OpenBabel03272503313D

 34 36  0  0  1  0  0  0  0  0999 V2000
   37.1280   23.6410   32.1860 C   0  0  0  0  0  0  0  0  0  0  0  0
   36.4330   24.4430   31.2850 C   0  0  0  0  0  0  0  0  0  0  0  0
   36.4050   25.8130   31.5310 C   0  0  0  0  0  0  0  0  0  0  0  0
   37.0690   26.2610   32.6450 N   0  0  0  0  0  0  0  0  0  0  0  0
   37.7220   25.4710   33.4830 C   0  0  0  0  0  0  0  0  0  0  0  0
   37.7580   24.1490   33.2600 N   0  0  0  0  0  0  0  0  0  0  0  0
   35.9360   24.0250   30.4320 H   0  0  0  0  0  0  0  0  0  0  0  0
   35.8990   26.4970   30.8990 H   0  0  0  0  0  0  0  0  0  0  0  0
   37.1570   22.2230   31.9290 N   0  0  0  0  0  0  0  0  0  0  0  0
   37.0960   21.1760   32.9020 C   0  0  0  0  0  0  0  0  0  0  0  0
   36.4350   20.0380   32.1150 C   0  0  2  0  0  0  0  0  0  0  0  0
   36.0960   20.6150   30.7600 C   0  0  0  0  0  0  0  0  0  0  0  0
   37.2550   21.5930   30.6300 C   0  0  0  0  0  0  0  0  0  0  0  0
   38.0600   20.8760   33.3230 H   0  0  0  0  0  0  0  0  0  0  0  0
   36.3980   21.4060   33.7390 H   0  0  0  0  0  0  0  0  0  0  0  0
   37.1860   19.2210   31.9110 H   0  0  0  0  0  0  0  0  0  0  0  0
   35.1300   21.1680   30.8770 H   0  0  0  0  0  0  0  0  0  0  0  0
   36.0880   19.8670   29.9640 H   0  0  0  0  0  0  0  0  0  0  0  0
   36.9990   22.2880   29.8000 H   0  0  0  0  0  0  0  0  0  0  0  0
   38.1630   21.0160   30.4650 H   0  0  0  0  0  0  0  0  0  0  0  0
   35.2530   19.4530   32.8180 C   0  0  0  0  0  0  0  0  0  0  0  0
   34.1540   19.7160   32.0170 F   0  0  0  0  0  0  0  0  0  0  0  0
   35.0640   20.1780   33.9790 F   0  0  0  0  0  0  0  0  0  0  0  0
   35.3780   18.1350   33.1210 F   0  0  0  0  0  0  0  0  0  0  0  0
   38.5540   26.1370   34.9110 S   0  0  0  0  0  0  0  0  0  0  0  0
   40.8570   23.9110   34.9100 Cl  0  0  0  0  0  0  0  0  0  0  0  0
   39.7400   23.9800   36.2390 C   0  0  0  0  0  0  0  0  0  0  0  0
   38.7590   24.9530   36.2050 C   0  0  0  0  0  0  0  0  0  0  0  0
   37.8620   25.0190   37.2600 C   0  0  0  0  0  0  0  0  0  0  0  0
   37.0570   25.7670   37.2990 H   0  0  0  0  0  0  0  0  0  0  0  0
   37.9740   24.1110   38.3090 C   0  0  0  0  0  0  0  0  0  0  0  0
   37.2540   24.1880   39.1230 H   0  0  0  0  0  0  0  0  0  0  0  0
   38.9530   23.1280   38.3580 C   0  0  0  0  0  3  0  0  0  0  0  0
   39.8480   23.0730   37.2930 C   0  0  0  0  0  3  0  0  0  0  0  0
  1  6  1  0  0  0  0
  2  3  1  0  0  0  0
  2  1  2  0  0  0  0
  3  4  2  0  0  0  0
  4  5  1  0  0  0  0
  5 25  1  0  0  0  0
  6  5  2  0  0  0  0
  7  2  1  0  0  0  0
  8  3  1  0  0  0  0
  9  1  1  0  0  0  0
  9 10  1  0  0  0  0
 10 14  1  0  0  0  0
 10 15  1  0  0  0  0
 11 16  1  6  0  0  0
 11 21  1  0  0  0  0
 11 10  1  0  0  0  0
 12 17  1  0  0  0  0
 12 11  1  0  0  0  0
 13 12  1  0  0  0  0
 13  9  1  0  0  0  0
 18 12  1  0  0  0  0
 19 13  1  0  0  0  0
 20 13  1  0  0  0  0
 21 24  1  0  0  0  0
 21 23  1  0  0  0  0
 22 21  1  0  0  0  0
 25 28  1  0  0  0  0
 26 27  1  0  0  0  0
 27 34  1  0  0  0  0
 28 27  2  0  0  0  0
 28 29  1  0  0  0  0
 29 30  1  0  0  0  0
 29 31  2  0  0  0  0
 31 33  1  0  0  0  0
 31 32  1  0  0  0  0
 34 33  2  0  0  0  0
M  END
>  <minimizedAffinity>
-5.72552061

$$$$

 OpenBabel03272503313D

 34 36  0  0  1  0  0  0  0  0999 V2000
   37.9510   22.8210   34.0760 C   0  0  0  0  0  0  0  0  0  0  0  0
   38.2980   21.9970   35.1420 C   0  0  0  0  0  0  0  0  0  0  0  0
   38.8510   22.5980   36.2690 C   0  0  0  0  0  0  0  0  0  0  0  0
   39.0070   23.9610   36.2350 N   0  0  0  0  0  0  0  0  0  0  0  0
   38.6660   24.7180   35.2040 C   0  0  0  0  0  0  0  0  0  0  0  0
   38.1320   24.1520   34.1110 N   0  0  0  0  0  0  0  0  0  0  0  0
   38.1480   20.9360   35.1020 H   0  0  0  0  0  0  0  0  0  0  0  0
   39.1450   22.0480   37.1260 H   0  0  0  0  0  0  0  0  0  0  0  0
   37.3790   22.1950   32.9110 N   0  0  0  0  0  0  0  0  0  0  0  0
   37.3730   20.7980   32.6070 C   0  0  0  0  0  0  0  0  0  0  0  0
   36.0960   20.6500   31.7710 C   0  0  2  0  0  0  0  0  0  0  0  0
   35.4420   22.0140   31.7710 C   0  0  0  0  0  0  0  0  0  0  0  0
   36.6990   22.8700   31.8260 C   0  0  0  0  0  0  0  0  0  0  0  0
   38.2560   20.4350   32.0710 H   0  0  0  0  0  0  0  0  0  0  0  0
   37.2180   20.1610   33.5070 H   0  0  0  0  0  0  0  0  0  0  0  0
   36.3600   20.4470   30.6930 H   0  0  0  0  0  0  0  0  0  0  0  0
   34.8710   22.0970   32.7300 H   0  0  0  0  0  0  0  0  0  0  0  0
   34.8440   22.2030   30.8770 H   0  0  0  0  0  0  0  0  0  0  0  0
   36.3760   23.8990   32.1010 H   0  0  0  0  0  0  0  0  0  0  0  0
   37.1930   22.8020   30.8590 H   0  0  0  0  0  0  0  0  0  0  0  0
   35.1960   19.5660   32.2690 C   0  0  0  0  0  0  0  0  0  0  0  0
   33.9020   19.9710   31.9820 F   0  0  0  0  0  0  0  0  0  0  0  0
   35.2960   19.5480   33.6460 F   0  0  0  0  0  0  0  0  0  0  0  0
   35.4810   18.3320   31.7760 F   0  0  0  0  0  0  0  0  0  0  0  0
   38.9080   26.4830   35.2410 S   0  0  0  0  0  0  0  0  0  0  0  0
   39.6710   26.6750   32.1370 Cl  0  0  0  0  0  0  0  0  0  0  0  0
   38.2210   27.4440   32.7070 C   0  0  0  0  0  0  0  0  0  0  0  0
   37.9240   27.3400   34.0520 C   0  0  0  0  0  0  0  0  0  0  0  0
   36.7690   27.9490   34.5190 C   0  0  0  0  0  0  0  0  0  0  0  0
   36.4710   27.9070   35.5770 H   0  0  0  0  0  0  0  0  0  0  0  0
   35.9540   28.6410   33.6280 C   0  0  0  0  0  0  0  0  0  0  0  0
   35.0540   29.1090   34.0250 H   0  0  0  0  0  0  0  0  0  0  0  0
   36.2370   28.7540   32.2740 C   0  0  0  0  0  3  0  0  0  0  0  0
   37.4000   28.1370   31.8180 C   0  0  0  0  0  3  0  0  0  0  0  0
  1  6  2  0  0  0  0
  1  2  1  0  0  0  0
  2  3  2  0  0  0  0
  3  8  1  0  0  0  0
  4  3  1  0  0  0  0
  5 25  1  0  0  0  0
  5  4  2  0  0  0  0
  6  5  1  0  0  0  0
  7  2  1  0  0  0  0
  9  1  1  0  0  0  0
 10  9  1  0  0  0  0
 10 15  1  0  0  0  0
 11 16  1  6  0  0  0
 11 21  1  0  0  0  0
 11 10  1  0  0  0  0
 12 11  1  0  0  0  0
 12 13  1  0  0  0  0
 12 17  1  0  0  0  0
 13 19  1  0  0  0  0
 13  9  1  0  0  0  0
 14 10  1  0  0  0  0
 18 12  1  0  0  0  0
 20 13  1  0  0  0  0
 21 23  1  0  0  0  0
 22 21  1  0  0  0  0
 24 21  1  0  0  0  0
 26 27  1  0  0  0  0
 27 28  1  0  0  0  0
 28 29  2  0  0  0  0
 28 25  1  0  0  0  0
 29 30  1  0  0  0  0
 31 32  1  0  0  0  0
 31 29  1  0  0  0  0
 33 31  2  0  0  0  0
 34 33  1  0  0  0  0
 34 27  2  0  0  0  0
M  END
>  <minimizedAffinity>
-5.69817209

$$$$

 OpenBabel03272503313D

 34 36  0  0  1  0  0  0  0  0999 V2000
   36.7960   24.4240   31.8810 C   0  0  0  0  0  0  0  0  0  0  0  0
   35.6760   23.6910   31.4970 C   0  0  0  0  0  0  0  0  0  0  0  0
   35.6070   22.3610   31.9010 C   0  0  0  0  0  0  0  0  0  0  0  0
   36.6520   21.8810   32.6500 N   0  0  0  0  0  0  0  0  0  0  0  0
   37.7030   22.6060   33.0000 C   0  0  0  0  0  0  0  0  0  0  0  0
   37.7850   23.8890   32.6170 N   0  0  0  0  0  0  0  0  0  0  0  0
   34.8940   24.1300   30.9100 H   0  0  0  0  0  0  0  0  0  0  0  0
   34.7930   21.7280   31.6530 H   0  0  0  0  0  0  0  0  0  0  0  0
   36.8640   25.8010   31.4620 N   0  0  0  0  0  0  0  0  0  0  0  0
   35.7710   26.7160   31.3510 C   0  0  0  0  0  0  0  0  0  0  0  0
   36.4490   28.0670   31.6120 C   0  0  2  0  0  0  0  0  0  0  0  0
   37.8890   27.7490   31.9460 C   0  0  0  0  0  0  0  0  0  0  0  0
   38.0610   26.5160   31.0720 C   0  0  0  0  0  0  0  0  0  0  0  0
   35.2470   26.7010   30.3910 H   0  0  0  0  0  0  0  0  0  0  0  0
   35.0230   26.5950   32.1660 H   0  0  0  0  0  0  0  0  0  0  0  0
   36.4910   28.6700   30.6580 H   0  0  0  0  0  0  0  0  0  0  0  0
   37.9130   27.4660   33.0290 H   0  0  0  0  0  0  0  0  0  0  0  0
   38.5790   28.5530   31.6790 H   0  0  0  0  0  0  0  0  0  0  0  0
   38.9900   26.0070   31.4110 H   0  0  0  0  0  0  0  0  0  0  0  0
   38.0850   26.8420   30.0340 H   0  0  0  0  0  0  0  0  0  0  0  0
   35.7620   28.8690   32.6690 C   0  0  0  0  0  0  0  0  0  0  0  0
   36.1950   30.1760   32.5090 F   0  0  0  0  0  0  0  0  0  0  0  0
   36.2530   28.4480   33.8890 F   0  0  0  0  0  0  0  0  0  0  0  0
   34.4070   28.7610   32.6610 F   0  0  0  0  0  0  0  0  0  0  0  0
   39.0200   21.9010   33.9710 S   0  0  0  0  0  0  0  0  0  0  0  0
   41.5630   21.7240   35.9100 Cl  0  0  0  0  0  0  0  0  0  0  0  0
   40.0690   22.3670   36.5210 C   0  0  0  0  0  0  0  0  0  0  0  0
   38.9940   22.4270   35.6560 C   0  0  0  0  0  0  0  0  0  0  0  0
   37.7960   22.9390   36.1310 C   0  0  0  0  0  0  0  0  0  0  0  0
   36.9000   23.0170   35.4990 H   0  0  0  0  0  0  0  0  0  0  0  0
   37.7130   23.3690   37.4520 C   0  0  0  0  0  0  0  0  0  0  0  0
   36.7590   23.7660   37.7970 H   0  0  0  0  0  0  0  0  0  0  0  0
   38.7850   23.3160   38.3340 C   0  0  0  0  0  3  0  0  0  0  0  0
   39.9820   22.8000   37.8440 C   0  0  0  0  0  3  0  0  0  0  0  0
  1  6  1  0  0  0  0
  2  1  2  0  0  0  0
  2  3  1  0  0  0  0
  3  4  2  0  0  0  0
  4  5  1  0  0  0  0
  5 25  1  0  0  0  0
  6  5  2  0  0  0  0
  7  2  1  0  0  0  0
  8  3  1  0  0  0  0
  9  1  1  0  0  0  0
 10  9  1  0  0  0  0
 10 11  1  0  0  0  0
 10 15  1  0  0  0  0
 11 16  1  6  0  0  0
 11 12  1  0  0  0  0
 11 21  1  0  0  0  0
 12 17  1  0  0  0  0
 13 19  1  0  0  0  0
 13  9  1  0  0  0  0
 13 12  1  0  0  0  0
 14 10  1  0  0  0  0
 18 12  1  0  0  0  0
 20 13  1  0  0  0  0
 21 23  1  0  0  0  0
 22 21  1  0  0  0  0
 24 21  1  0  0  0  0
 25 28  1  0  0  0  0
 26 27  1  0  0  0  0
 27 34  1  0  0  0  0
 28 29  1  0  0  0  0
 28 27  2  0  0  0  0
 29 31  2  0  0  0  0
 30 29  1  0  0  0  0
 31 32  1  0  0  0  0
 31 33  1  0  0  0  0
 34 33  2  0  0  0  0
M  END
>  <minimizedAffinity>
-5.68174839

$$$$

 OpenBabel03272503313D

 34 36  0  0  1  0  0  0  0  0999 V2000
   38.1710   25.1510   35.5360 C   0  0  0  0  0  0  0  0  0  0  0  0
   38.4160   26.3400   36.2170 C   0  0  0  0  0  0  0  0  0  0  0  0
   38.1140   27.5310   35.5630 C   0  0  0  0  0  0  0  0  0  0  0  0
   37.5950   27.4340   34.2970 N   0  0  0  0  0  0  0  0  0  0  0  0
   37.3720   26.2850   33.6760 C   0  0  0  0  0  0  0  0  0  0  0  0
   37.6590   25.1290   34.2930 N   0  0  0  0  0  0  0  0  0  0  0  0
   38.8250   26.3430   37.2080 H   0  0  0  0  0  0  0  0  0  0  0  0
   38.2690   28.4820   36.0050 H   0  0  0  0  0  0  0  0  0  0  0  0
   38.4840   23.9190   36.2150 N   0  0  0  0  0  0  0  0  0  0  0  0
   39.2710   22.8390   35.7070 C   0  0  0  0  0  0  0  0  0  0  0  0
   39.8630   22.2360   36.9870 C   0  0  2  0  0  0  0  0  0  0  0  0
   39.4040   23.1310   38.1160 C   0  0  0  0  0  0  0  0  0  0  0  0
   38.0550   23.5450   37.5460 C   0  0  0  0  0  0  0  0  0  0  0  0
   38.7200   22.0960   35.1230 H   0  0  0  0  0  0  0  0  0  0  0  0
   40.1440   23.1860   35.1080 H   0  0  0  0  0  0  0  0  0  0  0  0
   39.3940   21.2310   37.1950 H   0  0  0  0  0  0  0  0  0  0  0  0
   40.1030   24.0050   38.1390 H   0  0  0  0  0  0  0  0  0  0  0  0
   39.3130   22.6070   39.0700 H   0  0  0  0  0  0  0  0  0  0  0  0
   37.7080   24.4180   38.1420 H   0  0  0  0  0  0  0  0  0  0  0  0
   37.3930   22.6830   37.5920 H   0  0  0  0  0  0  0  0  0  0  0  0
   41.3480   22.0810   36.9260 C   0  0  0  0  0  0  0  0  0  0  0  0
   41.6240   21.4420   35.7280 F   0  0  0  0  0  0  0  0  0  0  0  0
   41.7120   21.2000   37.9250 F   0  0  0  0  0  0  0  0  0  0  0  0
   42.0380   23.2430   37.0710 F   0  0  0  0  0  0  0  0  0  0  0  0
   36.6990   26.2500   32.0270 S   0  0  0  0  0  0  0  0  0  0  0  0
   34.7510   28.7550   32.4570 Cl  0  0  0  0  0  0  0  0  0  0  0  0
   36.0680   28.8830   31.3320 C   0  0  0  0  0  0  0  0  0  0  0  0
   36.8870   27.7830   31.1720 C   0  0  0  0  0  0  0  0  0  0  0  0
   37.9420   27.8730   30.2760 C   0  0  0  0  0  0  0  0  0  0  0  0
   38.6340   27.0370   30.0990 H   0  0  0  0  0  0  0  0  0  0  0  0
   38.1400   29.0570   29.5710 C   0  0  0  0  0  0  0  0  0  0  0  0
   38.9770   29.0970   28.8750 H   0  0  0  0  0  0  0  0  0  0  0  0
   37.3260   30.1720   29.7210 C   0  0  0  0  0  3  0  0  0  0  0  0
   36.2710   30.0680   30.6240 C   0  0  0  0  0  3  0  0  0  0  0  0
  1  9  1  0  0  0  0
  1  2  1  0  0  0  0
  2  7  1  0  0  0  0
  3  8  1  0  0  0  0
  3  2  2  0  0  0  0
  4  3  1  0  0  0  0
  5  6  1  0  0  0  0
  5  4  2  0  0  0  0
  6  1  2  0  0  0  0
  9 13  1  0  0  0  0
 10  9  1  0  0  0  0
 10 11  1  0  0  0  0
 11 16  1  1  0  0  0
 11 12  1  0  0  0  0
 12 17  1  0  0  0  0
 12 18  1  0  0  0  0
 13 20  1  0  0  0  0
 13 12  1  0  0  0  0
 13 19  1  0  0  0  0
 14 10  1  0  0  0  0
 15 10  1  0  0  0  0
 21 11  1  0  0  0  0
 21 24  1  0  0  0  0
 21 23  1  0  0  0  0
 22 21  1  0  0  0  0
 25  5  1  0  0  0  0
 27 26  1  0  0  0  0
 28 27  1  0  0  0  0
 28 25  1  0  0  0  0
 29 28  2  0  0  0  0
 30 29  1  0  0  0  0
 31 33  2  0  0  0  0
 31 29  1  0  0  0  0
 32 31  1  0  0  0  0
 33 34  1  0  0  0  0
 34 27  2  0  0  0  0
M  END
>  <minimizedAffinity>
-5.63063049

$$$$

 OpenBabel03272503313D

 34 36  0  0  1  0  0  0  0  0999 V2000
   38.1690   24.8990   35.5170 C   0  0  0  0  0  0  0  0  0  0  0  0
   38.2400   26.1840   36.0470 C   0  0  0  0  0  0  0  0  0  0  0  0
   37.9170   27.2470   35.2090 C   0  0  0  0  0  0  0  0  0  0  0  0
   37.5510   26.9370   33.9220 N   0  0  0  0  0  0  0  0  0  0  0  0
   37.4930   25.7020   33.4480 C   0  0  0  0  0  0  0  0  0  0  0  0
   37.8020   24.6680   34.2450 N   0  0  0  0  0  0  0  0  0  0  0  0
   38.5340   26.3550   37.0650 H   0  0  0  0  0  0  0  0  0  0  0  0
   37.9450   28.2570   35.5270 H   0  0  0  0  0  0  0  0  0  0  0  0
   38.5040   23.8010   36.3880 N   0  0  0  0  0  0  0  0  0  0  0  0
   39.1640   22.5870   36.0190 C   0  0  0  0  0  0  0  0  0  0  0  0
   39.8830   22.1990   37.3170 C   0  0  2  0  0  0  0  0  0  0  0  0
   39.6180   23.3260   38.2890 C   0  0  0  0  0  0  0  0  0  0  0  0
   38.2300   23.7230   37.8070 C   0  0  0  0  0  0  0  0  0  0  0  0
   38.5060   21.7890   35.6630 H   0  0  0  0  0  0  0  0  0  0  0  0
   39.9690   22.7460   35.2660 H   0  0  0  0  0  0  0  0  0  0  0  0
   39.3940   21.2910   37.7740 H   0  0  0  0  0  0  0  0  0  0  0  0
   40.3570   24.1330   38.0560 H   0  0  0  0  0  0  0  0  0  0  0  0
   39.6240   23.0040   39.3330 H   0  0  0  0  0  0  0  0  0  0  0  0
   38.0060   24.7180   38.2520 H   0  0  0  0  0  0  0  0  0  0  0  0
   37.5370   22.9380   38.1010 H   0  0  0  0  0  0  0  0  0  0  0  0
   41.3390   21.9250   37.1170 C   0  0  0  0  0  0  0  0  0  0  0  0
   41.9730   23.1570   37.1280 F   0  0  0  0  0  0  0  0  0  0  0  0
   41.4910   21.4250   35.8380 F   0  0  0  0  0  0  0  0  0  0  0  0
   41.8710   21.0520   38.0130 F   0  0  0  0  0  0  0  0  0  0  0  0
   37.0130   25.3900   31.7610 S   0  0  0  0  0  0  0  0  0  0  0  0
   39.5300   23.6490   30.8160 Cl  0  0  0  0  0  0  0  0  0  0  0  0
   37.9760   22.8870   30.9700 C   0  0  0  0  0  0  0  0  0  0  0  0
   36.9140   23.6690   31.3790 C   0  0  0  0  0  0  0  0  0  0  0  0
   35.6690   23.0710   31.5060 C   0  0  0  0  0  0  0  0  0  0  0  0
   34.7790   23.6330   31.8280 H   0  0  0  0  0  0  0  0  0  0  0  0
   35.5280   21.7170   31.2180 C   0  0  0  0  0  0  0  0  0  0  0  0
   34.5380   21.2760   31.3270 H   0  0  0  0  0  0  0  0  0  0  0  0
   36.5860   20.9170   30.8060 C   0  0  0  0  0  3  0  0  0  0  0  0
   37.8310   21.5290   30.6830 C   0  0  0  0  0  3  0  0  0  0  0  0
  1  2  1  0  0  0  0
  1  9  1  0  0  0  0
  2  7  1  0  0  0  0
  3  8  1  0  0  0  0
  3  2  2  0  0  0  0
  4  3  1  0  0  0  0
  5  4  2  0  0  0  0
  5  6  1  0  0  0  0
  6  1  2  0  0  0  0
  9 13  1  0  0  0  0
 10  9  1  0  0  0  0
 10 11  1  0  0  0  0
 11 16  1  1  0  0  0
 11 12  1  0  0  0  0
 12 18  1  0  0  0  0
 13 20  1  0  0  0  0
 13 19  1  0  0  0  0
 13 12  1  0  0  0  0
 14 10  1  0  0  0  0
 15 10  1  0  0  0  0
 17 12  1  0  0  0  0
 21 22  1  0  0  0  0
 21 11  1  0  0  0  0
 21 24  1  0  0  0  0
 23 21  1  0  0  0  0
 25  5  1  0  0  0  0
 26 27  1  0  0  0  0
 27 28  1  0  0  0  0
 28 29  2  0  0  0  0
 28 25  1  0  0  0  0
 29 30  1  0  0  0  0
 31 32  1  0  0  0  0
 31 29  1  0  0  0  0
 33 31  2  0  0  0  0
 34 33  1  0  0  0  0
 34 27  2  0  0  0  0
M  END
>  <minimizedAffinity>
-5.62235069

$$$$

 OpenBabel03272503313D

 34 36  0  0  1  0  0  0  0  0999 V2000
   36.8640   28.0520   32.0900 C   0  0  0  0  0  0  0  0  0  0  0  0
   37.1290   28.7450   30.9120 C   0  0  0  0  0  0  0  0  0  0  0  0
   36.2540   29.7670   30.5550 C   0  0  0  0  0  0  0  0  0  0  0  0
   35.1990   30.0090   31.3980 N   0  0  0  0  0  0  0  0  0  0  0  0
   34.9750   29.3300   32.5130 C   0  0  0  0  0  0  0  0  0  0  0  0
   35.8090   28.3420   32.8700 N   0  0  0  0  0  0  0  0  0  0  0  0
   37.9740   28.5040   30.2980 H   0  0  0  0  0  0  0  0  0  0  0  0
   36.3780   30.3460   29.6750 H   0  0  0  0  0  0  0  0  0  0  0  0
   37.7720   26.9950   32.4570 N   0  0  0  0  0  0  0  0  0  0  0  0
   39.2010   27.0590   32.4650 C   0  0  0  0  0  0  0  0  0  0  0  0
   39.5660   26.0560   33.5660 C   0  0  2  0  0  0  0  0  0  0  0  0
   38.2530   25.5830   34.1470 C   0  0  0  0  0  0  0  0  0  0  0  0
   37.4030   25.6630   32.8880 C   0  0  0  0  0  0  0  0  0  0  0  0
   39.6830   26.8160   31.5140 H   0  0  0  0  0  0  0  0  0  0  0  0
   39.5860   28.0430   32.8170 H   0  0  0  0  0  0  0  0  0  0  0  0
   40.0380   25.1370   33.1110 H   0  0  0  0  0  0  0  0  0  0  0  0
   37.9300   26.3590   34.8860 H   0  0  0  0  0  0  0  0  0  0  0  0
   38.3040   24.5710   34.5560 H   0  0  0  0  0  0  0  0  0  0  0  0
   36.3400   25.6000   33.2110 H   0  0  0  0  0  0  0  0  0  0  0  0
   37.7140   24.8610   32.2220 H   0  0  0  0  0  0  0  0  0  0  0  0
   40.4920   26.6260   34.5910 C   0  0  0  0  0  0  0  0  0  0  0  0
   41.0990   25.5470   35.2120 F   0  0  0  0  0  0  0  0  0  0  0  0
   39.7140   27.2370   35.5540 F   0  0  0  0  0  0  0  0  0  0  0  0
   41.3900   27.5200   34.0970 F   0  0  0  0  0  0  0  0  0  0  0  0
   33.5760   29.7070   33.5500 S   0  0  0  0  0  0  0  0  0  0  0  0
   31.5570   30.2930   35.9660 Cl  0  0  0  0  0  0  0  0  0  0  0  0
   33.1570   30.9680   36.0110 C   0  0  0  0  0  0  0  0  0  0  0  0
   34.0000   30.6940   34.9510 C   0  0  0  0  0  0  0  0  0  0  0  0
   35.2810   31.2270   34.9750 C   0  0  0  0  0  0  0  0  0  0  0  0
   36.0040   31.0490   34.1660 H   0  0  0  0  0  0  0  0  0  0  0  0
   35.6730   32.0140   36.0530 C   0  0  0  0  0  0  0  0  0  0  0  0
   36.6840   32.4180   36.0430 H   0  0  0  0  0  0  0  0  0  0  0  0
   34.8380   32.2990   37.1260 C   0  0  0  0  0  3  0  0  0  0  0  0
   33.5550   31.7570   37.0900 C   0  0  0  0  0  3  0  0  0  0  0  0
  1  9  1  0  0  0  0
  1  6  1  0  0  0  0
  2  1  2  0  0  0  0
  3  2  1  0  0  0  0
  3  4  2  0  0  0  0
  4  5  1  0  0  0  0
  5  6  2  0  0  0  0
  5 25  1  0  0  0  0
  7  2  1  0  0  0  0
  8  3  1  0  0  0  0
  9 10  1  0  0  0  0
  9 13  1  0  0  0  0
 10 15  1  0  0  0  0
 10 11  1  0  0  0  0
 11 16  1  6  0  0  0
 11 12  1  0  0  0  0
 11 21  1  0  0  0  0
 12 18  1  0  0  0  0
 12 17  1  0  0  0  0
 13 19  1  0  0  0  0
 13 12  1  0  0  0  0
 14 10  1  0  0  0  0
 20 13  1  0  0  0  0
 21 22  1  0  0  0  0
 21 23  1  0  0  0  0
 24 21  1  0  0  0  0
 25 28  1  0  0  0  0
 26 27  1  0  0  0  0
 27 34  1  0  0  0  0
 28 29  1  0  0  0  0
 28 27  2  0  0  0  0
 29 31  2  0  0  0  0
 30 29  1  0  0  0  0
 31 33  1  0  0  0  0
 32 31  1  0  0  0  0
 34 33  2  0  0  0  0
M  END
>  <minimizedAffinity>
-5.61815977

$$$$

 OpenBabel03272503313D

 34 36  0  0  1  0  0  0  0  0999 V2000
   37.8170   24.1600   33.0730 C   0  0  0  0  0  0  0  0  0  0  0  0
   36.9400   23.2440   32.5000 C   0  0  0  0  0  0  0  0  0  0  0  0
   36.1700   23.6750   31.4230 C   0  0  0  0  0  0  0  0  0  0  0  0
   36.3420   24.9730   31.0140 N   0  0  0  0  0  0  0  0  0  0  0  0
   37.1860   25.8210   31.5810 C   0  0  0  0  0  0  0  0  0  0  0  0
   37.9350   25.4200   32.6190 N   0  0  0  0  0  0  0  0  0  0  0  0
   36.8560   22.2410   32.8710 H   0  0  0  0  0  0  0  0  0  0  0  0
   35.4760   23.0450   30.9270 H   0  0  0  0  0  0  0  0  0  0  0  0
   38.6140   23.7110   34.1860 N   0  0  0  0  0  0  0  0  0  0  0  0
   38.9900   24.4780   35.3340 C   0  0  0  0  0  0  0  0  0  0  0  0
   39.1240   23.4010   36.4170 C   0  0  2  0  0  0  0  0  0  0  0  0
   38.7030   22.1040   35.7640 C   0  0  0  0  0  0  0  0  0  0  0  0
   39.1860   22.3920   34.3500 C   0  0  0  0  0  0  0  0  0  0  0  0
   39.9080   25.0620   35.2220 H   0  0  0  0  0  0  0  0  0  0  0  0
   38.1780   25.1560   35.6840 H   0  0  0  0  0  0  0  0  0  0  0  0
   40.2090   23.2580   36.6890 H   0  0  0  0  0  0  0  0  0  0  0  0
   37.5850   22.0750   35.7960 H   0  0  0  0  0  0  0  0  0  0  0  0
   39.1850   21.2270   36.2010 H   0  0  0  0  0  0  0  0  0  0  0  0
   38.7090   21.6360   33.6860 H   0  0  0  0  0  0  0  0  0  0  0  0
   40.2730   22.3570   34.3540 H   0  0  0  0  0  0  0  0  0  0  0  0
   38.3450   23.7170   37.6530 C   0  0  0  0  0  0  0  0  0  0  0  0
   38.1020   25.0810   37.6210 F   0  0  0  0  0  0  0  0  0  0  0  0
   39.1800   23.5010   38.7320 F   0  0  0  0  0  0  0  0  0  0  0  0
   37.2100   22.9850   37.8010 F   0  0  0  0  0  0  0  0  0  0  0  0
   37.3430   27.4930   30.9880 S   0  0  0  0  0  0  0  0  0  0  0  0
   36.6340   30.4860   30.0920 Cl  0  0  0  0  0  0  0  0  0  0  0  0
   36.2880   29.9780   31.7170 C   0  0  0  0  0  0  0  0  0  0  0  0
   36.6080   28.6810   32.0680 C   0  0  0  0  0  0  0  0  0  0  0  0
   36.3350   28.2630   33.3620 C   0  0  0  0  0  0  0  0  0  0  0  0
   36.5630   27.2450   33.7090 H   0  0  0  0  0  0  0  0  0  0  0  0
   35.7560   29.1550   34.2600 C   0  0  0  0  0  0  0  0  0  0  0  0
   35.5550   28.7980   35.2690 H   0  0  0  0  0  0  0  0  0  0  0  0
   35.4280   30.4620   33.9230 C   0  0  0  0  0  3  0  0  0  0  0  0
   35.7070   30.8680   32.6200 C   0  0  0  0  0  3  0  0  0  0  0  0
  1  9  1  0  0  0  0
  2  7  1  0  0  0  0
  2  1  2  0  0  0  0
  3  2  1  0  0  0  0
  4  3  2  0  0  0  0
  4  5  1  0  0  0  0
  5  6  2  0  0  0  0
  6  1  1  0  0  0  0
  8  3  1  0  0  0  0
  9 13  1  0  0  0  0
  9 10  1  0  0  0  0
 10 15  1  0  0  0  0
 10 11  1  0  0  0  0
 11 16  1  1  0  0  0
 11 21  1  0  0  0  0
 12 17  1  0  0  0  0
 12 18  1  0  0  0  0
 12 11  1  0  0  0  0
 13 20  1  0  0  0  0
 13 12  1  0  0  0  0
 14 10  1  0  0  0  0
 19 13  1  0  0  0  0
 21 24  1  0  0  0  0
 21 23  1  0  0  0  0
 22 21  1  0  0  0  0
 25  5  1  0  0  0  0
 25 28  1  0  0  0  0
 26 27  1  0  0  0  0
 27 28  2  0  0  0  0
 27 34  1  0  0  0  0
 28 29  1  0  0  0  0
 29 30  1  0  0  0  0
 29 31  2  0  0  0  0
 31 32  1  0  0  0  0
 33 31  1  0  0  0  0
 34 33  2  0  0  0  0
M  END
>  <minimizedAffinity>
-5.6153636

$$$$
