
 OpenBabel03262522583D

 25 27  0  0  0  0  0  0  0  0999 V2000
   37.4250   25.5330   33.1830 C   0  0  0  0  0  0  0  0  0  0  0  0
   37.5300   24.2810   32.6360 C   0  0  0  0  0  0  0  0  0  0  0  0
   37.9250   23.3900   33.5760 C   0  0  0  0  0  0  0  0  0  0  0  0
   38.0640   24.1050   34.7170 N   0  0  0  0  0  0  0  0  0  0  0  0
   37.7590   25.3910   34.4600 N   0  0  0  0  0  0  0  0  0  0  0  0
   37.3420   23.9740   31.6120 H   0  0  0  0  0  0  0  0  0  0  0  0
   38.1310   22.3310   33.6000 H   0  0  0  0  0  0  0  0  0  0  0  0
   36.2290   28.9480   32.5600 C   0  0  0  0  0  0  0  0  0  0  0  0
   36.2910   29.0320   31.1510 C   0  0  0  0  0  0  0  0  0  0  0  0
   36.7460   27.9080   30.4340 C   0  0  0  0  0  0  0  0  0  0  0  0
   37.1050   26.7910   31.1290 N   0  0  0  0  0  0  0  0  0  0  0  0
   37.0280   26.7540   32.4940 C   0  0  0  0  0  0  0  0  0  0  0  0
   36.5960   27.8200   33.1880 N   0  0  0  0  0  0  0  0  0  0  0  0
   35.8850   29.7950   33.1240 H   0  0  0  0  0  0  0  0  0  0  0  0
   36.0080   29.9130   30.6140 H   0  0  0  0  0  0  0  0  0  0  0  0
   36.8030   27.9470   29.3620 H   0  0  0  0  0  0  0  0  0  0  0  0
   40.6590   22.6710   34.9160 Cl  0  0  0  0  0  0  0  0  0  0  0  0
   39.6360   23.1380   36.2590 C   0  0  0  0  0  0  0  0  0  0  0  0
   38.4440   23.8040   36.0600 C   0  0  0  0  0  0  0  0  0  0  0  0
   37.5670   24.2160   37.0370 C   0  0  0  0  0  0  0  0  0  0  0  0
   36.6500   24.7350   36.7940 H   0  0  0  0  0  0  0  0  0  0  0  0
   37.9360   23.9220   38.3500 C   0  0  0  0  0  0  0  0  0  0  0  0
   37.2810   24.2260   39.1560 H   0  0  0  0  0  0  0  0  0  0  0  0
   39.1070   23.2640   38.6100 C   0  0  0  0  0  3  0  0  0  0  0  0
   39.9650   22.8660   37.5880 C   0  0  0  0  0  3  0  0  0  0  0  0
  1  5  2  0  0  0  0
  2  1  1  0  0  0  0
  2  3  2  0  0  0  0
  3  7  1  0  0  0  0
  3  4  1  0  0  0  0
  4 19  1  0  0  0  0
  5  4  1  0  0  0  0
  6  2  1  0  0  0  0
  8 14  1  0  0  0  0
  8 13  1  0  0  0  0
  9  8  2  0  0  0  0
 10 11  2  0  0  0  0
 10  9  1  0  0  0  0
 11 12  1  0  0  0  0
 12  1  1  0  0  0  0
 12 13  2  0  0  0  0
 15  9  1  0  0  0  0
 16 10  1  0  0  0  0
 17 18  1  0  0  0  0
 18 25  1  0  0  0  0
 19 18  2  0  0  0  0
 19 20  1  0  0  0  0
 20 22  2  0  0  0  0
 21 20  1  0  0  0  0
 22 24  1  0  0  0  0
 22 23  1  0  0  0  0
 25 24  2  0  0  0  0
M  END
>  <minimizedAffinity>
-5.01921034

$$$$

 OpenBabel03262522583D

 25 27  0  0  0  0  0  0  0  0999 V2000
   38.1530   25.3550   33.6220 C   0  0  0  0  0  0  0  0  0  0  0  0
   38.7900   26.4530   34.1380 C   0  0  0  0  0  0  0  0  0  0  0  0
   39.7410   26.0710   35.0230 C   0  0  0  0  0  0  0  0  0  0  0  0
   39.6890   24.7190   35.0500 N   0  0  0  0  0  0  0  0  0  0  0  0
   38.7280   24.3080   34.2000 N   0  0  0  0  0  0  0  0  0  0  0  0
   38.6120   27.5010   33.9200 H   0  0  0  0  0  0  0  0  0  0  0  0
   40.4630   26.5740   35.6490 H   0  0  0  0  0  0  0  0  0  0  0  0
   35.5350   26.5150   31.3250 C   0  0  0  0  0  0  0  0  0  0  0  0
   35.0440   25.3000   30.7970 C   0  0  0  0  0  0  0  0  0  0  0  0
   35.6240   24.0960   31.2400 C   0  0  0  0  0  0  0  0  0  0  0  0
   36.6310   24.1540   32.1570 N   0  0  0  0  0  0  0  0  0  0  0  0
   37.0740   25.3540   32.6430 C   0  0  0  0  0  0  0  0  0  0  0  0
   36.5280   26.5080   32.2260 N   0  0  0  0  0  0  0  0  0  0  0  0
   35.1050   27.4440   30.9990 H   0  0  0  0  0  0  0  0  0  0  0  0
   34.2540   25.2630   30.0760 H   0  0  0  0  0  0  0  0  0  0  0  0
   35.2700   23.1590   30.8520 H   0  0  0  0  0  0  0  0  0  0  0  0
   38.2920   23.7770   37.4970 Cl  0  0  0  0  0  0  0  0  0  0  0  0
   39.8280   23.1870   36.8980 C   0  0  0  0  0  0  0  0  0  0  0  0
   40.3960   23.6920   35.7470 C   0  0  0  0  0  0  0  0  0  0  0  0
   41.5920   23.3040   35.1880 C   0  0  0  0  0  0  0  0  0  0  0  0
   41.9660   23.7540   34.2790 H   0  0  0  0  0  0  0  0  0  0  0  0
   42.2840   22.3010   35.8680 C   0  0  0  0  0  0  0  0  0  0  0  0
   43.2300   21.9590   35.4700 H   0  0  0  0  0  0  0  0  0  0  0  0
   41.7710   21.7610   37.0160 C   0  0  0  0  0  3  0  0  0  0  0  0
   40.5550   22.1860   37.5440 C   0  0  0  0  0  3  0  0  0  0  0  0
  1  2  1  0  0  0  0
  1  5  2  0  0  0  0
  2  3  2  0  0  0  0
  3  4  1  0  0  0  0
  3  7  1  0  0  0  0
  4 19  1  0  0  0  0
  5  4  1  0  0  0  0
  6  2  1  0  0  0  0
  8 13  1  0  0  0  0
  9 10  1  0  0  0  0
  9  8  2  0  0  0  0
 10 11  2  0  0  0  0
 11 12  1  0  0  0  0
 12  1  1  0  0  0  0
 13 12  2  0  0  0  0
 14  8  1  0  0  0  0
 15  9  1  0  0  0  0
 16 10  1  0  0  0  0
 18 17  1  0  0  0  0
 18 25  1  0  0  0  0
 19 18  2  0  0  0  0
 20 19  1  0  0  0  0
 20 22  2  0  0  0  0
 21 20  1  0  0  0  0
 22 24  1  0  0  0  0
 23 22  1  0  0  0  0
 24 25  2  0  0  0  0
M  END
>  <minimizedAffinity>
-4.91064215

$$$$

 OpenBabel03262522583D

 25 27  0  0  0  0  0  0  0  0999 V2000
   37.9020   25.1020   34.5960 C   0  0  0  0  0  0  0  0  0  0  0  0
   37.7260   24.5670   33.3460 C   0  0  0  0  0  0  0  0  0  0  0  0
   37.2370   25.5040   32.5000 C   0  0  0  0  0  0  0  0  0  0  0  0
   37.1100   26.6300   33.2400 N   0  0  0  0  0  0  0  0  0  0  0  0
   37.5150   26.3680   34.4970 N   0  0  0  0  0  0  0  0  0  0  0  0
   37.9260   23.5550   33.0110 H   0  0  0  0  0  0  0  0  0  0  0  0
   36.9550   25.5340   31.4580 H   0  0  0  0  0  0  0  0  0  0  0  0
   38.2250   23.8740   38.0410 C   0  0  0  0  0  0  0  0  0  0  0  0
   39.4010   23.0950   37.9690 C   0  0  0  0  0  0  0  0  0  0  0  0
   40.0670   23.0030   36.7310 C   0  0  0  0  0  0  0  0  0  0  0  0
   39.5500   23.6680   35.6600 N   0  0  0  0  0  0  0  0  0  0  0  0
   38.4080   24.4130   35.7760 C   0  0  0  0  0  0  0  0  0  0  0  0
   37.7650   24.5070   36.9510 N   0  0  0  0  0  0  0  0  0  0  0  0
   37.7030   23.9560   38.9760 H   0  0  0  0  0  0  0  0  0  0  0  0
   39.7990   22.5750   38.8150 H   0  0  0  0  0  0  0  0  0  0  0  0
   40.9630   22.4160   36.6500 H   0  0  0  0  0  0  0  0  0  0  0  0
   37.9670   27.6780   30.5950 Cl  0  0  0  0  0  0  0  0  0  0  0  0
   37.0110   28.5410   31.7830 C   0  0  0  0  0  0  0  0  0  0  0  0
   36.6640   27.9630   32.9860 C   0  0  0  0  0  0  0  0  0  0  0  0
   35.9200   28.5460   33.9870 C   0  0  0  0  0  0  0  0  0  0  0  0
   35.6920   28.0210   34.9040 H   0  0  0  0  0  0  0  0  0  0  0  0
   35.4840   29.8480   33.7410 C   0  0  0  0  0  0  0  0  0  0  0  0
   34.8940   30.3510   34.4950 H   0  0  0  0  0  0  0  0  0  0  0  0
   35.7960   30.4730   32.5640 C   0  0  0  0  0  3  0  0  0  0  0  0
   36.5520   29.8430   31.5790 C   0  0  0  0  0  3  0  0  0  0  0  0
  1 12  1  0  0  0  0
  2  1  1  0  0  0  0
  3  4  1  0  0  0  0
  3  2  2  0  0  0  0
  4  5  1  0  0  0  0
  5  1  2  0  0  0  0
  6  2  1  0  0  0  0
  7  3  1  0  0  0  0
  8 14  1  0  0  0  0
  9  8  1  0  0  0  0
  9 15  1  0  0  0  0
 10  9  2  0  0  0  0
 11 12  2  0  0  0  0
 11 10  1  0  0  0  0
 12 13  1  0  0  0  0
 13  8  2  0  0  0  0
 16 10  1  0  0  0  0
 17 18  1  0  0  0  0
 18 19  1  0  0  0  0
 19  4  1  0  0  0  0
 19 20  2  0  0  0  0
 20 21  1  0  0  0  0
 22 20  1  0  0  0  0
 22 23  1  0  0  0  0
 24 22  2  0  0  0  0
 25 18  2  0  0  0  0
 25 24  1  0  0  0  0
M  END
>  <minimizedAffinity>
-4.84305811

$$$$

 OpenBabel03262522583D

 25 27  0  0  0  0  0  0  0  0999 V2000
   36.4360   22.9160   32.0830 C   0  0  0  0  0  0  0  0  0  0  0  0
   35.8700   23.9070   31.3250 C   0  0  0  0  0  0  0  0  0  0  0  0
   36.3100   25.1210   31.7360 C   0  0  0  0  0  0  0  0  0  0  0  0
   37.1590   24.8700   32.7600 N   0  0  0  0  0  0  0  0  0  0  0  0
   37.2220   23.5390   32.9530 N   0  0  0  0  0  0  0  0  0  0  0  0
   35.1660   23.8120   30.5050 H   0  0  0  0  0  0  0  0  0  0  0  0
   36.1400   26.1450   31.4430 H   0  0  0  0  0  0  0  0  0  0  0  0
   36.2770   19.5350   30.6610 C   0  0  0  0  0  0  0  0  0  0  0  0
   35.7770   18.7800   31.7450 C   0  0  0  0  0  0  0  0  0  0  0  0
   35.5030   19.4480   32.9540 C   0  0  0  0  0  0  0  0  0  0  0  0
   35.7300   20.7900   33.0260 N   0  0  0  0  0  0  0  0  0  0  0  0
   36.2140   21.4820   31.9490 C   0  0  0  0  0  0  0  0  0  0  0  0
   36.4790   20.8550   30.7910 N   0  0  0  0  0  0  0  0  0  0  0  0
   36.4920   19.0440   29.7300 H   0  0  0  0  0  0  0  0  0  0  0  0
   35.6030   17.7260   31.6800 H   0  0  0  0  0  0  0  0  0  0  0  0
   35.1230   18.8960   33.7940 H   0  0  0  0  0  0  0  0  0  0  0  0
   39.8950   25.3750   31.7170 Cl  0  0  0  0  0  0  0  0  0  0  0  0
   39.2480   25.9630   33.2350 C   0  0  0  0  0  0  0  0  0  0  0  0
   37.9590   25.6720   33.6300 C   0  0  0  0  0  0  0  0  0  0  0  0
   37.3510   26.0800   34.7960 C   0  0  0  0  0  0  0  0  0  0  0  0
   36.3320   25.8050   35.0300 H   0  0  0  0  0  0  0  0  0  0  0  0
   38.1310   26.8620   35.6480 C   0  0  0  0  0  0  0  0  0  0  0  0
   37.6990   27.2090   36.5770 H   0  0  0  0  0  0  0  0  0  0  0  0
   39.4170   27.1850   35.3090 C   0  0  0  0  0  3  0  0  0  0  0  0
   39.9910   26.7490   34.1180 C   0  0  0  0  0  3  0  0  0  0  0  0
  1  5  2  0  0  0  0
  2  3  2  0  0  0  0
  2  1  1  0  0  0  0
  3  4  1  0  0  0  0
  4  5  1  0  0  0  0
  4 19  1  0  0  0  0
  6  2  1  0  0  0  0
  7  3  1  0  0  0  0
  8 13  2  0  0  0  0
  8  9  1  0  0  0  0
  9 10  2  0  0  0  0
 10 11  1  0  0  0  0
 10 16  1  0  0  0  0
 12  1  1  0  0  0  0
 12 11  2  0  0  0  0
 13 12  1  0  0  0  0
 14  8  1  0  0  0  0
 15  9  1  0  0  0  0
 17 18  1  0  0  0  0
 18 19  2  0  0  0  0
 18 25  1  0  0  0  0
 19 20  1  0  0  0  0
 20 21  1  0  0  0  0
 20 22  2  0  0  0  0
 22 23  1  0  0  0  0
 24 22  1  0  0  0  0
 25 24  2  0  0  0  0
M  END
>  <minimizedAffinity>
-4.76076746

$$$$

 OpenBabel03262522583D

 25 27  0  0  0  0  0  0  0  0999 V2000
   36.4160   28.0550   33.4690 C   0  0  0  0  0  0  0  0  0  0  0  0
   36.2750   28.9200   32.4150 C   0  0  0  0  0  0  0  0  0  0  0  0
   35.6530   30.0540   32.8180 C   0  0  0  0  0  0  0  0  0  0  0  0
   35.4100   29.8830   34.1390 N   0  0  0  0  0  0  0  0  0  0  0  0
   35.8760   28.6760   34.5110 N   0  0  0  0  0  0  0  0  0  0  0  0
   36.5880   28.7860   31.3850 H   0  0  0  0  0  0  0  0  0  0  0  0
   35.3430   30.9750   32.3500 H   0  0  0  0  0  0  0  0  0  0  0  0
   37.7040   24.8430   32.2430 C   0  0  0  0  0  0  0  0  0  0  0  0
   38.2020   24.2530   33.4250 C   0  0  0  0  0  0  0  0  0  0  0  0
   38.0890   24.9720   34.6310 C   0  0  0  0  0  0  0  0  0  0  0  0
   37.5040   26.2030   34.6050 N   0  0  0  0  0  0  0  0  0  0  0  0
   37.0330   26.7360   33.4360 C   0  0  0  0  0  0  0  0  0  0  0  0
   37.1370   26.0590   32.2810 N   0  0  0  0  0  0  0  0  0  0  0  0
   37.7810   24.3110   31.3130 H   0  0  0  0  0  0  0  0  0  0  0  0
   38.6620   23.2870   33.4360 H   0  0  0  0  0  0  0  0  0  0  0  0
   38.4620   24.5460   35.5430 H   0  0  0  0  0  0  0  0  0  0  0  0
   32.4850   29.4250   34.3890 Cl  0  0  0  0  0  0  0  0  0  0  0  0
   33.4410   30.5250   35.3610 C   0  0  0  0  0  0  0  0  0  0  0  0
   34.7990   30.6660   35.1650 C   0  0  0  0  0  0  0  0  0  0  0  0
   35.6430   31.4960   35.8680 C   0  0  0  0  0  0  0  0  0  0  0  0
   36.7000   31.5460   35.6490 H   0  0  0  0  0  0  0  0  0  0  0  0
   35.0480   32.2620   36.8700 C   0  0  0  0  0  0  0  0  0  0  0  0
   35.6670   32.9310   37.4520 H   0  0  0  0  0  0  0  0  0  0  0  0
   33.7040   32.1650   37.1110 C   0  0  0  0  0  3  0  0  0  0  0  0
   32.8880   31.3100   36.3740 C   0  0  0  0  0  3  0  0  0  0  0  0
  1  5  2  0  0  0  0
  2  3  2  0  0  0  0
  2  1  1  0  0  0  0
  3  4  1  0  0  0  0
  4  5  1  0  0  0  0
  4 19  1  0  0  0  0
  6  2  1  0  0  0  0
  7  3  1  0  0  0  0
  8 13  2  0  0  0  0
  8  9  1  0  0  0  0
  9 15  1  0  0  0  0
  9 10  2  0  0  0  0
 10 16  1  0  0  0  0
 11 10  1  0  0  0  0
 12  1  1  0  0  0  0
 12 11  2  0  0  0  0
 13 12  1  0  0  0  0
 14  8  1  0  0  0  0
 17 18  1  0  0  0  0
 18 25  1  0  0  0  0
 19 18  2  0  0  0  0
 19 20  1  0  0  0  0
 20 22  2  0  0  0  0
 21 20  1  0  0  0  0
 22 24  1  0  0  0  0
 22 23  1  0  0  0  0
 25 24  2  0  0  0  0
M  END
>  <minimizedAffinity>
-4.72953939

$$$$

 OpenBabel03262522583D

 25 27  0  0  0  0  0  0  0  0999 V2000
   38.1560   25.3810   33.6120 C   0  0  0  0  0  0  0  0  0  0  0  0
   38.7790   26.4880   34.1260 C   0  0  0  0  0  0  0  0  0  0  0  0
   39.7390   26.1190   35.0070 C   0  0  0  0  0  0  0  0  0  0  0  0
   39.7060   24.7660   35.0330 N   0  0  0  0  0  0  0  0  0  0  0  0
   38.7480   24.3420   34.1870 N   0  0  0  0  0  0  0  0  0  0  0  0
   38.5870   27.5330   33.9100 H   0  0  0  0  0  0  0  0  0  0  0  0
   40.4560   26.6310   35.6310 H   0  0  0  0  0  0  0  0  0  0  0  0
   35.5330   26.5080   31.3030 C   0  0  0  0  0  0  0  0  0  0  0  0
   35.0360   25.2850   30.8000 C   0  0  0  0  0  0  0  0  0  0  0  0
   35.6130   24.0870   31.2640 C   0  0  0  0  0  0  0  0  0  0  0  0
   36.6230   24.1590   32.1760 N   0  0  0  0  0  0  0  0  0  0  0  0
   37.0730   25.3660   32.6370 C   0  0  0  0  0  0  0  0  0  0  0  0
   36.5300   26.5150   32.2010 N   0  0  0  0  0  0  0  0  0  0  0  0
   35.1060   27.4320   30.9610 H   0  0  0  0  0  0  0  0  0  0  0  0
   34.2430   25.2380   30.0830 H   0  0  0  0  0  0  0  0  0  0  0  0
   35.2530   23.1450   30.8960 H   0  0  0  0  0  0  0  0  0  0  0  0
   42.3830   24.2190   33.8680 Cl  0  0  0  0  0  0  0  0  0  0  0  0
   41.6860   23.4210   35.2620 C   0  0  0  0  0  0  0  0  0  0  0  0
   40.4290   23.7480   35.7270 C   0  0  0  0  0  0  0  0  0  0  0  0
   39.7880   23.1890   36.8080 C   0  0  0  0  0  0  0  0  0  0  0  0
   38.7980   23.5050   37.1060 H   0  0  0  0  0  0  0  0  0  0  0  0
   40.4930   22.1940   37.4870 C   0  0  0  0  0  0  0  0  0  0  0  0
   40.0330   21.7230   38.3450 H   0  0  0  0  0  0  0  0  0  0  0  0
   41.7440   21.8270   37.0730 C   0  0  0  0  0  3  0  0  0  0  0  0
   42.3550   22.4220   35.9720 C   0  0  0  0  0  3  0  0  0  0  0  0
  1  2  1  0  0  0  0
  1  5  2  0  0  0  0
  2  3  2  0  0  0  0
  3  4  1  0  0  0  0
  3  7  1  0  0  0  0
  4 19  1  0  0  0  0
  5  4  1  0  0  0  0
  6  2  1  0  0  0  0
  8 13  1  0  0  0  0
  9 10  1  0  0  0  0
  9  8  2  0  0  0  0
 10 11  2  0  0  0  0
 11 12  1  0  0  0  0
 12  1  1  0  0  0  0
 13 12  2  0  0  0  0
 14  8  1  0  0  0  0
 15  9  1  0  0  0  0
 16 10  1  0  0  0  0
 17 18  1  0  0  0  0
 18 19  2  0  0  0  0
 18 25  1  0  0  0  0
 19 20  1  0  0  0  0
 20 21  1  0  0  0  0
 20 22  2  0  0  0  0
 22 23  1  0  0  0  0
 24 22  1  0  0  0  0
 25 24  2  0  0  0  0
M  END
>  <minimizedAffinity>
-4.69269514

$$$$

 OpenBabel03262522583D

 25 27  0  0  0  0  0  0  0  0999 V2000
   38.2710   25.9000   35.0620 C   0  0  0  0  0  0  0  0  0  0  0  0
   39.0210   26.1900   33.9520 C   0  0  0  0  0  0  0  0  0  0  0  0
   38.4320   27.1730   33.2310 C   0  0  0  0  0  0  0  0  0  0  0  0
   37.3040   27.4920   33.9080 N   0  0  0  0  0  0  0  0  0  0  0  0
   37.2260   26.7160   35.0060 N   0  0  0  0  0  0  0  0  0  0  0  0
   39.9550   25.7400   33.6330 H   0  0  0  0  0  0  0  0  0  0  0  0
   38.6550   27.7030   32.3170 H   0  0  0  0  0  0  0  0  0  0  0  0
   39.7900   23.0430   36.7960 C   0  0  0  0  0  0  0  0  0  0  0  0
   39.1040   23.0460   38.0310 C   0  0  0  0  0  0  0  0  0  0  0  0
   38.1260   24.0360   38.2490 C   0  0  0  0  0  0  0  0  0  0  0  0
   37.8840   24.9450   37.2620 N   0  0  0  0  0  0  0  0  0  0  0  0
   38.5720   24.9030   36.0810 C   0  0  0  0  0  0  0  0  0  0  0  0
   39.5070   23.9640   35.8620 N   0  0  0  0  0  0  0  0  0  0  0  0
   40.5390   22.2960   36.6100 H   0  0  0  0  0  0  0  0  0  0  0  0
   39.3010   22.3300   38.8000 H   0  0  0  0  0  0  0  0  0  0  0  0
   37.5910   24.0600   39.1800 H   0  0  0  0  0  0  0  0  0  0  0  0
   35.8000   27.0670   31.3820 Cl  0  0  0  0  0  0  0  0  0  0  0  0
   35.4790   28.3100   32.5730 C   0  0  0  0  0  0  0  0  0  0  0  0
   36.2390   28.4250   33.7180 C   0  0  0  0  0  0  0  0  0  0  0  0
   36.0760   29.3590   34.7160 C   0  0  0  0  0  0  0  0  0  0  0  0
   36.7190   29.3790   35.5850 H   0  0  0  0  0  0  0  0  0  0  0  0
   35.0370   30.2710   34.5320 C   0  0  0  0  0  0  0  0  0  0  0  0
   34.8660   31.0250   35.2880 H   0  0  0  0  0  0  0  0  0  0  0  0
   34.2480   30.2070   33.4150 C   0  0  0  0  0  3  0  0  0  0  0  0
   34.4500   29.2430   32.4310 C   0  0  0  0  0  3  0  0  0  0  0  0
  1 12  1  0  0  0  0
  2  1  1  0  0  0  0
  3  4  1  0  0  0  0
  3  2  2  0  0  0  0
  4  5  1  0  0  0  0
  5  1  2  0  0  0  0
  6  2  1  0  0  0  0
  7  3  1  0  0  0  0
  8  9  1  0  0  0  0
  9 10  2  0  0  0  0
  9 15  1  0  0  0  0
 10 16  1  0  0  0  0
 11 10  1  0  0  0  0
 12 11  2  0  0  0  0
 13 12  1  0  0  0  0
 13  8  2  0  0  0  0
 14  8  1  0  0  0  0
 17 18  1  0  0  0  0
 18 19  1  0  0  0  0
 19  4  1  0  0  0  0
 19 20  2  0  0  0  0
 20 21  1  0  0  0  0
 22 20  1  0  0  0  0
 22 23  1  0  0  0  0
 24 22  2  0  0  0  0
 25 18  2  0  0  0  0
 25 24  1  0  0  0  0
M  END
>  <minimizedAffinity>
-4.64673567

$$$$

 OpenBabel03262522583D

 25 27  0  0  0  0  0  0  0  0999 V2000
   36.2200   28.6530   33.0740 C   0  0  0  0  0  0  0  0  0  0  0  0
   35.9470   29.6760   32.2040 C   0  0  0  0  0  0  0  0  0  0  0  0
   35.1400   30.5900   32.7930 C   0  0  0  0  0  0  0  0  0  0  0  0
   34.9150   30.1220   34.0430 N   0  0  0  0  0  0  0  0  0  0  0  0
   35.5730   28.9570   34.1920 N   0  0  0  0  0  0  0  0  0  0  0  0
   36.2890   29.8030   31.1820 H   0  0  0  0  0  0  0  0  0  0  0  0
   34.6850   31.5240   32.5000 H   0  0  0  0  0  0  0  0  0  0  0  0
   38.5770   26.3480   31.4570 C   0  0  0  0  0  0  0  0  0  0  0  0
   38.5940   25.2610   32.3590 C   0  0  0  0  0  0  0  0  0  0  0  0
   37.7930   25.3380   33.5150 C   0  0  0  0  0  0  0  0  0  0  0  0
   37.0360   26.4550   33.7120 N   0  0  0  0  0  0  0  0  0  0  0  0
   37.0490   27.4840   32.8100 C   0  0  0  0  0  0  0  0  0  0  0  0
   37.8100   27.4210   31.7060 N   0  0  0  0  0  0  0  0  0  0  0  0
   39.1810   26.3080   30.5700 H   0  0  0  0  0  0  0  0  0  0  0  0
   39.1920   24.3880   32.1970 H   0  0  0  0  0  0  0  0  0  0  0  0
   37.7890   24.5250   34.2170 H   0  0  0  0  0  0  0  0  0  0  0  0
   36.3760   32.1100   35.6980 Cl  0  0  0  0  0  0  0  0  0  0  0  0
   34.7640   31.5010   36.0070 C   0  0  0  0  0  0  0  0  0  0  0  0
   34.1710   30.5750   35.1750 C   0  0  0  0  0  0  0  0  0  0  0  0
   32.9150   30.0310   35.3210 C   0  0  0  0  0  0  0  0  0  0  0  0
   32.5240   29.3070   34.6200 H   0  0  0  0  0  0  0  0  0  0  0  0
   32.1860   30.4720   36.4270 C   0  0  0  0  0  0  0  0  0  0  0  0
   31.1920   30.0760   36.5870 H   0  0  0  0  0  0  0  0  0  0  0  0
   32.7220   31.3910   37.2880 C   0  0  0  0  0  3  0  0  0  0  0  0
   33.9980   31.9140   37.0990 C   0  0  0  0  0  3  0  0  0  0  0  0
  1  5  2  0  0  0  0
  2  3  2  0  0  0  0
  2  1  1  0  0  0  0
  3  4  1  0  0  0  0
  4  5  1  0  0  0  0
  4 19  1  0  0  0  0
  6  2  1  0  0  0  0
  7  3  1  0  0  0  0
  8 13  2  0  0  0  0
  8  9  1  0  0  0  0
  9 10  2  0  0  0  0
 10 11  1  0  0  0  0
 10 16  1  0  0  0  0
 12  1  1  0  0  0  0
 12 11  2  0  0  0  0
 13 12  1  0  0  0  0
 14  8  1  0  0  0  0
 15  9  1  0  0  0  0
 17 18  1  0  0  0  0
 18 25  1  0  0  0  0
 19 20  1  0  0  0  0
 19 18  2  0  0  0  0
 20 22  2  0  0  0  0
 21 20  1  0  0  0  0
 22 23  1  0  0  0  0
 22 24  1  0  0  0  0
 25 24  2  0  0  0  0
M  END
>  <minimizedAffinity>
-4.6456399

$$$$

 OpenBabel03262522583D

 25 27  0  0  0  0  0  0  0  0999 V2000
   37.8530   22.1380   34.6440 C   0  0  0  0  0  0  0  0  0  0  0  0
   37.4960   22.3750   35.9460 C   0  0  0  0  0  0  0  0  0  0  0  0
   38.5210   22.9550   36.6140 C   0  0  0  0  0  0  0  0  0  0  0  0
   39.5210   23.0760   35.7100 N   0  0  0  0  0  0  0  0  0  0  0  0
   39.0990   22.5800   34.5320 N   0  0  0  0  0  0  0  0  0  0  0  0
   36.5540   22.1580   36.4380 H   0  0  0  0  0  0  0  0  0  0  0  0
   38.6880   23.3070   37.6210 H   0  0  0  0  0  0  0  0  0  0  0  0
   35.1970   20.2100   32.9980 C   0  0  0  0  0  0  0  0  0  0  0  0
   35.4950   20.4010   31.6310 C   0  0  0  0  0  0  0  0  0  0  0  0
   36.6090   21.1940   31.2940 C   0  0  0  0  0  0  0  0  0  0  0  0
   37.3500   21.7410   32.3000 N   0  0  0  0  0  0  0  0  0  0  0  0
   37.0250   21.5280   33.6110 C   0  0  0  0  0  0  0  0  0  0  0  0
   35.9640   20.7740   33.9430 N   0  0  0  0  0  0  0  0  0  0  0  0
   34.3510   19.6080   33.2750 H   0  0  0  0  0  0  0  0  0  0  0  0
   34.9080   19.9690   30.8480 H   0  0  0  0  0  0  0  0  0  0  0  0
   36.8570   21.3560   30.2620 H   0  0  0  0  0  0  0  0  0  0  0  0
   41.3700   21.4750   37.3960 Cl  0  0  0  0  0  0  0  0  0  0  0  0
   41.7890   22.9160   36.4930 C   0  0  0  0  0  0  0  0  0  0  0  0
   40.8530   23.5900   35.7370 C   0  0  0  0  0  0  0  0  0  0  0  0
   41.0720   24.7260   34.9910 C   0  0  0  0  0  0  0  0  0  0  0  0
   40.2790   25.1940   34.4240 H   0  0  0  0  0  0  0  0  0  0  0  0
   42.3720   25.2300   35.0170 C   0  0  0  0  0  0  0  0  0  0  0  0
   42.5970   26.1220   34.4470 H   0  0  0  0  0  0  0  0  0  0  0  0
   43.3440   24.6040   35.7490 C   0  0  0  0  0  3  0  0  0  0  0  0
   43.0760   23.4550   36.4890 C   0  0  0  0  0  3  0  0  0  0  0  0
  1  2  1  0  0  0  0
  2  6  1  0  0  0  0
  2  3  2  0  0  0  0
  3  7  1  0  0  0  0
  4 19  1  0  0  0  0
  4  3  1  0  0  0  0
  5  1  2  0  0  0  0
  5  4  1  0  0  0  0
  8 14  1  0  0  0  0
  8 13  1  0  0  0  0
  9  8  2  0  0  0  0
 10  9  1  0  0  0  0
 10 11  2  0  0  0  0
 11 12  1  0  0  0  0
 12 13  2  0  0  0  0
 12  1  1  0  0  0  0
 15  9  1  0  0  0  0
 16 10  1  0  0  0  0
 18 17  1  0  0  0  0
 19 18  2  0  0  0  0
 20 22  2  0  0  0  0
 20 19  1  0  0  0  0
 21 20  1  0  0  0  0
 22 24  1  0  0  0  0
 23 22  1  0  0  0  0
 24 25  2  0  0  0  0
 25 18  1  0  0  0  0
M  END
>  <minimizedAffinity>
-4.6454525

$$$$
