
 OpenBabel03272508023D

 28 30  0  0  0  0  0  0  0  0999 V2000
   38.9300   30.9210   45.7470 C   0  0  0  0  0  0  0  0  0  0  0  0
   40.1250   31.5160   46.0130 C   0  0  0  0  0  0  0  0  0  0  0  0
   40.9560   31.4740   44.8980 C   0  0  0  0  0  0  0  0  0  0  0  0
   40.2140   30.8350   43.9630 N   0  0  0  0  0  0  0  0  0  0  0  0
   39.0330   30.5150   44.4640 N   0  0  0  0  0  0  0  0  0  0  0  0
   40.4340   31.9720   46.9470 H   0  0  0  0  0  0  0  0  0  0  0  0
   41.9600   31.8390   44.7400 H   0  0  0  0  0  0  0  0  0  0  0  0
   39.1580   32.8000   41.9210 Cl  0  0  0  0  0  0  0  0  0  0  0  0
   40.0840   31.3460   41.6080 C   0  0  0  0  0  0  0  0  0  0  0  0
   40.5300   30.4960   42.6170 C   0  0  0  0  0  0  0  0  0  0  0  0
   41.2550   29.3530   42.3980 C   0  0  0  0  0  0  0  0  0  0  0  0
   41.5790   28.7260   43.2160 H   0  0  0  0  0  0  0  0  0  0  0  0
   41.5740   29.0050   41.0840 C   0  0  0  0  0  0  0  0  0  0  0  0
   42.1480   28.0950   40.9540 H   0  0  0  0  0  0  0  0  0  0  0  0
   41.1420   29.8330   40.0640 C   0  0  0  0  0  3  0  0  0  0  0  0
   40.4130   30.9800   40.3000 C   0  0  0  0  0  3  0  0  0  0  0  0
   37.7920   30.7540   46.6320 C   0  0  0  0  0  0  0  0  0  0  0  0
   37.9760   30.9830   48.0150 C   0  0  0  0  0  0  0  0  0  0  0  0
   36.8930   30.8250   48.8720 C   0  0  0  0  0  0  0  0  0  0  0  0
   35.7050   30.4550   48.3260 N   0  0  0  0  0  0  0  0  0  0  0  0
   35.5390   30.2390   47.0010 C   0  0  0  0  0  0  0  0  0  0  0  0
   36.5920   30.3930   46.1740 N   0  0  0  0  0  0  0  0  0  0  0  0
   38.9500   31.2790   48.4090 H   0  0  0  0  0  0  0  0  0  0  0  0
   34.5980   29.9470   46.5680 H   0  0  0  0  0  0  0  0  0  0  0  0
   37.0770   31.0630   50.3250 C   0  0  0  0  0  0  0  0  0  0  0  0
   36.5790   32.3130   50.5740 F   0  0  0  0  0  0  0  0  0  0  0  0
   36.3920   30.1330   51.1040 F   0  0  0  0  0  0  0  0  0  0  0  0
   38.4250   31.0590   50.6850 F   0  0  0  0  0  0  0  0  0  0  0  0
  1  2  1  0  0  0  0
  1 17  1  0  0  0  0
  2  6  1  0  0  0  0
  3  2  2  0  0  0  0
  4  5  1  0  0  0  0
  4  3  1  0  0  0  0
  5  1  2  0  0  0  0
  7  3  1  0  0  0  0
  9  8  1  0  0  0  0
  9 10  1  0  0  0  0
 10  4  1  0  0  0  0
 11 10  2  0  0  0  0
 11 12  1  0  0  0  0
 13 11  1  0  0  0  0
 14 13  1  0  0  0  0
 15 16  1  0  0  0  0
 15 13  2  0  0  0  0
 16  9  2  0  0  0  0
 17 18  1  0  0  0  0
 18 23  1  0  0  0  0
 18 19  2  0  0  0  0
 19 25  1  0  0  0  0
 20 19  1  0  0  0  0
 21 20  2  0  0  0  0
 22 17  2  0  0  0  0
 22 21  1  0  0  0  0
 24 21  1  0  0  0  0
 25 26  1  0  0  0  0
 25 28  1  0  0  0  0
 25 27  1  0  0  0  0
M  END
>  <minimizedAffinity>
-6.35370398

>  <minimizedRMSD>
1.26549673

$$$$
