
 OpenBabel03272510113D

 35 38  0  0  0  0  0  0  0  0999 V2000
   33.4090   28.5220   47.9690 C   0  0  0  0  0  0  0  0  0  0  0  0
   34.3930   28.2260   48.8450 C   0  0  0  0  0  0  0  0  0  0  0  0
   35.5350   28.9700   49.0490 C   0  0  0  0  0  0  0  0  0  0  0  0
   35.7200   30.1110   48.3180 C   0  0  0  0  0  0  0  0  0  0  0  0
   34.7170   30.4260   47.4120 C   0  0  0  0  0  0  0  0  0  0  0  0
   33.6220   29.6540   47.2620 N   0  0  0  0  0  0  0  0  0  0  0  0
   34.3360   27.3370   49.4740 H   0  0  0  0  0  0  0  0  0  0  0  0
   36.3170   28.7220   49.7560 H   0  0  0  0  0  0  0  0  0  0  0  0
   34.7880   31.3150   46.7930 H   0  0  0  0  0  0  0  0  0  0  0  0
   31.1920   27.6030   48.7190 C   0  0  0  0  0  0  0  0  0  0  0  0
   32.2320   27.7270   47.7800 C   0  0  0  0  0  0  0  0  0  0  0  0
   32.0700   27.0170   46.6000 C   0  0  0  0  0  0  0  0  0  0  0  0
   30.9500   26.2570   46.4140 N   0  0  0  0  0  0  0  0  0  0  0  0
   29.9940   26.1850   47.3570 C   0  0  0  0  0  0  0  0  0  0  0  0
   30.1020   26.8570   48.5250 N   0  0  0  0  0  0  0  0  0  0  0  0
   31.2870   28.1390   49.6390 H   0  0  0  0  0  0  0  0  0  0  0  0
   32.8070   27.0390   45.8070 H   0  0  0  0  0  0  0  0  0  0  0  0
   29.1250   25.5700   47.1650 H   0  0  0  0  0  0  0  0  0  0  0  0
   36.8100   30.9820   48.3920 O   0  0  0  0  0  0  0  0  0  0  0  0
   37.6030   31.2370   47.2780 C   0  0  0  0  0  0  0  0  0  0  0  0
   38.9290   31.5560   47.6050 C   0  0  0  0  0  0  0  0  0  0  0  0
   39.6230   31.7910   46.4240 C   0  0  0  0  0  0  0  0  0  0  0  0
   38.7170   31.6110   45.4470 N   0  0  0  0  0  0  0  0  0  0  0  0
   37.5450   31.2910   45.9370 N   0  0  0  0  0  0  0  0  0  0  0  0
   39.5050   31.6550   48.5360 H   0  0  0  0  0  0  0  0  0  0  0  0
   40.6520   32.0610   46.2230 H   0  0  0  0  0  0  0  0  0  0  0  0
   39.0720   29.0240   44.0190 Cl  0  0  0  0  0  0  0  0  0  0  0  0
   39.0620   30.5970   43.2490 C   0  0  0  0  0  0  0  0  0  0  0  0
   38.8860   31.7250   44.0370 C   0  0  0  0  0  0  0  0  0  0  0  0
   38.8820   32.9510   43.4040 C   0  0  0  0  0  0  0  0  0  0  0  0
   38.7470   33.8630   43.9850 H   0  0  0  0  0  0  0  0  0  0  0  0
   39.0390   33.1390   42.0470 C   0  0  0  0  0  0  0  0  0  0  0  0
   39.0310   34.1140   41.5830 H   0  0  0  0  0  0  0  0  0  0  0  0
   39.2130   31.9770   41.2900 C   0  0  0  0  0  3  0  0  0  0  0  0
   39.2250   30.7250   41.8700 C   0  0  0  0  0  3  0  0  0  0  0  0
  1  2  1  0  0  0  0
  2  3  2  0  0  0  0
  2  7  1  0  0  0  0
  3  8  1  0  0  0  0
  4 19  1  0  0  0  0
  4  3  1  0  0  0  0
  5  4  2  0  0  0  0
  6  5  1  0  0  0  0
  6  1  2  0  0  0  0
  9  5  1  0  0  0  0
 10 16  1  0  0  0  0
 11  1  1  0  0  0  0
 11 10  2  0  0  0  0
 12 11  1  0  0  0  0
 13 12  2  0  0  0  0
 13 14  1  0  0  0  0
 14 15  2  0  0  0  0
 15 10  1  0  0  0  0
 17 12  1  0  0  0  0
 18 14  1  0  0  0  0
 20 21  1  0  0  0  0
 20 19  1  0  0  0  0
 21 25  1  0  0  0  0
 22 21  2  0  0  0  0
 23 24  1  0  0  0  0
 23 22  1  0  0  0  0
 24 20  2  0  0  0  0
 26 22  1  0  0  0  0
 28 27  1  0  0  0  0
 28 29  1  0  0  0  0
 29 23  1  0  0  0  0
 30 31  1  0  0  0  0
 30 29  2  0  0  0  0
 32 30  1  0  0  0  0
 33 32  1  0  0  0  0
 34 35  1  0  0  0  0
 34 32  2  0  0  0  0
 35 28  2  0  0  0  0
M  END
>  <minimizedAffinity>
-5.40539551

>  <minimizedRMSD>
2.77793813

$$$$
