
 OpenBabel03272508083D

 24 25  0  0  0  0  0  0  0  0999 V2000
   38.1200   32.5290   45.9050 O   0  0  0  0  0  0  0  0  0  0  0  0
   37.8670   31.1660   46.4410 P   0  0  2  0  0  0  0  0  0  0  0  0
   36.1830   30.8640   46.4600 O   0  0  0  0  0  0  0  0  0  0  0  0
   36.0230   30.0790   47.0440 H   0  0  0  0  0  0  0  0  0  0  0  0
   38.5000   30.8960   47.9920 O   0  0  0  0  0  0  0  0  0  0  0  0
   37.2550   30.2680   51.4210 C   0  0  0  0  0  0  0  0  0  0  0  0
   38.0710   30.8470   50.4320 C   0  0  0  0  0  0  0  0  0  0  0  0
   37.8570   30.4840   49.1040 C   0  0  0  0  0  0  0  0  0  0  0  0
   36.8600   29.5810   48.8360 N   0  0  0  0  0  0  0  0  0  0  0  0
   36.1000   29.0510   49.8130 C   0  0  0  0  0  0  0  0  0  0  0  0
   36.3010   29.3970   51.0960 N   0  0  0  0  0  0  0  0  0  0  0  0
   37.5050   30.6200   52.4200 H   0  0  0  0  0  0  0  0  0  0  0  0
   38.8660   31.5560   50.5660 H   0  0  0  0  0  0  0  0  0  0  0  0
   35.3100   28.3330   49.5850 H   0  0  0  0  0  0  0  0  0  0  0  0
   38.5030   30.0250   45.3860 O   0  0  0  0  0  0  0  0  0  0  0  0
   36.4930   29.1230   43.4850 Cl  0  0  0  0  0  0  0  0  0  0  0  0
   38.0990   29.7880   43.1410 C   0  0  0  0  0  0  0  0  0  0  0  0
   39.0030   30.1980   44.1250 C   0  0  0  0  0  0  0  0  0  0  0  0
   40.2230   30.6970   43.7040 C   0  0  0  0  0  0  0  0  0  0  0  0
   40.8600   30.9890   44.5290 H   0  0  0  0  0  0  0  0  0  0  0  0
   40.5250   30.7840   42.3600 C   0  0  0  0  0  0  0  0  0  0  0  0
   41.5220   31.1960   42.1370 H   0  0  0  0  0  0  0  0  0  0  0  0
   39.6510   30.3880   41.3900 C   0  0  0  0  0  3  0  0  0  0  0  0
   38.4410   29.8910   41.7910 C   0  0  0  0  0  3  0  0  0  0  0  0
  2  1  2  6  0  0  0
  2  3  1  0  0  0  0
  2  5  1  0  0  0  0
  3  4  1  0  0  0  0
  5  8  1  0  0  0  0
  6 12  1  0  0  0  0
  7 13  1  0  0  0  0
  7  6  2  0  0  0  0
  8  7  1  0  0  0  0
  9  8  2  0  0  0  0
  9 10  1  0  0  0  0
 10 11  2  0  0  0  0
 11  6  1  0  0  0  0
 14 10  1  0  0  0  0
 15  2  1  0  0  0  0
 17 16  1  0  0  0  0
 17 18  1  0  0  0  0
 18 15  1  0  0  0  0
 19 18  2  0  0  0  0
 19 20  1  0  0  0  0
 21 19  1  0  0  0  0
 22 21  1  0  0  0  0
 23 24  1  0  0  0  0
 23 21  2  0  0  0  0
 24 17  2  0  0  0  0
M  END
>  <minimizedAffinity>
-4.79257536

>  <minimizedRMSD>
3.5285778

$$$$
