
 OpenBabel03272505433D

 24 25  0  0  0  0  0  0  0  0999 V2000
   32.3430   27.9910   48.8410 O   0  0  0  0  0  0  0  0  0  0  0  0
   33.7810   28.2670   48.3920 P   0  0  2  0  0  0  0  0  0  0  0  0
   34.1620   27.0850   47.2670 O   0  0  0  0  0  0  0  0  0  0  0  0
   34.1000   27.4780   46.3620 H   0  0  0  0  0  0  0  0  0  0  0  0
   34.7610   28.1610   49.7850 O   0  0  0  0  0  0  0  0  0  0  0  0
   37.2540   30.3000   51.3750 C   0  0  0  0  0  0  0  0  0  0  0  0
   38.0110   30.6960   50.2320 C   0  0  0  0  0  0  0  0  0  0  0  0
   37.6010   30.1920   48.9910 C   0  0  0  0  0  0  0  0  0  0  0  0
   36.5240   29.3700   48.9540 N   0  0  0  0  0  0  0  0  0  0  0  0
   35.8240   29.0100   50.0540 C   0  0  0  0  0  0  0  0  0  0  0  0
   36.1890   29.4750   51.2680 N   0  0  0  0  0  0  0  0  0  0  0  0
   37.5560   30.6800   52.3440 H   0  0  0  0  0  0  0  0  0  0  0  0
   38.8580   31.3580   50.3610 H   0  0  0  0  0  0  0  0  0  0  0  0
   38.1500   30.4710   48.1110 H   0  0  0  0  0  0  0  0  0  0  0  0
   33.8110   29.7700   47.6760 O   0  0  0  0  0  0  0  0  0  0  0  0
   35.9280   30.1900   45.7300 Cl  0  0  0  0  0  0  0  0  0  0  0  0
   34.1990   30.1820   45.4330 C   0  0  0  0  0  0  0  0  0  0  0  0
   33.2430   29.9720   46.4280 C   0  0  0  0  0  0  0  0  0  0  0  0
   31.8950   29.9750   46.1440 C   0  0  0  0  0  0  0  0  0  0  0  0
   31.2130   29.8060   46.9600 H   0  0  0  0  0  0  0  0  0  0  0  0
   31.5050   30.1950   44.8270 C   0  0  0  0  0  0  0  0  0  0  0  0
   30.4310   30.1990   44.5990 H   0  0  0  0  0  0  0  0  0  0  0  0
   32.4590   30.4040   43.8460 C   0  0  0  0  0  3  0  0  0  0  0  0
   33.8170   30.4030   44.1180 C   0  0  0  0  0  3  0  0  0  0  0  0
  2  1  2  1  0  0  0
  2  5  1  0  0  0  0
  3  2  1  0  0  0  0
  4  3  1  0  0  0  0
  5 10  1  0  0  0  0
  6 12  1  0  0  0  0
  7 13  1  0  0  0  0
  7  6  2  0  0  0  0
  8  7  1  0  0  0  0
  9  8  2  0  0  0  0
  9 10  1  0  0  0  0
 10 11  2  0  0  0  0
 11  6  1  0  0  0  0
 14  8  1  0  0  0  0
 15  2  1  0  0  0  0
 17 16  1  0  0  0  0
 17 18  1  0  0  0  0
 18 15  1  0  0  0  0
 19 18  2  0  0  0  0
 19 20  1  0  0  0  0
 21 19  1  0  0  0  0
 22 21  1  0  0  0  0
 23 24  1  0  0  0  0
 23 21  2  0  0  0  0
 24 17  2  0  0  0  0
M  END
>  <minimizedAffinity>
-4.27689648

>  <minimizedRMSD>
1.26727664

$$$$
