
 OpenBabel03272508083D

 24 25  0  0  0  0  0  0  0  0999 V2000
   39.1000   32.7430   45.9880 O   0  0  0  0  0  0  0  0  0  0  0  0
   38.0980   31.8110   45.4090 P   0  0  2  0  0  0  0  0  0  0  0  0
   37.1080   32.6570   44.3000 O   0  0  0  0  0  0  0  0  0  0  0  0
   36.3060   32.1000   44.1250 H   0  0  0  0  0  0  0  0  0  0  0  0
   37.1160   31.0400   46.5580 O   0  0  0  0  0  0  0  0  0  0  0  0
   38.2610   31.1460   50.0770 C   0  0  0  0  0  0  0  0  0  0  0  0
   38.3870   31.2220   48.6770 C   0  0  0  0  0  0  0  0  0  0  0  0
   37.2480   31.0180   47.9000 C   0  0  0  0  0  0  0  0  0  0  0  0
   36.0670   30.7540   48.5460 N   0  0  0  0  0  0  0  0  0  0  0  0
   35.9900   30.6900   49.8880 C   0  0  0  0  0  0  0  0  0  0  0  0
   37.0850   30.8860   50.6440 N   0  0  0  0  0  0  0  0  0  0  0  0
   39.2070   31.3210   50.5860 H   0  0  0  0  0  0  0  0  0  0  0  0
   39.2720   31.4230   48.1050 H   0  0  0  0  0  0  0  0  0  0  0  0
   35.0430   30.4780   50.3880 H   0  0  0  0  0  0  0  0  0  0  0  0
   38.8840   30.6440   44.4930 O   0  0  0  0  0  0  0  0  0  0  0  0
   38.9800   27.9340   43.4370 Cl  0  0  0  0  0  0  0  0  0  0  0  0
   39.3900   29.4440   42.6050 C   0  0  0  0  0  0  0  0  0  0  0  0
   39.3130   30.7090   43.1960 C   0  0  0  0  0  0  0  0  0  0  0  0
   39.6670   31.7980   42.4210 C   0  0  0  0  0  0  0  0  0  0  0  0
   39.5790   32.7350   42.9540 H   0  0  0  0  0  0  0  0  0  0  0  0
   40.0790   31.6310   41.1140 C   0  0  0  0  0  0  0  0  0  0  0  0
   40.3360   32.5650   40.5890 H   0  0  0  0  0  0  0  0  0  0  0  0
   40.1570   30.4020   40.5260 C   0  0  0  0  0  3  0  0  0  0  0  0
   39.8110   29.3150   41.2800 C   0  0  0  0  0  3  0  0  0  0  0  0
  2  1  2  1  0  0  0
  2  5  1  0  0  0  0
  3  2  1  0  0  0  0
  4  3  1  0  0  0  0
  5  8  1  0  0  0  0
  6 12  1  0  0  0  0
  6 11  1  0  0  0  0
  7  6  2  0  0  0  0
  8  9  2  0  0  0  0
  8  7  1  0  0  0  0
  9 10  1  0  0  0  0
 10 14  1  0  0  0  0
 10 11  2  0  0  0  0
 13  7  1  0  0  0  0
 15  2  1  0  0  0  0
 17 18  1  0  0  0  0
 17 16  1  0  0  0  0
 18 15  1  0  0  0  0
 19 20  1  0  0  0  0
 19 18  2  0  0  0  0
 21 19  1  0  0  0  0
 22 21  1  0  0  0  0
 23 21  2  0  0  0  0
 23 24  1  0  0  0  0
 24 17  2  0  0  0  0
M  END
>  <minimizedAffinity>
-4.58914042

>  <minimizedRMSD>
3.74091005

$$$$
