
 OpenBabel03272500213D

 37 39  0  0  0  0  0  0  0  0999 V2000
   35.0380   29.6250   50.5100 C   0  0  0  0  0  0  0  0  0  0  0  0
   36.2420   30.0860   49.8780 C   0  0  0  0  0  0  0  0  0  0  0  0
   36.3870   29.9080   48.5010 C   0  0  0  0  0  0  0  0  0  0  0  0
   35.3670   29.3030   47.8310 N   0  0  0  0  0  0  0  0  0  0  0  0
   34.2580   28.8790   48.4260 C   0  0  0  0  0  0  0  0  0  0  0  0
   34.0810   29.0320   49.7530 N   0  0  0  0  0  0  0  0  0  0  0  0
   34.9120   29.7550   51.5790 H   0  0  0  0  0  0  0  0  0  0  0  0
   32.8730   30.6380   46.4040 Cl  0  0  0  0  0  0  0  0  0  0  0  0
   32.5060   28.9470   46.6500 C   0  0  0  0  0  0  0  0  0  0  0  0
   33.2130   28.2300   47.6230 C   0  0  0  0  0  0  0  0  0  0  0  0
   32.9610   26.8710   47.8680 C   0  0  0  0  0  0  0  0  0  0  0  0
   31.9580   26.2790   47.0820 C   0  0  0  0  0  0  0  0  0  0  0  0
   31.2610   26.9600   46.1320 C   0  0  0  0  0  0  0  0  0  0  0  0
   30.0420   26.1150   45.2220 Cl  0  0  0  0  0  0  0  0  0  0  0  0
   31.5430   28.3110   45.9200 C   0  0  0  0  0  0  0  0  0  0  0  0
   33.4840   26.2980   48.6020 H   0  0  0  0  0  0  0  0  0  0  0  0
   31.7740   25.2290   47.2810 H   0  0  0  0  0  0  0  0  0  0  0  0
   30.7940   29.0760   44.8880 C   0  0  0  0  0  0  0  0  0  0  0  0
   29.7540   28.2990   44.3700 F   0  0  0  0  0  0  0  0  0  0  0  0
   31.6040   29.5270   43.8810 F   0  0  0  0  0  0  0  0  0  0  0  0
   30.1920   30.1640   45.4640 F   0  0  0  0  0  0  0  0  0  0  0  0
   37.2670   30.7300   50.7480 C   0  0  0  0  0  0  0  0  0  0  0  0
   38.5470   30.4440   50.2770 F   0  0  0  0  0  0  0  0  0  0  0  0
   37.0760   32.0980   50.6640 F   0  0  0  0  0  0  0  0  0  0  0  0
   37.1720   30.3640   52.0670 F   0  0  0  0  0  0  0  0  0  0  0  0
   37.6150   30.3640   47.8750 C   0  0  0  0  0  0  0  0  0  0  0  0
   38.4000   29.5880   47.7710 H   0  0  0  0  0  0  0  0  0  0  0  0
   38.0420   31.1630   48.5510 H   0  0  0  0  0  0  0  0  0  0  0  0
   39.3330   32.6950   47.0100 Cl  0  0  0  0  0  0  0  0  0  0  0  0
   38.1040   31.9570   45.9860 C   0  0  0  0  0  0  0  0  0  0  0  0
   37.4010   30.8890   46.5060 C   0  0  0  0  0  0  0  0  0  0  0  0
   36.4650   30.3500   45.6450 C   0  0  0  0  0  0  0  0  0  0  0  0
   35.8920   29.4990   46.0300 H   0  0  0  0  0  0  0  0  0  0  0  0
   36.1930   30.7830   44.3560 C   0  0  0  0  0  0  0  0  0  0  0  0
   35.4240   30.2620   43.7840 H   0  0  0  0  0  0  0  0  0  0  0  0
   36.9240   31.8550   43.8820 C   0  0  0  0  0  0  0  0  0  0  0  0
   37.8740   32.4360   44.6990 C   0  0  0  0  0  0  0  0  0  0  0  0
  1  7  1  0  0  0  0
  2  1  1  0  0  0  0
  2 22  1  0  0  0  0
  3  2  2  0  0  0  0
  4  5  2  0  0  0  0
  4  3  1  0  0  0  0
  5  6  1  0  0  0  0
  6  1  2  0  0  0  0
  8  9  1  0  0  0  0
  9 10  1  0  0  0  0
 10 11  2  0  0  0  0
 10  5  1  0  0  0  0
 11 16  1  0  0  0  0
 12 17  1  0  0  0  0
 12 11  1  0  0  0  0
 13 12  2  0  0  0  0
 14 13  1  0  0  0  0
 15 13  1  0  0  0  0
 15  9  2  0  0  0  0
 18 21  1  0  0  0  0
 18 15  1  0  0  0  0
 19 18  1  0  0  0  0
 20 18  1  0  0  0  0
 22 25  1  0  0  0  0
 23 22  1  0  0  0  0
 24 22  1  0  0  0  0
 26  3  1  0  0  0  0
 26 28  1  0  0  0  0
 27 26  1  0  0  0  0
 30 31  1  0  0  0  0
 30 29  1  0  0  0  0
 31 26  1  0  0  0  0
 32 33  1  0  0  0  0
 32 31  2  0  0  0  0
 34 32  1  0  0  0  0
 35 34  1  0  0  0  0
 36 34  2  0  0  0  0
 36 37  1  0  0  0  0
 37 30  2  0  0  0  0
M  END
>  <minimizedAffinity>
-6.63144827

>  <minimizedRMSD>
0.593919933

$$$$
