
 OpenBabel03272510243D

 32 35  0  0  0  0  0  0  0  0999 V2000
   35.0630   29.7590   47.5240 C   0  0  0  0  0  0  0  0  0  0  0  0
   36.1120   30.4350   46.9210 C   0  0  0  0  0  0  0  0  0  0  0  0
   36.3040   30.3750   45.5510 C   0  0  0  0  0  0  0  0  0  0  0  0
   35.3810   29.6020   44.8350 C   0  0  0  0  0  0  0  0  0  0  0  0
   35.3740   29.3990   43.4770 N   0  0  0  0  0  0  0  0  0  0  0  0
   34.3230   28.6030   43.2470 C   0  0  0  0  0  0  0  0  0  0  0  0
   33.6890   28.3040   44.3700 N   0  0  0  0  0  0  0  0  0  0  0  0
   34.3260   28.9170   45.3970 C   0  0  0  0  0  0  0  0  0  0  0  0
   34.1750   29.0050   46.7720 C   0  0  0  0  0  0  0  0  0  0  0  0
   34.9240   29.8130   48.5940 H   0  0  0  0  0  0  0  0  0  0  0  0
   37.1100   30.8920   45.0720 H   0  0  0  0  0  0  0  0  0  0  0  0
   36.0510   29.7880   42.7650 H   0  0  0  0  0  0  0  0  0  0  0  0
   33.3490   28.4710   47.2230 H   0  0  0  0  0  0  0  0  0  0  0  0
   38.8540   32.6110   48.2920 C   0  0  0  0  0  0  0  0  0  0  0  0
   38.0960   31.9220   47.3500 C   0  0  0  0  0  0  0  0  0  0  0  0
   36.9970   31.2020   47.7800 C   0  0  0  0  0  0  0  0  0  0  0  0
   36.7390   31.2250   49.1120 N   0  0  0  0  0  0  0  0  0  0  0  0
   37.4810   31.8970   50.0180 C   0  0  0  0  0  0  0  0  0  0  0  0
   38.5290   32.5810   49.5950 N   0  0  0  0  0  0  0  0  0  0  0  0
   39.6940   33.1410   47.8350 H   0  0  0  0  0  0  0  0  0  0  0  0
   38.2990   31.9010   46.2840 H   0  0  0  0  0  0  0  0  0  0  0  0
   37.2250   31.8760   51.0680 H   0  0  0  0  0  0  0  0  0  0  0  0
   33.9820   28.1690   41.9680 O   0  0  0  0  0  0  0  0  0  0  0  0
   31.5540   26.3740   42.0210 Cl  0  0  0  0  0  0  0  0  0  0  0  0
   31.6130   27.9880   41.3380 C   0  0  0  0  0  0  0  0  0  0  0  0
   32.8100   28.6630   41.4030 C   0  0  0  0  0  0  0  0  0  0  0  0
   32.9410   29.9360   40.8900 C   0  0  0  0  0  0  0  0  0  0  0  0
   33.8590   30.5400   40.9040 H   0  0  0  0  0  0  0  0  0  0  0  0
   31.8710   30.5740   40.2940 C   0  0  0  0  0  0  0  0  0  0  0  0
   31.9080   31.5620   39.8770 H   0  0  0  0  0  0  0  0  0  0  0  0
   30.6650   29.8990   40.2270 C   0  0  0  0  0  3  0  0  0  0  0  0
   30.5490   28.6330   40.7410 C   0  0  0  0  0  3  0  0  0  0  0  0
  1 10  1  0  0  0  0
  2  1  1  0  0  0  0
  2 16  1  0  0  0  0
  3  2  2  0  0  0  0
  4  8  2  0  0  0  0
  4  3  1  0  0  0  0
  5  4  1  0  0  0  0
  6  5  1  0  0  0  0
  6  7  2  0  0  0  0
  7  8  1  0  0  0  0
  8  9  1  0  0  0  0
  9 13  1  0  0  0  0
  9  1  2  0  0  0  0
 11  3  1  0  0  0  0
 12  5  1  0  0  0  0
 14 19  1  0  0  0  0
 15 16  1  0  0  0  0
 15 14  2  0  0  0  0
 16 17  2  0  0  0  0
 17 18  1  0  0  0  0
 18 22  1  0  0  0  0
 19 18  2  0  0  0  0
 20 14  1  0  0  0  0
 21 15  1  0  0  0  0
 23  6  1  0  0  0  0
 25 26  1  0  0  0  0
 25 24  1  0  0  0  0
 26 23  1  0  0  0  0
 27 28  1  0  0  0  0
 27 26  2  0  0  0  0
 29 27  1  0  0  0  0
 30 29  1  0  0  0  0
 31 29  2  0  0  0  0
 31 32  1  0  0  0  0
 32 25  2  0  0  0  0
M  END
>  <minimizedAffinity>
-3.53707051

>  <minimizedRMSD>
7.06557322

$$$$
