
 OpenBabel03272508093D

 24 25  0  0  0  0  0  0  0  0999 V2000
   39.5070   27.2830   33.9470 O   0  0  0  0  0  0  0  0  0  0  0  0
   38.4150   26.8620   34.8630 P   0  0  2  0  0  0  0  0  0  0  0  0
   38.6160   27.6300   36.3790 O   0  0  0  0  0  0  0  0  0  0  0  0
   38.0480   27.1520   37.0380 H   0  0  0  0  0  0  0  0  0  0  0  0
   38.3070   25.1840   35.0980 O   0  0  0  0  0  0  0  0  0  0  0  0
   39.7520   22.8770   37.6070 C   0  0  0  0  0  0  0  0  0  0  0  0
   39.6130   23.4890   36.3470 C   0  0  0  0  0  0  0  0  0  0  0  0
   38.6300   24.4650   36.1920 C   0  0  0  0  0  0  0  0  0  0  0  0
   37.8540   24.7750   37.2790 N   0  0  0  0  0  0  0  0  0  0  0  0
   38.0210   24.1660   38.4680 C   0  0  0  0  0  0  0  0  0  0  0  0
   38.9660   23.2240   38.6250 N   0  0  0  0  0  0  0  0  0  0  0  0
   40.5460   22.1330   37.6180 H   0  0  0  0  0  0  0  0  0  0  0  0
   40.1800   23.2990   35.4560 H   0  0  0  0  0  0  0  0  0  0  0  0
   37.3940   24.4230   39.3250 H   0  0  0  0  0  0  0  0  0  0  0  0
   36.9460   27.4260   34.2780 O   0  0  0  0  0  0  0  0  0  0  0  0
   35.7820   30.0270   34.8700 Cl  0  0  0  0  0  0  0  0  0  0  0  0
   36.1030   29.3110   33.2810 C   0  0  0  0  0  0  0  0  0  0  0  0
   36.6690   28.0470   33.0920 C   0  0  0  0  0  0  0  0  0  0  0  0
   36.8610   27.6200   31.7900 C   0  0  0  0  0  0  0  0  0  0  0  0
   37.3030   26.6340   31.7350 H   0  0  0  0  0  0  0  0  0  0  0  0
   36.5030   28.4220   30.7240 C   0  0  0  0  0  0  0  0  0  0  0  0
   36.7000   27.9850   29.7330 H   0  0  0  0  0  0  0  0  0  0  0  0
   35.9500   29.6580   30.8950 C   0  0  0  0  0  3  0  0  0  0  0  0
   35.7540   30.0920   32.1770 C   0  0  0  0  0  3  0  0  0  0  0  0
  2  1  2  6  0  0  0
  2  5  1  0  0  0  0
  2  3  1  0  0  0  0
  3  4  1  0  0  0  0
  5  8  1  0  0  0  0
  6 12  1  0  0  0  0
  6 11  1  0  0  0  0
  7  6  2  0  0  0  0
  8  7  1  0  0  0  0
  8  9  2  0  0  0  0
  9 10  1  0  0  0  0
 10 11  2  0  0  0  0
 10 14  1  0  0  0  0
 13  7  1  0  0  0  0
 15  2  1  0  0  0  0
 17 16  1  0  0  0  0
 18 17  1  0  0  0  0
 18 15  1  0  0  0  0
 19 18  2  0  0  0  0
 20 19  1  0  0  0  0
 21 23  2  0  0  0  0
 21 19  1  0  0  0  0
 22 21  1  0  0  0  0
 23 24  1  0  0  0  0
 24 17  2  0  0  0  0
M  END
>  <minimizedAffinity>
-5.00511599

$$$$

 OpenBabel03272508093D

 24 25  0  0  0  0  0  0  0  0999 V2000
   39.4080   27.2050   35.2650 O   0  0  0  0  0  0  0  0  0  0  0  0
   38.0500   26.7410   34.8800 P   0  0  2  0  0  0  0  0  0  0  0  0
   36.9560   28.0550   34.9520 O   0  0  0  0  0  0  0  0  0  0  0  0
   36.0360   27.6840   34.9460 H   0  0  0  0  0  0  0  0  0  0  0  0
   37.4530   25.4650   35.8270 O   0  0  0  0  0  0  0  0  0  0  0  0
   38.8080   23.3980   38.5830 C   0  0  0  0  0  0  0  0  0  0  0  0
   37.9510   24.3340   37.9740 C   0  0  0  0  0  0  0  0  0  0  0  0
   38.1350   24.6170   36.6220 C   0  0  0  0  0  0  0  0  0  0  0  0
   39.1440   23.9640   35.9600 N   0  0  0  0  0  0  0  0  0  0  0  0
   39.9410   23.0740   36.5800 C   0  0  0  0  0  0  0  0  0  0  0  0
   39.7690   22.7960   37.8840 N   0  0  0  0  0  0  0  0  0  0  0  0
   38.5770   23.2510   39.6360 H   0  0  0  0  0  0  0  0  0  0  0  0
   37.1460   24.8810   38.4270 H   0  0  0  0  0  0  0  0  0  0  0  0
   40.7400   22.5620   36.0390 H   0  0  0  0  0  0  0  0  0  0  0  0
   38.0570   26.2670   33.2690 O   0  0  0  0  0  0  0  0  0  0  0  0
   35.9420   27.5100   31.7040 Cl  0  0  0  0  0  0  0  0  0  0  0  0
   36.2990   25.7830   31.8800 C   0  0  0  0  0  0  0  0  0  0  0  0
   37.3430   25.2740   32.6570 C   0  0  0  0  0  0  0  0  0  0  0  0
   37.4990   23.9010   32.6990 C   0  0  0  0  0  0  0  0  0  0  0  0
   38.3290   23.5930   33.3220 H   0  0  0  0  0  0  0  0  0  0  0  0
   36.6500   23.0720   31.9920 C   0  0  0  0  0  0  0  0  0  0  0  0
   36.8650   21.9970   32.0950 H   0  0  0  0  0  0  0  0  0  0  0  0
   35.6280   23.5560   31.2280 C   0  0  0  0  0  3  0  0  0  0  0  0
   35.4610   24.9120   31.1800 C   0  0  0  0  0  3  0  0  0  0  0  0
  2  3  1  0  0  0  0
  2  1  2  1  0  0  0
  2  5  1  0  0  0  0
  4  3  1  0  0  0  0
  5  8  1  0  0  0  0
  6 12  1  0  0  0  0
  7 13  1  0  0  0  0
  7  6  1  0  0  0  0
  8  7  2  0  0  0  0
  9 10  2  0  0  0  0
  9  8  1  0  0  0  0
 10 11  1  0  0  0  0
 11  6  2  0  0  0  0
 14 10  1  0  0  0  0
 15  2  1  0  0  0  0
 16 17  1  0  0  0  0
 17 18  1  0  0  0  0
 18 19  2  0  0  0  0
 18 15  1  0  0  0  0
 19 20  1  0  0  0  0
 21 22  1  0  0  0  0
 21 19  1  0  0  0  0
 23 21  2  0  0  0  0
 24 23  1  0  0  0  0
 24 17  2  0  0  0  0
M  END
>  <minimizedAffinity>
-4.91085911

$$$$

 OpenBabel03272508093D

 24 25  0  0  0  0  0  0  0  0999 V2000
   39.7980   27.2050   33.6110 O   0  0  0  0  0  0  0  0  0  0  0  0
   38.8000   26.6420   34.5560 P   0  0  2  0  0  0  0  0  0  0  0  0
   38.8740   27.4950   36.0370 O   0  0  0  0  0  0  0  0  0  0  0  0
   38.4000   26.9560   36.7220 H   0  0  0  0  0  0  0  0  0  0  0  0
   38.9820   24.9820   34.8590 O   0  0  0  0  0  0  0  0  0  0  0  0
   39.7480   22.8260   37.7690 C   0  0  0  0  0  0  0  0  0  0  0  0
   39.8970   23.3320   36.4650 C   0  0  0  0  0  0  0  0  0  0  0  0
   39.0360   24.3440   36.0460 C   0  0  0  0  0  0  0  0  0  0  0  0
   38.0900   24.7910   36.9330 N   0  0  0  0  0  0  0  0  0  0  0  0
   37.9810   24.2800   38.1730 C   0  0  0  0  0  0  0  0  0  0  0  0
   38.8080   23.3030   38.5830 N   0  0  0  0  0  0  0  0  0  0  0  0
   40.4680   22.0420   37.9930 H   0  0  0  0  0  0  0  0  0  0  0  0
   40.6100   23.0320   35.7200 H   0  0  0  0  0  0  0  0  0  0  0  0
   37.2210   24.6460   38.8670 H   0  0  0  0  0  0  0  0  0  0  0  0
   37.2530   26.9220   33.9680 O   0  0  0  0  0  0  0  0  0  0  0  0
   37.4260   27.3100   31.0890 Cl  0  0  0  0  0  0  0  0  0  0  0  0
   36.6820   28.3790   32.2920 C   0  0  0  0  0  0  0  0  0  0  0  0
   36.6460   28.1090   33.6620 C   0  0  0  0  0  0  0  0  0  0  0  0
   36.0300   29.0380   34.4810 C   0  0  0  0  0  0  0  0  0  0  0  0
   36.0470   28.7510   35.5240 H   0  0  0  0  0  0  0  0  0  0  0  0
   35.4740   30.1860   33.9520 C   0  0  0  0  0  0  0  0  0  0  0  0
   35.0090   30.8560   34.6920 H   0  0  0  0  0  0  0  0  0  0  0  0
   35.5020   30.4610   32.6160 C   0  0  0  0  0  3  0  0  0  0  0  0
   36.1090   29.5520   31.7950 C   0  0  0  0  0  3  0  0  0  0  0  0
  2  1  2  6  0  0  0
  2  5  1  0  0  0  0
  2  3  1  0  0  0  0
  3  4  1  0  0  0  0
  5  8  1  0  0  0  0
  6 12  1  0  0  0  0
  6 11  1  0  0  0  0
  7  6  2  0  0  0  0
  8  7  1  0  0  0  0
  8  9  2  0  0  0  0
  9 10  1  0  0  0  0
 10 11  2  0  0  0  0
 10 14  1  0  0  0  0
 13  7  1  0  0  0  0
 15  2  1  0  0  0  0
 16 17  1  0  0  0  0
 17 18  1  0  0  0  0
 18 15  1  0  0  0  0
 18 19  2  0  0  0  0
 19 20  1  0  0  0  0
 21 19  1  0  0  0  0
 21 22  1  0  0  0  0
 23 21  2  0  0  0  0
 24 17  2  0  0  0  0
 24 23  1  0  0  0  0
M  END
>  <minimizedAffinity>
-4.87261534

$$$$

 OpenBabel03272508093D

 24 25  0  0  0  0  0  0  0  0999 V2000
   37.7500   23.9910   38.0140 O   0  0  0  0  0  0  0  0  0  0  0  0
   38.7220   23.3150   37.1170 P   0  0  2  0  0  0  0  0  0  0  0  0
   37.9750   21.9620   36.3830 O   0  0  0  0  0  0  0  0  0  0  0  0
   38.6910   21.3900   36.0030 H   0  0  0  0  0  0  0  0  0  0  0  0
   40.1520   22.8150   37.8840 O   0  0  0  0  0  0  0  0  0  0  0  0
   43.3790   22.4810   36.1010 C   0  0  0  0  0  0  0  0  0  0  0  0
   42.2350   23.1440   36.5830 C   0  0  0  0  0  0  0  0  0  0  0  0
   41.3100   22.4100   37.3230 C   0  0  0  0  0  0  0  0  0  0  0  0
   41.5680   21.0810   37.5410 N   0  0  0  0  0  0  0  0  0  0  0  0
   42.6770   20.4850   37.0630 C   0  0  0  0  0  0  0  0  0  0  0  0
   43.5730   21.1870   36.3480 N   0  0  0  0  0  0  0  0  0  0  0  0
   44.0330   23.1440   35.5390 H   0  0  0  0  0  0  0  0  0  0  0  0
   41.9670   24.1750   36.4520 H   0  0  0  0  0  0  0  0  0  0  0  0
   42.8690   19.4260   37.2440 H   0  0  0  0  0  0  0  0  0  0  0  0
   39.1150   24.3390   35.8460 O   0  0  0  0  0  0  0  0  0  0  0  0
   37.7930   23.8040   33.3090 Cl  0  0  0  0  0  0  0  0  0  0  0  0
   37.8310   25.3230   34.2210 C   0  0  0  0  0  0  0  0  0  0  0  0
   38.4960   25.4890   35.4390 C   0  0  0  0  0  0  0  0  0  0  0  0
   38.4380   26.7350   36.0350 C   0  0  0  0  0  0  0  0  0  0  0  0
   38.9770   26.7760   36.9720 H   0  0  0  0  0  0  0  0  0  0  0  0
   37.7450   27.7710   35.4400 C   0  0  0  0  0  0  0  0  0  0  0  0
   37.7620   28.7190   35.9990 H   0  0  0  0  0  0  0  0  0  0  0  0
   37.0910   27.6220   34.2510 C   0  0  0  0  0  3  0  0  0  0  0  0
   37.1410   26.3950   33.6500 C   0  0  0  0  0  3  0  0  0  0  0  0
  2  5  1  0  0  0  0
  2  1  2  1  0  0  0
  3  2  1  0  0  0  0
  4  3  1  0  0  0  0
  6 11  2  0  0  0  0
  6  7  1  0  0  0  0
  7  8  2  0  0  0  0
  8  9  1  0  0  0  0
  8  5  1  0  0  0  0
 10 14  1  0  0  0  0
 10  9  2  0  0  0  0
 11 10  1  0  0  0  0
 12  6  1  0  0  0  0
 13  7  1  0  0  0  0
 15  2  1  0  0  0  0
 16 17  1  0  0  0  0
 17 18  1  0  0  0  0
 18 15  1  0  0  0  0
 18 19  2  0  0  0  0
 19 20  1  0  0  0  0
 21 22  1  0  0  0  0
 21 19  1  0  0  0  0
 23 21  2  0  0  0  0
 24 17  2  0  0  0  0
 24 23  1  0  0  0  0
M  END
>  <minimizedAffinity>
-4.86600113

$$$$

 OpenBabel03272508093D

 24 25  0  0  0  0  0  0  0  0999 V2000
   37.2560   22.8860   36.6080 O   0  0  0  0  0  0  0  0  0  0  0  0
   38.4980   22.7110   35.8110 P   0  0  2  0  0  0  0  0  0  0  0  0
   39.6840   21.9350   36.7680 O   0  0  0  0  0  0  0  0  0  0  0  0
   40.5610   22.0570   36.3210 H   0  0  0  0  0  0  0  0  0  0  0  0
   39.1390   24.1540   35.1880 O   0  0  0  0  0  0  0  0  0  0  0  0
   37.9010   27.6220   35.5630 C   0  0  0  0  0  0  0  0  0  0  0  0
   38.6300   26.4690   35.9080 C   0  0  0  0  0  0  0  0  0  0  0  0
   38.5430   25.3580   35.0720 C   0  0  0  0  0  0  0  0  0  0  0  0
   37.7490   25.4520   33.9570 N   0  0  0  0  0  0  0  0  0  0  0  0
   37.0680   26.5750   33.6630 C   0  0  0  0  0  0  0  0  0  0  0  0
   37.1480   27.6510   34.4650 N   0  0  0  0  0  0  0  0  0  0  0  0
   38.0390   28.4280   36.2810 H   0  0  0  0  0  0  0  0  0  0  0  0
   39.2670   26.3230   36.7600 H   0  0  0  0  0  0  0  0  0  0  0  0
   36.4400   26.6350   32.7710 H   0  0  0  0  0  0  0  0  0  0  0  0
   38.2010   21.6530   34.5410 O   0  0  0  0  0  0  0  0  0  0  0  0
   35.5360   20.5330   34.8750 Cl  0  0  0  0  0  0  0  0  0  0  0  0
   36.2040   21.3570   33.4550 C   0  0  0  0  0  0  0  0  0  0  0  0
   37.5030   21.8660   33.3840 C   0  0  0  0  0  0  0  0  0  0  0  0
   37.8840   22.4850   32.2080 C   0  0  0  0  0  0  0  0  0  0  0  0
   38.9030   22.8490   32.2380 H   0  0  0  0  0  0  0  0  0  0  0  0
   37.0050   22.5910   31.1480 C   0  0  0  0  0  0  0  0  0  0  0  0
   37.4100   23.1020   30.2620 H   0  0  0  0  0  0  0  0  0  0  0  0
   35.7330   22.0990   31.2050 C   0  0  0  0  0  3  0  0  0  0  0  0
   35.3430   21.4830   32.3620 C   0  0  0  0  0  3  0  0  0  0  0  0
  2  1  2  1  0  0  0
  2  3  1  0  0  0  0
  4  3  1  0  0  0  0
  5  2  1  0  0  0  0
  6  7  1  0  0  0  0
  6 12  1  0  0  0  0
  7 13  1  0  0  0  0
  8  5  1  0  0  0  0
  8  7  2  0  0  0  0
  9  8  1  0  0  0  0
 10  9  2  0  0  0  0
 10 11  1  0  0  0  0
 11  6  2  0  0  0  0
 14 10  1  0  0  0  0
 15  2  1  0  0  0  0
 17 16  1  0  0  0  0
 18 17  1  0  0  0  0
 18 15  1  0  0  0  0
 19 20  1  0  0  0  0
 19 18  2  0  0  0  0
 21 23  2  0  0  0  0
 21 19  1  0  0  0  0
 22 21  1  0  0  0  0
 23 24  1  0  0  0  0
 24 17  2  0  0  0  0
M  END
>  <minimizedAffinity>
-4.75388813

$$$$

 OpenBabel03272508093D

 24 25  0  0  0  0  0  0  0  0999 V2000
   34.9410   25.0650   30.6810 O   0  0  0  0  0  0  0  0  0  0  0  0
   36.2560   24.8420   31.3370 P   0  0  2  0  0  0  0  0  0  0  0  0
   37.4770   24.7340   30.1430 O   0  0  0  0  0  0  0  0  0  0  0  0
   38.2810   24.3370   30.5670 H   0  0  0  0  0  0  0  0  0  0  0  0
   36.3190   23.4640   32.3260 O   0  0  0  0  0  0  0  0  0  0  0  0
   35.0250   20.0140   31.9650 C   0  0  0  0  0  0  0  0  0  0  0  0
   35.0750   21.3260   32.4720 C   0  0  0  0  0  0  0  0  0  0  0  0
   36.0680   22.1800   31.9970 C   0  0  0  0  0  0  0  0  0  0  0  0
   36.9420   21.6920   31.0590 N   0  0  0  0  0  0  0  0  0  0  0  0
   36.8590   20.4300   30.5990 C   0  0  0  0  0  0  0  0  0  0  0  0
   35.9030   19.6010   31.0530 N   0  0  0  0  0  0  0  0  0  0  0  0
   34.2140   19.4340   32.4010 H   0  0  0  0  0  0  0  0  0  0  0  0
   34.4300   21.7750   33.2030 H   0  0  0  0  0  0  0  0  0  0  0  0
   37.5620   20.0550   29.8520 H   0  0  0  0  0  0  0  0  0  0  0  0
   36.6590   26.1890   32.2530 O   0  0  0  0  0  0  0  0  0  0  0  0
   39.0150   27.5250   31.1890 Cl  0  0  0  0  0  0  0  0  0  0  0  0
   38.7440   26.9390   32.8400 C   0  0  0  0  0  0  0  0  0  0  0  0
   37.5740   26.3060   33.2630 C   0  0  0  0  0  0  0  0  0  0  0  0
   37.5070   25.9020   34.5840 C   0  0  0  0  0  0  0  0  0  0  0  0
   36.5680   25.4220   34.8270 H   0  0  0  0  0  0  0  0  0  0  0  0
   38.5640   26.1230   35.4440 C   0  0  0  0  0  0  0  0  0  0  0  0
   38.4050   25.7630   36.4730 H   0  0  0  0  0  0  0  0  0  0  0  0
   39.7130   26.7420   35.0440 C   0  0  0  0  0  3  0  0  0  0  0  0
   39.7930   27.1450   33.7390 C   0  0  0  0  0  3  0  0  0  0  0  0
  2  1  2  6  0  0  0
  2 15  1  0  0  0  0
  2  5  1  0  0  0  0
  3  4  1  0  0  0  0
  3  2  1  0  0  0  0
  6 12  1  0  0  0  0
  6  7  1  0  0  0  0
  7 13  1  0  0  0  0
  8  5  1  0  0  0  0
  8  7  2  0  0  0  0
  9  8  1  0  0  0  0
 10 11  1  0  0  0  0
 10  9  2  0  0  0  0
 11  6  2  0  0  0  0
 14 10  1  0  0  0  0
 15 18  1  0  0  0  0
 16 17  1  0  0  0  0
 17 18  2  0  0  0  0
 17 24  1  0  0  0  0
 18 19  1  0  0  0  0
 19 20  1  0  0  0  0
 19 21  2  0  0  0  0
 21 22  1  0  0  0  0
 23 21  1  0  0  0  0
 24 23  2  0  0  0  0
M  END
>  <minimizedAffinity>
-4.67713594

$$$$

 OpenBabel03272508093D

 24 25  0  0  0  0  0  0  0  0999 V2000
   38.8380   27.5050   35.6650 O   0  0  0  0  0  0  0  0  0  0  0  0
   39.5570   26.6310   34.7030 P   0  0  2  0  0  0  0  0  0  0  0  0
   41.2400   26.7290   34.9900 O   0  0  0  0  0  0  0  0  0  0  0  0
   41.7050   26.3550   34.1980 H   0  0  0  0  0  0  0  0  0  0  0  0
   39.2470   26.9830   33.0720 O   0  0  0  0  0  0  0  0  0  0  0  0
   36.0270   27.7720   31.4250 C   0  0  0  0  0  0  0  0  0  0  0  0
   37.2170   28.0420   32.1260 C   0  0  0  0  0  0  0  0  0  0  0  0
   38.0670   26.9780   32.4190 C   0  0  0  0  0  0  0  0  0  0  0  0
   37.6940   25.7230   32.0070 N   0  0  0  0  0  0  0  0  0  0  0  0
   36.5460   25.5080   31.3380 C   0  0  0  0  0  0  0  0  0  0  0  0
   35.7210   26.5310   31.0510 N   0  0  0  0  0  0  0  0  0  0  0  0
   35.4390   28.6700   31.2480 H   0  0  0  0  0  0  0  0  0  0  0  0
   37.5720   28.9920   32.4790 H   0  0  0  0  0  0  0  0  0  0  0  0
   36.2620   24.5040   31.0160 H   0  0  0  0  0  0  0  0  0  0  0  0
   39.1560   25.0270   35.0000 O   0  0  0  0  0  0  0  0  0  0  0  0
   37.7470   24.3760   37.4610 Cl  0  0  0  0  0  0  0  0  0  0  0  0
   39.2660   23.6890   36.8580 C   0  0  0  0  0  0  0  0  0  0  0  0
   39.8730   24.0650   35.6570 C   0  0  0  0  0  0  0  0  0  0  0  0
   41.0590   23.4410   35.3160 C   0  0  0  0  0  0  0  0  0  0  0  0
   41.4590   23.7900   34.3740 H   0  0  0  0  0  0  0  0  0  0  0  0
   41.6140   22.4820   36.1410 C   0  0  0  0  0  0  0  0  0  0  0  0
   42.5570   22.0490   35.7740 H   0  0  0  0  0  0  0  0  0  0  0  0
   41.0310   22.1050   37.3150 C   0  0  0  0  0  3  0  0  0  0  0  0
   39.8580   22.7150   37.6660 C   0  0  0  0  0  3  0  0  0  0  0  0
  2  3  1  0  0  0  0
  2 15  1  0  0  0  0
  2  1  2  1  0  0  0
  4  3  1  0  0  0  0
  5  2  1  0  0  0  0
  6  7  1  0  0  0  0
  7  8  2  0  0  0  0
  7 13  1  0  0  0  0
  8  5  1  0  0  0  0
  9  8  1  0  0  0  0
 10  9  2  0  0  0  0
 11 10  1  0  0  0  0
 11  6  2  0  0  0  0
 12  6  1  0  0  0  0
 14 10  1  0  0  0  0
 15 18  1  0  0  0  0
 17 16  1  0  0  0  0
 17 24  1  0  0  0  0
 18 17  2  0  0  0  0
 19 18  1  0  0  0  0
 19 21  2  0  0  0  0
 20 19  1  0  0  0  0
 21 23  1  0  0  0  0
 22 21  1  0  0  0  0
 23 24  2  0  0  0  0
M  END
>  <minimizedAffinity>
-4.67394018

$$$$

 OpenBabel03272508093D

 24 25  0  0  0  0  0  0  0  0999 V2000
   38.8520   23.2940   31.8390 O   0  0  0  0  0  0  0  0  0  0  0  0
   38.1440   23.1670   33.1390 P   0  0  2  0  0  0  0  0  0  0  0  0
   37.7910   24.7250   33.7510 O   0  0  0  0  0  0  0  0  0  0  0  0
   37.5600   24.6280   34.7110 H   0  0  0  0  0  0  0  0  0  0  0  0
   38.9940   22.2850   34.3150 O   0  0  0  0  0  0  0  0  0  0  0  0
   40.0780   22.6740   37.8330 C   0  0  0  0  0  0  0  0  0  0  0  0
   40.2020   22.3150   36.4780 C   0  0  0  0  0  0  0  0  0  0  0  0
   39.1170   22.5410   35.6330 C   0  0  0  0  0  0  0  0  0  0  0  0
   37.9870   23.1030   36.1720 N   0  0  0  0  0  0  0  0  0  0  0  0
   37.9110   23.4330   37.4740 C   0  0  0  0  0  0  0  0  0  0  0  0
   38.9530   23.2180   38.2950 N   0  0  0  0  0  0  0  0  0  0  0  0
   40.9800   22.4560   38.4010 H   0  0  0  0  0  0  0  0  0  0  0  0
   41.0490   21.8730   35.9880 H   0  0  0  0  0  0  0  0  0  0  0  0
   37.0050   23.8800   37.8890 H   0  0  0  0  0  0  0  0  0  0  0  0
   36.6490   22.4450   32.8920 O   0  0  0  0  0  0  0  0  0  0  0  0
   35.6350   20.7680   35.0430 Cl  0  0  0  0  0  0  0  0  0  0  0  0
   35.8630   20.3380   33.3390 C   0  0  0  0  0  0  0  0  0  0  0  0
   36.3580   21.2140   32.3700 C   0  0  0  0  0  0  0  0  0  0  0  0
   36.4820   20.7360   31.0780 C   0  0  0  0  0  0  0  0  0  0  0  0
   36.8720   21.4780   30.3940 H   0  0  0  0  0  0  0  0  0  0  0  0
   36.1240   19.4390   30.7690 C   0  0  0  0  0  0  0  0  0  0  0  0
   36.2610   19.1630   29.7120 H   0  0  0  0  0  0  0  0  0  0  0  0
   35.6380   18.5740   31.7050 C   0  0  0  0  0  3  0  0  0  0  0  0
   35.5120   19.0330   32.9870 C   0  0  0  0  0  3  0  0  0  0  0  0
  2  1  2  6  0  0  0
  2  3  1  0  0  0  0
  2  5  1  0  0  0  0
  3  4  1  0  0  0  0
  5  8  1  0  0  0  0
  6 11  1  0  0  0  0
  6 12  1  0  0  0  0
  7  6  2  0  0  0  0
  8  9  2  0  0  0  0
  8  7  1  0  0  0  0
  9 10  1  0  0  0  0
 10 14  1  0  0  0  0
 10 11  2  0  0  0  0
 13  7  1  0  0  0  0
 15  2  1  0  0  0  0
 17 16  1  0  0  0  0
 18 15  1  0  0  0  0
 18 17  2  0  0  0  0
 19 18  1  0  0  0  0
 20 19  1  0  0  0  0
 21 19  2  0  0  0  0
 21 23  1  0  0  0  0
 22 21  1  0  0  0  0
 23 24  2  0  0  0  0
 24 17  1  0  0  0  0
M  END
>  <minimizedAffinity>
-4.65604877

$$$$

 OpenBabel03272508093D

 24 25  0  0  0  0  0  0  0  0999 V2000
   37.2570   24.6270   32.8050 O   0  0  0  0  0  0  0  0  0  0  0  0
   38.1280   23.5430   33.3280 P   0  0  2  0  0  0  0  0  0  0  0  0
   39.2570   23.0870   32.1260 O   0  0  0  0  0  0  0  0  0  0  0  0
   39.6450   22.2140   32.3910 H   0  0  0  0  0  0  0  0  0  0  0  0
   37.2880   22.1650   33.8560 O   0  0  0  0  0  0  0  0  0  0  0  0
   35.1860   19.4220   32.5280 C   0  0  0  0  0  0  0  0  0  0  0  0
   35.6870   20.3090   33.5000 C   0  0  0  0  0  0  0  0  0  0  0  0
   36.6620   21.2270   33.1170 C   0  0  0  0  0  0  0  0  0  0  0  0
   37.0790   21.2150   31.8100 N   0  0  0  0  0  0  0  0  0  0  0  0
   36.5740   20.3500   30.9110 C   0  0  0  0  0  0  0  0  0  0  0  0
   35.6320   19.4620   31.2740 N   0  0  0  0  0  0  0  0  0  0  0  0
   34.4310   18.7510   32.9320 H   0  0  0  0  0  0  0  0  0  0  0  0
   35.4100   20.3750   34.5350 H   0  0  0  0  0  0  0  0  0  0  0  0
   36.9160   20.3520   29.8740 H   0  0  0  0  0  0  0  0  0  0  0  0
   39.0550   24.1350   34.5970 O   0  0  0  0  0  0  0  0  0  0  0  0
   41.0470   22.2660   35.5990 Cl  0  0  0  0  0  0  0  0  0  0  0  0
   39.7850   23.1100   36.5130 C   0  0  0  0  0  0  0  0  0  0  0  0
   38.8660   23.9950   35.9440 C   0  0  0  0  0  0  0  0  0  0  0  0
   37.9360   24.5800   36.7850 C   0  0  0  0  0  0  0  0  0  0  0  0
   37.2650   25.2500   36.2630 H   0  0  0  0  0  0  0  0  0  0  0  0
   37.9260   24.2920   38.1350 C   0  0  0  0  0  0  0  0  0  0  0  0
   37.1450   24.8120   38.7110 H   0  0  0  0  0  0  0  0  0  0  0  0
   38.8180   23.4300   38.7030 C   0  0  0  0  0  3  0  0  0  0  0  0
   39.7420   22.8430   37.8840 C   0  0  0  0  0  3  0  0  0  0  0  0
  2  1  2  6  0  0  0
  2  5  1  0  0  0  0
  2 15  1  0  0  0  0
  3  4  1  0  0  0  0
  3  2  1  0  0  0  0
  6 12  1  0  0  0  0
  6  7  1  0  0  0  0
  7 13  1  0  0  0  0
  8  7  2  0  0  0  0
  8  5  1  0  0  0  0
  9  8  1  0  0  0  0
 10 11  1  0  0  0  0
 10  9  2  0  0  0  0
 11  6  2  0  0  0  0
 14 10  1  0  0  0  0
 15 18  1  0  0  0  0
 16 17  1  0  0  0  0
 17 24  1  0  0  0  0
 18 17  2  0  0  0  0
 18 19  1  0  0  0  0
 19 21  2  0  0  0  0
 20 19  1  0  0  0  0
 21 23  1  0  0  0  0
 21 22  1  0  0  0  0
 24 23  2  0  0  0  0
M  END
>  <minimizedAffinity>
-4.63455915

$$$$
