
 OpenBabel03272503403D

 41 44  0  0  1  0  0  0  0  0999 V2000
   39.8020   30.8510   41.7780 C   0  0  2  0  0  0  0  0  0  0  0  0
   39.8350   32.0760   42.7220 C   0  0  1  0  0  0  0  0  0  0  0  0
   38.7520   32.8860   42.0890 C   0  0  0  0  0  0  0  0  0  0  0  0
   38.8270   32.6910   40.7310 O   0  0  0  0  0  0  0  0  0  0  0  0
   39.6500   31.6440   40.4590 C   0  0  0  0  0  0  0  0  0  0  0  0
   40.7560   30.3260   41.8020 H   0  0  0  0  0  0  0  0  0  0  0  0
   40.7810   32.6070   42.6820 H   0  0  0  0  0  0  0  0  0  0  0  0
   37.7810   32.4300   42.4230 H   0  0  0  0  0  0  0  0  0  0  0  0
   38.8200   33.9670   42.3440 H   0  0  0  0  0  0  0  0  0  0  0  0
   39.1990   30.9150   39.7590 H   0  0  0  0  0  0  0  0  0  0  0  0
   40.6540   31.9360   40.0870 H   0  0  0  0  0  0  0  0  0  0  0  0
   38.4900   31.1130   45.9190 C   0  0  0  0  0  0  0  0  0  0  0  0
   39.8230   31.0420   46.1910 C   0  0  0  0  0  0  0  0  0  0  0  0
   40.4450   31.4020   44.9980 C   0  0  0  0  0  0  0  0  0  0  0  0
   39.5100   31.6710   44.0710 N   0  0  0  0  0  0  0  0  0  0  0  0
   38.3110   31.4950   44.6310 N   0  0  0  0  0  0  0  0  0  0  0  0
   40.2530   30.7660   47.1310 H   0  0  0  0  0  0  0  0  0  0  0  0
   41.5260   31.4420   44.8960 H   0  0  0  0  0  0  0  0  0  0  0  0
   36.5120   30.6360   49.0640 C   0  0  0  0  0  0  0  0  0  0  0  0
   37.5690   30.9170   48.2220 C   0  0  0  0  0  0  0  0  0  0  0  0
   37.4100   30.8280   46.8510 C   0  0  0  0  0  0  0  0  0  0  0  0
   36.2000   30.4580   46.3850 N   0  0  0  0  0  0  0  0  0  0  0  0
   35.1720   30.1840   47.2350 C   0  0  0  0  0  0  0  0  0  0  0  0
   35.3090   30.2660   48.5460 N   0  0  0  0  0  0  0  0  0  0  0  0
   38.5580   31.2180   48.5470 H   0  0  0  0  0  0  0  0  0  0  0  0
   34.2010   29.8870   46.8530 H   0  0  0  0  0  0  0  0  0  0  0  0
   36.8450   30.7760   50.4140 O   0  0  0  0  0  0  0  0  0  0  0  0
   36.8670   29.6950   51.3150 C   0  0  0  0  0  0  0  0  0  0  0  0
   35.5970   29.2360   51.6260 F   0  0  0  0  0  0  0  0  0  0  0  0
   37.5460   30.0930   52.4410 F   0  0  0  0  0  0  0  0  0  0  0  0
   37.5910   28.6710   50.7310 F   0  0  0  0  0  0  0  0  0  0  0  0
   38.6460   30.1920   42.0390 O   0  0  0  0  0  0  0  0  0  0  0  0
   39.9020   27.3590   42.5270 Cl  0  0  0  0  0  0  0  0  0  0  0  0
   38.4430   27.6940   41.6470 C   0  0  0  0  0  0  0  0  0  0  0  0
   38.1230   29.0220   41.5860 C   0  0  0  0  0  0  0  0  0  0  0  0
   36.9490   29.3290   40.8810 C   0  0  0  0  0  0  0  0  0  0  0  0
   36.4810   30.3030   40.6900 H   0  0  0  0  0  0  0  0  0  0  0  0
   36.1620   28.3360   40.2810 C   0  0  0  0  0  0  0  0  0  0  0  0
   35.2570   28.4860   39.7290 H   0  0  0  0  0  0  0  0  0  0  0  0
   36.5440   27.0160   40.3820 C   0  0  0  0  0  3  0  0  0  0  0  0
   37.6900   26.6990   41.0680 C   0  0  0  0  0  3  0  0  0  0  0  0
  1  6  1  1  0  0  0
  1 32  1  0  0  0  0
  1  2  1  0  0  0  0
  2  7  1  6  0  0  0
  2 15  1  0  0  0  0
  3  9  1  0  0  0  0
  3  8  1  0  0  0  0
  3  2  1  0  0  0  0
  4  3  1  0  0  0  0
  5  4  1  0  0  0  0
  5  1  1  0  0  0  0
 10  5  1  0  0  0  0
 11  5  1  0  0  0  0
 12 13  1  0  0  0  0
 12 21  1  0  0  0  0
 13 17  1  0  0  0  0
 14 13  2  0  0  0  0
 15 16  1  0  0  0  0
 15 14  1  0  0  0  0
 16 12  2  0  0  0  0
 18 14  1  0  0  0  0
 19 27  1  0  0  0  0
 20 25  1  0  0  0  0
 20 19  2  0  0  0  0
 21 20  1  0  0  0  0
 22 21  2  0  0  0  0
 22 23  1  0  0  0  0
 23 24  2  0  0  0  0
 24 19  1  0  0  0  0
 26 23  1  0  0  0  0
 27 28  1  0  0  0  0
 28 29  1  0  0  0  0
 28 30  1  0  0  0  0
 31 28  1  0  0  0  0
 34 33  1  0  0  0  0
 35 34  1  0  0  0  0
 35 32  1  0  0  0  0
 36 35  2  0  0  0  0
 37 36  1  0  0  0  0
 38 40  2  0  0  0  0
 38 36  1  0  0  0  0
 39 38  1  0  0  0  0
 40 41  1  0  0  0  0
 41 34  2  0  0  0  0
M  END
>  <minimizedAffinity>
-6.00777769

>  <minimizedRMSD>
1.1629802

$$$$
