
 OpenBabel03272503243D

 30 32  0  0  1  0  0  0  0  0999 V2000
   36.8450   30.2990   48.8040 N   0  0  0  0  0  0  0  0  0  0  0  0
   37.2640   31.6690   48.5580 C   0  0  1  0  0  0  0  0  0  0  0  0
   37.9110   32.0010   49.8950 C   0  0  0  0  0  0  0  0  0  0  0  0
   37.7120   30.8090   50.8110 C   0  0  0  0  0  0  0  0  0  0  0  0
   37.6670   29.6910   49.8140 C   0  0  0  0  0  0  0  0  0  0  0  0
   36.3750   32.3070   48.3740 H   0  0  0  0  0  0  0  0  0  0  0  0
   38.9510   32.3220   49.8000 H   0  0  0  0  0  0  0  0  0  0  0  0
   37.3250   32.8510   50.3470 H   0  0  0  0  0  0  0  0  0  0  0  0
   38.6850   30.6910   51.3610 H   0  0  0  0  0  0  0  0  0  0  0  0
   36.8320   30.8710   51.4430 H   0  0  0  0  0  0  0  0  0  0  0  0
   38.6180   29.2960   49.4970 H   0  0  0  0  0  0  0  0  0  0  0  0
   37.1090   28.8450   50.2990 H   0  0  0  0  0  0  0  0  0  0  0  0
   35.7660   29.6540   48.1380 C   0  0  0  0  0  0  0  0  0  0  0  0
   35.3760   30.1560   46.8870 C   0  0  0  0  0  0  0  0  0  0  0  0
   34.3220   29.5550   46.1970 C   0  0  0  0  0  0  0  0  0  0  0  0
   33.7230   28.4790   46.8110 N   0  0  0  0  0  0  0  0  0  0  0  0
   34.1190   28.0170   48.0170 C   0  0  0  0  0  0  0  0  0  0  0  0
   35.1450   28.6050   48.6830 N   0  0  0  0  0  0  0  0  0  0  0  0
   35.8300   30.9960   46.3840 H   0  0  0  0  0  0  0  0  0  0  0  0
   34.0050   29.9190   45.2400 H   0  0  0  0  0  0  0  0  0  0  0  0
   33.5840   27.1670   48.4130 H   0  0  0  0  0  0  0  0  0  0  0  0
   38.2090   31.7920   47.4410 C   0  0  0  0  0  0  0  0  0  0  0  0
   39.2010   32.4710   47.6360 O   0  0  0  0  0  0  0  0  0  0  0  0
   38.5190   31.4450   46.0990 N   0  0  0  0  0  0  0  0  0  0  0  0
   38.3360   32.4660   45.0930 C   0  0  0  0  0  2  0  0  0  0  0  0
   37.1910   32.1430   44.1570 C   0  0  0  0  0  2  0  0  0  0  0  0
   37.2830   30.6830   43.7630 C   0  0  0  0  0  3  0  0  0  0  0  0
   37.1690   30.6500   42.6670 H   0  0  0  0  0  0  0  0  0  0  0  0
   38.6510   30.1120   44.0640 C   0  0  0  0  0  2  0  0  0  0  0  0
   39.0090   30.1790   45.5340 C   0  0  0  0  0  2  0  0  0  0  0  0
  1  5  1  0  0  0  0
  2  6  1  6  0  0  0
  2  1  1  0  0  0  0
  2  3  1  0  0  0  0
  3  8  1  0  0  0  0
  3  4  1  0  0  0  0
  4  9  1  0  0  0  0
  4 10  1  0  0  0  0
  5 12  1  0  0  0  0
  5  4  1  0  0  0  0
  7  3  1  0  0  0  0
 11  5  1  0  0  0  0
 13 18  1  0  0  0  0
 13  1  1  0  0  0  0
 14 13  2  0  0  0  0
 15 16  2  0  0  0  0
 15 14  1  0  0  0  0
 16 17  1  0  0  0  0
 17 21  1  0  0  0  0
 17 18  2  0  0  0  0
 19 14  1  0  0  0  0
 20 15  1  0  0  0  0
 22 23  2  0  0  0  0
 22  2  1  0  0  0  0
 24 22  1  0  0  0  0
 25 24  1  0  0  0  0
 26 25  1  0  0  0  0
 27 29  1  0  0  0  0
 27 26  1  0  0  0  0
 28 27  1  0  0  0  0
 29 30  1  0  0  0  0
 30 24  1  0  0  0  0
M  END
>  <minimizedAffinity>
-5.30717564

>  <minimizedRMSD>
1.51822042

$$$$
