
 OpenBabel03272500573D

 33 35  0  0  0  0  0  0  0  0999 V2000
   38.0750   31.9130   47.4220 C   0  0  0  0  0  0  0  0  0  0  0  0
   38.4780   32.8820   48.2980 C   0  0  0  0  0  0  0  0  0  0  0  0
   37.9540   32.9610   49.5860 C   0  0  0  0  0  0  0  0  0  0  0  0
   36.9630   31.9830   49.9720 C   0  0  0  0  0  0  0  0  0  0  0  0
   36.6030   31.0420   49.0520 C   0  0  0  0  0  0  0  0  0  0  0  0
   37.1110   30.9720   47.8140 C   0  0  0  0  0  0  0  0  0  0  0  0
   39.2300   33.6370   48.0310 H   0  0  0  0  0  0  0  0  0  0  0  0
   38.3120   33.7570   50.2440 H   0  0  0  0  0  0  0  0  0  0  0  0
   36.6630   32.1730   50.9720 H   0  0  0  0  0  0  0  0  0  0  0  0
   35.8900   30.4180   49.5660 H   0  0  0  0  0  0  0  0  0  0  0  0
   40.0030   31.2960   46.0400 C   0  0  0  0  0  0  0  0  0  0  0  0
   38.7290   31.9360   46.1290 C   0  0  0  0  0  0  0  0  0  0  0  0
   38.2700   32.4960   44.9640 C   0  0  0  0  0  0  0  0  0  0  0  0
   38.9950   32.4300   43.8360 N   0  0  0  0  0  0  0  0  0  0  0  0
   40.1770   31.8340   43.7630 C   0  0  0  0  0  0  0  0  0  0  0  0
   40.6740   31.2690   44.8720 N   0  0  0  0  0  0  0  0  0  0  0  0
   40.4760   30.8170   46.8880 H   0  0  0  0  0  0  0  0  0  0  0  0
   37.3070   32.9780   45.0350 H   0  0  0  0  0  0  0  0  0  0  0  0
   40.7920   31.7580   42.8740 H   0  0  0  0  0  0  0  0  0  0  0  0
   35.1970   29.9230   46.9180 C   0  0  0  0  0  0  0  0  0  0  0  0
   34.5390   30.6050   47.7660 O   0  0  0  0  0  0  0  0  0  0  0  0
   36.6800   30.0210   46.9220 N   0  0  0  0  0  0  0  0  0  0  0  0
   37.2210   29.4160   46.3050 H   0  0  0  0  0  0  0  0  0  0  0  0
   34.6130   29.0610   45.9400 O   0  0  0  0  0  0  0  0  0  0  0  0
   33.4910   29.5020   45.2650 C   0  0  0  0  0  0  0  0  0  0  0  0
   33.6380   30.6010   44.6750 O   0  0  0  0  0  0  0  0  0  0  0  0
   32.1470   29.0160   45.0620 N   0  0  0  0  0  0  0  0  0  0  0  0
   31.3520   29.2930   43.8860 C   0  0  0  0  0  2  0  0  0  0  0  0
   29.9890   29.8160   44.2070 C   0  0  0  0  0  2  0  0  0  0  0  0
   29.7540   30.0370   45.6740 C   0  0  0  0  0  3  0  0  0  0  0  0
   28.6710   30.1750   45.8720 H   0  0  0  0  0  0  0  0  0  0  0  0
   30.2280   28.9320   46.5610 C   0  0  0  0  0  2  0  0  0  0  0  0
   31.3970   28.1990   45.9700 C   0  0  0  0  0  2  0  0  0  0  0  0
  1  6  2  0  0  0  0
  1  2  1  0  0  0  0
  2  3  2  0  0  0  0
  3  4  1  0  0  0  0
  3  8  1  0  0  0  0
  4  9  1  0  0  0  0
  5 10  1  0  0  0  0
  5  4  2  0  0  0  0
  6  5  1  0  0  0  0
  7  2  1  0  0  0  0
 11 12  1  0  0  0  0
 11 17  1  0  0  0  0
 12  1  1  0  0  0  0
 13 18  1  0  0  0  0
 13 12  2  0  0  0  0
 14 13  1  0  0  0  0
 15 14  2  0  0  0  0
 15 16  1  0  0  0  0
 16 11  2  0  0  0  0
 19 15  1  0  0  0  0
 20 22  1  0  0  0  0
 20 21  2  0  0  0  0
 22  6  1  0  0  0  0
 23 22  1  0  0  0  0
 24 20  1  0  0  0  0
 25 24  1  0  0  0  0
 26 25  2  0  0  0  0
 27 25  1  0  0  0  0
 27 33  1  0  0  0  0
 28 29  1  0  0  0  0
 28 27  1  0  0  0  0
 29 30  1  0  0  0  0
 30 31  1  0  0  0  0
 30 32  1  0  0  0  0
 33 32  1  0  0  0  0
M  END
>  <minimizedAffinity>
-5.48766708

>  <minimizedRMSD>
0.485216141

$$$$
