
 OpenBabel03272500573D

 33 35  0  0  0  0  0  0  0  0999 V2000
   38.0580   31.9040   47.4240 C   0  0  0  0  0  0  0  0  0  0  0  0
   38.4840   32.8520   48.3110 C   0  0  0  0  0  0  0  0  0  0  0  0
   37.9640   32.9260   49.6010 C   0  0  0  0  0  0  0  0  0  0  0  0
   36.9520   31.9650   49.9770 C   0  0  0  0  0  0  0  0  0  0  0  0
   36.5700   31.0450   49.0460 C   0  0  0  0  0  0  0  0  0  0  0  0
   37.0730   30.9800   47.8060 C   0  0  0  0  0  0  0  0  0  0  0  0
   39.2520   33.5930   48.0530 H   0  0  0  0  0  0  0  0  0  0  0  0
   38.3410   33.7050   50.2690 H   0  0  0  0  0  0  0  0  0  0  0  0
   36.6580   32.1490   50.9800 H   0  0  0  0  0  0  0  0  0  0  0  0
   35.8440   30.4310   49.5530 H   0  0  0  0  0  0  0  0  0  0  0  0
   39.9880   31.2980   46.0400 C   0  0  0  0  0  0  0  0  0  0  0  0
   38.7090   31.9280   46.1300 C   0  0  0  0  0  0  0  0  0  0  0  0
   38.2450   32.4840   44.9650 C   0  0  0  0  0  0  0  0  0  0  0  0
   38.9690   32.4200   43.8350 N   0  0  0  0  0  0  0  0  0  0  0  0
   40.1540   31.8330   43.7620 C   0  0  0  0  0  0  0  0  0  0  0  0
   40.6570   31.2730   44.8710 N   0  0  0  0  0  0  0  0  0  0  0  0
   40.4650   30.8230   46.8890 H   0  0  0  0  0  0  0  0  0  0  0  0
   37.2790   32.9590   45.0360 H   0  0  0  0  0  0  0  0  0  0  0  0
   40.7690   31.7590   42.8730 H   0  0  0  0  0  0  0  0  0  0  0  0
   35.1380   29.9440   46.9420 C   0  0  0  0  0  0  0  0  0  0  0  0
   34.5030   30.5990   47.8280 O   0  0  0  0  0  0  0  0  0  0  0  0
   36.6190   30.0500   46.9020 N   0  0  0  0  0  0  0  0  0  0  0  0
   37.1430   29.4650   46.2530 H   0  0  0  0  0  0  0  0  0  0  0  0
   34.5270   29.1040   45.9600 O   0  0  0  0  0  0  0  0  0  0  0  0
   33.3200   29.5020   45.4180 C   0  0  0  0  0  0  0  0  0  0  0  0
   33.3370   30.6430   44.8930 O   0  0  0  0  0  0  0  0  0  0  0  0
   31.9990   28.9310   45.3020 N   0  0  0  0  0  0  0  0  0  0  0  0
   31.3300   28.6820   44.0460 C   0  0  0  0  0  2  0  0  0  0  0  0
   29.9460   29.2440   43.9930 C   0  0  0  0  0  2  0  0  0  0  0  0
   29.5660   30.0330   45.2130 C   0  0  0  0  0  3  0  0  0  0  0  0
   28.4700   30.2040   45.2320 H   0  0  0  0  0  0  0  0  0  0  0  0
   29.9370   29.3990   46.5130 C   0  0  0  0  0  2  0  0  0  0  0  0
   31.1540   28.5290   46.3870 C   0  0  0  0  0  2  0  0  0  0  0  0
  1  6  2  0  0  0  0
  1  2  1  0  0  0  0
  2  3  2  0  0  0  0
  3  4  1  0  0  0  0
  3  8  1  0  0  0  0
  4  9  1  0  0  0  0
  5 10  1  0  0  0  0
  5  4  2  0  0  0  0
  6  5  1  0  0  0  0
  7  2  1  0  0  0  0
 11 12  1  0  0  0  0
 11 17  1  0  0  0  0
 12  1  1  0  0  0  0
 13 18  1  0  0  0  0
 13 12  2  0  0  0  0
 14 13  1  0  0  0  0
 15 14  2  0  0  0  0
 15 16  1  0  0  0  0
 16 11  2  0  0  0  0
 19 15  1  0  0  0  0
 20 21  2  0  0  0  0
 22 20  1  0  0  0  0
 22  6  1  0  0  0  0
 23 22  1  0  0  0  0
 24 20  1  0  0  0  0
 25 24  1  0  0  0  0
 26 25  2  0  0  0  0
 27 25  1  0  0  0  0
 27 33  1  0  0  0  0
 28 27  1  0  0  0  0
 29 28  1  0  0  0  0
 29 30  1  0  0  0  0
 30 31  1  0  0  0  0
 30 32  1  0  0  0  0
 33 32  1  0  0  0  0
M  END
>  <minimizedAffinity>
-5.59761238

>  <minimizedRMSD>
0.401463389

$$$$
