
 OpenBabel03272503243D

 30 32  0  0  1  0  0  0  0  0999 V2000
   36.2980   29.8820   49.3660 N   0  0  0  0  0  0  0  0  0  0  0  0
   36.6740   31.2860   49.4170 C   0  0  1  0  0  0  0  0  0  0  0  0
   37.3940   31.3270   50.7570 C   0  0  0  0  0  0  0  0  0  0  0  0
   37.2740   29.9530   51.3870 C   0  0  0  0  0  0  0  0  0  0  0  0
   37.1910   29.0890   50.1660 C   0  0  0  0  0  0  0  0  0  0  0  0
   35.7640   31.9200   49.4320 H   0  0  0  0  0  0  0  0  0  0  0  0
   38.4200   31.6960   50.6820 H   0  0  0  0  0  0  0  0  0  0  0  0
   36.8200   32.0330   51.4230 H   0  0  0  0  0  0  0  0  0  0  0  0
   38.2810   29.7460   51.8420 H   0  0  0  0  0  0  0  0  0  0  0  0
   36.4330   29.8420   52.0630 H   0  0  0  0  0  0  0  0  0  0  0  0
   38.1300   28.8080   49.7160 H   0  0  0  0  0  0  0  0  0  0  0  0
   36.6800   28.1380   50.4740 H   0  0  0  0  0  0  0  0  0  0  0  0
   35.1940   29.3700   48.6300 C   0  0  0  0  0  0  0  0  0  0  0  0
   34.5440   30.2370   47.7390 C   0  0  0  0  0  0  0  0  0  0  0  0
   33.4550   29.7770   46.9950 C   0  0  0  0  0  0  0  0  0  0  0  0
   33.0870   28.4670   47.1950 N   0  0  0  0  0  0  0  0  0  0  0  0
   33.7320   27.6550   48.0610 C   0  0  0  0  0  0  0  0  0  0  0  0
   34.7890   28.1060   48.7810 N   0  0  0  0  0  0  0  0  0  0  0  0
   34.8130   31.2670   47.5630 H   0  0  0  0  0  0  0  0  0  0  0  0
   32.9420   30.4190   46.3070 H   0  0  0  0  0  0  0  0  0  0  0  0
   33.3650   26.6430   48.1450 H   0  0  0  0  0  0  0  0  0  0  0  0
   37.5480   31.6900   48.3090 C   0  0  0  0  0  0  0  0  0  0  0  0
   38.1910   32.7130   48.4630 O   0  0  0  0  0  0  0  0  0  0  0  0
   38.0280   31.3990   47.0030 N   0  0  0  0  0  0  0  0  0  0  0  0
   39.4500   31.5260   46.7780 C   0  0  0  0  0  0  0  0  0  0  0  0
   39.7760   32.6860   45.8620 C   0  0  0  0  0  0  0  0  0  0  0  0
   38.8120   32.6740   44.6950 C   0  0  0  0  0  0  0  0  0  0  0  0
   39.4230   32.7880   43.7850 H   0  0  0  0  0  0  0  0  0  0  0  0
   38.1120   31.3380   44.5700 C   0  0  0  0  0  0  0  0  0  0  0  0
   37.3000   30.9770   45.7960 C   0  0  0  0  0  0  0  0  0  0  0  0
  1  2  1  0  0  0  0
  1  5  1  0  0  0  0
  2  6  1  1  0  0  0
  2  3  1  0  0  0  0
  3  4  1  0  0  0  0
  3  8  1  0  0  0  0
  4  9  1  0  0  0  0
  4 10  1  0  0  0  0
  5 12  1  0  0  0  0
  5  4  1  0  0  0  0
  7  3  1  0  0  0  0
 11  5  1  0  0  0  0
 13 18  1  0  0  0  0
 13  1  1  0  0  0  0
 14 13  2  0  0  0  0
 15 16  2  0  0  0  0
 15 14  1  0  0  0  0
 16 17  1  0  0  0  0
 17 21  1  0  0  0  0
 17 18  2  0  0  0  0
 19 14  1  0  0  0  0
 20 15  1  0  0  0  0
 22 23  2  0  0  0  0
 22  2  1  0  0  0  0
 24 22  1  0  0  0  0
 25 24  1  0  0  0  0
 26 25  1  0  0  0  0
 27 26  1  0  0  0  0
 28 27  1  0  0  0  0
 29 27  1  0  0  0  0
 29 30  1  0  0  0  0
 30 24  1  0  0  0  0
M  END
>  <minimizedAffinity>
-5.79193592

>  <minimizedRMSD>
1.45103025

$$$$
