
 OpenBabel03272500573D

 33 35  0  0  0  0  0  0  0  0999 V2000
   38.0800   31.9100   47.4180 C   0  0  0  0  0  0  0  0  0  0  0  0
   38.4960   32.8670   48.3010 C   0  0  0  0  0  0  0  0  0  0  0  0
   37.9730   32.9410   49.5900 C   0  0  0  0  0  0  0  0  0  0  0  0
   36.9700   31.9730   49.9690 C   0  0  0  0  0  0  0  0  0  0  0  0
   36.5980   31.0450   49.0410 C   0  0  0  0  0  0  0  0  0  0  0  0
   37.1040   30.9790   47.8020 C   0  0  0  0  0  0  0  0  0  0  0  0
   39.2580   33.6140   48.0410 H   0  0  0  0  0  0  0  0  0  0  0  0
   38.3420   33.7270   50.2550 H   0  0  0  0  0  0  0  0  0  0  0  0
   36.6730   32.1590   50.9710 H   0  0  0  0  0  0  0  0  0  0  0  0
   35.8770   30.4260   49.5500 H   0  0  0  0  0  0  0  0  0  0  0  0
   40.0060   31.2920   46.0330 C   0  0  0  0  0  0  0  0  0  0  0  0
   38.7330   31.9350   46.1240 C   0  0  0  0  0  0  0  0  0  0  0  0
   38.2770   32.5020   44.9620 C   0  0  0  0  0  0  0  0  0  0  0  0
   39.0010   32.4370   43.8330 N   0  0  0  0  0  0  0  0  0  0  0  0
   40.1800   31.8370   43.7580 C   0  0  0  0  0  0  0  0  0  0  0  0
   40.6760   31.2670   44.8640 N   0  0  0  0  0  0  0  0  0  0  0  0
   40.4770   30.8080   46.8790 H   0  0  0  0  0  0  0  0  0  0  0  0
   37.3150   32.9860   45.0350 H   0  0  0  0  0  0  0  0  0  0  0  0
   40.7960   31.7620   42.8690 H   0  0  0  0  0  0  0  0  0  0  0  0
   35.1780   29.9400   46.9210 C   0  0  0  0  0  0  0  0  0  0  0  0
   34.5330   30.6060   47.7910 O   0  0  0  0  0  0  0  0  0  0  0  0
   36.6600   30.0410   46.9020 N   0  0  0  0  0  0  0  0  0  0  0  0
   37.1920   29.4470   46.2670 H   0  0  0  0  0  0  0  0  0  0  0  0
   34.5790   29.0910   45.9400 O   0  0  0  0  0  0  0  0  0  0  0  0
   33.4530   29.5460   45.2800 C   0  0  0  0  0  0  0  0  0  0  0  0
   33.6000   30.6530   44.7050 O   0  0  0  0  0  0  0  0  0  0  0  0
   32.1060   29.0680   45.0810 N   0  0  0  0  0  0  0  0  0  0  0  0
   31.4140   29.0930   43.8130 C   0  0  0  0  0  2  0  0  0  0  0  0
   30.0590   29.7160   43.8920 C   0  0  0  0  0  2  0  0  0  0  0  0
   29.7280   30.2740   45.2460 C   0  0  0  0  0  3  0  0  0  0  0  0
   28.6410   30.4870   45.3180 H   0  0  0  0  0  0  0  0  0  0  0  0
   30.0800   29.3880   46.3960 C   0  0  0  0  0  2  0  0  0  0  0  0
   31.2520   28.5050   46.0850 C   0  0  0  0  0  2  0  0  0  0  0  0
  1  6  2  0  0  0  0
  1  2  1  0  0  0  0
  2  3  2  0  0  0  0
  3  4  1  0  0  0  0
  3  8  1  0  0  0  0
  4  9  1  0  0  0  0
  5 10  1  0  0  0  0
  5  4  2  0  0  0  0
  6  5  1  0  0  0  0
  7  2  1  0  0  0  0
 11 12  1  0  0  0  0
 11 17  1  0  0  0  0
 12  1  1  0  0  0  0
 13 18  1  0  0  0  0
 13 12  2  0  0  0  0
 14 13  1  0  0  0  0
 15 14  2  0  0  0  0
 15 16  1  0  0  0  0
 16 11  2  0  0  0  0
 19 15  1  0  0  0  0
 20 21  2  0  0  0  0
 22 20  1  0  0  0  0
 22  6  1  0  0  0  0
 23 22  1  0  0  0  0
 24 20  1  0  0  0  0
 25 24  1  0  0  0  0
 26 25  2  0  0  0  0
 27 25  1  0  0  0  0
 27 33  1  0  0  0  0
 28 29  1  0  0  0  0
 28 27  1  0  0  0  0
 29 30  1  0  0  0  0
 30 31  1  0  0  0  0
 30 32  1  0  0  0  0
 33 32  1  0  0  0  0
M  END
>  <minimizedAffinity>
-5.54125881

>  <minimizedRMSD>
0.442111433

$$$$
