
 OpenBabel03272500573D

 33 35  0  0  0  0  0  0  0  0999 V2000
   38.0650   31.9010   47.4240 C   0  0  0  0  0  0  0  0  0  0  0  0
   38.4880   32.8410   48.3220 C   0  0  0  0  0  0  0  0  0  0  0  0
   37.9600   32.9060   49.6090 C   0  0  0  0  0  0  0  0  0  0  0  0
   36.9430   31.9450   49.9710 C   0  0  0  0  0  0  0  0  0  0  0  0
   36.5640   31.0340   49.0300 C   0  0  0  0  0  0  0  0  0  0  0  0
   37.0750   30.9770   47.7920 C   0  0  0  0  0  0  0  0  0  0  0  0
   39.2600   33.5820   48.0740 H   0  0  0  0  0  0  0  0  0  0  0  0
   38.3350   33.6790   50.2850 H   0  0  0  0  0  0  0  0  0  0  0  0
   36.6430   32.1220   50.9730 H   0  0  0  0  0  0  0  0  0  0  0  0
   35.8330   30.4170   49.5270 H   0  0  0  0  0  0  0  0  0  0  0  0
   39.9980   31.2910   46.0450 C   0  0  0  0  0  0  0  0  0  0  0  0
   38.7250   31.9340   46.1350 C   0  0  0  0  0  0  0  0  0  0  0  0
   38.2740   32.5080   44.9730 C   0  0  0  0  0  0  0  0  0  0  0  0
   39.0050   32.4510   43.8480 N   0  0  0  0  0  0  0  0  0  0  0  0
   40.1840   31.8510   43.7750 C   0  0  0  0  0  0  0  0  0  0  0  0
   40.6740   31.2730   44.8800 N   0  0  0  0  0  0  0  0  0  0  0  0
   40.4640   30.8010   46.8910 H   0  0  0  0  0  0  0  0  0  0  0  0
   37.3130   32.9930   45.0450 H   0  0  0  0  0  0  0  0  0  0  0  0
   40.8040   31.7820   42.8890 H   0  0  0  0  0  0  0  0  0  0  0  0
   35.1430   29.9470   46.9130 C   0  0  0  0  0  0  0  0  0  0  0  0
   34.5060   30.5920   47.8040 O   0  0  0  0  0  0  0  0  0  0  0  0
   36.6250   30.0560   46.8790 N   0  0  0  0  0  0  0  0  0  0  0  0
   37.1520   29.4780   46.2250 H   0  0  0  0  0  0  0  0  0  0  0  0
   34.5360   29.1160   45.9220 O   0  0  0  0  0  0  0  0  0  0  0  0
   33.2620   29.4340   45.4920 C   0  0  0  0  0  0  0  0  0  0  0  0
   33.1570   30.5750   44.9770 O   0  0  0  0  0  0  0  0  0  0  0  0
   31.9770   28.7780   45.4880 N   0  0  0  0  0  0  0  0  0  0  0  0
   31.3580   28.2090   44.3120 C   0  0  0  0  0  2  0  0  0  0  0  0
   29.9490   28.6650   44.1080 C   0  0  0  0  0  2  0  0  0  0  0  0
   29.4930   29.6880   45.1090 C   0  0  0  0  0  3  0  0  0  0  0  0
   28.3900   29.7950   45.0720 H   0  0  0  0  0  0  0  0  0  0  0  0
   29.8600   29.3900   46.5270 C   0  0  0  0  0  2  0  0  0  0  0  0
   31.1230   28.5850   46.6230 C   0  0  0  0  0  2  0  0  0  0  0  0
  1  6  2  0  0  0  0
  1  2  1  0  0  0  0
  2  3  2  0  0  0  0
  3  4  1  0  0  0  0
  3  8  1  0  0  0  0
  4  9  1  0  0  0  0
  5 10  1  0  0  0  0
  5  4  2  0  0  0  0
  6  5  1  0  0  0  0
  7  2  1  0  0  0  0
 11 12  1  0  0  0  0
 11 17  1  0  0  0  0
 12  1  1  0  0  0  0
 13 18  1  0  0  0  0
 13 12  2  0  0  0  0
 14 13  1  0  0  0  0
 15 14  2  0  0  0  0
 15 16  1  0  0  0  0
 16 11  2  0  0  0  0
 19 15  1  0  0  0  0
 20 21  2  0  0  0  0
 22 20  1  0  0  0  0
 22  6  1  0  0  0  0
 23 22  1  0  0  0  0
 24 20  1  0  0  0  0
 25 24  1  0  0  0  0
 26 25  2  0  0  0  0
 27 25  1  0  0  0  0
 27 33  1  0  0  0  0
 28 27  1  0  0  0  0
 29 28  1  0  0  0  0
 29 30  1  0  0  0  0
 30 32  1  0  0  0  0
 31 30  1  0  0  0  0
 32 33  1  0  0  0  0
M  END
>  <minimizedAffinity>
-5.59300661

>  <minimizedRMSD>
0.464442432

$$$$
