
 OpenBabel03272500573D

 33 35  0  0  0  0  0  0  0  0999 V2000
   38.0100   31.8460   47.4590 C   0  0  0  0  0  0  0  0  0  0  0  0
   38.4910   32.7460   48.3680 C   0  0  0  0  0  0  0  0  0  0  0  0
   37.9930   32.8010   49.6680 C   0  0  0  0  0  0  0  0  0  0  0  0
   36.9450   31.8750   50.0300 C   0  0  0  0  0  0  0  0  0  0  0  0
   36.5080   31.0030   49.0770 C   0  0  0  0  0  0  0  0  0  0  0  0
   36.9900   30.9550   47.8270 C   0  0  0  0  0  0  0  0  0  0  0  0
   39.2870   33.4600   48.1210 H   0  0  0  0  0  0  0  0  0  0  0  0
   38.4150   33.5420   50.3540 H   0  0  0  0  0  0  0  0  0  0  0  0
   36.6750   32.0400   51.0430 H   0  0  0  0  0  0  0  0  0  0  0  0
   35.7630   30.4060   49.5760 H   0  0  0  0  0  0  0  0  0  0  0  0
   39.9000   31.2150   46.0310 C   0  0  0  0  0  0  0  0  0  0  0  0
   38.6430   31.8830   46.1560 C   0  0  0  0  0  0  0  0  0  0  0  0
   38.1800   32.4820   45.0120 C   0  0  0  0  0  0  0  0  0  0  0  0
   38.8850   32.4240   43.8700 N   0  0  0  0  0  0  0  0  0  0  0  0
   40.0490   31.8020   43.7650 C   0  0  0  0  0  0  0  0  0  0  0  0
   40.5500   31.1990   44.8520 N   0  0  0  0  0  0  0  0  0  0  0  0
   40.3730   30.7040   46.8600 H   0  0  0  0  0  0  0  0  0  0  0  0
   37.2300   32.9850   45.1100 H   0  0  0  0  0  0  0  0  0  0  0  0
   40.6490   31.7310   42.8640 H   0  0  0  0  0  0  0  0  0  0  0  0
   35.0040   29.9790   47.0120 C   0  0  0  0  0  0  0  0  0  0  0  0
   34.4210   30.5920   47.9610 O   0  0  0  0  0  0  0  0  0  0  0  0
   36.4820   30.0760   46.9030 N   0  0  0  0  0  0  0  0  0  0  0  0
   36.9670   29.5200   46.1990 H   0  0  0  0  0  0  0  0  0  0  0  0
   34.3360   29.1940   46.0220 O   0  0  0  0  0  0  0  0  0  0  0  0
   32.9560   29.2370   45.9740 C   0  0  0  0  0  0  0  0  0  0  0  0
   32.4850   30.3030   45.5050 O   0  0  0  0  0  0  0  0  0  0  0  0
   31.8790   28.3490   46.3430 N   0  0  0  0  0  0  0  0  0  0  0  0
   30.5770   28.7950   46.7850 C   0  0  0  0  0  2  0  0  0  0  0  0
   30.1370   28.1550   48.0620 C   0  0  0  0  0  2  0  0  0  0  0  0
   31.1700   27.2560   48.6760 C   0  0  0  0  0  3  0  0  0  0  0  0
   30.7090   26.6230   49.4630 H   0  0  0  0  0  0  0  0  0  0  0  0
   31.8560   26.3370   47.7170 C   0  0  0  0  0  2  0  0  0  0  0  0
   31.9220   26.9170   46.3350 C   0  0  0  0  0  2  0  0  0  0  0  0
  1  6  2  0  0  0  0
  1  2  1  0  0  0  0
  2  3  2  0  0  0  0
  3  4  1  0  0  0  0
  3  8  1  0  0  0  0
  4  9  1  0  0  0  0
  5 10  1  0  0  0  0
  5  4  2  0  0  0  0
  6  5  1  0  0  0  0
  7  2  1  0  0  0  0
 11 12  1  0  0  0  0
 11 17  1  0  0  0  0
 12  1  1  0  0  0  0
 13 18  1  0  0  0  0
 13 12  2  0  0  0  0
 14 13  1  0  0  0  0
 15 14  2  0  0  0  0
 15 16  1  0  0  0  0
 16 11  2  0  0  0  0
 19 15  1  0  0  0  0
 20 21  2  0  0  0  0
 22 20  1  0  0  0  0
 22  6  1  0  0  0  0
 23 22  1  0  0  0  0
 24 20  1  0  0  0  0
 25 24  1  0  0  0  0
 25 27  1  0  0  0  0
 26 25  2  0  0  0  0
 27 28  1  0  0  0  0
 28 29  1  0  0  0  0
 29 30  1  0  0  0  0
 30 31  1  0  0  0  0
 32 30  1  0  0  0  0
 33 27  1  0  0  0  0
 33 32  1  0  0  0  0
M  END
>  <minimizedAffinity>
-6.0260148

>  <minimizedRMSD>
1.06683183

$$$$
