
 OpenBabel03272500573D

 33 35  0  0  0  0  0  0  0  0999 V2000
   38.0820   31.9130   47.4260 C   0  0  0  0  0  0  0  0  0  0  0  0
   38.5170   32.8640   48.3070 C   0  0  0  0  0  0  0  0  0  0  0  0
   38.0060   32.9440   49.6010 C   0  0  0  0  0  0  0  0  0  0  0  0
   36.9940   31.9870   49.9870 C   0  0  0  0  0  0  0  0  0  0  0  0
   36.6020   31.0650   49.0620 C   0  0  0  0  0  0  0  0  0  0  0  0
   37.0970   30.9940   47.8180 C   0  0  0  0  0  0  0  0  0  0  0  0
   39.2850   33.6020   48.0410 H   0  0  0  0  0  0  0  0  0  0  0  0
   38.3900   33.7250   50.2630 H   0  0  0  0  0  0  0  0  0  0  0  0
   36.7080   32.1760   50.9910 H   0  0  0  0  0  0  0  0  0  0  0  0
   35.8780   30.4540   49.5760 H   0  0  0  0  0  0  0  0  0  0  0  0
   39.9970   31.2900   46.0300 C   0  0  0  0  0  0  0  0  0  0  0  0
   38.7240   31.9310   46.1280 C   0  0  0  0  0  0  0  0  0  0  0  0
   38.2570   32.4900   44.9650 C   0  0  0  0  0  0  0  0  0  0  0  0
   38.9720   32.4190   43.8310 N   0  0  0  0  0  0  0  0  0  0  0  0
   40.1520   31.8210   43.7500 C   0  0  0  0  0  0  0  0  0  0  0  0
   40.6580   31.2590   44.8560 N   0  0  0  0  0  0  0  0  0  0  0  0
   40.4760   30.8120   46.8750 H   0  0  0  0  0  0  0  0  0  0  0  0
   37.2950   32.9730   45.0430 H   0  0  0  0  0  0  0  0  0  0  0  0
   40.7600   31.7420   42.8560 H   0  0  0  0  0  0  0  0  0  0  0  0
   35.1530   29.9660   46.9660 C   0  0  0  0  0  0  0  0  0  0  0  0
   34.5250   30.6300   47.8500 O   0  0  0  0  0  0  0  0  0  0  0  0
   36.6350   30.0620   46.9220 N   0  0  0  0  0  0  0  0  0  0  0  0
   37.1530   29.4690   46.2740 H   0  0  0  0  0  0  0  0  0  0  0  0
   34.5340   29.1240   45.9910 O   0  0  0  0  0  0  0  0  0  0  0  0
   33.3620   29.5580   45.4010 C   0  0  0  0  0  0  0  0  0  0  0  0
   33.4770   30.6130   44.7300 O   0  0  0  0  0  0  0  0  0  0  0  0
   31.9920   29.1030   45.3620 N   0  0  0  0  0  0  0  0  0  0  0  0
   30.8670   29.8740   45.8420 C   0  0  0  0  0  2  0  0  0  0  0  0
   29.9890   29.1140   46.7820 C   0  0  0  0  0  2  0  0  0  0  0  0
   30.5000   27.7410   47.1110 C   0  0  0  0  0  3  0  0  0  0  0  0
   29.7010   27.1400   47.5930 H   0  0  0  0  0  0  0  0  0  0  0  0
   30.9960   26.9560   45.9410 C   0  0  0  0  0  2  0  0  0  0  0  0
   31.5330   27.8440   44.8560 C   0  0  0  0  0  2  0  0  0  0  0  0
  1  6  2  0  0  0  0
  1  2  1  0  0  0  0
  2  3  2  0  0  0  0
  3  4  1  0  0  0  0
  3  8  1  0  0  0  0
  4  9  1  0  0  0  0
  5 10  1  0  0  0  0
  5  4  2  0  0  0  0
  6  5  1  0  0  0  0
  7  2  1  0  0  0  0
 11 12  1  0  0  0  0
 11 17  1  0  0  0  0
 12  1  1  0  0  0  0
 13 18  1  0  0  0  0
 13 12  2  0  0  0  0
 14 13  1  0  0  0  0
 15 14  2  0  0  0  0
 15 16  1  0  0  0  0
 16 11  2  0  0  0  0
 19 15  1  0  0  0  0
 20 21  2  0  0  0  0
 22 20  1  0  0  0  0
 22  6  1  0  0  0  0
 23 22  1  0  0  0  0
 24 20  1  0  0  0  0
 25 24  1  0  0  0  0
 26 25  2  0  0  0  0
 27 25  1  0  0  0  0
 27 28  1  0  0  0  0
 28 29  1  0  0  0  0
 29 30  1  0  0  0  0
 30 31  1  0  0  0  0
 32 30  1  0  0  0  0
 33 27  1  0  0  0  0
 33 32  1  0  0  0  0
M  END
>  <minimizedAffinity>
-5.6902771

>  <minimizedRMSD>
0.314564288

$$$$
