
 OpenBabel03272507303D

 27 29  0  0  0  0  0  0  0  0999 V2000
   35.7990   29.1560   49.8600 C   0  0  0  0  0  0  0  0  0  0  0  0
   34.8980   29.6760   50.7270 C   0  0  0  0  0  0  0  0  0  0  0  0
   33.6310   29.2230   50.3510 C   0  0  0  0  0  0  0  0  0  0  0  0
   33.8530   28.4230   49.2330 C   0  0  0  0  0  0  0  0  0  0  0  0
   35.1260   28.4380   49.0180 O   0  0  0  0  0  0  0  0  0  0  0  0
   35.0830   30.3400   51.5870 H   0  0  0  0  0  0  0  0  0  0  0  0
   32.6680   29.4200   50.7950 H   0  0  0  0  0  0  0  0  0  0  0  0
   32.8000   27.7240   48.4860 C   0  0  0  0  0  0  0  0  0  0  0  0
   31.6000   27.8040   48.8710 O   0  0  0  0  0  0  0  0  0  0  0  0
   33.1360   26.9630   47.3360 N   0  0  0  0  0  0  0  0  0  0  0  0
   34.0120   25.8210   47.1910 C   0  0  0  0  0  2  0  0  0  0  0  0
   33.7100   24.9720   46.0140 C   0  0  0  0  0  2  0  0  0  0  0  0
   32.2920   24.9510   45.5740 C   0  0  0  0  0  3  0  0  0  0  0  0
   32.3170   24.7980   44.4540 H   0  0  0  0  0  0  0  0  0  0  0  0
   31.5260   26.2260   45.8020 C   0  0  0  0  0  2  0  0  0  0  0  0
   32.5530   27.3130   46.0540 C   0  0  0  0  0  2  0  0  0  0  0  0
   37.2170   29.4190   49.9520 C   0  0  0  0  0  0  0  0  0  0  0  0
   37.9030   28.7090   50.7230 O   0  0  0  0  0  0  0  0  0  0  0  0
   37.7540   30.4890   49.1460 C   0  0  0  0  0  0  0  0  0  0  0  0
   38.1120   31.6590   49.8060 C   0  0  0  0  0  0  0  0  0  0  0  0
   38.6340   32.7050   49.0490 C   0  0  0  0  0  0  0  0  0  0  0  0
   38.7650   32.5230   47.6970 N   0  0  0  0  0  0  0  0  0  0  0  0
   38.4090   31.3760   47.0820 C   0  0  0  0  0  0  0  0  0  0  0  0
   37.9080   30.3690   47.8060 N   0  0  0  0  0  0  0  0  0  0  0  0
   38.0050   31.7880   50.8640 H   0  0  0  0  0  0  0  0  0  0  0  0
   38.9230   33.6310   49.5290 H   0  0  0  0  0  0  0  0  0  0  0  0
   38.5600   31.3580   46.0220 H   0  0  0  0  0  0  0  0  0  0  0  0
  1 17  1  0  0  0  0
  1  2  2  0  0  0  0
  2  6  1  0  0  0  0
  3  2  1  0  0  0  0
  3  7  1  0  0  0  0
  4  3  2  0  0  0  0
  5  4  1  0  0  0  0
  5  1  1  0  0  0  0
  8  9  2  0  0  0  0
  8  4  1  0  0  0  0
 10  8  1  0  0  0  0
 11 10  1  0  0  0  0
 12 11  1  0  0  0  0
 13 15  1  0  0  0  0
 13 12  1  0  0  0  0
 14 13  1  0  0  0  0
 15 16  1  0  0  0  0
 16 10  1  0  0  0  0
 17 18  2  0  0  0  0
 19 20  1  0  0  0  0
 19 17  1  0  0  0  0
 20 25  1  0  0  0  0
 21 26  1  0  0  0  0
 21 20  2  0  0  0  0
 22 21  1  0  0  0  0
 23 22  2  0  0  0  0
 23 24  1  0  0  0  0
 24 19  2  0  0  0  0
 27 23  1  0  0  0  0
M  END
>  <minimizedAffinity>
-5.13891315

>  <minimizedRMSD>
1.50986469

$$$$
