
 OpenBabel03272507303D

 27 29  0  0  0  0  0  0  0  0999 V2000
   35.9070   29.2590   49.7260 C   0  0  0  0  0  0  0  0  0  0  0  0
   34.8770   29.7500   50.4550 C   0  0  0  0  0  0  0  0  0  0  0  0
   33.7000   29.1640   49.9830 C   0  0  0  0  0  0  0  0  0  0  0  0
   34.1080   28.3190   48.9550 C   0  0  0  0  0  0  0  0  0  0  0  0
   35.3910   28.4320   48.8730 O   0  0  0  0  0  0  0  0  0  0  0  0
   34.9120   30.4800   51.2800 H   0  0  0  0  0  0  0  0  0  0  0  0
   32.6820   29.3030   50.3090 H   0  0  0  0  0  0  0  0  0  0  0  0
   33.2030   27.4840   48.1550 C   0  0  0  0  0  0  0  0  0  0  0  0
   32.0170   27.2920   48.5450 O   0  0  0  0  0  0  0  0  0  0  0  0
   33.6660   26.8960   46.9480 N   0  0  0  0  0  0  0  0  0  0  0  0
   34.0310   25.5270   46.6520 C   0  0  0  0  0  0  0  0  0  0  0  0
   33.9390   25.1730   45.2160 C   0  0  0  0  0  0  0  0  0  0  0  0
   32.9250   25.9180   44.4260 C   0  0  0  0  0  0  0  0  0  0  0  0
   33.3420   25.9950   43.3790 H   0  0  0  0  0  0  0  0  0  0  0  0
   32.6680   27.3310   44.8750 C   0  0  0  0  0  0  0  0  0  0  0  0
   33.8290   27.7240   45.7670 C   0  0  0  0  0  0  0  0  0  0  0  0
   37.2800   29.6510   49.9470 C   0  0  0  0  0  0  0  0  0  0  0  0
   37.9120   29.1020   50.8790 O   0  0  0  0  0  0  0  0  0  0  0  0
   37.8390   30.6550   49.0740 C   0  0  0  0  0  0  0  0  0  0  0  0
   38.1750   31.8760   49.6470 C   0  0  0  0  0  0  0  0  0  0  0  0
   38.7160   32.8610   48.8250 C   0  0  0  0  0  0  0  0  0  0  0  0
   38.8870   32.5710   47.4960 N   0  0  0  0  0  0  0  0  0  0  0  0
   38.5520   31.3770   46.9650 C   0  0  0  0  0  0  0  0  0  0  0  0
   38.0320   30.4290   47.7520 N   0  0  0  0  0  0  0  0  0  0  0  0
   38.0360   32.0890   50.6890 H   0  0  0  0  0  0  0  0  0  0  0  0
   38.9890   33.8230   49.2370 H   0  0  0  0  0  0  0  0  0  0  0  0
   38.7350   31.2750   45.9140 H   0  0  0  0  0  0  0  0  0  0  0  0
  1 17  1  0  0  0  0
  1  2  2  0  0  0  0
  2  6  1  0  0  0  0
  3  7  1  0  0  0  0
  3  2  1  0  0  0  0
  4  3  2  0  0  0  0
  5  4  1  0  0  0  0
  5  1  1  0  0  0  0
  8  9  2  0  0  0  0
  8  4  1  0  0  0  0
 10  8  1  0  0  0  0
 11 10  1  0  0  0  0
 12 11  1  0  0  0  0
 13 15  1  0  0  0  0
 13 12  1  0  0  0  0
 14 13  1  0  0  0  0
 15 16  1  0  0  0  0
 16 10  1  0  0  0  0
 17 18  2  0  0  0  0
 19 20  1  0  0  0  0
 19 17  1  0  0  0  0
 20 25  1  0  0  0  0
 21 26  1  0  0  0  0
 21 20  2  0  0  0  0
 22 21  1  0  0  0  0
 23 22  2  0  0  0  0
 23 24  1  0  0  0  0
 24 19  2  0  0  0  0
 27 23  1  0  0  0  0
M  END
>  <minimizedAffinity>
-5.23853254

>  <minimizedRMSD>
1.13861942

$$$$
