
 OpenBabel03272508423D

 18 19  0  0  0  0  0  0  0  0999 V2000
   37.4490   30.2090   51.3240 C   0  0  0  0  0  0  0  0  0  0  0  0
   38.2380   30.9020   50.3960 C   0  0  0  0  0  0  0  0  0  0  0  0
   37.7380   31.0540   49.1050 C   0  0  0  0  0  0  0  0  0  0  0  0
   36.5150   30.5210   48.8210 N   0  0  0  0  0  0  0  0  0  0  0  0
   35.7870   29.8600   49.7460 C   0  0  0  0  0  0  0  0  0  0  0  0
   36.2440   29.7030   50.9860 N   0  0  0  0  0  0  0  0  0  0  0  0
   37.8490   30.0930   52.3410 H   0  0  0  0  0  0  0  0  0  0  0  0
   39.1930   31.2820   50.7310 H   0  0  0  0  0  0  0  0  0  0  0  0
   38.3340   31.5840   48.3810 H   0  0  0  0  0  0  0  0  0  0  0  0
   34.4860   29.2910   49.4530 C   0  0  0  0  0  0  0  0  0  0  0  0
   33.4850   29.4070   50.2180 O   0  0  0  0  0  0  0  0  0  0  0  0
   34.1250   28.5340   48.3030 N   0  0  0  0  0  0  0  0  0  0  0  0
   33.6220   29.3030   47.1810 C   0  0  0  0  0  2  0  0  0  0  0  0
   32.1990   28.7680   46.9740 C   0  0  0  0  0  2  0  0  0  0  0  0
   32.4000   27.3840   46.4040 C   0  0  0  0  0  3  0  0  0  0  0  0
   31.3960   26.9660   46.1770 H   0  0  0  0  0  0  0  0  0  0  0  0
   33.0590   26.4800   47.4080 C   0  0  0  0  0  2  0  0  0  0  0  0
   34.2040   27.1090   48.1410 C   0  0  0  0  0  2  0  0  0  0  0  0
  1  7  1  0  0  0  0
  2  8  1  0  0  0  0
  2  1  2  0  0  0  0
  3  2  1  0  0  0  0
  4  3  2  0  0  0  0
  4  5  1  0  0  0  0
  5  6  2  0  0  0  0
  6  1  1  0  0  0  0
  9  3  1  0  0  0  0
 10  5  1  0  0  0  0
 10 11  2  0  0  0  0
 12 10  1  0  0  0  0
 13 12  1  0  0  0  0
 14 13  1  0  0  0  0
 15 14  1  0  0  0  0
 15 17  1  0  0  0  0
 16 15  1  0  0  0  0
 17 18  1  0  0  0  0
 18 12  1  0  0  0  0
M  END
>  <minimizedAffinity>
-3.93968344

>  <minimizedRMSD>
1.95764625

$$$$
