
 OpenBabel03272509433D

 36 38  0  0  1  0  0  0  0  0999 V2000
   37.0700   30.9330   49.0650 C   0  0  0  0  0  0  0  0  0  0  0  0
   36.7970   31.8600   50.0710 C   0  0  0  0  0  0  0  0  0  0  0  0
   37.3870   33.1120   50.0950 C   0  0  0  0  0  0  0  0  0  0  0  0
   38.2840   33.4680   49.0860 C   0  0  0  0  0  0  0  0  0  0  0  0
   38.5440   32.5530   48.1060 C   0  0  0  0  0  0  0  0  0  0  0  0
   37.9350   31.3080   48.1160 C   0  0  0  0  0  0  0  0  0  0  0  0
   36.0970   31.6050   50.8740 H   0  0  0  0  0  0  0  0  0  0  0  0
   37.1240   33.7690   50.9040 H   0  0  0  0  0  0  0  0  0  0  0  0
   38.6820   34.4550   49.1940 H   0  0  0  0  0  0  0  0  0  0  0  0
   39.2590   32.9750   47.3980 H   0  0  0  0  0  0  0  0  0  0  0  0
   36.4800   29.6110   49.0590 C   0  0  2  0  0  0  0  0  0  0  0  0
   36.9790   29.0620   48.1700 H   0  0  0  0  0  0  0  0  0  0  0  0
   33.6120   29.9570   46.8560 C   0  0  0  0  0  0  0  0  0  0  0  0
   32.8720   28.8160   47.0820 C   0  0  0  0  0  0  0  0  0  0  0  0
   33.3190   27.9360   48.0480 C   0  0  0  0  0  0  0  0  0  0  0  0
   34.4740   28.2210   48.7440 N   0  0  0  0  0  0  0  0  0  0  0  0
   35.1370   29.3270   48.4780 C   0  0  0  0  0  0  0  0  0  0  0  0
   34.7140   30.2020   47.5380 N   0  0  0  0  0  0  0  0  0  0  0  0
   33.2290   30.6090   46.1030 H   0  0  0  0  0  0  0  0  0  0  0  0
   31.9590   28.5280   46.5760 H   0  0  0  0  0  0  0  0  0  0  0  0
   32.8140   27.0010   48.3180 H   0  0  0  0  0  0  0  0  0  0  0  0
   36.9510   28.8600   49.9890 O   0  0  0  0  0  0  0  0  0  0  0  0
   36.4330   28.4840   50.7150 H   0  0  0  0  0  0  0  0  0  0  0  0
   38.3250   30.4300   47.0390 C   0  0  0  0  0  3  0  0  0  0  0  0
   38.8740   30.8460   45.8930 C   0  0  0  0  0  3  0  0  0  0  0  0
   39.3460   30.0350   44.7460 C   0  0  0  0  0  0  0  0  0  0  0  0
   38.8220   29.0460   44.7040 H   0  0  0  0  0  0  0  0  0  0  0  0
   40.4230   29.7760   44.8650 H   0  0  0  0  0  0  0  0  0  0  0  0
   39.1660   30.9790   43.2280 S   0  0  0  0  0  0  0  0  0  0  0  0
   40.0320   28.7450   39.7210 H   0  0  0  0  0  0  0  0  0  0  0  0
   40.9600   29.1950   39.6800 N   0  0  0  0  0  0  0  0  0  0  0  0
   41.7390   28.8540   40.8540 C   0  0  0  0  0  2  0  0  0  0  0  0
   41.1710   29.4570   42.1260 C   0  0  0  0  0  2  0  0  0  0  0  0
   39.8670   30.1460   41.7810 C   0  0  0  0  0  3  0  0  0  0  0  0
   40.1770   31.2250   40.7570 C   0  0  0  0  0  2  0  0  0  0  0  0
   40.8520   30.6410   39.5470 C   0  0  0  0  0  2  0  0  0  0  0  0
  1  2  1  0  0  0  0
  2  3  2  0  0  0  0
  2  7  1  0  0  0  0
  3  8  1  0  0  0  0
  4  9  1  0  0  0  0
  4  3  1  0  0  0  0
  5  6  1  0  0  0  0
  5  4  2  0  0  0  0
  6  1  2  0  0  0  0
 10  5  1  0  0  0  0
 11 12  1  6  0  0  0
 11  1  1  0  0  0  0
 11 22  1  0  0  0  0
 13 14  2  0  0  0  0
 13 18  1  0  0  0  0
 14 15  1  0  0  0  0
 15 21  1  0  0  0  0
 15 16  2  0  0  0  0
 17 16  1  0  0  0  0
 17 11  1  0  0  0  0
 18 17  2  0  0  0  0
 19 13  1  0  0  0  0
 20 14  1  0  0  0  0
 22 23  1  0  0  0  0
 24  6  1  0  0  0  0
 25 24  2  0  0  0  0
 26 28  1  0  0  0  0
 26 25  1  0  0  0  0
 27 26  1  0  0  0  0
 29 26  1  0  0  0  0
 31 30  1  0  0  0  0
 31 32  1  0  0  0  0
 32 33  1  0  0  0  0
 34 33  1  0  0  0  0
 34 29  1  0  0  0  0
 35 34  1  0  0  0  0
 36 31  1  0  0  0  0
 36 35  1  0  0  0  0
M  END
>  <minimizedAffinity>
-5.82009029

>  <minimizedRMSD>
0.214929432

$$$$
