
 OpenBabel03262522083D

 18 19  0  0  0  0  0  0  0  0999 V2000
   38.1130   31.1670   49.1370 C   0  0  0  0  0  0  0  0  0  0  0  0
   37.1930   30.4110   48.3790 C   0  0  0  0  0  0  0  0  0  0  0  0
   36.4050   29.4970   49.0630 C   0  0  0  0  0  0  0  0  0  0  0  0
   36.5330   29.3570   50.4100 N   0  0  0  0  0  0  0  0  0  0  0  0
   37.4280   30.1020   51.1020 C   0  0  0  0  0  0  0  0  0  0  0  0
   38.2170   31.0020   50.4860 N   0  0  0  0  0  0  0  0  0  0  0  0
   38.7770   31.9080   48.7060 H   0  0  0  0  0  0  0  0  0  0  0  0
   35.6990   28.9170   48.4780 H   0  0  0  0  0  0  0  0  0  0  0  0
   37.3950   29.8610   52.1540 H   0  0  0  0  0  0  0  0  0  0  0  0
   37.1350   30.6400   46.9370 C   0  0  0  0  0  0  0  0  0  0  0  0
   36.0850   30.3210   46.3860 O   0  0  0  0  0  0  0  0  0  0  0  0
   38.1730   31.1900   46.1430 N   0  0  0  0  0  0  0  0  0  0  0  0
   38.5940   30.2670   45.1160 C   0  0  0  0  0  0  0  0  0  0  0  0
   39.4700   30.9200   44.0780 C   0  0  0  0  0  0  0  0  0  0  0  0
   40.6500   31.5920   44.7350 C   0  0  0  0  0  0  0  0  0  0  0  0
   41.1990   32.1900   43.9780 H   0  0  0  0  0  0  0  0  0  0  0  0
   40.2870   32.4280   45.9270 C   0  0  0  0  0  0  0  0  0  0  0  0
   38.8170   32.4540   46.2210 C   0  0  0  0  0  0  0  0  0  0  0  0
  1  6  1  0  0  0  0
  2  3  1  0  0  0  0
  2  1  2  0  0  0  0
  3  4  2  0  0  0  0
  4  5  1  0  0  0  0
  5  9  1  0  0  0  0
  6  5  2  0  0  0  0
  7  1  1  0  0  0  0
  8  3  1  0  0  0  0
 10  2  1  0  0  0  0
 11 10  2  0  0  0  0
 12 18  1  0  0  0  0
 12 10  1  0  0  0  0
 13 12  1  0  0  0  0
 14 15  1  0  0  0  0
 14 13  1  0  0  0  0
 15 17  1  0  0  0  0
 16 15  1  0  0  0  0
 17 18  1  0  0  0  0
M  END
>  <minimizedAffinity>
-4.77174568

>  <minimizedRMSD>
5.16494513

$$$$
