
 OpenBabel03272509433D

 36 38  0  0  1  0  0  0  0  0999 V2000
   37.0490   30.9200   49.0760 C   0  0  0  0  0  0  0  0  0  0  0  0
   36.7710   31.8420   50.0850 C   0  0  0  0  0  0  0  0  0  0  0  0
   37.3590   33.0960   50.1150 C   0  0  0  0  0  0  0  0  0  0  0  0
   38.2570   33.4570   49.1100 C   0  0  0  0  0  0  0  0  0  0  0  0
   38.5220   32.5470   48.1270 C   0  0  0  0  0  0  0  0  0  0  0  0
   37.9150   31.3010   48.1310 C   0  0  0  0  0  0  0  0  0  0  0  0
   36.0710   31.5820   50.8850 H   0  0  0  0  0  0  0  0  0  0  0  0
   37.0930   33.7490   50.9270 H   0  0  0  0  0  0  0  0  0  0  0  0
   38.6530   34.4450   49.2230 H   0  0  0  0  0  0  0  0  0  0  0  0
   39.2370   32.9740   47.4220 H   0  0  0  0  0  0  0  0  0  0  0  0
   36.4620   29.5970   49.0630 C   0  0  2  0  0  0  0  0  0  0  0  0
   36.9620   29.0530   48.1720 H   0  0  0  0  0  0  0  0  0  0  0  0
   33.5980   29.9370   46.8540 C   0  0  0  0  0  0  0  0  0  0  0  0
   32.8550   28.8000   47.0840 C   0  0  0  0  0  0  0  0  0  0  0  0
   33.2990   27.9230   48.0560 C   0  0  0  0  0  0  0  0  0  0  0  0
   34.4530   28.2090   48.7520 N   0  0  0  0  0  0  0  0  0  0  0  0
   35.1200   29.3130   48.4820 C   0  0  0  0  0  0  0  0  0  0  0  0
   34.6990   30.1840   47.5360 N   0  0  0  0  0  0  0  0  0  0  0  0
   33.2180   30.5870   46.0970 H   0  0  0  0  0  0  0  0  0  0  0  0
   31.9430   28.5110   46.5780 H   0  0  0  0  0  0  0  0  0  0  0  0
   32.7910   26.9900   48.3290 H   0  0  0  0  0  0  0  0  0  0  0  0
   36.9350   28.8420   49.9900 O   0  0  0  0  0  0  0  0  0  0  0  0
   36.4180   28.4610   50.7130 H   0  0  0  0  0  0  0  0  0  0  0  0
   38.3090   30.4270   47.0500 C   0  0  0  0  0  3  0  0  0  0  0  0
   38.8690   30.8490   45.9120 C   0  0  0  0  0  3  0  0  0  0  0  0
   39.3460   30.0430   44.7630 C   0  0  0  0  0  0  0  0  0  0  0  0
   38.7700   29.0870   44.6690 H   0  0  0  0  0  0  0  0  0  0  0  0
   40.4000   29.7190   44.9210 H   0  0  0  0  0  0  0  0  0  0  0  0
   39.2870   31.0360   43.2670 S   0  0  0  0  0  0  0  0  0  0  0  0
   39.9870   28.7340   39.7670 H   0  0  0  0  0  0  0  0  0  0  0  0
   40.9200   29.1690   39.6850 N   0  0  0  0  0  0  0  0  0  0  0  0
   41.7370   28.8330   40.8350 C   0  0  0  0  0  2  0  0  0  0  0  0
   41.2260   29.4640   42.1170 C   0  0  0  0  0  2  0  0  0  0  0  0
   39.9210   30.1690   41.8090 C   0  0  0  0  0  3  0  0  0  0  0  0
   40.2110   31.2260   40.7570 C   0  0  0  0  0  2  0  0  0  0  0  0
   40.8320   30.6120   39.5330 C   0  0  0  0  0  2  0  0  0  0  0  0
  1  2  1  0  0  0  0
  2  3  2  0  0  0  0
  2  7  1  0  0  0  0
  3  8  1  0  0  0  0
  4  9  1  0  0  0  0
  4  3  1  0  0  0  0
  5  6  1  0  0  0  0
  5  4  2  0  0  0  0
  6  1  2  0  0  0  0
 10  5  1  0  0  0  0
 11 12  1  6  0  0  0
 11  1  1  0  0  0  0
 11 22  1  0  0  0  0
 13 14  2  0  0  0  0
 13 18  1  0  0  0  0
 14 15  1  0  0  0  0
 15 21  1  0  0  0  0
 15 16  2  0  0  0  0
 17 16  1  0  0  0  0
 17 11  1  0  0  0  0
 18 17  2  0  0  0  0
 19 13  1  0  0  0  0
 20 14  1  0  0  0  0
 22 23  1  0  0  0  0
 24  6  1  0  0  0  0
 25 24  2  0  0  0  0
 26 28  1  0  0  0  0
 26 25  1  0  0  0  0
 27 26  1  0  0  0  0
 29 26  1  0  0  0  0
 31 30  1  0  0  0  0
 31 32  1  0  0  0  0
 32 33  1  0  0  0  0
 34 33  1  0  0  0  0
 34 29  1  0  0  0  0
 35 34  1  0  0  0  0
 36 31  1  0  0  0  0
 36 35  1  0  0  0  0
M  END
>  <minimizedAffinity>
-5.81037617

>  <minimizedRMSD>
0.705115855

$$$$
