
 OpenBabel03262521483D

 28 29  0  0  0  0  0  0  0  0999 V2000
   36.5840   28.2240   33.6290 C   0  0  0  0  0  0  0  0  0  0  0  0
   37.4460   28.9320   33.6710 H   0  0  0  0  0  0  0  0  0  0  0  0
   36.7500   27.5820   32.7390 H   0  0  0  0  0  0  0  0  0  0  0  0
   35.2540   28.9090   33.4760 C   0  0  0  0  0  0  0  0  0  0  0  0
   35.1300   29.3430   32.4400 H   0  0  0  0  0  0  0  0  0  0  0  0
   34.4750   28.1150   33.5460 H   0  0  0  0  0  0  0  0  0  0  0  0
   34.9660   29.8870   34.5190 C   0  0  0  0  0  0  0  0  0  0  0  0
   33.6770   30.0880   34.9970 C   0  0  0  0  0  0  0  0  0  0  0  0
   33.4880   31.0530   36.0060 C   0  0  0  0  0  0  0  0  0  0  0  0
   34.5860   31.7420   36.4590 N   0  0  0  0  0  0  0  0  0  0  0  0
   35.8330   31.5040   35.9530 C   0  0  0  0  0  0  0  0  0  0  0  0
   35.9970   30.5740   34.9850 N   0  0  0  0  0  0  0  0  0  0  0  0
   32.8410   29.5330   34.6210 H   0  0  0  0  0  0  0  0  0  0  0  0
   32.5090   31.2590   36.4230 H   0  0  0  0  0  0  0  0  0  0  0  0
   36.6890   32.0590   36.3250 H   0  0  0  0  0  0  0  0  0  0  0  0
   36.5160   27.4090   34.7590 O   0  0  0  0  0  0  0  0  0  0  0  0
   39.0630   27.0040   34.4090 O   0  0  0  0  0  0  0  0  0  0  0  0
   37.7780   26.2770   34.7770 P   0  0  2  0  0  0  0  0  0  0  0  0
   37.5590   25.1080   33.5890 O   0  0  0  0  0  0  0  0  0  0  0  0
   37.4250   25.5350   32.7070 H   0  0  0  0  0  0  0  0  0  0  0  0
   37.8940   25.5340   36.2640 O   0  0  0  0  0  0  0  0  0  0  0  0
   39.5670   21.5210   38.4500 H   0  0  0  0  0  0  0  0  0  0  0  0
   39.7390   22.4500   38.0630 N   0  0  0  0  0  0  0  0  0  0  0  0
   39.8420   22.4470   36.6150 C   0  0  0  0  0  2  0  0  0  0  0  0
   39.6400   23.8610   36.1000 C   0  0  0  0  0  2  0  0  0  0  0  0
   38.2170   24.2080   36.2550 C   0  0  0  0  0  3  0  0  0  0  0  0
   37.6400   23.5700   37.4830 C   0  0  0  0  0  2  0  0  0  0  0  0
   38.7330   23.3900   38.5210 C   0  0  0  0  0  2  0  0  0  0  0  0
  1  2  1  0  0  0  0
  1 16  1  0  0  0  0
  3  1  1  0  0  0  0
  4  6  1  0  0  0  0
  4  1  1  0  0  0  0
  4  7  1  0  0  0  0
  5  4  1  0  0  0  0
  7 12  2  0  0  0  0
  7  8  1  0  0  0  0
  8  9  2  0  0  0  0
  9 14  1  0  0  0  0
  9 10  1  0  0  0  0
 11 15  1  0  0  0  0
 11 10  2  0  0  0  0
 12 11  1  0  0  0  0
 13  8  1  0  0  0  0
 16 18  1  0  0  0  0
 18 17  2  6  0  0  0
 18 21  1  0  0  0  0
 19 18  1  0  0  0  0
 20 19  1  0  0  0  0
 23 22  1  0  0  0  0
 23 28  1  0  0  0  0
 24 23  1  0  0  0  0
 25 26  1  0  0  0  0
 25 24  1  0  0  0  0
 26 21  1  0  0  0  0
 26 27  1  0  0  0  0
 27 28  1  0  0  0  0
M  END
>  <minimizedAffinity>
-4.73912477

$$$$

 OpenBabel03262521483D

 28 29  0  0  0  0  0  0  0  0999 V2000
   37.1440   25.8340   32.3490 C   0  0  0  0  0  0  0  0  0  0  0  0
   36.9050   26.9210   32.4240 H   0  0  0  0  0  0  0  0  0  0  0  0
   38.1020   25.7630   31.7920 H   0  0  0  0  0  0  0  0  0  0  0  0
   36.1060   25.0420   31.6030 C   0  0  0  0  0  0  0  0  0  0  0  0
   35.0990   25.1010   32.1110 H   0  0  0  0  0  0  0  0  0  0  0  0
   35.9590   25.5500   30.6220 H   0  0  0  0  0  0  0  0  0  0  0  0
   36.4980   23.6650   31.3210 C   0  0  0  0  0  0  0  0  0  0  0  0
   35.6620   22.5940   31.6100 C   0  0  0  0  0  0  0  0  0  0  0  0
   36.1200   21.2960   31.3040 C   0  0  0  0  0  0  0  0  0  0  0  0
   37.3640   21.1630   30.7410 N   0  0  0  0  0  0  0  0  0  0  0  0
   38.1460   22.2530   30.4770 C   0  0  0  0  0  0  0  0  0  0  0  0
   37.6910   23.4910   30.7760 N   0  0  0  0  0  0  0  0  0  0  0  0
   34.6950   22.7320   32.0510 H   0  0  0  0  0  0  0  0  0  0  0  0
   35.5180   20.4170   31.5040 H   0  0  0  0  0  0  0  0  0  0  0  0
   39.1280   22.1270   30.0310 H   0  0  0  0  0  0  0  0  0  0  0  0
   37.3130   25.2420   33.6010 O   0  0  0  0  0  0  0  0  0  0  0  0
   36.7150   27.4640   34.8190 O   0  0  0  0  0  0  0  0  0  0  0  0
   37.7860   26.3850   34.7610 P   0  0  2  0  0  0  0  0  0  0  0  0
   39.1990   27.1680   34.2970 O   0  0  0  0  0  0  0  0  0  0  0  0
   39.1000   27.5470   33.3890 H   0  0  0  0  0  0  0  0  0  0  0  0
   38.0190   25.6670   36.2470 O   0  0  0  0  0  0  0  0  0  0  0  0
   39.4140   21.5510   38.4370 H   0  0  0  0  0  0  0  0  0  0  0  0
   39.6490   22.4650   38.0450 N   0  0  0  0  0  0  0  0  0  0  0  0
   39.7410   22.4490   36.5960 C   0  0  0  0  0  2  0  0  0  0  0  0
   39.6390   23.8720   36.0780 C   0  0  0  0  0  2  0  0  0  0  0  0
   38.2450   24.3220   36.2410 C   0  0  0  0  0  3  0  0  0  0  0  0
   37.6330   23.7310   37.4750 C   0  0  0  0  0  2  0  0  0  0  0  0
   38.7170   23.4760   38.5060 C   0  0  0  0  0  2  0  0  0  0  0  0
  1  2  1  0  0  0  0
  1 16  1  0  0  0  0
  3  1  1  0  0  0  0
  4  5  1  0  0  0  0
  4  1  1  0  0  0  0
  6  4  1  0  0  0  0
  7  4  1  0  0  0  0
  7  8  1  0  0  0  0
  8 13  1  0  0  0  0
  9 14  1  0  0  0  0
  9  8  2  0  0  0  0
 10  9  1  0  0  0  0
 11 10  2  0  0  0  0
 11 12  1  0  0  0  0
 12  7  2  0  0  0  0
 15 11  1  0  0  0  0
 16 18  1  0  0  0  0
 18 17  2  1  0  0  0
 18 21  1  0  0  0  0
 19 18  1  0  0  0  0
 20 19  1  0  0  0  0
 23 22  1  0  0  0  0
 23 28  1  0  0  0  0
 24 23  1  0  0  0  0
 25 26  1  0  0  0  0
 25 24  1  0  0  0  0
 26 21  1  0  0  0  0
 26 27  1  0  0  0  0
 27 28  1  0  0  0  0
M  END
>  <minimizedAffinity>
-4.69827652

$$$$

 OpenBabel03262521483D

 28 29  0  0  0  0  0  0  0  0999 V2000
   38.6050   27.0700   32.4640 C   0  0  0  0  0  0  0  0  0  0  0  0
   37.5220   27.3380   32.4980 H   0  0  0  0  0  0  0  0  0  0  0  0
   39.0870   27.8080   31.7870 H   0  0  0  0  0  0  0  0  0  0  0  0
   38.8640   25.6920   31.9210 C   0  0  0  0  0  0  0  0  0  0  0  0
   39.4610   25.7320   30.9620 H   0  0  0  0  0  0  0  0  0  0  0  0
   39.5330   25.1810   32.6500 H   0  0  0  0  0  0  0  0  0  0  0  0
   37.6650   24.8720   31.7870 C   0  0  0  0  0  0  0  0  0  0  0  0
   36.4580   25.4070   31.3540 C   0  0  0  0  0  0  0  0  0  0  0  0
   35.3490   24.5430   31.2530 C   0  0  0  0  0  0  0  0  0  0  0  0
   35.5220   23.2240   31.5900 N   0  0  0  0  0  0  0  0  0  0  0  0
   36.7330   22.7500   32.0110 C   0  0  0  0  0  0  0  0  0  0  0  0
   37.7870   23.5930   32.1010 N   0  0  0  0  0  0  0  0  0  0  0  0
   36.3570   26.4430   31.0990 H   0  0  0  0  0  0  0  0  0  0  0  0
   34.3790   24.8960   30.9220 H   0  0  0  0  0  0  0  0  0  0  0  0
   36.8500   21.7020   32.2730 H   0  0  0  0  0  0  0  0  0  0  0  0
   39.2100   27.1550   33.7170 O   0  0  0  0  0  0  0  0  0  0  0  0
   36.8150   27.7850   34.5200 O   0  0  0  0  0  0  0  0  0  0  0  0
   38.0640   27.0370   34.9620 P   0  0  2  0  0  0  0  0  0  0  0  0
   38.5970   27.8200   36.3500 O   0  0  0  0  0  0  0  0  0  0  0  0
   38.8580   28.7510   36.1420 H   0  0  0  0  0  0  0  0  0  0  0  0
   37.7340   25.4440   35.3220 O   0  0  0  0  0  0  0  0  0  0  0  0
   40.0180   21.4270   36.8500 H   0  0  0  0  0  0  0  0  0  0  0  0
   39.1650   21.9850   36.7850 N   0  0  0  0  0  0  0  0  0  0  0  0
   39.1300   23.0730   37.7460 C   0  0  0  0  0  2  0  0  0  0  0  0
   38.0980   24.0940   37.3020 C   0  0  0  0  0  2  0  0  0  0  0  0
   38.6320   24.8070   36.1280 C   0  0  0  0  0  3  0  0  0  0  0  0
   39.4680   23.8940   35.2820 C   0  0  0  0  0  2  0  0  0  0  0  0
   38.9700   22.4690   35.4310 C   0  0  0  0  0  2  0  0  0  0  0  0
  1  2  1  0  0  0  0
  1 16  1  0  0  0  0
  3  1  1  0  0  0  0
  4  1  1  0  0  0  0
  4  6  1  0  0  0  0
  5  4  1  0  0  0  0
  7  4  1  0  0  0  0
  7 12  1  0  0  0  0
  8  7  2  0  0  0  0
  9  8  1  0  0  0  0
  9 10  2  0  0  0  0
 10 11  1  0  0  0  0
 11 12  2  0  0  0  0
 11 15  1  0  0  0  0
 13  8  1  0  0  0  0
 14  9  1  0  0  0  0
 16 18  1  0  0  0  0
 18 17  2  6  0  0  0
 18 21  1  0  0  0  0
 18 19  1  0  0  0  0
 20 19  1  0  0  0  0
 21 26  1  0  0  0  0
 23 22  1  0  0  0  0
 23 24  1  0  0  0  0
 25 24  1  0  0  0  0
 26 25  1  0  0  0  0
 27 28  1  0  0  0  0
 27 26  1  0  0  0  0
 28 23  1  0  0  0  0
M  END
>  <minimizedAffinity>
-4.66752768

$$$$

 OpenBabel03262521483D

 28 29  0  0  0  0  0  0  0  0999 V2000
   36.4900   26.6690   31.3750 C   0  0  0  0  0  0  0  0  0  0  0  0
   37.5440   26.4150   31.1080 H   0  0  0  0  0  0  0  0  0  0  0  0
   36.0870   27.2630   30.5280 H   0  0  0  0  0  0  0  0  0  0  0  0
   36.3720   27.4920   32.6280 C   0  0  0  0  0  0  0  0  0  0  0  0
   36.1530   28.5750   32.3910 H   0  0  0  0  0  0  0  0  0  0  0  0
   35.4650   27.1310   33.1650 H   0  0  0  0  0  0  0  0  0  0  0  0
   37.5000   27.3470   33.5420 C   0  0  0  0  0  0  0  0  0  0  0  0
   37.3460   27.4660   34.9180 C   0  0  0  0  0  0  0  0  0  0  0  0
   38.4880   27.3110   35.7280 C   0  0  0  0  0  0  0  0  0  0  0  0
   39.6890   27.0530   35.1140 N   0  0  0  0  0  0  0  0  0  0  0  0
   39.7840   26.9460   33.7550 C   0  0  0  0  0  0  0  0  0  0  0  0
   38.6770   27.0970   32.9920 N   0  0  0  0  0  0  0  0  0  0  0  0
   36.3930   27.6690   35.3650 H   0  0  0  0  0  0  0  0  0  0  0  0
   38.4380   27.3920   36.8080 H   0  0  0  0  0  0  0  0  0  0  0  0
   40.7430   26.7410   33.2880 H   0  0  0  0  0  0  0  0  0  0  0  0
   35.6990   25.5310   31.5370 O   0  0  0  0  0  0  0  0  0  0  0  0
   37.4580   23.9150   32.5710 O   0  0  0  0  0  0  0  0  0  0  0  0
   36.6080   24.1150   31.3250 P   0  0  2  0  0  0  0  0  0  0  0  0
   37.6930   24.2790   30.0530 O   0  0  0  0  0  0  0  0  0  0  0  0
   38.2480   25.0880   30.1760 H   0  0  0  0  0  0  0  0  0  0  0  0
   35.6170   22.8060   31.0370 O   0  0  0  0  0  0  0  0  0  0  0  0
   36.3730   18.0040   31.2610 H   0  0  0  0  0  0  0  0  0  0  0  0
   35.7360   18.7910   31.1220 N   0  0  0  0  0  0  0  0  0  0  0  0
   35.3180   19.4040   32.3700 C   0  0  0  0  0  2  0  0  0  0  0  0
   34.7710   20.7900   32.0820 C   0  0  0  0  0  2  0  0  0  0  0  0
   35.9010   21.6670   31.7330 C   0  0  0  0  0  3  0  0  0  0  0  0
   36.9590   20.9080   30.9890 C   0  0  0  0  0  2  0  0  0  0  0  0
   36.3170   19.7680   30.2200 C   0  0  0  0  0  2  0  0  0  0  0  0
  1 16  1  0  0  0  0
  1  4  1  0  0  0  0
  2  1  1  0  0  0  0
  3  1  1  0  0  0  0
  4  6  1  0  0  0  0
  4  7  1  0  0  0  0
  5  4  1  0  0  0  0
  7  8  1  0  0  0  0
  8 13  1  0  0  0  0
  8  9  2  0  0  0  0
  9 14  1  0  0  0  0
 10  9  1  0  0  0  0
 11 10  2  0  0  0  0
 12  7  2  0  0  0  0
 12 11  1  0  0  0  0
 15 11  1  0  0  0  0
 18 16  1  0  0  0  0
 18 17  2  1  0  0  0
 19 20  1  0  0  0  0
 19 18  1  0  0  0  0
 21 18  1  0  0  0  0
 21 26  1  0  0  0  0
 23 22  1  0  0  0  0
 23 24  1  0  0  0  0
 25 24  1  0  0  0  0
 26 25  1  0  0  0  0
 27 26  1  0  0  0  0
 28 27  1  0  0  0  0
 28 23  1  0  0  0  0
M  END
>  <minimizedAffinity>
-4.64881945

$$$$

 OpenBabel03262521483D

 28 29  0  0  0  0  0  0  0  0999 V2000
   37.8820   24.5120   33.7100 C   0  0  0  0  0  0  0  0  0  0  0  0
   37.7950   25.4780   33.1560 H   0  0  0  0  0  0  0  0  0  0  0  0
   37.0590   24.5060   34.4560 H   0  0  0  0  0  0  0  0  0  0  0  0
   39.1850   24.3570   34.4430 C   0  0  0  0  0  0  0  0  0  0  0  0
   39.8790   23.6460   33.9050 H   0  0  0  0  0  0  0  0  0  0  0  0
   39.6990   25.3450   34.3950 H   0  0  0  0  0  0  0  0  0  0  0  0
   39.0360   24.0170   35.8540 C   0  0  0  0  0  0  0  0  0  0  0  0
   38.0120   24.5480   36.6290 C   0  0  0  0  0  0  0  0  0  0  0  0
   37.9410   24.1650   37.9830 C   0  0  0  0  0  0  0  0  0  0  0  0
   38.8870   23.2930   38.4610 N   0  0  0  0  0  0  0  0  0  0  0  0
   39.8740   22.8010   37.6540 C   0  0  0  0  0  0  0  0  0  0  0  0
   39.9270   23.1780   36.3560 N   0  0  0  0  0  0  0  0  0  0  0  0
   37.2890   25.2280   36.2240 H   0  0  0  0  0  0  0  0  0  0  0  0
   37.1680   24.5420   38.6430 H   0  0  0  0  0  0  0  0  0  0  0  0
   40.6130   22.1110   38.0510 H   0  0  0  0  0  0  0  0  0  0  0  0
   37.7300   23.4080   32.8710 O   0  0  0  0  0  0  0  0  0  0  0  0
   37.6920   24.0650   30.3520 O   0  0  0  0  0  0  0  0  0  0  0  0
   36.7670   23.7850   31.5270 P   0  0  2  0  0  0  0  0  0  0  0  0
   35.9060   25.2050   31.7800 O   0  0  0  0  0  0  0  0  0  0  0  0
   36.5180   25.9370   32.0430 H   0  0  0  0  0  0  0  0  0  0  0  0
   35.7000   22.5490   31.1910 O   0  0  0  0  0  0  0  0  0  0  0  0
   36.2940   17.7190   31.2140 H   0  0  0  0  0  0  0  0  0  0  0  0
   35.6900   18.5320   31.0840 N   0  0  0  0  0  0  0  0  0  0  0  0
   35.2320   19.0990   32.3400 C   0  0  0  0  0  2  0  0  0  0  0  0
   34.7430   20.5150   32.0960 C   0  0  0  0  0  2  0  0  0  0  0  0
   35.9160   21.3690   31.8420 C   0  0  0  0  0  3  0  0  0  0  0  0
   36.9830   20.6110   31.1110 C   0  0  0  0  0  2  0  0  0  0  0  0
   36.3430   19.5310   30.2590 C   0  0  0  0  0  2  0  0  0  0  0  0
  1  4  1  0  0  0  0
  1  3  1  0  0  0  0
  2  1  1  0  0  0  0
  4  7  1  0  0  0  0
  5  4  1  0  0  0  0
  6  4  1  0  0  0  0
  7 12  2  0  0  0  0
  7  8  1  0  0  0  0
  8  9  2  0  0  0  0
  9 10  1  0  0  0  0
  9 14  1  0  0  0  0
 11 15  1  0  0  0  0
 11 10  2  0  0  0  0
 12 11  1  0  0  0  0
 13  8  1  0  0  0  0
 16  1  1  0  0  0  0
 18 17  2  6  0  0  0
 18 19  1  0  0  0  0
 18 16  1  0  0  0  0
 19 20  1  0  0  0  0
 21 18  1  0  0  0  0
 21 26  1  0  0  0  0
 23 22  1  0  0  0  0
 23 24  1  0  0  0  0
 25 24  1  0  0  0  0
 26 25  1  0  0  0  0
 27 26  1  0  0  0  0
 28 23  1  0  0  0  0
 28 27  1  0  0  0  0
M  END
>  <minimizedAffinity>
-4.6375699

$$$$

 OpenBabel03262521483D

 28 29  0  0  0  0  0  0  0  0999 V2000
   38.1340   24.3340   31.3920 C   0  0  0  0  0  0  0  0  0  0  0  0
   39.1770   24.1670   31.7540 H   0  0  0  0  0  0  0  0  0  0  0  0
   37.5250   24.5640   32.2920 H   0  0  0  0  0  0  0  0  0  0  0  0
   37.5370   23.1330   30.7130 C   0  0  0  0  0  0  0  0  0  0  0  0
   36.9470   23.4280   29.7960 H   0  0  0  0  0  0  0  0  0  0  0  0
   38.3880   22.5300   30.3210 H   0  0  0  0  0  0  0  0  0  0  0  0
   36.7710   22.2670   31.6040 C   0  0  0  0  0  0  0  0  0  0  0  0
   35.5880   21.6620   31.1960 C   0  0  0  0  0  0  0  0  0  0  0  0
   34.9120   20.8400   32.1200 C   0  0  0  0  0  0  0  0  0  0  0  0
   35.4570   20.6850   33.3700 N   0  0  0  0  0  0  0  0  0  0  0  0
   36.6240   21.3050   33.7190 C   0  0  0  0  0  0  0  0  0  0  0  0
   37.2610   22.0900   32.8200 N   0  0  0  0  0  0  0  0  0  0  0  0
   35.1900   21.8040   30.2110 H   0  0  0  0  0  0  0  0  0  0  0  0
   33.9850   20.3390   31.8660 H   0  0  0  0  0  0  0  0  0  0  0  0
   37.0390   21.1700   34.7130 H   0  0  0  0  0  0  0  0  0  0  0  0
   38.0470   25.4100   30.5090 O   0  0  0  0  0  0  0  0  0  0  0  0
   35.6920   25.8390   31.5320 O   0  0  0  0  0  0  0  0  0  0  0  0
   36.9400   26.5700   31.0610 P   0  0  2  0  0  0  0  0  0  0  0  0
   36.4380   27.5700   29.8070 O   0  0  0  0  0  0  0  0  0  0  0  0
   36.0980   27.0300   29.0510 H   0  0  0  0  0  0  0  0  0  0  0  0
   37.6040   27.5010   32.2730 O   0  0  0  0  0  0  0  0  0  0  0  0
   38.7070   27.1490   37.0000 H   0  0  0  0  0  0  0  0  0  0  0  0
   38.8700   27.5760   36.0860 N   0  0  0  0  0  0  0  0  0  0  0  0
   39.6670   26.7400   35.2070 C   0  0  0  0  0  2  0  0  0  0  0  0
   39.4840   27.2090   33.7750 C   0  0  0  0  0  2  0  0  0  0  0  0
   38.1310   26.8260   33.3360 C   0  0  0  0  0  3  0  0  0  0  0  0
   37.1570   26.8970   34.4740 C   0  0  0  0  0  2  0  0  0  0  0  0
   37.6130   27.9510   35.4650 C   0  0  0  0  0  2  0  0  0  0  0  0
  1  2  1  0  0  0  0
  1  3  1  0  0  0  0
  4  1  1  0  0  0  0
  4  7  1  0  0  0  0
  5  4  1  0  0  0  0
  6  4  1  0  0  0  0
  7 12  1  0  0  0  0
  8  7  2  0  0  0  0
  8  9  1  0  0  0  0
  9 10  2  0  0  0  0
 10 11  1  0  0  0  0
 11 15  1  0  0  0  0
 12 11  2  0  0  0  0
 13  8  1  0  0  0  0
 14  9  1  0  0  0  0
 16 18  1  0  0  0  0
 16  1  1  0  0  0  0
 18 17  2  1  0  0  0
 18 21  1  0  0  0  0
 19 18  1  0  0  0  0
 20 19  1  0  0  0  0
 21 26  1  0  0  0  0
 23 22  1  0  0  0  0
 24 23  1  0  0  0  0
 25 24  1  0  0  0  0
 26 25  1  0  0  0  0
 26 27  1  0  0  0  0
 27 28  1  0  0  0  0
 28 23  1  0  0  0  0
M  END
>  <minimizedAffinity>
-4.52822304

$$$$

 OpenBabel03262521483D

 28 29  0  0  0  0  0  0  0  0999 V2000
   36.8280   23.7500   31.4680 C   0  0  0  0  0  0  0  0  0  0  0  0
   36.8780   24.3240   30.5110 H   0  0  0  0  0  0  0  0  0  0  0  0
   37.6890   23.0490   31.4560 H   0  0  0  0  0  0  0  0  0  0  0  0
   35.5670   22.9450   31.6180 C   0  0  0  0  0  0  0  0  0  0  0  0
   34.8990   23.3720   32.4230 H   0  0  0  0  0  0  0  0  0  0  0  0
   34.9910   23.0740   30.6730 H   0  0  0  0  0  0  0  0  0  0  0  0
   35.7930   21.5150   31.7930 C   0  0  0  0  0  0  0  0  0  0  0  0
   34.7490   20.6360   32.0560 C   0  0  0  0  0  0  0  0  0  0  0  0
   35.0570   19.2700   32.2100 C   0  0  0  0  0  0  0  0  0  0  0  0
   36.3690   18.8830   32.0940 N   0  0  0  0  0  0  0  0  0  0  0  0
   37.3570   19.7900   31.8340 C   0  0  0  0  0  0  0  0  0  0  0  0
   37.0450   21.0980   31.6880 N   0  0  0  0  0  0  0  0  0  0  0  0
   33.7350   20.9720   32.1410 H   0  0  0  0  0  0  0  0  0  0  0  0
   34.2900   18.5320   32.4170 H   0  0  0  0  0  0  0  0  0  0  0  0
   38.3900   19.4640   31.7450 H   0  0  0  0  0  0  0  0  0  0  0  0
   36.9420   24.5770   32.5850 O   0  0  0  0  0  0  0  0  0  0  0  0
   39.4050   25.3510   32.9200 O   0  0  0  0  0  0  0  0  0  0  0  0
   38.4040   24.3100   33.4010 P   0  0  2  0  0  0  0  0  0  0  0  0
   39.0630   22.8200   32.9890 O   0  0  0  0  0  0  0  0  0  0  0  0
   39.1390   22.7370   32.0060 H   0  0  0  0  0  0  0  0  0  0  0  0
   38.1900   24.3780   35.0520 O   0  0  0  0  0  0  0  0  0  0  0  0
   39.1540   22.1460   39.2680 H   0  0  0  0  0  0  0  0  0  0  0  0
   39.3610   22.8860   38.5940 N   0  0  0  0  0  0  0  0  0  0  0  0
   40.1350   22.4140   37.4600 C   0  0  0  0  0  2  0  0  0  0  0  0
   40.0130   23.4140   36.3250 C   0  0  0  0  0  2  0  0  0  0  0  0
   38.6530   23.3120   35.7680 C   0  0  0  0  0  3  0  0  0  0  0  0
   37.6570   22.9900   36.8400 C   0  0  0  0  0  2  0  0  0  0  0  0
   38.1420   23.5450   38.1650 C   0  0  0  0  0  2  0  0  0  0  0  0
  1  4  1  0  0  0  0
  1 16  1  0  0  0  0
  2  1  1  0  0  0  0
  3  1  1  0  0  0  0
  4  7  1  0  0  0  0
  4  5  1  0  0  0  0
  6  4  1  0  0  0  0
  7  8  1  0  0  0  0
  8 13  1  0  0  0  0
  8  9  2  0  0  0  0
  9 14  1  0  0  0  0
 10  9  1  0  0  0  0
 11 10  2  0  0  0  0
 12  7  2  0  0  0  0
 12 11  1  0  0  0  0
 15 11  1  0  0  0  0
 16 18  1  0  0  0  0
 18 17  2  6  0  0  0
 18 21  1  0  0  0  0
 19 18  1  0  0  0  0
 20 19  1  0  0  0  0
 21 26  1  0  0  0  0
 23 22  1  0  0  0  0
 24 23  1  0  0  0  0
 25 24  1  0  0  0  0
 26 25  1  0  0  0  0
 26 27  1  0  0  0  0
 27 28  1  0  0  0  0
 28 23  1  0  0  0  0
M  END
>  <minimizedAffinity>
-4.49403811

$$$$

 OpenBabel03262521483D

 28 29  0  0  0  0  0  0  0  0999 V2000
   38.2040   25.7100   34.1760 C   0  0  0  0  0  0  0  0  0  0  0  0
   39.0290   24.9880   33.9620 H   0  0  0  0  0  0  0  0  0  0  0  0
   38.6420   26.7250   34.0670 H   0  0  0  0  0  0  0  0  0  0  0  0
   37.6440   25.5840   35.5660 C   0  0  0  0  0  0  0  0  0  0  0  0
   37.5530   26.5930   36.0670 H   0  0  0  0  0  0  0  0  0  0  0  0
   36.5950   25.2250   35.4570 H   0  0  0  0  0  0  0  0  0  0  0  0
   38.3460   24.6170   36.4030 C   0  0  0  0  0  0  0  0  0  0  0  0
   37.9600   24.3710   37.7150 C   0  0  0  0  0  0  0  0  0  0  0  0
   38.6920   23.4200   38.4540 C   0  0  0  0  0  0  0  0  0  0  0  0
   39.7460   22.7920   37.8370 N   0  0  0  0  0  0  0  0  0  0  0  0
   40.0820   23.0720   36.5420 C   0  0  0  0  0  0  0  0  0  0  0  0
   39.3680   23.9880   35.8480 N   0  0  0  0  0  0  0  0  0  0  0  0
   37.1320   24.8800   38.1670 H   0  0  0  0  0  0  0  0  0  0  0  0
   38.4450   23.1810   39.4810 H   0  0  0  0  0  0  0  0  0  0  0  0
   40.9190   22.5640   36.0720 H   0  0  0  0  0  0  0  0  0  0  0  0
   37.1460   25.5830   33.2770 O   0  0  0  0  0  0  0  0  0  0  0  0
   38.9540   24.3510   31.8670 O   0  0  0  0  0  0  0  0  0  0  0  0
   37.4560   24.3730   32.1300 P   0  0  2  0  0  0  0  0  0  0  0  0
   36.7390   24.7400   30.6550 O   0  0  0  0  0  0  0  0  0  0  0  0
   37.0080   25.6440   30.3570 H   0  0  0  0  0  0  0  0  0  0  0  0
   36.9010   22.8920   32.6570 O   0  0  0  0  0  0  0  0  0  0  0  0
   34.9020   18.6790   31.2650 H   0  0  0  0  0  0  0  0  0  0  0  0
   35.7230   19.2100   31.5620 N   0  0  0  0  0  0  0  0  0  0  0  0
   36.3040   19.9970   30.4890 C   0  0  0  0  0  2  0  0  0  0  0  0
   37.1950   21.0690   31.0870 C   0  0  0  0  0  2  0  0  0  0  0  0
   36.3330   22.0870   31.7130 C   0  0  0  0  0  3  0  0  0  0  0  0
   35.1040   21.4610   32.2980 C   0  0  0  0  0  2  0  0  0  0  0  0
   35.4110   20.0350   32.7140 C   0  0  0  0  0  2  0  0  0  0  0  0
  1  4  1  0  0  0  0
  2  1  1  0  0  0  0
  3  1  1  0  0  0  0
  4  5  1  0  0  0  0
  4  7  1  0  0  0  0
  6  4  1  0  0  0  0
  7  8  1  0  0  0  0
  8 13  1  0  0  0  0
  8  9  2  0  0  0  0
  9 14  1  0  0  0  0
 10  9  1  0  0  0  0
 11 10  2  0  0  0  0
 12  7  2  0  0  0  0
 12 11  1  0  0  0  0
 15 11  1  0  0  0  0
 16  1  1  0  0  0  0
 18 17  2  6  0  0  0
 18 21  1  0  0  0  0
 18 16  1  0  0  0  0
 19 18  1  0  0  0  0
 20 19  1  0  0  0  0
 22 23  1  0  0  0  0
 23 28  1  0  0  0  0
 24 25  1  0  0  0  0
 24 23  1  0  0  0  0
 25 26  1  0  0  0  0
 26 27  1  0  0  0  0
 26 21  1  0  0  0  0
 27 28  1  0  0  0  0
M  END
>  <minimizedAffinity>
-4.4733305

$$$$

 OpenBabel03262521483D

 28 29  0  0  0  0  0  0  0  0999 V2000
   38.7510   26.9360   32.7870 C   0  0  0  0  0  0  0  0  0  0  0  0
   38.0320   27.7740   32.9490 H   0  0  0  0  0  0  0  0  0  0  0  0
   39.7620   27.3940   32.7520 H   0  0  0  0  0  0  0  0  0  0  0  0
   38.5250   26.1940   31.4980 C   0  0  0  0  0  0  0  0  0  0  0  0
   39.2650   25.3490   31.3740 H   0  0  0  0  0  0  0  0  0  0  0  0
   37.5340   25.6930   31.5860 H   0  0  0  0  0  0  0  0  0  0  0  0
   38.4710   27.0530   30.3210 C   0  0  0  0  0  0  0  0  0  0  0  0
   37.5180   28.0560   30.1910 C   0  0  0  0  0  0  0  0  0  0  0  0
   37.5370   28.8410   29.0210 C   0  0  0  0  0  0  0  0  0  0  0  0
   38.4930   28.5700   28.0740 N   0  0  0  0  0  0  0  0  0  0  0  0
   39.4080   27.5710   28.2530 C   0  0  0  0  0  0  0  0  0  0  0  0
   39.3760   26.8280   29.3820 N   0  0  0  0  0  0  0  0  0  0  0  0
   36.7840   28.2410   30.9500 H   0  0  0  0  0  0  0  0  0  0  0  0
   36.8220   29.6390   28.8570 H   0  0  0  0  0  0  0  0  0  0  0  0
   40.1570   27.3720   27.4920 H   0  0  0  0  0  0  0  0  0  0  0  0
   38.7200   26.0050   33.8250 O   0  0  0  0  0  0  0  0  0  0  0  0
   36.7830   27.4920   34.7300 O   0  0  0  0  0  0  0  0  0  0  0  0
   37.9560   26.6430   35.1990 P   0  0  2  0  0  0  0  0  0  0  0  0
   38.9760   27.6900   36.0260 O   0  0  0  0  0  0  0  0  0  0  0  0
   39.3280   28.3830   35.4150 H   0  0  0  0  0  0  0  0  0  0  0  0
   37.4640   25.4270   36.2280 O   0  0  0  0  0  0  0  0  0  0  0  0
   39.5710   21.5610   38.3000 H   0  0  0  0  0  0  0  0  0  0  0  0
   39.5590   22.5660   38.1160 N   0  0  0  0  0  0  0  0  0  0  0  0
   40.0600   22.9030   36.7960 C   0  0  0  0  0  2  0  0  0  0  0  0
   39.6010   24.3030   36.4330 C   0  0  0  0  0  2  0  0  0  0  0  0
   38.1550   24.2530   36.1530 C   0  0  0  0  0  3  0  0  0  0  0  0
   37.4740   23.2440   37.0270 C   0  0  0  0  0  2  0  0  0  0  0  0
   38.2330   23.1120   38.3340 C   0  0  0  0  0  2  0  0  0  0  0  0
  1  2  1  0  0  0  0
  1 16  1  0  0  0  0
  3  1  1  0  0  0  0
  4  6  1  0  0  0  0
  4  1  1  0  0  0  0
  5  4  1  0  0  0  0
  7  4  1  0  0  0  0
  8  7  1  0  0  0  0
  8 13  1  0  0  0  0
  9  8  2  0  0  0  0
 10 11  2  0  0  0  0
 10  9  1  0  0  0  0
 11 12  1  0  0  0  0
 12  7  2  0  0  0  0
 14  9  1  0  0  0  0
 15 11  1  0  0  0  0
 16 18  1  0  0  0  0
 18 17  2  6  0  0  0
 18 19  1  0  0  0  0
 18 21  1  0  0  0  0
 20 19  1  0  0  0  0
 23 22  1  0  0  0  0
 23 28  1  0  0  0  0
 24 23  1  0  0  0  0
 25 24  1  0  0  0  0
 26 21  1  0  0  0  0
 26 25  1  0  0  0  0
 26 27  1  0  0  0  0
 27 28  1  0  0  0  0
M  END
>  <minimizedAffinity>
-4.31301165

$$$$
