
 OpenBabel03262521463D

 28 29  0  0  0  0  0  0  0  0999 V2000
   37.0020   29.2450   50.6380 C   0  0  0  0  0  0  0  0  0  0  0  0
   37.5170   28.3590   51.0820 H   0  0  0  0  0  0  0  0  0  0  0  0
   36.9370   29.0540   49.5460 H   0  0  0  0  0  0  0  0  0  0  0  0
   37.7440   30.5360   50.8490 C   0  0  0  0  0  0  0  0  0  0  0  0
   37.1880   31.2210   51.5540 H   0  0  0  0  0  0  0  0  0  0  0  0
   38.6860   30.2800   51.3860 H   0  0  0  0  0  0  0  0  0  0  0  0
   38.1230   31.2110   49.6120 C   0  0  0  0  0  0  0  0  0  0  0  0
   38.5410   32.5360   49.6010 C   0  0  0  0  0  0  0  0  0  0  0  0
   38.8900   33.1100   48.3620 C   0  0  0  0  0  0  0  0  0  0  0  0
   38.7950   32.3300   47.2360 N   0  0  0  0  0  0  0  0  0  0  0  0
   38.3780   31.0300   47.3040 C   0  0  0  0  0  0  0  0  0  0  0  0
   38.0480   30.4950   48.5020 N   0  0  0  0  0  0  0  0  0  0  0  0
   38.6030   33.1180   50.4990 H   0  0  0  0  0  0  0  0  0  0  0  0
   39.2230   34.1380   48.2830 H   0  0  0  0  0  0  0  0  0  0  0  0
   38.3110   30.4290   46.4020 H   0  0  0  0  0  0  0  0  0  0  0  0
   35.7100   29.4100   51.1390 O   0  0  0  0  0  0  0  0  0  0  0  0
   34.7260   30.6310   49.0610 O   0  0  0  0  0  0  0  0  0  0  0  0
   34.5590   29.3680   49.8940 P   0  0  2  0  0  0  0  0  0  0  0  0
   32.9980   29.4330   50.5130 O   0  0  0  0  0  0  0  0  0  0  0  0
   32.8980   30.2110   51.1150 H   0  0  0  0  0  0  0  0  0  0  0  0
   34.7270   27.9920   48.9690 O   0  0  0  0  0  0  0  0  0  0  0  0
   30.9890   28.7900   45.9580 H   0  0  0  0  0  0  0  0  0  0  0  0
   31.4430   28.9450   46.8600 N   0  0  0  0  0  0  0  0  0  0  0  0
   31.2640   27.8350   47.7780 C   0  0  0  0  0  0  0  0  0  0  0  0
   32.3060   27.9270   48.8770 C   0  0  0  0  0  0  0  0  0  0  0  0
   33.6150   27.5730   48.3000 C   0  0  0  0  0  0  0  0  0  0  0  0
   33.7150   28.0330   46.8770 C   0  0  0  0  0  0  0  0  0  0  0  0
   32.8470   29.2620   46.6800 C   0  0  0  0  0  0  0  0  0  0  0  0
  1  4  1  0  0  0  0
  1  2  1  0  0  0  0
  1 16  1  0  0  0  0
  3  1  1  0  0  0  0
  4  6  1  0  0  0  0
  4  5  1  0  0  0  0
  7  4  1  0  0  0  0
  8  7  1  0  0  0  0
  8 13  1  0  0  0  0
  9  8  2  0  0  0  0
 10 11  2  0  0  0  0
 10  9  1  0  0  0  0
 11 12  1  0  0  0  0
 12  7  2  0  0  0  0
 14  9  1  0  0  0  0
 15 11  1  0  0  0  0
 18 17  2  6  0  0  0
 18 19  1  0  0  0  0
 18 16  1  0  0  0  0
 19 20  1  0  0  0  0
 21 18  1  0  0  0  0
 22 23  1  0  0  0  0
 23 24  1  0  0  0  0
 24 25  1  0  0  0  0
 26 25  1  0  0  0  0
 26 21  1  0  0  0  0
 27 26  1  0  0  0  0
 28 23  1  0  0  0  0
 28 27  1  0  0  0  0
M  END
>  <minimizedAffinity>
-5.32105541

>  <minimizedRMSD>
0.847117603

$$$$
