
 OpenBabel03272509433D

 36 38  0  0  1  0  0  0  0  0999 V2000
   37.1210   30.9410   49.0360 C   0  0  0  0  0  0  0  0  0  0  0  0
   36.8750   31.9070   50.0110 C   0  0  0  0  0  0  0  0  0  0  0  0
   37.4870   33.1490   49.9850 C   0  0  0  0  0  0  0  0  0  0  0  0
   38.3780   33.4530   48.9550 C   0  0  0  0  0  0  0  0  0  0  0  0
   38.6120   32.5010   48.0050 C   0  0  0  0  0  0  0  0  0  0  0  0
   37.9820   31.2680   48.0650 C   0  0  0  0  0  0  0  0  0  0  0  0
   36.1800   31.6930   50.8300 H   0  0  0  0  0  0  0  0  0  0  0  0
   37.2450   33.8390   50.7740 H   0  0  0  0  0  0  0  0  0  0  0  0
   38.7950   34.4360   49.0240 H   0  0  0  0  0  0  0  0  0  0  0  0
   39.3260   32.8850   47.2750 H   0  0  0  0  0  0  0  0  0  0  0  0
   36.5080   29.6310   49.0820 C   0  0  2  0  0  0  0  0  0  0  0  0
   37.0040   29.0340   48.2220 H   0  0  0  0  0  0  0  0  0  0  0  0
   33.6430   29.9610   46.8740 C   0  0  0  0  0  0  0  0  0  0  0  0
   32.8990   28.8260   47.1110 C   0  0  0  0  0  0  0  0  0  0  0  0
   33.3430   27.9540   48.0860 C   0  0  0  0  0  0  0  0  0  0  0  0
   34.4980   28.2430   48.7800 N   0  0  0  0  0  0  0  0  0  0  0  0
   35.1650   29.3450   48.5030 C   0  0  0  0  0  0  0  0  0  0  0  0
   34.7450   30.2110   47.5540 N   0  0  0  0  0  0  0  0  0  0  0  0
   33.2620   30.6070   46.1130 H   0  0  0  0  0  0  0  0  0  0  0  0
   31.9860   28.5350   46.6070 H   0  0  0  0  0  0  0  0  0  0  0  0
   32.8350   27.0230   48.3650 H   0  0  0  0  0  0  0  0  0  0  0  0
   36.9590   28.9130   50.0480 O   0  0  0  0  0  0  0  0  0  0  0  0
   36.4290   28.5780   50.7850 H   0  0  0  0  0  0  0  0  0  0  0  0
   38.3440   30.3460   47.0150 C   0  0  0  0  0  3  0  0  0  0  0  0
   38.6940   30.7160   45.7790 C   0  0  0  0  0  3  0  0  0  0  0  0
   39.1210   29.8640   44.6440 C   0  0  0  0  0  0  0  0  0  0  0  0
   38.2430   29.3630   44.1600 H   0  0  0  0  0  0  0  0  0  0  0  0
   39.7590   29.0240   45.0020 H   0  0  0  0  0  0  0  0  0  0  0  0
   40.0850   30.8420   43.4870 S   0  0  0  0  0  0  0  0  0  0  0  0
   39.7690   28.7570   39.8000 H   0  0  0  0  0  0  0  0  0  0  0  0
   40.6880   29.1370   39.5240 N   0  0  0  0  0  0  0  0  0  0  0  0
   41.7210   28.6680   40.4280 C   0  0  0  0  0  2  0  0  0  0  0  0
   41.5740   29.2380   41.8260 C   0  0  0  0  0  2  0  0  0  0  0  0
   40.2930   30.0440   41.8750 C   0  0  0  0  0  3  0  0  0  0  0  0
   40.4110   31.1530   40.8440 C   0  0  0  0  0  2  0  0  0  0  0  0
   40.6800   30.5910   39.4760 C   0  0  0  0  0  2  0  0  0  0  0  0
  1 11  1  0  0  0  0
  1  2  1  0  0  0  0
  2  7  1  0  0  0  0
  3  2  2  0  0  0  0
  3  8  1  0  0  0  0
  4  9  1  0  0  0  0
  4  3  1  0  0  0  0
  5  6  1  0  0  0  0
  5  4  2  0  0  0  0
  6  1  2  0  0  0  0
 10  5  1  0  0  0  0
 11 12  1  6  0  0  0
 11 22  1  0  0  0  0
 13 14  2  0  0  0  0
 13 18  1  0  0  0  0
 14 15  1  0  0  0  0
 15 21  1  0  0  0  0
 15 16  2  0  0  0  0
 17 16  1  0  0  0  0
 17 11  1  0  0  0  0
 18 17  2  0  0  0  0
 19 13  1  0  0  0  0
 20 14  1  0  0  0  0
 22 23  1  0  0  0  0
 24  6  1  0  0  0  0
 25 24  2  0  0  0  0
 26 28  1  0  0  0  0
 26 25  1  0  0  0  0
 27 26  1  0  0  0  0
 29 26  1  0  0  0  0
 31 30  1  0  0  0  0
 31 32  1  0  0  0  0
 32 33  1  0  0  0  0
 33 34  1  0  0  0  0
 34 29  1  0  0  0  0
 35 34  1  0  0  0  0
 36 31  1  0  0  0  0
 36 35  1  0  0  0  0
M  END
>  <minimizedAffinity>
-5.87425709

>  <minimizedRMSD>
0.654138207

$$$$
