
 OpenBabel03272509433D

 36 38  0  0  1  0  0  0  0  0999 V2000
   37.0370   30.9130   49.0810 C   0  0  0  0  0  0  0  0  0  0  0  0
   36.7480   31.8350   50.0860 C   0  0  0  0  0  0  0  0  0  0  0  0
   37.3320   33.0900   50.1210 C   0  0  0  0  0  0  0  0  0  0  0  0
   38.2390   33.4530   49.1240 C   0  0  0  0  0  0  0  0  0  0  0  0
   38.5140   32.5430   48.1440 C   0  0  0  0  0  0  0  0  0  0  0  0
   37.9110   31.2960   48.1430 C   0  0  0  0  0  0  0  0  0  0  0  0
   36.0400   31.5740   50.8810 H   0  0  0  0  0  0  0  0  0  0  0  0
   37.0570   33.7430   50.9300 H   0  0  0  0  0  0  0  0  0  0  0  0
   38.6320   34.4410   49.2410 H   0  0  0  0  0  0  0  0  0  0  0  0
   39.2350   32.9710   47.4460 H   0  0  0  0  0  0  0  0  0  0  0  0
   36.4530   29.5890   49.0630 C   0  0  2  0  0  0  0  0  0  0  0  0
   36.9550   29.0490   48.1710 H   0  0  0  0  0  0  0  0  0  0  0  0
   33.5940   29.9230   46.8460 C   0  0  0  0  0  0  0  0  0  0  0  0
   32.8510   28.7870   47.0780 C   0  0  0  0  0  0  0  0  0  0  0  0
   33.2910   27.9130   48.0530 C   0  0  0  0  0  0  0  0  0  0  0  0
   34.4440   28.2010   48.7510 N   0  0  0  0  0  0  0  0  0  0  0  0
   35.1120   29.3030   48.4790 C   0  0  0  0  0  0  0  0  0  0  0  0
   34.6940   30.1720   47.5300 N   0  0  0  0  0  0  0  0  0  0  0  0
   33.2160   30.5710   46.0860 H   0  0  0  0  0  0  0  0  0  0  0  0
   31.9390   28.4970   46.5700 H   0  0  0  0  0  0  0  0  0  0  0  0
   32.7830   26.9810   48.3280 H   0  0  0  0  0  0  0  0  0  0  0  0
   36.9260   28.8320   49.9880 O   0  0  0  0  0  0  0  0  0  0  0  0
   36.4100   28.4480   50.7100 H   0  0  0  0  0  0  0  0  0  0  0  0
   38.3170   30.4220   47.0670 C   0  0  0  0  0  3  0  0  0  0  0  0
   38.7770   30.8500   45.8870 C   0  0  0  0  0  3  0  0  0  0  0  0
   39.2570   30.0500   44.7360 C   0  0  0  0  0  0  0  0  0  0  0  0
   38.4010   29.6770   44.1160 H   0  0  0  0  0  0  0  0  0  0  0  0
   39.7700   29.1250   45.0870 H   0  0  0  0  0  0  0  0  0  0  0  0
   40.4350   31.0130   43.7830 S   0  0  0  0  0  0  0  0  0  0  0  0
   41.1990   30.4480   39.6430 H   0  0  0  0  0  0  0  0  0  0  0  0
   40.8250   29.4890   39.7190 N   0  0  0  0  0  0  0  0  0  0  0  0
   39.4270   29.5210   40.1050 C   0  0  0  0  0  2  0  0  0  0  0  0
   39.2240   30.0320   41.5190 C   0  0  0  0  0  2  0  0  0  0  0  0
   40.5680   30.4750   42.0580 C   0  0  0  0  0  3  0  0  0  0  0  0
   41.4880   29.2650   42.0420 C   0  0  0  0  0  2  0  0  0  0  0  0
   41.5910   28.6850   40.6590 C   0  0  0  0  0  2  0  0  0  0  0  0
  1  2  1  0  0  0  0
  2  3  2  0  0  0  0
  2  7  1  0  0  0  0
  3  8  1  0  0  0  0
  4  9  1  0  0  0  0
  4  3  1  0  0  0  0
  5  4  2  0  0  0  0
  6  5  1  0  0  0  0
  6  1  2  0  0  0  0
 10  5  1  0  0  0  0
 11 12  1  6  0  0  0
 11  1  1  0  0  0  0
 11 22  1  0  0  0  0
 13 14  2  0  0  0  0
 13 18  1  0  0  0  0
 14 15  1  0  0  0  0
 15 21  1  0  0  0  0
 15 16  2  0  0  0  0
 17 16  1  0  0  0  0
 17 11  1  0  0  0  0
 18 17  2  0  0  0  0
 19 13  1  0  0  0  0
 20 14  1  0  0  0  0
 22 23  1  0  0  0  0
 24  6  1  0  0  0  0
 25 24  2  0  0  0  0
 26 28  1  0  0  0  0
 26 25  1  0  0  0  0
 27 26  1  0  0  0  0
 29 26  1  0  0  0  0
 30 31  1  0  0  0  0
 31 32  1  0  0  0  0
 31 36  1  0  0  0  0
 32 33  1  0  0  0  0
 33 34  1  0  0  0  0
 34 29  1  0  0  0  0
 35 34  1  0  0  0  0
 36 35  1  0  0  0  0
M  END
>  <minimizedAffinity>
-5.92788982

>  <minimizedRMSD>
0.631502748

$$$$
