
 OpenBabel03272509433D

 36 38  0  0  1  0  0  0  0  0999 V2000
   37.0250   30.9110   49.0860 C   0  0  0  0  0  0  0  0  0  0  0  0
   36.7300   31.8200   50.1020 C   0  0  0  0  0  0  0  0  0  0  0  0
   37.3090   33.0780   50.1520 C   0  0  0  0  0  0  0  0  0  0  0  0
   38.2150   33.4560   49.1610 C   0  0  0  0  0  0  0  0  0  0  0  0
   38.4970   32.5590   48.1710 C   0  0  0  0  0  0  0  0  0  0  0  0
   37.8990   31.3090   48.1540 C   0  0  0  0  0  0  0  0  0  0  0  0
   36.0230   31.5470   50.8920 H   0  0  0  0  0  0  0  0  0  0  0  0
   37.0300   33.7200   50.9680 H   0  0  0  0  0  0  0  0  0  0  0  0
   38.6030   34.4450   49.2890 H   0  0  0  0  0  0  0  0  0  0  0  0
   39.2160   32.9980   47.4780 H   0  0  0  0  0  0  0  0  0  0  0  0
   36.4480   29.5840   49.0520 C   0  0  2  0  0  0  0  0  0  0  0  0
   36.9490   29.0590   48.1510 H   0  0  0  0  0  0  0  0  0  0  0  0
   33.5870   29.9240   46.8380 C   0  0  0  0  0  0  0  0  0  0  0  0
   32.8430   28.7880   47.0690 C   0  0  0  0  0  0  0  0  0  0  0  0
   33.2840   27.9120   48.0420 C   0  0  0  0  0  0  0  0  0  0  0  0
   34.4380   28.1980   48.7400 N   0  0  0  0  0  0  0  0  0  0  0  0
   35.1060   29.3010   48.4690 C   0  0  0  0  0  0  0  0  0  0  0  0
   34.6880   30.1710   47.5220 N   0  0  0  0  0  0  0  0  0  0  0  0
   33.2090   30.5730   46.0800 H   0  0  0  0  0  0  0  0  0  0  0  0
   31.9310   28.4990   46.5620 H   0  0  0  0  0  0  0  0  0  0  0  0
   32.7760   26.9800   48.3160 H   0  0  0  0  0  0  0  0  0  0  0  0
   36.9280   28.8170   49.9650 O   0  0  0  0  0  0  0  0  0  0  0  0
   36.4160   28.4210   50.6830 H   0  0  0  0  0  0  0  0  0  0  0  0
   38.3110   30.4500   47.0690 C   0  0  0  0  0  3  0  0  0  0  0  0
   38.8740   30.8880   45.9380 C   0  0  0  0  0  3  0  0  0  0  0  0
   39.3680   30.0990   44.7850 C   0  0  0  0  0  0  0  0  0  0  0  0
   39.4940   29.0190   45.0560 H   0  0  0  0  0  0  0  0  0  0  0  0
   40.3890   30.4330   44.4900 H   0  0  0  0  0  0  0  0  0  0  0  0
   38.2760   30.3390   43.3800 S   0  0  0  0  0  0  0  0  0  0  0  0
   40.0450   28.8270   39.8280 H   0  0  0  0  0  0  0  0  0  0  0  0
   40.0620   29.7850   39.4440 N   0  0  0  0  0  0  0  0  0  0  0  0
   40.9060   30.6400   40.2570 C   0  0  0  0  0  2  0  0  0  0  0  0
   40.3320   30.8820   41.6400 C   0  0  0  0  0  2  0  0  0  0  0  0
   39.0830   30.0370   41.7870 C   0  0  0  0  0  3  0  0  0  0  0  0
   38.1070   30.4720   40.7070 C   0  0  0  0  0  2  0  0  0  0  0  0
   38.7230   30.3480   39.3410 C   0  0  0  0  0  2  0  0  0  0  0  0
  1  2  1  0  0  0  0
  2  3  2  0  0  0  0
  2  7  1  0  0  0  0
  3  8  1  0  0  0  0
  4  9  1  0  0  0  0
  4  3  1  0  0  0  0
  5  4  2  0  0  0  0
  6  5  1  0  0  0  0
  6  1  2  0  0  0  0
 10  5  1  0  0  0  0
 11 12  1  6  0  0  0
 11  1  1  0  0  0  0
 11 22  1  0  0  0  0
 13 14  2  0  0  0  0
 13 18  1  0  0  0  0
 14 15  1  0  0  0  0
 15 21  1  0  0  0  0
 15 16  2  0  0  0  0
 17 16  1  0  0  0  0
 17 11  1  0  0  0  0
 18 17  2  0  0  0  0
 19 13  1  0  0  0  0
 20 14  1  0  0  0  0
 22 23  1  0  0  0  0
 24  6  1  0  0  0  0
 25 24  2  0  0  0  0
 26 27  1  0  0  0  0
 26 25  1  0  0  0  0
 28 26  1  0  0  0  0
 29 26  1  0  0  0  0
 31 30  1  0  0  0  0
 31 32  1  0  0  0  0
 32 33  1  0  0  0  0
 33 34  1  0  0  0  0
 34 29  1  0  0  0  0
 35 34  1  0  0  0  0
 36 31  1  0  0  0  0
 36 35  1  0  0  0  0
M  END
>  <minimizedAffinity>
-5.51941395

>  <minimizedRMSD>
0.57540983

$$$$
