
 OpenBabel03272509313D

 36 38  0  0  1  0  0  0  0  0999 V2000
   36.3070   30.7250   48.9820 C   0  0  2  0  0  0  0  0  0  0  0  0
   37.2650   31.5780   49.7620 C   0  0  0  0  0  0  0  0  0  0  0  0
   38.1390   30.7760   50.7030 C   0  0  0  0  0  0  0  0  0  0  0  0
   37.2550   29.9910   51.6750 C   0  0  0  0  0  0  0  0  0  0  0  0
   36.0360   29.3890   51.0380 C   0  0  0  0  0  0  0  0  0  0  0  0
   36.2370   29.3340   49.5140 C   0  0  1  0  0  0  0  0  0  0  0  0
   35.2510   31.1220   48.9730 H   0  0  0  0  0  0  0  0  0  0  0  0
   36.5950   32.1660   50.4750 H   0  0  0  0  0  0  0  0  0  0  0  0
   37.8060   32.3320   49.2210 H   0  0  0  0  0  0  0  0  0  0  0  0
   38.7680   30.0250   50.1900 H   0  0  0  0  0  0  0  0  0  0  0  0
   38.7240   31.5020   51.2710 H   0  0  0  0  0  0  0  0  0  0  0  0
   37.9060   29.2610   52.1840 H   0  0  0  0  0  0  0  0  0  0  0  0
   36.8930   30.7400   52.4110 H   0  0  0  0  0  0  0  0  0  0  0  0
   35.1070   29.9520   51.1890 H   0  0  0  0  0  0  0  0  0  0  0  0
   35.9210   28.3450   51.4020 H   0  0  0  0  0  0  0  0  0  0  0  0
   37.1890   28.8680   49.4530 H   0  0  0  0  0  0  0  0  0  0  0  0
   33.9610   28.3130   49.0650 C   0  0  0  0  0  0  0  0  0  0  0  0
   33.1720   28.9180   49.8500 O   0  0  0  0  0  0  0  0  0  0  0  0
   35.3550   28.4580   48.8350 N   0  0  0  0  0  0  0  0  0  0  0  0
   35.6390   27.7900   48.0520 H   0  0  0  0  0  0  0  0  0  0  0  0
   33.0980   27.3790   48.4060 N   0  0  0  0  0  0  0  0  0  0  0  0
   31.6700   27.6000   48.5240 C   0  0  0  0  0  2  0  0  0  0  0  0
   31.1590   28.1560   47.2010 C   0  0  0  0  0  2  0  0  0  0  0  0
   32.0320   27.5900   46.0810 C   0  0  0  0  0  3  0  0  0  0  0  0
   32.9410   28.2050   45.9590 H   0  0  0  0  0  0  0  0  0  0  0  0
   32.3900   26.1560   46.4550 C   0  0  0  0  0  2  0  0  0  0  0  0
   33.3960   26.1890   47.5950 C   0  0  0  0  0  2  0  0  0  0  0  0
   36.6880   30.6680   47.5460 C   0  0  0  0  0  0  0  0  0  0  0  0
   38.0420   30.9500   47.2640 C   0  0  0  0  0  0  0  0  0  0  0  0
   38.4170   30.8990   45.9160 C   0  0  0  0  0  0  0  0  0  0  0  0
   37.4700   30.5830   44.9700 N   0  0  0  0  0  0  0  0  0  0  0  0
   36.1670   30.3170   45.3010 C   0  0  0  0  0  0  0  0  0  0  0  0
   35.7930   30.3640   46.5960 N   0  0  0  0  0  0  0  0  0  0  0  0
   38.8560   31.1970   47.9110 H   0  0  0  0  0  0  0  0  0  0  0  0
   39.4100   31.0900   45.5470 H   0  0  0  0  0  0  0  0  0  0  0  0
   35.4810   30.0770   44.4980 H   0  0  0  0  0  0  0  0  0  0  0  0
  1  7  1  1  0  0  0
  1  6  1  0  0  0  0
  1  2  1  0  0  0  0
  2  8  1  0  0  0  0
  2  3  1  0  0  0  0
  3 11  1  0  0  0  0
  3  4  1  0  0  0  0
  4 12  1  0  0  0  0
  4 13  1  0  0  0  0
  5 14  1  0  0  0  0
  5 15  1  0  0  0  0
  5  4  1  0  0  0  0
  6 16  1  6  0  0  0
  6  5  1  0  0  0  0
  9  2  1  0  0  0  0
 10  3  1  0  0  0  0
 17 18  2  0  0  0  0
 19 17  1  0  0  0  0
 19  6  1  0  0  0  0
 20 19  1  0  0  0  0
 21 22  1  0  0  0  0
 21 17  1  0  0  0  0
 23 22  1  0  0  0  0
 24 26  1  0  0  0  0
 24 23  1  0  0  0  0
 25 24  1  0  0  0  0
 26 27  1  0  0  0  0
 27 21  1  0  0  0  0
 28  1  1  0  0  0  0
 29 28  1  0  0  0  0
 29 34  1  0  0  0  0
 30 29  2  0  0  0  0
 31 32  2  0  0  0  0
 31 30  1  0  0  0  0
 32 33  1  0  0  0  0
 33 28  2  0  0  0  0
 35 30  1  0  0  0  0
 36 32  1  0  0  0  0
M  END
>  <minimizedAffinity>
-6.2130661

>  <minimizedRMSD>
0.400774539

$$$$
