
 OpenBabel03272503043D

 30 32  0  0  0  0  0  0  0  0999 V2000
   38.0930   30.1310   47.3870 F   0  0  0  0  0  0  0  0  0  0  0  0
   38.4470   31.3650   47.8390 C   0  0  0  0  0  0  0  0  0  0  0  0
   37.9350   31.8100   49.0270 C   0  0  0  0  0  0  0  0  0  0  0  0
   38.3300   33.0630   49.4280 C   0  0  0  0  0  0  0  0  0  0  0  0
   39.1940   33.8500   48.6960 C   0  0  0  0  0  0  0  0  0  0  0  0
   39.6950   33.3670   47.4980 C   0  0  0  0  0  0  0  0  0  0  0  0
   39.3140   32.0980   47.0600 C   0  0  0  0  0  0  0  0  0  0  0  0
   37.9410   33.4420   50.3640 H   0  0  0  0  0  0  0  0  0  0  0  0
   39.4900   34.8420   49.0420 H   0  0  0  0  0  0  0  0  0  0  0  0
   40.3710   33.9880   46.9300 H   0  0  0  0  0  0  0  0  0  0  0  0
   38.9950   31.8890   44.7040 C   0  0  0  0  0  0  0  0  0  0  0  0
   37.9840   32.6110   44.9460 O   0  0  0  0  0  0  0  0  0  0  0  0
   39.8140   31.5780   45.8310 N   0  0  0  0  0  0  0  0  0  0  0  0
   40.6660   31.0160   45.6280 H   0  0  0  0  0  0  0  0  0  0  0  0
   39.2360   31.4540   43.3760 N   0  0  0  0  0  0  0  0  0  0  0  0
   39.6010   30.0710   43.1430 C   0  0  0  0  0  2  0  0  0  0  0  0
   40.9140   30.1250   42.3900 C   0  0  0  0  0  2  0  0  0  0  0  0
   40.6220   30.6850   41.0150 C   0  0  0  0  0  3  0  0  0  0  0  0
   40.4270   29.7750   40.3720 H   0  0  0  0  0  0  0  0  0  0  0  0
   39.4530   31.6060   40.9570 C   0  0  0  0  0  2  0  0  0  0  0  0
   39.1350   32.3320   42.2270 C   0  0  0  0  0  2  0  0  0  0  0  0
   36.4970   29.4470   51.6050 C   0  0  0  0  0  0  0  0  0  0  0  0
   37.4060   30.2790   50.9170 C   0  0  0  0  0  0  0  0  0  0  0  0
   37.0230   30.9420   49.7650 C   0  0  0  0  0  0  0  0  0  0  0  0
   35.7370   30.7520   49.3320 N   0  0  0  0  0  0  0  0  0  0  0  0
   34.8860   29.9500   50.0090 C   0  0  0  0  0  0  0  0  0  0  0  0
   35.2550   29.3190   51.1080 N   0  0  0  0  0  0  0  0  0  0  0  0
   36.8660   28.9560   52.5050 H   0  0  0  0  0  0  0  0  0  0  0  0
   38.4180   30.4240   51.2640 H   0  0  0  0  0  0  0  0  0  0  0  0
   33.8610   29.7710   49.7030 H   0  0  0  0  0  0  0  0  0  0  0  0
  1  2  1  0  0  0  0
  2  3  1  0  0  0  0
  3  4  2  0  0  0  0
  3 24  1  0  0  0  0
  4  8  1  0  0  0  0
  5  9  1  0  0  0  0
  5  4  1  0  0  0  0
  6  5  2  0  0  0  0
  7  6  1  0  0  0  0
  7  2  2  0  0  0  0
 10  6  1  0  0  0  0
 11 12  2  0  0  0  0
 11 13  1  0  0  0  0
 13  7  1  0  0  0  0
 14 13  1  0  0  0  0
 15 11  1  0  0  0  0
 16 15  1  0  0  0  0
 17 16  1  0  0  0  0
 18 17  1  0  0  0  0
 19 18  1  0  0  0  0
 20 18  1  0  0  0  0
 20 21  1  0  0  0  0
 21 15  1  0  0  0  0
 22 28  1  0  0  0  0
 23 29  1  0  0  0  0
 23 22  2  0  0  0  0
 24 23  1  0  0  0  0
 25 24  2  0  0  0  0
 25 26  1  0  0  0  0
 26 27  2  0  0  0  0
 27 22  1  0  0  0  0
 30 26  1  0  0  0  0
M  END
>  <minimizedAffinity>
-6.83829117

>  <minimizedRMSD>
0.418702364

$$$$
