
 OpenBabel03272506413D

 17 18  0  0  0  0  0  0  0  0999 V2000
   36.6420   26.7970   32.3000 C   0  0  0  0  0  0  0  0  0  0  0  0
   36.5660   27.8950   33.1790 C   0  0  0  0  0  0  0  0  0  0  0  0
   37.0330   27.7220   34.4920 C   0  0  0  0  0  0  0  0  0  0  0  0
   37.5300   26.5120   34.8420 N   0  0  0  0  0  0  0  0  0  0  0  0
   37.5920   25.4850   33.9910 C   0  0  0  0  0  0  0  0  0  0  0  0
   37.1520   25.6250   32.7310 N   0  0  0  0  0  0  0  0  0  0  0  0
   36.2780   26.9280   31.2760 H   0  0  0  0  0  0  0  0  0  0  0  0
   36.1500   28.8140   32.7870 H   0  0  0  0  0  0  0  0  0  0  0  0
   36.9700   28.5610   35.1450 H   0  0  0  0  0  0  0  0  0  0  0  0
   38.2430   23.8850   34.4380 S   0  0  0  0  0  0  0  0  0  0  0  0
   38.4400   21.8460   38.3280 H   0  0  0  0  0  0  0  0  0  0  0  0
   39.0100   22.6420   38.6460 N   0  0  0  0  0  0  0  0  0  0  0  0
   38.2520   23.8500   38.4990 C   0  0  0  0  0  2  0  0  0  0  0  0
   37.7680   23.9280   37.0660 C   0  0  0  0  0  2  0  0  0  0  0  0
   38.9610   23.9460   36.1080 C   0  0  0  0  0  3  0  0  0  0  0  0
   39.7630   22.6830   36.3820 C   0  0  0  0  0  2  0  0  0  0  0  0
   40.1940   22.7250   37.8330 C   0  0  0  0  0  2  0  0  0  0  0  0
  1  6  2  0  0  0  0
  1  2  1  0  0  0  0
  2  3  2  0  0  0  0
  3  4  1  0  0  0  0
  3  9  1  0  0  0  0
  5 10  1  0  0  0  0
  5  4  2  0  0  0  0
  6  5  1  0  0  0  0
  7  1  1  0  0  0  0
  8  2  1  0  0  0  0
 10 15  1  0  0  0  0
 11 12  1  0  0  0  0
 13 12  1  0  0  0  0
 14 13  1  0  0  0  0
 15 16  1  0  0  0  0
 15 14  1  0  0  0  0
 16 17  1  0  0  0  0
 17 12  1  0  0  0  0
M  END
>  <minimizedAffinity>
-4.30835104

$$$$

 OpenBabel03272506413D

 17 18  0  0  0  0  0  0  0  0999 V2000
   36.3880   27.6010   32.5220 C   0  0  0  0  0  0  0  0  0  0  0  0
   36.1950   26.4800   31.6910 C   0  0  0  0  0  0  0  0  0  0  0  0
   36.6720   25.2380   32.1380 C   0  0  0  0  0  0  0  0  0  0  0  0
   37.2920   25.1840   33.3420 N   0  0  0  0  0  0  0  0  0  0  0  0
   37.4640   26.2610   34.1120 C   0  0  0  0  0  0  0  0  0  0  0  0
   37.0170   27.4590   33.7070 N   0  0  0  0  0  0  0  0  0  0  0  0
   36.0180   28.5720   32.1760 H   0  0  0  0  0  0  0  0  0  0  0  0
   35.6850   26.6440   30.7500 H   0  0  0  0  0  0  0  0  0  0  0  0
   36.5180   24.4000   31.5000 H   0  0  0  0  0  0  0  0  0  0  0  0
   38.2780   26.2060   35.6990 S   0  0  0  0  0  0  0  0  0  0  0  0
   40.1040   23.4000   38.5490 H   0  0  0  0  0  0  0  0  0  0  0  0
   39.4340   22.7020   38.1950 N   0  0  0  0  0  0  0  0  0  0  0  0
   39.6340   22.5340   36.7860 C   0  0  0  0  0  2  0  0  0  0  0  0
   39.5550   23.9010   36.1360 C   0  0  0  0  0  2  0  0  0  0  0  0
   38.1830   24.5270   36.3930 C   0  0  0  0  0  3  0  0  0  0  0  0
   38.0060   24.5910   37.9020 C   0  0  0  0  0  2  0  0  0  0  0  0
   38.0960   23.1750   38.4300 C   0  0  0  0  0  2  0  0  0  0  0  0
  1  6  1  0  0  0  0
  2  3  1  0  0  0  0
  2  1  2  0  0  0  0
  3  4  2  0  0  0  0
  4  5  1  0  0  0  0
  5 10  1  0  0  0  0
  6  5  2  0  0  0  0
  7  1  1  0  0  0  0
  8  2  1  0  0  0  0
  9  3  1  0  0  0  0
 10 15  1  0  0  0  0
 12 17  1  0  0  0  0
 12 11  1  0  0  0  0
 13 12  1  0  0  0  0
 14 15  1  0  0  0  0
 14 13  1  0  0  0  0
 15 16  1  0  0  0  0
 16 17  1  0  0  0  0
M  END
>  <minimizedAffinity>
-4.13851023

$$$$

 OpenBabel03272506413D

 17 18  0  0  0  0  0  0  0  0999 V2000
   36.6610   23.4200   31.8890 C   0  0  0  0  0  0  0  0  0  0  0  0
   35.9520   24.4440   31.2300 C   0  0  0  0  0  0  0  0  0  0  0  0
   36.1210   25.7610   31.6850 C   0  0  0  0  0  0  0  0  0  0  0  0
   36.9550   25.9770   32.7320 N   0  0  0  0  0  0  0  0  0  0  0  0
   37.6160   24.9890   33.3410 C   0  0  0  0  0  0  0  0  0  0  0  0
   37.4710   23.7220   32.9240 N   0  0  0  0  0  0  0  0  0  0  0  0
   36.5310   22.3910   31.5370 H   0  0  0  0  0  0  0  0  0  0  0  0
   35.3150   24.1520   30.4050 H   0  0  0  0  0  0  0  0  0  0  0  0
   35.5800   26.5250   31.1780 H   0  0  0  0  0  0  0  0  0  0  0  0
   38.7160   25.2580   34.7200 S   0  0  0  0  0  0  0  0  0  0  0  0
   39.9860   23.8030   38.6690 H   0  0  0  0  0  0  0  0  0  0  0  0
   39.4650   22.9420   38.4500 N   0  0  0  0  0  0  0  0  0  0  0  0
   40.0020   22.3590   37.2570 C   0  0  0  0  0  2  0  0  0  0  0  0
   39.9940   23.4180   36.1730 C   0  0  0  0  0  2  0  0  0  0  0  0
   38.5640   23.8960   35.9160 C   0  0  0  0  0  3  0  0  0  0  0  0
   38.0310   24.4180   37.2420 C   0  0  0  0  0  2  0  0  0  0  0  0
   38.0820   23.2750   38.2330 C   0  0  0  0  0  2  0  0  0  0  0  0
  1  6  1  0  0  0  0
  2  3  1  0  0  0  0
  2  1  2  0  0  0  0
  3  4  2  0  0  0  0
  4  5  1  0  0  0  0
  5 10  1  0  0  0  0
  6  5  2  0  0  0  0
  7  1  1  0  0  0  0
  8  2  1  0  0  0  0
  9  3  1  0  0  0  0
 10 15  1  0  0  0  0
 12 11  1  0  0  0  0
 13 12  1  0  0  0  0
 14 13  1  0  0  0  0
 15 14  1  0  0  0  0
 15 16  1  0  0  0  0
 16 17  1  0  0  0  0
 17 12  1  0  0  0  0
M  END
>  <minimizedAffinity>
-4.09440327

$$$$

 OpenBabel03272506413D

 17 18  0  0  0  0  0  0  0  0999 V2000
   35.5370   20.5460   33.4820 C   0  0  0  0  0  0  0  0  0  0  0  0
   35.0460   20.8830   32.2040 C   0  0  0  0  0  0  0  0  0  0  0  0
   35.6930   21.9100   31.5000 C   0  0  0  0  0  0  0  0  0  0  0  0
   36.7510   22.5220   32.0840 N   0  0  0  0  0  0  0  0  0  0  0  0
   37.1980   22.1860   33.2970 C   0  0  0  0  0  0  0  0  0  0  0  0
   36.5970   21.2080   33.9900 N   0  0  0  0  0  0  0  0  0  0  0  0
   35.0350   19.7460   34.0350 H   0  0  0  0  0  0  0  0  0  0  0  0
   34.1950   20.3240   31.8390 H   0  0  0  0  0  0  0  0  0  0  0  0
   35.3120   22.1530   30.5350 H   0  0  0  0  0  0  0  0  0  0  0  0
   38.5890   22.9840   34.0790 S   0  0  0  0  0  0  0  0  0  0  0  0
   40.2060   24.0450   38.0270 H   0  0  0  0  0  0  0  0  0  0  0  0
   39.8380   23.1390   38.3520 N   0  0  0  0  0  0  0  0  0  0  0  0
   40.4360   22.0870   37.5840 C   0  0  0  0  0  2  0  0  0  0  0  0
   40.2110   22.3930   36.1160 C   0  0  0  0  0  2  0  0  0  0  0  0
   38.7120   22.4640   35.8170 C   0  0  0  0  0  3  0  0  0  0  0  0
   38.1340   23.5360   36.7290 C   0  0  0  0  0  2  0  0  0  0  0  0
   38.4130   23.1170   38.1560 C   0  0  0  0  0  2  0  0  0  0  0  0
  1  6  1  0  0  0  0
  1  7  1  0  0  0  0
  2  1  2  0  0  0  0
  3  4  2  0  0  0  0
  3  2  1  0  0  0  0
  4  5  1  0  0  0  0
  5  6  2  0  0  0  0
  5 10  1  0  0  0  0
  8  2  1  0  0  0  0
  9  3  1  0  0  0  0
 10 15  1  0  0  0  0
 11 12  1  0  0  0  0
 13 12  1  0  0  0  0
 14 13  1  0  0  0  0
 15 14  1  0  0  0  0
 15 16  1  0  0  0  0
 16 17  1  0  0  0  0
 17 12  1  0  0  0  0
M  END
>  <minimizedAffinity>
-3.88771152

$$$$

 OpenBabel03272506413D

 17 18  0  0  0  0  0  0  0  0999 V2000
   39.6760   22.8830   36.8360 C   0  0  0  0  0  0  0  0  0  0  0  0
   38.7580   23.3860   37.7790 C   0  0  0  0  0  0  0  0  0  0  0  0
   37.8410   24.3590   37.3520 C   0  0  0  0  0  0  0  0  0  0  0  0
   37.8860   24.7620   36.0600 N   0  0  0  0  0  0  0  0  0  0  0  0
   38.7660   24.2700   35.1830 C   0  0  0  0  0  0  0  0  0  0  0  0
   39.6530   23.3390   35.5660 N   0  0  0  0  0  0  0  0  0  0  0  0
   40.3930   22.1240   37.1640 H   0  0  0  0  0  0  0  0  0  0  0  0
   38.8150   22.9890   38.7840 H   0  0  0  0  0  0  0  0  0  0  0  0
   37.1530   24.7300   38.0760 H   0  0  0  0  0  0  0  0  0  0  0  0
   38.8380   24.7910   33.4780 S   0  0  0  0  0  0  0  0  0  0  0  0
   36.4640   25.7850   29.9140 H   0  0  0  0  0  0  0  0  0  0  0  0
   35.6670   25.9040   30.5550 N   0  0  0  0  0  0  0  0  0  0  0  0
   35.9860   26.9170   31.5180 C   0  0  0  0  0  2  0  0  0  0  0  0
   37.2990   26.5410   32.1740 C   0  0  0  0  0  2  0  0  0  0  0  0
   37.1690   25.1860   32.8730 C   0  0  0  0  0  3  0  0  0  0  0  0
   36.7440   24.1840   31.8100 C   0  0  0  0  0  2  0  0  0  0  0  0
   35.4260   24.6610   31.2380 C   0  0  0  0  0  2  0  0  0  0  0  0
  1  7  1  0  0  0  0
  1  2  1  0  0  0  0
  2  8  1  0  0  0  0
  3  2  2  0  0  0  0
  3  9  1  0  0  0  0
  4  3  1  0  0  0  0
  5  6  1  0  0  0  0
  5  4  2  0  0  0  0
  6  1  2  0  0  0  0
 10  5  1  0  0  0  0
 11 12  1  0  0  0  0
 12 17  1  0  0  0  0
 12 13  1  0  0  0  0
 13 14  1  0  0  0  0
 14 15  1  0  0  0  0
 15 10  1  0  0  0  0
 16 15  1  0  0  0  0
 17 16  1  0  0  0  0
M  END
>  <minimizedAffinity>
-3.81068802

$$$$

 OpenBabel03272506413D

 17 18  0  0  0  0  0  0  0  0999 V2000
   37.8250   22.7700   36.3090 C   0  0  0  0  0  0  0  0  0  0  0  0
   37.6910   23.3380   37.5910 C   0  0  0  0  0  0  0  0  0  0  0  0
   38.8280   23.3840   38.4140 C   0  0  0  0  0  0  0  0  0  0  0  0
   39.9900   22.8800   37.9330 N   0  0  0  0  0  0  0  0  0  0  0  0
   40.0920   22.3450   36.7140 C   0  0  0  0  0  0  0  0  0  0  0  0
   39.0210   22.2900   35.9080 N   0  0  0  0  0  0  0  0  0  0  0  0
   36.9410   22.7320   35.6640 H   0  0  0  0  0  0  0  0  0  0  0  0
   36.7130   23.7100   37.8660 H   0  0  0  0  0  0  0  0  0  0  0  0
   38.7110   23.8170   39.3800 H   0  0  0  0  0  0  0  0  0  0  0  0
   41.6150   21.6760   36.0670 S   0  0  0  0  0  0  0  0  0  0  0  0
   42.4080   25.9970   36.2390 H   0  0  0  0  0  0  0  0  0  0  0  0
   43.1070   25.8340   35.5010 N   0  0  0  0  0  0  0  0  0  0  0  0
   42.4580   25.2620   34.3580 C   0  0  0  0  0  2  0  0  0  0  0  0
   41.6990   24.0340   34.8170 C   0  0  0  0  0  2  0  0  0  0  0  0
   42.6650   23.0160   35.4270 C   0  0  0  0  0  3  0  0  0  0  0  0
   43.3770   23.7190   36.5720 C   0  0  0  0  0  2  0  0  0  0  0  0
   44.1000   24.9160   35.9900 C   0  0  0  0  0  2  0  0  0  0  0  0
  1  2  1  0  0  0  0
  2  8  1  0  0  0  0
  2  3  2  0  0  0  0
  3  9  1  0  0  0  0
  4  3  1  0  0  0  0
  5  4  2  0  0  0  0
  6  1  2  0  0  0  0
  6  5  1  0  0  0  0
  7  1  1  0  0  0  0
 10  5  1  0  0  0  0
 12 17  1  0  0  0  0
 12 11  1  0  0  0  0
 13 14  1  0  0  0  0
 13 12  1  0  0  0  0
 14 15  1  0  0  0  0
 15 10  1  0  0  0  0
 15 16  1  0  0  0  0
 17 16  1  0  0  0  0
M  END
>  <minimizedAffinity>
-3.70350504

$$$$

 OpenBabel03272506413D

 17 18  0  0  0  0  0  0  0  0999 V2000
   35.7820   20.8450   33.3040 C   0  0  0  0  0  0  0  0  0  0  0  0
   35.3120   21.4300   32.1120 C   0  0  0  0  0  0  0  0  0  0  0  0
   35.9410   22.6010   31.6590 C   0  0  0  0  0  0  0  0  0  0  0  0
   36.9630   23.1050   32.3910 N   0  0  0  0  0  0  0  0  0  0  0  0
   37.3910   22.5330   33.5200 C   0  0  0  0  0  0  0  0  0  0  0  0
   36.8070   21.4130   33.9730 N   0  0  0  0  0  0  0  0  0  0  0  0
   35.2940   19.9320   33.6610 H   0  0  0  0  0  0  0  0  0  0  0  0
   34.4890   20.9370   31.6110 H   0  0  0  0  0  0  0  0  0  0  0  0
   35.5750   23.0310   30.7560 H   0  0  0  0  0  0  0  0  0  0  0  0
   38.7350   23.1860   34.4950 S   0  0  0  0  0  0  0  0  0  0  0  0
   39.2030   26.9080   36.7870 H   0  0  0  0  0  0  0  0  0  0  0  0
   38.9980   27.4020   35.9070 N   0  0  0  0  0  0  0  0  0  0  0  0
   37.7060   27.0010   35.4340 C   0  0  0  0  0  2  0  0  0  0  0  0
   37.6870   25.4880   35.3510 C   0  0  0  0  0  2  0  0  0  0  0  0
   38.7660   25.0010   34.3820 C   0  0  0  0  0  3  0  0  0  0  0  0
   40.0930   25.5370   34.8990 C   0  0  0  0  0  2  0  0  0  0  0  0
   39.9910   27.0470   34.9280 C   0  0  0  0  0  2  0  0  0  0  0  0
  1  7  1  0  0  0  0
  1  6  1  0  0  0  0
  2  1  2  0  0  0  0
  3  2  1  0  0  0  0
  3  4  2  0  0  0  0
  4  5  1  0  0  0  0
  5  6  2  0  0  0  0
  5 10  1  0  0  0  0
  8  2  1  0  0  0  0
  9  3  1  0  0  0  0
 12 11  1  0  0  0  0
 13 12  1  0  0  0  0
 14 13  1  0  0  0  0
 15 10  1  0  0  0  0
 15 16  1  0  0  0  0
 15 14  1  0  0  0  0
 16 17  1  0  0  0  0
 17 12  1  0  0  0  0
M  END
>  <minimizedAffinity>
-3.61352515

$$$$

 OpenBabel03272506413D

 17 18  0  0  0  0  0  0  0  0999 V2000
   38.0930   23.8130   37.2600 C   0  0  0  0  0  0  0  0  0  0  0  0
   39.2280   22.9970   37.0780 C   0  0  0  0  0  0  0  0  0  0  0  0
   40.1460   23.3580   36.0800 C   0  0  0  0  0  0  0  0  0  0  0  0
   39.8930   24.4680   35.3450 N   0  0  0  0  0  0  0  0  0  0  0  0
   38.8090   25.2260   35.5360 C   0  0  0  0  0  0  0  0  0  0  0  0
   37.9170   24.9030   36.4840 N   0  0  0  0  0  0  0  0  0  0  0  0
   37.3740   23.5350   38.0380 H   0  0  0  0  0  0  0  0  0  0  0  0
   39.3250   22.1360   37.7250 H   0  0  0  0  0  0  0  0  0  0  0  0
   40.9990   22.7330   35.9540 H   0  0  0  0  0  0  0  0  0  0  0  0
   38.4630   26.6900   34.5760 S   0  0  0  0  0  0  0  0  0  0  0  0
   37.3030   26.2040   30.3630 H   0  0  0  0  0  0  0  0  0  0  0  0
   36.3320   26.1480   30.7020 N   0  0  0  0  0  0  0  0  0  0  0  0
   36.0110   27.3540   31.4070 C   0  0  0  0  0  2  0  0  0  0  0  0
   37.0630   27.5650   32.4770 C   0  0  0  0  0  2  0  0  0  0  0  0
   37.0680   26.3840   33.4490 C   0  0  0  0  0  3  0  0  0  0  0  0
   37.3260   25.1340   32.6200 C   0  0  0  0  0  2  0  0  0  0  0  0
   36.2130   25.0300   31.5990 C   0  0  0  0  0  2  0  0  0  0  0  0
  1  7  1  0  0  0  0
  2  1  1  0  0  0  0
  2  8  1  0  0  0  0
  3  2  2  0  0  0  0
  4  5  2  0  0  0  0
  4  3  1  0  0  0  0
  5  6  1  0  0  0  0
  6  1  2  0  0  0  0
  9  3  1  0  0  0  0
 10  5  1  0  0  0  0
 11 12  1  0  0  0  0
 12 13  1  0  0  0  0
 12 17  1  0  0  0  0
 13 14  1  0  0  0  0
 14 15  1  0  0  0  0
 15 10  1  0  0  0  0
 16 15  1  0  0  0  0
 17 16  1  0  0  0  0
M  END
>  <minimizedAffinity>
-3.60787439

$$$$

 OpenBabel03272506413D

 17 18  0  0  0  0  0  0  0  0999 V2000
   40.1550   23.1600   36.4540 C   0  0  0  0  0  0  0  0  0  0  0  0
   39.7490   22.7770   37.7470 C   0  0  0  0  0  0  0  0  0  0  0  0
   38.6460   23.4340   38.3140 C   0  0  0  0  0  0  0  0  0  0  0  0
   38.0320   24.4010   37.5890 N   0  0  0  0  0  0  0  0  0  0  0  0
   38.4360   24.7470   36.3640 C   0  0  0  0  0  0  0  0  0  0  0  0
   39.4870   24.1340   35.8000 N   0  0  0  0  0  0  0  0  0  0  0  0
   41.0160   22.6500   36.0080 H   0  0  0  0  0  0  0  0  0  0  0  0
   40.3160   21.9910   38.2300 H   0  0  0  0  0  0  0  0  0  0  0  0
   38.3500   23.1340   39.2910 H   0  0  0  0  0  0  0  0  0  0  0  0
   37.6380   26.0180   35.3980 S   0  0  0  0  0  0  0  0  0  0  0  0
   38.3730   28.4900   31.8380 H   0  0  0  0  0  0  0  0  0  0  0  0
   38.6840   27.6230   31.3760 N   0  0  0  0  0  0  0  0  0  0  0  0
   37.6090   26.6750   31.3900 C   0  0  0  0  0  2  0  0  0  0  0  0
   37.1400   26.5180   32.8220 C   0  0  0  0  0  2  0  0  0  0  0  0
   38.2880   26.0120   33.6990 C   0  0  0  0  0  3  0  0  0  0  0  0
   39.4190   27.0210   33.5650 C   0  0  0  0  0  2  0  0  0  0  0  0
   39.8010   27.0810   32.1010 C   0  0  0  0  0  2  0  0  0  0  0  0
  1  2  1  0  0  0  0
  2  8  1  0  0  0  0
  2  3  2  0  0  0  0
  3  9  1  0  0  0  0
  4  3  1  0  0  0  0
  5  4  2  0  0  0  0
  6  5  1  0  0  0  0
  6  1  2  0  0  0  0
  7  1  1  0  0  0  0
 10  5  1  0  0  0  0
 12 13  1  0  0  0  0
 12 11  1  0  0  0  0
 12 17  1  0  0  0  0
 13 14  1  0  0  0  0
 14 15  1  0  0  0  0
 15 10  1  0  0  0  0
 16 15  1  0  0  0  0
 17 16  1  0  0  0  0
M  END
>  <minimizedAffinity>
-3.57812524

$$$$
