
 OpenBabel03272509313D

 36 38  0  0  1  0  0  0  0  0999 V2000
   36.3100   30.7310   48.9560 C   0  0  2  0  0  0  0  0  0  0  0  0
   37.2540   31.5540   49.7830 C   0  0  0  0  0  0  0  0  0  0  0  0
   38.0870   30.7200   50.7340 C   0  0  0  0  0  0  0  0  0  0  0  0
   37.1620   29.9280   51.6610 C   0  0  0  0  0  0  0  0  0  0  0  0
   35.9560   29.3570   50.9740 C   0  0  0  0  0  0  0  0  0  0  0  0
   36.2030   29.3310   49.4560 C   0  0  1  0  0  0  0  0  0  0  0  0
   35.2610   31.1430   48.9220 H   0  0  0  0  0  0  0  0  0  0  0  0
   36.5700   32.1370   50.4870 H   0  0  0  0  0  0  0  0  0  0  0  0
   37.8220   32.3110   49.2750 H   0  0  0  0  0  0  0  0  0  0  0  0
   38.7220   29.9710   50.2250 H   0  0  0  0  0  0  0  0  0  0  0  0
   38.6630   31.4260   51.3350 H   0  0  0  0  0  0  0  0  0  0  0  0
   37.7870   29.1780   52.1750 H   0  0  0  0  0  0  0  0  0  0  0  0
   36.7870   30.6670   52.4010 H   0  0  0  0  0  0  0  0  0  0  0  0
   35.0300   29.9300   51.1070 H   0  0  0  0  0  0  0  0  0  0  0  0
   35.8150   28.3080   51.3120 H   0  0  0  0  0  0  0  0  0  0  0  0
   37.1510   28.8520   49.4150 H   0  0  0  0  0  0  0  0  0  0  0  0
   33.9520   28.2650   48.9890 C   0  0  0  0  0  0  0  0  0  0  0  0
   33.1680   28.7710   49.8460 O   0  0  0  0  0  0  0  0  0  0  0  0
   35.3320   28.4820   48.7310 N   0  0  0  0  0  0  0  0  0  0  0  0
   35.6130   27.8930   47.8860 H   0  0  0  0  0  0  0  0  0  0  0  0
   33.1020   27.3580   48.2790 N   0  0  0  0  0  0  0  0  0  0  0  0
   31.6970   27.7040   48.1830 C   0  0  0  0  0  2  0  0  0  0  0  0
   31.4200   28.1970   46.7670 C   0  0  0  0  0  2  0  0  0  0  0  0
   32.3780   27.4750   45.8200 C   0  0  0  0  0  3  0  0  0  0  0  0
   33.3490   28.0010   45.7850 H   0  0  0  0  0  0  0  0  0  0  0  0
   32.5490   26.0490   46.3330 C   0  0  0  0  0  2  0  0  0  0  0  0
   33.3940   26.0880   47.5980 C   0  0  0  0  0  2  0  0  0  0  0  0
   36.7350   30.6990   47.5310 C   0  0  0  0  0  0  0  0  0  0  0  0
   38.0920   31.0090   47.2940 C   0  0  0  0  0  0  0  0  0  0  0  0
   38.5080   30.9800   45.9580 C   0  0  0  0  0  0  0  0  0  0  0  0
   37.5960   30.6590   44.9790 N   0  0  0  0  0  0  0  0  0  0  0  0
   36.2890   30.3650   45.2680 C   0  0  0  0  0  0  0  0  0  0  0  0
   35.8750   30.3890   46.5520 N   0  0  0  0  0  0  0  0  0  0  0  0
   38.8810   31.2630   47.9680 H   0  0  0  0  0  0  0  0  0  0  0  0
   39.5080   31.1950   45.6210 H   0  0  0  0  0  0  0  0  0  0  0  0
   35.6330   30.1210   44.4420 H   0  0  0  0  0  0  0  0  0  0  0  0
  1  7  1  1  0  0  0
  1  6  1  0  0  0  0
  1  2  1  0  0  0  0
  2  8  1  0  0  0  0
  2  3  1  0  0  0  0
  3 11  1  0  0  0  0
  3  4  1  0  0  0  0
  4 12  1  0  0  0  0
  4 13  1  0  0  0  0
  5 14  1  0  0  0  0
  5 15  1  0  0  0  0
  5  4  1  0  0  0  0
  6 16  1  6  0  0  0
  6  5  1  0  0  0  0
  9  2  1  0  0  0  0
 10  3  1  0  0  0  0
 17 18  2  0  0  0  0
 19 17  1  0  0  0  0
 19  6  1  0  0  0  0
 20 19  1  0  0  0  0
 21 17  1  0  0  0  0
 22 21  1  0  0  0  0
 23 22  1  0  0  0  0
 24 26  1  0  0  0  0
 24 23  1  0  0  0  0
 25 24  1  0  0  0  0
 26 27  1  0  0  0  0
 27 21  1  0  0  0  0
 28  1  1  0  0  0  0
 29 28  1  0  0  0  0
 29 34  1  0  0  0  0
 30 29  2  0  0  0  0
 31 32  2  0  0  0  0
 31 30  1  0  0  0  0
 32 33  1  0  0  0  0
 33 28  2  0  0  0  0
 35 30  1  0  0  0  0
 36 32  1  0  0  0  0
M  END
>  <minimizedAffinity>
-6.12227249

>  <minimizedRMSD>
0.505993724

$$$$
