
 OpenBabel03272509313D

 36 38  0  0  1  0  0  0  0  0999 V2000
   36.7170   30.9320   48.6710 C   0  0  2  0  0  0  0  0  0  0  0  0
   37.6320   31.7400   49.5440 C   0  0  0  0  0  0  0  0  0  0  0  0
   38.3470   30.9040   50.5860 C   0  0  0  0  0  0  0  0  0  0  0  0
   37.3130   30.1900   51.4610 C   0  0  0  0  0  0  0  0  0  0  0  0
   36.1390   29.6510   50.6980 C   0  0  0  0  0  0  0  0  0  0  0  0
   36.5040   29.5580   49.2060 C   0  0  1  0  0  0  0  0  0  0  0  0
   35.6950   31.3910   48.5400 H   0  0  0  0  0  0  0  0  0  0  0  0
   36.9240   32.3790   50.1710 H   0  0  0  0  0  0  0  0  0  0  0  0
   38.2750   32.4520   49.0590 H   0  0  0  0  0  0  0  0  0  0  0  0
   38.9820   30.1090   50.1540 H   0  0  0  0  0  0  0  0  0  0  0  0
   38.9070   31.6050   51.2080 H   0  0  0  0  0  0  0  0  0  0  0  0
   37.8590   29.4320   52.0470 H   0  0  0  0  0  0  0  0  0  0  0  0
   36.9180   30.9720   52.1440 H   0  0  0  0  0  0  0  0  0  0  0  0
   35.2340   30.2700   50.7380 H   0  0  0  0  0  0  0  0  0  0  0  0
   35.9210   28.6220   51.0580 H   0  0  0  0  0  0  0  0  0  0  0  0
   37.4270   29.0350   49.2570 H   0  0  0  0  0  0  0  0  0  0  0  0
   34.2570   28.9010   48.2340 C   0  0  0  0  0  0  0  0  0  0  0  0
   33.4610   29.8130   48.6060 O   0  0  0  0  0  0  0  0  0  0  0  0
   35.6510   28.7240   48.4420 N   0  0  0  0  0  0  0  0  0  0  0  0
   35.9620   27.8460   47.9200 H   0  0  0  0  0  0  0  0  0  0  0  0
   33.4030   28.0130   47.5050 N   0  0  0  0  0  0  0  0  0  0  0  0
   32.5110   27.1690   48.2750 C   0  0  0  0  0  2  0  0  0  0  0  0
   31.0990   27.7290   48.1580 C   0  0  0  0  0  2  0  0  0  0  0  0
   30.9690   28.4000   46.7900 C   0  0  0  0  0  3  0  0  0  0  0  0
   31.3480   29.4370   46.8370 H   0  0  0  0  0  0  0  0  0  0  0  0
   31.7670   27.5710   45.7910 C   0  0  0  0  0  2  0  0  0  0  0  0
   33.2500   27.7850   46.0580 C   0  0  0  0  0  2  0  0  0  0  0  0
   37.2510   30.8280   47.2870 C   0  0  0  0  0  0  0  0  0  0  0  0
   38.6460   31.0010   47.1580 C   0  0  0  0  0  0  0  0  0  0  0  0
   39.1640   30.9040   45.8620 C   0  0  0  0  0  0  0  0  0  0  0  0
   38.3070   30.6510   44.8160 N   0  0  0  0  0  0  0  0  0  0  0  0
   36.9580   30.4910   45.0000 C   0  0  0  0  0  0  0  0  0  0  0  0
   36.4470   30.5830   46.2440 N   0  0  0  0  0  0  0  0  0  0  0  0
   39.3990   31.1910   47.8920 H   0  0  0  0  0  0  0  0  0  0  0  0
   40.2040   31.0130   45.6060 H   0  0  0  0  0  0  0  0  0  0  0  0
   36.3510   30.2940   44.1250 H   0  0  0  0  0  0  0  0  0  0  0  0
  1  7  1  6  0  0  0
  1  6  1  0  0  0  0
  1  2  1  0  0  0  0
  2  8  1  0  0  0  0
  2  3  1  0  0  0  0
  3 11  1  0  0  0  0
  3  4  1  0  0  0  0
  4 12  1  0  0  0  0
  4 13  1  0  0  0  0
  5 14  1  0  0  0  0
  5 15  1  0  0  0  0
  5  4  1  0  0  0  0
  6 16  1  6  0  0  0
  6  5  1  0  0  0  0
  9  2  1  0  0  0  0
 10  3  1  0  0  0  0
 17 19  1  0  0  0  0
 17 18  2  0  0  0  0
 19  6  1  0  0  0  0
 20 19  1  0  0  0  0
 21 17  1  0  0  0  0
 21 22  1  0  0  0  0
 23 22  1  0  0  0  0
 24 25  1  0  0  0  0
 24 23  1  0  0  0  0
 26 27  1  0  0  0  0
 26 24  1  0  0  0  0
 27 21  1  0  0  0  0
 28  1  1  0  0  0  0
 29 28  1  0  0  0  0
 29 34  1  0  0  0  0
 30 29  2  0  0  0  0
 31 32  2  0  0  0  0
 31 30  1  0  0  0  0
 32 33  1  0  0  0  0
 33 28  2  0  0  0  0
 35 30  1  0  0  0  0
 36 32  1  0  0  0  0
M  END
>  <minimizedAffinity>
-5.55656719

>  <minimizedRMSD>
1.37218213

$$$$
