
 OpenBabel03272503053D

 30 32  0  0  0  0  0  0  0  0999 V2000
   38.0710   30.1090   47.2780 F   0  0  0  0  0  0  0  0  0  0  0  0
   38.4900   31.3450   47.6660 C   0  0  0  0  0  0  0  0  0  0  0  0
   38.1260   31.8130   48.8980 C   0  0  0  0  0  0  0  0  0  0  0  0
   38.5810   33.0660   49.2310 C   0  0  0  0  0  0  0  0  0  0  0  0
   39.3620   33.8310   48.3920 C   0  0  0  0  0  0  0  0  0  0  0  0
   39.7130   33.3240   47.1500 C   0  0  0  0  0  0  0  0  0  0  0  0
   39.2690   32.0550   46.7790 C   0  0  0  0  0  0  0  0  0  0  0  0
   38.3080   33.4630   50.2010 H   0  0  0  0  0  0  0  0  0  0  0  0
   39.7090   34.8240   48.6840 H   0  0  0  0  0  0  0  0  0  0  0  0
   40.3250   33.9290   46.4970 H   0  0  0  0  0  0  0  0  0  0  0  0
   38.6160   31.7120   44.5100 C   0  0  0  0  0  0  0  0  0  0  0  0
   37.6030   32.3760   44.8770 O   0  0  0  0  0  0  0  0  0  0  0  0
   39.6160   31.5110   45.5090 N   0  0  0  0  0  0  0  0  0  0  0  0
   40.4670   30.9970   45.1990 H   0  0  0  0  0  0  0  0  0  0  0  0
   38.6860   31.2310   43.1780 N   0  0  0  0  0  0  0  0  0  0  0  0
   39.8490   30.4700   42.7640 C   0  0  0  0  0  2  0  0  0  0  0  0
   40.3970   31.2030   41.5570 C   0  0  0  0  0  2  0  0  0  0  0  0
   39.4010   31.0310   40.4330 C   0  0  0  0  0  3  0  0  0  0  0  0
   39.7490   30.1070   39.8810 H   0  0  0  0  0  0  0  0  0  0  0  0
   37.9900   30.8510   40.8780 C   0  0  0  0  0  2  0  0  0  0  0  0
   37.6420   31.4640   42.1980 C   0  0  0  0  0  2  0  0  0  0  0  0
   36.9350   29.6130   51.7340 C   0  0  0  0  0  0  0  0  0  0  0  0
   37.7670   30.4270   50.9350 C   0  0  0  0  0  0  0  0  0  0  0  0
   37.2970   30.9680   49.7520 C   0  0  0  0  0  0  0  0  0  0  0  0
   36.0050   30.6780   49.4010 N   0  0  0  0  0  0  0  0  0  0  0  0
   35.2300   29.8960   50.1830 C   0  0  0  0  0  0  0  0  0  0  0  0
   35.6810   29.3820   51.3120 N   0  0  0  0  0  0  0  0  0  0  0  0
   37.3710   29.2210   52.6540 H   0  0  0  0  0  0  0  0  0  0  0  0
   38.7840   30.6520   51.2180 H   0  0  0  0  0  0  0  0  0  0  0  0
   34.2030   29.6400   49.9450 H   0  0  0  0  0  0  0  0  0  0  0  0
  1  2  1  0  0  0  0
  2  3  1  0  0  0  0
  3  4  2  0  0  0  0
  3 24  1  0  0  0  0
  4  8  1  0  0  0  0
  5  9  1  0  0  0  0
  5  4  1  0  0  0  0
  6  5  2  0  0  0  0
  7  6  1  0  0  0  0
  7  2  2  0  0  0  0
 10  6  1  0  0  0  0
 11 12  2  0  0  0  0
 11 13  1  0  0  0  0
 13  7  1  0  0  0  0
 14 13  1  0  0  0  0
 15 11  1  0  0  0  0
 16 15  1  0  0  0  0
 17 16  1  0  0  0  0
 18 20  1  0  0  0  0
 18 17  1  0  0  0  0
 19 18  1  0  0  0  0
 20 21  1  0  0  0  0
 21 15  1  0  0  0  0
 22 28  1  0  0  0  0
 23 29  1  0  0  0  0
 23 22  2  0  0  0  0
 24 23  1  0  0  0  0
 25 24  2  0  0  0  0
 25 26  1  0  0  0  0
 26 27  2  0  0  0  0
 27 22  1  0  0  0  0
 30 26  1  0  0  0  0
M  END
>  <minimizedAffinity>
-6.41147327

>  <minimizedRMSD>
0.685279667

$$$$
