
 OpenBabel03272509303D

 36 38  0  0  1  0  0  0  0  0999 V2000
   36.3120   30.7200   48.8710 C   0  0  2  0  0  0  0  0  0  0  0  0
   37.1940   31.3900   49.8840 C   0  0  0  0  0  0  0  0  0  0  0  0
   37.7920   30.4180   50.8810 C   0  0  0  0  0  0  0  0  0  0  0  0
   36.6660   29.6750   51.6040 C   0  0  0  0  0  0  0  0  0  0  0  0
   35.5290   29.2750   50.7100 C   0  0  0  0  0  0  0  0  0  0  0  0
   35.9990   29.3120   49.2460 C   0  0  1  0  0  0  0  0  0  0  0  0
   35.3240   31.2420   48.7170 H   0  0  0  0  0  0  0  0  0  0  0  0
   36.4700   31.9980   50.5230 H   0  0  0  0  0  0  0  0  0  0  0  0
   37.9020   32.1120   49.5200 H   0  0  0  0  0  0  0  0  0  0  0  0
   38.4220   29.6390   50.4150 H   0  0  0  0  0  0  0  0  0  0  0  0
   38.3350   31.0240   51.6090 H   0  0  0  0  0  0  0  0  0  0  0  0
   37.1320   28.8350   52.1460 H   0  0  0  0  0  0  0  0  0  0  0  0
   36.2560   30.4040   52.3350 H   0  0  0  0  0  0  0  0  0  0  0  0
   34.6520   29.9330   50.7510 H   0  0  0  0  0  0  0  0  0  0  0  0
   35.2400   28.2280   50.9460 H   0  0  0  0  0  0  0  0  0  0  0  0
   36.8920   28.7400   49.3060 H   0  0  0  0  0  0  0  0  0  0  0  0
   33.8060   28.2590   48.5370 C   0  0  0  0  0  0  0  0  0  0  0  0
   33.0010   28.5150   49.4810 O   0  0  0  0  0  0  0  0  0  0  0  0
   35.1700   28.6040   48.3420 N   0  0  0  0  0  0  0  0  0  0  0  0
   35.4770   28.2380   47.3870 H   0  0  0  0  0  0  0  0  0  0  0  0
   33.0020   27.4910   47.6340 N   0  0  0  0  0  0  0  0  0  0  0  0
   33.6930   26.7500   46.5980 C   0  0  0  0  0  2  0  0  0  0  0  0
   33.6860   25.2750   46.9780 C   0  0  0  0  0  2  0  0  0  0  0  0
   32.4130   24.9990   47.7760 C   0  0  0  0  0  3  0  0  0  0  0  0
   32.5700   25.2450   48.8420 H   0  0  0  0  0  0  0  0  0  0  0  0
   31.2980   25.8500   47.1800 C   0  0  0  0  0  2  0  0  0  0  0  0
   31.5450   27.3030   47.5540 C   0  0  0  0  0  2  0  0  0  0  0  0
   36.9420   30.7280   47.5240 C   0  0  0  0  0  0  0  0  0  0  0  0
   38.3370   30.9470   47.5050 C   0  0  0  0  0  0  0  0  0  0  0  0
   38.9450   30.9540   46.2450 C   0  0  0  0  0  0  0  0  0  0  0  0
   38.1700   30.7510   45.1270 N   0  0  0  0  0  0  0  0  0  0  0  0
   36.8180   30.5410   45.2040 C   0  0  0  0  0  0  0  0  0  0  0  0
   36.2190   30.5330   46.4130 N   0  0  0  0  0  0  0  0  0  0  0  0
   39.0320   31.1070   48.3020 H   0  0  0  0  0  0  0  0  0  0  0  0
   39.9960   31.1100   46.0710 H   0  0  0  0  0  0  0  0  0  0  0  0
   36.2780   30.3890   44.2780 H   0  0  0  0  0  0  0  0  0  0  0  0
  1  7  1  6  0  0  0
  1  6  1  0  0  0  0
  1  2  1  0  0  0  0
  2  8  1  0  0  0  0
  2  3  1  0  0  0  0
  3  4  1  0  0  0  0
  3 11  1  0  0  0  0
  4 12  1  0  0  0  0
  4 13  1  0  0  0  0
  5 14  1  0  0  0  0
  5 15  1  0  0  0  0
  5  4  1  0  0  0  0
  6 16  1  6  0  0  0
  6  5  1  0  0  0  0
  9  2  1  0  0  0  0
 10  3  1  0  0  0  0
 17 18  2  0  0  0  0
 19 17  1  0  0  0  0
 19  6  1  0  0  0  0
 20 19  1  0  0  0  0
 21 17  1  0  0  0  0
 22 23  1  0  0  0  0
 22 21  1  0  0  0  0
 23 24  1  0  0  0  0
 24 25  1  0  0  0  0
 26 27  1  0  0  0  0
 26 24  1  0  0  0  0
 27 21  1  0  0  0  0
 28  1  1  0  0  0  0
 29 28  1  0  0  0  0
 29 34  1  0  0  0  0
 30 29  2  0  0  0  0
 31 32  2  0  0  0  0
 31 30  1  0  0  0  0
 32 33  1  0  0  0  0
 33 28  2  0  0  0  0
 35 30  1  0  0  0  0
 36 32  1  0  0  0  0
M  END
>  <minimizedAffinity>
-6.10470295

>  <minimizedRMSD>
1.12937021

$$$$
