
 OpenBabel03272509313D

 36 38  0  0  1  0  0  0  0  0999 V2000
   36.2860   30.6540   49.0190 C   0  0  2  0  0  0  0  0  0  0  0  0
   37.2170   31.5350   49.8000 C   0  0  0  0  0  0  0  0  0  0  0  0
   38.0960   30.7620   50.7610 C   0  0  0  0  0  0  0  0  0  0  0  0
   37.2150   29.9710   51.7320 C   0  0  0  0  0  0  0  0  0  0  0  0
   36.0170   29.3380   51.0870 C   0  0  0  0  0  0  0  0  0  0  0  0
   36.2360   29.2690   49.5660 C   0  0  1  0  0  0  0  0  0  0  0  0
   35.2230   31.0300   48.9930 H   0  0  0  0  0  0  0  0  0  0  0  0
   36.5270   32.1180   50.4980 H   0  0  0  0  0  0  0  0  0  0  0  0
   37.7500   32.2940   49.2560 H   0  0  0  0  0  0  0  0  0  0  0  0
   38.7450   30.0180   50.2650 H   0  0  0  0  0  0  0  0  0  0  0  0
   38.6590   31.5060   51.3270 H   0  0  0  0  0  0  0  0  0  0  0  0
   37.8740   29.2600   52.2570 H   0  0  0  0  0  0  0  0  0  0  0  0
   36.8300   30.7210   52.4540 H   0  0  0  0  0  0  0  0  0  0  0  0
   35.0740   29.8840   51.2200 H   0  0  0  0  0  0  0  0  0  0  0  0
   35.9180   28.2960   51.4630 H   0  0  0  0  0  0  0  0  0  0  0  0
   37.1990   28.8210   49.5220 H   0  0  0  0  0  0  0  0  0  0  0  0
   33.9620   28.3380   48.9490 C   0  0  0  0  0  0  0  0  0  0  0  0
   33.1310   29.0850   49.5450 O   0  0  0  0  0  0  0  0  0  0  0  0
   35.3800   28.3680   48.8870 N   0  0  0  0  0  0  0  0  0  0  0  0
   35.7060   27.5890   48.2340 H   0  0  0  0  0  0  0  0  0  0  0  0
   33.1180   27.3810   48.2990 N   0  0  0  0  0  0  0  0  0  0  0  0
   31.7390   27.3060   48.7390 C   0  0  0  0  0  2  0  0  0  0  0  0
   30.8610   27.9680   47.6840 C   0  0  0  0  0  2  0  0  0  0  0  0
   31.5270   27.7680   46.3230 C   0  0  0  0  0  3  0  0  0  0  0  0
   32.2830   28.5560   46.1500 H   0  0  0  0  0  0  0  0  0  0  0  0
   32.1690   26.3860   46.3190 C   0  0  0  0  0  2  0  0  0  0  0  0
   33.3940   26.4190   47.2200 C   0  0  0  0  0  2  0  0  0  0  0  0
   36.6860   30.5890   47.5880 C   0  0  0  0  0  0  0  0  0  0  0  0
   38.0640   30.7540   47.3320 C   0  0  0  0  0  0  0  0  0  0  0  0
   38.4560   30.6920   45.9910 C   0  0  0  0  0  0  0  0  0  0  0  0
   37.5010   30.4780   45.0230 N   0  0  0  0  0  0  0  0  0  0  0  0
   36.1740   30.3230   45.3300 C   0  0  0  0  0  0  0  0  0  0  0  0
   35.7840   30.3810   46.6190 N   0  0  0  0  0  0  0  0  0  0  0  0
   38.8850   30.9170   47.9970 H   0  0  0  0  0  0  0  0  0  0  0  0
   39.4680   30.8010   45.6400 H   0  0  0  0  0  0  0  0  0  0  0  0
   35.4850   30.1580   44.5110 H   0  0  0  0  0  0  0  0  0  0  0  0
  1  7  1  1  0  0  0
  1  6  1  0  0  0  0
  1  2  1  0  0  0  0
  2  8  1  0  0  0  0
  2  3  1  0  0  0  0
  3 11  1  0  0  0  0
  3  4  1  0  0  0  0
  4 12  1  0  0  0  0
  4 13  1  0  0  0  0
  5 14  1  0  0  0  0
  5 15  1  0  0  0  0
  5  4  1  0  0  0  0
  6 16  1  6  0  0  0
  6  5  1  0  0  0  0
  9  2  1  0  0  0  0
 10  3  1  0  0  0  0
 17 18  2  0  0  0  0
 19 17  1  0  0  0  0
 19  6  1  0  0  0  0
 20 19  1  0  0  0  0
 21 22  1  0  0  0  0
 21 17  1  0  0  0  0
 23 22  1  0  0  0  0
 24 23  1  0  0  0  0
 25 24  1  0  0  0  0
 26 24  1  0  0  0  0
 26 27  1  0  0  0  0
 27 21  1  0  0  0  0
 28  1  1  0  0  0  0
 29 28  1  0  0  0  0
 29 34  1  0  0  0  0
 30 29  2  0  0  0  0
 31 32  2  0  0  0  0
 31 30  1  0  0  0  0
 32 33  1  0  0  0  0
 33 28  2  0  0  0  0
 35 30  1  0  0  0  0
 36 32  1  0  0  0  0
M  END
>  <minimizedAffinity>
-5.9696331

>  <minimizedRMSD>
0.477727622

$$$$
