
 OpenBabel03272509313D

 36 38  0  0  1  0  0  0  0  0999 V2000
   36.5470   30.8490   48.8680 C   0  0  2  0  0  0  0  0  0  0  0  0
   37.4620   31.5420   49.8360 C   0  0  0  0  0  0  0  0  0  0  0  0
   38.1050   30.5930   50.8260 C   0  0  0  0  0  0  0  0  0  0  0  0
   37.0140   29.8530   51.6030 C   0  0  0  0  0  0  0  0  0  0  0  0
   35.8470   29.4290   50.7600 C   0  0  0  0  0  0  0  0  0  0  0  0
   36.2610   29.4450   49.2780 C   0  0  1  0  0  0  0  0  0  0  0  0
   35.5500   31.3600   48.7440 H   0  0  0  0  0  0  0  0  0  0  0  0
   36.7580   32.1560   50.4920 H   0  0  0  0  0  0  0  0  0  0  0  0
   38.1490   32.2640   49.4330 H   0  0  0  0  0  0  0  0  0  0  0  0
   38.7230   29.8100   50.3490 H   0  0  0  0  0  0  0  0  0  0  0  0
   38.6700   31.2140   51.5230 H   0  0  0  0  0  0  0  0  0  0  0  0
   37.5080   29.0260   52.1410 H   0  0  0  0  0  0  0  0  0  0  0  0
   36.6260   30.5910   52.3370 H   0  0  0  0  0  0  0  0  0  0  0  0
   34.9670   30.0800   50.8230 H   0  0  0  0  0  0  0  0  0  0  0  0
   35.5760   28.3830   51.0240 H   0  0  0  0  0  0  0  0  0  0  0  0
   37.1610   28.8810   49.3140 H   0  0  0  0  0  0  0  0  0  0  0  0
   34.0470   28.3740   48.6650 C   0  0  0  0  0  0  0  0  0  0  0  0
   33.2730   28.6520   49.6280 O   0  0  0  0  0  0  0  0  0  0  0  0
   35.4040   28.7140   48.4190 N   0  0  0  0  0  0  0  0  0  0  0  0
   35.6820   28.3260   47.4640 H   0  0  0  0  0  0  0  0  0  0  0  0
   33.2160   27.5840   47.8070 N   0  0  0  0  0  0  0  0  0  0  0  0
   32.4510   28.2880   46.7960 C   0  0  0  0  0  2  0  0  0  0  0  0
   33.1130   28.0530   45.4440 C   0  0  0  0  0  2  0  0  0  0  0  0
   33.7720   26.6750   45.4740 C   0  0  0  0  0  3  0  0  0  0  0  0
   34.7780   26.7440   45.9250 H   0  0  0  0  0  0  0  0  0  0  0  0
   32.8730   25.7490   46.2840 C   0  0  0  0  0  2  0  0  0  0  0  0
   32.9790   26.1330   47.7530 C   0  0  0  0  0  2  0  0  0  0  0  0
   37.1260   30.8380   47.4990 C   0  0  0  0  0  0  0  0  0  0  0  0
   38.5130   31.0930   47.4210 C   0  0  0  0  0  0  0  0  0  0  0  0
   39.0720   31.0840   46.1390 C   0  0  0  0  0  0  0  0  0  0  0  0
   38.2610   30.8320   45.0560 N   0  0  0  0  0  0  0  0  0  0  0  0
   36.9190   30.5900   45.1900 C   0  0  0  0  0  0  0  0  0  0  0  0
   36.3670   30.5960   46.4210 N   0  0  0  0  0  0  0  0  0  0  0  0
   39.2320   31.2910   48.1860 H   0  0  0  0  0  0  0  0  0  0  0  0
   40.1110   31.2610   45.9200 H   0  0  0  0  0  0  0  0  0  0  0  0
   36.3490   30.4010   44.2900 H   0  0  0  0  0  0  0  0  0  0  0  0
  1  7  1  6  0  0  0
  1  6  1  0  0  0  0
  1  2  1  0  0  0  0
  2  8  1  0  0  0  0
  2  3  1  0  0  0  0
  3 11  1  0  0  0  0
  3  4  1  0  0  0  0
  4 12  1  0  0  0  0
  4 13  1  0  0  0  0
  5 14  1  0  0  0  0
  5 15  1  0  0  0  0
  5  4  1  0  0  0  0
  6 16  1  6  0  0  0
  6  5  1  0  0  0  0
  9  2  1  0  0  0  0
 10  3  1  0  0  0  0
 17 18  2  0  0  0  0
 19 17  1  0  0  0  0
 19  6  1  0  0  0  0
 20 19  1  0  0  0  0
 21 17  1  0  0  0  0
 22 21  1  0  0  0  0
 23 24  1  0  0  0  0
 23 22  1  0  0  0  0
 24 25  1  0  0  0  0
 24 26  1  0  0  0  0
 26 27  1  0  0  0  0
 27 21  1  0  0  0  0
 28  1  1  0  0  0  0
 29 28  1  0  0  0  0
 29 34  1  0  0  0  0
 30 29  2  0  0  0  0
 31 32  2  0  0  0  0
 31 30  1  0  0  0  0
 32 33  1  0  0  0  0
 33 28  2  0  0  0  0
 35 30  1  0  0  0  0
 36 32  1  0  0  0  0
M  END
>  <minimizedAffinity>
-6.01864481

>  <minimizedRMSD>
1.09263945

$$$$
