
 OpenBabel03272509313D

 36 38  0  0  1  0  0  0  0  0999 V2000
   36.5320   30.8350   48.8670 C   0  0  2  0  0  0  0  0  0  0  0  0
   37.4530   31.5660   49.8000 C   0  0  0  0  0  0  0  0  0  0  0  0
   38.1370   30.6490   50.7930 C   0  0  0  0  0  0  0  0  0  0  0  0
   37.0790   29.9030   51.6090 C   0  0  0  0  0  0  0  0  0  0  0  0
   35.9030   29.4390   50.8000 C   0  0  0  0  0  0  0  0  0  0  0  0
   36.2830   29.4340   49.3100 C   0  0  1  0  0  0  0  0  0  0  0  0
   35.5210   31.3230   48.7550 H   0  0  0  0  0  0  0  0  0  0  0  0
   36.7510   32.1780   50.4590 H   0  0  0  0  0  0  0  0  0  0  0  0
   38.1160   32.2930   49.3680 H   0  0  0  0  0  0  0  0  0  0  0  0
   38.7600   29.8700   50.3180 H   0  0  0  0  0  0  0  0  0  0  0  0
   38.7040   31.2960   51.4650 H   0  0  0  0  0  0  0  0  0  0  0  0
   37.6010   29.0970   52.1520 H   0  0  0  0  0  0  0  0  0  0  0  0
   36.6920   30.6480   52.3370 H   0  0  0  0  0  0  0  0  0  0  0  0
   35.0100   30.0740   50.8710 H   0  0  0  0  0  0  0  0  0  0  0  0
   35.6590   28.3940   51.0910 H   0  0  0  0  0  0  0  0  0  0  0  0
   37.1950   28.8890   49.3370 H   0  0  0  0  0  0  0  0  0  0  0  0
   34.0650   28.3470   48.7460 C   0  0  0  0  0  0  0  0  0  0  0  0
   33.2920   28.6710   49.6960 O   0  0  0  0  0  0  0  0  0  0  0  0
   35.4230   28.6700   48.4850 N   0  0  0  0  0  0  0  0  0  0  0  0
   35.6980   28.2380   47.5480 H   0  0  0  0  0  0  0  0  0  0  0  0
   33.2300   27.5230   47.9250 N   0  0  0  0  0  0  0  0  0  0  0  0
   32.0290   28.1300   47.3830 C   0  0  0  0  0  2  0  0  0  0  0  0
   32.2580   28.4100   45.9040 C   0  0  0  0  0  2  0  0  0  0  0  0
   33.2170   27.3490   45.3650 C   0  0  0  0  0  3  0  0  0  0  0  0
   34.2620   27.6490   45.5560 H   0  0  0  0  0  0  0  0  0  0  0  0
   32.8900   26.0330   46.0610 C   0  0  0  0  0  2  0  0  0  0  0  0
   33.3620   26.1200   47.5060 C   0  0  0  0  0  2  0  0  0  0  0  0
   37.0800   30.8090   47.4850 C   0  0  0  0  0  0  0  0  0  0  0  0
   38.4650   31.0600   47.3750 C   0  0  0  0  0  0  0  0  0  0  0  0
   38.9970   31.0360   46.0800 C   0  0  0  0  0  0  0  0  0  0  0  0
   38.1620   30.7750   45.0180 N   0  0  0  0  0  0  0  0  0  0  0  0
   36.8220   30.5370   45.1840 C   0  0  0  0  0  0  0  0  0  0  0  0
   36.2980   30.5580   46.4270 N   0  0  0  0  0  0  0  0  0  0  0  0
   39.2020   31.2640   48.1210 H   0  0  0  0  0  0  0  0  0  0  0  0
   40.0310   31.2090   45.8370 H   0  0  0  0  0  0  0  0  0  0  0  0
   36.2320   30.3400   44.2980 H   0  0  0  0  0  0  0  0  0  0  0  0
  1  7  1  6  0  0  0
  1  6  1  0  0  0  0
  1  2  1  0  0  0  0
  2  8  1  0  0  0  0
  2  3  1  0  0  0  0
  3 11  1  0  0  0  0
  3  4  1  0  0  0  0
  4 12  1  0  0  0  0
  4 13  1  0  0  0  0
  5 14  1  0  0  0  0
  5 15  1  0  0  0  0
  5  4  1  0  0  0  0
  6 16  1  6  0  0  0
  6  5  1  0  0  0  0
  9  2  1  0  0  0  0
 10  3  1  0  0  0  0
 17 18  2  0  0  0  0
 19 17  1  0  0  0  0
 19  6  1  0  0  0  0
 20 19  1  0  0  0  0
 21 17  1  0  0  0  0
 22 21  1  0  0  0  0
 23 22  1  0  0  0  0
 24 25  1  0  0  0  0
 24 23  1  0  0  0  0
 24 26  1  0  0  0  0
 26 27  1  0  0  0  0
 27 21  1  0  0  0  0
 28  1  1  0  0  0  0
 29 28  1  0  0  0  0
 29 34  1  0  0  0  0
 30 29  2  0  0  0  0
 31 32  2  0  0  0  0
 31 30  1  0  0  0  0
 32 33  1  0  0  0  0
 33 28  2  0  0  0  0
 35 30  1  0  0  0  0
 36 32  1  0  0  0  0
M  END
>  <minimizedAffinity>
-6.0528121

>  <minimizedRMSD>
0.9480322

$$$$
