
 OpenBabel03272504223D

 37 39  0  0  1  0  0  0  0  0999 V2000
   38.9010   32.3420   47.8440 C   0  0  2  0  0  0  0  0  0  0  0  0
   38.2050   31.3660   48.7720 C   0  0  1  0  0  0  0  0  0  0  0  0
   38.6900   31.9450   50.1050 C   0  0  0  0  0  0  0  0  0  0  0  0
   38.4030   33.2770   49.9420 O   0  0  0  0  0  0  0  0  0  0  0  0
   38.6880   33.6350   48.6430 C   0  0  0  0  0  0  0  0  0  0  0  0
   39.9780   32.2090   47.7790 H   0  0  0  0  0  0  0  0  0  0  0  0
   38.5260   30.3200   48.6440 H   0  0  0  0  0  0  0  0  0  0  0  0
   39.7580   31.7530   50.2280 H   0  0  0  0  0  0  0  0  0  0  0  0
   38.0740   31.5670   50.9580 H   0  0  0  0  0  0  0  0  0  0  0  0
   37.8940   34.2520   48.1630 H   0  0  0  0  0  0  0  0  0  0  0  0
   39.5900   34.2620   48.6520 H   0  0  0  0  0  0  0  0  0  0  0  0
   36.8510   31.5890   48.6390 O   0  0  0  0  0  0  0  0  0  0  0  0
   35.9070   29.8500   46.9500 O   0  0  0  0  0  0  0  0  0  0  0  0
   35.9710   30.1750   48.4170 P   0  0  1  0  0  0  0  0  0  0  0  0
   36.7540   28.8790   49.2090 O   0  0  0  0  0  0  0  0  0  0  0  0
   37.3440   28.3700   48.6000 H   0  0  0  0  0  0  0  0  0  0  0  0
   34.4110   30.3420   49.0500 O   0  0  0  0  0  0  0  0  0  0  0  0
   34.1360   29.2130   49.7920 C   0  0  0  0  0  0  0  0  0  0  0  0
   35.0450   28.6600   50.1130 H   0  0  0  0  0  0  0  0  0  0  0  0
   33.6270   29.5220   50.7400 H   0  0  0  0  0  0  0  0  0  0  0  0
   33.2730   28.2390   49.0870 C   0  0  0  0  0  0  0  0  0  0  0  0
   33.9010   27.3420   48.2540 C   0  0  0  0  0  0  0  0  0  0  0  0
   33.1410   26.3980   47.5600 C   0  0  0  0  0  0  0  0  0  0  0  0
   31.7920   26.4260   47.7580 N   0  0  0  0  0  0  0  0  0  0  0  0
   31.1910   27.3170   48.5820 C   0  0  0  0  0  0  0  0  0  0  0  0
   31.9390   28.2300   49.2510 N   0  0  0  0  0  0  0  0  0  0  0  0
   34.9450   27.2460   48.0390 H   0  0  0  0  0  0  0  0  0  0  0  0
   33.5410   25.6540   46.8860 H   0  0  0  0  0  0  0  0  0  0  0  0
   30.1090   27.3000   48.7060 H   0  0  0  0  0  0  0  0  0  0  0  0
   38.2310   32.3620   46.6510 O   0  0  0  0  0  0  0  0  0  0  0  0
   40.5880   31.4460   42.3600 H   0  0  0  0  0  0  0  0  0  0  0  0
   39.9860   31.5590   43.2150 N   0  0  0  0  0  0  0  0  0  0  0  0
   39.7560   32.9530   43.4120 C   0  0  0  0  0  2  0  0  0  0  0  0
   39.4650   33.3400   44.8460 C   0  0  0  0  0  2  0  0  0  0  0  0
   38.9240   32.1050   45.5310 C   0  0  0  0  0  3  0  0  0  0  0  0
   40.0610   31.1390   45.6350 C   0  0  0  0  0  2  0  0  0  0  0  0
   40.6740   30.8870   44.2900 C   0  0  0  0  0  2  0  0  0  0  0  0
  1  6  1  6  0  0  0
  1  5  1  0  0  0  0
  1  2  1  0  0  0  0
  2  7  1  6  0  0  0
  2  3  1  0  0  0  0
  3  8  1  0  0  0  0
  3  9  1  0  0  0  0
  4  3  1  0  0  0  0
  5 11  1  0  0  0  0
  5  4  1  0  0  0  0
 10  5  1  0  0  0  0
 12  2  1  0  0  0  0
 14 13  2  6  0  0  0
 14 12  1  0  0  0  0
 14 17  1  0  0  0  0
 14 15  1  0  0  0  0
 16 15  1  0  0  0  0
 17 18  1  0  0  0  0
 18 19  1  0  0  0  0
 18 20  1  0  0  0  0
 21 26  1  0  0  0  0
 21 18  1  0  0  0  0
 22 21  2  0  0  0  0
 23 24  2  0  0  0  0
 23 22  1  0  0  0  0
 24 25  1  0  0  0  0
 25 29  1  0  0  0  0
 25 26  2  0  0  0  0
 27 22  1  0  0  0  0
 28 23  1  0  0  0  0
 30  1  1  0  0  0  0
 31 32  1  0  0  0  0
 32 33  1  0  0  0  0
 32 37  1  0  0  0  0
 33 34  1  0  0  0  0
 34 35  1  0  0  0  0
 35 36  1  0  0  0  0
 35 30  1  0  0  0  0
 37 36  1  0  0  0  0
M  END
>  <minimizedAffinity>
-4.89192533

>  <minimizedRMSD>
0.383180708

$$$$
