
 OpenBabel03272506253D

 30 32  0  0  0  0  0  0  0  0999 V2000
   38.1490   31.1840   48.2360 C   0  0  0  0  0  0  0  0  0  0  0  0
   38.3490   30.4650   47.0880 C   0  0  0  0  0  0  0  0  0  0  0  0
   39.0520   30.9140   45.9760 C   0  0  0  0  0  0  0  0  0  0  0  0
   39.6060   32.2100   46.0290 C   0  0  0  0  0  0  0  0  0  0  0  0
   39.4050   32.9350   47.1870 C   0  0  0  0  0  0  0  0  0  0  0  0
   38.7020   32.4670   48.2770 C   0  0  0  0  0  0  0  0  0  0  0  0
   37.9530   29.4460   46.9600 H   0  0  0  0  0  0  0  0  0  0  0  0
   39.1860   30.3110   45.0880 H   0  0  0  0  0  0  0  0  0  0  0  0
   40.1630   32.6290   45.2090 H   0  0  0  0  0  0  0  0  0  0  0  0
   39.8240   33.9320   47.2420 H   0  0  0  0  0  0  0  0  0  0  0  0
   38.0470   30.3860   50.5370 C   0  0  0  0  0  0  0  0  0  0  0  0
   37.3930   30.5570   49.2920 C   0  0  0  0  0  0  0  0  0  0  0  0
   36.0760   30.1070   49.1860 C   0  0  0  0  0  0  0  0  0  0  0  0
   35.4860   29.5330   50.2600 N   0  0  0  0  0  0  0  0  0  0  0  0
   36.1380   29.3790   51.4500 C   0  0  0  0  0  0  0  0  0  0  0  0
   37.4270   29.8140   51.5690 N   0  0  0  0  0  0  0  0  0  0  0  0
   39.0710   30.7240   50.6470 H   0  0  0  0  0  0  0  0  0  0  0  0
   35.5260   28.9040   52.2050 H   0  0  0  0  0  0  0  0  0  0  0  0
   35.2750   30.2290   47.9280 C   0  0  0  0  0  0  0  0  0  0  0  0
   33.9790   30.6970   48.2650 F   0  0  0  0  0  0  0  0  0  0  0  0
   35.7710   31.0240   46.9660 F   0  0  0  0  0  0  0  0  0  0  0  0
   35.0230   28.9690   47.4080 F   0  0  0  0  0  0  0  0  0  0  0  0
   38.4460   33.3910   49.7610 S   0  0  0  0  0  0  0  0  0  0  0  0
   34.0710   36.4680   50.9710 H   0  0  0  0  0  0  0  0  0  0  0  0
   34.6720   35.6890   50.5960 N   0  0  0  0  0  0  0  0  0  0  0  0
   35.6640   36.2420   49.7160 C   0  0  0  0  0  2  0  0  0  0  0  0
   36.4160   35.1270   49.0130 C   0  0  0  0  0  2  0  0  0  0  0  0
   36.7710   34.0090   49.9680 C   0  0  0  0  0  3  0  0  0  0  0  0
   36.7090   34.5670   51.3890 C   0  0  0  0  0  2  0  0  0  0  0  0
   35.3690   35.1340   51.7300 C   0  0  0  0  0  2  0  0  0  0  0  0
  1  6  1  0  0  0  0
  1 12  1  0  0  0  0
  2  1  2  0  0  0  0
  3  4  2  0  0  0  0
  3  2  1  0  0  0  0
  4  5  1  0  0  0  0
  5 10  1  0  0  0  0
  5  6  2  0  0  0  0
  6 23  1  0  0  0  0
  7  2  1  0  0  0  0
  8  3  1  0  0  0  0
  9  4  1  0  0  0  0
 11 17  1  0  0  0  0
 11 16  1  0  0  0  0
 12 11  2  0  0  0  0
 13 12  1  0  0  0  0
 13 14  2  0  0  0  0
 14 15  1  0  0  0  0
 15 16  2  0  0  0  0
 15 18  1  0  0  0  0
 19 20  1  0  0  0  0
 19 13  1  0  0  0  0
 21 19  1  0  0  0  0
 22 19  1  0  0  0  0
 23 28  1  0  0  0  0
 25 24  1  0  0  0  0
 25 30  1  0  0  0  0
 26 25  1  0  0  0  0
 27 26  1  0  0  0  0
 27 28  1  0  0  0  0
 28 29  1  0  0  0  0
 29 30  1  0  0  0  0
M  END
>  <minimizedAffinity>
5.56318855

>  <minimizedRMSD>
0.705309033

$$$$
