
 OpenBabel03272504223D

 37 39  0  0  1  0  0  0  0  0999 V2000
   38.9020   32.3410   47.8440 C   0  0  2  0  0  0  0  0  0  0  0  0
   38.2060   31.3660   48.7730 C   0  0  1  0  0  0  0  0  0  0  0  0
   38.6910   31.9450   50.1050 C   0  0  0  0  0  0  0  0  0  0  0  0
   38.4040   33.2770   49.9410 O   0  0  0  0  0  0  0  0  0  0  0  0
   38.6890   33.6340   48.6420 C   0  0  0  0  0  0  0  0  0  0  0  0
   39.9790   32.2080   47.7780 H   0  0  0  0  0  0  0  0  0  0  0  0
   38.5260   30.3190   48.6460 H   0  0  0  0  0  0  0  0  0  0  0  0
   39.7590   31.7530   50.2280 H   0  0  0  0  0  0  0  0  0  0  0  0
   38.0760   31.5680   50.9590 H   0  0  0  0  0  0  0  0  0  0  0  0
   37.8950   34.2510   48.1620 H   0  0  0  0  0  0  0  0  0  0  0  0
   39.5910   34.2610   48.6510 H   0  0  0  0  0  0  0  0  0  0  0  0
   36.8520   31.5890   48.6410 O   0  0  0  0  0  0  0  0  0  0  0  0
   35.9100   29.8500   46.9510 O   0  0  0  0  0  0  0  0  0  0  0  0
   35.9720   30.1740   48.4180 P   0  0  1  0  0  0  0  0  0  0  0  0
   36.7530   28.8790   49.2100 O   0  0  0  0  0  0  0  0  0  0  0  0
   37.3440   28.3690   48.6030 H   0  0  0  0  0  0  0  0  0  0  0  0
   34.4110   30.3420   49.0490 O   0  0  0  0  0  0  0  0  0  0  0  0
   34.1360   29.2140   49.7920 C   0  0  0  0  0  0  0  0  0  0  0  0
   35.0440   28.6610   50.1140 H   0  0  0  0  0  0  0  0  0  0  0  0
   33.6250   29.5240   50.7380 H   0  0  0  0  0  0  0  0  0  0  0  0
   33.2730   28.2390   49.0860 C   0  0  0  0  0  0  0  0  0  0  0  0
   33.9000   27.3430   48.2530 C   0  0  0  0  0  0  0  0  0  0  0  0
   33.1410   26.3990   47.5600 C   0  0  0  0  0  0  0  0  0  0  0  0
   31.7920   26.4250   47.7580 N   0  0  0  0  0  0  0  0  0  0  0  0
   31.1910   27.3160   48.5830 C   0  0  0  0  0  0  0  0  0  0  0  0
   31.9390   28.2290   49.2510 N   0  0  0  0  0  0  0  0  0  0  0  0
   34.9440   27.2470   48.0380 H   0  0  0  0  0  0  0  0  0  0  0  0
   33.5420   25.6550   46.8850 H   0  0  0  0  0  0  0  0  0  0  0  0
   30.1090   27.2990   48.7070 H   0  0  0  0  0  0  0  0  0  0  0  0
   38.2310   32.3590   46.6510 O   0  0  0  0  0  0  0  0  0  0  0  0
   40.5870   31.4490   42.3600 H   0  0  0  0  0  0  0  0  0  0  0  0
   39.9860   31.5610   43.2140 N   0  0  0  0  0  0  0  0  0  0  0  0
   39.7570   32.9550   43.4130 C   0  0  0  0  0  2  0  0  0  0  0  0
   39.4670   33.3400   44.8470 C   0  0  0  0  0  2  0  0  0  0  0  0
   38.9240   32.1030   45.5310 C   0  0  0  0  0  3  0  0  0  0  0  0
   40.0610   31.1360   45.6320 C   0  0  0  0  0  2  0  0  0  0  0  0
   40.6730   30.8870   44.2880 C   0  0  0  0  0  2  0  0  0  0  0  0
  1  6  1  6  0  0  0
  1  5  1  0  0  0  0
  1  2  1  0  0  0  0
  2  7  1  6  0  0  0
  2  3  1  0  0  0  0
  3  8  1  0  0  0  0
  3  9  1  0  0  0  0
  4  3  1  0  0  0  0
  5 11  1  0  0  0  0
  5  4  1  0  0  0  0
 10  5  1  0  0  0  0
 12  2  1  0  0  0  0
 14 13  2  6  0  0  0
 14 12  1  0  0  0  0
 14 17  1  0  0  0  0
 14 15  1  0  0  0  0
 16 15  1  0  0  0  0
 17 18  1  0  0  0  0
 18 19  1  0  0  0  0
 18 20  1  0  0  0  0
 21 26  1  0  0  0  0
 21 18  1  0  0  0  0
 22 21  2  0  0  0  0
 23 24  2  0  0  0  0
 23 22  1  0  0  0  0
 24 25  1  0  0  0  0
 25 29  1  0  0  0  0
 25 26  2  0  0  0  0
 27 22  1  0  0  0  0
 28 23  1  0  0  0  0
 30  1  1  0  0  0  0
 31 32  1  0  0  0  0
 32 33  1  0  0  0  0
 32 37  1  0  0  0  0
 33 34  1  0  0  0  0
 34 35  1  0  0  0  0
 35 36  1  0  0  0  0
 35 30  1  0  0  0  0
 37 36  1  0  0  0  0
M  END
>  <minimizedAffinity>
-4.89275408

>  <minimizedRMSD>
0.317655861

$$$$
