
 OpenBabel03272505093D

 27 29  0  0  0  0  0  0  0  0999 V2000
   36.4110   30.6850   45.9080 Cl  0  0  0  0  0  0  0  0  0  0  0  0
   36.7220   30.7150   47.6210 C   0  0  0  0  0  0  0  0  0  0  0  0
   37.9670   31.1500   48.0180 C   0  0  0  0  0  0  0  0  0  0  0  0
   38.2400   31.1830   49.3910 C   0  0  0  0  0  0  0  0  0  0  0  0
   37.2770   30.7890   50.2850 C   0  0  0  0  0  0  0  0  0  0  0  0
   36.0470   30.3620   49.8090 C   0  0  0  0  0  0  0  0  0  0  0  0
   35.7120   30.3040   48.4820 C   0  0  0  0  0  0  0  0  0  0  0  0
   39.2210   31.5270   49.6900 H   0  0  0  0  0  0  0  0  0  0  0  0
   37.4590   30.8030   51.3370 H   0  0  0  0  0  0  0  0  0  0  0  0
   35.2920   30.0510   50.5290 H   0  0  0  0  0  0  0  0  0  0  0  0
   40.1770   33.3240   46.1010 C   0  0  0  0  0  0  0  0  0  0  0  0
   40.8400   32.4450   45.2040 C   0  0  0  0  0  0  0  0  0  0  0  0
   40.4920   31.0850   45.2910 C   0  0  0  0  0  0  0  0  0  0  0  0
   39.5620   30.7030   46.2100 N   0  0  0  0  0  0  0  0  0  0  0  0
   38.9710   31.5670   47.0270 C   0  0  0  0  0  0  0  0  0  0  0  0
   39.2780   32.8760   46.9730 N   0  0  0  0  0  0  0  0  0  0  0  0
   40.4630   34.3580   46.0130 H   0  0  0  0  0  0  0  0  0  0  0  0
   41.5700   32.7330   44.4770 H   0  0  0  0  0  0  0  0  0  0  0  0
   40.9270   30.3430   44.6690 H   0  0  0  0  0  0  0  0  0  0  0  0
   34.1480   29.7650   47.8550 S   0  0  0  0  0  0  0  0  0  0  0  0
   32.4750   24.7560   48.4810 H   0  0  0  0  0  0  0  0  0  0  0  0
   32.4560   25.4950   47.7510 N   0  0  0  0  0  0  0  0  0  0  0  0
   33.7290   25.7700   47.1350 C   0  0  0  0  0  2  0  0  0  0  0  0
   33.8320   27.2470   46.7270 C   0  0  0  0  0  2  0  0  0  0  0  0
   33.8520   28.0070   48.0210 C   0  0  0  0  0  3  0  0  0  0  0  0
   32.5270   27.7850   48.6870 C   0  0  0  0  0  2  0  0  0  0  0  0
   31.7090   26.6750   48.0860 C   0  0  0  0  0  2  0  0  0  0  0  0
  1  2  1  0  0  0  0
  2  3  2  0  0  0  0
  2  7  1  0  0  0  0
  3  4  1  0  0  0  0
  4  8  1  0  0  0  0
  4  5  2  0  0  0  0
  5  9  1  0  0  0  0
  6  5  1  0  0  0  0
  6 10  1  0  0  0  0
  7  6  2  0  0  0  0
 11 16  1  0  0  0  0
 12 13  1  0  0  0  0
 12 11  2  0  0  0  0
 13 14  2  0  0  0  0
 14 15  1  0  0  0  0
 15  3  1  0  0  0  0
 16 15  2  0  0  0  0
 17 11  1  0  0  0  0
 18 12  1  0  0  0  0
 19 13  1  0  0  0  0
 20 25  1  0  0  0  0
 20  7  1  0  0  0  0
 22 27  1  0  0  0  0
 22 21  1  0  0  0  0
 23 22  1  0  0  0  0
 24 23  1  0  0  0  0
 24 25  1  0  0  0  0
 25 26  1  0  0  0  0
 27 26  1  0  0  0  0
M  END
>  <minimizedAffinity>
-5.88429022

>  <minimizedRMSD>
1.39136505

$$$$
