
 OpenBabel03272506253D

 30 32  0  0  0  0  0  0  0  0999 V2000
   33.6930   30.0430   46.2180 C   0  0  0  0  0  0  0  0  0  0  0  0
   32.3510   30.2660   46.0610 C   0  0  0  0  0  0  0  0  0  0  0  0
   31.7490   30.7210   44.8930 C   0  0  0  0  0  0  0  0  0  0  0  0
   32.5790   30.9730   43.7810 C   0  0  0  0  0  0  0  0  0  0  0  0
   33.9320   30.7480   43.9410 C   0  0  0  0  0  0  0  0  0  0  0  0
   34.5060   30.2970   45.1100 C   0  0  0  0  0  0  0  0  0  0  0  0
   31.6310   30.0950   46.8750 H   0  0  0  0  0  0  0  0  0  0  0  0
   30.6830   30.8830   44.8130 H   0  0  0  0  0  0  0  0  0  0  0  0
   32.1880   31.3280   42.8430 H   0  0  0  0  0  0  0  0  0  0  0  0
   34.5820   30.9370   43.0950 H   0  0  0  0  0  0  0  0  0  0  0  0
   34.6350   30.5390   48.4110 C   0  0  0  0  0  0  0  0  0  0  0  0
   34.1430   29.5680   47.5040 C   0  0  0  0  0  0  0  0  0  0  0  0
   34.1350   28.2360   47.9220 C   0  0  0  0  0  0  0  0  0  0  0  0
   34.5900   27.9310   49.1600 N   0  0  0  0  0  0  0  0  0  0  0  0
   35.0590   28.8840   50.0170 C   0  0  0  0  0  0  0  0  0  0  0  0
   35.0740   30.1910   49.6210 N   0  0  0  0  0  0  0  0  0  0  0  0
   34.6550   31.5800   48.1120 H   0  0  0  0  0  0  0  0  0  0  0  0
   35.3830   28.4750   50.9630 H   0  0  0  0  0  0  0  0  0  0  0  0
   33.6420   27.1170   47.0600 C   0  0  0  0  0  0  0  0  0  0  0  0
   34.0200   25.8890   47.6590 F   0  0  0  0  0  0  0  0  0  0  0  0
   32.3220   27.0750   46.8140 F   0  0  0  0  0  0  0  0  0  0  0  0
   34.3400   27.1050   45.8620 F   0  0  0  0  0  0  0  0  0  0  0  0
   36.2360   30.0050   45.3150 S   0  0  0  0  0  0  0  0  0  0  0  0
   40.2030   33.3550   47.0780 H   0  0  0  0  0  0  0  0  0  0  0  0
   39.2590   32.9920   46.7850 N   0  0  0  0  0  0  0  0  0  0  0  0
   39.3430   32.4940   45.4400 C   0  0  0  0  0  2  0  0  0  0  0  0
   37.9600   32.1440   44.9270 C   0  0  0  0  0  2  0  0  0  0  0  0
   37.1500   31.4060   45.9720 C   0  0  0  0  0  3  0  0  0  0  0  0
   38.1240   30.8220   46.9940 C   0  0  0  0  0  2  0  0  0  0  0  0
   38.9780   31.8640   47.6410 C   0  0  0  0  0  2  0  0  0  0  0  0
  1 12  1  0  0  0  0
  2  1  1  0  0  0  0
  2  7  1  0  0  0  0
  3  2  2  0  0  0  0
  4  5  2  0  0  0  0
  4  3  1  0  0  0  0
  5  6  1  0  0  0  0
  6 23  1  0  0  0  0
  6  1  2  0  0  0  0
  8  3  1  0  0  0  0
  9  4  1  0  0  0  0
 10  5  1  0  0  0  0
 11 16  1  0  0  0  0
 12 13  1  0  0  0  0
 12 11  2  0  0  0  0
 13 14  2  0  0  0  0
 14 15  1  0  0  0  0
 15 18  1  0  0  0  0
 16 15  2  0  0  0  0
 17 11  1  0  0  0  0
 19 20  1  0  0  0  0
 19 13  1  0  0  0  0
 21 19  1  0  0  0  0
 22 19  1  0  0  0  0
 23 28  1  0  0  0  0
 25 24  1  0  0  0  0
 25 30  1  0  0  0  0
 26 25  1  0  0  0  0
 27 26  1  0  0  0  0
 27 28  1  0  0  0  0
 28 29  1  0  0  0  0
 29 30  1  0  0  0  0
M  END
>  <minimizedAffinity>
-4.59187365

>  <minimizedRMSD>
5.09261084

$$$$
