
 OpenBabel03272507163D

 24 26  0  0  1  0  0  0  0  0999 V2000
   37.3010   30.6780   50.9430 C   0  0  1  0  0  0  0  0  0  0  0  0
   36.4430   29.5230   51.0540 C   0  0  2  0  0  0  0  0  0  0  0  0
   37.9100   29.3420   51.3930 C   0  0  0  0  0  0  0  0  0  0  0  0
   37.2830   31.4770   51.7160 H   0  0  0  0  0  0  0  0  0  0  0  0
   35.7360   29.4480   51.8800 H   0  0  0  0  0  0  0  0  0  0  0  0
   38.5240   28.7790   50.6840 H   0  0  0  0  0  0  0  0  0  0  0  0
   38.1940   29.3090   52.4640 H   0  0  0  0  0  0  0  0  0  0  0  0
   37.8490   31.1330   49.6060 C   0  0  0  0  0  0  0  0  0  0  0  0
   38.3710   32.4260   49.5520 C   0  0  0  0  0  0  0  0  0  0  0  0
   38.8390   32.8210   48.3130 C   0  0  0  0  0  0  0  0  0  0  0  0
   38.7750   31.9710   47.2390 N   0  0  0  0  0  0  0  0  0  0  0  0
   38.2610   30.7260   47.3350 C   0  0  0  0  0  0  0  0  0  0  0  0
   37.7880   30.2920   48.5390 N   0  0  0  0  0  0  0  0  0  0  0  0
   38.3830   33.0300   50.4440 H   0  0  0  0  0  0  0  0  0  0  0  0
   39.2510   33.8190   48.2320 H   0  0  0  0  0  0  0  0  0  0  0  0
   38.2430   30.1110   46.4470 H   0  0  0  0  0  0  0  0  0  0  0  0
   36.0250   28.8630   49.8860 O   0  0  0  0  0  0  0  0  0  0  0  0
   32.4630   30.1640   47.2450 H   0  0  0  0  0  0  0  0  0  0  0  0
   33.3360   29.5770   47.2620 N   0  0  0  0  0  0  0  0  0  0  0  0
   34.3200   30.3250   48.0110 C   0  0  0  0  0  0  0  0  0  0  0  0
   34.0830   30.0990   49.4800 C   0  0  0  0  0  0  0  0  0  0  0  0
   34.6560   28.7240   49.8260 C   0  0  0  0  0  0  0  0  0  0  0  0
   34.3210   27.8270   48.6520 C   0  0  0  0  0  0  0  0  0  0  0  0
   33.0630   28.3580   47.9630 C   0  0  0  0  0  0  0  0  0  0  0  0
  1  2  1  0  0  0  0
  1  3  1  0  0  0  0
  1  4  1  1  0  0  0
  2  3  1  0  0  0  0
  2  5  1  1  0  0  0
  3  7  1  0  0  0  0
  6  3  1  0  0  0  0
  8  1  1  0  0  0  0
  9  8  1  0  0  0  0
  9 14  1  0  0  0  0
 10  9  2  0  0  0  0
 11 12  2  0  0  0  0
 11 10  1  0  0  0  0
 12 13  1  0  0  0  0
 13  8  2  0  0  0  0
 15 10  1  0  0  0  0
 16 12  1  0  0  0  0
 17  2  1  0  0  0  0
 18 19  1  0  0  0  0
 19 24  1  0  0  0  0
 19 20  1  0  0  0  0
 20 21  1  0  0  0  0
 21 22  1  0  0  0  0
 22 17  1  0  0  0  0
 23 22  1  0  0  0  0
 24 23  1  0  0  0  0
M  END
>  <minimizedAffinity>
-5.29230642

>  <minimizedRMSD>
0.953415334

$$$$
