
 OpenBabel03272509183D

 31 33  0  0  0  0  0  0  0  0999 V2000
   38.0730   31.4170   47.8930 C   0  0  0  0  0  0  0  0  0  0  0  0
   37.2390   31.5870   48.9920 C   0  0  0  0  0  0  0  0  0  0  0  0
   37.4540   32.7720   49.7180 C   0  0  0  0  0  0  0  0  0  0  0  0
   38.4510   33.6760   49.3160 C   0  0  0  0  0  0  0  0  0  0  0  0
   39.2300   33.4080   48.1990 C   0  0  0  0  0  0  0  0  0  0  0  0
   39.0400   32.2600   47.4740 C   0  0  0  0  0  0  0  0  0  0  0  0
   36.8050   32.9040   50.5730 H   0  0  0  0  0  0  0  0  0  0  0  0
   38.4960   34.5320   49.9680 H   0  0  0  0  0  0  0  0  0  0  0  0
   39.9170   34.2220   48.0770 H   0  0  0  0  0  0  0  0  0  0  0  0
   35.1040   30.4460   48.5690 C   0  0  0  0  0  0  0  0  0  0  0  0
   36.2270   30.6510   49.3840 C   0  0  0  0  0  0  0  0  0  0  0  0
   36.3090   29.9200   50.5660 C   0  0  0  0  0  0  0  0  0  0  0  0
   35.2960   29.0540   50.8570 N   0  0  0  0  0  0  0  0  0  0  0  0
   34.2330   28.8820   50.0510 C   0  0  0  0  0  0  0  0  0  0  0  0
   34.1350   29.5810   48.9030 N   0  0  0  0  0  0  0  0  0  0  0  0
   34.9670   30.9820   47.6280 H   0  0  0  0  0  0  0  0  0  0  0  0
   33.5520   28.1510   50.4700 H   0  0  0  0  0  0  0  0  0  0  0  0
   37.4640   30.0890   51.4650 C   0  0  0  0  0  0  0  0  0  0  0  0
   38.3270   30.4880   50.8720 H   0  0  0  0  0  0  0  0  0  0  0  0
   37.7830   29.1480   51.9620 H   0  0  0  0  0  0  0  0  0  0  0  0
   37.2030   30.7950   52.2800 H   0  0  0  0  0  0  0  0  0  0  0  0
   37.9150   30.2530   47.1180 O   0  0  0  0  0  0  0  0  0  0  0  0
   37.3040   30.2260   46.3100 H   0  0  0  0  0  0  0  0  0  0  0  0
   39.8240   32.0270   46.3740 O   0  0  0  0  0  0  0  0  0  0  0  0
   38.7540   29.7170   43.2400 H   0  0  0  0  0  0  0  0  0  0  0  0
   38.7780   30.3230   44.1020 N   0  0  0  0  0  0  0  0  0  0  0  0
   38.0980   31.5370   43.7490 C   0  0  0  0  0  2  0  0  0  0  0  0
   38.2840   32.6630   44.7330 C   0  0  0  0  0  2  0  0  0  0  0  0
   39.7280   32.7700   45.2080 C   0  0  0  0  0  3  0  0  0  0  0  0
   40.5420   31.9800   44.1560 C   0  0  0  0  0  2  0  0  0  0  0  0
   40.1790   30.5280   44.4130 C   0  0  0  0  0  2  0  0  0  0  0  0
  1  2  1  0  0  0  0
  2 11  1  0  0  0  0
  2  3  2  0  0  0  0
  3  7  1  0  0  0  0
  4  3  1  0  0  0  0
  4  8  1  0  0  0  0
  5  4  2  0  0  0  0
  6  1  2  0  0  0  0
  6  5  1  0  0  0  0
  9  5  1  0  0  0  0
 10 15  2  0  0  0  0
 10 11  1  0  0  0  0
 11 12  2  0  0  0  0
 12 13  1  0  0  0  0
 12 18  1  0  0  0  0
 14 17  1  0  0  0  0
 14 13  2  0  0  0  0
 15 14  1  0  0  0  0
 16 10  1  0  0  0  0
 18 20  1  0  0  0  0
 18 21  1  0  0  0  0
 19 18  1  0  0  0  0
 22  1  1  0  0  0  0
 23 22  1  0  0  0  0
 24  6  1  0  0  0  0
 25 26  1  0  0  0  0
 26 31  1  0  0  0  0
 27 26  1  0  0  0  0
 27 28  1  0  0  0  0
 28 29  1  0  0  0  0
 29 24  1  0  0  0  0
 30 31  1  0  0  0  0
 30 29  1  0  0  0  0
M  END
>  <minimizedAffinity>
-6.54227257

>  <minimizedRMSD>
2.4636085

$$$$
