
 OpenBabel03272508273D

 36 39  0  0  1  0  0  0  0  0999 V2000
   33.8590   28.8910   47.2530 C   0  0  2  0  0  0  0  0  0  0  0  0
   34.5720   28.1370   48.3670 C   0  0  2  0  0  0  0  0  0  0  0  0
   33.6480   28.0020   49.3670 O   0  0  0  0  0  0  0  0  0  0  0  0
   32.3890   28.0580   48.8670 C   0  0  0  0  0  0  0  0  0  0  0  0
   32.4790   28.2330   47.3640 C   0  0  1  0  0  0  0  0  0  0  0  0
   33.7190   29.9570   47.4830 H   0  0  0  0  0  0  0  0  0  0  0  0
   34.8540   27.1510   47.9800 H   0  0  0  0  0  0  0  0  0  0  0  0
   31.8620   27.0960   49.0500 H   0  0  0  0  0  0  0  0  0  0  0  0
   31.7450   28.8480   49.3140 H   0  0  0  0  0  0  0  0  0  0  0  0
   32.5890   27.2330   46.9190 H   0  0  0  0  0  0  0  0  0  0  0  0
   35.6430   30.3940   49.0460 C   0  0  1  0  0  0  0  0  0  0  0  0
   35.7350   28.9760   48.7910 C   0  0  1  0  0  0  0  0  0  0  0  0
   35.9070   29.4210   50.2060 C   0  0  0  0  0  0  0  0  0  0  0  0
   34.7340   30.9860   49.2760 H   0  0  0  0  0  0  0  0  0  0  0  0
   36.6960   28.6360   48.3070 H   0  0  0  0  0  0  0  0  0  0  0  0
   36.9060   29.4170   50.6720 H   0  0  0  0  0  0  0  0  0  0  0  0
   35.0860   29.1540   50.8840 H   0  0  0  0  0  0  0  0  0  0  0  0
   36.8260   31.3160   48.8010 C   0  0  0  0  0  0  0  0  0  0  0  0
   37.0640   32.3160   49.7450 C   0  0  0  0  0  0  0  0  0  0  0  0
   38.1410   33.1450   49.4540 C   0  0  0  0  0  0  0  0  0  0  0  0
   38.8870   32.9680   48.3190 N   0  0  0  0  0  0  0  0  0  0  0  0
   38.6160   31.9820   47.4320 C   0  0  0  0  0  0  0  0  0  0  0  0
   37.5690   31.1440   47.6780 N   0  0  0  0  0  0  0  0  0  0  0  0
   36.4670   32.4320   50.6220 H   0  0  0  0  0  0  0  0  0  0  0  0
   38.3980   33.9540   50.1390 H   0  0  0  0  0  0  0  0  0  0  0  0
   39.1970   31.8310   46.5340 H   0  0  0  0  0  0  0  0  0  0  0  0
   34.4150   28.6850   46.0050 O   0  0  0  0  0  0  0  0  0  0  0  0
   34.2380   29.4880   45.4610 H   0  0  0  0  0  0  0  0  0  0  0  0
   31.5020   29.0090   46.8110 O   0  0  0  0  0  0  0  0  0  0  0  0
   30.3870   30.1810   43.1510 H   0  0  0  0  0  0  0  0  0  0  0  0
   29.9740   29.6270   43.9500 N   0  0  0  0  0  0  0  0  0  0  0  0
   30.0340   30.3790   45.1750 C   0  0  0  0  0  2  0  0  0  0  0  0
   29.3260   29.5490   46.2490 C   0  0  0  0  0  2  0  0  0  0  0  0
   30.3120   28.4020   46.5220 C   0  0  0  0  0  3  0  0  0  0  0  0
   30.3280   27.6060   45.2410 C   0  0  0  0  0  2  0  0  0  0  0  0
   30.7960   28.4500   44.0750 C   0  0  0  0  0  2  0  0  0  0  0  0
  1  5  1  0  0  0  0
  1  6  1  1  0  0  0
  1  2  1  0  0  0  0
  2  7  1  6  0  0  0
  2 12  1  0  0  0  0
  2  3  1  0  0  0  0
  4  8  1  0  0  0  0
  4  9  1  0  0  0  0
  4  3  1  0  0  0  0
  5 10  1  6  0  0  0
  5  4  1  0  0  0  0
 11 14  1  6  0  0  0
 11 13  1  0  0  0  0
 12 15  1  6  0  0  0
 12 11  1  0  0  0  0
 12 13  1  0  0  0  0
 13 16  1  0  0  0  0
 13 17  1  0  0  0  0
 18 11  1  0  0  0  0
 18 19  1  0  0  0  0
 19 24  1  0  0  0  0
 20 19  2  0  0  0  0
 20 25  1  0  0  0  0
 21 20  1  0  0  0  0
 22 23  1  0  0  0  0
 22 21  2  0  0  0  0
 23 18  2  0  0  0  0
 26 22  1  0  0  0  0
 27  1  1  0  0  0  0
 28 27  1  0  0  0  0
 29  5  1  0  0  0  0
 30 31  1  0  0  0  0
 31 36  1  0  0  0  0
 31 32  1  0  0  0  0
 32 33  1  0  0  0  0
 33 34  1  0  0  0  0
 34 29  1  0  0  0  0
 35 34  1  0  0  0  0
 36 35  1  0  0  0  0
M  END
>  <minimizedAffinity>
-4.96381426

>  <minimizedRMSD>
1.53676331

$$$$
