
 OpenBabel03272508273D

 36 39  0  0  1  0  0  0  0  0999 V2000
   33.8070   28.8270   47.2460 C   0  0  2  0  0  0  0  0  0  0  0  0
   34.4880   28.1000   48.3980 C   0  0  2  0  0  0  0  0  0  0  0  0
   33.5310   27.9770   49.3680 O   0  0  0  0  0  0  0  0  0  0  0  0
   32.2900   28.0130   48.8240 C   0  0  0  0  0  0  0  0  0  0  0  0
   32.4300   28.1600   47.3220 C   0  0  1  0  0  0  0  0  0  0  0  0
   33.6520   29.8950   47.4500 H   0  0  0  0  0  0  0  0  0  0  0  0
   34.7910   27.1100   48.0390 H   0  0  0  0  0  0  0  0  0  0  0  0
   31.7650   27.0500   49.0070 H   0  0  0  0  0  0  0  0  0  0  0  0
   31.6250   28.8060   49.2330 H   0  0  0  0  0  0  0  0  0  0  0  0
   32.5630   27.1530   46.9000 H   0  0  0  0  0  0  0  0  0  0  0  0
   35.5430   30.3920   48.9790 C   0  0  1  0  0  0  0  0  0  0  0  0
   35.6290   28.9560   48.8450 C   0  0  1  0  0  0  0  0  0  0  0  0
   35.6990   29.5120   50.2290 C   0  0  0  0  0  0  0  0  0  0  0  0
   34.6300   31.0110   49.0890 H   0  0  0  0  0  0  0  0  0  0  0  0
   36.6190   28.5680   48.4670 H   0  0  0  0  0  0  0  0  0  0  0  0
   36.6580   29.5330   50.7720 H   0  0  0  0  0  0  0  0  0  0  0  0
   34.8220   29.3100   50.8590 H   0  0  0  0  0  0  0  0  0  0  0  0
   36.7580   31.2780   48.7560 C   0  0  0  0  0  0  0  0  0  0  0  0
   37.0210   32.2560   49.7150 C   0  0  0  0  0  0  0  0  0  0  0  0
   38.1270   33.0530   49.4450 C   0  0  0  0  0  0  0  0  0  0  0  0
   38.8770   32.8670   48.3140 N   0  0  0  0  0  0  0  0  0  0  0  0
   38.5810   31.9020   47.4110 C   0  0  0  0  0  0  0  0  0  0  0  0
   37.5050   31.0950   47.6370 N   0  0  0  0  0  0  0  0  0  0  0  0
   36.4200   32.3810   50.5890 H   0  0  0  0  0  0  0  0  0  0  0  0
   38.4050   33.8440   50.1420 H   0  0  0  0  0  0  0  0  0  0  0  0
   39.1640   31.7440   46.5160 H   0  0  0  0  0  0  0  0  0  0  0  0
   34.4080   28.6020   46.0210 O   0  0  0  0  0  0  0  0  0  0  0  0
   34.2430   29.3930   45.4560 H   0  0  0  0  0  0  0  0  0  0  0  0
   31.4670   28.9160   46.7210 O   0  0  0  0  0  0  0  0  0  0  0  0
   28.0190   30.9280   46.4510 H   0  0  0  0  0  0  0  0  0  0  0  0
   28.4310   30.0370   46.0610 N   0  0  0  0  0  0  0  0  0  0  0  0
   28.9230   29.2000   47.1230 C   0  0  0  0  0  2  0  0  0  0  0  0
   29.4070   27.8960   46.4810 C   0  0  0  0  0  2  0  0  0  0  0  0
   30.7020   28.3090   45.7650 C   0  0  0  0  0  3  0  0  0  0  0  0
   30.2460   29.2380   44.6670 C   0  0  0  0  0  2  0  0  0  0  0  0
   29.5360   30.4500   45.2310 C   0  0  0  0  0  2  0  0  0  0  0  0
  1  5  1  0  0  0  0
  1  6  1  1  0  0  0
  1  2  1  0  0  0  0
  2  7  1  6  0  0  0
  2 12  1  0  0  0  0
  2  3  1  0  0  0  0
  4  8  1  0  0  0  0
  4  9  1  0  0  0  0
  4  3  1  0  0  0  0
  5 10  1  6  0  0  0
  5  4  1  0  0  0  0
 11 14  1  6  0  0  0
 11 13  1  0  0  0  0
 12 15  1  6  0  0  0
 12 11  1  0  0  0  0
 12 13  1  0  0  0  0
 13 16  1  0  0  0  0
 13 17  1  0  0  0  0
 18 11  1  0  0  0  0
 18 19  1  0  0  0  0
 19 24  1  0  0  0  0
 20 19  2  0  0  0  0
 20 25  1  0  0  0  0
 21 20  1  0  0  0  0
 22 23  1  0  0  0  0
 22 21  2  0  0  0  0
 23 18  2  0  0  0  0
 26 22  1  0  0  0  0
 27  1  1  0  0  0  0
 28 27  1  0  0  0  0
 29  5  1  0  0  0  0
 31 30  1  0  0  0  0
 31 32  1  0  0  0  0
 33 32  1  0  0  0  0
 34 33  1  0  0  0  0
 34 29  1  0  0  0  0
 35 36  1  0  0  0  0
 35 34  1  0  0  0  0
 36 31  1  0  0  0  0
M  END
>  <minimizedAffinity>
-5.11077642

>  <minimizedRMSD>
1.07737219

$$$$
