
 OpenBabel03272509193D

 31 33  0  0  0  0  0  0  0  0999 V2000
   38.9150   25.6350   33.8610 C   0  0  0  0  0  0  0  0  0  0  0  0
   38.6920   26.4430   32.7530 C   0  0  0  0  0  0  0  0  0  0  0  0
   37.7230   27.4450   32.9390 C   0  0  0  0  0  0  0  0  0  0  0  0
   37.0620   27.5700   34.1720 C   0  0  0  0  0  0  0  0  0  0  0  0
   37.3620   26.7070   35.2160 C   0  0  0  0  0  0  0  0  0  0  0  0
   38.3030   25.7220   35.0620 C   0  0  0  0  0  0  0  0  0  0  0  0
   37.5500   28.0730   32.0760 H   0  0  0  0  0  0  0  0  0  0  0  0
   36.3510   28.3780   34.1610 H   0  0  0  0  0  0  0  0  0  0  0  0
   36.7480   26.9800   36.0520 H   0  0  0  0  0  0  0  0  0  0  0  0
   40.5350   27.0490   31.2450 C   0  0  0  0  0  0  0  0  0  0  0  0
   39.3780   26.2990   31.5030 C   0  0  0  0  0  0  0  0  0  0  0  0
   38.9390   25.4270   30.5110 C   0  0  0  0  0  0  0  0  0  0  0  0
   39.6570   25.3590   29.3530 N   0  0  0  0  0  0  0  0  0  0  0  0
   40.7630   26.0940   29.1390 C   0  0  0  0  0  0  0  0  0  0  0  0
   41.2040   26.9430   30.0870 N   0  0  0  0  0  0  0  0  0  0  0  0
   40.9420   27.7540   31.9730 H   0  0  0  0  0  0  0  0  0  0  0  0
   41.1750   25.8850   28.1580 H   0  0  0  0  0  0  0  0  0  0  0  0
   37.7320   24.6100   30.7220 C   0  0  0  0  0  0  0  0  0  0  0  0
   37.5590   24.5000   31.8230 H   0  0  0  0  0  0  0  0  0  0  0  0
   37.7970   23.5960   30.2710 H   0  0  0  0  0  0  0  0  0  0  0  0
   36.8590   25.1030   30.2470 H   0  0  0  0  0  0  0  0  0  0  0  0
   39.8720   24.6090   33.7500 O   0  0  0  0  0  0  0  0  0  0  0  0
   40.8430   24.7520   34.0050 H   0  0  0  0  0  0  0  0  0  0  0  0
   38.5780   24.8880   36.1150 O   0  0  0  0  0  0  0  0  0  0  0  0
   40.0790   21.8220   38.2710 H   0  0  0  0  0  0  0  0  0  0  0  0
   39.7730   22.7630   37.9080 N   0  0  0  0  0  0  0  0  0  0  0  0
   38.7690   23.2310   38.8220 C   0  0  0  0  0  2  0  0  0  0  0  0
   37.9780   24.4140   38.3250 C   0  0  0  0  0  2  0  0  0  0  0  0
   37.5900   24.2630   36.8600 C   0  0  0  0  0  3  0  0  0  0  0  0
   37.7580   22.7530   36.5670 C   0  0  0  0  0  2  0  0  0  0  0  0
   39.2600   22.5340   36.5720 C   0  0  0  0  0  2  0  0  0  0  0  0
  1  6  1  0  0  0  0
  2  3  1  0  0  0  0
  2  1  2  0  0  0  0
  3  4  2  0  0  0  0
  4  5  1  0  0  0  0
  5  9  1  0  0  0  0
  6  5  2  0  0  0  0
  6 24  1  0  0  0  0
  7  3  1  0  0  0  0
  8  4  1  0  0  0  0
 10 11  1  0  0  0  0
 10 16  1  0  0  0  0
 11  2  1  0  0  0  0
 12 18  1  0  0  0  0
 12 11  2  0  0  0  0
 13 12  1  0  0  0  0
 14 13  2  0  0  0  0
 14 15  1  0  0  0  0
 15 10  2  0  0  0  0
 17 14  1  0  0  0  0
 18 19  1  0  0  0  0
 20 18  1  0  0  0  0
 21 18  1  0  0  0  0
 22  1  1  0  0  0  0
 22 23  1  0  0  0  0
 24 29  1  0  0  0  0
 26 25  1  0  0  0  0
 26 27  1  0  0  0  0
 28 27  1  0  0  0  0
 29 28  1  0  0  0  0
 30 31  1  0  0  0  0
 30 29  1  0  0  0  0
 31 26  1  0  0  0  0
M  END
>  <minimizedAffinity>
-5.02351141

$$$$

 OpenBabel03272509193D

 31 33  0  0  0  0  0  0  0  0999 V2000
   39.0250   25.6410   33.8970 C   0  0  0  0  0  0  0  0  0  0  0  0
   38.8390   26.4560   32.7870 C   0  0  0  0  0  0  0  0  0  0  0  0
   37.8790   27.4700   32.9540 C   0  0  0  0  0  0  0  0  0  0  0  0
   37.1900   27.5970   34.1720 C   0  0  0  0  0  0  0  0  0  0  0  0
   37.4530   26.7260   35.2190 C   0  0  0  0  0  0  0  0  0  0  0  0
   38.3850   25.7300   35.0820 C   0  0  0  0  0  0  0  0  0  0  0  0
   37.7350   28.1030   32.0900 H   0  0  0  0  0  0  0  0  0  0  0  0
   36.4890   28.4140   34.1470 H   0  0  0  0  0  0  0  0  0  0  0  0
   36.8230   27.0030   36.0410 H   0  0  0  0  0  0  0  0  0  0  0  0
   38.9710   25.6210   30.4800 C   0  0  0  0  0  0  0  0  0  0  0  0
   39.5540   26.3090   31.5540 C   0  0  0  0  0  0  0  0  0  0  0  0
   40.8320   26.8300   31.3700 C   0  0  0  0  0  0  0  0  0  0  0  0
   41.4350   26.6390   30.1610 N   0  0  0  0  0  0  0  0  0  0  0  0
   40.8450   25.9730   29.1510 C   0  0  0  0  0  0  0  0  0  0  0  0
   39.6090   25.4620   29.3110 N   0  0  0  0  0  0  0  0  0  0  0  0
   37.9730   25.1830   30.5460 H   0  0  0  0  0  0  0  0  0  0  0  0
   41.4970   25.9390   28.2870 H   0  0  0  0  0  0  0  0  0  0  0  0
   41.4980   27.5640   32.4590 C   0  0  0  0  0  0  0  0  0  0  0  0
   40.7170   27.9580   33.1590 H   0  0  0  0  0  0  0  0  0  0  0  0
   42.1190   28.4160   32.1070 H   0  0  0  0  0  0  0  0  0  0  0  0
   42.1870   26.8840   33.0010 H   0  0  0  0  0  0  0  0  0  0  0  0
   39.9720   24.6030   33.8040 O   0  0  0  0  0  0  0  0  0  0  0  0
   40.9380   24.7330   34.0820 H   0  0  0  0  0  0  0  0  0  0  0  0
   38.6250   24.8880   36.1380 O   0  0  0  0  0  0  0  0  0  0  0  0
   40.0370   21.8000   38.3240 H   0  0  0  0  0  0  0  0  0  0  0  0
   39.7510   22.7450   37.9550 N   0  0  0  0  0  0  0  0  0  0  0  0
   38.7290   23.2220   38.8440 C   0  0  0  0  0  2  0  0  0  0  0  0
   37.9630   24.4140   38.3300 C   0  0  0  0  0  2  0  0  0  0  0  0
   37.6110   24.2710   36.8550 C   0  0  0  0  0  3  0  0  0  0  0  0
   37.7700   22.7600   36.5630 C   0  0  0  0  0  2  0  0  0  0  0  0
   39.2700   22.5250   36.6050 C   0  0  0  0  0  2  0  0  0  0  0  0
  1  6  1  0  0  0  0
  2  3  1  0  0  0  0
  2  1  2  0  0  0  0
  3  4  2  0  0  0  0
  4  5  1  0  0  0  0
  5  9  1  0  0  0  0
  6  5  2  0  0  0  0
  6 24  1  0  0  0  0
  7  3  1  0  0  0  0
  8  4  1  0  0  0  0
 10 16  1  0  0  0  0
 10 11  1  0  0  0  0
 11  2  1  0  0  0  0
 12 11  2  0  0  0  0
 12 18  1  0  0  0  0
 13 12  1  0  0  0  0
 14 15  1  0  0  0  0
 14 13  2  0  0  0  0
 15 10  2  0  0  0  0
 17 14  1  0  0  0  0
 18 21  1  0  0  0  0
 18 19  1  0  0  0  0
 20 18  1  0  0  0  0
 22  1  1  0  0  0  0
 22 23  1  0  0  0  0
 24 29  1  0  0  0  0
 26 25  1  0  0  0  0
 26 27  1  0  0  0  0
 28 27  1  0  0  0  0
 29 28  1  0  0  0  0
 30 31  1  0  0  0  0
 30 29  1  0  0  0  0
 31 26  1  0  0  0  0
M  END
>  <minimizedAffinity>
-4.97394753

$$$$

 OpenBabel03272509193D

 31 33  0  0  0  0  0  0  0  0999 V2000
   37.1710   27.7670   34.5020 C   0  0  0  0  0  0  0  0  0  0  0  0
   37.6300   26.6040   33.8960 C   0  0  0  0  0  0  0  0  0  0  0  0
   37.0740   26.3390   32.6310 C   0  0  0  0  0  0  0  0  0  0  0  0
   36.1300   27.2180   32.0750 C   0  0  0  0  0  0  0  0  0  0  0  0
   35.7400   28.3550   32.7680 C   0  0  0  0  0  0  0  0  0  0  0  0
   36.2670   28.6370   34.0020 C   0  0  0  0  0  0  0  0  0  0  0  0
   37.4320   25.4340   32.1600 H   0  0  0  0  0  0  0  0  0  0  0  0
   35.7980   26.8830   31.1070 H   0  0  0  0  0  0  0  0  0  0  0  0
   35.0220   28.8750   32.1650 H   0  0  0  0  0  0  0  0  0  0  0  0
   38.1720   24.5960   35.2040 C   0  0  0  0  0  0  0  0  0  0  0  0
   38.5950   25.7210   34.4810 C   0  0  0  0  0  0  0  0  0  0  0  0
   39.9650   25.9350   34.3610 C   0  0  0  0  0  0  0  0  0  0  0  0
   40.8080   25.0400   34.9540 N   0  0  0  0  0  0  0  0  0  0  0  0
   40.3670   23.9710   35.6400 C   0  0  0  0  0  0  0  0  0  0  0  0
   39.0450   23.7470   35.7670 N   0  0  0  0  0  0  0  0  0  0  0  0
   37.1150   24.3600   35.3430 H   0  0  0  0  0  0  0  0  0  0  0  0
   41.2020   23.3960   36.0250 H   0  0  0  0  0  0  0  0  0  0  0  0
   40.4730   27.0970   33.6130 C   0  0  0  0  0  0  0  0  0  0  0  0
   39.6850   27.4330   32.8910 H   0  0  0  0  0  0  0  0  0  0  0  0
   41.4060   26.8890   33.0470 H   0  0  0  0  0  0  0  0  0  0  0  0
   40.7170   27.9180   34.3180 H   0  0  0  0  0  0  0  0  0  0  0  0
   37.6830   28.0980   35.7710 O   0  0  0  0  0  0  0  0  0  0  0  0
   38.4970   28.6910   35.8820 H   0  0  0  0  0  0  0  0  0  0  0  0
   35.8630   29.7710   34.6590 O   0  0  0  0  0  0  0  0  0  0  0  0
   36.3190   33.4670   36.2210 H   0  0  0  0  0  0  0  0  0  0  0  0
   36.3910   32.5790   35.6560 N   0  0  0  0  0  0  0  0  0  0  0  0
   35.9990   32.9290   34.3200 C   0  0  0  0  0  2  0  0  0  0  0  0
   35.7330   31.7500   33.4210 C   0  0  0  0  0  2  0  0  0  0  0  0
   34.9400   30.6600   34.1310 C   0  0  0  0  0  3  0  0  0  0  0  0
   34.3160   31.3700   35.3550 C   0  0  0  0  0  2  0  0  0  0  0  0
   35.4920   31.6290   36.2800 C   0  0  0  0  0  2  0  0  0  0  0  0
  1 22  1  0  0  0  0
  2 11  1  0  0  0  0
  2  1  2  0  0  0  0
  3  2  1  0  0  0  0
  4  3  2  0  0  0  0
  4  5  1  0  0  0  0
  5  6  2  0  0  0  0
  6  1  1  0  0  0  0
  6 24  1  0  0  0  0
  7  3  1  0  0  0  0
  8  4  1  0  0  0  0
  9  5  1  0  0  0  0
 10 16  1  0  0  0  0
 10 15  1  0  0  0  0
 11 10  2  0  0  0  0
 12 11  1  0  0  0  0
 12 13  2  0  0  0  0
 13 14  1  0  0  0  0
 14 15  2  0  0  0  0
 14 17  1  0  0  0  0
 18 21  1  0  0  0  0
 18 12  1  0  0  0  0
 19 18  1  0  0  0  0
 20 18  1  0  0  0  0
 22 23  1  0  0  0  0
 26 25  1  0  0  0  0
 26 31  1  0  0  0  0
 27 26  1  0  0  0  0
 28 29  1  0  0  0  0
 28 27  1  0  0  0  0
 29 24  1  0  0  0  0
 29 30  1  0  0  0  0
 30 31  1  0  0  0  0
M  END
>  <minimizedAffinity>
-4.92975187

$$$$

 OpenBabel03272509193D

 31 33  0  0  0  0  0  0  0  0999 V2000
   37.4690   22.9760   32.3690 C   0  0  0  0  0  0  0  0  0  0  0  0
   36.4210   22.2870   31.7720 C   0  0  0  0  0  0  0  0  0  0  0  0
   35.3850   23.1020   31.2800 C   0  0  0  0  0  0  0  0  0  0  0  0
   35.4590   24.4980   31.4140 C   0  0  0  0  0  0  0  0  0  0  0  0
   36.5560   25.0840   32.0300 C   0  0  0  0  0  0  0  0  0  0  0  0
   37.5790   24.3130   32.5170 C   0  0  0  0  0  0  0  0  0  0  0  0
   34.5690   22.5650   30.8150 H   0  0  0  0  0  0  0  0  0  0  0  0
   34.5950   24.9830   30.9920 H   0  0  0  0  0  0  0  0  0  0  0  0
   36.4060   26.1460   32.0220 H   0  0  0  0  0  0  0  0  0  0  0  0
   36.7300   20.2470   30.4380 C   0  0  0  0  0  0  0  0  0  0  0  0
   36.3650   20.8610   31.6450 C   0  0  0  0  0  0  0  0  0  0  0  0
   35.9560   20.0380   32.6900 C   0  0  0  0  0  0  0  0  0  0  0  0
   35.9340   18.6900   32.4760 N   0  0  0  0  0  0  0  0  0  0  0  0
   36.2910   18.1360   31.3030 C   0  0  0  0  0  0  0  0  0  0  0  0
   36.6900   18.9150   30.2800 N   0  0  0  0  0  0  0  0  0  0  0  0
   37.0610   20.8240   29.5720 H   0  0  0  0  0  0  0  0  0  0  0  0
   36.2000   17.0570   31.3510 H   0  0  0  0  0  0  0  0  0  0  0  0
   35.5620   20.6210   33.9840 C   0  0  0  0  0  0  0  0  0  0  0  0
   36.0360   21.6310   34.0840 H   0  0  0  0  0  0  0  0  0  0  0  0
   35.8580   20.0040   34.8590 H   0  0  0  0  0  0  0  0  0  0  0  0
   34.4570   20.7140   34.0310 H   0  0  0  0  0  0  0  0  0  0  0  0
   38.5440   22.2260   32.8850 O   0  0  0  0  0  0  0  0  0  0  0  0
   39.3640   22.0140   32.3300 H   0  0  0  0  0  0  0  0  0  0  0  0
   38.6500   24.9240   33.1170 O   0  0  0  0  0  0  0  0  0  0  0  0
   41.7600   25.3140   35.6630 H   0  0  0  0  0  0  0  0  0  0  0  0
   41.1130   25.3210   34.8310 N   0  0  0  0  0  0  0  0  0  0  0  0
   40.8720   26.7050   34.5320 C   0  0  0  0  0  2  0  0  0  0  0  0
   39.7330   26.9450   33.5740 C   0  0  0  0  0  2  0  0  0  0  0  0
   38.5290   26.0680   33.8910 C   0  0  0  0  0  3  0  0  0  0  0  0
   38.7630   25.5980   35.3460 C   0  0  0  0  0  2  0  0  0  0  0  0
   39.9160   24.6140   35.2430 C   0  0  0  0  0  2  0  0  0  0  0  0
  1  6  1  0  0  0  0
  1 22  1  0  0  0  0
  2  1  2  0  0  0  0
  3  4  2  0  0  0  0
  3  2  1  0  0  0  0
  4  5  1  0  0  0  0
  5  6  2  0  0  0  0
  6 24  1  0  0  0  0
  7  3  1  0  0  0  0
  8  4  1  0  0  0  0
  9  5  1  0  0  0  0
 10 11  1  0  0  0  0
 11  2  1  0  0  0  0
 11 12  2  0  0  0  0
 12 18  1  0  0  0  0
 13 12  1  0  0  0  0
 14 17  1  0  0  0  0
 14 13  2  0  0  0  0
 15 10  2  0  0  0  0
 15 14  1  0  0  0  0
 16 10  1  0  0  0  0
 18 21  1  0  0  0  0
 18 19  1  0  0  0  0
 18 20  1  0  0  0  0
 23 22  1  0  0  0  0
 24 29  1  0  0  0  0
 26 31  1  0  0  0  0
 26 25  1  0  0  0  0
 27 26  1  0  0  0  0
 28 29  1  0  0  0  0
 28 27  1  0  0  0  0
 29 30  1  0  0  0  0
 31 30  1  0  0  0  0
M  END
>  <minimizedAffinity>
-4.91691113

$$$$

 OpenBabel03272509193D

 31 33  0  0  0  0  0  0  0  0999 V2000
   37.6040   26.6850   31.9330 C   0  0  0  0  0  0  0  0  0  0  0  0
   36.7000   27.1750   30.9980 C   0  0  0  0  0  0  0  0  0  0  0  0
   35.6550   26.2920   30.6700 C   0  0  0  0  0  0  0  0  0  0  0  0
   35.5850   25.0240   31.2710 C   0  0  0  0  0  0  0  0  0  0  0  0
   36.5440   24.6340   32.1950 C   0  0  0  0  0  0  0  0  0  0  0  0
   37.5720   25.4760   32.5330 C   0  0  0  0  0  0  0  0  0  0  0  0
   34.9520   26.6740   29.9430 H   0  0  0  0  0  0  0  0  0  0  0  0
   34.7340   24.4660   30.9200 H   0  0  0  0  0  0  0  0  0  0  0  0
   36.2980   23.6440   32.5230 H   0  0  0  0  0  0  0  0  0  0  0  0
   37.4780   28.6420   29.1870 C   0  0  0  0  0  0  0  0  0  0  0  0
   36.7900   28.4720   30.3970 C   0  0  0  0  0  0  0  0  0  0  0  0
   36.2110   29.5990   30.9740 C   0  0  0  0  0  0  0  0  0  0  0  0
   36.3500   30.7940   30.3300 N   0  0  0  0  0  0  0  0  0  0  0  0
   37.0180   30.9190   29.1690 C   0  0  0  0  0  0  0  0  0  0  0  0
   37.5850   29.8400   28.5950 N   0  0  0  0  0  0  0  0  0  0  0  0
   37.9590   27.8070   28.6730 H   0  0  0  0  0  0  0  0  0  0  0  0
   37.0060   31.9500   28.8330 H   0  0  0  0  0  0  0  0  0  0  0  0
   35.4740   29.4870   32.2440 C   0  0  0  0  0  0  0  0  0  0  0  0
   35.1280   28.4290   32.3680 H   0  0  0  0  0  0  0  0  0  0  0  0
   34.5890   30.1570   32.3060 H   0  0  0  0  0  0  0  0  0  0  0  0
   36.1350   29.7730   33.0880 H   0  0  0  0  0  0  0  0  0  0  0  0
   38.6780   27.5140   32.3110 O   0  0  0  0  0  0  0  0  0  0  0  0
   38.6170   28.1380   33.1070 H   0  0  0  0  0  0  0  0  0  0  0  0
   38.5020   25.0610   33.4520 O   0  0  0  0  0  0  0  0  0  0  0  0
   40.5050   27.6030   35.8670 H   0  0  0  0  0  0  0  0  0  0  0  0
   39.8190   27.1400   35.2140 N   0  0  0  0  0  0  0  0  0  0  0  0
   38.5900   27.0290   35.9490 C   0  0  0  0  0  2  0  0  0  0  0  0
   37.5680   26.1200   35.3160 C   0  0  0  0  0  2  0  0  0  0  0  0
   38.1960   24.8380   34.7860 C   0  0  0  0  0  3  0  0  0  0  0  0
   39.5630   24.7500   35.5050 C   0  0  0  0  0  2  0  0  0  0  0  0
   40.3930   25.8530   34.8710 C   0  0  0  0  0  2  0  0  0  0  0  0
  1 22  1  0  0  0  0
  1  6  1  0  0  0  0
  2  1  2  0  0  0  0
  3  2  1  0  0  0  0
  3  4  2  0  0  0  0
  4  5  1  0  0  0  0
  5  9  1  0  0  0  0
  5  6  2  0  0  0  0
  6 24  1  0  0  0  0
  7  3  1  0  0  0  0
  8  4  1  0  0  0  0
 10 11  1  0  0  0  0
 11 12  2  0  0  0  0
 11  2  1  0  0  0  0
 12 18  1  0  0  0  0
 13 12  1  0  0  0  0
 14 13  2  0  0  0  0
 15 14  1  0  0  0  0
 15 10  2  0  0  0  0
 16 10  1  0  0  0  0
 17 14  1  0  0  0  0
 18 20  1  0  0  0  0
 18 19  1  0  0  0  0
 18 21  1  0  0  0  0
 22 23  1  0  0  0  0
 24 29  1  0  0  0  0
 26 25  1  0  0  0  0
 26 27  1  0  0  0  0
 28 27  1  0  0  0  0
 29 28  1  0  0  0  0
 29 30  1  0  0  0  0
 31 26  1  0  0  0  0
 31 30  1  0  0  0  0
M  END
>  <minimizedAffinity>
-4.896492

$$$$

 OpenBabel03272509193D

 31 33  0  0  0  0  0  0  0  0999 V2000
   36.1030   28.8180   33.3570 C   0  0  0  0  0  0  0  0  0  0  0  0
   35.5200   30.0770   33.4310 C   0  0  0  0  0  0  0  0  0  0  0  0
   35.4410   30.7640   32.2060 C   0  0  0  0  0  0  0  0  0  0  0  0
   35.9340   30.1720   31.0310 C   0  0  0  0  0  0  0  0  0  0  0  0
   36.5000   28.9060   31.0700 C   0  0  0  0  0  0  0  0  0  0  0  0
   36.5870   28.2150   32.2510 C   0  0  0  0  0  0  0  0  0  0  0  0
   34.9870   31.7430   32.2640 H   0  0  0  0  0  0  0  0  0  0  0  0
   35.8050   30.8170   30.1780 H   0  0  0  0  0  0  0  0  0  0  0  0
   36.8040   28.6530   30.0730 H   0  0  0  0  0  0  0  0  0  0  0  0
   35.8560   31.4730   35.4260 C   0  0  0  0  0  0  0  0  0  0  0  0
   35.0230   30.6620   34.6410 C   0  0  0  0  0  0  0  0  0  0  0  0
   33.7190   30.4560   35.0840 C   0  0  0  0  0  0  0  0  0  0  0  0
   33.3350   31.0530   36.2490 N   0  0  0  0  0  0  0  0  0  0  0  0
   34.1620   31.8250   36.9770 C   0  0  0  0  0  0  0  0  0  0  0  0
   35.4270   32.0370   36.5650 N   0  0  0  0  0  0  0  0  0  0  0  0
   36.8910   31.6820   35.1460 H   0  0  0  0  0  0  0  0  0  0  0  0
   33.6550   32.1970   37.8600 H   0  0  0  0  0  0  0  0  0  0  0  0
   32.7940   29.6150   34.3040 C   0  0  0  0  0  0  0  0  0  0  0  0
   33.1450   29.5850   33.2410 H   0  0  0  0  0  0  0  0  0  0  0  0
   31.7440   29.9770   34.3200 H   0  0  0  0  0  0  0  0  0  0  0  0
   32.7740   28.5900   34.7280 H   0  0  0  0  0  0  0  0  0  0  0  0
   36.2160   28.0710   34.5450 O   0  0  0  0  0  0  0  0  0  0  0  0
   35.4990   27.4170   34.8370 H   0  0  0  0  0  0  0  0  0  0  0  0
   37.1490   26.9640   32.2540 O   0  0  0  0  0  0  0  0  0  0  0  0
   38.0850   23.1620   33.2420 H   0  0  0  0  0  0  0  0  0  0  0  0
   37.6030   24.0810   33.0560 N   0  0  0  0  0  0  0  0  0  0  0  0
   36.6720   23.8310   31.9920 C   0  0  0  0  0  2  0  0  0  0  0  0
   36.0990   25.0740   31.3620 C   0  0  0  0  0  2  0  0  0  0  0  0
   37.1640   26.1410   31.1380 C   0  0  0  0  0  3  0  0  0  0  0  0
   38.5050   25.3740   31.2190 C   0  0  0  0  0  2  0  0  0  0  0  0
   38.6460   25.0180   32.6890 C   0  0  0  0  0  2  0  0  0  0  0  0
  1  2  1  0  0  0  0
  1 22  1  0  0  0  0
  2 11  1  0  0  0  0
  3  7  1  0  0  0  0
  3  2  2  0  0  0  0
  4  5  2  0  0  0  0
  4  3  1  0  0  0  0
  5  6  1  0  0  0  0
  6 24  1  0  0  0  0
  6  1  2  0  0  0  0
  8  4  1  0  0  0  0
  9  5  1  0  0  0  0
 10 15  1  0  0  0  0
 11 12  1  0  0  0  0
 11 10  2  0  0  0  0
 12 13  2  0  0  0  0
 13 14  1  0  0  0  0
 14 17  1  0  0  0  0
 15 14  2  0  0  0  0
 16 10  1  0  0  0  0
 18 20  1  0  0  0  0
 18 21  1  0  0  0  0
 18 12  1  0  0  0  0
 19 18  1  0  0  0  0
 22 23  1  0  0  0  0
 26 25  1  0  0  0  0
 27 26  1  0  0  0  0
 28 27  1  0  0  0  0
 29 30  1  0  0  0  0
 29 28  1  0  0  0  0
 29 24  1  0  0  0  0
 30 31  1  0  0  0  0
 31 26  1  0  0  0  0
M  END
>  <minimizedAffinity>
-4.89629221

$$$$

 OpenBabel03272509193D

 31 33  0  0  0  0  0  0  0  0999 V2000
   38.4490   23.0910   34.1840 C   0  0  0  0  0  0  0  0  0  0  0  0
   39.0130   23.9920   35.0790 C   0  0  0  0  0  0  0  0  0  0  0  0
   38.6060   23.8290   36.4160 C   0  0  0  0  0  0  0  0  0  0  0  0
   37.6950   22.8160   36.7580 C   0  0  0  0  0  0  0  0  0  0  0  0
   37.1920   21.9680   35.7820 C   0  0  0  0  0  0  0  0  0  0  0  0
   37.5730   22.1050   34.4730 C   0  0  0  0  0  0  0  0  0  0  0  0
   39.0450   24.5300   37.1110 H   0  0  0  0  0  0  0  0  0  0  0  0
   37.4800   22.8160   37.8140 H   0  0  0  0  0  0  0  0  0  0  0  0
   36.5240   21.2790   36.2610 H   0  0  0  0  0  0  0  0  0  0  0  0
   41.3200   24.7610   34.7300 C   0  0  0  0  0  0  0  0  0  0  0  0
   39.9410   25.0180   34.7080 C   0  0  0  0  0  0  0  0  0  0  0  0
   39.5270   26.2890   34.3170 C   0  0  0  0  0  0  0  0  0  0  0  0
   40.4850   27.2010   33.9830 N   0  0  0  0  0  0  0  0  0  0  0  0
   41.8000   26.9200   34.0150 C   0  0  0  0  0  0  0  0  0  0  0  0
   42.2200   25.6960   34.3900 N   0  0  0  0  0  0  0  0  0  0  0  0
   41.7240   23.7900   35.0250 H   0  0  0  0  0  0  0  0  0  0  0  0
   42.3800   27.7840   33.7130 H   0  0  0  0  0  0  0  0  0  0  0  0
   38.0930   26.6210   34.2720 C   0  0  0  0  0  0  0  0  0  0  0  0
   37.5060   25.6720   34.1670 H   0  0  0  0  0  0  0  0  0  0  0  0
   37.8190   27.2990   33.4360 H   0  0  0  0  0  0  0  0  0  0  0  0
   37.8010   27.1470   35.2040 H   0  0  0  0  0  0  0  0  0  0  0  0
   38.8100   23.1930   32.8270 O   0  0  0  0  0  0  0  0  0  0  0  0
   39.5860   22.6700   32.4380 H   0  0  0  0  0  0  0  0  0  0  0  0
   37.0600   21.2480   33.5330 O   0  0  0  0  0  0  0  0  0  0  0  0
   36.0300   19.9340   29.8560 H   0  0  0  0  0  0  0  0  0  0  0  0
   36.3770   20.0320   30.8470 N   0  0  0  0  0  0  0  0  0  0  0  0
   35.5270   19.1980   31.6480 C   0  0  0  0  0  2  0  0  0  0  0  0
   35.6500   19.4260   33.1320 C   0  0  0  0  0  2  0  0  0  0  0  0
   35.7170   20.9090   33.4750 C   0  0  0  0  0  3  0  0  0  0  0  0
   35.1730   21.6240   32.2160 C   0  0  0  0  0  2  0  0  0  0  0  0
   36.2650   21.4390   31.1770 C   0  0  0  0  0  2  0  0  0  0  0  0
  1  6  2  0  0  0  0
  1  2  1  0  0  0  0
  2  3  2  0  0  0  0
  3  4  1  0  0  0  0
  3  7  1  0  0  0  0
  4  8  1  0  0  0  0
  5  9  1  0  0  0  0
  5  4  2  0  0  0  0
  6  5  1  0  0  0  0
 10 16  1  0  0  0  0
 11 10  1  0  0  0  0
 11  2  1  0  0  0  0
 12 11  2  0  0  0  0
 13 14  2  0  0  0  0
 13 12  1  0  0  0  0
 14 15  1  0  0  0  0
 15 10  2  0  0  0  0
 17 14  1  0  0  0  0
 18 12  1  0  0  0  0
 18 21  1  0  0  0  0
 19 18  1  0  0  0  0
 20 18  1  0  0  0  0
 22  1  1  0  0  0  0
 23 22  1  0  0  0  0
 24  6  1  0  0  0  0
 25 26  1  0  0  0  0
 26 31  1  0  0  0  0
 26 27  1  0  0  0  0
 27 28  1  0  0  0  0
 28 29  1  0  0  0  0
 29 24  1  0  0  0  0
 30 29  1  0  0  0  0
 31 30  1  0  0  0  0
M  END
>  <minimizedAffinity>
-4.87078428

$$$$

 OpenBabel03272509193D

 31 33  0  0  0  0  0  0  0  0999 V2000
   35.6530   29.4330   33.3940 C   0  0  0  0  0  0  0  0  0  0  0  0
   34.8570   30.5440   33.6440 C   0  0  0  0  0  0  0  0  0  0  0  0
   34.6630   31.3920   32.5380 C   0  0  0  0  0  0  0  0  0  0  0  0
   35.2570   31.0870   31.3020 C   0  0  0  0  0  0  0  0  0  0  0  0
   36.0360   29.9480   31.1610 C   0  0  0  0  0  0  0  0  0  0  0  0
   36.2400   29.1050   32.2230 C   0  0  0  0  0  0  0  0  0  0  0  0
   34.0440   32.2560   32.7330 H   0  0  0  0  0  0  0  0  0  0  0  0
   35.0190   31.8260   30.5550 H   0  0  0  0  0  0  0  0  0  0  0  0
   36.3840   29.9130   30.1480 H   0  0  0  0  0  0  0  0  0  0  0  0
   32.9800   30.3480   35.2180 C   0  0  0  0  0  0  0  0  0  0  0  0
   34.2600   30.8350   34.9130 C   0  0  0  0  0  0  0  0  0  0  0  0
   34.9080   31.5980   35.8810 C   0  0  0  0  0  0  0  0  0  0  0  0
   34.2600   31.8250   37.0600 N   0  0  0  0  0  0  0  0  0  0  0  0
   33.0310   31.3410   37.3180 C   0  0  0  0  0  0  0  0  0  0  0  0
   32.3880   30.6000   36.3950 N   0  0  0  0  0  0  0  0  0  0  0  0
   32.4080   29.7430   34.5120 H   0  0  0  0  0  0  0  0  0  0  0  0
   32.7070   31.6380   38.3090 H   0  0  0  0  0  0  0  0  0  0  0  0
   36.2540   32.1380   35.6230 C   0  0  0  0  0  0  0  0  0  0  0  0
   36.7460   31.5150   34.8320 H   0  0  0  0  0  0  0  0  0  0  0  0
   36.9080   32.1500   36.5210 H   0  0  0  0  0  0  0  0  0  0  0  0
   36.1760   33.1910   35.2840 H   0  0  0  0  0  0  0  0  0  0  0  0
   35.8910   28.5380   34.4550 O   0  0  0  0  0  0  0  0  0  0  0  0
   35.2990   27.7330   34.6190 H   0  0  0  0  0  0  0  0  0  0  0  0
   37.0130   27.9860   32.0500 O   0  0  0  0  0  0  0  0  0  0  0  0
   37.4900   24.0850   32.9790 H   0  0  0  0  0  0  0  0  0  0  0  0
   37.1210   25.0570   32.8070 N   0  0  0  0  0  0  0  0  0  0  0  0
   36.1740   24.9350   31.7340 C   0  0  0  0  0  2  0  0  0  0  0  0
   35.7550   26.2470   31.1220 C   0  0  0  0  0  2  0  0  0  0  0  0
   36.9390   27.1850   30.9210 C   0  0  0  0  0  3  0  0  0  0  0  0
   38.1800   26.2650   30.9950 C   0  0  0  0  0  2  0  0  0  0  0  0
   38.2690   25.8710   32.4590 C   0  0  0  0  0  2  0  0  0  0  0  0
  1  2  1  0  0  0  0
  1 22  1  0  0  0  0
  2 11  1  0  0  0  0
  3  7  1  0  0  0  0
  3  2  2  0  0  0  0
  4  3  1  0  0  0  0
  5  4  2  0  0  0  0
  5  6  1  0  0  0  0
  6  1  2  0  0  0  0
  8  4  1  0  0  0  0
  9  5  1  0  0  0  0
 10 15  1  0  0  0  0
 11 10  2  0  0  0  0
 11 12  1  0  0  0  0
 12 13  2  0  0  0  0
 13 14  1  0  0  0  0
 14 17  1  0  0  0  0
 15 14  2  0  0  0  0
 16 10  1  0  0  0  0
 18 12  1  0  0  0  0
 18 20  1  0  0  0  0
 19 18  1  0  0  0  0
 21 18  1  0  0  0  0
 22 23  1  0  0  0  0
 24  6  1  0  0  0  0
 26 25  1  0  0  0  0
 27 26  1  0  0  0  0
 28 27  1  0  0  0  0
 29 30  1  0  0  0  0
 29 28  1  0  0  0  0
 29 24  1  0  0  0  0
 30 31  1  0  0  0  0
 31 26  1  0  0  0  0
M  END
>  <minimizedAffinity>
-4.86125565

$$$$

 OpenBabel03272509193D

 31 33  0  0  0  0  0  0  0  0999 V2000
   34.1050   29.9950   34.7180 C   0  0  0  0  0  0  0  0  0  0  0  0
   35.4810   29.8630   34.5780 C   0  0  0  0  0  0  0  0  0  0  0  0
   36.2410   30.7470   35.3640 C   0  0  0  0  0  0  0  0  0  0  0  0
   35.6020   31.6730   36.2060 C   0  0  0  0  0  0  0  0  0  0  0  0
   34.2170   31.7200   36.2690 C   0  0  0  0  0  0  0  0  0  0  0  0
   33.4530   30.8690   35.5140 C   0  0  0  0  0  0  0  0  0  0  0  0
   37.3120   30.6440   35.2550 H   0  0  0  0  0  0  0  0  0  0  0  0
   36.3130   32.2790   36.7410 H   0  0  0  0  0  0  0  0  0  0  0  0
   33.9480   32.4900   36.9660 H   0  0  0  0  0  0  0  0  0  0  0  0
   36.5680   27.6870   34.2270 C   0  0  0  0  0  0  0  0  0  0  0  0
   36.1130   28.9110   33.7130 C   0  0  0  0  0  0  0  0  0  0  0  0
   36.3000   29.1500   32.3550 C   0  0  0  0  0  0  0  0  0  0  0  0
   36.9130   28.1850   31.6110 N   0  0  0  0  0  0  0  0  0  0  0  0
   37.3370   27.0220   32.1380 C   0  0  0  0  0  0  0  0  0  0  0  0
   37.1650   26.7710   33.4500 N   0  0  0  0  0  0  0  0  0  0  0  0
   36.4580   27.4250   35.2820 H   0  0  0  0  0  0  0  0  0  0  0  0
   37.7930   26.4030   31.3740 H   0  0  0  0  0  0  0  0  0  0  0  0
   35.8430   30.4150   31.7540 C   0  0  0  0  0  0  0  0  0  0  0  0
   35.0340   30.8480   32.3980 H   0  0  0  0  0  0  0  0  0  0  0  0
   35.4490   30.3010   30.7220 H   0  0  0  0  0  0  0  0  0  0  0  0
   36.6930   31.1240   31.6840 H   0  0  0  0  0  0  0  0  0  0  0  0
   33.2790   29.1420   33.9610 O   0  0  0  0  0  0  0  0  0  0  0  0
   32.9520   28.2530   34.3230 H   0  0  0  0  0  0  0  0  0  0  0  0
   32.0860   30.9390   35.6020 O   0  0  0  0  0  0  0  0  0  0  0  0
   29.5620   27.8420   35.0160 H   0  0  0  0  0  0  0  0  0  0  0  0
   30.3940   28.4610   35.2020 N   0  0  0  0  0  0  0  0  0  0  0  0
   30.7840   28.2010   36.5590 C   0  0  0  0  0  2  0  0  0  0  0  0
   31.7580   29.1990   37.1300 C   0  0  0  0  0  2  0  0  0  0  0  0
   31.3880   30.6300   36.7590 C   0  0  0  0  0  3  0  0  0  0  0  0
   29.9050   30.5480   36.3270 C   0  0  0  0  0  2  0  0  0  0  0  0
   29.9410   29.8230   34.9940 C   0  0  0  0  0  2  0  0  0  0  0  0
  1  6  1  0  0  0  0
  2  1  2  0  0  0  0
  2  3  1  0  0  0  0
  3  4  2  0  0  0  0
  4  5  1  0  0  0  0
  4  8  1  0  0  0  0
  5  9  1  0  0  0  0
  6 24  1  0  0  0  0
  6  5  2  0  0  0  0
  7  3  1  0  0  0  0
 10 16  1  0  0  0  0
 11 10  1  0  0  0  0
 11  2  1  0  0  0  0
 12 11  2  0  0  0  0
 13 14  2  0  0  0  0
 13 12  1  0  0  0  0
 14 15  1  0  0  0  0
 15 10  2  0  0  0  0
 17 14  1  0  0  0  0
 18 12  1  0  0  0  0
 18 19  1  0  0  0  0
 20 18  1  0  0  0  0
 21 18  1  0  0  0  0
 22 23  1  0  0  0  0
 22  1  1  0  0  0  0
 24 29  1  0  0  0  0
 25 26  1  0  0  0  0
 26 27  1  0  0  0  0
 27 28  1  0  0  0  0
 29 28  1  0  0  0  0
 30 29  1  0  0  0  0
 31 26  1  0  0  0  0
 31 30  1  0  0  0  0
M  END
>  <minimizedAffinity>
-4.84697199

$$$$
