
 OpenBabel03272508273D

 36 39  0  0  1  0  0  0  0  0999 V2000
   33.9110   28.9160   47.3030 C   0  0  2  0  0  0  0  0  0  0  0  0
   34.6290   28.1680   48.4190 C   0  0  2  0  0  0  0  0  0  0  0  0
   33.6950   28.0010   49.4050 O   0  0  0  0  0  0  0  0  0  0  0  0
   32.4420   28.0310   48.8890 C   0  0  0  0  0  0  0  0  0  0  0  0
   32.5470   28.2230   47.3890 C   0  0  1  0  0  0  0  0  0  0  0  0
   33.7420   29.9750   47.5410 H   0  0  0  0  0  0  0  0  0  0  0  0
   34.9400   27.1940   48.0260 H   0  0  0  0  0  0  0  0  0  0  0  0
   31.9370   27.0550   49.0560 H   0  0  0  0  0  0  0  0  0  0  0  0
   31.7730   28.8010   49.3350 H   0  0  0  0  0  0  0  0  0  0  0  0
   32.6870   27.2310   46.9360 H   0  0  0  0  0  0  0  0  0  0  0  0
   35.6680   30.4650   49.0100 C   0  0  1  0  0  0  0  0  0  0  0  0
   35.7650   29.0310   48.8660 C   0  0  1  0  0  0  0  0  0  0  0  0
   35.8370   29.5770   50.2540 C   0  0  0  0  0  0  0  0  0  0  0  0
   34.7510   31.0750   49.1290 H   0  0  0  0  0  0  0  0  0  0  0  0
   36.7560   28.6530   48.4810 H   0  0  0  0  0  0  0  0  0  0  0  0
   36.7990   29.6030   50.7920 H   0  0  0  0  0  0  0  0  0  0  0  0
   34.9650   29.3640   50.8860 H   0  0  0  0  0  0  0  0  0  0  0  0
   36.8750   31.3620   48.7880 C   0  0  0  0  0  0  0  0  0  0  0  0
   37.0820   32.3940   49.7030 C   0  0  0  0  0  0  0  0  0  0  0  0
   38.1830   33.1980   49.4320 C   0  0  0  0  0  0  0  0  0  0  0  0
   38.9800   32.9680   48.3420 N   0  0  0  0  0  0  0  0  0  0  0  0
   38.7370   31.9510   47.4810 C   0  0  0  0  0  0  0  0  0  0  0  0
   37.6680   31.1360   47.7090 N   0  0  0  0  0  0  0  0  0  0  0  0
   36.4450   32.5520   50.5440 H   0  0  0  0  0  0  0  0  0  0  0  0
   38.4190   34.0300   50.0970 H   0  0  0  0  0  0  0  0  0  0  0  0
   39.3580   31.7580   46.6190 H   0  0  0  0  0  0  0  0  0  0  0  0
   34.4890   28.7360   46.0600 O   0  0  0  0  0  0  0  0  0  0  0  0
   34.2980   29.5390   45.5220 H   0  0  0  0  0  0  0  0  0  0  0  0
   31.5590   28.9800   46.8310 O   0  0  0  0  0  0  0  0  0  0  0  0
   30.1620   29.4550   43.1110 H   0  0  0  0  0  0  0  0  0  0  0  0
   29.7950   29.1170   44.0430 N   0  0  0  0  0  0  0  0  0  0  0  0
   30.0310   30.1020   45.0660 C   0  0  0  0  0  2  0  0  0  0  0  0
   29.3790   29.5820   46.3500 C   0  0  0  0  0  2  0  0  0  0  0  0
   30.3070   28.4340   46.7810 C   0  0  0  0  0  3  0  0  0  0  0  0
   30.1380   27.3890   45.7060 C   0  0  0  0  0  2  0  0  0  0  0  0
   30.5430   27.9250   44.3500 C   0  0  0  0  0  2  0  0  0  0  0  0
  1  5  1  0  0  0  0
  1  6  1  1  0  0  0
  1  2  1  0  0  0  0
  2  7  1  6  0  0  0
  2 12  1  0  0  0  0
  2  3  1  0  0  0  0
  4  8  1  0  0  0  0
  4  9  1  0  0  0  0
  4  3  1  0  0  0  0
  5 10  1  6  0  0  0
  5  4  1  0  0  0  0
 11 14  1  6  0  0  0
 11 13  1  0  0  0  0
 12 15  1  6  0  0  0
 12 11  1  0  0  0  0
 12 13  1  0  0  0  0
 13 16  1  0  0  0  0
 13 17  1  0  0  0  0
 18 11  1  0  0  0  0
 18 19  1  0  0  0  0
 19 24  1  0  0  0  0
 20 19  2  0  0  0  0
 20 25  1  0  0  0  0
 21 20  1  0  0  0  0
 22 23  1  0  0  0  0
 22 21  2  0  0  0  0
 23 18  2  0  0  0  0
 26 22  1  0  0  0  0
 27  1  1  0  0  0  0
 28 27  1  0  0  0  0
 29  5  1  0  0  0  0
 30 31  1  0  0  0  0
 31 36  1  0  0  0  0
 31 32  1  0  0  0  0
 32 33  1  0  0  0  0
 33 34  1  0  0  0  0
 34 29  1  0  0  0  0
 35 34  1  0  0  0  0
 36 35  1  0  0  0  0
M  END
>  <minimizedAffinity>
-4.99825191

>  <minimizedRMSD>
1.52937841

$$$$
