
 OpenBabel03272504183D

 24 25  0  0  0  0  0  0  0  0999 V2000
   34.7290   30.6210   48.8000 O   0  0  0  0  0  0  0  0  0  0  0  0
   35.9630   30.7020   49.4480 C   0  0  0  0  0  0  0  0  0  0  0  0
   36.3230   30.0600   50.6290 C   0  0  0  0  0  0  0  0  0  0  0  0
   37.5980   30.2570   51.1280 C   0  0  0  0  0  0  0  0  0  0  0  0
   38.4650   31.0750   50.4480 N   0  0  0  0  0  0  0  0  0  0  0  0
   38.0660   31.6880   49.2890 C   0  0  0  0  0  0  0  0  0  0  0  0
   36.8250   31.5030   48.7910 N   0  0  0  0  0  0  0  0  0  0  0  0
   37.8000   29.7390   52.0270 H   0  0  0  0  0  0  0  0  0  0  0  0
   38.8040   32.3210   48.8040 H   0  0  0  0  0  0  0  0  0  0  0  0
   35.3080   29.2590   51.1900 N   0  0  0  0  0  0  0  0  0  0  0  0
   35.7690   28.3260   51.1320 H   0  0  0  0  0  0  0  0  0  0  0  0
   34.3580   29.4620   51.5720 H   0  0  0  0  0  0  0  0  0  0  0  0
   35.2040   29.5400   46.3930 O   0  0  0  0  0  0  0  0  0  0  0  0
   34.3760   29.3870   47.6540 P   0  0  1  0  0  0  0  0  0  0  0  0
   34.6790   27.9160   48.4140 O   0  0  0  0  0  0  0  0  0  0  0  0
   34.3730   27.9410   49.3330 H   0  0  0  0  0  0  0  0  0  0  0  0
   32.7730   29.5260   47.1480 O   0  0  0  0  0  0  0  0  0  0  0  0
   33.9880   26.1530   47.8340 H   0  0  0  0  0  0  0  0  0  0  0  0
   33.2030   25.7600   47.2990 N   0  0  0  0  0  0  0  0  0  0  0  0
   31.9050   26.1440   47.7950 C   0  0  0  0  0  2  0  0  0  0  0  0
   31.5470   27.5720   47.5950 C   0  0  0  0  0  2  0  0  0  0  0  0
   32.3010   28.3340   46.5660 C   0  0  0  0  0  3  0  0  0  0  0  0
   33.4560   27.6550   45.9260 C   0  0  0  0  0  2  0  0  0  0  0  0
   33.3250   26.1430   45.9110 C   0  0  0  0  0  2  0  0  0  0  0  0
  1  2  1  0  0  0  0
  2  3  1  0  0  0  0
  3  4  2  0  0  0  0
  3 10  1  0  0  0  0
  4  8  1  0  0  0  0
  5  4  1  0  0  0  0
  6  5  2  0  0  0  0
  7  6  1  0  0  0  0
  7  2  2  0  0  0  0
  9  6  1  0  0  0  0
 10 12  1  0  0  0  0
 11 10  1  0  0  0  0
 14 13  2  6  0  0  0
 14 15  1  0  0  0  0
 14  1  1  0  0  0  0
 15 16  1  0  0  0  0
 17 14  1  0  0  0  0
 19 20  1  0  0  0  0
 19 18  1  0  0  0  0
 21 20  1  0  0  0  0
 22 17  1  0  0  0  0
 22 21  1  0  0  0  0
 23 22  1  0  0  0  0
 24 23  1  0  0  0  0
 24 19  1  0  0  0  0
M  END
>  <minimizedAffinity>
-3.9113915

>  <minimizedRMSD>
1.18545043

$$$$
