
 OpenBabel03272508023D

 26 28  0  0  0  0  0  0  0  0999 V2000
   38.9190   30.8600   45.7120 C   0  0  0  0  0  0  0  0  0  0  0  0
   40.0540   31.6170   45.8800 C   0  0  0  0  0  0  0  0  0  0  0  0
   40.8890   31.4460   44.7580 C   0  0  0  0  0  0  0  0  0  0  0  0
   40.2040   30.5750   43.9490 N   0  0  0  0  0  0  0  0  0  0  0  0
   39.0650   30.2440   44.5150 N   0  0  0  0  0  0  0  0  0  0  0  0
   40.2780   32.2530   46.7450 H   0  0  0  0  0  0  0  0  0  0  0  0
   41.8510   31.9170   44.6080 H   0  0  0  0  0  0  0  0  0  0  0  0
   37.7860   30.7310   46.6160 C   0  0  0  0  0  0  0  0  0  0  0  0
   38.0240   30.9860   47.9990 C   0  0  0  0  0  0  0  0  0  0  0  0
   36.9490   30.8670   48.8870 C   0  0  0  0  0  0  0  0  0  0  0  0
   35.7390   30.5150   48.3770 N   0  0  0  0  0  0  0  0  0  0  0  0
   35.5490   30.2810   47.0580 C   0  0  0  0  0  0  0  0  0  0  0  0
   36.5770   30.3930   46.1990 N   0  0  0  0  0  0  0  0  0  0  0  0
   39.0350   31.2620   48.3070 H   0  0  0  0  0  0  0  0  0  0  0  0
   34.5460   30.0080   46.7620 H   0  0  0  0  0  0  0  0  0  0  0  0
   37.1790   31.1270   50.3220 C   0  0  0  0  0  0  0  0  0  0  0  0
   36.6670   32.3860   50.5690 F   0  0  0  0  0  0  0  0  0  0  0  0
   36.5210   30.2150   51.1410 F   0  0  0  0  0  0  0  0  0  0  0  0
   38.5310   31.1380   50.6480 F   0  0  0  0  0  0  0  0  0  0  0  0
   41.9690   29.6320   40.4700 H   0  0  0  0  0  0  0  0  0  0  0  0
   41.0580   29.2110   40.2220 N   0  0  0  0  0  0  0  0  0  0  0  0
   40.0390   30.2590   40.2680 C   0  0  0  0  0  2  0  0  0  0  0  0
   40.2720   31.0380   41.5640 C   0  0  0  0  0  2  0  0  0  0  0  0
   40.7140   30.1230   42.6680 C   0  0  0  0  0  3  0  0  0  0  0  0
   40.1800   28.7190   42.4470 C   0  0  0  0  0  2  0  0  0  0  0  0
   40.6480   28.1630   41.1300 C   0  0  0  0  0  2  0  0  0  0  0  0
  1  2  1  0  0  0  0
  1  8  1  0  0  0  0
  2  6  1  0  0  0  0
  3  2  2  0  0  0  0
  4  5  1  0  0  0  0
  4  3  1  0  0  0  0
  5  1  2  0  0  0  0
  7  3  1  0  0  0  0
  8  9  1  0  0  0  0
  9 14  1  0  0  0  0
  9 10  2  0  0  0  0
 10 16  1  0  0  0  0
 11 10  1  0  0  0  0
 12 11  2  0  0  0  0
 13  8  2  0  0  0  0
 13 12  1  0  0  0  0
 15 12  1  0  0  0  0
 16 17  1  0  0  0  0
 16 19  1  0  0  0  0
 16 18  1  0  0  0  0
 21 22  1  0  0  0  0
 21 20  1  0  0  0  0
 21 26  1  0  0  0  0
 22 23  1  0  0  0  0
 23 24  1  0  0  0  0
 24  4  1  0  0  0  0
 25 24  1  0  0  0  0
 26 25  1  0  0  0  0
M  END
>  <minimizedAffinity>
-5.95133352

>  <minimizedRMSD>
0.855639696

$$$$
