
 OpenBabel03272505493D

 38 42  0  0  0  0  0  0  0  0999 V2000
   36.3730   30.4510   45.8950 C   0  0  0  0  0  0  0  0  0  0  0  0
   36.9310   30.7510   47.1030 C   0  0  0  0  0  0  0  0  0  0  0  0
   36.2760   30.4190   48.2820 C   0  0  0  0  0  0  0  0  0  0  0  0
   35.0430   29.7770   48.1930 C   0  0  0  0  0  0  0  0  0  0  0  0
   34.4800   29.4750   46.9620 C   0  0  0  0  0  0  0  0  0  0  0  0
   35.1770   29.8300   45.8650 N   0  0  0  0  0  0  0  0  0  0  0  0
   37.8910   31.2490   47.1480 H   0  0  0  0  0  0  0  0  0  0  0  0
   36.7140   30.6540   49.2530 H   0  0  0  0  0  0  0  0  0  0  0  0
   34.4900   29.4970   49.0820 H   0  0  0  0  0  0  0  0  0  0  0  0
   37.0780   30.8080   44.6120 C   0  0  0  0  0  0  0  0  0  0  0  0
   36.8020   29.9790   43.4220 C   0  0  0  0  0  0  0  0  0  0  0  0
   36.2500   31.3820   43.5090 C   0  0  0  0  0  0  0  0  0  0  0  0
   37.5780   29.8430   42.6450 H   0  0  0  0  0  0  0  0  0  0  0  0
   36.1200   29.1130   43.4940 H   0  0  0  0  0  0  0  0  0  0  0  0
   35.1600   31.4550   43.6970 H   0  0  0  0  0  0  0  0  0  0  0  0
   36.6780   32.1770   42.8900 H   0  0  0  0  0  0  0  0  0  0  0  0
   39.7670   33.3140   44.9760 C   0  0  0  0  0  0  0  0  0  0  0  0
   40.8710   32.5270   45.3190 C   0  0  0  0  0  0  0  0  0  0  0  0
   40.6960   31.1240   45.4260 C   0  0  0  0  0  0  0  0  0  0  0  0
   39.4650   30.6180   45.1910 N   0  0  0  0  0  0  0  0  0  0  0  0
   38.4070   31.4120   44.8590 C   0  0  0  0  0  0  0  0  0  0  0  0
   38.5600   32.7380   44.7540 N   0  0  0  0  0  0  0  0  0  0  0  0
   39.9270   34.3830   44.9000 H   0  0  0  0  0  0  0  0  0  0  0  0
   41.8660   32.8950   45.5120 H   0  0  0  0  0  0  0  0  0  0  0  0
   41.4550   30.4180   45.6790 H   0  0  0  0  0  0  0  0  0  0  0  0
   33.1890   28.8030   46.8090 C   0  0  0  0  0  0  0  0  0  0  0  0
   32.6680   28.1150   45.7550 N   0  0  0  0  0  0  0  0  0  0  0  0
   31.4250   27.6810   46.1150 C   0  0  0  0  0  0  0  0  0  0  0  0
   31.1840   28.0960   47.3740 N   0  0  0  0  0  0  0  0  0  0  0  0
   32.2460   28.7740   47.7990 N   0  0  0  0  0  0  0  0  0  0  0  0
   30.8350   27.1180   45.4360 H   0  0  0  0  0  0  0  0  0  0  0  0
   27.0340   27.6760   49.9910 H   0  0  0  0  0  0  0  0  0  0  0  0
   27.9080   27.5280   49.4770 N   0  0  0  0  0  0  0  0  0  0  0  0
   29.0540   27.2180   50.2740 C   0  0  0  0  0  2  0  0  0  0  0  0
   30.2330   26.9900   49.3420 C   0  0  0  0  0  2  0  0  0  0  0  0
   29.9900   27.8480   48.1220 C   0  0  0  0  0  3  0  0  0  0  0  0
   28.9330   27.1180   47.3070 C   0  0  0  0  0  2  0  0  0  0  0  0
   27.7990   26.7830   48.2590 C   0  0  0  0  0  2  0  0  0  0  0  0
  1  2  1  0  0  0  0
  2  7  1  0  0  0  0
  2  3  2  0  0  0  0
  3  8  1  0  0  0  0
  4  3  1  0  0  0  0
  4  9  1  0  0  0  0
  5  4  2  0  0  0  0
  6  1  2  0  0  0  0
  6  5  1  0  0  0  0
 10 21  1  0  0  0  0
 10  1  1  0  0  0  0
 11 14  1  0  0  0  0
 11 12  1  0  0  0  0
 11 10  1  0  0  0  0
 12 15  1  0  0  0  0
 12 10  1  0  0  0  0
 13 11  1  0  0  0  0
 16 12  1  0  0  0  0
 17 18  1  0  0  0  0
 18 19  2  0  0  0  0
 18 24  1  0  0  0  0
 19 25  1  0  0  0  0
 20 19  1  0  0  0  0
 21 20  2  0  0  0  0
 22 21  1  0  0  0  0
 22 17  2  0  0  0  0
 23 17  1  0  0  0  0
 26  5  1  0  0  0  0
 26 30  2  0  0  0  0
 27 28  2  0  0  0  0
 27 26  1  0  0  0  0
 28 29  1  0  0  0  0
 29 30  1  0  0  0  0
 29 36  1  0  0  0  0
 31 28  1  0  0  0  0
 33 32  1  0  0  0  0
 33 34  1  0  0  0  0
 35 34  1  0  0  0  0
 36 35  1  0  0  0  0
 37 36  1  0  0  0  0
 37 38  1  0  0  0  0
 38 33  1  0  0  0  0
M  END
>  <minimizedAffinity>
-5.80090141

>  <minimizedRMSD>
1.14507842

$$$$
