
 OpenBabel03272504183D

 24 25  0  0  0  0  0  0  0  0999 V2000
   36.4210   22.2880   32.7380 O   0  0  0  0  0  0  0  0  0  0  0  0
   36.1560   20.9490   32.4440 C   0  0  0  0  0  0  0  0  0  0  0  0
   35.6770   19.9860   33.3280 C   0  0  0  0  0  0  0  0  0  0  0  0
   35.4710   18.7010   32.8600 C   0  0  0  0  0  0  0  0  0  0  0  0
   35.7430   18.4160   31.5460 N   0  0  0  0  0  0  0  0  0  0  0  0
   36.2140   19.3950   30.7120 C   0  0  0  0  0  0  0  0  0  0  0  0
   36.4190   20.6540   31.1570 N   0  0  0  0  0  0  0  0  0  0  0  0
   35.1070   18.0250   33.5860 H   0  0  0  0  0  0  0  0  0  0  0  0
   36.4070   19.0980   29.6850 H   0  0  0  0  0  0  0  0  0  0  0  0
   35.4530   20.4570   34.6390 N   0  0  0  0  0  0  0  0  0  0  0  0
   34.4240   20.3060   34.7050 H   0  0  0  0  0  0  0  0  0  0  0  0
   36.0740   20.8510   35.3790 H   0  0  0  0  0  0  0  0  0  0  0  0
   39.1010   22.1980   32.7330 O   0  0  0  0  0  0  0  0  0  0  0  0
   37.9040   22.7930   33.4500 P   0  0  1  0  0  0  0  0  0  0  0  0
   37.9250   24.4750   33.3890 O   0  0  0  0  0  0  0  0  0  0  0  0
   37.0480   24.8310   33.5930 H   0  0  0  0  0  0  0  0  0  0  0  0
   38.0020   22.2090   35.0290 O   0  0  0  0  0  0  0  0  0  0  0  0
   38.5660   21.7780   38.6100 H   0  0  0  0  0  0  0  0  0  0  0  0
   39.1130   22.6490   38.6300 N   0  0  0  0  0  0  0  0  0  0  0  0
   40.2500   22.6470   37.7440 C   0  0  0  0  0  2  0  0  0  0  0  0
   39.9250   22.6840   36.2940 C   0  0  0  0  0  2  0  0  0  0  0  0
   38.5700   23.1540   35.9040 C   0  0  0  0  0  3  0  0  0  0  0  0
   37.5940   23.4010   36.9970 C   0  0  0  0  0  2  0  0  0  0  0  0
   38.2540   23.7670   38.3130 C   0  0  0  0  0  2  0  0  0  0  0  0
  1 14  1  0  0  0  0
  2  1  1  0  0  0  0
  2  3  1  0  0  0  0
  3 10  1  0  0  0  0
  4  3  2  0  0  0  0
  4  8  1  0  0  0  0
  5  4  1  0  0  0  0
  6  7  1  0  0  0  0
  6  5  2  0  0  0  0
  7  2  2  0  0  0  0
  9  6  1  0  0  0  0
 10 11  1  0  0  0  0
 10 12  1  0  0  0  0
 14 13  2  6  0  0  0
 14 17  1  0  0  0  0
 15 14  1  0  0  0  0
 15 16  1  0  0  0  0
 17 22  1  0  0  0  0
 18 19  1  0  0  0  0
 20 19  1  0  0  0  0
 21 20  1  0  0  0  0
 22 21  1  0  0  0  0
 22 23  1  0  0  0  0
 23 24  1  0  0  0  0
 24 19  1  0  0  0  0
M  END
>  <minimizedAffinity>
-4.93610811

$$$$

 OpenBabel03272504183D

 24 25  0  0  0  0  0  0  0  0999 V2000
   37.4500   24.9960   32.5690 O   0  0  0  0  0  0  0  0  0  0  0  0
   36.9190   26.2710   32.7740 C   0  0  0  0  0  0  0  0  0  0  0  0
   36.2880   27.0680   31.8220 C   0  0  0  0  0  0  0  0  0  0  0  0
   35.8210   28.3120   32.2060 C   0  0  0  0  0  0  0  0  0  0  0  0
   35.9930   28.7220   33.5040 N   0  0  0  0  0  0  0  0  0  0  0  0
   36.6200   27.9040   34.4060 C   0  0  0  0  0  0  0  0  0  0  0  0
   37.0810   26.6870   34.0450 N   0  0  0  0  0  0  0  0  0  0  0  0
   35.3540   28.8600   31.4320 H   0  0  0  0  0  0  0  0  0  0  0  0
   36.7210   28.2920   35.4150 H   0  0  0  0  0  0  0  0  0  0  0  0
   36.2000   26.4870   30.5410 N   0  0  0  0  0  0  0  0  0  0  0  0
   35.1640   26.4290   30.4470 H   0  0  0  0  0  0  0  0  0  0  0  0
   36.9080   26.1810   29.8370 H   0  0  0  0  0  0  0  0  0  0  0  0
   39.5680   23.3580   32.7120 O   0  0  0  0  0  0  0  0  0  0  0  0
   38.7820   24.4010   33.4820 P   0  0  1  0  0  0  0  0  0  0  0  0
   39.7380   25.7310   33.8690 O   0  0  0  0  0  0  0  0  0  0  0  0
   39.1840   26.4890   34.1040 H   0  0  0  0  0  0  0  0  0  0  0  0
   38.2150   23.6000   34.8550 O   0  0  0  0  0  0  0  0  0  0  0  0
   38.1340   22.0170   38.1430 H   0  0  0  0  0  0  0  0  0  0  0  0
   38.8250   22.6960   38.4880 N   0  0  0  0  0  0  0  0  0  0  0  0
   40.0630   22.6980   37.7500 C   0  0  0  0  0  2  0  0  0  0  0  0
   39.9760   23.2340   36.3660 C   0  0  0  0  0  2  0  0  0  0  0  0
   38.8100   24.0920   36.0320 C   0  0  0  0  0  3  0  0  0  0  0  0
   37.7430   24.2200   37.0580 C   0  0  0  0  0  2  0  0  0  0  0  0
   38.2510   24.0220   38.4730 C   0  0  0  0  0  2  0  0  0  0  0  0
  1  2  1  0  0  0  0
  1 14  1  0  0  0  0
  2  7  1  0  0  0  0
  3  4  1  0  0  0  0
  3  2  2  0  0  0  0
  4  5  2  0  0  0  0
  5  6  1  0  0  0  0
  6  9  1  0  0  0  0
  7  6  2  0  0  0  0
  8  4  1  0  0  0  0
 10  3  1  0  0  0  0
 11 10  1  0  0  0  0
 12 10  1  0  0  0  0
 14 13  2  6  0  0  0
 14 15  1  0  0  0  0
 14 17  1  0  0  0  0
 15 16  1  0  0  0  0
 17 22  1  0  0  0  0
 18 19  1  0  0  0  0
 20 19  1  0  0  0  0
 21 20  1  0  0  0  0
 22 21  1  0  0  0  0
 22 23  1  0  0  0  0
 23 24  1  0  0  0  0
 24 19  1  0  0  0  0
M  END
>  <minimizedAffinity>
-4.85992241

$$$$

 OpenBabel03272504183D

 24 25  0  0  0  0  0  0  0  0999 V2000
   38.2410   25.0100   33.2620 O   0  0  0  0  0  0  0  0  0  0  0  0
   37.1300   24.9680   32.4170 C   0  0  0  0  0  0  0  0  0  0  0  0
   36.4690   23.8260   31.9750 C   0  0  0  0  0  0  0  0  0  0  0  0
   35.3790   23.9750   31.1360 C   0  0  0  0  0  0  0  0  0  0  0  0
   34.9860   25.2370   30.7660 N   0  0  0  0  0  0  0  0  0  0  0  0
   35.6680   26.3320   31.2250 C   0  0  0  0  0  0  0  0  0  0  0  0
   36.7330   26.2000   32.0460 N   0  0  0  0  0  0  0  0  0  0  0  0
   34.9270   23.0660   30.8410 H   0  0  0  0  0  0  0  0  0  0  0  0
   35.3010   27.2990   30.8920 H   0  0  0  0  0  0  0  0  0  0  0  0
   37.0100   22.6160   32.4550 N   0  0  0  0  0  0  0  0  0  0  0  0
   36.1950   22.2660   33.0030 H   0  0  0  0  0  0  0  0  0  0  0  0
   37.9330   22.1430   32.3400 H   0  0  0  0  0  0  0  0  0  0  0  0
   39.3290   27.3570   33.9680 O   0  0  0  0  0  0  0  0  0  0  0  0
   38.4360   26.2330   34.4570 P   0  0  1  0  0  0  0  0  0  0  0  0
   36.8950   26.7930   34.8360 O   0  0  0  0  0  0  0  0  0  0  0  0
   36.2680   26.0560   34.8760 H   0  0  0  0  0  0  0  0  0  0  0  0
   39.2310   25.5910   35.8000 O   0  0  0  0  0  0  0  0  0  0  0  0
   40.4020   23.4800   38.5370 H   0  0  0  0  0  0  0  0  0  0  0  0
   39.6860   22.7790   38.3060 N   0  0  0  0  0  0  0  0  0  0  0  0
   38.3370   23.2850   38.3490 C   0  0  0  0  0  2  0  0  0  0  0  0
   37.9860   24.2490   37.2730 C   0  0  0  0  0  2  0  0  0  0  0  0
   38.8390   24.2630   36.0560 C   0  0  0  0  0  3  0  0  0  0  0  0
   40.0650   23.4250   36.0750 C   0  0  0  0  0  2  0  0  0  0  0  0
   39.9540   22.2270   36.9980 C   0  0  0  0  0  2  0  0  0  0  0  0
  1 14  1  0  0  0  0
  2  1  1  0  0  0  0
  3  2  2  0  0  0  0
  3 10  1  0  0  0  0
  4  3  1  0  0  0  0
  5  4  2  0  0  0  0
  5  6  1  0  0  0  0
  6  7  2  0  0  0  0
  7  2  1  0  0  0  0
  8  4  1  0  0  0  0
  9  6  1  0  0  0  0
 10 11  1  0  0  0  0
 12 10  1  0  0  0  0
 14 13  2  6  0  0  0
 14 15  1  0  0  0  0
 14 17  1  0  0  0  0
 15 16  1  0  0  0  0
 17 22  1  0  0  0  0
 19 20  1  0  0  0  0
 19 18  1  0  0  0  0
 21 20  1  0  0  0  0
 22 23  1  0  0  0  0
 22 21  1  0  0  0  0
 23 24  1  0  0  0  0
 24 19  1  0  0  0  0
M  END
>  <minimizedAffinity>
-4.75675154

$$$$

 OpenBabel03272504183D

 24 25  0  0  0  0  0  0  0  0999 V2000
   38.0020   26.3570   33.0800 O   0  0  0  0  0  0  0  0  0  0  0  0
   37.1120   25.5720   32.3440 C   0  0  0  0  0  0  0  0  0  0  0  0
   36.0290   26.0270   31.5970 C   0  0  0  0  0  0  0  0  0  0  0  0
   35.2510   25.1000   30.9270 C   0  0  0  0  0  0  0  0  0  0  0  0
   35.5670   23.7680   31.0200 N   0  0  0  0  0  0  0  0  0  0  0  0
   36.6410   23.3660   31.7680 C   0  0  0  0  0  0  0  0  0  0  0  0
   37.4100   24.2610   32.4260 N   0  0  0  0  0  0  0  0  0  0  0  0
   34.4470   25.5180   30.3810 H   0  0  0  0  0  0  0  0  0  0  0  0
   36.8320   22.2970   31.7960 H   0  0  0  0  0  0  0  0  0  0  0  0
   35.8550   27.4260   31.6150 N   0  0  0  0  0  0  0  0  0  0  0  0
   35.9970   27.6320   30.6030 H   0  0  0  0  0  0  0  0  0  0  0  0
   35.6440   28.1160   32.3680 H   0  0  0  0  0  0  0  0  0  0  0  0
   38.9430   27.3750   35.3750 O   0  0  0  0  0  0  0  0  0  0  0  0
   37.7120   26.7740   34.7240 P   0  0  1  0  0  0  0  0  0  0  0  0
   36.4220   27.8560   34.7300 O   0  0  0  0  0  0  0  0  0  0  0  0
   35.7510   27.5850   34.0870 H   0  0  0  0  0  0  0  0  0  0  0  0
   37.3800   25.3790   35.6120 O   0  0  0  0  0  0  0  0  0  0  0  0
   37.9170   22.0300   36.9620 H   0  0  0  0  0  0  0  0  0  0  0  0
   38.8870   22.2780   37.1960 N   0  0  0  0  0  0  0  0  0  0  0  0
   39.6720   22.7030   36.0640 C   0  0  0  0  0  2  0  0  0  0  0  0
   39.2940   24.0200   35.4890 C   0  0  0  0  0  2  0  0  0  0  0  0
   38.5020   24.9430   36.3430 C   0  0  0  0  0  3  0  0  0  0  0  0
   38.0180   24.4190   37.6450 C   0  0  0  0  0  2  0  0  0  0  0  0
   38.8930   23.3130   38.2050 C   0  0  0  0  0  2  0  0  0  0  0  0
  1 14  1  0  0  0  0
  2  7  1  0  0  0  0
  2  1  1  0  0  0  0
  3 10  1  0  0  0  0
  3  2  2  0  0  0  0
  4  5  2  0  0  0  0
  4  3  1  0  0  0  0
  5  6  1  0  0  0  0
  6  9  1  0  0  0  0
  6  7  2  0  0  0  0
  8  4  1  0  0  0  0
 10 12  1  0  0  0  0
 11 10  1  0  0  0  0
 14 15  1  0  0  0  0
 14 13  2  1  0  0  0
 14 17  1  0  0  0  0
 16 15  1  0  0  0  0
 17 22  1  0  0  0  0
 18 19  1  0  0  0  0
 19 24  1  0  0  0  0
 20 19  1  0  0  0  0
 21 20  1  0  0  0  0
 21 22  1  0  0  0  0
 22 23  1  0  0  0  0
 23 24  1  0  0  0  0
M  END
>  <minimizedAffinity>
-4.69313383

$$$$

 OpenBabel03272504183D

 24 25  0  0  0  0  0  0  0  0999 V2000
   38.2800   24.1370   36.1490 O   0  0  0  0  0  0  0  0  0  0  0  0
   39.3700   23.2740   36.2800 C   0  0  0  0  0  0  0  0  0  0  0  0
   39.8340   22.6980   37.4600 C   0  0  0  0  0  0  0  0  0  0  0  0
   40.9330   21.8610   37.4010 C   0  0  0  0  0  0  0  0  0  0  0  0
   41.5310   21.6260   36.1890 N   0  0  0  0  0  0  0  0  0  0  0  0
   41.0410   22.2150   35.0530 C   0  0  0  0  0  0  0  0  0  0  0  0
   39.9680   23.0330   35.0970 N   0  0  0  0  0  0  0  0  0  0  0  0
   41.2280   21.4620   38.3340 H   0  0  0  0  0  0  0  0  0  0  0  0
   41.5640   21.9830   34.1300 H   0  0  0  0  0  0  0  0  0  0  0  0
   39.0980   23.0520   38.6090 N   0  0  0  0  0  0  0  0  0  0  0  0
   38.7390   22.1120   38.8830 H   0  0  0  0  0  0  0  0  0  0  0  0
   38.9190   23.9540   39.1020 H   0  0  0  0  0  0  0  0  0  0  0  0
   38.2540   26.7800   36.6030 O   0  0  0  0  0  0  0  0  0  0  0  0
   38.4460   25.7320   35.5230 P   0  0  1  0  0  0  0  0  0  0  0  0
   39.9800   25.8290   34.8380 O   0  0  0  0  0  0  0  0  0  0  0  0
   40.1910   25.0100   34.3660 H   0  0  0  0  0  0  0  0  0  0  0  0
   37.2230   26.0290   34.4000 O   0  0  0  0  0  0  0  0  0  0  0  0
   35.2580   25.3560   31.3980 H   0  0  0  0  0  0  0  0  0  0  0  0
   36.0580   25.6250   30.8120 N   0  0  0  0  0  0  0  0  0  0  0  0
   36.5310   26.9670   31.0450 C   0  0  0  0  0  2  0  0  0  0  0  0
   37.1980   27.1860   32.3540 C   0  0  0  0  0  2  0  0  0  0  0  0
   37.7050   25.9910   33.0770 C   0  0  0  0  0  3  0  0  0  0  0  0
   37.3680   24.6590   32.5120 C   0  0  0  0  0  2  0  0  0  0  0  0
   37.1410   24.6890   31.0130 C   0  0  0  0  0  2  0  0  0  0  0  0
  1  2  1  0  0  0  0
  2  3  1  0  0  0  0
  3 10  1  0  0  0  0
  4  3  2  0  0  0  0
  4  8  1  0  0  0  0
  5  4  1  0  0  0  0
  6  7  1  0  0  0  0
  6  5  2  0  0  0  0
  7  2  2  0  0  0  0
  9  6  1  0  0  0  0
 10 11  1  0  0  0  0
 10 12  1  0  0  0  0
 14  1  1  0  0  0  0
 14 13  2  1  0  0  0
 15 14  1  0  0  0  0
 16 15  1  0  0  0  0
 17 14  1  0  0  0  0
 19 24  1  0  0  0  0
 19 20  1  0  0  0  0
 19 18  1  0  0  0  0
 20 21  1  0  0  0  0
 21 22  1  0  0  0  0
 22 17  1  0  0  0  0
 23 22  1  0  0  0  0
 24 23  1  0  0  0  0
M  END
>  <minimizedAffinity>
-4.61615562

$$$$

 OpenBabel03272504183D

 24 25  0  0  0  0  0  0  0  0999 V2000
   37.3340   25.4030   35.6810 O   0  0  0  0  0  0  0  0  0  0  0  0
   38.1490   24.5300   36.4050 C   0  0  0  0  0  0  0  0  0  0  0  0
   39.1100   23.6690   35.8830 C   0  0  0  0  0  0  0  0  0  0  0  0
   39.8290   22.8720   36.7560 C   0  0  0  0  0  0  0  0  0  0  0  0
   39.5730   22.9520   38.1020 N   0  0  0  0  0  0  0  0  0  0  0  0
   38.6160   23.8130   38.5700 C   0  0  0  0  0  0  0  0  0  0  0  0
   37.9090   24.5970   37.7290 N   0  0  0  0  0  0  0  0  0  0  0  0
   40.5400   22.2450   36.2890 H   0  0  0  0  0  0  0  0  0  0  0  0
   38.4670   23.8240   39.6460 H   0  0  0  0  0  0  0  0  0  0  0  0
   39.2380   23.7200   34.4800 N   0  0  0  0  0  0  0  0  0  0  0  0
   40.2220   24.0550   34.4060 H   0  0  0  0  0  0  0  0  0  0  0  0
   38.5930   23.5030   33.6890 H   0  0  0  0  0  0  0  0  0  0  0  0
   36.7270   27.8610   34.7980 O   0  0  0  0  0  0  0  0  0  0  0  0
   37.8830   26.9480   35.1600 P   0  0  1  0  0  0  0  0  0  0  0  0
   38.8020   27.5870   36.4170 O   0  0  0  0  0  0  0  0  0  0  0  0
   39.3490   26.8970   36.8200 H   0  0  0  0  0  0  0  0  0  0  0  0
   38.7740   26.7810   33.7370 O   0  0  0  0  0  0  0  0  0  0  0  0
   39.4290   25.4510   30.4010 H   0  0  0  0  0  0  0  0  0  0  0  0
   38.4930   25.7500   30.0970 N   0  0  0  0  0  0  0  0  0  0  0  0
   37.4170   25.1820   30.8710 C   0  0  0  0  0  2  0  0  0  0  0  0
   37.3080   25.6800   32.2670 C   0  0  0  0  0  2  0  0  0  0  0  0
   37.9750   26.9670   32.5930 C   0  0  0  0  0  3  0  0  0  0  0  0
   38.8280   27.5780   31.5410 C   0  0  0  0  0  2  0  0  0  0  0  0
   38.4080   27.1920   30.1360 C   0  0  0  0  0  2  0  0  0  0  0  0
  1  2  1  0  0  0  0
  2  7  1  0  0  0  0
  3  2  2  0  0  0  0
  3  4  1  0  0  0  0
  4  5  2  0  0  0  0
  5  6  1  0  0  0  0
  6  9  1  0  0  0  0
  7  6  2  0  0  0  0
  8  4  1  0  0  0  0
 10  3  1  0  0  0  0
 11 10  1  0  0  0  0
 12 10  1  0  0  0  0
 14 13  2  6  0  0  0
 14  1  1  0  0  0  0
 14 15  1  0  0  0  0
 15 16  1  0  0  0  0
 17 14  1  0  0  0  0
 19 24  1  0  0  0  0
 19 18  1  0  0  0  0
 19 20  1  0  0  0  0
 20 21  1  0  0  0  0
 21 22  1  0  0  0  0
 22 17  1  0  0  0  0
 23 22  1  0  0  0  0
 24 23  1  0  0  0  0
M  END
>  <minimizedAffinity>
-4.60976458

$$$$

 OpenBabel03272504183D

 24 25  0  0  0  0  0  0  0  0999 V2000
   37.3060   26.8950   33.9460 O   0  0  0  0  0  0  0  0  0  0  0  0
   36.7380   28.0600   33.4250 C   0  0  0  0  0  0  0  0  0  0  0  0
   36.9010   28.5560   32.1350 C   0  0  0  0  0  0  0  0  0  0  0  0
   36.2580   29.7310   31.7910 C   0  0  0  0  0  0  0  0  0  0  0  0
   35.4840   30.3700   32.7260 N   0  0  0  0  0  0  0  0  0  0  0  0
   35.3530   29.8450   33.9850 C   0  0  0  0  0  0  0  0  0  0  0  0
   35.9750   28.6980   34.3330 N   0  0  0  0  0  0  0  0  0  0  0  0
   36.4280   30.0470   30.7960 H   0  0  0  0  0  0  0  0  0  0  0  0
   34.7260   30.4040   34.6730 H   0  0  0  0  0  0  0  0  0  0  0  0
   37.7310   27.7700   31.3080 N   0  0  0  0  0  0  0  0  0  0  0  0
   37.0400   27.4970   30.5770 H   0  0  0  0  0  0  0  0  0  0  0  0
   38.7370   27.4970   31.3470 H   0  0  0  0  0  0  0  0  0  0  0  0
   39.9390   27.3870   33.8310 O   0  0  0  0  0  0  0  0  0  0  0  0
   38.8310   26.8970   34.7430 P   0  0  1  0  0  0  0  0  0  0  0  0
   38.6690   27.8830   36.0990 O   0  0  0  0  0  0  0  0  0  0  0  0
   37.8100   27.7390   36.5200 H   0  0  0  0  0  0  0  0  0  0  0  0
   39.2600   25.3170   35.1490 O   0  0  0  0  0  0  0  0  0  0  0  0
   39.1950   21.9480   36.5510 H   0  0  0  0  0  0  0  0  0  0  0  0
   38.1670   21.9500   36.5120 N   0  0  0  0  0  0  0  0  0  0  0  0
   37.5550   23.0220   37.2560 C   0  0  0  0  0  2  0  0  0  0  0  0
   37.7490   24.3800   36.6860 C   0  0  0  0  0  2  0  0  0  0  0  0
   38.1340   24.4780   35.2540 C   0  0  0  0  0  3  0  0  0  0  0  0
   38.4460   23.2110   34.5450 C   0  0  0  0  0  2  0  0  0  0  0  0
   37.7350   22.0080   35.1350 C   0  0  0  0  0  2  0  0  0  0  0  0
  1 14  1  0  0  0  0
  2  1  1  0  0  0  0
  2  7  1  0  0  0  0
  3  2  2  0  0  0  0
  4  3  1  0  0  0  0
  4  5  2  0  0  0  0
  5  6  1  0  0  0  0
  6  7  2  0  0  0  0
  6  9  1  0  0  0  0
  8  4  1  0  0  0  0
 10 12  1  0  0  0  0
 10  3  1  0  0  0  0
 11 10  1  0  0  0  0
 14 13  2  6  0  0  0
 14 17  1  0  0  0  0
 14 15  1  0  0  0  0
 15 16  1  0  0  0  0
 17 22  1  0  0  0  0
 19 18  1  0  0  0  0
 19 20  1  0  0  0  0
 21 20  1  0  0  0  0
 22 21  1  0  0  0  0
 23 24  1  0  0  0  0
 23 22  1  0  0  0  0
 24 19  1  0  0  0  0
M  END
>  <minimizedAffinity>
-4.52504492

$$$$

 OpenBabel03272504183D

 24 25  0  0  0  0  0  0  0  0999 V2000
   37.6260   24.8480   36.5070 O   0  0  0  0  0  0  0  0  0  0  0  0
   38.2020   25.3640   35.3430 C   0  0  0  0  0  0  0  0  0  0  0  0
   38.7390   26.6370   35.1780 C   0  0  0  0  0  0  0  0  0  0  0  0
   39.2710   26.9770   33.9480 C   0  0  0  0  0  0  0  0  0  0  0  0
   39.2530   26.0550   32.9320 N   0  0  0  0  0  0  0  0  0  0  0  0
   38.7130   24.8130   33.1400 C   0  0  0  0  0  0  0  0  0  0  0  0
   38.1910   24.4690   34.3370 N   0  0  0  0  0  0  0  0  0  0  0  0
   39.6610   27.9590   33.8970 H   0  0  0  0  0  0  0  0  0  0  0  0
   38.7320   24.1350   32.2920 H   0  0  0  0  0  0  0  0  0  0  0  0
   38.6730   27.4510   36.3280 N   0  0  0  0  0  0  0  0  0  0  0  0
   39.6910   27.5910   36.5010 H   0  0  0  0  0  0  0  0  0  0  0  0
   37.8860   27.8400   36.8920 H   0  0  0  0  0  0  0  0  0  0  0  0
   37.6660   23.2510   38.6590 O   0  0  0  0  0  0  0  0  0  0  0  0
   38.1930   23.4020   37.2450 P   0  0  1  0  0  0  0  0  0  0  0  0
   37.6970   22.1270   36.2640 O   0  0  0  0  0  0  0  0  0  0  0  0
   37.7940   22.3630   35.3300 H   0  0  0  0  0  0  0  0  0  0  0  0
   39.8710   23.4690   37.4060 O   0  0  0  0  0  0  0  0  0  0  0  0
   43.4770   23.0860   36.9900 H   0  0  0  0  0  0  0  0  0  0  0  0
   43.3220   22.2730   36.3800 N   0  0  0  0  0  0  0  0  0  0  0  0
   42.5790   21.2060   37.0020 C   0  0  0  0  0  2  0  0  0  0  0  0
   41.1460   21.4990   37.2620 C   0  0  0  0  0  2  0  0  0  0  0  0
   40.5200   22.6100   36.4980 C   0  0  0  0  0  3  0  0  0  0  0  0
   41.4130   23.4410   35.6510 C   0  0  0  0  0  2  0  0  0  0  0  0
   42.6450   22.6950   35.1750 C   0  0  0  0  0  2  0  0  0  0  0  0
  1 14  1  0  0  0  0
  2  1  1  0  0  0  0
  3  2  1  0  0  0  0
  3 10  1  0  0  0  0
  4  3  2  0  0  0  0
  5  6  2  0  0  0  0
  5  4  1  0  0  0  0
  6  7  1  0  0  0  0
  7  2  2  0  0  0  0
  8  4  1  0  0  0  0
  9  6  1  0  0  0  0
 10 11  1  0  0  0  0
 10 12  1  0  0  0  0
 14 17  1  0  0  0  0
 14 13  2  1  0  0  0
 15 14  1  0  0  0  0
 16 15  1  0  0  0  0
 19 18  1  0  0  0  0
 19 20  1  0  0  0  0
 20 21  1  0  0  0  0
 22 21  1  0  0  0  0
 22 17  1  0  0  0  0
 23 22  1  0  0  0  0
 24 23  1  0  0  0  0
 24 19  1  0  0  0  0
M  END
>  <minimizedAffinity>
-4.42235184

$$$$

 OpenBabel03272504183D

 24 25  0  0  0  0  0  0  0  0999 V2000
   38.8680   21.8800   34.5510 O   0  0  0  0  0  0  0  0  0  0  0  0
   38.9250   22.3450   35.8670 C   0  0  0  0  0  0  0  0  0  0  0  0
   40.0650   22.4540   36.6580 C   0  0  0  0  0  0  0  0  0  0  0  0
   39.9330   22.9400   37.9460 C   0  0  0  0  0  0  0  0  0  0  0  0
   38.6900   23.2970   38.4030 N   0  0  0  0  0  0  0  0  0  0  0  0
   37.5950   23.1720   37.5890 C   0  0  0  0  0  0  0  0  0  0  0  0
   37.7110   22.7010   36.3290 N   0  0  0  0  0  0  0  0  0  0  0  0
   40.8400   22.9940   38.4870 H   0  0  0  0  0  0  0  0  0  0  0  0
   36.6440   23.4740   38.0160 H   0  0  0  0  0  0  0  0  0  0  0  0
   41.2560   22.0410   36.0250 N   0  0  0  0  0  0  0  0  0  0  0  0
   41.7780   22.9440   36.0300 H   0  0  0  0  0  0  0  0  0  0  0  0
   41.5900   21.1300   35.6420 H   0  0  0  0  0  0  0  0  0  0  0  0
   37.8270   24.2180   33.7490 O   0  0  0  0  0  0  0  0  0  0  0  0
   38.2600   22.8470   33.2640 P   0  0  1  0  0  0  0  0  0  0  0  0
   39.4890   22.9600   32.1190 O   0  0  0  0  0  0  0  0  0  0  0  0
   39.9410   22.1100   32.0240 H   0  0  0  0  0  0  0  0  0  0  0  0
   36.8630   22.1410   32.6360 O   0  0  0  0  0  0  0  0  0  0  0  0
   34.3100   19.8320   31.4200 H   0  0  0  0  0  0  0  0  0  0  0  0
   34.9680   19.0490   31.5220 N   0  0  0  0  0  0  0  0  0  0  0  0
   36.1830   19.2020   30.7610 C   0  0  0  0  0  2  0  0  0  0  0  0
   37.1050   20.2610   31.2460 C   0  0  0  0  0  2  0  0  0  0  0  0
   36.9370   20.7350   32.6440 C   0  0  0  0  0  3  0  0  0  0  0  0
   35.7630   20.2250   33.3990 C   0  0  0  0  0  2  0  0  0  0  0  0
   35.2910   18.8660   32.9190 C   0  0  0  0  0  2  0  0  0  0  0  0
  1  2  1  0  0  0  0
  2  7  2  0  0  0  0
  2  3  1  0  0  0  0
  3  4  2  0  0  0  0
  4  5  1  0  0  0  0
  4  8  1  0  0  0  0
  6  9  1  0  0  0  0
  6  5  2  0  0  0  0
  7  6  1  0  0  0  0
 10 11  1  0  0  0  0
 10  3  1  0  0  0  0
 12 10  1  0  0  0  0
 14 13  2  1  0  0  0
 14  1  1  0  0  0  0
 15 14  1  0  0  0  0
 16 15  1  0  0  0  0
 17 22  1  0  0  0  0
 17 14  1  0  0  0  0
 18 19  1  0  0  0  0
 19 24  1  0  0  0  0
 20 21  1  0  0  0  0
 20 19  1  0  0  0  0
 21 22  1  0  0  0  0
 22 23  1  0  0  0  0
 24 23  1  0  0  0  0
M  END
>  <minimizedAffinity>
-4.37818336

$$$$
