
 OpenBabel03272504183D

 24 25  0  0  0  0  0  0  0  0999 V2000
   34.7700   30.8100   48.7010 O   0  0  0  0  0  0  0  0  0  0  0  0
   35.9740   30.7640   49.4060 C   0  0  0  0  0  0  0  0  0  0  0  0
   36.2480   29.9900   50.5300 C   0  0  0  0  0  0  0  0  0  0  0  0
   37.5050   30.0710   51.1010 C   0  0  0  0  0  0  0  0  0  0  0  0
   38.4390   30.9090   50.5460 N   0  0  0  0  0  0  0  0  0  0  0  0
   38.1250   31.6540   49.4400 C   0  0  0  0  0  0  0  0  0  0  0  0
   36.9020   31.5820   48.8720 N   0  0  0  0  0  0  0  0  0  0  0  0
   37.6400   29.4560   51.9500 H   0  0  0  0  0  0  0  0  0  0  0  0
   38.9130   32.2950   49.0550 H   0  0  0  0  0  0  0  0  0  0  0  0
   35.1710   29.1880   50.9620 N   0  0  0  0  0  0  0  0  0  0  0  0
   35.5920   28.2440   50.8280 H   0  0  0  0  0  0  0  0  0  0  0  0
   34.2140   29.3990   51.3210 H   0  0  0  0  0  0  0  0  0  0  0  0
   35.4600   29.9160   46.2690 O   0  0  0  0  0  0  0  0  0  0  0  0
   34.4410   29.7560   47.3810 P   0  0  1  0  0  0  0  0  0  0  0  0
   34.4440   28.1900   47.9970 O   0  0  0  0  0  0  0  0  0  0  0  0
   34.0100   28.1660   48.8630 H   0  0  0  0  0  0  0  0  0  0  0  0
   32.9610   30.1660   46.6840 O   0  0  0  0  0  0  0  0  0  0  0  0
   33.8130   26.6210   46.8510 H   0  0  0  0  0  0  0  0  0  0  0  0
   33.0800   26.4110   46.1610 N   0  0  0  0  0  0  0  0  0  0  0  0
   31.7600   26.8270   46.5640 C   0  0  0  0  0  2  0  0  0  0  0  0
   31.5410   28.2950   46.6010 C   0  0  0  0  0  2  0  0  0  0  0  0
   32.4820   29.1520   45.8330 C   0  0  0  0  0  3  0  0  0  0  0  0
   33.6590   28.4880   45.2160 C   0  0  0  0  0  2  0  0  0  0  0  0
   33.4170   27.0240   44.8960 C   0  0  0  0  0  2  0  0  0  0  0  0
  1  2  1  0  0  0  0
  2  3  1  0  0  0  0
  3 10  1  0  0  0  0
  3  4  2  0  0  0  0
  4  8  1  0  0  0  0
  5  4  1  0  0  0  0
  6  5  2  0  0  0  0
  7  2  2  0  0  0  0
  7  6  1  0  0  0  0
  9  6  1  0  0  0  0
 10 12  1  0  0  0  0
 11 10  1  0  0  0  0
 14 13  2  6  0  0  0
 14 15  1  0  0  0  0
 14  1  1  0  0  0  0
 15 16  1  0  0  0  0
 17 14  1  0  0  0  0
 19 20  1  0  0  0  0
 19 18  1  0  0  0  0
 20 21  1  0  0  0  0
 22 21  1  0  0  0  0
 22 17  1  0  0  0  0
 23 22  1  0  0  0  0
 24 23  1  0  0  0  0
 24 19  1  0  0  0  0
M  END
>  <minimizedAffinity>
-3.81690836

>  <minimizedRMSD>
1.26828098

$$$$
