
 OpenBabel03262522273D

 44 47  0  0  0  0  0  0  0  0999 V2000
   38.5570   32.8810   48.3310 C   0  0  0  0  0  0  0  0  0  0  0  0
   39.0060   32.1720   47.2030 C   0  0  0  0  0  0  0  0  0  0  0  0
   38.6120   30.8740   47.0990 C   0  0  0  0  0  0  0  0  0  0  0  0
   37.8270   30.3400   48.0660 N   0  0  0  0  0  0  0  0  0  0  0  0
   37.4260   31.0220   49.1030 C   0  0  0  0  0  0  0  0  0  0  0  0
   37.7770   32.3390   49.2840 N   0  0  0  0  0  0  0  0  0  0  0  0
   38.8070   33.9150   48.5160 H   0  0  0  0  0  0  0  0  0  0  0  0
   38.9470   30.3070   46.2370 H   0  0  0  0  0  0  0  0  0  0  0  0
   39.7860   32.8290   46.3150 O   0  0  0  0  0  0  0  0  0  0  0  0
   39.9530   32.2960   45.0410 C   0  0  0  0  0  0  0  0  0  0  0  0
   40.6690   31.1820   44.6690 C   0  0  0  0  0  0  0  0  0  0  0  0
   40.7160   30.8160   43.3710 C   0  0  0  0  0  0  0  0  0  0  0  0
   40.0490   31.5640   42.4550 C   0  0  0  0  0  0  0  0  0  0  0  0
   39.3210   32.6970   42.8290 C   0  0  0  0  0  0  0  0  0  0  0  0
   39.2880   33.0460   44.1440 N   0  0  0  0  0  0  0  0  0  0  0  0
   41.1560   30.6700   45.4870 H   0  0  0  0  0  0  0  0  0  0  0  0
   41.3000   29.9280   43.1570 H   0  0  0  0  0  0  0  0  0  0  0  0
   40.0860   31.2690   41.4040 H   0  0  0  0  0  0  0  0  0  0  0  0
   38.5900   33.5090   41.7880 C   0  0  0  0  0  0  0  0  0  0  0  0
   38.4330   34.5030   42.2470 H   0  0  0  0  0  0  0  0  0  0  0  0
   39.2880   33.5970   40.9250 H   0  0  0  0  0  0  0  0  0  0  0  0
   37.6530   33.0000   41.4910 H   0  0  0  0  0  0  0  0  0  0  0  0
   36.3860   30.0490   50.2320 S   0  0  0  0  0  0  0  0  0  0  0  0
   34.6890   30.4250   49.7120 C   0  0  0  0  0  0  0  0  0  0  0  0
   33.9480   29.9720   50.4170 H   0  0  0  0  0  0  0  0  0  0  0  0
   34.5160   31.5190   49.6850 H   0  0  0  0  0  0  0  0  0  0  0  0
   34.0350   27.7640   49.5180 F   0  0  0  0  0  0  0  0  0  0  0  0
   34.1860   28.4810   48.3630 C   0  0  0  0  0  0  0  0  0  0  0  0
   34.5160   29.8400   48.3360 C   0  0  0  0  0  0  0  0  0  0  0  0
   34.6540   30.5180   47.1680 C   0  0  0  0  0  0  0  0  0  0  0  0
   34.4640   29.8540   45.9480 C   0  0  0  0  0  0  0  0  0  0  0  0
   34.1390   28.5170   45.9600 C   0  0  0  0  0  0  0  0  0  0  0  0
   34.0010   27.8420   47.1480 C   0  0  0  0  0  0  0  0  0  0  0  0
   34.9110   31.5590   47.3200 H   0  0  0  0  0  0  0  0  0  0  0  0
   34.5900   30.4540   45.0770 H   0  0  0  0  0  0  0  0  0  0  0  0
   34.0200   28.1260   44.9630 H   0  0  0  0  0  0  0  0  0  0  0  0
   33.6750   26.5070   47.0990 O   0  0  0  0  0  0  0  0  0  0  0  0
   30.1200   28.1130   48.0030 H   0  0  0  0  0  0  0  0  0  0  0  0
   30.0820   27.0990   47.7470 N   0  0  0  0  0  0  0  0  0  0  0  0
   31.1360   26.4550   48.5250 C   0  0  0  0  0  2  0  0  0  0  0  0
   31.6420   25.3210   47.6790 C   0  0  0  0  0  2  0  0  0  0  0  0
   32.5370   25.9040   46.6050 C   0  0  0  0  0  3  0  0  0  0  0  0
   31.6920   26.9950   45.9310 C   0  0  0  0  0  2  0  0  0  0  0  0
   30.2370   26.9070   46.3380 C   0  0  0  0  0  2  0  0  0  0  0  0
  1  7  1  0  0  0  0
  1  6  1  0  0  0  0
  2  1  2  0  0  0  0
  3  2  1  0  0  0  0
  3  4  2  0  0  0  0
  4  5  1  0  0  0  0
  5  6  2  0  0  0  0
  5 23  1  0  0  0  0
  8  3  1  0  0  0  0
  9  2  1  0  0  0  0
 10  9  1  0  0  0  0
 11 10  1  0  0  0  0
 11 16  1  0  0  0  0
 12 11  2  0  0  0  0
 13 14  2  0  0  0  0
 13 12  1  0  0  0  0
 14 15  1  0  0  0  0
 15 10  2  0  0  0  0
 17 12  1  0  0  0  0
 18 13  1  0  0  0  0
 19 20  1  0  0  0  0
 19 14  1  0  0  0  0
 21 19  1  0  0  0  0
 22 19  1  0  0  0  0
 24 23  1  0  0  0  0
 24 25  1  0  0  0  0
 26 24  1  0  0  0  0
 28 27  1  0  0  0  0
 29 28  1  0  0  0  0
 29 24  1  0  0  0  0
 30 34  1  0  0  0  0
 30 29  2  0  0  0  0
 31 32  2  0  0  0  0
 31 30  1  0  0  0  0
 32 33  1  0  0  0  0
 33 28  2  0  0  0  0
 35 31  1  0  0  0  0
 36 32  1  0  0  0  0
 37 33  1  0  0  0  0
 39 38  1  0  0  0  0
 39 40  1  0  0  0  0
 41 40  1  0  0  0  0
 42 37  1  0  0  0  0
 42 41  1  0  0  0  0
 43 44  1  0  0  0  0
 43 42  1  0  0  0  0
 44 39  1  0  0  0  0
M  END
>  <minimizedAffinity>
-5.9647975

>  <minimizedRMSD>
1.10578263

$$$$
