
 OpenBabel03272507533D

 30 32  0  0  0  0  0  0  0  0999 V2000
   36.8800   31.4810   48.6320 N   0  0  0  0  0  0  0  0  0  0  0  0
   37.1280   32.3310   49.6230 C   0  0  0  0  0  0  0  0  0  0  0  0
   38.1690   33.2520   49.5260 C   0  0  0  0  0  0  0  0  0  0  0  0
   38.8640   33.1800   48.3590 C   0  0  0  0  0  0  0  0  0  0  0  0
   39.8240   34.0090   48.2380 O   0  0  0  0  0  0  0  0  0  0  0  0
   38.6590   32.3530   47.3400 N   0  0  0  0  0  0  0  0  0  0  0  0
   37.6310   31.4820   47.4940 C   0  0  0  0  0  0  0  0  0  0  0  0
   37.4070   30.6720   46.5310 O   0  0  0  0  0  0  0  0  0  0  0  0
   36.5030   32.2930   50.5080 H   0  0  0  0  0  0  0  0  0  0  0  0
   38.3860   33.9440   50.3120 H   0  0  0  0  0  0  0  0  0  0  0  0
   35.6240   29.8320   49.9020 C   0  0  0  0  0  0  0  0  0  0  0  0
   35.8230   30.5120   48.6830 C   0  0  0  0  0  0  0  0  0  0  0  0
   34.9910   30.2130   47.5930 C   0  0  0  0  0  0  0  0  0  0  0  0
   34.0310   29.2760   47.7720 N   0  0  0  0  0  0  0  0  0  0  0  0
   33.8450   28.6380   48.9140 C   0  0  0  0  0  0  0  0  0  0  0  0
   34.6340   28.9150   49.9700 N   0  0  0  0  0  0  0  0  0  0  0  0
   35.1610   30.7400   46.6810 H   0  0  0  0  0  0  0  0  0  0  0  0
   33.0780   27.8790   49.0860 H   0  0  0  0  0  0  0  0  0  0  0  0
   37.4940   29.3590   51.6520 C   0  0  0  0  0  0  0  0  0  0  0  0
   37.9830   28.3300   51.1190 O   0  0  0  0  0  0  0  0  0  0  0  0
   36.3920   30.0640   51.0630 N   0  0  0  0  0  0  0  0  0  0  0  0
   37.9590   29.6650   52.5730 H   0  0  0  0  0  0  0  0  0  0  0  0
   36.1520   30.9140   51.6530 H   0  0  0  0  0  0  0  0  0  0  0  0
   40.4600   31.4300   42.6180 H   0  0  0  0  0  0  0  0  0  0  0  0
   40.3440   31.7250   43.6170 N   0  0  0  0  0  0  0  0  0  0  0  0
   40.0790   30.5850   44.4430 C   0  0  0  0  0  2  0  0  0  0  0  0
   40.1910   31.0580   45.8900 C   0  0  0  0  0  2  0  0  0  0  0  0
   39.4430   32.3350   46.1220 C   0  0  0  0  0  3  0  0  0  0  0  0
   38.5530   32.7480   44.9750 C   0  0  0  0  0  2  0  0  0  0  0  0
   39.2330   32.6500   43.6440 C   0  0  0  0  0  2  0  0  0  0  0  0
  1 12  1  0  0  0  0
  1  2  1  0  0  0  0
  2  9  1  0  0  0  0
  3  2  2  0  0  0  0
  3 10  1  0  0  0  0
  4  3  1  0  0  0  0
  5  4  2  0  0  0  0
  6  7  1  0  0  0  0
  6  4  1  0  0  0  0
  7  1  1  0  0  0  0
  8  7  2  0  0  0  0
 11 16  1  0  0  0  0
 11 21  1  0  0  0  0
 12 11  2  0  0  0  0
 13 14  2  0  0  0  0
 13 12  1  0  0  0  0
 14 15  1  0  0  0  0
 15 18  1  0  0  0  0
 15 16  2  0  0  0  0
 17 13  1  0  0  0  0
 19 22  1  0  0  0  0
 20 19  2  0  0  0  0
 21 19  1  0  0  0  0
 21 23  1  0  0  0  0
 24 25  1  0  0  0  0
 25 30  1  0  0  0  0
 25 26  1  0  0  0  0
 26 27  1  0  0  0  0
 27 28  1  0  0  0  0
 28  6  1  0  0  0  0
 29 28  1  0  0  0  0
 30 29  1  0  0  0  0
M  END
>  <minimizedAffinity>
-6.33712721

>  <minimizedRMSD>
1.19281018

$$$$
