
 OpenBabel03272510243D

 30 33  0  0  0  0  0  0  0  0999 V2000
   36.1620   30.1780   46.8310 C   0  0  0  0  0  0  0  0  0  0  0  0
   37.0330   30.7480   47.7550 C   0  0  0  0  0  0  0  0  0  0  0  0
   38.0070   31.6530   47.3500 C   0  0  0  0  0  0  0  0  0  0  0  0
   38.0490   31.9430   45.9870 C   0  0  0  0  0  0  0  0  0  0  0  0
   38.9170   32.8000   45.3540 N   0  0  0  0  0  0  0  0  0  0  0  0
   38.5850   32.7600   44.0560 C   0  0  0  0  0  0  0  0  0  0  0  0
   37.5660   31.9300   43.8500 N   0  0  0  0  0  0  0  0  0  0  0  0
   37.2110   31.4060   45.0420 C   0  0  0  0  0  0  0  0  0  0  0  0
   36.2470   30.5020   45.4830 C   0  0  0  0  0  0  0  0  0  0  0  0
   35.4000   29.4720   47.1320 H   0  0  0  0  0  0  0  0  0  0  0  0
   38.6790   32.0920   48.0630 H   0  0  0  0  0  0  0  0  0  0  0  0
   39.6840   33.3660   45.8250 H   0  0  0  0  0  0  0  0  0  0  0  0
   35.5840   30.0770   44.7410 H   0  0  0  0  0  0  0  0  0  0  0  0
   37.5500   30.1960   51.4440 C   0  0  0  0  0  0  0  0  0  0  0  0
   37.7920   30.6120   50.1440 C   0  0  0  0  0  0  0  0  0  0  0  0
   36.8800   30.3580   49.1430 C   0  0  0  0  0  0  0  0  0  0  0  0
   35.7480   29.6870   49.4980 N   0  0  0  0  0  0  0  0  0  0  0  0
   35.5240   29.2860   50.7730 C   0  0  0  0  0  0  0  0  0  0  0  0
   36.4150   29.5400   51.7260 N   0  0  0  0  0  0  0  0  0  0  0  0
   38.2720   30.4000   52.2240 H   0  0  0  0  0  0  0  0  0  0  0  0
   38.6960   31.1440   49.8740 H   0  0  0  0  0  0  0  0  0  0  0  0
   34.6120   28.7480   51.0480 H   0  0  0  0  0  0  0  0  0  0  0  0
   39.2810   33.5280   43.1200 O   0  0  0  0  0  0  0  0  0  0  0  0
   37.3650   32.0680   38.7110 H   0  0  0  0  0  0  0  0  0  0  0  0
   37.5710   31.9210   39.7090 N   0  0  0  0  0  0  0  0  0  0  0  0
   38.9550   31.5900   39.9710 C   0  0  0  0  0  2  0  0  0  0  0  0
   39.2190   31.7620   41.4690 C   0  0  0  0  0  2  0  0  0  0  0  0
   39.2940   33.2410   41.7380 C   0  0  0  0  0  3  0  0  0  0  0  0
   38.1930   33.9210   40.9900 C   0  0  0  0  0  2  0  0  0  0  0  0
   37.0850   32.9750   40.5650 C   0  0  0  0  0  2  0  0  0  0  0  0
  1 10  1  0  0  0  0
  1  2  1  0  0  0  0
  2 16  1  0  0  0  0
  3  2  2  0  0  0  0
  3 11  1  0  0  0  0
  4  3  1  0  0  0  0
  5 12  1  0  0  0  0
  5  4  1  0  0  0  0
  6  5  1  0  0  0  0
  7  6  2  0  0  0  0
  7  8  1  0  0  0  0
  8  9  1  0  0  0  0
  8  4  2  0  0  0  0
  9  1  2  0  0  0  0
 13  9  1  0  0  0  0
 14 19  1  0  0  0  0
 14 20  1  0  0  0  0
 15 14  2  0  0  0  0
 16 17  2  0  0  0  0
 16 15  1  0  0  0  0
 17 18  1  0  0  0  0
 18 22  1  0  0  0  0
 18 19  2  0  0  0  0
 21 15  1  0  0  0  0
 23  6  1  0  0  0  0
 24 25  1  0  0  0  0
 25 26  1  0  0  0  0
 25 30  1  0  0  0  0
 26 27  1  0  0  0  0
 27 28  1  0  0  0  0
 28 23  1  0  0  0  0
 29 28  1  0  0  0  0
 30 29  1  0  0  0  0
M  END
>  <minimizedAffinity>
-5.4117136

>  <minimizedRMSD>
1.4353677

$$$$
