
 OpenBabel03272507523D

 30 32  0  0  0  0  0  0  0  0999 V2000
   36.4250   31.0530   48.5870 N   0  0  0  0  0  0  0  0  0  0  0  0
   36.8280   31.9190   49.5110 C   0  0  0  0  0  0  0  0  0  0  0  0
   37.9130   32.7600   49.2710 C   0  0  0  0  0  0  0  0  0  0  0  0
   38.4780   32.5980   48.0450 C   0  0  0  0  0  0  0  0  0  0  0  0
   39.4740   33.3530   47.7930 O   0  0  0  0  0  0  0  0  0  0  0  0
   38.1160   31.7520   47.0880 N   0  0  0  0  0  0  0  0  0  0  0  0
   37.0540   30.9610   47.3810 C   0  0  0  0  0  0  0  0  0  0  0  0
   36.6800   30.1350   46.4800 O   0  0  0  0  0  0  0  0  0  0  0  0
   36.2960   31.9560   50.4550 H   0  0  0  0  0  0  0  0  0  0  0  0
   38.2540   33.4640   50.0020 H   0  0  0  0  0  0  0  0  0  0  0  0
   35.1880   29.5590   50.0510 C   0  0  0  0  0  0  0  0  0  0  0  0
   35.3170   30.1630   48.7840 C   0  0  0  0  0  0  0  0  0  0  0  0
   34.3700   29.8690   47.7900 C   0  0  0  0  0  0  0  0  0  0  0  0
   33.3730   29.0110   48.1050 N   0  0  0  0  0  0  0  0  0  0  0  0
   33.2530   28.4440   49.2920 C   0  0  0  0  0  0  0  0  0  0  0  0
   34.1520   28.7160   50.2570 N   0  0  0  0  0  0  0  0  0  0  0  0
   34.4900   30.3390   46.8390 H   0  0  0  0  0  0  0  0  0  0  0  0
   32.4580   27.7480   49.5720 H   0  0  0  0  0  0  0  0  0  0  0  0
   37.3770   29.2810   51.4350 C   0  0  0  0  0  0  0  0  0  0  0  0
   37.9710   28.4760   50.6720 O   0  0  0  0  0  0  0  0  0  0  0  0
   36.0730   29.7930   51.1250 N   0  0  0  0  0  0  0  0  0  0  0  0
   37.9150   29.5520   52.3270 H   0  0  0  0  0  0  0  0  0  0  0  0
   35.7650   30.4740   51.8800 H   0  0  0  0  0  0  0  0  0  0  0  0
   41.2580   32.2760   43.0570 H   0  0  0  0  0  0  0  0  0  0  0  0
   40.4620   32.0370   43.6950 N   0  0  0  0  0  0  0  0  0  0  0  0
   39.8630   33.2340   44.2080 C   0  0  0  0  0  2  0  0  0  0  0  0
   38.5680   32.8140   44.8980 C   0  0  0  0  0  2  0  0  0  0  0  0
   38.7690   31.6350   45.8000 C   0  0  0  0  0  3  0  0  0  0  0  0
   40.2150   31.2690   46.0300 C   0  0  0  0  0  2  0  0  0  0  0  0
   41.0150   31.2390   44.7630 C   0  0  0  0  0  2  0  0  0  0  0  0
  1 12  1  0  0  0  0
  1  2  1  0  0  0  0
  2  9  1  0  0  0  0
  3  2  2  0  0  0  0
  3 10  1  0  0  0  0
  4  3  1  0  0  0  0
  5  4  2  0  0  0  0
  6  7  1  0  0  0  0
  6  4  1  0  0  0  0
  7  1  1  0  0  0  0
  8  7  2  0  0  0  0
 11 16  1  0  0  0  0
 11 21  1  0  0  0  0
 12 11  2  0  0  0  0
 13 14  2  0  0  0  0
 13 12  1  0  0  0  0
 14 15  1  0  0  0  0
 15 18  1  0  0  0  0
 15 16  2  0  0  0  0
 17 13  1  0  0  0  0
 19 22  1  0  0  0  0
 20 19  2  0  0  0  0
 21 19  1  0  0  0  0
 21 23  1  0  0  0  0
 24 25  1  0  0  0  0
 25 26  1  0  0  0  0
 25 30  1  0  0  0  0
 26 27  1  0  0  0  0
 27 28  1  0  0  0  0
 28 29  1  0  0  0  0
 28  6  1  0  0  0  0
 30 29  1  0  0  0  0
M  END
>  <minimizedAffinity>
-5.78216791

>  <minimizedRMSD>
1.55795109

$$$$
