
 OpenBabel03272501583D

 29 31  0  0  0  0  0  0  0  0999 V2000
   34.4580   28.2500   48.0680 C   0  0  0  0  0  0  0  0  0  0  0  0
   34.8840   29.1270   47.5380 H   0  0  0  0  0  0  0  0  0  0  0  0
   34.9600   27.3660   47.6490 H   0  0  0  0  0  0  0  0  0  0  0  0
   32.9770   28.2160   47.8530 C   0  0  0  0  0  0  0  0  0  0  0  0
   32.0530   27.4910   48.5710 C   0  0  0  0  0  0  0  0  0  0  0  0
   30.7710   27.7110   48.0850 C   0  0  0  0  0  0  0  0  0  0  0  0
   30.9680   28.5770   47.0720 N   0  0  0  0  0  0  0  0  0  0  0  0
   32.2490   28.8690   46.9390 N   0  0  0  0  0  0  0  0  0  0  0  0
   32.3380   26.8440   49.4020 H   0  0  0  0  0  0  0  0  0  0  0  0
   29.8810   27.2510   48.4880 H   0  0  0  0  0  0  0  0  0  0  0  0
   31.4470   27.9420   43.0830 H   0  0  0  0  0  0  0  0  0  0  0  0
   31.0600   28.2450   44.0140 N   0  0  0  0  0  0  0  0  0  0  0  0
   30.8530   29.6650   43.9830 C   0  0  0  0  0  2  0  0  0  0  0  0
   30.3610   30.1710   45.3140 C   0  0  0  0  0  2  0  0  0  0  0  0
   29.8870   29.1050   46.2470 C   0  0  0  0  0  3  0  0  0  0  0  0
   29.1480   28.0490   45.4920 C   0  0  0  0  0  2  0  0  0  0  0  0
   29.8490   27.5280   44.2810 C   0  0  0  0  0  2  0  0  0  0  0  0
   34.6720   28.2960   49.5550 C   0  0  0  0  0  0  0  0  0  0  0  0
   33.8270   28.7660   50.0840 H   0  0  0  0  0  0  0  0  0  0  0  0
   34.8450   27.2710   49.9600 H   0  0  0  0  0  0  0  0  0  0  0  0
   37.2770   30.1790   51.3990 C   0  0  0  0  0  0  0  0  0  0  0  0
   38.0750   30.6970   50.3530 C   0  0  0  0  0  0  0  0  0  0  0  0
   37.6910   30.3820   49.0280 C   0  0  0  0  0  0  0  0  0  0  0  0
   36.5960   29.6120   48.8200 N   0  0  0  0  0  0  0  0  0  0  0  0
   35.8690   29.1420   49.8630 C   0  0  0  0  0  0  0  0  0  0  0  0
   36.2090   29.4240   51.1090 N   0  0  0  0  0  0  0  0  0  0  0  0
   37.5520   30.4080   52.4140 H   0  0  0  0  0  0  0  0  0  0  0  0
   38.9360   31.3060   50.5950 H   0  0  0  0  0  0  0  0  0  0  0  0
   38.2960   30.7740   48.2150 H   0  0  0  0  0  0  0  0  0  0  0  0
  1 18  1  0  0  0  0
  2  1  1  0  0  0  0
  3  1  1  0  0  0  0
  4  1  1  0  0  0  0
  4  5  1  0  0  0  0
  5  9  1  0  0  0  0
  6 10  1  0  0  0  0
  6  5  2  0  0  0  0
  7  6  1  0  0  0  0
  8  7  1  0  0  0  0
  8  4  2  0  0  0  0
 11 12  1  0  0  0  0
 12 17  1  0  0  0  0
 13 12  1  0  0  0  0
 13 14  1  0  0  0  0
 14 15  1  0  0  0  0
 15  7  1  0  0  0  0
 16 15  1  0  0  0  0
 17 16  1  0  0  0  0
 18 25  1  0  0  0  0
 18 20  1  0  0  0  0
 18 19  1  0  0  0  0
 21 27  1  0  0  0  0
 22 28  1  0  0  0  0
 22 21  2  0  0  0  0
 23 22  1  0  0  0  0
 24 23  2  0  0  0  0
 24 25  1  0  0  0  0
 25 26  2  0  0  0  0
 26 21  1  0  0  0  0
 29 23  1  0  0  0  0
M  END
>  <minimizedAffinity>
-4.49640989

>  <minimizedRMSD>
0.464023083

$$$$
