
 OpenBabel03272501583D

 29 31  0  0  0  0  0  0  0  0999 V2000
   34.3510   28.4700   48.0300 C   0  0  0  0  0  0  0  0  0  0  0  0
   34.5920   29.4880   47.6600 H   0  0  0  0  0  0  0  0  0  0  0  0
   34.9040   27.7710   47.3870 H   0  0  0  0  0  0  0  0  0  0  0  0
   32.8700   28.2580   47.9550 C   0  0  0  0  0  0  0  0  0  0  0  0
   32.0600   27.7310   48.9350 C   0  0  0  0  0  0  0  0  0  0  0  0
   30.7390   27.6870   48.5090 C   0  0  0  0  0  0  0  0  0  0  0  0
   30.7980   28.1990   47.2640 N   0  0  0  0  0  0  0  0  0  0  0  0
   32.0360   28.5300   46.9450 N   0  0  0  0  0  0  0  0  0  0  0  0
   32.4490   27.4050   49.9000 H   0  0  0  0  0  0  0  0  0  0  0  0
   29.9200   27.3130   49.1050 H   0  0  0  0  0  0  0  0  0  0  0  0
   30.6240   25.5490   44.1820 H   0  0  0  0  0  0  0  0  0  0  0  0
   30.4010   26.3340   44.8500 N   0  0  0  0  0  0  0  0  0  0  0  0
   30.2590   27.5470   44.0980 C   0  0  0  0  0  2  0  0  0  0  0  0
   30.0050   28.7220   45.0050 C   0  0  0  0  0  2  0  0  0  0  0  0
   29.6290   28.3550   46.4050 C   0  0  0  0  0  3  0  0  0  0  0  0
   28.7320   27.1600   46.4030 C   0  0  0  0  0  2  0  0  0  0  0  0
   29.2120   26.0100   45.5810 C   0  0  0  0  0  2  0  0  0  0  0  0
   34.7400   28.2550   49.4650 C   0  0  0  0  0  0  0  0  0  0  0  0
   33.9370   28.5430   50.1640 H   0  0  0  0  0  0  0  0  0  0  0  0
   35.0250   27.1910   49.6410 H   0  0  0  0  0  0  0  0  0  0  0  0
   37.2610   30.1850   51.3760 C   0  0  0  0  0  0  0  0  0  0  0  0
   38.0660   30.7310   50.3500 C   0  0  0  0  0  0  0  0  0  0  0  0
   37.7160   30.4190   49.0150 C   0  0  0  0  0  0  0  0  0  0  0  0
   36.6450   29.6240   48.7800 N   0  0  0  0  0  0  0  0  0  0  0  0
   35.9090   29.1270   49.8040 C   0  0  0  0  0  0  0  0  0  0  0  0
   36.2180   29.4060   51.0590 N   0  0  0  0  0  0  0  0  0  0  0  0
   37.5110   30.4110   52.3980 H   0  0  0  0  0  0  0  0  0  0  0  0
   38.9070   31.3600   50.6130 H   0  0  0  0  0  0  0  0  0  0  0  0
   38.3260   30.8330   48.2170 H   0  0  0  0  0  0  0  0  0  0  0  0
  1 18  1  0  0  0  0
  2  1  1  0  0  0  0
  3  1  1  0  0  0  0
  4  1  1  0  0  0  0
  4  5  1  0  0  0  0
  5  9  1  0  0  0  0
  6  5  2  0  0  0  0
  6 10  1  0  0  0  0
  7  6  1  0  0  0  0
  8  7  1  0  0  0  0
  8  4  2  0  0  0  0
 11 12  1  0  0  0  0
 12 17  1  0  0  0  0
 13 12  1  0  0  0  0
 13 14  1  0  0  0  0
 14 15  1  0  0  0  0
 15  7  1  0  0  0  0
 16 15  1  0  0  0  0
 17 16  1  0  0  0  0
 18 20  1  0  0  0  0
 18 25  1  0  0  0  0
 18 19  1  0  0  0  0
 21 27  1  0  0  0  0
 22 28  1  0  0  0  0
 22 21  2  0  0  0  0
 23 22  1  0  0  0  0
 24 23  2  0  0  0  0
 24 25  1  0  0  0  0
 25 26  2  0  0  0  0
 26 21  1  0  0  0  0
 29 23  1  0  0  0  0
M  END
>  <minimizedAffinity>
-4.49606323

>  <minimizedRMSD>
1.74193156

$$$$
