
 OpenBabel03272510243D

 30 33  0  0  0  0  0  0  0  0999 V2000
   35.8750   30.0510   47.0170 C   0  0  0  0  0  0  0  0  0  0  0  0
   36.8280   30.6180   47.8570 C   0  0  0  0  0  0  0  0  0  0  0  0
   37.7920   31.4850   47.3570 C   0  0  0  0  0  0  0  0  0  0  0  0
   37.7390   31.7410   45.9870 C   0  0  0  0  0  0  0  0  0  0  0  0
   38.5770   32.5570   45.2680 N   0  0  0  0  0  0  0  0  0  0  0  0
   38.1480   32.4940   44.0000 C   0  0  0  0  0  0  0  0  0  0  0  0
   37.0950   31.6880   43.8930 N   0  0  0  0  0  0  0  0  0  0  0  0
   36.8170   31.2040   45.1220 C   0  0  0  0  0  0  0  0  0  0  0  0
   35.8660   30.3380   45.6580 C   0  0  0  0  0  0  0  0  0  0  0  0
   35.1200   29.3740   47.3930 H   0  0  0  0  0  0  0  0  0  0  0  0
   38.5270   31.9230   48.0050 H   0  0  0  0  0  0  0  0  0  0  0  0
   39.3930   33.1130   45.6650 H   0  0  0  0  0  0  0  0  0  0  0  0
   35.1390   29.9140   44.9800 H   0  0  0  0  0  0  0  0  0  0  0  0
   37.6000   30.1600   51.5140 C   0  0  0  0  0  0  0  0  0  0  0  0
   37.7530   30.5390   50.1900 C   0  0  0  0  0  0  0  0  0  0  0  0
   36.7700   30.2670   49.2630 C   0  0  0  0  0  0  0  0  0  0  0  0
   35.6610   29.6180   49.7150 N   0  0  0  0  0  0  0  0  0  0  0  0
   35.5240   29.2530   51.0140 C   0  0  0  0  0  0  0  0  0  0  0  0
   36.4820   29.5230   51.8940 N   0  0  0  0  0  0  0  0  0  0  0  0
   38.3780   30.3780   52.2360 H   0  0  0  0  0  0  0  0  0  0  0  0
   38.6400   31.0540   49.8430 H   0  0  0  0  0  0  0  0  0  0  0  0
   34.6300   28.7320   51.3660 H   0  0  0  0  0  0  0  0  0  0  0  0
   38.7910   33.2190   42.9940 O   0  0  0  0  0  0  0  0  0  0  0  0
   39.6330   29.7920   39.4200 H   0  0  0  0  0  0  0  0  0  0  0  0
   39.4540   30.0650   40.3950 N   0  0  0  0  0  0  0  0  0  0  0  0
   40.6110   30.6270   41.0580 C   0  0  0  0  0  2  0  0  0  0  0  0
   40.1440   31.3250   42.3380 C   0  0  0  0  0  2  0  0  0  0  0  0
   39.4830   32.6130   41.9240 C   0  0  0  0  0  3  0  0  0  0  0  0
   38.6110   32.3450   40.7400 C   0  0  0  0  0  2  0  0  0  0  0  0
   38.2720   30.8750   40.5670 C   0  0  0  0  0  2  0  0  0  0  0  0
  1 10  1  0  0  0  0
  1  2  1  0  0  0  0
  2 16  1  0  0  0  0
  3  2  2  0  0  0  0
  3 11  1  0  0  0  0
  4  3  1  0  0  0  0
  5 12  1  0  0  0  0
  5  4  1  0  0  0  0
  6  5  1  0  0  0  0
  7  6  2  0  0  0  0
  7  8  1  0  0  0  0
  8  9  1  0  0  0  0
  8  4  2  0  0  0  0
  9  1  2  0  0  0  0
 13  9  1  0  0  0  0
 14 19  1  0  0  0  0
 14 20  1  0  0  0  0
 15 14  2  0  0  0  0
 16 17  2  0  0  0  0
 16 15  1  0  0  0  0
 17 18  1  0  0  0  0
 18 22  1  0  0  0  0
 18 19  2  0  0  0  0
 21 15  1  0  0  0  0
 23  6  1  0  0  0  0
 24 25  1  0  0  0  0
 25 30  1  0  0  0  0
 25 26  1  0  0  0  0
 26 27  1  0  0  0  0
 28 27  1  0  0  0  0
 28 23  1  0  0  0  0
 29 28  1  0  0  0  0
 30 29  1  0  0  0  0
M  END
>  <minimizedAffinity>
-5.31665325

>  <minimizedRMSD>
2.34103012

$$$$
