
 OpenBabel03272501573D

 29 31  0  0  0  0  0  0  0  0999 V2000
   34.4590   28.2460   48.0720 C   0  0  0  0  0  0  0  0  0  0  0  0
   34.8860   29.1210   47.5390 H   0  0  0  0  0  0  0  0  0  0  0  0
   34.9600   27.3600   47.6570 H   0  0  0  0  0  0  0  0  0  0  0  0
   32.9780   28.2130   47.8550 C   0  0  0  0  0  0  0  0  0  0  0  0
   32.0530   27.4870   48.5700 C   0  0  0  0  0  0  0  0  0  0  0  0
   30.7710   27.7080   48.0840 C   0  0  0  0  0  0  0  0  0  0  0  0
   30.9700   28.5760   47.0730 N   0  0  0  0  0  0  0  0  0  0  0  0
   32.2510   28.8690   46.9420 N   0  0  0  0  0  0  0  0  0  0  0  0
   32.3370   26.8380   49.4000 H   0  0  0  0  0  0  0  0  0  0  0  0
   29.8810   27.2470   48.4850 H   0  0  0  0  0  0  0  0  0  0  0  0
   31.4490   27.9450   43.0830 H   0  0  0  0  0  0  0  0  0  0  0  0
   31.0630   28.2490   44.0150 N   0  0  0  0  0  0  0  0  0  0  0  0
   30.8560   29.6670   43.9850 C   0  0  0  0  0  2  0  0  0  0  0  0
   30.3650   30.1730   45.3160 C   0  0  0  0  0  2  0  0  0  0  0  0
   29.8900   29.1070   46.2480 C   0  0  0  0  0  3  0  0  0  0  0  0
   29.1500   28.0520   45.4910 C   0  0  0  0  0  2  0  0  0  0  0  0
   29.8510   27.5320   44.2810 C   0  0  0  0  0  2  0  0  0  0  0  0
   34.6710   28.2980   49.5590 C   0  0  0  0  0  0  0  0  0  0  0  0
   33.8260   28.7710   50.0850 H   0  0  0  0  0  0  0  0  0  0  0  0
   34.8420   27.2740   49.9680 H   0  0  0  0  0  0  0  0  0  0  0  0
   37.2790   30.1800   51.3990 C   0  0  0  0  0  0  0  0  0  0  0  0
   38.0760   30.6970   50.3520 C   0  0  0  0  0  0  0  0  0  0  0  0
   37.6900   30.3820   49.0270 C   0  0  0  0  0  0  0  0  0  0  0  0
   36.5950   29.6120   48.8210 N   0  0  0  0  0  0  0  0  0  0  0  0
   35.8680   29.1430   49.8650 C   0  0  0  0  0  0  0  0  0  0  0  0
   36.2100   29.4250   51.1110 N   0  0  0  0  0  0  0  0  0  0  0  0
   37.5550   30.4090   52.4140 H   0  0  0  0  0  0  0  0  0  0  0  0
   38.9380   31.3060   50.5920 H   0  0  0  0  0  0  0  0  0  0  0  0
   38.2950   30.7730   48.2130 H   0  0  0  0  0  0  0  0  0  0  0  0
  1 18  1  0  0  0  0
  2  1  1  0  0  0  0
  3  1  1  0  0  0  0
  4  1  1  0  0  0  0
  4  5  1  0  0  0  0
  5  9  1  0  0  0  0
  6 10  1  0  0  0  0
  6  5  2  0  0  0  0
  7  6  1  0  0  0  0
  8  7  1  0  0  0  0
  8  4  2  0  0  0  0
 11 12  1  0  0  0  0
 12 17  1  0  0  0  0
 13 12  1  0  0  0  0
 13 14  1  0  0  0  0
 14 15  1  0  0  0  0
 15  7  1  0  0  0  0
 16 15  1  0  0  0  0
 17 16  1  0  0  0  0
 18 25  1  0  0  0  0
 18 20  1  0  0  0  0
 18 19  1  0  0  0  0
 21 27  1  0  0  0  0
 22 28  1  0  0  0  0
 22 21  2  0  0  0  0
 23 22  1  0  0  0  0
 24 23  2  0  0  0  0
 24 25  1  0  0  0  0
 25 26  2  0  0  0  0
 26 21  1  0  0  0  0
 29 23  1  0  0  0  0
M  END
>  <minimizedAffinity>
-4.49885511

>  <minimizedRMSD>
0.737776577

$$$$
