
 OpenBabel03272501573D

 29 31  0  0  0  0  0  0  0  0999 V2000
   34.3720   28.4950   48.0380 C   0  0  0  0  0  0  0  0  0  0  0  0
   34.5980   29.5220   47.6840 H   0  0  0  0  0  0  0  0  0  0  0  0
   34.9360   27.8150   47.3850 H   0  0  0  0  0  0  0  0  0  0  0  0
   32.8950   28.2610   47.9600 C   0  0  0  0  0  0  0  0  0  0  0  0
   32.0860   27.7450   48.9470 C   0  0  0  0  0  0  0  0  0  0  0  0
   30.7690   27.6730   48.5150 C   0  0  0  0  0  0  0  0  0  0  0  0
   30.8280   28.1590   47.2590 N   0  0  0  0  0  0  0  0  0  0  0  0
   32.0630   28.5000   46.9400 N   0  0  0  0  0  0  0  0  0  0  0  0
   32.4740   27.4450   49.9220 H   0  0  0  0  0  0  0  0  0  0  0  0
   29.9520   27.3010   49.1150 H   0  0  0  0  0  0  0  0  0  0  0  0
   30.0740   24.8570   45.0050 H   0  0  0  0  0  0  0  0  0  0  0  0
   30.0160   25.8170   45.4360 N   0  0  0  0  0  0  0  0  0  0  0  0
   30.0420   26.7940   44.3860 C   0  0  0  0  0  2  0  0  0  0  0  0
   30.0280   28.1920   44.9440 C   0  0  0  0  0  2  0  0  0  0  0  0
   29.6630   28.2790   46.3910 C   0  0  0  0  0  3  0  0  0  0  0  0
   28.5810   27.3000   46.7110 C   0  0  0  0  0  2  0  0  0  0  0  0
   28.8250   25.9080   46.2290 C   0  0  0  0  0  2  0  0  0  0  0  0
   34.7650   28.2630   49.4700 C   0  0  0  0  0  0  0  0  0  0  0  0
   33.9630   28.5390   50.1730 H   0  0  0  0  0  0  0  0  0  0  0  0
   35.0560   27.1990   49.6310 H   0  0  0  0  0  0  0  0  0  0  0  0
   37.2750   30.1890   51.4010 C   0  0  0  0  0  0  0  0  0  0  0  0
   38.0820   30.7440   50.3800 C   0  0  0  0  0  0  0  0  0  0  0  0
   37.7360   30.4390   49.0420 C   0  0  0  0  0  0  0  0  0  0  0  0
   36.6690   29.6420   48.7990 N   0  0  0  0  0  0  0  0  0  0  0  0
   35.9310   29.1370   49.8180 C   0  0  0  0  0  0  0  0  0  0  0  0
   36.2350   29.4090   51.0750 N   0  0  0  0  0  0  0  0  0  0  0  0
   37.5210   30.4100   52.4240 H   0  0  0  0  0  0  0  0  0  0  0  0
   38.9200   31.3730   50.6500 H   0  0  0  0  0  0  0  0  0  0  0  0
   38.3490   30.8590   48.2490 H   0  0  0  0  0  0  0  0  0  0  0  0
  1 18  1  0  0  0  0
  2  1  1  0  0  0  0
  3  1  1  0  0  0  0
  4  1  1  0  0  0  0
  4  5  1  0  0  0  0
  5  9  1  0  0  0  0
  6  5  2  0  0  0  0
  6 10  1  0  0  0  0
  7  6  1  0  0  0  0
  8  7  1  0  0  0  0
  8  4  2  0  0  0  0
 11 12  1  0  0  0  0
 12 17  1  0  0  0  0
 13 14  1  0  0  0  0
 13 12  1  0  0  0  0
 14 15  1  0  0  0  0
 15 16  1  0  0  0  0
 15  7  1  0  0  0  0
 17 16  1  0  0  0  0
 18 20  1  0  0  0  0
 18 25  1  0  0  0  0
 18 19  1  0  0  0  0
 21 27  1  0  0  0  0
 22 28  1  0  0  0  0
 22 21  2  0  0  0  0
 23 22  1  0  0  0  0
 24 23  2  0  0  0  0
 24 25  1  0  0  0  0
 25 26  2  0  0  0  0
 26 21  1  0  0  0  0
 29 23  1  0  0  0  0
M  END
>  <minimizedAffinity>
-4.60466194

>  <minimizedRMSD>
1.37311685

$$$$
