
 OpenBabel03272507523D

 30 32  0  0  0  0  0  0  0  0999 V2000
   36.8790   31.4810   48.6330 N   0  0  0  0  0  0  0  0  0  0  0  0
   37.1280   32.3310   49.6240 C   0  0  0  0  0  0  0  0  0  0  0  0
   38.1690   33.2510   49.5270 C   0  0  0  0  0  0  0  0  0  0  0  0
   38.8630   33.1790   48.3600 C   0  0  0  0  0  0  0  0  0  0  0  0
   39.8240   34.0090   48.2380 O   0  0  0  0  0  0  0  0  0  0  0  0
   38.6580   32.3530   47.3400 N   0  0  0  0  0  0  0  0  0  0  0  0
   37.6310   31.4820   47.4950 C   0  0  0  0  0  0  0  0  0  0  0  0
   37.4060   30.6720   46.5310 O   0  0  0  0  0  0  0  0  0  0  0  0
   36.5020   32.2920   50.5090 H   0  0  0  0  0  0  0  0  0  0  0  0
   38.3850   33.9430   50.3130 H   0  0  0  0  0  0  0  0  0  0  0  0
   35.6240   29.8310   49.9020 C   0  0  0  0  0  0  0  0  0  0  0  0
   35.8230   30.5120   48.6830 C   0  0  0  0  0  0  0  0  0  0  0  0
   34.9900   30.2120   47.5940 C   0  0  0  0  0  0  0  0  0  0  0  0
   34.0300   29.2750   47.7730 N   0  0  0  0  0  0  0  0  0  0  0  0
   33.8450   28.6380   48.9140 C   0  0  0  0  0  0  0  0  0  0  0  0
   34.6340   28.9140   49.9700 N   0  0  0  0  0  0  0  0  0  0  0  0
   35.1610   30.7400   46.6820 H   0  0  0  0  0  0  0  0  0  0  0  0
   33.0780   27.8780   49.0870 H   0  0  0  0  0  0  0  0  0  0  0  0
   37.4940   29.3580   51.6520 C   0  0  0  0  0  0  0  0  0  0  0  0
   37.9830   28.3300   51.1180 O   0  0  0  0  0  0  0  0  0  0  0  0
   36.3920   30.0630   51.0630 N   0  0  0  0  0  0  0  0  0  0  0  0
   37.9590   29.6640   52.5730 H   0  0  0  0  0  0  0  0  0  0  0  0
   36.1520   30.9130   51.6530 H   0  0  0  0  0  0  0  0  0  0  0  0
   40.4600   31.4290   42.6170 H   0  0  0  0  0  0  0  0  0  0  0  0
   40.3430   31.7260   43.6170 N   0  0  0  0  0  0  0  0  0  0  0  0
   40.0790   30.5850   44.4440 C   0  0  0  0  0  2  0  0  0  0  0  0
   40.1910   31.0580   45.8900 C   0  0  0  0  0  2  0  0  0  0  0  0
   39.4430   32.3350   46.1220 C   0  0  0  0  0  3  0  0  0  0  0  0
   38.5520   32.7480   44.9760 C   0  0  0  0  0  2  0  0  0  0  0  0
   39.2320   32.6490   43.6450 C   0  0  0  0  0  2  0  0  0  0  0  0
  1 12  1  0  0  0  0
  1  2  1  0  0  0  0
  2  9  1  0  0  0  0
  3  2  2  0  0  0  0
  3 10  1  0  0  0  0
  4  3  1  0  0  0  0
  5  4  2  0  0  0  0
  6  7  1  0  0  0  0
  6  4  1  0  0  0  0
  7  1  1  0  0  0  0
  8  7  2  0  0  0  0
 11 16  1  0  0  0  0
 11 21  1  0  0  0  0
 12 11  2  0  0  0  0
 13 14  2  0  0  0  0
 13 12  1  0  0  0  0
 14 15  1  0  0  0  0
 15 18  1  0  0  0  0
 15 16  2  0  0  0  0
 17 13  1  0  0  0  0
 19 22  1  0  0  0  0
 20 19  2  0  0  0  0
 21 19  1  0  0  0  0
 21 23  1  0  0  0  0
 24 25  1  0  0  0  0
 25 30  1  0  0  0  0
 25 26  1  0  0  0  0
 26 27  1  0  0  0  0
 27 28  1  0  0  0  0
 28  6  1  0  0  0  0
 29 28  1  0  0  0  0
 30 29  1  0  0  0  0
M  END
>  <minimizedAffinity>
-6.3372364

>  <minimizedRMSD>
1.24407387

$$$$
