
 OpenBabel03272510123D

 33 36  0  0  0  0  0  0  0  0999 V2000
   34.1640   28.4280   48.6390 C   0  0  0  0  0  0  0  0  0  0  0  0
   34.9870   28.3480   49.7310 C   0  0  0  0  0  0  0  0  0  0  0  0
   35.8250   29.3580   50.1530 C   0  0  0  0  0  0  0  0  0  0  0  0
   35.8720   30.5340   49.4680 C   0  0  0  0  0  0  0  0  0  0  0  0
   35.0320   30.6220   48.3500 C   0  0  0  0  0  0  0  0  0  0  0  0
   34.2290   29.6080   47.9740 N   0  0  0  0  0  0  0  0  0  0  0  0
   35.0100   27.4480   50.3300 H   0  0  0  0  0  0  0  0  0  0  0  0
   36.4730   29.2900   51.0160 H   0  0  0  0  0  0  0  0  0  0  0  0
   34.9630   31.4920   47.7110 H   0  0  0  0  0  0  0  0  0  0  0  0
   33.7450   26.2600   47.4750 C   0  0  0  0  0  0  0  0  0  0  0  0
   33.3030   27.3740   48.2000 C   0  0  0  0  0  0  0  0  0  0  0  0
   31.9650   27.4350   48.4810 C   0  0  0  0  0  0  0  0  0  0  0  0
   31.1290   26.4330   48.0520 N   0  0  0  0  0  0  0  0  0  0  0  0
   31.6210   25.3740   47.3490 C   0  0  0  0  0  0  0  0  0  0  0  0
   32.9240   25.2810   47.0570 N   0  0  0  0  0  0  0  0  0  0  0  0
   34.7740   26.1680   47.2350 H   0  0  0  0  0  0  0  0  0  0  0  0
   31.5250   28.2620   49.0410 H   0  0  0  0  0  0  0  0  0  0  0  0
   30.8300   24.6750   47.0880 H   0  0  0  0  0  0  0  0  0  0  0  0
   36.6510   31.6510   49.7460 O   0  0  0  0  0  0  0  0  0  0  0  0
   37.6730   32.0660   48.8940 C   0  0  0  0  0  0  0  0  0  0  0  0
   38.2390   33.2800   49.2660 C   0  0  0  0  0  0  0  0  0  0  0  0
   39.2330   33.5650   48.3340 C   0  0  0  0  0  0  0  0  0  0  0  0
   39.2420   32.5540   47.4560 N   0  0  0  0  0  0  0  0  0  0  0  0
   38.3270   31.6810   47.7890 N   0  0  0  0  0  0  0  0  0  0  0  0
   38.0910   34.0120   50.0710 H   0  0  0  0  0  0  0  0  0  0  0  0
   39.9100   34.4150   48.2640 H   0  0  0  0  0  0  0  0  0  0  0  0
   39.2220   31.4090   42.8810 H   0  0  0  0  0  0  0  0  0  0  0  0
   39.9780   31.9060   43.4330 N   0  0  0  0  0  0  0  0  0  0  0  0
   40.5560   31.0140   44.3840 C   0  0  0  0  0  2  0  0  0  0  0  0
   39.9110   31.0430   45.7300 C   0  0  0  0  0  2  0  0  0  0  0  0
   40.1150   32.4300   46.3150 C   0  0  0  0  0  3  0  0  0  0  0  0
   39.9370   33.5190   45.3030 C   0  0  0  0  0  2  0  0  0  0  0  0
   39.3630   33.0680   43.9960 C   0  0  0  0  0  2  0  0  0  0  0  0
  1  2  1  0  0  0  0
  2  3  2  0  0  0  0
  2  7  1  0  0  0  0
  3  8  1  0  0  0  0
  4 19  1  0  0  0  0
  4  3  1  0  0  0  0
  5  4  2  0  0  0  0
  6  5  1  0  0  0  0
  6  1  2  0  0  0  0
  9  5  1  0  0  0  0
 10 11  1  0  0  0  0
 11 12  2  0  0  0  0
 11  1  1  0  0  0  0
 12 17  1  0  0  0  0
 13 12  1  0  0  0  0
 14 13  2  0  0  0  0
 15 14  1  0  0  0  0
 15 10  2  0  0  0  0
 16 10  1  0  0  0  0
 18 14  1  0  0  0  0
 20 21  1  0  0  0  0
 20 19  1  0  0  0  0
 21 25  1  0  0  0  0
 22 21  2  0  0  0  0
 23 24  1  0  0  0  0
 23 22  1  0  0  0  0
 24 20  2  0  0  0  0
 26 22  1  0  0  0  0
 27 28  1  0  0  0  0
 28 33  1  0  0  0  0
 28 29  1  0  0  0  0
 29 30  1  0  0  0  0
 30 31  1  0  0  0  0
 31 23  1  0  0  0  0
 32 31  1  0  0  0  0
 33 32  1  0  0  0  0
M  END
>  <minimizedAffinity>
-6.60733652

>  <minimizedRMSD>
2.50834846

$$$$
