
 OpenBabel03272507383D

 21 22  0  0  0  0  0  0  0  0999 V2000
   37.6390   25.5920   34.3970 C   0  0  0  0  0  0  0  0  0  0  0  0
   37.4760   25.6640   33.0180 C   0  0  0  0  0  0  0  0  0  0  0  0
   36.9730   26.8250   32.4670 C   0  0  0  0  0  0  0  0  0  0  0  0
   36.6560   27.8540   33.3130 N   0  0  0  0  0  0  0  0  0  0  0  0
   36.8220   27.7640   34.6470 C   0  0  0  0  0  0  0  0  0  0  0  0
   37.3080   26.6410   35.1600 N   0  0  0  0  0  0  0  0  0  0  0  0
   36.8160   26.9560   31.3940 H   0  0  0  0  0  0  0  0  0  0  0  0
   36.5750   28.5730   35.3210 H   0  0  0  0  0  0  0  0  0  0  0  0
   36.7450   23.8870   31.5340 C   0  0  0  0  0  0  0  0  0  0  0  0
   35.4810   23.8200   31.6600 O   0  0  0  0  0  0  0  0  0  0  0  0
   37.7770   24.6590   32.1000 N   0  0  0  0  0  0  0  0  0  0  0  0
   36.6460   23.0900   30.8050 H   0  0  0  0  0  0  0  0  0  0  0  0
   38.6730   24.3150   31.6970 H   0  0  0  0  0  0  0  0  0  0  0  0
   38.1530   24.3680   34.7950 O   0  0  0  0  0  0  0  0  0  0  0  0
   39.6700   22.2940   39.2120 H   0  0  0  0  0  0  0  0  0  0  0  0
   39.4860   22.9690   38.4250 N   0  0  0  0  0  0  0  0  0  0  0  0
   38.0680   23.2490   38.3410 C   0  0  0  0  0  2  0  0  0  0  0  0
   37.6010   23.4330   36.9210 C   0  0  0  0  0  2  0  0  0  0  0  0
   38.6460   24.1860   36.1030 C   0  0  0  0  0  3  0  0  0  0  0  0
   39.9490   23.4580   36.1330 C   0  0  0  0  0  2  0  0  0  0  0  0
   39.9240   22.3620   37.1870 C   0  0  0  0  0  2  0  0  0  0  0  0
  1 14  1  0  0  0  0
  1  6  1  0  0  0  0
  2  1  2  0  0  0  0
  3  2  1  0  0  0  0
  3  4  2  0  0  0  0
  4  5  1  0  0  0  0
  5  6  2  0  0  0  0
  5  8  1  0  0  0  0
  7  3  1  0  0  0  0
  9 10  2  0  0  0  0
  9 11  1  0  0  0  0
 11  2  1  0  0  0  0
 12  9  1  0  0  0  0
 13 11  1  0  0  0  0
 14 19  1  0  0  0  0
 16 15  1  0  0  0  0
 17 16  1  0  0  0  0
 18 17  1  0  0  0  0
 19 20  1  0  0  0  0
 19 18  1  0  0  0  0
 20 21  1  0  0  0  0
 21 16  1  0  0  0  0
M  END
>  <minimizedAffinity>
-4.4674859

$$$$

 OpenBabel03272507383D

 21 22  0  0  0  0  0  0  0  0999 V2000
   37.3750   22.0850   33.7400 C   0  0  0  0  0  0  0  0  0  0  0  0
   37.1600   22.7380   32.5300 C   0  0  0  0  0  0  0  0  0  0  0  0
   36.0700   22.3780   31.7650 C   0  0  0  0  0  0  0  0  0  0  0  0
   35.2490   21.3880   32.2380 N   0  0  0  0  0  0  0  0  0  0  0  0
   35.4760   20.7690   33.4120 C   0  0  0  0  0  0  0  0  0  0  0  0
   36.5280   21.1280   34.1360 N   0  0  0  0  0  0  0  0  0  0  0  0
   35.8360   22.8430   30.8040 H   0  0  0  0  0  0  0  0  0  0  0  0
   34.8310   19.9870   33.7930 H   0  0  0  0  0  0  0  0  0  0  0  0
   37.6170   25.1000   32.2060 C   0  0  0  0  0  0  0  0  0  0  0  0
   36.6800   25.7260   32.7950 O   0  0  0  0  0  0  0  0  0  0  0  0
   37.9510   23.7500   31.9890 N   0  0  0  0  0  0  0  0  0  0  0  0
   38.0220   26.0760   31.9600 H   0  0  0  0  0  0  0  0  0  0  0  0
   38.8130   23.7370   31.4050 H   0  0  0  0  0  0  0  0  0  0  0  0
   38.5040   22.5580   34.3890 O   0  0  0  0  0  0  0  0  0  0  0  0
   39.6680   23.0180   39.3440 H   0  0  0  0  0  0  0  0  0  0  0  0
   39.3140   22.6580   38.4200 N   0  0  0  0  0  0  0  0  0  0  0  0
   40.4320   22.3270   37.5620 C   0  0  0  0  0  2  0  0  0  0  0  0
   40.1550   22.6290   36.1130 C   0  0  0  0  0  2  0  0  0  0  0  0
   38.7080   22.2950   35.7590 C   0  0  0  0  0  3  0  0  0  0  0  0
   37.7720   23.0550   36.6390 C   0  0  0  0  0  2  0  0  0  0  0  0
   38.5260   23.6970   37.7930 C   0  0  0  0  0  2  0  0  0  0  0  0
  1  6  1  0  0  0  0
  1 14  1  0  0  0  0
  2  1  2  0  0  0  0
  3  4  2  0  0  0  0
  3  2  1  0  0  0  0
  4  5  1  0  0  0  0
  5  8  1  0  0  0  0
  5  6  2  0  0  0  0
  7  3  1  0  0  0  0
  9 10  2  0  0  0  0
 11  9  1  0  0  0  0
 11  2  1  0  0  0  0
 12  9  1  0  0  0  0
 13 11  1  0  0  0  0
 14 19  1  0  0  0  0
 16 15  1  0  0  0  0
 17 16  1  0  0  0  0
 18 17  1  0  0  0  0
 19 18  1  0  0  0  0
 19 20  1  0  0  0  0
 20 21  1  0  0  0  0
 21 16  1  0  0  0  0
M  END
>  <minimizedAffinity>
-4.44796658

$$$$

 OpenBabel03272507383D

 21 22  0  0  0  0  0  0  0  0999 V2000
   37.8420   23.9660   33.6080 C   0  0  0  0  0  0  0  0  0  0  0  0
   37.3000   25.1060   33.0240 C   0  0  0  0  0  0  0  0  0  0  0  0
   36.4530   24.9610   31.9440 C   0  0  0  0  0  0  0  0  0  0  0  0
   36.1900   23.6930   31.4980 N   0  0  0  0  0  0  0  0  0  0  0  0
   36.7260   22.6020   32.0780 C   0  0  0  0  0  0  0  0  0  0  0  0
   37.5370   22.7590   33.1160 N   0  0  0  0  0  0  0  0  0  0  0  0
   35.9900   25.8070   31.4310 H   0  0  0  0  0  0  0  0  0  0  0  0
   36.5220   21.5980   31.7320 H   0  0  0  0  0  0  0  0  0  0  0  0
   38.4880   27.2070   32.7650 C   0  0  0  0  0  0  0  0  0  0  0  0
   39.3250   27.0260   31.8250 O   0  0  0  0  0  0  0  0  0  0  0  0
   37.5230   26.4220   33.4240 N   0  0  0  0  0  0  0  0  0  0  0  0
   38.8630   28.2240   32.8110 H   0  0  0  0  0  0  0  0  0  0  0  0
   37.1010   27.0160   34.1680 H   0  0  0  0  0  0  0  0  0  0  0  0
   38.6670   24.2750   34.6780 O   0  0  0  0  0  0  0  0  0  0  0  0
   39.2610   22.5640   39.4560 H   0  0  0  0  0  0  0  0  0  0  0  0
   38.9960   22.6480   38.4400 N   0  0  0  0  0  0  0  0  0  0  0  0
   40.1840   22.5720   37.6160 C   0  0  0  0  0  2  0  0  0  0  0  0
   40.1020   23.4630   36.4050 C   0  0  0  0  0  2  0  0  0  0  0  0
   38.6890   23.4610   35.8280 C   0  0  0  0  0  3  0  0  0  0  0  0
   37.7070   23.8980   36.8640 C   0  0  0  0  0  2  0  0  0  0  0  0
   38.3590   23.9320   38.2370 C   0  0  0  0  0  2  0  0  0  0  0  0
  1 14  1  0  0  0  0
  2 11  1  0  0  0  0
  2  1  2  0  0  0  0
  3  2  1  0  0  0  0
  4  3  2  0  0  0  0
  4  5  1  0  0  0  0
  5  6  2  0  0  0  0
  6  1  1  0  0  0  0
  7  3  1  0  0  0  0
  8  5  1  0  0  0  0
  9 12  1  0  0  0  0
  9 11  1  0  0  0  0
 10  9  2  0  0  0  0
 11 13  1  0  0  0  0
 14 19  1  0  0  0  0
 16 15  1  0  0  0  0
 17 16  1  0  0  0  0
 18 17  1  0  0  0  0
 19 18  1  0  0  0  0
 19 20  1  0  0  0  0
 20 21  1  0  0  0  0
 21 16  1  0  0  0  0
M  END
>  <minimizedAffinity>
-4.27587891

$$$$

 OpenBabel03272507383D

 21 22  0  0  0  0  0  0  0  0999 V2000
   37.9940   23.6760   33.4740 C   0  0  0  0  0  0  0  0  0  0  0  0
   37.6480   24.9010   32.9130 C   0  0  0  0  0  0  0  0  0  0  0  0
   36.6340   24.9410   31.9780 C   0  0  0  0  0  0  0  0  0  0  0  0
   36.0170   23.7640   31.6460 N   0  0  0  0  0  0  0  0  0  0  0  0
   36.3680   22.5880   32.2020 C   0  0  0  0  0  0  0  0  0  0  0  0
   37.3440   22.5680   33.1010 N   0  0  0  0  0  0  0  0  0  0  0  0
   36.3070   25.8630   31.4920 H   0  0  0  0  0  0  0  0  0  0  0  0
   35.8840   21.6550   31.9460 H   0  0  0  0  0  0  0  0  0  0  0  0
   37.7160   26.9330   34.2390 C   0  0  0  0  0  0  0  0  0  0  0  0
   36.7450   26.8550   35.0560 O   0  0  0  0  0  0  0  0  0  0  0  0
   38.2310   26.1330   33.2020 N   0  0  0  0  0  0  0  0  0  0  0  0
   37.9480   27.8820   34.7110 H   0  0  0  0  0  0  0  0  0  0  0  0
   39.0370   26.6480   32.7880 H   0  0  0  0  0  0  0  0  0  0  0  0
   39.0240   23.8000   34.3930 O   0  0  0  0  0  0  0  0  0  0  0  0
   39.2780   22.6950   39.3760 H   0  0  0  0  0  0  0  0  0  0  0  0
   39.0870   22.6520   38.3410 N   0  0  0  0  0  0  0  0  0  0  0  0
   40.3310   22.4890   37.6190 C   0  0  0  0  0  2  0  0  0  0  0  0
   40.3330   23.2230   36.3050 C   0  0  0  0  0  2  0  0  0  0  0  0
   38.9660   23.1330   35.6330 C   0  0  0  0  0  3  0  0  0  0  0  0
   37.9100   23.6820   36.5350 C   0  0  0  0  0  2  0  0  0  0  0  0
   38.4610   23.8920   37.9360 C   0  0  0  0  0  2  0  0  0  0  0  0
  1 14  1  0  0  0  0
  2 11  1  0  0  0  0
  2  1  2  0  0  0  0
  3  2  1  0  0  0  0
  4  3  2  0  0  0  0
  4  5  1  0  0  0  0
  5  6  2  0  0  0  0
  6  1  1  0  0  0  0
  7  3  1  0  0  0  0
  8  5  1  0  0  0  0
  9 12  1  0  0  0  0
  9 10  2  0  0  0  0
 11  9  1  0  0  0  0
 13 11  1  0  0  0  0
 14 19  1  0  0  0  0
 16 15  1  0  0  0  0
 17 16  1  0  0  0  0
 18 17  1  0  0  0  0
 19 18  1  0  0  0  0
 19 20  1  0  0  0  0
 20 21  1  0  0  0  0
 21 16  1  0  0  0  0
M  END
>  <minimizedAffinity>
-4.25822783

$$$$

 OpenBabel03272507383D

 21 22  0  0  0  0  0  0  0  0999 V2000
   37.2020   21.6990   33.9500 C   0  0  0  0  0  0  0  0  0  0  0  0
   37.8160   21.4900   32.7190 C   0  0  0  0  0  0  0  0  0  0  0  0
   37.2830   20.5470   31.8630 C   0  0  0  0  0  0  0  0  0  0  0  0
   36.1710   19.8610   32.2730 N   0  0  0  0  0  0  0  0  0  0  0  0
   35.5930   20.0800   33.4690 C   0  0  0  0  0  0  0  0  0  0  0  0
   36.1160   20.9900   34.2800 N   0  0  0  0  0  0  0  0  0  0  0  0
   37.7080   20.3260   30.8820 H   0  0  0  0  0  0  0  0  0  0  0  0
   34.7130   19.5420   33.7990 H   0  0  0  0  0  0  0  0  0  0  0  0
   38.8100   23.2070   31.3210 C   0  0  0  0  0  0  0  0  0  0  0  0
   37.8450   23.7730   30.7160 O   0  0  0  0  0  0  0  0  0  0  0  0
   38.9460   22.1490   32.2390 N   0  0  0  0  0  0  0  0  0  0  0  0
   39.4560   23.9090   30.8040 H   0  0  0  0  0  0  0  0  0  0  0  0
   39.9640   22.0290   32.4200 H   0  0  0  0  0  0  0  0  0  0  0  0
   37.8510   22.6730   34.6920 O   0  0  0  0  0  0  0  0  0  0  0  0
   39.6970   23.1620   39.4320 H   0  0  0  0  0  0  0  0  0  0  0  0
   39.2330   22.7890   38.5640 N   0  0  0  0  0  0  0  0  0  0  0  0
   40.2300   22.5280   37.5480 C   0  0  0  0  0  2  0  0  0  0  0  0
   39.7290   22.8250   36.1600 C   0  0  0  0  0  2  0  0  0  0  0  0
   38.2670   22.4120   36.0140 C   0  0  0  0  0  3  0  0  0  0  0  0
   37.4280   23.1120   37.0320 C   0  0  0  0  0  2  0  0  0  0  0  0
   38.3060   23.7870   38.0740 C   0  0  0  0  0  2  0  0  0  0  0  0
  1  6  1  0  0  0  0
  1 14  1  0  0  0  0
  2  1  2  0  0  0  0
  3  4  2  0  0  0  0
  3  2  1  0  0  0  0
  4  5  1  0  0  0  0
  5  8  1  0  0  0  0
  5  6  2  0  0  0  0
  7  3  1  0  0  0  0
  9 11  1  0  0  0  0
 10  9  2  0  0  0  0
 11 13  1  0  0  0  0
 11  2  1  0  0  0  0
 12  9  1  0  0  0  0
 14 19  1  0  0  0  0
 16 15  1  0  0  0  0
 17 16  1  0  0  0  0
 18 17  1  0  0  0  0
 19 18  1  0  0  0  0
 19 20  1  0  0  0  0
 20 21  1  0  0  0  0
 21 16  1  0  0  0  0
M  END
>  <minimizedAffinity>
-4.24982738

$$$$

 OpenBabel03272507383D

 21 22  0  0  0  0  0  0  0  0999 V2000
   39.7870   23.5230   35.5410 C   0  0  0  0  0  0  0  0  0  0  0  0
   39.5340   22.8810   36.7490 C   0  0  0  0  0  0  0  0  0  0  0  0
   40.6010   22.4320   37.5000 C   0  0  0  0  0  0  0  0  0  0  0  0
   41.8640   22.6420   37.0140 N   0  0  0  0  0  0  0  0  0  0  0  0
   42.0870   23.2660   35.8410 C   0  0  0  0  0  0  0  0  0  0  0  0
   41.0500   23.6920   35.1320 N   0  0  0  0  0  0  0  0  0  0  0  0
   40.4830   21.9190   38.4580 H   0  0  0  0  0  0  0  0  0  0  0  0
   43.0820   23.4360   35.4520 H   0  0  0  0  0  0  0  0  0  0  0  0
   37.7260   23.5360   38.2310 C   0  0  0  0  0  0  0  0  0  0  0  0
   38.1010   24.6140   38.7910 O   0  0  0  0  0  0  0  0  0  0  0  0
   38.2790   22.6340   37.3040 N   0  0  0  0  0  0  0  0  0  0  0  0
   36.8060   23.6430   38.7960 H   0  0  0  0  0  0  0  0  0  0  0  0
   37.5900   21.8630   37.1770 H   0  0  0  0  0  0  0  0  0  0  0  0
   38.6180   23.9130   34.9080 O   0  0  0  0  0  0  0  0  0  0  0  0
   36.7350   28.3750   33.2770 H   0  0  0  0  0  0  0  0  0  0  0  0
   37.3870   27.6000   33.5660 N   0  0  0  0  0  0  0  0  0  0  0  0
   37.3370   26.5290   32.5940 C   0  0  0  0  0  2  0  0  0  0  0  0
   37.4780   25.1700   33.2280 C   0  0  0  0  0  2  0  0  0  0  0  0
   38.4900   25.2100   34.3700 C   0  0  0  0  0  3  0  0  0  0  0  0
   38.0810   26.2200   35.3890 C   0  0  0  0  0  2  0  0  0  0  0  0
   36.9590   27.0950   34.8530 C   0  0  0  0  0  2  0  0  0  0  0  0
  1  2  1  0  0  0  0
  2 11  1  0  0  0  0
  2  3  2  0  0  0  0
  3  7  1  0  0  0  0
  4  3  1  0  0  0  0
  5  4  2  0  0  0  0
  6  1  2  0  0  0  0
  6  5  1  0  0  0  0
  8  5  1  0  0  0  0
  9 10  2  0  0  0  0
  9 12  1  0  0  0  0
 11  9  1  0  0  0  0
 13 11  1  0  0  0  0
 14  1  1  0  0  0  0
 15 16  1  0  0  0  0
 16 21  1  0  0  0  0
 17 18  1  0  0  0  0
 17 16  1  0  0  0  0
 18 19  1  0  0  0  0
 19 14  1  0  0  0  0
 19 20  1  0  0  0  0
 21 20  1  0  0  0  0
M  END
>  <minimizedAffinity>
-4.23117304

$$$$

 OpenBabel03272507383D

 21 22  0  0  0  0  0  0  0  0999 V2000
   38.8750   24.4000   33.7160 C   0  0  0  0  0  0  0  0  0  0  0  0
   38.5800   25.7580   33.6690 C   0  0  0  0  0  0  0  0  0  0  0  0
   37.4830   26.1750   32.9430 C   0  0  0  0  0  0  0  0  0  0  0  0
   36.7370   25.2230   32.2990 N   0  0  0  0  0  0  0  0  0  0  0  0
   37.0410   23.9130   32.3590 C   0  0  0  0  0  0  0  0  0  0  0  0
   38.0980   23.5290   33.0620 N   0  0  0  0  0  0  0  0  0  0  0  0
   37.1870   27.2230   32.8570 H   0  0  0  0  0  0  0  0  0  0  0  0
   36.4550   23.1550   31.8540 H   0  0  0  0  0  0  0  0  0  0  0  0
   38.9950   27.1340   35.6250 C   0  0  0  0  0  0  0  0  0  0  0  0
   38.1490   26.7690   36.5010 O   0  0  0  0  0  0  0  0  0  0  0  0
   39.2920   26.7790   34.2970 N   0  0  0  0  0  0  0  0  0  0  0  0
   39.3660   27.8290   36.3720 H   0  0  0  0  0  0  0  0  0  0  0  0
   40.0670   27.3980   33.9790 H   0  0  0  0  0  0  0  0  0  0  0  0
   40.0000   24.1420   34.4830 O   0  0  0  0  0  0  0  0  0  0  0  0
   40.3430   21.6300   38.9200 H   0  0  0  0  0  0  0  0  0  0  0  0
   40.1460   21.8850   37.9180 N   0  0  0  0  0  0  0  0  0  0  0  0
   41.3900   21.9980   37.1870 C   0  0  0  0  0  2  0  0  0  0  0  0
   41.3490   23.0860   36.1470 C   0  0  0  0  0  2  0  0  0  0  0  0
   39.9820   23.1370   35.4720 C   0  0  0  0  0  3  0  0  0  0  0  0
   38.9100   23.3480   36.4890 C   0  0  0  0  0  2  0  0  0  0  0  0
   39.4630   23.1600   37.8930 C   0  0  0  0  0  2  0  0  0  0  0  0
  1 14  1  0  0  0  0
  2  1  1  0  0  0  0
  2 11  1  0  0  0  0
  3  2  2  0  0  0  0
  4  5  2  0  0  0  0
  4  3  1  0  0  0  0
  5  6  1  0  0  0  0
  6  1  2  0  0  0  0
  7  3  1  0  0  0  0
  8  5  1  0  0  0  0
  9 12  1  0  0  0  0
  9 10  2  0  0  0  0
 11  9  1  0  0  0  0
 13 11  1  0  0  0  0
 14 19  1  0  0  0  0
 16 15  1  0  0  0  0
 17 16  1  0  0  0  0
 18 17  1  0  0  0  0
 19 18  1  0  0  0  0
 19 20  1  0  0  0  0
 20 21  1  0  0  0  0
 21 16  1  0  0  0  0
M  END
>  <minimizedAffinity>
-4.13103247

$$$$

 OpenBabel03272507383D

 21 22  0  0  0  0  0  0  0  0999 V2000
   38.3620   23.8850   33.8000 C   0  0  0  0  0  0  0  0  0  0  0  0
   37.5780   23.4760   32.7260 C   0  0  0  0  0  0  0  0  0  0  0  0
   36.7460   24.3970   32.1230 C   0  0  0  0  0  0  0  0  0  0  0  0
   36.7330   25.6750   32.6160 N   0  0  0  0  0  0  0  0  0  0  0  0
   37.5000   26.0490   33.6570 C   0  0  0  0  0  0  0  0  0  0  0  0
   38.2960   25.1520   34.2260 N   0  0  0  0  0  0  0  0  0  0  0  0
   36.1000   24.1510   31.2760 H   0  0  0  0  0  0  0  0  0  0  0  0
   37.4960   27.0570   34.0510 H   0  0  0  0  0  0  0  0  0  0  0  0
   36.5570   21.2790   32.5850 C   0  0  0  0  0  0  0  0  0  0  0  0
   35.6090   21.2740   33.4330 O   0  0  0  0  0  0  0  0  0  0  0  0
   37.5400   22.1970   32.1740 N   0  0  0  0  0  0  0  0  0  0  0  0
   36.2520   20.2660   32.3410 H   0  0  0  0  0  0  0  0  0  0  0  0
   38.1270   21.7190   31.4590 H   0  0  0  0  0  0  0  0  0  0  0  0
   39.1410   22.8510   34.2950 O   0  0  0  0  0  0  0  0  0  0  0  0
   38.8180   22.9670   39.3940 H   0  0  0  0  0  0  0  0  0  0  0  0
   38.8370   22.6460   38.3910 N   0  0  0  0  0  0  0  0  0  0  0  0
   40.1810   22.7600   37.8660 C   0  0  0  0  0  2  0  0  0  0  0  0
   40.1990   23.1600   36.4140 C   0  0  0  0  0  2  0  0  0  0  0  0
   39.0640   22.4800   35.6530 C   0  0  0  0  0  3  0  0  0  0  0  0
   37.7490   22.8210   36.2710 C   0  0  0  0  0  2  0  0  0  0  0  0
   37.9520   23.4930   37.6200 C   0  0  0  0  0  2  0  0  0  0  0  0
  1  6  1  0  0  0  0
  1 14  1  0  0  0  0
  2  1  2  0  0  0  0
  3  4  2  0  0  0  0
  3  2  1  0  0  0  0
  4  5  1  0  0  0  0
  5  8  1  0  0  0  0
  5  6  2  0  0  0  0
  7  3  1  0  0  0  0
  9 10  2  0  0  0  0
 11  9  1  0  0  0  0
 11  2  1  0  0  0  0
 12  9  1  0  0  0  0
 13 11  1  0  0  0  0
 14 19  1  0  0  0  0
 16 15  1  0  0  0  0
 17 16  1  0  0  0  0
 18 17  1  0  0  0  0
 19 20  1  0  0  0  0
 19 18  1  0  0  0  0
 20 21  1  0  0  0  0
 21 16  1  0  0  0  0
M  END
>  <minimizedAffinity>
-4.1196723

$$$$

 OpenBabel03272507383D

 21 22  0  0  0  0  0  0  0  0999 V2000
   39.6210   24.7470   34.2860 C   0  0  0  0  0  0  0  0  0  0  0  0
   38.7020   25.6640   33.7870 C   0  0  0  0  0  0  0  0  0  0  0  0
   39.1180   26.9570   33.5440 C   0  0  0  0  0  0  0  0  0  0  0  0
   40.4240   27.2740   33.8100 N   0  0  0  0  0  0  0  0  0  0  0  0
   41.2980   26.3700   34.2930 C   0  0  0  0  0  0  0  0  0  0  0  0
   40.8810   25.1310   34.5200 N   0  0  0  0  0  0  0  0  0  0  0  0
   38.4560   27.7330   33.1540 H   0  0  0  0  0  0  0  0  0  0  0  0
   42.3310   26.6130   34.5030 H   0  0  0  0  0  0  0  0  0  0  0  0
   36.9710   25.1090   32.1780 C   0  0  0  0  0  0  0  0  0  0  0  0
   37.5520   25.0200   31.0510 O   0  0  0  0  0  0  0  0  0  0  0  0
   37.3620   25.4120   33.4960 N   0  0  0  0  0  0  0  0  0  0  0  0
   36.0590   24.8480   31.6520 H   0  0  0  0  0  0  0  0  0  0  0  0
   36.5020   25.3940   34.0830 H   0  0  0  0  0  0  0  0  0  0  0  0
   39.0530   23.4970   34.4760 O   0  0  0  0  0  0  0  0  0  0  0  0
   39.2090   22.7950   39.5360 H   0  0  0  0  0  0  0  0  0  0  0  0
   39.0470   22.6640   38.5040 N   0  0  0  0  0  0  0  0  0  0  0  0
   40.3140   22.4840   37.8260 C   0  0  0  0  0  2  0  0  0  0  0  0
   40.3290   23.1130   36.4580 C   0  0  0  0  0  2  0  0  0  0  0  0
   38.9820   22.9280   35.7640 C   0  0  0  0  0  3  0  0  0  0  0  0
   37.8880   23.5120   36.5940 C   0  0  0  0  0  2  0  0  0  0  0  0
   38.3960   23.8490   37.9870 C   0  0  0  0  0  2  0  0  0  0  0  0
  1 14  1  0  0  0  0
  1  6  1  0  0  0  0
  2  1  2  0  0  0  0
  3  2  1  0  0  0  0
  3  4  2  0  0  0  0
  4  5  1  0  0  0  0
  5  8  1  0  0  0  0
  5  6  2  0  0  0  0
  7  3  1  0  0  0  0
  9 11  1  0  0  0  0
 10  9  2  0  0  0  0
 11  2  1  0  0  0  0
 11 13  1  0  0  0  0
 12  9  1  0  0  0  0
 14 19  1  0  0  0  0
 16 15  1  0  0  0  0
 17 16  1  0  0  0  0
 18 17  1  0  0  0  0
 19 18  1  0  0  0  0
 19 20  1  0  0  0  0
 20 21  1  0  0  0  0
 21 16  1  0  0  0  0
M  END
>  <minimizedAffinity>
-4.08093357

$$$$
