
 OpenBabel03272507593D

 37 40  0  0  0  0  0  0  0  0999 V2000
   36.8870   31.2770   48.5910 C   0  0  0  0  0  0  0  0  0  0  0  0
   37.0830   32.1440   49.6560 C   0  0  0  0  0  0  0  0  0  0  0  0
   38.0000   33.1920   49.5070 C   0  0  0  0  0  0  0  0  0  0  0  0
   38.6920   33.3530   48.3170 C   0  0  0  0  0  0  0  0  0  0  0  0
   38.4660   32.4650   47.2770 C   0  0  0  0  0  0  0  0  0  0  0  0
   37.5860   31.4810   47.4580 N   0  0  0  0  0  0  0  0  0  0  0  0
   36.6630   32.2300   50.6490 H   0  0  0  0  0  0  0  0  0  0  0  0
   38.2680   33.9380   50.2200 H   0  0  0  0  0  0  0  0  0  0  0  0
   39.4150   34.1310   48.1160 H   0  0  0  0  0  0  0  0  0  0  0  0
   35.2050   28.3330   50.2010 C   0  0  0  0  0  0  0  0  0  0  0  0
   36.1750   29.3340   49.9250 C   0  0  0  0  0  0  0  0  0  0  0  0
   35.9210   30.2540   48.8950 C   0  0  0  0  0  0  0  0  0  0  0  0
   34.7480   30.1240   48.2210 N   0  0  0  0  0  0  0  0  0  0  0  0
   33.8440   29.1480   48.5190 C   0  0  0  0  0  0  0  0  0  0  0  0
   34.0690   28.2680   49.4910 N   0  0  0  0  0  0  0  0  0  0  0  0
   32.7000   29.2240   47.6690 N   0  0  0  0  0  0  0  0  0  0  0  0
   35.4070   27.6240   50.9990 H   0  0  0  0  0  0  0  0  0  0  0  0
   32.7480   29.4290   46.6600 H   0  0  0  0  0  0  0  0  0  0  0  0
   31.7370   29.0660   48.0700 H   0  0  0  0  0  0  0  0  0  0  0  0
   37.4120   29.3610   50.7350 C   0  0  0  0  0  0  0  0  0  0  0  0
   38.5050   29.8060   49.9820 F   0  0  0  0  0  0  0  0  0  0  0  0
   37.2620   30.1980   51.7820 F   0  0  0  0  0  0  0  0  0  0  0  0
   37.7660   28.1080   51.2280 F   0  0  0  0  0  0  0  0  0  0  0  0
   39.1480   32.5750   45.9970 C   0  0  0  0  0  0  0  0  0  0  0  0
   40.5060   32.6720   45.8050 C   0  0  0  0  0  0  0  0  0  0  0  0
   40.7860   32.7590   44.4520 C   0  0  0  0  0  0  0  0  0  0  0  0
   39.5650   32.7110   43.8600 N   0  0  0  0  0  0  0  0  0  0  0  0
   38.6110   32.6030   44.7750 N   0  0  0  0  0  0  0  0  0  0  0  0
   41.2680   32.6810   46.5850 H   0  0  0  0  0  0  0  0  0  0  0  0
   41.7350   32.8430   43.9810 H   0  0  0  0  0  0  0  0  0  0  0  0
   37.8770   29.8170   40.5660 H   0  0  0  0  0  0  0  0  0  0  0  0
   37.8330   30.4510   41.4050 N   0  0  0  0  0  0  0  0  0  0  0  0
   39.0990   30.3400   42.0780 C   0  0  0  0  0  2  0  0  0  0  0  0
   39.9590   31.5400   41.7430 C   0  0  0  0  0  2  0  0  0  0  0  0
   39.3760   32.7720   42.4180 C   0  0  0  0  0  3  0  0  0  0  0  0
   37.9150   32.8080   42.0450 C   0  0  0  0  0  2  0  0  0  0  0  0
   37.5800   31.8160   40.9610 C   0  0  0  0  0  2  0  0  0  0  0  0
  1 12  1  0  0  0  0
  1  2  1  0  0  0  0
  2  7  1  0  0  0  0
  3  2  2  0  0  0  0
  3  8  1  0  0  0  0
  4  3  1  0  0  0  0
  5  6  1  0  0  0  0
  5  4  2  0  0  0  0
  6  1  2  0  0  0  0
  9  4  1  0  0  0  0
 10 17  1  0  0  0  0
 11 10  1  0  0  0  0
 11 20  1  0  0  0  0
 12 11  2  0  0  0  0
 13 14  2  0  0  0  0
 13 12  1  0  0  0  0
 14 15  1  0  0  0  0
 15 10  2  0  0  0  0
 16 19  1  0  0  0  0
 16 14  1  0  0  0  0
 18 16  1  0  0  0  0
 20 23  1  0  0  0  0
 20 22  1  0  0  0  0
 21 20  1  0  0  0  0
 24  5  1  0  0  0  0
 25 24  1  0  0  0  0
 25 29  1  0  0  0  0
 26 25  2  0  0  0  0
 27 26  1  0  0  0  0
 27 28  1  0  0  0  0
 28 24  2  0  0  0  0
 30 26  1  0  0  0  0
 31 32  1  0  0  0  0
 32 33  1  0  0  0  0
 34 33  1  0  0  0  0
 34 35  1  0  0  0  0
 35 27  1  0  0  0  0
 36 35  1  0  0  0  0
 37 32  1  0  0  0  0
 37 36  1  0  0  0  0
M  END
>  <minimizedAffinity>
-7.36029005

>  <minimizedRMSD>
1.92211056

$$$$
