
 OpenBabel03272510123D

 33 36  0  0  0  0  0  0  0  0999 V2000
   33.7560   28.5220   48.7910 C   0  0  0  0  0  0  0  0  0  0  0  0
   33.9860   28.8120   50.1100 C   0  0  0  0  0  0  0  0  0  0  0  0
   35.0860   29.4980   50.5780 C   0  0  0  0  0  0  0  0  0  0  0  0
   36.0360   29.9360   49.7060 C   0  0  0  0  0  0  0  0  0  0  0  0
   35.8070   29.6420   48.3560 C   0  0  0  0  0  0  0  0  0  0  0  0
   34.7160   28.9680   47.9430 N   0  0  0  0  0  0  0  0  0  0  0  0
   33.2800   28.5000   50.8660 H   0  0  0  0  0  0  0  0  0  0  0  0
   35.2630   29.7250   51.6200 H   0  0  0  0  0  0  0  0  0  0  0  0
   36.4730   29.9250   47.5520 H   0  0  0  0  0  0  0  0  0  0  0  0
   31.4180   27.6790   49.0250 C   0  0  0  0  0  0  0  0  0  0  0  0
   32.6170   27.8020   48.3110 C   0  0  0  0  0  0  0  0  0  0  0  0
   32.6770   27.1790   47.0950 C   0  0  0  0  0  0  0  0  0  0  0  0
   31.5910   26.4760   46.6320 N   0  0  0  0  0  0  0  0  0  0  0  0
   30.4520   26.3930   47.3740 C   0  0  0  0  0  0  0  0  0  0  0  0
   30.3580   26.9900   48.5690 N   0  0  0  0  0  0  0  0  0  0  0  0
   31.3240   28.1460   49.9730 H   0  0  0  0  0  0  0  0  0  0  0  0
   33.5670   27.2180   46.4640 H   0  0  0  0  0  0  0  0  0  0  0  0
   29.6940   25.8020   46.8650 H   0  0  0  0  0  0  0  0  0  0  0  0
   37.2020   30.6360   49.9990 O   0  0  0  0  0  0  0  0  0  0  0  0
   37.9060   31.3340   49.0180 C   0  0  0  0  0  0  0  0  0  0  0  0
   38.2890   32.6080   49.4220 C   0  0  0  0  0  0  0  0  0  0  0  0
   38.9750   33.1800   48.3540 C   0  0  0  0  0  0  0  0  0  0  0  0
   38.9870   32.2720   47.3710 N   0  0  0  0  0  0  0  0  0  0  0  0
   38.3590   31.1950   47.7660 N   0  0  0  0  0  0  0  0  0  0  0  0
   38.1830   33.2210   50.3260 H   0  0  0  0  0  0  0  0  0  0  0  0
   39.4370   34.1620   48.2590 H   0  0  0  0  0  0  0  0  0  0  0  0
   39.4640   30.1110   43.2050 H   0  0  0  0  0  0  0  0  0  0  0  0
   39.6610   31.1230   43.4500 N   0  0  0  0  0  0  0  0  0  0  0  0
   40.7740   31.2020   44.3380 C   0  0  0  0  0  2  0  0  0  0  0  0
   40.4120   31.1920   45.7860 C   0  0  0  0  0  2  0  0  0  0  0  0
   39.5910   32.4370   46.0710 C   0  0  0  0  0  3  0  0  0  0  0  0
   38.6030   32.7420   44.9860 C   0  0  0  0  0  2  0  0  0  0  0  0
   38.4390   31.6560   43.9680 C   0  0  0  0  0  2  0  0  0  0  0  0
  1  2  1  0  0  0  0
  2  3  2  0  0  0  0
  2  7  1  0  0  0  0
  3  8  1  0  0  0  0
  4 19  1  0  0  0  0
  4  3  1  0  0  0  0
  5  4  2  0  0  0  0
  6  5  1  0  0  0  0
  6  1  2  0  0  0  0
  9  5  1  0  0  0  0
 10 16  1  0  0  0  0
 11  1  1  0  0  0  0
 11 10  2  0  0  0  0
 12 11  1  0  0  0  0
 13 12  2  0  0  0  0
 13 14  1  0  0  0  0
 14 15  2  0  0  0  0
 15 10  1  0  0  0  0
 17 12  1  0  0  0  0
 18 14  1  0  0  0  0
 20 21  1  0  0  0  0
 20 19  1  0  0  0  0
 21 25  1  0  0  0  0
 22 21  2  0  0  0  0
 23 24  1  0  0  0  0
 23 22  1  0  0  0  0
 24 20  2  0  0  0  0
 26 22  1  0  0  0  0
 27 28  1  0  0  0  0
 28 33  1  0  0  0  0
 28 29  1  0  0  0  0
 29 30  1  0  0  0  0
 30 31  1  0  0  0  0
 31 23  1  0  0  0  0
 32 31  1  0  0  0  0
 33 32  1  0  0  0  0
M  END
>  <minimizedAffinity>
-6.14562941

>  <minimizedRMSD>
1.9614321

$$$$
