
 OpenBabel03272510123D

 33 36  0  0  0  0  0  0  0  0999 V2000
   29.8590   27.7630   46.9910 C   0  0  0  0  0  0  0  0  0  0  0  0
   30.0220   27.7600   48.3500 C   0  0  0  0  0  0  0  0  0  0  0  0
   31.2360   27.6360   48.9910 C   0  0  0  0  0  0  0  0  0  0  0  0
   32.3790   27.5050   48.2630 C   0  0  0  0  0  0  0  0  0  0  0  0
   32.2190   27.5070   46.8710 C   0  0  0  0  0  0  0  0  0  0  0  0
   31.0110   27.6310   46.2870 N   0  0  0  0  0  0  0  0  0  0  0  0
   29.1640   27.8590   49.0010 H   0  0  0  0  0  0  0  0  0  0  0  0
   31.3600   27.6350   50.0650 H   0  0  0  0  0  0  0  0  0  0  0  0
   33.0350   27.4120   46.1670 H   0  0  0  0  0  0  0  0  0  0  0  0
   27.4320   28.3470   46.9570 C   0  0  0  0  0  0  0  0  0  0  0  0
   28.5960   27.8830   46.3300 C   0  0  0  0  0  0  0  0  0  0  0  0
   28.4850   27.5200   45.0160 C   0  0  0  0  0  0  0  0  0  0  0  0
   27.2720   27.6210   44.3780 N   0  0  0  0  0  0  0  0  0  0  0  0
   26.1760   28.0800   45.0430 C   0  0  0  0  0  0  0  0  0  0  0  0
   26.2470   28.4430   46.3300 N   0  0  0  0  0  0  0  0  0  0  0  0
   27.4690   28.6400   47.9760 H   0  0  0  0  0  0  0  0  0  0  0  0
   29.3350   27.1480   44.4410 H   0  0  0  0  0  0  0  0  0  0  0  0
   25.3020   28.0970   44.3960 H   0  0  0  0  0  0  0  0  0  0  0  0
   33.6800   27.3690   48.7360 O   0  0  0  0  0  0  0  0  0  0  0  0
   34.5680   28.4440   48.7650 C   0  0  0  0  0  0  0  0  0  0  0  0
   34.9780   28.7810   50.0500 C   0  0  0  0  0  0  0  0  0  0  0  0
   35.8520   29.8580   49.9250 C   0  0  0  0  0  0  0  0  0  0  0  0
   35.9430   30.1320   48.6180 N   0  0  0  0  0  0  0  0  0  0  0  0
   35.1890   29.3010   47.9450 N   0  0  0  0  0  0  0  0  0  0  0  0
   34.7840   28.4170   51.0670 H   0  0  0  0  0  0  0  0  0  0  0  0
   36.3930   30.4180   50.6870 H   0  0  0  0  0  0  0  0  0  0  0  0
   40.3760   31.1570   47.3750 H   0  0  0  0  0  0  0  0  0  0  0  0
   39.4820   31.6490   47.0930 N   0  0  0  0  0  0  0  0  0  0  0  0
   38.8980   32.2900   48.2250 C   0  0  0  0  0  2  0  0  0  0  0  0
   37.9020   31.4560   48.9620 C   0  0  0  0  0  2  0  0  0  0  0  0
   36.7410   31.1770   48.0240 C   0  0  0  0  0  3  0  0  0  0  0  0
   37.1850   30.8710   46.6270 C   0  0  0  0  0  2  0  0  0  0  0  0
   38.6590   30.6580   46.4720 C   0  0  0  0  0  2  0  0  0  0  0  0
  1  2  1  0  0  0  0
  2  3  2  0  0  0  0
  2  7  1  0  0  0  0
  3  8  1  0  0  0  0
  4 19  1  0  0  0  0
  4  3  1  0  0  0  0
  5  4  2  0  0  0  0
  6  5  1  0  0  0  0
  6  1  2  0  0  0  0
  9  5  1  0  0  0  0
 10 16  1  0  0  0  0
 11 10  1  0  0  0  0
 11  1  1  0  0  0  0
 12 11  2  0  0  0  0
 13 12  1  0  0  0  0
 13 14  2  0  0  0  0
 14 15  1  0  0  0  0
 15 10  2  0  0  0  0
 17 12  1  0  0  0  0
 18 14  1  0  0  0  0
 19 20  1  0  0  0  0
 20 21  1  0  0  0  0
 21 25  1  0  0  0  0
 22 21  2  0  0  0  0
 22 26  1  0  0  0  0
 23 22  1  0  0  0  0
 24 23  1  0  0  0  0
 24 20  2  0  0  0  0
 28 27  1  0  0  0  0
 28 29  1  0  0  0  0
 29 30  1  0  0  0  0
 31 23  1  0  0  0  0
 31 30  1  0  0  0  0
 32 31  1  0  0  0  0
 33 32  1  0  0  0  0
 33 28  1  0  0  0  0
M  END
>  <minimizedAffinity>
-5.5125351

>  <minimizedRMSD>
4.49705648

$$$$
