
 OpenBabel03272502593D

 32 34  0  0  1  0  0  0  0  0999 V2000
   36.7950   30.1750   48.5630 N   0  0  0  0  0  0  0  0  0  0  0  0
   37.6860   29.7790   49.6310 C   0  0  0  0  0  0  0  0  0  0  0  0
   38.3050   30.8350   50.4360 C   0  0  0  0  0  0  0  0  0  0  0  0
   38.4630   32.1690   49.8400 C   0  0  0  0  0  0  0  0  0  0  0  0
   37.5430   32.4560   48.6940 C   0  0  0  0  0  0  0  0  0  0  0  0
   37.4380   31.2190   47.8000 C   0  0  1  0  0  0  0  0  0  0  0  0
   38.4660   29.1250   49.1640 H   0  0  0  0  0  0  0  0  0  0  0  0
   37.0970   29.0870   50.2690 H   0  0  0  0  0  0  0  0  0  0  0  0
   39.3020   30.4700   50.7700 H   0  0  0  0  0  0  0  0  0  0  0  0
   37.7280   30.9340   51.4020 H   0  0  0  0  0  0  0  0  0  0  0  0
   39.5050   32.3870   49.5020 H   0  0  0  0  0  0  0  0  0  0  0  0
   38.2620   32.9720   50.5990 H   0  0  0  0  0  0  0  0  0  0  0  0
   37.9150   33.3030   48.0870 H   0  0  0  0  0  0  0  0  0  0  0  0
   36.5080   32.6530   49.0690 H   0  0  0  0  0  0  0  0  0  0  0  0
   36.9070   31.4820   46.8760 H   0  0  0  0  0  0  0  0  0  0  0  0
   35.4950   29.6130   48.3160 C   0  0  0  0  0  0  0  0  0  0  0  0
   34.6670   30.0060   47.2690 C   0  0  0  0  0  0  0  0  0  0  0  0
   33.4270   29.3680   47.1570 C   0  0  0  0  0  0  0  0  0  0  0  0
   33.1060   28.4160   48.0640 N   0  0  0  0  0  0  0  0  0  0  0  0
   33.9460   28.0670   49.0700 C   0  0  0  0  0  0  0  0  0  0  0  0
   35.1430   28.6750   49.1870 N   0  0  0  0  0  0  0  0  0  0  0  0
   35.0150   30.7640   46.6110 H   0  0  0  0  0  0  0  0  0  0  0  0
   32.7810   29.6690   46.3450 H   0  0  0  0  0  0  0  0  0  0  0  0
   33.6400   27.2990   49.7680 H   0  0  0  0  0  0  0  0  0  0  0  0
   38.7620   30.8740   47.4900 O   0  0  0  0  0  0  0  0  0  0  0  0
   38.7510   34.2510   45.4430 H   0  0  0  0  0  0  0  0  0  0  0  0
   39.1340   33.3990   45.0010 N   0  0  0  0  0  0  0  0  0  0  0  0
   38.1870   32.4850   44.4530 C   0  0  0  0  0  2  0  0  0  0  0  0
   37.7800   31.3660   45.3650 C   0  0  0  0  0  2  0  0  0  0  0  0
   38.9280   30.7810   46.1180 C   0  0  0  0  0  3  0  0  0  0  0  0
   40.2720   31.3620   45.7700 C   0  0  0  0  0  2  0  0  0  0  0  0
   40.2990   32.8360   45.5880 C   0  0  0  0  0  2  0  0  0  0  0  0
  1  2  1  0  0  0  0
  2  8  1  0  0  0  0
  2  3  1  0  0  0  0
  3  9  1  0  0  0  0
  3 10  1  0  0  0  0
  4  3  1  0  0  0  0
  4 12  1  0  0  0  0
  5 14  1  0  0  0  0
  5  4  1  0  0  0  0
  6 15  1  6  0  0  0
  6  1  1  0  0  0  0
  6  5  1  0  0  0  0
  7  2  1  0  0  0  0
 11  4  1  0  0  0  0
 13  5  1  0  0  0  0
 16  1  1  0  0  0  0
 16 21  1  0  0  0  0
 17 16  2  0  0  0  0
 18 17  1  0  0  0  0
 18 19  2  0  0  0  0
 19 20  1  0  0  0  0
 20 21  2  0  0  0  0
 20 24  1  0  0  0  0
 22 17  1  0  0  0  0
 23 18  1  0  0  0  0
 25  6  1  0  0  0  0
 27 26  1  0  0  0  0
 27 32  1  0  0  0  0
 28 27  1  0  0  0  0
 28 29  1  0  0  0  0
 29 30  1  0  0  0  0
 30 25  1  0  0  0  0
 31 30  1  0  0  0  0
 32 31  1  0  0  0  0
M  END
>  <minimizedAffinity>
-5.8668251

>  <minimizedRMSD>
1.60483479

$$$$
