
 OpenBabel03272502593D

 32 34  0  0  1  0  0  0  0  0999 V2000
   36.8990   30.3410   48.5360 N   0  0  0  0  0  0  0  0  0  0  0  0
   37.8660   29.9500   49.5360 C   0  0  0  0  0  0  0  0  0  0  0  0
   38.4570   31.0020   50.3690 C   0  0  0  0  0  0  0  0  0  0  0  0
   38.4990   32.3730   49.8400 C   0  0  0  0  0  0  0  0  0  0  0  0
   37.5050   32.6570   48.7570 C   0  0  0  0  0  0  0  0  0  0  0  0
   37.4330   31.4640   47.8020 C   0  0  1  0  0  0  0  0  0  0  0  0
   38.6620   29.3750   48.9970 H   0  0  0  0  0  0  0  0  0  0  0  0
   37.3560   29.1890   50.1630 H   0  0  0  0  0  0  0  0  0  0  0  0
   39.4910   30.6880   50.6340 H   0  0  0  0  0  0  0  0  0  0  0  0
   37.9250   31.0120   51.3650 H   0  0  0  0  0  0  0  0  0  0  0  0
   39.5060   32.6770   49.4650 H   0  0  0  0  0  0  0  0  0  0  0  0
   38.2860   33.1200   50.6510 H   0  0  0  0  0  0  0  0  0  0  0  0
   37.7900   33.5570   48.1810 H   0  0  0  0  0  0  0  0  0  0  0  0
   36.4790   32.7650   49.1910 H   0  0  0  0  0  0  0  0  0  0  0  0
   36.8400   31.7380   46.9210 H   0  0  0  0  0  0  0  0  0  0  0  0
   35.6270   29.7080   48.3210 C   0  0  0  0  0  0  0  0  0  0  0  0
   34.7520   30.0520   47.2940 C   0  0  0  0  0  0  0  0  0  0  0  0
   33.5470   29.3460   47.2130 C   0  0  0  0  0  0  0  0  0  0  0  0
   33.3030   28.3790   48.1270 N   0  0  0  0  0  0  0  0  0  0  0  0
   34.1850   28.0780   49.1110 C   0  0  0  0  0  0  0  0  0  0  0  0
   35.3490   28.7520   49.2000 N   0  0  0  0  0  0  0  0  0  0  0  0
   35.0410   30.8280   46.6280 H   0  0  0  0  0  0  0  0  0  0  0  0
   32.8660   29.6100   46.4170 H   0  0  0  0  0  0  0  0  0  0  0  0
   33.9390   27.2950   49.8170 H   0  0  0  0  0  0  0  0  0  0  0  0
   38.7590   31.2250   47.4100 O   0  0  0  0  0  0  0  0  0  0  0  0
   40.2010   29.0100   44.4770 H   0  0  0  0  0  0  0  0  0  0  0  0
   39.8010   29.9370   44.2540 N   0  0  0  0  0  0  0  0  0  0  0  0
   40.6410   31.0660   44.4810 C   0  0  0  0  0  2  0  0  0  0  0  0
   40.4630   31.7330   45.8130 C   0  0  0  0  0  2  0  0  0  0  0  0
   39.0310   31.8630   46.2120 C   0  0  0  0  0  3  0  0  0  0  0  0
   38.0430   31.3770   45.1870 C   0  0  0  0  0  2  0  0  0  0  0  0
   38.4120   30.1130   44.4980 C   0  0  0  0  0  2  0  0  0  0  0  0
  1  2  1  0  0  0  0
  2  8  1  0  0  0  0
  2  3  1  0  0  0  0
  3  9  1  0  0  0  0
  3 10  1  0  0  0  0
  4  3  1  0  0  0  0
  4 12  1  0  0  0  0
  5 14  1  0  0  0  0
  5  4  1  0  0  0  0
  6 15  1  6  0  0  0
  6  1  1  0  0  0  0
  6  5  1  0  0  0  0
  7  2  1  0  0  0  0
 11  4  1  0  0  0  0
 13  5  1  0  0  0  0
 16  1  1  0  0  0  0
 16 21  1  0  0  0  0
 17 16  2  0  0  0  0
 18 17  1  0  0  0  0
 18 19  2  0  0  0  0
 19 20  1  0  0  0  0
 20 21  2  0  0  0  0
 20 24  1  0  0  0  0
 22 17  1  0  0  0  0
 23 18  1  0  0  0  0
 25  6  1  0  0  0  0
 27 26  1  0  0  0  0
 27 28  1  0  0  0  0
 27 32  1  0  0  0  0
 28 29  1  0  0  0  0
 29 30  1  0  0  0  0
 30 25  1  0  0  0  0
 31 30  1  0  0  0  0
 32 31  1  0  0  0  0
M  END
>  <minimizedAffinity>
-5.40564871

>  <minimizedRMSD>
1.96613657

$$$$
