
 OpenBabel03272502593D

 32 34  0  0  1  0  0  0  0  0999 V2000
   36.2360   29.8240   48.6260 N   0  0  0  0  0  0  0  0  0  0  0  0
   37.1120   29.1290   49.5410 C   0  0  0  0  0  0  0  0  0  0  0  0
   37.7420   29.9050   50.6140 C   0  0  0  0  0  0  0  0  0  0  0  0
   37.9260   31.3500   50.4170 C   0  0  0  0  0  0  0  0  0  0  0  0
   37.0200   31.9630   49.3940 C   0  0  0  0  0  0  0  0  0  0  0  0
   36.9010   31.0290   48.1890 C   0  0  1  0  0  0  0  0  0  0  0  0
   37.8850   28.6190   48.9120 H   0  0  0  0  0  0  0  0  0  0  0  0
   36.5070   28.2960   49.9580 H   0  0  0  0  0  0  0  0  0  0  0  0
   38.7300   29.4430   50.8340 H   0  0  0  0  0  0  0  0  0  0  0  0
   37.1590   29.7390   51.5670 H   0  0  0  0  0  0  0  0  0  0  0  0
   38.9740   31.6360   50.1570 H   0  0  0  0  0  0  0  0  0  0  0  0
   37.7310   31.9100   51.3710 H   0  0  0  0  0  0  0  0  0  0  0  0
   37.4100   32.9400   49.0520 H   0  0  0  0  0  0  0  0  0  0  0  0
   35.9850   32.0650   49.8070 H   0  0  0  0  0  0  0  0  0  0  0  0
   36.3820   31.5500   47.3740 H   0  0  0  0  0  0  0  0  0  0  0  0
   34.9300   29.3780   48.2270 C   0  0  0  0  0  0  0  0  0  0  0  0
   34.2740   29.8210   47.0810 C   0  0  0  0  0  0  0  0  0  0  0  0
   33.0030   29.2950   46.8250 C   0  0  0  0  0  0  0  0  0  0  0  0
   32.4880   28.3970   47.6960 N   0  0  0  0  0  0  0  0  0  0  0  0
   33.1630   27.9950   48.8010 C   0  0  0  0  0  0  0  0  0  0  0  0
   34.3890   28.4940   49.0580 N   0  0  0  0  0  0  0  0  0  0  0  0
   34.7690   30.5290   46.4630 H   0  0  0  0  0  0  0  0  0  0  0  0
   32.4910   29.6360   45.9370 H   0  0  0  0  0  0  0  0  0  0  0  0
   32.7050   27.2740   49.4650 H   0  0  0  0  0  0  0  0  0  0  0  0
   38.2220   30.7620   47.7980 O   0  0  0  0  0  0  0  0  0  0  0  0
   39.2800   28.9640   44.4470 H   0  0  0  0  0  0  0  0  0  0  0  0
   39.0300   29.9670   44.4190 N   0  0  0  0  0  0  0  0  0  0  0  0
   40.0390   30.8870   44.8270 C   0  0  0  0  0  2  0  0  0  0  0  0
   39.9760   31.3030   46.2660 C   0  0  0  0  0  2  0  0  0  0  0  0
   38.5840   31.5720   46.7340 C   0  0  0  0  0  3  0  0  0  0  0  0
   37.5260   31.4520   45.6720 C   0  0  0  0  0  2  0  0  0  0  0  0
   37.6880   30.3040   44.7430 C   0  0  0  0  0  2  0  0  0  0  0  0
  1  2  1  0  0  0  0
  2  8  1  0  0  0  0
  2  3  1  0  0  0  0
  3  9  1  0  0  0  0
  3 10  1  0  0  0  0
  4  3  1  0  0  0  0
  4 12  1  0  0  0  0
  5 14  1  0  0  0  0
  5  4  1  0  0  0  0
  6 15  1  6  0  0  0
  6  1  1  0  0  0  0
  6  5  1  0  0  0  0
  7  2  1  0  0  0  0
 11  4  1  0  0  0  0
 13  5  1  0  0  0  0
 16  1  1  0  0  0  0
 16 21  1  0  0  0  0
 17 16  2  0  0  0  0
 18 17  1  0  0  0  0
 18 19  2  0  0  0  0
 19 20  1  0  0  0  0
 20 21  2  0  0  0  0
 20 24  1  0  0  0  0
 22 17  1  0  0  0  0
 23 18  1  0  0  0  0
 25  6  1  0  0  0  0
 27 26  1  0  0  0  0
 27 32  1  0  0  0  0
 27 28  1  0  0  0  0
 28 29  1  0  0  0  0
 29 30  1  0  0  0  0
 30 25  1  0  0  0  0
 31 30  1  0  0  0  0
 32 31  1  0  0  0  0
M  END
>  <minimizedAffinity>
-5.17038918

>  <minimizedRMSD>
0.951753974

$$$$
