
 OpenBabel03272502593D

 32 34  0  0  1  0  0  0  0  0999 V2000
   36.7960   30.1750   48.5590 N   0  0  0  0  0  0  0  0  0  0  0  0
   37.6860   29.7820   49.6280 C   0  0  0  0  0  0  0  0  0  0  0  0
   38.3060   30.8410   50.4310 C   0  0  0  0  0  0  0  0  0  0  0  0
   38.4660   32.1730   49.8300 C   0  0  0  0  0  0  0  0  0  0  0  0
   37.5460   32.4550   48.6820 C   0  0  0  0  0  0  0  0  0  0  0  0
   37.4390   31.2150   47.7920 C   0  0  1  0  0  0  0  0  0  0  0  0
   38.4660   29.1260   49.1640 H   0  0  0  0  0  0  0  0  0  0  0  0
   37.0960   29.0930   50.2690 H   0  0  0  0  0  0  0  0  0  0  0  0
   39.3020   30.4760   50.7660 H   0  0  0  0  0  0  0  0  0  0  0  0
   37.7290   30.9440   51.3960 H   0  0  0  0  0  0  0  0  0  0  0  0
   39.5080   32.3880   49.4910 H   0  0  0  0  0  0  0  0  0  0  0  0
   38.2650   32.9780   50.5860 H   0  0  0  0  0  0  0  0  0  0  0  0
   37.9180   33.3000   48.0720 H   0  0  0  0  0  0  0  0  0  0  0  0
   36.5100   32.6550   49.0560 H   0  0  0  0  0  0  0  0  0  0  0  0
   36.9090   31.4750   46.8680 H   0  0  0  0  0  0  0  0  0  0  0  0
   35.4960   29.6130   48.3150 C   0  0  0  0  0  0  0  0  0  0  0  0
   34.6650   30.0070   47.2690 C   0  0  0  0  0  0  0  0  0  0  0  0
   33.4250   29.3690   47.1590 C   0  0  0  0  0  0  0  0  0  0  0  0
   33.1060   28.4170   48.0650 N   0  0  0  0  0  0  0  0  0  0  0  0
   33.9480   28.0660   49.0690 C   0  0  0  0  0  0  0  0  0  0  0  0
   35.1450   28.6740   49.1850 N   0  0  0  0  0  0  0  0  0  0  0  0
   35.0130   30.7650   46.6110 H   0  0  0  0  0  0  0  0  0  0  0  0
   32.7780   29.6700   46.3480 H   0  0  0  0  0  0  0  0  0  0  0  0
   33.6430   27.2980   49.7680 H   0  0  0  0  0  0  0  0  0  0  0  0
   38.7630   30.8680   47.4840 O   0  0  0  0  0  0  0  0  0  0  0  0
   38.7490   34.2490   45.4440 H   0  0  0  0  0  0  0  0  0  0  0  0
   39.1330   33.3990   45.0000 N   0  0  0  0  0  0  0  0  0  0  0  0
   38.1900   32.4840   44.4480 C   0  0  0  0  0  2  0  0  0  0  0  0
   37.7830   31.3620   45.3590 C   0  0  0  0  0  2  0  0  0  0  0  0
   38.9320   30.7790   46.1120 C   0  0  0  0  0  3  0  0  0  0  0  0
   40.2760   31.3630   45.7680 C   0  0  0  0  0  2  0  0  0  0  0  0
   40.3000   32.8380   45.5880 C   0  0  0  0  0  2  0  0  0  0  0  0
  1  2  1  0  0  0  0
  2  8  1  0  0  0  0
  2  3  1  0  0  0  0
  3  9  1  0  0  0  0
  3 10  1  0  0  0  0
  4  3  1  0  0  0  0
  4 12  1  0  0  0  0
  5 14  1  0  0  0  0
  5  4  1  0  0  0  0
  6 15  1  6  0  0  0
  6  1  1  0  0  0  0
  6  5  1  0  0  0  0
  7  2  1  0  0  0  0
 11  4  1  0  0  0  0
 13  5  1  0  0  0  0
 16  1  1  0  0  0  0
 16 21  1  0  0  0  0
 17 16  2  0  0  0  0
 18 17  1  0  0  0  0
 18 19  2  0  0  0  0
 19 20  1  0  0  0  0
 20 21  2  0  0  0  0
 20 24  1  0  0  0  0
 22 17  1  0  0  0  0
 23 18  1  0  0  0  0
 25  6  1  0  0  0  0
 27 26  1  0  0  0  0
 27 32  1  0  0  0  0
 28 27  1  0  0  0  0
 28 29  1  0  0  0  0
 29 30  1  0  0  0  0
 30 25  1  0  0  0  0
 31 30  1  0  0  0  0
 32 31  1  0  0  0  0
M  END
>  <minimizedAffinity>
-5.87175274

>  <minimizedRMSD>
1.47763312

$$$$
