
 OpenBabel03272502593D

 32 34  0  0  1  0  0  0  0  0999 V2000
   35.7990   29.6850   48.7460 N   0  0  0  0  0  0  0  0  0  0  0  0
   36.7100   28.9070   49.5540 C   0  0  0  0  0  0  0  0  0  0  0  0
   37.2830   29.5390   50.7460 C   0  0  0  0  0  0  0  0  0  0  0  0
   37.3760   31.0060   50.7850 C   0  0  0  0  0  0  0  0  0  0  0  0
   36.4400   31.7170   49.8580 C   0  0  0  0  0  0  0  0  0  0  0  0
   36.3890   30.9830   48.5170 C   0  0  1  0  0  0  0  0  0  0  0  0
   37.5190   28.5540   48.8640 H   0  0  0  0  0  0  0  0  0  0  0  0
   36.1570   27.9830   49.8220 H   0  0  0  0  0  0  0  0  0  0  0  0
   38.2960   29.1100   50.9070 H   0  0  0  0  0  0  0  0  0  0  0  0
   36.7050   29.1870   51.6510 H   0  0  0  0  0  0  0  0  0  0  0  0
   38.4060   31.3930   50.5910 H   0  0  0  0  0  0  0  0  0  0  0  0
   37.1400   31.3930   51.8130 H   0  0  0  0  0  0  0  0  0  0  0  0
   36.7690   32.7580   49.6820 H   0  0  0  0  0  0  0  0  0  0  0  0
   35.3970   31.6880   50.2650 H   0  0  0  0  0  0  0  0  0  0  0  0
   35.8430   31.5950   47.7880 H   0  0  0  0  0  0  0  0  0  0  0  0
   34.5260   29.2280   48.2600 C   0  0  0  0  0  0  0  0  0  0  0  0
   33.9630   29.6390   47.0540 C   0  0  0  0  0  0  0  0  0  0  0  0
   32.7140   29.1070   46.7150 C   0  0  0  0  0  0  0  0  0  0  0  0
   32.1300   28.2350   47.5680 N   0  0  0  0  0  0  0  0  0  0  0  0
   32.7150   27.8650   48.7330 C   0  0  0  0  0  0  0  0  0  0  0  0
   33.9190   28.3700   49.0710 N   0  0  0  0  0  0  0  0  0  0  0  0
   34.5070   30.3280   46.4560 H   0  0  0  0  0  0  0  0  0  0  0  0
   32.2740   29.4220   45.7790 H   0  0  0  0  0  0  0  0  0  0  0  0
   32.2040   27.1630   49.3800 H   0  0  0  0  0  0  0  0  0  0  0  0
   37.7260   30.8640   48.1110 O   0  0  0  0  0  0  0  0  0  0  0  0
   40.8360   30.0010   45.8380 H   0  0  0  0  0  0  0  0  0  0  0  0
   40.1210   30.6560   45.4810 N   0  0  0  0  0  0  0  0  0  0  0  0
   40.2010   32.0040   45.9390 C   0  0  0  0  0  2  0  0  0  0  0  0
   39.3480   32.3230   47.1310 C   0  0  0  0  0  2  0  0  0  0  0  0
   37.9860   31.7150   47.0500 C   0  0  0  0  0  3  0  0  0  0  0  0
   37.7010   30.9710   45.7740 C   0  0  0  0  0  2  0  0  0  0  0  0
   38.8180   30.1310   45.2650 C   0  0  0  0  0  2  0  0  0  0  0  0
  1  2  1  0  0  0  0
  2  8  1  0  0  0  0
  2  3  1  0  0  0  0
  3  4  1  0  0  0  0
  3  9  1  0  0  0  0
  3 10  1  0  0  0  0
  4 12  1  0  0  0  0
  5 14  1  0  0  0  0
  5  4  1  0  0  0  0
  6 15  1  6  0  0  0
  6  1  1  0  0  0  0
  6  5  1  0  0  0  0
  7  2  1  0  0  0  0
 11  4  1  0  0  0  0
 13  5  1  0  0  0  0
 16  1  1  0  0  0  0
 16 21  1  0  0  0  0
 17 16  2  0  0  0  0
 18 17  1  0  0  0  0
 18 19  2  0  0  0  0
 19 20  1  0  0  0  0
 20 21  2  0  0  0  0
 20 24  1  0  0  0  0
 22 17  1  0  0  0  0
 23 18  1  0  0  0  0
 25  6  1  0  0  0  0
 27 26  1  0  0  0  0
 27 28  1  0  0  0  0
 28 29  1  0  0  0  0
 30 29  1  0  0  0  0
 30 25  1  0  0  0  0
 31 30  1  0  0  0  0
 32 27  1  0  0  0  0
 32 31  1  0  0  0  0
M  END
>  <minimizedAffinity>
-5.56072092

>  <minimizedRMSD>
1.0267303

$$$$
