
 OpenBabel03262522463D

 35 38  0  0  1  0  0  0  0  0999 V2000
   36.8880   27.9830   32.3180 C   0  0  1  0  0  0  0  0  0  0  0  0
   36.8270   28.9270   31.2440 C   0  0  0  0  0  0  0  0  0  0  0  0
   35.6840   28.9800   32.2390 C   0  0  2  0  0  0  0  0  0  0  0  0
   37.4070   28.1770   33.2940 H   0  0  0  0  0  0  0  0  0  0  0  0
   37.4430   29.8620   31.1970 H   0  0  0  0  0  0  0  0  0  0  0  0
   36.5600   28.5940   30.2250 H   0  0  0  0  0  0  0  0  0  0  0  0
   34.7810   28.8360   31.6450 H   0  0  0  0  0  0  0  0  0  0  0  0
   35.7150   26.1320   30.9370 C   0  0  0  0  0  0  0  0  0  0  0  0
   36.5160   26.5450   32.0810 C   0  0  0  0  0  0  0  0  0  0  0  0
   36.9970   25.5870   32.9180 C   0  0  0  0  0  0  0  0  0  0  0  0
   36.6870   24.2980   32.6240 N   0  0  0  0  0  0  0  0  0  0  0  0
   35.9460   23.9160   31.5710 C   0  0  0  0  0  0  0  0  0  0  0  0
   35.4680   24.8450   30.7350 N   0  0  0  0  0  0  0  0  0  0  0  0
   35.6290   22.5620   31.3400 N   0  0  0  0  0  0  0  0  0  0  0  0
   35.3570   26.9180   30.2990 H   0  0  0  0  0  0  0  0  0  0  0  0
   34.7580   22.4620   31.9210 H   0  0  0  0  0  0  0  0  0  0  0  0
   36.2470   21.9790   30.7090 H   0  0  0  0  0  0  0  0  0  0  0  0
   37.7510   25.7110   34.0990 N   0  0  0  0  0  0  0  0  0  0  0  0
   38.8770   24.8380   34.4830 C   0  0  0  0  0  2  0  0  0  0  0  0
   40.1390   25.6460   34.1550 C   0  0  0  0  0  2  0  0  0  0  0  0
   39.9940   27.0520   34.6910 C   0  0  0  0  0  3  0  0  0  0  0  0
   39.8100   27.8070   33.9000 H   0  0  0  0  0  0  0  0  0  0  0  0
   38.9120   27.1140   35.7360 C   0  0  0  0  0  2  0  0  0  0  0  0
   37.5490   26.7310   35.1430 C   0  0  0  0  0  2  0  0  0  0  0  0
   35.7030   31.8430   31.0570 Cl  0  0  0  0  0  0  0  0  0  0  0  0
   35.6970   31.5090   32.7620 C   0  0  0  0  0  0  0  0  0  0  0  0
   35.7430   30.1710   33.0930 C   0  0  0  0  0  0  0  0  0  0  0  0
   35.7580   29.8770   34.4510 C   0  0  0  0  0  0  0  0  0  0  0  0
   35.7290   30.8830   35.4160 C   0  0  0  0  0  0  0  0  0  0  0  0
   35.6830   32.2390   35.0210 C   0  0  0  0  0  0  0  0  0  0  0  0
   35.6720   33.5750   36.1500 Cl  0  0  0  0  0  0  0  0  0  0  0  0
   35.6680   32.5260   33.6530 C   0  0  0  0  0  0  0  0  0  0  0  0
   35.7930   28.9700   35.0230 H   0  0  0  0  0  0  0  0  0  0  0  0
   35.7340   30.8020   36.4870 H   0  0  0  0  0  0  0  0  0  0  0  0
   35.6330   33.5390   33.2760 H   0  0  0  0  0  0  0  0  0  0  0  0
  1  4  1  1  0  0  0
  2  3  1  0  0  0  0
  2  1  1  0  0  0  0
  3  7  1  6  0  0  0
  3  1  1  0  0  0  0
  3 27  1  0  0  0  0
  5  2  1  0  0  0  0
  6  2  1  0  0  0  0
  8  9  1  0  0  0  0
  9  1  1  0  0  0  0
  9 10  2  0  0  0  0
 10 18  1  0  0  0  0
 11 10  1  0  0  0  0
 12 11  2  0  0  0  0
 13  8  2  0  0  0  0
 13 12  1  0  0  0  0
 14 12  1  0  0  0  0
 14 16  1  0  0  0  0
 15  8  1  0  0  0  0
 17 14  1  0  0  0  0
 18 19  1  0  0  0  0
 18 24  1  0  0  0  0
 20 19  1  0  0  0  0
 20 21  1  0  0  0  0
 21 23  1  0  0  0  0
 22 21  1  0  0  0  0
 24 23  1  0  0  0  0
 25 26  1  0  0  0  0
 26 27  2  0  0  0  0
 26 32  1  0  0  0  0
 27 28  1  0  0  0  0
 28 33  1  0  0  0  0
 28 29  2  0  0  0  0
 29 34  1  0  0  0  0
 30 29  1  0  0  0  0
 30 31  1  0  0  0  0
 32 30  2  0  0  0  0
 35 32  1  0  0  0  0
M  END
>  <minimizedAffinity>
-6.35080385

$$$$

 OpenBabel03262522463D

 35 38  0  0  1  0  0  0  0  0999 V2000
   35.8120   28.5680   33.5670 C   0  0  1  0  0  0  0  0  0  0  0  0
   36.4450   29.3310   34.5990 C   0  0  0  0  0  0  0  0  0  0  0  0
   35.3430   30.0380   33.8340 C   0  0  2  0  0  0  0  0  0  0  0  0
   34.9190   27.9070   33.7340 H   0  0  0  0  0  0  0  0  0  0  0  0
   36.2370   29.1980   35.6920 H   0  0  0  0  0  0  0  0  0  0  0  0
   37.4630   29.7310   34.4500 H   0  0  0  0  0  0  0  0  0  0  0  0
   35.8090   30.9340   33.4250 H   0  0  0  0  0  0  0  0  0  0  0  0
   36.1430   29.1410   31.0630 C   0  0  0  0  0  0  0  0  0  0  0  0
   36.5010   28.3690   32.2450 C   0  0  0  0  0  0  0  0  0  0  0  0
   37.5380   27.4920   32.1600 C   0  0  0  0  0  0  0  0  0  0  0  0
   38.1680   27.3970   30.9620 N   0  0  0  0  0  0  0  0  0  0  0  0
   37.8380   28.1070   29.8710 C   0  0  0  0  0  0  0  0  0  0  0  0
   36.8230   28.9760   29.9370 N   0  0  0  0  0  0  0  0  0  0  0  0
   38.5110   27.9350   28.6440 N   0  0  0  0  0  0  0  0  0  0  0  0
   35.3210   29.8240   31.1730 H   0  0  0  0  0  0  0  0  0  0  0  0
   37.9620   27.1410   28.2280 H   0  0  0  0  0  0  0  0  0  0  0  0
   39.3330   28.5580   28.4050 H   0  0  0  0  0  0  0  0  0  0  0  0
   38.0570   26.6080   33.1230 N   0  0  0  0  0  0  0  0  0  0  0  0
   39.4920   26.3450   33.3460 C   0  0  0  0  0  2  0  0  0  0  0  0
   39.8600   27.1640   34.5900 C   0  0  0  0  0  2  0  0  0  0  0  0
   38.8250   26.9390   35.6690 C   0  0  0  0  0  3  0  0  0  0  0  0
   38.1460   27.8040   35.8130 H   0  0  0  0  0  0  0  0  0  0  0  0
   38.0310   25.6900   35.3930 C   0  0  0  0  0  2  0  0  0  0  0  0
   37.2630   25.8060   34.0690 C   0  0  0  0  0  2  0  0  0  0  0  0
   35.3310   31.7650   36.4050 Cl  0  0  0  0  0  0  0  0  0  0  0  0
   33.9140   30.9890   35.7630 C   0  0  0  0  0  0  0  0  0  0  0  0
   34.1310   30.2180   34.6400 C   0  0  0  0  0  0  0  0  0  0  0  0
   33.0180   29.5720   34.1170 C   0  0  0  0  0  0  0  0  0  0  0  0
   31.7580   29.7000   34.7020 C   0  0  0  0  0  0  0  0  0  0  0  0
   31.5930   30.5000   35.8540 C   0  0  0  0  0  0  0  0  0  0  0  0
   30.0630   30.7030   36.6790 Cl  0  0  0  0  0  0  0  0  0  0  0  0
   32.7180   31.1490   36.3730 C   0  0  0  0  0  0  0  0  0  0  0  0
   32.8510   28.9190   33.2830 H   0  0  0  0  0  0  0  0  0  0  0  0
   30.8220   29.2640   34.4080 H   0  0  0  0  0  0  0  0  0  0  0  0
   32.6680   31.7780   37.2510 H   0  0  0  0  0  0  0  0  0  0  0  0
  1  4  1  1  0  0  0
  1  3  1  0  0  0  0
  1  2  1  0  0  0  0
  2  5  1  0  0  0  0
  3  7  1  6  0  0  0
  3  2  1  0  0  0  0
  3 27  1  0  0  0  0
  6  2  1  0  0  0  0
  8 15  1  0  0  0  0
  8  9  1  0  0  0  0
  9  1  1  0  0  0  0
 10  9  2  0  0  0  0
 10 18  1  0  0  0  0
 11 10  1  0  0  0  0
 12 13  1  0  0  0  0
 12 11  2  0  0  0  0
 13  8  2  0  0  0  0
 14 12  1  0  0  0  0
 16 14  1  0  0  0  0
 17 14  1  0  0  0  0
 18 19  1  0  0  0  0
 18 24  1  0  0  0  0
 19 20  1  0  0  0  0
 20 21  1  0  0  0  0
 21 22  1  0  0  0  0
 23 21  1  0  0  0  0
 24 23  1  0  0  0  0
 26 32  1  0  0  0  0
 26 25  1  0  0  0  0
 27 26  2  0  0  0  0
 28 27  1  0  0  0  0
 28 29  2  0  0  0  0
 29 30  1  0  0  0  0
 30 32  2  0  0  0  0
 30 31  1  0  0  0  0
 32 35  1  0  0  0  0
 33 28  1  0  0  0  0
 34 29  1  0  0  0  0
M  END
>  <minimizedAffinity>
-6.05213261

$$$$

 OpenBabel03262522463D

 35 38  0  0  1  0  0  0  0  0999 V2000
   34.4580   29.5230   34.3450 C   0  0  1  0  0  0  0  0  0  0  0  0
   34.3100   29.8230   32.9540 C   0  0  0  0  0  0  0  0  0  0  0  0
   35.7230   29.5400   33.4230 C   0  0  2  0  0  0  0  0  0  0  0  0
   34.3840   28.4890   34.7760 H   0  0  0  0  0  0  0  0  0  0  0  0
   33.9200   29.0950   32.1960 H   0  0  0  0  0  0  0  0  0  0  0  0
   34.1130   30.8580   32.6260 H   0  0  0  0  0  0  0  0  0  0  0  0
   36.2980   30.4260   33.1520 H   0  0  0  0  0  0  0  0  0  0  0  0
   35.6030   31.4140   35.6960 C   0  0  0  0  0  0  0  0  0  0  0  0
   34.4210   30.6300   35.3630 C   0  0  0  0  0  0  0  0  0  0  0  0
   33.2360   30.9600   35.9450 C   0  0  0  0  0  0  0  0  0  0  0  0
   33.2430   32.0080   36.8080 N   0  0  0  0  0  0  0  0  0  0  0  0
   34.3320   32.7300   37.1170 C   0  0  0  0  0  0  0  0  0  0  0  0
   35.5060   32.4220   36.5520 N   0  0  0  0  0  0  0  0  0  0  0  0
   34.2800   33.7860   38.0500 N   0  0  0  0  0  0  0  0  0  0  0  0
   36.5170   31.1230   35.2140 H   0  0  0  0  0  0  0  0  0  0  0  0
   34.4380   33.2630   38.9480 H   0  0  0  0  0  0  0  0  0  0  0  0
   34.1150   34.7760   37.7130 H   0  0  0  0  0  0  0  0  0  0  0  0
   31.9730   30.3540   35.8320 N   0  0  0  0  0  0  0  0  0  0  0  0
   30.6900   31.0770   35.7310 C   0  0  0  0  0  2  0  0  0  0  0  0
   30.3200   31.0290   34.2430 C   0  0  0  0  0  2  0  0  0  0  0  0
   30.4900   29.6200   33.7230 C   0  0  0  0  0  3  0  0  0  0  0  0
   31.3820   29.4940   33.0780 H   0  0  0  0  0  0  0  0  0  0  0  0
   30.5230   28.6340   34.8600 C   0  0  0  0  0  2  0  0  0  0  0  0
   31.7160   28.9030   35.7890 C   0  0  0  0  0  2  0  0  0  0  0  0
   37.5090   27.7230   35.1850 Cl  0  0  0  0  0  0  0  0  0  0  0  0
   36.9630   27.2810   33.5960 C   0  0  0  0  0  0  0  0  0  0  0  0
   36.2210   28.2450   32.9460 C   0  0  0  0  0  0  0  0  0  0  0  0
   35.7880   27.9240   31.6660 C   0  0  0  0  0  0  0  0  0  0  0  0
   36.0920   26.6960   31.0790 C   0  0  0  0  0  0  0  0  0  0  0  0
   36.8570   25.7450   31.7890 C   0  0  0  0  0  0  0  0  0  0  0  0
   37.3160   24.1880   31.1330 Cl  0  0  0  0  0  0  0  0  0  0  0  0
   37.2880   26.0750   33.0770 C   0  0  0  0  0  0  0  0  0  0  0  0
   35.2140   28.4340   30.9170 H   0  0  0  0  0  0  0  0  0  0  0  0
   35.8240   26.3180   30.1100 H   0  0  0  0  0  0  0  0  0  0  0  0
   37.8770   25.3970   33.6800 H   0  0  0  0  0  0  0  0  0  0  0  0
  1  4  1  1  0  0  0
  1  9  1  0  0  0  0
  2  3  1  0  0  0  0
  2  1  1  0  0  0  0
  3  7  1  1  0  0  0
  3  1  1  0  0  0  0
  5  2  1  0  0  0  0
  6  2  1  0  0  0  0
  8 13  1  0  0  0  0
  9  8  2  0  0  0  0
  9 10  1  0  0  0  0
 10 11  2  0  0  0  0
 11 12  1  0  0  0  0
 12 14  1  0  0  0  0
 13 12  2  0  0  0  0
 14 16  1  0  0  0  0
 15  8  1  0  0  0  0
 17 14  1  0  0  0  0
 18 10  1  0  0  0  0
 19 18  1  0  0  0  0
 20 19  1  0  0  0  0
 21 20  1  0  0  0  0
 21 23  1  0  0  0  0
 22 21  1  0  0  0  0
 23 24  1  0  0  0  0
 24 18  1  0  0  0  0
 26 25  1  0  0  0  0
 27  3  1  0  0  0  0
 27 26  2  0  0  0  0
 28 27  1  0  0  0  0
 29 28  2  0  0  0  0
 29 30  1  0  0  0  0
 30 32  2  0  0  0  0
 31 30  1  0  0  0  0
 32 26  1  0  0  0  0
 32 35  1  0  0  0  0
 33 28  1  0  0  0  0
 34 29  1  0  0  0  0
M  END
>  <minimizedAffinity>
-6.04213333

$$$$

 OpenBabel03262522463D

 35 38  0  0  1  0  0  0  0  0999 V2000
   37.4170   25.5790   34.2680 C   0  0  1  0  0  0  0  0  0  0  0  0
   37.0250   26.8600   34.7730 C   0  0  0  0  0  0  0  0  0  0  0  0
   38.2530   26.8460   33.8840 C   0  0  2  0  0  0  0  0  0  0  0  0
   37.0350   25.1390   33.3080 H   0  0  0  0  0  0  0  0  0  0  0  0
   36.1670   27.4560   34.3670 H   0  0  0  0  0  0  0  0  0  0  0  0
   37.2030   27.1190   35.8310 H   0  0  0  0  0  0  0  0  0  0  0  0
   39.0470   27.2870   34.4860 H   0  0  0  0  0  0  0  0  0  0  0  0
   38.4520   24.9140   36.5470 C   0  0  0  0  0  0  0  0  0  0  0  0
   38.1420   24.6070   35.1570 C   0  0  0  0  0  0  0  0  0  0  0  0
   38.4610   23.3750   34.6760 C   0  0  0  0  0  0  0  0  0  0  0  0
   39.0560   22.5110   35.5380 N   0  0  0  0  0  0  0  0  0  0  0  0
   39.3440   22.7940   36.8190 C   0  0  0  0  0  0  0  0  0  0  0  0
   39.0350   23.9990   37.3100 N   0  0  0  0  0  0  0  0  0  0  0  0
   39.9960   21.8630   37.6540 N   0  0  0  0  0  0  0  0  0  0  0  0
   38.1830   25.8960   36.8890 H   0  0  0  0  0  0  0  0  0  0  0  0
   41.0030   22.0760   37.4360 H   0  0  0  0  0  0  0  0  0  0  0  0
   39.4240   21.2130   38.2620 H   0  0  0  0  0  0  0  0  0  0  0  0
   38.3110   22.8410   33.3840 N   0  0  0  0  0  0  0  0  0  0  0  0
   37.8690   21.4660   33.0800 C   0  0  0  0  0  2  0  0  0  0  0  0
   36.3930   21.6000   32.6820 C   0  0  0  0  0  2  0  0  0  0  0  0
   36.2360   22.7310   31.6910 C   0  0  0  0  0  3  0  0  0  0  0  0
   35.7680   23.6360   32.1290 H   0  0  0  0  0  0  0  0  0  0  0  0
   37.5600   23.0780   31.0650 C   0  0  0  0  0  2  0  0  0  0  0  0
   38.5620   23.5610   32.1230 C   0  0  0  0  0  2  0  0  0  0  0  0
   35.9370   28.8500   33.4210 Cl  0  0  0  0  0  0  0  0  0  0  0  0
   37.0680   28.3900   32.1860 C   0  0  0  0  0  0  0  0  0  0  0  0
   37.9960   27.4440   32.5690 C   0  0  0  0  0  0  0  0  0  0  0  0
   38.9020   27.0460   31.5940 C   0  0  0  0  0  0  0  0  0  0  0  0
   38.8660   27.5750   30.3040 C   0  0  0  0  0  0  0  0  0  0  0  0
   37.8930   28.5400   29.9640 C   0  0  0  0  0  0  0  0  0  0  0  0
   37.7450   29.2450   28.3700 Cl  0  0  0  0  0  0  0  0  0  0  0  0
   36.9860   28.9370   30.9520 C   0  0  0  0  0  0  0  0  0  0  0  0
   39.7200   26.3520   31.5660 H   0  0  0  0  0  0  0  0  0  0  0  0
   39.4980   27.3630   29.4620 H   0  0  0  0  0  0  0  0  0  0  0  0
   36.2140   29.6710   30.7650 H   0  0  0  0  0  0  0  0  0  0  0  0
  1  4  1  6  0  0  0
  1  2  1  0  0  0  0
  1  9  1  0  0  0  0
  2  6  1  0  0  0  0
  3  1  1  0  0  0  0
  3  7  1  1  0  0  0
  3  2  1  0  0  0  0
  5  2  1  0  0  0  0
  8 15  1  0  0  0  0
  8 13  1  0  0  0  0
  9  8  2  0  0  0  0
 10  9  1  0  0  0  0
 10 11  2  0  0  0  0
 11 12  1  0  0  0  0
 12 13  2  0  0  0  0
 12 14  1  0  0  0  0
 14 17  1  0  0  0  0
 16 14  1  0  0  0  0
 18 10  1  0  0  0  0
 19 18  1  0  0  0  0
 20 19  1  0  0  0  0
 21 22  1  0  0  0  0
 21 20  1  0  0  0  0
 23 21  1  0  0  0  0
 23 24  1  0  0  0  0
 24 18  1  0  0  0  0
 26 27  1  0  0  0  0
 26 25  1  0  0  0  0
 27  3  1  0  0  0  0
 28 27  2  0  0  0  0
 29 28  1  0  0  0  0
 30 29  2  0  0  0  0
 30 32  1  0  0  0  0
 31 30  1  0  0  0  0
 32 26  2  0  0  0  0
 33 28  1  0  0  0  0
 34 29  1  0  0  0  0
 35 32  1  0  0  0  0
M  END
>  <minimizedAffinity>
-6.02265072

$$$$

 OpenBabel03262522463D

 35 38  0  0  1  0  0  0  0  0999 V2000
   36.9740   28.0200   32.1700 C   0  0  1  0  0  0  0  0  0  0  0  0
   37.2430   28.8440   31.0310 C   0  0  0  0  0  0  0  0  0  0  0  0
   35.9060   29.0690   31.7100 C   0  0  2  0  0  0  0  0  0  0  0  0
   37.2620   28.2900   33.2210 H   0  0  0  0  0  0  0  0  0  0  0  0
   37.9270   29.7320   31.0500 H   0  0  0  0  0  0  0  0  0  0  0  0
   37.1980   28.4180   30.0140 H   0  0  0  0  0  0  0  0  0  0  0  0
   35.1600   28.9120   30.9310 H   0  0  0  0  0  0  0  0  0  0  0  0
   35.7620   26.1580   30.8390 C   0  0  0  0  0  0  0  0  0  0  0  0
   36.5540   26.5880   31.9830 C   0  0  0  0  0  0  0  0  0  0  0  0
   36.9810   25.6480   32.8700 C   0  0  0  0  0  0  0  0  0  0  0  0
   36.6290   24.3610   32.6210 N   0  0  0  0  0  0  0  0  0  0  0  0
   35.8970   23.9630   31.5680 C   0  0  0  0  0  0  0  0  0  0  0  0
   35.4710   24.8730   30.6840 N   0  0  0  0  0  0  0  0  0  0  0  0
   35.5350   22.6130   31.3850 N   0  0  0  0  0  0  0  0  0  0  0  0
   35.4470   26.9290   30.1620 H   0  0  0  0  0  0  0  0  0  0  0  0
   34.6490   22.5690   31.9500 H   0  0  0  0  0  0  0  0  0  0  0  0
   36.1440   21.9820   30.7920 H   0  0  0  0  0  0  0  0  0  0  0  0
   37.7140   25.7940   34.0600 N   0  0  0  0  0  0  0  0  0  0  0  0
   38.7990   24.8980   34.5050 C   0  0  0  0  0  2  0  0  0  0  0  0
   40.0970   25.6450   34.1720 C   0  0  0  0  0  2  0  0  0  0  0  0
   39.9930   27.0760   34.6480 C   0  0  0  0  0  3  0  0  0  0  0  0
   39.8540   27.8040   33.8240 H   0  0  0  0  0  0  0  0  0  0  0  0
   38.8930   27.2210   35.6650 C   0  0  0  0  0  2  0  0  0  0  0  0
   37.5290   26.8630   35.0580 C   0  0  0  0  0  2  0  0  0  0  0  0
   34.7040   29.2760   34.5570 Cl  0  0  0  0  0  0  0  0  0  0  0  0
   35.4280   30.6170   33.7210 C   0  0  0  0  0  0  0  0  0  0  0  0
   35.8580   30.3400   32.4400 C   0  0  0  0  0  0  0  0  0  0  0  0
   36.4240   31.4000   31.7430 C   0  0  0  0  0  0  0  0  0  0  0  0
   36.5440   32.6680   32.3120 C   0  0  0  0  0  0  0  0  0  0  0  0
   36.0840   32.8970   33.6270 C   0  0  0  0  0  0  0  0  0  0  0  0
   36.1620   34.4540   34.4220 Cl  0  0  0  0  0  0  0  0  0  0  0  0
   35.5170   31.8240   34.3230 C   0  0  0  0  0  0  0  0  0  0  0  0
   36.8410   31.5170   30.7610 H   0  0  0  0  0  0  0  0  0  0  0  0
   36.9570   33.5670   31.8940 H   0  0  0  0  0  0  0  0  0  0  0  0
   35.1440   31.9240   35.3330 H   0  0  0  0  0  0  0  0  0  0  0  0
  1  4  1  1  0  0  0
  2  5  1  0  0  0  0
  2  3  1  0  0  0  0
  2  1  1  0  0  0  0
  3  7  1  6  0  0  0
  3  1  1  0  0  0  0
  3 27  1  0  0  0  0
  6  2  1  0  0  0  0
  8  9  1  0  0  0  0
  9  1  1  0  0  0  0
  9 10  2  0  0  0  0
 10 18  1  0  0  0  0
 11 10  1  0  0  0  0
 12 11  2  0  0  0  0
 13  8  2  0  0  0  0
 13 12  1  0  0  0  0
 14 12  1  0  0  0  0
 14 16  1  0  0  0  0
 15  8  1  0  0  0  0
 17 14  1  0  0  0  0
 18 19  1  0  0  0  0
 18 24  1  0  0  0  0
 20 19  1  0  0  0  0
 20 21  1  0  0  0  0
 21 23  1  0  0  0  0
 22 21  1  0  0  0  0
 24 23  1  0  0  0  0
 26 32  1  0  0  0  0
 26 25  1  0  0  0  0
 27 26  2  0  0  0  0
 28 29  2  0  0  0  0
 28 27  1  0  0  0  0
 29 30  1  0  0  0  0
 30 32  2  0  0  0  0
 30 31  1  0  0  0  0
 32 35  1  0  0  0  0
 33 28  1  0  0  0  0
 34 29  1  0  0  0  0
M  END
>  <minimizedAffinity>
-6.0205574

$$$$

 OpenBabel03262522463D

 35 38  0  0  1  0  0  0  0  0999 V2000
   37.4770   25.8360   34.1930 C   0  0  1  0  0  0  0  0  0  0  0  0
   37.0230   27.1630   34.4760 C   0  0  0  0  0  0  0  0  0  0  0  0
   38.4080   27.0520   33.8680 C   0  0  2  0  0  0  0  0  0  0  0  0
   37.2900   25.3020   33.2230 H   0  0  0  0  0  0  0  0  0  0  0  0
   36.2840   27.7190   33.8440 H   0  0  0  0  0  0  0  0  0  0  0  0
   36.9850   27.5270   35.5180 H   0  0  0  0  0  0  0  0  0  0  0  0
   39.0720   27.5480   34.5770 H   0  0  0  0  0  0  0  0  0  0  0  0
   38.0240   25.4090   36.6880 C   0  0  0  0  0  0  0  0  0  0  0  0
   37.9760   24.9550   35.3050 C   0  0  0  0  0  0  0  0  0  0  0  0
   38.3300   23.6710   35.0290 C   0  0  0  0  0  0  0  0  0  0  0  0
   38.7120   22.8970   36.0780 N   0  0  0  0  0  0  0  0  0  0  0  0
   38.7590   23.3160   37.3530 C   0  0  0  0  0  0  0  0  0  0  0  0
   38.4110   24.5750   37.6440 N   0  0  0  0  0  0  0  0  0  0  0  0
   39.1990   22.4720   38.3940 N   0  0  0  0  0  0  0  0  0  0  0  0
   37.7350   26.4280   36.8640 H   0  0  0  0  0  0  0  0  0  0  0  0
   40.2360   22.6390   38.3570 H   0  0  0  0  0  0  0  0  0  0  0  0
   38.4940   21.9050   38.9430 H   0  0  0  0  0  0  0  0  0  0  0  0
   38.4110   22.9990   33.7970 N   0  0  0  0  0  0  0  0  0  0  0  0
   37.9790   21.6070   33.5590 C   0  0  0  0  0  2  0  0  0  0  0  0
   36.6150   21.7240   32.8670 C   0  0  0  0  0  2  0  0  0  0  0  0
   36.6990   22.7410   31.7510 C   0  0  0  0  0  3  0  0  0  0  0  0
   36.1930   23.6970   31.9900 H   0  0  0  0  0  0  0  0  0  0  0  0
   38.1320   22.9890   31.3640 C   0  0  0  0  0  2  0  0  0  0  0  0
   38.9300   23.5670   32.5410 C   0  0  0  0  0  2  0  0  0  0  0  0
   40.8570   26.5470   32.0410 Cl  0  0  0  0  0  0  0  0  0  0  0  0
   39.4040   27.3320   31.5020 C   0  0  0  0  0  0  0  0  0  0  0  0
   38.4450   27.5140   32.4770 C   0  0  0  0  0  0  0  0  0  0  0  0
   37.2800   28.1570   32.0760 C   0  0  0  0  0  0  0  0  0  0  0  0
   37.1010   28.5910   30.7630 C   0  0  0  0  0  0  0  0  0  0  0  0
   38.1170   28.3800   29.8050 C   0  0  0  0  0  0  0  0  0  0  0  0
   38.0020   28.9100   28.1410 Cl  0  0  0  0  0  0  0  0  0  0  0  0
   39.2850   27.7320   30.2160 C   0  0  0  0  0  0  0  0  0  0  0  0
   36.3730   28.4460   32.5710 H   0  0  0  0  0  0  0  0  0  0  0  0
   36.2610   29.0930   30.3190 H   0  0  0  0  0  0  0  0  0  0  0  0
   40.1050   27.5360   29.5380 H   0  0  0  0  0  0  0  0  0  0  0  0
  1  4  1  6  0  0  0
  1  2  1  0  0  0  0
  1  9  1  0  0  0  0
  2  6  1  0  0  0  0
  3  1  1  0  0  0  0
  3  2  1  0  0  0  0
  3  7  1  1  0  0  0
  5  2  1  0  0  0  0
  8 15  1  0  0  0  0
  8 13  1  0  0  0  0
  9  8  2  0  0  0  0
 10  9  1  0  0  0  0
 10 11  2  0  0  0  0
 11 12  1  0  0  0  0
 12 13  2  0  0  0  0
 12 14  1  0  0  0  0
 14 17  1  0  0  0  0
 16 14  1  0  0  0  0
 18 10  1  0  0  0  0
 19 18  1  0  0  0  0
 20 19  1  0  0  0  0
 21 22  1  0  0  0  0
 21 20  1  0  0  0  0
 23 21  1  0  0  0  0
 23 24  1  0  0  0  0
 24 18  1  0  0  0  0
 26 25  1  0  0  0  0
 26 27  1  0  0  0  0
 27  3  1  0  0  0  0
 28 27  2  0  0  0  0
 28 33  1  0  0  0  0
 29 28  1  0  0  0  0
 30 32  1  0  0  0  0
 30 29  2  0  0  0  0
 31 30  1  0  0  0  0
 32 26  2  0  0  0  0
 34 29  1  0  0  0  0
 35 32  1  0  0  0  0
M  END
>  <minimizedAffinity>
-5.97131157

$$$$

 OpenBabel03262522463D

 35 38  0  0  1  0  0  0  0  0999 V2000
   38.7890   25.7880   34.9060 C   0  0  1  0  0  0  0  0  0  0  0  0
   38.3640   26.6180   35.9910 C   0  0  0  0  0  0  0  0  0  0  0  0
   38.7480   27.3410   34.7160 C   0  0  2  0  0  0  0  0  0  0  0  0
   38.0940   25.3480   34.1420 H   0  0  0  0  0  0  0  0  0  0  0  0
   37.2920   26.7510   36.2940 H   0  0  0  0  0  0  0  0  0  0  0  0
   39.0280   26.7870   36.8570 H   0  0  0  0  0  0  0  0  0  0  0  0
   39.5360   28.0360   35.0070 H   0  0  0  0  0  0  0  0  0  0  0  0
   41.2860   25.8480   34.2190 C   0  0  0  0  0  0  0  0  0  0  0  0
   40.1740   25.2020   34.9030 C   0  0  0  0  0  0  0  0  0  0  0  0
   40.4190   24.0700   35.6170 C   0  0  0  0  0  0  0  0  0  0  0  0
   41.6990   23.6170   35.6360 N   0  0  0  0  0  0  0  0  0  0  0  0
   42.7240   24.2110   35.0040 C   0  0  0  0  0  0  0  0  0  0  0  0
   42.5030   25.3270   34.3000 N   0  0  0  0  0  0  0  0  0  0  0  0
   44.0260   23.6700   35.0330 N   0  0  0  0  0  0  0  0  0  0  0  0
   41.0510   26.7400   33.6700 H   0  0  0  0  0  0  0  0  0  0  0  0
   43.9810   23.0040   34.2210 H   0  0  0  0  0  0  0  0  0  0  0  0
   44.7120   23.9940   35.7710 H   0  0  0  0  0  0  0  0  0  0  0  0
   39.5350   23.2380   36.3270 N   0  0  0  0  0  0  0  0  0  0  0  0
   39.8170   22.6250   37.6400 C   0  0  0  0  0  2  0  0  0  0  0  0
   39.0650   23.4940   38.6570 C   0  0  0  0  0  2  0  0  0  0  0  0
   37.6540   23.7370   38.1700 C   0  0  0  0  0  3  0  0  0  0  0  0
   37.4910   24.7670   37.7950 H   0  0  0  0  0  0  0  0  0  0  0  0
   37.2730   22.7300   37.1180 C   0  0  0  0  0  2  0  0  0  0  0  0
   38.1850   22.8460   35.8880 C   0  0  0  0  0  2  0  0  0  0  0  0
   38.3990   27.0830   31.6490 Cl  0  0  0  0  0  0  0  0  0  0  0  0
   37.2250   27.8320   32.6890 C   0  0  0  0  0  0  0  0  0  0  0  0
   37.5840   27.9000   34.0180 C   0  0  0  0  0  0  0  0  0  0  0  0
   36.6710   28.5110   34.8680 C   0  0  0  0  0  0  0  0  0  0  0  0
   35.4640   29.0250   34.3950 C   0  0  0  0  0  0  0  0  0  0  0  0
   35.1470   28.9310   33.0220 C   0  0  0  0  0  0  0  0  0  0  0  0
   33.6740   29.5680   32.3240 Cl  0  0  0  0  0  0  0  0  0  0  0  0
   36.0710   28.3130   32.1740 C   0  0  0  0  0  0  0  0  0  0  0  0
   36.6470   28.7210   35.9200 H   0  0  0  0  0  0  0  0  0  0  0  0
   34.6740   29.5160   34.9330 H   0  0  0  0  0  0  0  0  0  0  0  0
   35.8960   28.2040   31.1120 H   0  0  0  0  0  0  0  0  0  0  0  0
  1  4  1  6  0  0  0
  1  2  1  0  0  0  0
  2  5  1  0  0  0  0
  2  6  1  0  0  0  0
  3  1  1  0  0  0  0
  3  7  1  6  0  0  0
  3  2  1  0  0  0  0
  8 13  2  0  0  0  0
  8  9  1  0  0  0  0
  9  1  1  0  0  0  0
  9 10  2  0  0  0  0
 10 11  1  0  0  0  0
 10 18  1  0  0  0  0
 12 14  1  0  0  0  0
 12 11  2  0  0  0  0
 13 12  1  0  0  0  0
 14 17  1  0  0  0  0
 15  8  1  0  0  0  0
 16 14  1  0  0  0  0
 18 19  1  0  0  0  0
 19 20  1  0  0  0  0
 21 20  1  0  0  0  0
 22 21  1  0  0  0  0
 23 21  1  0  0  0  0
 24 18  1  0  0  0  0
 24 23  1  0  0  0  0
 25 26  1  0  0  0  0
 26 27  1  0  0  0  0
 27  3  1  0  0  0  0
 27 28  2  0  0  0  0
 28 33  1  0  0  0  0
 29 28  1  0  0  0  0
 29 34  1  0  0  0  0
 30 29  2  0  0  0  0
 31 30  1  0  0  0  0
 32 26  2  0  0  0  0
 32 30  1  0  0  0  0
 35 32  1  0  0  0  0
M  END
>  <minimizedAffinity>
-5.84291458

$$$$

 OpenBabel03262522463D

 35 38  0  0  1  0  0  0  0  0999 V2000
   38.6210   23.5440   34.4640 C   0  0  1  0  0  0  0  0  0  0  0  0
   38.1340   24.6900   33.7590 C   0  0  0  0  0  0  0  0  0  0  0  0
   38.9270   24.9750   35.0190 C   0  0  2  0  0  0  0  0  0  0  0  0
   39.6110   23.0560   34.2610 H   0  0  0  0  0  0  0  0  0  0  0  0
   38.5990   25.0900   32.8200 H   0  0  0  0  0  0  0  0  0  0  0  0
   37.0630   24.9530   33.7960 H   0  0  0  0  0  0  0  0  0  0  0  0
   38.2600   25.5660   35.6480 H   0  0  0  0  0  0  0  0  0  0  0  0
   37.4940   23.0210   36.7370 C   0  0  0  0  0  0  0  0  0  0  0  0
   37.6880   22.7340   35.3220 C   0  0  0  0  0  0  0  0  0  0  0  0
   36.9480   21.7460   34.7510 C   0  0  0  0  0  0  0  0  0  0  0  0
   36.0730   21.0880   35.5550 N   0  0  0  0  0  0  0  0  0  0  0  0
   35.8950   21.3500   36.8600 C   0  0  0  0  0  0  0  0  0  0  0  0
   36.6120   22.3210   37.4370 N   0  0  0  0  0  0  0  0  0  0  0  0
   34.9950   20.6060   37.6490 N   0  0  0  0  0  0  0  0  0  0  0  0
   38.0950   23.8100   37.1480 H   0  0  0  0  0  0  0  0  0  0  0  0
   35.6100   19.8070   37.9480 H   0  0  0  0  0  0  0  0  0  0  0  0
   34.0010   20.9470   37.7740 H   0  0  0  0  0  0  0  0  0  0  0  0
   36.9650   21.2460   33.4380 N   0  0  0  0  0  0  0  0  0  0  0  0
   35.7700   20.8720   32.6560 C   0  0  0  0  0  2  0  0  0  0  0  0
   35.5350   22.0490   31.6990 C   0  0  0  0  0  2  0  0  0  0  0  0
   36.8390   22.4320   31.0380 C   0  0  0  0  0  3  0  0  0  0  0  0
   37.2670   23.3770   31.4280 H   0  0  0  0  0  0  0  0  0  0  0  0
   37.8420   21.3160   31.1520 C   0  0  0  0  0  2  0  0  0  0  0  0
   38.1700   21.0160   32.6210 C   0  0  0  0  0  2  0  0  0  0  0  0
   41.5310   23.5990   35.9760 Cl  0  0  0  0  0  0  0  0  0  0  0  0
   41.5080   25.0450   35.0120 C   0  0  0  0  0  0  0  0  0  0  0  0
   40.2510   25.5370   34.7310 C   0  0  0  0  0  0  0  0  0  0  0  0
   40.2050   26.7020   33.9770 C   0  0  0  0  0  0  0  0  0  0  0  0
   41.3680   27.3320   33.5350 C   0  0  0  0  0  0  0  0  0  0  0  0
   42.6310   26.7860   33.8540 C   0  0  0  0  0  0  0  0  0  0  0  0
   44.1480   27.5130   33.3740 Cl  0  0  0  0  0  0  0  0  0  0  0  0
   42.6690   25.6120   34.6120 C   0  0  0  0  0  0  0  0  0  0  0  0
   39.4150   27.3240   33.6000 H   0  0  0  0  0  0  0  0  0  0  0  0
   41.4800   28.2270   32.9510 H   0  0  0  0  0  0  0  0  0  0  0  0
   43.5980   25.1370   34.8940 H   0  0  0  0  0  0  0  0  0  0  0  0
  1  4  1  6  0  0  0
  1  3  1  0  0  0  0
  1  9  1  0  0  0  0
  2  6  1  0  0  0  0
  2  1  1  0  0  0  0
  2  3  1  0  0  0  0
  3  7  1  1  0  0  0
  5  2  1  0  0  0  0
  8 15  1  0  0  0  0
  8 13  1  0  0  0  0
  9  8  2  0  0  0  0
 10  9  1  0  0  0  0
 10 11  2  0  0  0  0
 11 12  1  0  0  0  0
 12 13  2  0  0  0  0
 12 14  1  0  0  0  0
 14 17  1  0  0  0  0
 14 16  1  0  0  0  0
 18 10  1  0  0  0  0
 19 18  1  0  0  0  0
 20 19  1  0  0  0  0
 21 23  1  0  0  0  0
 21 22  1  0  0  0  0
 21 20  1  0  0  0  0
 23 24  1  0  0  0  0
 24 18  1  0  0  0  0
 26 25  1  0  0  0  0
 27 26  1  0  0  0  0
 27  3  1  0  0  0  0
 28 27  2  0  0  0  0
 29 30  2  0  0  0  0
 29 28  1  0  0  0  0
 30 32  1  0  0  0  0
 31 30  1  0  0  0  0
 32 35  1  0  0  0  0
 32 26  2  0  0  0  0
 33 28  1  0  0  0  0
 34 29  1  0  0  0  0
M  END
>  <minimizedAffinity>
-5.82777309

$$$$

 OpenBabel03262522463D

 35 38  0  0  1  0  0  0  0  0999 V2000
   38.0860   22.2340   32.8810 C   0  0  1  0  0  0  0  0  0  0  0  0
   37.9480   21.5460   31.6340 C   0  0  0  0  0  0  0  0  0  0  0  0
   37.2880   22.9080   31.7140 C   0  0  2  0  0  0  0  0  0  0  0  0
   38.9400   22.9200   33.1280 H   0  0  0  0  0  0  0  0  0  0  0  0
   38.7630   21.4720   30.8670 H   0  0  0  0  0  0  0  0  0  0  0  0
   37.2620   20.6860   31.5460 H   0  0  0  0  0  0  0  0  0  0  0  0
   36.2380   22.7310   31.4810 H   0  0  0  0  0  0  0  0  0  0  0  0
   36.0960   20.9450   33.9240 C   0  0  0  0  0  0  0  0  0  0  0  0
   37.2400   21.8370   34.0590 C   0  0  0  0  0  0  0  0  0  0  0  0
   37.5890   22.2640   35.3030 C   0  0  0  0  0  0  0  0  0  0  0  0
   36.8320   21.8250   36.3410 N   0  0  0  0  0  0  0  0  0  0  0  0
   35.7760   21.0040   36.2170 C   0  0  0  0  0  0  0  0  0  0  0  0
   35.4200   20.5720   35.0020 N   0  0  0  0  0  0  0  0  0  0  0  0
   35.0080   20.6120   37.3330 N   0  0  0  0  0  0  0  0  0  0  0  0
   35.8560   20.6290   32.9260 H   0  0  0  0  0  0  0  0  0  0  0  0
   34.3190   21.4050   37.3850 H   0  0  0  0  0  0  0  0  0  0  0  0
   35.2410   19.7130   37.8400 H   0  0  0  0  0  0  0  0  0  0  0  0
   38.6080   23.1450   35.7040 N   0  0  0  0  0  0  0  0  0  0  0  0
   39.4660   22.9660   36.8920 C   0  0  0  0  0  2  0  0  0  0  0  0
   40.7960   22.4300   36.3470 C   0  0  0  0  0  2  0  0  0  0  0  0
   41.2300   23.2620   35.1620 C   0  0  0  0  0  3  0  0  0  0  0  0
   41.1020   22.7420   34.1910 H   0  0  0  0  0  0  0  0  0  0  0  0
   40.5110   24.5840   35.1470 C   0  0  0  0  0  2  0  0  0  0  0  0
   38.9940   24.3850   35.0090 C   0  0  0  0  0  2  0  0  0  0  0  0
   37.1360   25.9270   32.3930 Cl  0  0  0  0  0  0  0  0  0  0  0  0
   38.0970   25.2820   31.0960 C   0  0  0  0  0  0  0  0  0  0  0  0
   37.9920   23.9180   30.9170 C   0  0  0  0  0  0  0  0  0  0  0  0
   38.7360   23.3800   29.8750 C   0  0  0  0  0  0  0  0  0  0  0  0
   39.5380   24.1790   29.0610 C   0  0  0  0  0  0  0  0  0  0  0  0
   39.6070   25.5710   29.2880 C   0  0  0  0  0  0  0  0  0  0  0  0
   40.5600   26.6650   28.3090 Cl  0  0  0  0  0  0  0  0  0  0  0  0
   38.8570   26.1060   30.3400 C   0  0  0  0  0  0  0  0  0  0  0  0
   38.8710   22.3910   29.4800 H   0  0  0  0  0  0  0  0  0  0  0  0
   40.1600   23.9010   28.2310 H   0  0  0  0  0  0  0  0  0  0  0  0
   38.8600   27.1620   30.5730 H   0  0  0  0  0  0  0  0  0  0  0  0
  1  4  1  1  0  0  0
  1  9  1  0  0  0  0
  2  3  1  0  0  0  0
  2  1  1  0  0  0  0
  3  7  1  1  0  0  0
  3  1  1  0  0  0  0
  5  2  1  0  0  0  0
  6  2  1  0  0  0  0
  8  9  2  0  0  0  0
  8 13  1  0  0  0  0
  9 10  1  0  0  0  0
 10 18  1  0  0  0  0
 10 11  2  0  0  0  0
 12 11  1  0  0  0  0
 12 14  1  0  0  0  0
 13 12  2  0  0  0  0
 14 16  1  0  0  0  0
 14 17  1  0  0  0  0
 15  8  1  0  0  0  0
 18 19  1  0  0  0  0
 20 19  1  0  0  0  0
 21 20  1  0  0  0  0
 22 21  1  0  0  0  0
 23 21  1  0  0  0  0
 24 23  1  0  0  0  0
 24 18  1  0  0  0  0
 26 25  1  0  0  0  0
 27 26  1  0  0  0  0
 27  3  1  0  0  0  0
 28 27  2  0  0  0  0
 29 30  2  0  0  0  0
 29 28  1  0  0  0  0
 30 32  1  0  0  0  0
 31 30  1  0  0  0  0
 32 35  1  0  0  0  0
 32 26  2  0  0  0  0
 33 28  1  0  0  0  0
 34 29  1  0  0  0  0
M  END
>  <minimizedAffinity>
-5.78066015

$$$$
