
 OpenBabel03272510003D

 19 20  0  0  0  0  0  0  0  0999 V2000
   38.3800   31.5890   50.1220 C   0  0  0  0  0  0  0  0  0  0  0  0
   38.6020   31.8850   48.7770 C   0  0  0  0  0  0  0  0  0  0  0  0
   37.7170   31.3630   47.8380 C   0  0  0  0  0  0  0  0  0  0  0  0
   36.6890   30.5960   48.2850 N   0  0  0  0  0  0  0  0  0  0  0  0
   36.5080   30.3350   49.5840 C   0  0  0  0  0  0  0  0  0  0  0  0
   37.3490   30.8280   50.4970 N   0  0  0  0  0  0  0  0  0  0  0  0
   39.1170   32.0380   50.7680 H   0  0  0  0  0  0  0  0  0  0  0  0
   39.3860   32.4770   48.3690 H   0  0  0  0  0  0  0  0  0  0  0  0
   37.7510   31.5340   46.4250 N   0  0  0  0  0  0  0  0  0  0  0  0
   38.5180   32.5110   45.7200 C   0  0  0  0  0  2  0  0  0  0  0  0
   39.4280   31.9640   44.6690 C   0  0  0  0  0  2  0  0  0  0  0  0
   38.6870   31.0410   43.7280 C   0  0  0  0  0  3  0  0  0  0  0  0
   39.3450   30.6120   42.9760 H   0  0  0  0  0  0  0  0  0  0  0  0
   38.0330   29.9840   44.6200 C   0  0  0  0  0  2  0  0  0  0  0  0
   37.0200   30.7510   45.4570 C   0  0  0  0  0  2  0  0  0  0  0  0
   35.3570   29.4850   49.9930 C   0  0  0  0  0  0  0  0  0  0  0  0
   35.3870   29.1180   51.3160 F   0  0  0  0  0  0  0  0  0  0  0  0
   34.1460   30.1590   49.7920 F   0  0  0  0  0  0  0  0  0  0  0  0
   35.2440   28.3310   49.2420 F   0  0  0  0  0  0  0  0  0  0  0  0
  1  6  1  0  0  0  0
  1  7  1  0  0  0  0
  2  1  2  0  0  0  0
  3  4  2  0  0  0  0
  3  2  1  0  0  0  0
  4  5  1  0  0  0  0
  5 16  1  0  0  0  0
  5  6  2  0  0  0  0
  8  2  1  0  0  0  0
  9  3  1  0  0  0  0
 10  9  1  0  0  0  0
 11 10  1  0  0  0  0
 12 14  1  0  0  0  0
 12 11  1  0  0  0  0
 13 12  1  0  0  0  0
 14 15  1  0  0  0  0
 15  9  1  0  0  0  0
 16 17  1  0  0  0  0
 18 16  1  0  0  0  0
 19 16  1  0  0  0  0
M  END
>  <minimizedAffinity>
-5.00614023

>  <minimizedRMSD>
1.01700294

$$$$
