
 OpenBabel03272510003D

 19 20  0  0  0  0  0  0  0  0999 V2000
   38.3720   31.4020   50.2250 C   0  0  0  0  0  0  0  0  0  0  0  0
   38.5810   31.7290   48.8850 C   0  0  0  0  0  0  0  0  0  0  0  0
   37.6700   31.2530   47.9460 C   0  0  0  0  0  0  0  0  0  0  0  0
   36.6310   30.4980   48.3880 N   0  0  0  0  0  0  0  0  0  0  0  0
   36.4630   30.2060   49.6830 C   0  0  0  0  0  0  0  0  0  0  0  0
   37.3290   30.6560   50.5950 N   0  0  0  0  0  0  0  0  0  0  0  0
   39.1290   31.8160   50.8720 H   0  0  0  0  0  0  0  0  0  0  0  0
   39.3730   32.3130   48.4810 H   0  0  0  0  0  0  0  0  0  0  0  0
   37.6880   31.4610   46.5380 N   0  0  0  0  0  0  0  0  0  0  0  0
   38.4140   32.4830   45.8530 C   0  0  0  0  0  2  0  0  0  0  0  0
   39.3360   31.9970   44.7830 C   0  0  0  0  0  2  0  0  0  0  0  0
   38.6210   31.0710   43.8230 C   0  0  0  0  0  3  0  0  0  0  0  0
   39.2880   30.6850   43.0560 H   0  0  0  0  0  0  0  0  0  0  0  0
   38.0120   29.9690   44.6910 C   0  0  0  0  0  2  0  0  0  0  0  0
   36.9780   30.6780   45.5550 C   0  0  0  0  0  2  0  0  0  0  0  0
   35.2990   29.3730   50.0860 C   0  0  0  0  0  0  0  0  0  0  0  0
   35.2700   29.0800   51.4270 F   0  0  0  0  0  0  0  0  0  0  0  0
   34.0950   30.0270   49.7940 F   0  0  0  0  0  0  0  0  0  0  0  0
   35.2250   28.1780   49.3960 F   0  0  0  0  0  0  0  0  0  0  0  0
  1  6  1  0  0  0  0
  1  7  1  0  0  0  0
  2  1  2  0  0  0  0
  3  4  2  0  0  0  0
  3  2  1  0  0  0  0
  4  5  1  0  0  0  0
  5 16  1  0  0  0  0
  5  6  2  0  0  0  0
  8  2  1  0  0  0  0
  9  3  1  0  0  0  0
 10  9  1  0  0  0  0
 11 10  1  0  0  0  0
 12 14  1  0  0  0  0
 12 11  1  0  0  0  0
 13 12  1  0  0  0  0
 14 15  1  0  0  0  0
 15  9  1  0  0  0  0
 16 17  1  0  0  0  0
 18 16  1  0  0  0  0
 19 16  1  0  0  0  0
M  END
>  <minimizedAffinity>
-5.00952625

>  <minimizedRMSD>
0.689436793

$$$$
