
 OpenBabel03272510003D

 19 20  0  0  0  0  0  0  0  0999 V2000
   37.8580   32.1350   49.7970 C   0  0  0  0  0  0  0  0  0  0  0  0
   38.5560   32.2090   48.5930 C   0  0  0  0  0  0  0  0  0  0  0  0
   38.0020   31.5900   47.4760 C   0  0  0  0  0  0  0  0  0  0  0  0
   36.8140   30.9500   47.6230 N   0  0  0  0  0  0  0  0  0  0  0  0
   36.1720   30.9000   48.7960 C   0  0  0  0  0  0  0  0  0  0  0  0
   36.6920   31.4890   49.8760 N   0  0  0  0  0  0  0  0  0  0  0  0
   38.3670   32.6440   50.6000 H   0  0  0  0  0  0  0  0  0  0  0  0
   39.4870   32.6950   48.4170 H   0  0  0  0  0  0  0  0  0  0  0  0
   38.5380   31.5400   46.1580 N   0  0  0  0  0  0  0  0  0  0  0  0
   38.2200   32.4350   45.0920 C   0  0  0  0  0  2  0  0  0  0  0  0
   39.3930   33.1150   44.4630 C   0  0  0  0  0  2  0  0  0  0  0  0
   40.4550   32.1140   44.0630 C   0  0  0  0  0  3  0  0  0  0  0  0
   41.3280   32.5980   43.6310 H   0  0  0  0  0  0  0  0  0  0  0  0
   40.7770   31.3270   45.3340 C   0  0  0  0  0  2  0  0  0  0  0  0
   39.4940   30.5780   45.6650 C   0  0  0  0  0  2  0  0  0  0  0  0
   34.8740   30.1770   48.8740 C   0  0  0  0  0  0  0  0  0  0  0  0
   34.1960   30.3910   50.0490 F   0  0  0  0  0  0  0  0  0  0  0  0
   34.0190   30.5790   47.8400 F   0  0  0  0  0  0  0  0  0  0  0  0
   35.0050   28.8120   48.7100 F   0  0  0  0  0  0  0  0  0  0  0  0
  1  6  1  0  0  0  0
  1  7  1  0  0  0  0
  2  1  2  0  0  0  0
  3  4  2  0  0  0  0
  3  2  1  0  0  0  0
  4  5  1  0  0  0  0
  5 16  1  0  0  0  0
  5  6  2  0  0  0  0
  8  2  1  0  0  0  0
  9  3  1  0  0  0  0
 10  9  1  0  0  0  0
 11 10  1  0  0  0  0
 12 11  1  0  0  0  0
 12 14  1  0  0  0  0
 13 12  1  0  0  0  0
 14 15  1  0  0  0  0
 15  9  1  0  0  0  0
 16 17  1  0  0  0  0
 18 16  1  0  0  0  0
 19 16  1  0  0  0  0
M  END
>  <minimizedAffinity>
-5.48996305

>  <minimizedRMSD>
1.92512476

$$$$
