
 OpenBabel03272508463D

 38 42  0  0  0  0  0  0  0  0999 V2000
   35.5140   29.5740   49.6440 C   0  0  0  0  0  0  0  0  0  0  0  0
   36.5380   29.2000   50.4980 C   0  0  0  0  0  0  0  0  0  0  0  0
   37.6790   29.7030   49.8680 C   0  0  0  0  0  0  0  0  0  0  0  0
   37.2960   30.3360   48.7010 C   0  0  0  0  0  0  0  0  0  0  0  0
   35.9920   30.2370   48.6010 O   0  0  0  0  0  0  0  0  0  0  0  0
   36.5110   28.6590   51.4220 H   0  0  0  0  0  0  0  0  0  0  0  0
   38.6970   29.6130   50.2340 H   0  0  0  0  0  0  0  0  0  0  0  0
   38.6050   32.2780   47.9940 C   0  0  0  0  0  0  0  0  0  0  0  0
   38.1690   30.9960   47.7460 C   0  0  0  0  0  0  0  0  0  0  0  0
   38.5510   30.3210   46.5970 C   0  0  0  0  0  0  0  0  0  0  0  0
   39.3800   30.9230   45.6690 C   0  0  0  0  0  0  0  0  0  0  0  0
   39.9130   30.5370   44.4850 N   0  0  0  0  0  0  0  0  0  0  0  0
   40.6450   31.5530   44.0370 N   0  0  0  0  0  0  0  0  0  0  0  0
   40.5890   32.5810   44.9140 C   0  0  0  0  0  0  0  0  0  0  0  0
   39.7850   32.2090   45.9720 C   0  0  0  0  0  0  0  0  0  0  0  0
   39.4480   32.9380   47.0890 C   0  0  0  0  0  0  0  0  0  0  0  0
   38.2710   32.7580   48.9150 H   0  0  0  0  0  0  0  0  0  0  0  0
   38.1920   29.3110   46.4280 H   0  0  0  0  0  0  0  0  0  0  0  0
   39.7120   29.5850   44.0980 H   0  0  0  0  0  0  0  0  0  0  0  0
   41.1180   33.5260   44.7460 H   0  0  0  0  0  0  0  0  0  0  0  0
   39.7850   33.9260   47.2760 H   0  0  0  0  0  0  0  0  0  0  0  0
   34.1090   29.2670   49.8820 C   0  0  0  0  0  0  0  0  0  0  0  0
   33.5360   29.8070   50.8480 O   0  0  0  0  0  0  0  0  0  0  0  0
   31.4370   27.2250   48.4600 C   0  0  0  0  0  0  0  0  0  0  0  0
   32.0430   26.6110   47.3670 C   0  0  0  0  0  0  0  0  0  0  0  0
   33.3610   26.8960   47.1210 C   0  0  0  0  0  0  0  0  0  0  0  0
   34.0260   27.7430   47.9200 N   0  0  0  0  0  0  0  0  0  0  0  0
   33.4170   28.3400   48.9920 C   0  0  0  0  0  0  0  0  0  0  0  0
   32.1240   28.0680   49.2440 N   0  0  0  0  0  0  0  0  0  0  0  0
   30.3920   27.0130   48.6730 H   0  0  0  0  0  0  0  0  0  0  0  0
   31.4640   25.9510   46.7730 H   0  0  0  0  0  0  0  0  0  0  0  0
   34.0470   26.3230   46.0440 N   0  0  0  0  0  0  0  0  0  0  0  0
   34.6200   24.9930   46.0190 C   0  0  0  0  0  2  0  0  0  0  0  0
   33.7710   24.1940   45.0540 C   0  0  0  0  0  2  0  0  0  0  0  0
   33.8230   24.7830   43.6930 C   0  0  0  0  0  3  0  0  0  0  0  0
   32.9660   24.3580   43.0980 H   0  0  0  0  0  0  0  0  0  0  0  0
   33.7060   26.2750   43.6130 C   0  0  0  0  0  2  0  0  0  0  0  0
   34.2660   27.0170   44.7960 C   0  0  0  0  0  2  0  0  0  0  0  0
  1 22  1  0  0  0  0
  1  2  2  0  0  0  0
  2  6  1  0  0  0  0
  3  7  1  0  0  0  0
  3  2  1  0  0  0  0
  4  3  2  0  0  0  0
  5  4  1  0  0  0  0
  5  1  1  0  0  0  0
  8 17  1  0  0  0  0
  9  8  1  0  0  0  0
  9  4  1  0  0  0  0
 10  9  2  0  0  0  0
 11 15  2  0  0  0  0
 11 10  1  0  0  0  0
 12 11  1  0  0  0  0
 13 12  1  0  0  0  0
 13 14  2  0  0  0  0
 14 15  1  0  0  0  0
 15 16  1  0  0  0  0
 16 21  1  0  0  0  0
 16  8  2  0  0  0  0
 18 10  1  0  0  0  0
 19 12  1  0  0  0  0
 20 14  1  0  0  0  0
 22 23  2  0  0  0  0
 24 30  1  0  0  0  0
 24 29  1  0  0  0  0
 25 24  2  0  0  0  0
 26 25  1  0  0  0  0
 26 27  2  0  0  0  0
 27 28  1  0  0  0  0
 28 29  2  0  0  0  0
 28 22  1  0  0  0  0
 31 25  1  0  0  0  0
 32 26  1  0  0  0  0
 33 32  1  0  0  0  0
 34 33  1  0  0  0  0
 35 34  1  0  0  0  0
 36 35  1  0  0  0  0
 37 35  1  0  0  0  0
 37 38  1  0  0  0  0
 38 32  1  0  0  0  0
M  END
>  <minimizedAffinity>
-6.31530905

>  <minimizedRMSD>
0.679973006

$$$$
