
 OpenBabel03272509323D

 39 43  0  0  1  0  0  0  0  0999 V2000
   37.4250   31.4960   48.5080 C   0  0  1  0  0  0  0  0  0  0  0  0
   38.6890   32.2270   48.7140 C   0  0  0  0  0  0  0  0  0  0  0  0
   38.6910   31.1750   47.6650 C   0  0  2  0  0  0  0  0  0  0  0  0
   36.6500   31.8860   47.8710 H   0  0  0  0  0  0  0  0  0  0  0  0
   39.2040   31.9840   49.7040 H   0  0  0  0  0  0  0  0  0  0  0  0
   38.5530   33.2910   48.6240 H   0  0  0  0  0  0  0  0  0  0  0  0
   38.8660   30.1090   47.6990 H   0  0  0  0  0  0  0  0  0  0  0  0
   38.8230   31.7830   46.3170 C   0  0  0  0  0  0  0  0  0  0  0  0
   39.7620   32.8220   46.3420 C   0  0  0  0  0  0  0  0  0  0  0  0
   40.1220   33.4840   45.1870 C   0  0  0  0  0  0  0  0  0  0  0  0
   39.5580   33.1340   43.9560 C   0  0  0  0  0  0  0  0  0  0  0  0
   38.6380   32.1090   43.9590 C   0  0  0  0  0  0  0  0  0  0  0  0
   37.9880   31.6640   42.8300 C   0  0  0  0  0  0  0  0  0  0  0  0
   37.0550   30.6490   42.8130 C   0  0  0  0  0  0  0  0  0  0  0  0
   36.7420   30.0290   44.0090 C   0  0  0  0  0  0  0  0  0  0  0  0
   37.3780   30.4560   45.1530 C   0  0  0  0  0  0  0  0  0  0  0  0
   38.3020   31.4730   45.1140 C   0  0  0  0  0  0  0  0  0  0  0  0
   40.3750   33.3120   47.0680 H   0  0  0  0  0  0  0  0  0  0  0  0
   40.8140   34.2900   45.0240 H   0  0  0  0  0  0  0  0  0  0  0  0
   39.7240   33.5430   42.9670 H   0  0  0  0  0  0  0  0  0  0  0  0
   38.2160   32.1370   41.8630 H   0  0  0  0  0  0  0  0  0  0  0  0
   36.5750   30.3400   41.8930 H   0  0  0  0  0  0  0  0  0  0  0  0
   36.0210   29.2250   44.0840 H   0  0  0  0  0  0  0  0  0  0  0  0
   37.1130   29.9460   46.0970 H   0  0  0  0  0  0  0  0  0  0  0  0
   35.4120   29.1280   50.6440 C   0  0  0  0  0  0  0  0  0  0  0  0
   35.7390   30.1760   49.7280 C   0  0  0  0  0  0  0  0  0  0  0  0
   37.0690   30.4160   49.4570 C   0  0  0  0  0  0  0  0  0  0  0  0
   38.0060   29.6240   50.0940 N   0  0  0  0  0  0  0  0  0  0  0  0
   37.6650   28.6550   50.9430 C   0  0  0  0  0  0  0  0  0  0  0  0
   36.3700   28.3920   51.2300 N   0  0  0  0  0  0  0  0  0  0  0  0
   34.3610   28.9730   50.8290 H   0  0  0  0  0  0  0  0  0  0  0  0
   35.0050   30.7770   49.2440 H   0  0  0  0  0  0  0  0  0  0  0  0
   38.6700   27.8660   51.5720 N   0  0  0  0  0  0  0  0  0  0  0  0
   38.6150   27.5630   52.9910 C   0  0  0  0  0  2  0  0  0  0  0  0
   39.4400   26.3170   53.2250 C   0  0  0  0  0  2  0  0  0  0  0  0
   39.1540   25.3170   52.1510 C   0  0  0  0  0  3  0  0  0  0  0  0
   38.0360   25.2100   52.0590 H   0  0  0  0  0  0  0  0  0  0  0  0
   39.7210   25.8310   50.8460 C   0  0  0  0  0  2  0  0  0  0  0  0
   39.7850   27.3390   50.8060 C   0  0  0  0  0  2  0  0  0  0  0  0
  1  4  1  6  0  0  0
  1  2  1  0  0  0  0
  1 27  1  0  0  0  0
  2  5  1  0  0  0  0
  3  7  1  1  0  0  0
  3  1  1  0  0  0  0
  3  2  1  0  0  0  0
  6  2  1  0  0  0  0
  8  9  1  0  0  0  0
  8  3  1  0  0  0  0
  9 18  1  0  0  0  0
 10  9  2  0  0  0  0
 11 12  2  0  0  0  0
 11 10  1  0  0  0  0
 12 17  1  0  0  0  0
 13 12  1  0  0  0  0
 14 13  2  0  0  0  0
 14 15  1  0  0  0  0
 15 23  1  0  0  0  0
 15 16  2  0  0  0  0
 16 24  1  0  0  0  0
 17 16  1  0  0  0  0
 17  8  2  0  0  0  0
 19 10  1  0  0  0  0
 20 11  1  0  0  0  0
 21 13  1  0  0  0  0
 22 14  1  0  0  0  0
 25 31  1  0  0  0  0
 25 30  1  0  0  0  0
 26 25  2  0  0  0  0
 27 26  1  0  0  0  0
 27 28  2  0  0  0  0
 28 29  1  0  0  0  0
 29 30  2  0  0  0  0
 29 33  1  0  0  0  0
 32 26  1  0  0  0  0
 33 34  1  0  0  0  0
 34 35  1  0  0  0  0
 36 35  1  0  0  0  0
 37 36  1  0  0  0  0
 38 36  1  0  0  0  0
 39 38  1  0  0  0  0
 39 33  1  0  0  0  0
M  END
>  <minimizedAffinity>
0.741301775

>  <minimizedRMSD>
1.72602689

$$$$
