
 OpenBabel03272510003D

 19 20  0  0  0  0  0  0  0  0999 V2000
   37.9880   32.9420   49.5950 C   0  0  0  0  0  0  0  0  0  0  0  0
   38.5310   32.9150   48.3110 C   0  0  0  0  0  0  0  0  0  0  0  0
   38.1010   31.9190   47.4380 C   0  0  0  0  0  0  0  0  0  0  0  0
   37.1760   31.0320   47.8880 N   0  0  0  0  0  0  0  0  0  0  0  0
   36.6770   31.0890   49.1270 C   0  0  0  0  0  0  0  0  0  0  0  0
   37.0820   32.0390   49.9750 N   0  0  0  0  0  0  0  0  0  0  0  0
   38.3840   33.7470   50.1920 H   0  0  0  0  0  0  0  0  0  0  0  0
   39.2550   33.5810   47.9040 H   0  0  0  0  0  0  0  0  0  0  0  0
   38.5170   31.7050   46.0940 N   0  0  0  0  0  0  0  0  0  0  0  0
   39.5190   30.7810   45.6650 C   0  0  0  0  0  2  0  0  0  0  0  0
   39.0760   29.8030   44.6280 C   0  0  0  0  0  2  0  0  0  0  0  0
   38.4180   30.5030   43.4600 C   0  0  0  0  0  3  0  0  0  0  0  0
   38.0640   29.8010   42.7090 H   0  0  0  0  0  0  0  0  0  0  0  0
   37.2940   31.3450   44.0650 C   0  0  0  0  0  2  0  0  0  0  0  0
   38.0010   32.3810   44.9270 C   0  0  0  0  0  2  0  0  0  0  0  0
   35.6680   30.0780   49.5430 C   0  0  0  0  0  0  0  0  0  0  0  0
   35.7420   29.7430   50.8730 F   0  0  0  0  0  0  0  0  0  0  0  0
   34.3690   30.5530   49.3220 F   0  0  0  0  0  0  0  0  0  0  0  0
   35.7430   28.9080   48.8130 F   0  0  0  0  0  0  0  0  0  0  0  0
  1  6  1  0  0  0  0
  1  7  1  0  0  0  0
  2  1  2  0  0  0  0
  3  4  2  0  0  0  0
  3  2  1  0  0  0  0
  4  5  1  0  0  0  0
  5 16  1  0  0  0  0
  5  6  2  0  0  0  0
  8  2  1  0  0  0  0
  9  3  1  0  0  0  0
 10  9  1  0  0  0  0
 11 10  1  0  0  0  0
 12 14  1  0  0  0  0
 12 11  1  0  0  0  0
 13 12  1  0  0  0  0
 14 15  1  0  0  0  0
 15  9  1  0  0  0  0
 16 17  1  0  0  0  0
 18 16  1  0  0  0  0
 19 16  1  0  0  0  0
M  END
>  <minimizedAffinity>
-5.21145535

>  <minimizedRMSD>
1.79329991

$$$$
