
 OpenBabel03272508463D

 38 42  0  0  0  0  0  0  0  0999 V2000
   35.5450   29.6020   49.6310 C   0  0  0  0  0  0  0  0  0  0  0  0
   36.5610   29.2760   50.5140 C   0  0  0  0  0  0  0  0  0  0  0  0
   37.6920   29.8440   49.9230 C   0  0  0  0  0  0  0  0  0  0  0  0
   37.3120   30.4650   48.7490 C   0  0  0  0  0  0  0  0  0  0  0  0
   36.0180   30.2980   48.6080 O   0  0  0  0  0  0  0  0  0  0  0  0
   36.5350   28.7260   51.4330 H   0  0  0  0  0  0  0  0  0  0  0  0
   38.7020   29.8050   50.3190 H   0  0  0  0  0  0  0  0  0  0  0  0
   38.6990   32.4010   48.1870 C   0  0  0  0  0  0  0  0  0  0  0  0
   38.1770   31.1790   47.8250 C   0  0  0  0  0  0  0  0  0  0  0  0
   38.4630   30.6160   46.5920 C   0  0  0  0  0  0  0  0  0  0  0  0
   39.2820   31.2710   45.6910 C   0  0  0  0  0  0  0  0  0  0  0  0
   39.7360   30.9900   44.4470 N   0  0  0  0  0  0  0  0  0  0  0  0
   40.5050   32.0080   44.0720 N   0  0  0  0  0  0  0  0  0  0  0  0
   40.5500   32.9350   45.0560 C   0  0  0  0  0  0  0  0  0  0  0  0
   39.7770   32.4920   46.1090 C   0  0  0  0  0  0  0  0  0  0  0  0
   39.5360   33.1100   47.3150 C   0  0  0  0  0  0  0  0  0  0  0  0
   38.4370   32.7930   49.1710 H   0  0  0  0  0  0  0  0  0  0  0  0
   38.0370   29.6510   46.3340 H   0  0  0  0  0  0  0  0  0  0  0  0
   39.4600   30.0990   43.9700 H   0  0  0  0  0  0  0  0  0  0  0  0
   41.1270   33.8620   44.9630 H   0  0  0  0  0  0  0  0  0  0  0  0
   39.9400   34.0510   47.5890 H   0  0  0  0  0  0  0  0  0  0  0  0
   34.1510   29.2180   49.8250 C   0  0  0  0  0  0  0  0  0  0  0  0
   33.5710   29.5840   50.8650 O   0  0  0  0  0  0  0  0  0  0  0  0
   31.6050   27.1720   48.1950 C   0  0  0  0  0  0  0  0  0  0  0  0
   32.1500   26.9120   46.9410 C   0  0  0  0  0  0  0  0  0  0  0  0
   33.3840   27.4360   46.6560 C   0  0  0  0  0  0  0  0  0  0  0  0
   34.0280   28.1730   47.5720 N   0  0  0  0  0  0  0  0  0  0  0  0
   33.4800   28.4210   48.8030 C   0  0  0  0  0  0  0  0  0  0  0  0
   32.2690   27.9120   49.0940 N   0  0  0  0  0  0  0  0  0  0  0  0
   30.6270   26.7660   48.4410 H   0  0  0  0  0  0  0  0  0  0  0  0
   31.5910   26.3220   46.2590 H   0  0  0  0  0  0  0  0  0  0  0  0
   34.0040   27.2240   45.4190 N   0  0  0  0  0  0  0  0  0  0  0  0
   34.2590   25.9330   44.8120 C   0  0  0  0  0  2  0  0  0  0  0  0
   33.3290   25.8450   43.6210 C   0  0  0  0  0  2  0  0  0  0  0  0
   33.6230   26.9210   42.6430 C   0  0  0  0  0  3  0  0  0  0  0  0
   32.7400   27.0070   41.9470 H   0  0  0  0  0  0  0  0  0  0  0  0
   33.8560   28.2890   43.2130 C   0  0  0  0  0  2  0  0  0  0  0  0
   34.4750   28.3050   44.5830 C   0  0  0  0  0  2  0  0  0  0  0  0
  1 22  1  0  0  0  0
  1  2  2  0  0  0  0
  2  6  1  0  0  0  0
  3  7  1  0  0  0  0
  3  2  1  0  0  0  0
  4  3  2  0  0  0  0
  5  4  1  0  0  0  0
  5  1  1  0  0  0  0
  8 17  1  0  0  0  0
  9  8  1  0  0  0  0
  9  4  1  0  0  0  0
 10  9  2  0  0  0  0
 11 15  2  0  0  0  0
 11 10  1  0  0  0  0
 12 11  1  0  0  0  0
 13 12  1  0  0  0  0
 13 14  2  0  0  0  0
 14 15  1  0  0  0  0
 15 16  1  0  0  0  0
 16 21  1  0  0  0  0
 16  8  2  0  0  0  0
 18 10  1  0  0  0  0
 19 12  1  0  0  0  0
 20 14  1  0  0  0  0
 22 23  2  0  0  0  0
 24 30  1  0  0  0  0
 24 29  1  0  0  0  0
 25 24  2  0  0  0  0
 26 25  1  0  0  0  0
 26 27  2  0  0  0  0
 27 28  1  0  0  0  0
 28 29  2  0  0  0  0
 28 22  1  0  0  0  0
 31 25  1  0  0  0  0
 32 26  1  0  0  0  0
 33 32  1  0  0  0  0
 34 33  1  0  0  0  0
 35 37  1  0  0  0  0
 35 34  1  0  0  0  0
 36 35  1  0  0  0  0
 37 38  1  0  0  0  0
 38 32  1  0  0  0  0
M  END
>  <minimizedAffinity>
-6.34987402

>  <minimizedRMSD>
1.34382224

$$$$
