
 OpenBabel03272502223D

 27 29  0  0  0  0  0  0  0  0999 V2000
   36.0220   30.5000   49.7330 C   0  0  0  0  0  0  0  0  0  0  0  0
   36.8660   30.9490   48.7210 C   0  0  0  0  0  0  0  0  0  0  0  0
   36.5280   30.7060   47.4070 C   0  0  0  0  0  0  0  0  0  0  0  0
   35.3790   30.0350   47.1830 N   0  0  0  0  0  0  0  0  0  0  0  0
   34.5680   29.6040   48.1670 C   0  0  0  0  0  0  0  0  0  0  0  0
   34.8920   29.8380   49.4520 N   0  0  0  0  0  0  0  0  0  0  0  0
   36.3130   30.7050   50.7660 H   0  0  0  0  0  0  0  0  0  0  0  0
   37.7820   31.4820   48.8790 H   0  0  0  0  0  0  0  0  0  0  0  0
   33.3700   28.9030   47.8600 N   0  0  0  0  0  0  0  0  0  0  0  0
   32.8220   27.9070   48.7610 C   0  0  0  0  0  0  0  0  0  0  0  0
   32.5570   26.6850   47.9080 C   0  0  0  0  0  0  0  0  0  0  0  0
   31.5730   26.9650   46.8160 C   0  0  0  0  0  0  0  0  0  0  0  0
   30.6360   26.4110   46.9740 H   0  0  0  0  0  0  0  0  0  0  0  0
   31.3120   28.4500   46.6830 C   0  0  0  0  0  0  0  0  0  0  0  0
   32.6610   29.1710   46.6240 C   0  0  0  0  0  0  0  0  0  0  0  0
   37.3220   31.1300   46.2630 C   0  0  0  0  0  0  0  0  0  0  0  0
   37.0230   30.7110   44.9780 C   0  0  0  0  0  0  0  0  0  0  0  0
   37.7590   31.1010   43.8760 C   0  0  0  0  0  0  0  0  0  0  0  0
   38.8160   31.9250   44.0510 N   0  0  0  0  0  0  0  0  0  0  0  0
   39.0890   32.3190   45.2970 C   0  0  0  0  0  0  0  0  0  0  0  0
   38.3800   31.9450   46.3660 N   0  0  0  0  0  0  0  0  0  0  0  0
   36.1850   30.0490   44.7830 H   0  0  0  0  0  0  0  0  0  0  0  0
   37.4920   30.7520   42.8930 H   0  0  0  0  0  0  0  0  0  0  0  0
   40.2510   33.2310   45.5300 C   0  0  0  0  0  0  0  0  0  0  0  0
   40.1550   33.7310   46.8250 F   0  0  0  0  0  0  0  0  0  0  0  0
   41.4470   32.5610   45.3280 F   0  0  0  0  0  0  0  0  0  0  0  0
   40.2240   34.3120   44.6920 F   0  0  0  0  0  0  0  0  0  0  0  0
  1  7  1  0  0  0  0
  2  8  1  0  0  0  0
  2  1  2  0  0  0  0
  3  2  1  0  0  0  0
  4  3  2  0  0  0  0
  4  5  1  0  0  0  0
  5  6  2  0  0  0  0
  6  1  1  0  0  0  0
  9  5  1  0  0  0  0
  9 10  1  0  0  0  0
 11 10  1  0  0  0  0
 12 13  1  0  0  0  0
 12 11  1  0  0  0  0
 14 12  1  0  0  0  0
 15 14  1  0  0  0  0
 15  9  1  0  0  0  0
 16 21  1  0  0  0  0
 16  3  1  0  0  0  0
 17 16  2  0  0  0  0
 18 19  2  0  0  0  0
 18 17  1  0  0  0  0
 19 20  1  0  0  0  0
 20 24  1  0  0  0  0
 20 21  2  0  0  0  0
 22 17  1  0  0  0  0
 23 18  1  0  0  0  0
 24 25  1  0  0  0  0
 26 24  1  0  0  0  0
 27 24  1  0  0  0  0
M  END
>  <minimizedAffinity>
-6.0666995

>  <minimizedRMSD>
2.16611505

$$$$
