
 OpenBabel03272502503D

 25 27  0  0  0  0  0  0  0  0999 V2000
   36.0120   30.2900   48.6340 C   0  0  0  0  0  0  0  0  0  0  0  0
   36.0570   29.3250   49.6310 C   0  0  0  0  0  0  0  0  0  0  0  0
   35.0940   28.3380   49.7130 C   0  0  0  0  0  0  0  0  0  0  0  0
   34.0990   28.3800   48.7490 C   0  0  0  0  0  0  0  0  0  0  0  0
   34.0390   29.3370   47.7470 C   0  0  0  0  0  0  0  0  0  0  0  0
   35.0170   30.2750   47.7260 N   0  0  0  0  0  0  0  0  0  0  0  0
   36.8760   29.3830   50.3330 H   0  0  0  0  0  0  0  0  0  0  0  0
   35.1520   27.6110   50.4860 H   0  0  0  0  0  0  0  0  0  0  0  0
   33.3550   27.5820   48.8470 H   0  0  0  0  0  0  0  0  0  0  0  0
   32.9830   29.2830   46.8220 N   0  0  0  0  0  0  0  0  0  0  0  0
   31.8380   28.4520   47.1360 C   0  0  0  0  0  0  0  0  0  0  0  0
   30.9530   28.4450   45.9080 C   0  0  0  0  0  0  0  0  0  0  0  0
   30.5200   29.8800   45.6130 C   0  0  0  0  0  0  0  0  0  0  0  0
   29.8750   30.2440   46.4570 H   0  0  0  0  0  0  0  0  0  0  0  0
   31.6870   30.8040   45.5070 C   0  0  0  0  0  0  0  0  0  0  0  0
   32.9720   30.0100   45.5690 C   0  0  0  0  0  0  0  0  0  0  0  0
   38.0940   33.1790   49.4970 C   0  0  0  0  0  0  0  0  0  0  0  0
   39.0200   33.2220   48.4450 C   0  0  0  0  0  0  0  0  0  0  0  0
   38.9170   32.2580   47.4530 C   0  0  0  0  0  0  0  0  0  0  0  0
   37.9210   31.3200   47.5520 N   0  0  0  0  0  0  0  0  0  0  0  0
   37.0480   31.3120   48.5840 C   0  0  0  0  0  0  0  0  0  0  0  0
   37.1450   32.2370   49.5360 N   0  0  0  0  0  0  0  0  0  0  0  0
   38.1550   33.9200   50.2820 H   0  0  0  0  0  0  0  0  0  0  0  0
   39.7920   33.9870   48.4110 H   0  0  0  0  0  0  0  0  0  0  0  0
   39.6060   32.2370   46.6100 H   0  0  0  0  0  0  0  0  0  0  0  0
  1  2  1  0  0  0  0
  2  3  2  0  0  0  0
  2  7  1  0  0  0  0
  3  8  1  0  0  0  0
  4  9  1  0  0  0  0
  4  3  1  0  0  0  0
  5  4  2  0  0  0  0
  6  5  1  0  0  0  0
  6  1  2  0  0  0  0
 10 11  1  0  0  0  0
 10  5  1  0  0  0  0
 12 11  1  0  0  0  0
 13 12  1  0  0  0  0
 13 14  1  0  0  0  0
 15 16  1  0  0  0  0
 15 13  1  0  0  0  0
 16 10  1  0  0  0  0
 17 22  1  0  0  0  0
 17 23  1  0  0  0  0
 18 17  2  0  0  0  0
 19 20  2  0  0  0  0
 19 18  1  0  0  0  0
 20 21  1  0  0  0  0
 21  1  1  0  0  0  0
 21 22  2  0  0  0  0
 24 18  1  0  0  0  0
 25 19  1  0  0  0  0
M  END
>  <minimizedAffinity>
-5.65144157

>  <minimizedRMSD>
0.139348119

$$$$
