
 OpenBabel03262520223D

 30 32  0  0  0  0  0  0  0  0999 V2000
   34.7530   29.8670   45.4700 C   0  0  0  0  0  0  0  0  0  0  0  0
   33.9080   28.7420   45.4260 C   0  0  0  0  0  0  0  0  0  0  0  0
   33.5870   27.9540   46.4810 C   0  0  0  0  0  0  0  0  0  0  0  0
   34.0810   28.2080   47.7000 C   0  0  0  0  0  0  0  0  0  0  0  0
   34.8970   29.2890   47.7480 C   0  0  0  0  0  0  0  0  0  0  0  0
   35.1790   30.0240   46.6980 N   0  0  0  0  0  0  0  0  0  0  0  0
   33.4500   28.4620   44.4210 H   0  0  0  0  0  0  0  0  0  0  0  0
   32.8960   27.0830   46.2990 H   0  0  0  0  0  0  0  0  0  0  0  0
   33.8670   27.6290   48.5600 H   0  0  0  0  0  0  0  0  0  0  0  0
   35.5340   29.7280   48.9850 N   0  0  0  0  0  0  0  0  0  0  0  0
   36.6590   29.0630   49.5960 C   0  0  0  0  0  0  0  0  0  0  0  0
   37.8900   29.9460   49.6800 C   0  0  0  0  0  0  0  0  0  0  0  0
   37.5530   31.0940   50.6120 C   0  0  0  0  0  0  0  0  0  0  0  0
   37.2680   30.6500   51.5860 H   0  0  0  0  0  0  0  0  0  0  0  0
   36.3550   31.8050   50.0290 C   0  0  0  0  0  0  0  0  0  0  0  0
   35.1800   30.8510   49.7920 C   0  0  0  0  0  0  0  0  0  0  0  0
   33.7410   30.8830   43.5840 C   0  0  0  0  0  0  0  0  0  0  0  0
   34.9760   30.6490   44.2600 C   0  0  0  0  0  0  0  0  0  0  0  0
   36.0980   31.1980   43.7060 C   0  0  0  0  0  0  0  0  0  0  0  0
   35.9430   31.9270   42.5540 N   0  0  0  0  0  0  0  0  0  0  0  0
   34.7840   32.1390   41.9330 C   0  0  0  0  0  0  0  0  0  0  0  0
   33.6820   31.6010   42.4730 N   0  0  0  0  0  0  0  0  0  0  0  0
   34.8320   32.9330   40.7820 N   0  0  0  0  0  0  0  0  0  0  0  0
   32.7800   30.5110   43.9070 H   0  0  0  0  0  0  0  0  0  0  0  0
   35.2490   33.8880   40.7120 H   0  0  0  0  0  0  0  0  0  0  0  0
   34.4270   32.5840   39.8760 H   0  0  0  0  0  0  0  0  0  0  0  0
   37.3960   30.9920   44.3560 C   0  0  0  0  0  0  0  0  0  0  0  0
   37.5680   29.7080   44.5830 F   0  0  0  0  0  0  0  0  0  0  0  0
   38.4710   31.4930   43.6430 F   0  0  0  0  0  0  0  0  0  0  0  0
   37.4420   31.6720   45.6090 F   0  0  0  0  0  0  0  0  0  0  0  0
  1  6  1  0  0  0  0
  2  1  2  0  0  0  0
  2  3  1  0  0  0  0
  3  4  2  0  0  0  0
  4  5  1  0  0  0  0
  4  9  1  0  0  0  0
  5 10  1  0  0  0  0
  6  5  2  0  0  0  0
  7  2  1  0  0  0  0
  8  3  1  0  0  0  0
 10 11  1  0  0  0  0
 10 16  1  0  0  0  0
 11 12  1  0  0  0  0
 12 13  1  0  0  0  0
 13 14  1  0  0  0  0
 15 13  1  0  0  0  0
 16 15  1  0  0  0  0
 17 24  1  0  0  0  0
 17 18  1  0  0  0  0
 18  1  1  0  0  0  0
 19 18  2  0  0  0  0
 19 27  1  0  0  0  0
 20 19  1  0  0  0  0
 21 22  1  0  0  0  0
 21 20  2  0  0  0  0
 22 17  2  0  0  0  0
 23 21  1  0  0  0  0
 25 23  1  0  0  0  0
 26 23  1  0  0  0  0
 27 28  1  0  0  0  0
 27 30  1  0  0  0  0
 29 27  1  0  0  0  0
M  END
>  <minimizedAffinity>
-5.0366745

>  <minimizedRMSD>
3.91735721

$$$$
