
 OpenBabel03272506403D

 35 37  0  0  1  0  0  0  0  0999 V2000
   37.3320   27.7890   35.5000 O   0  0  0  0  0  0  0  0  0  0  0  0
   36.9800   27.7070   34.3180 C   0  0  0  0  0  0  0  0  0  0  0  0
   37.5600   26.7460   33.4070 C   0  0  2  0  0  0  0  0  0  0  0  0
   36.6500   26.9140   32.1540 C   0  0  0  0  0  0  0  0  0  0  0  0
   36.1470   28.3200   32.2870 C   0  0  0  0  0  0  0  0  0  0  0  0
   35.9840   28.5210   33.7000 N   0  0  0  0  0  0  0  0  0  0  0  0
   38.5930   26.9160   33.1170 H   0  0  0  0  0  0  0  0  0  0  0  0
   37.3330   26.8120   31.2900 H   0  0  0  0  0  0  0  0  0  0  0  0
   35.8410   26.1670   32.1660 H   0  0  0  0  0  0  0  0  0  0  0  0
   36.8050   29.0460   31.8050 H   0  0  0  0  0  0  0  0  0  0  0  0
   35.1240   28.3780   31.8140 H   0  0  0  0  0  0  0  0  0  0  0  0
   34.9930   29.4010   34.3210 C   0  0  0  0  0  0  0  0  0  0  0  0
   34.6850   28.8870   35.2780 H   0  0  0  0  0  0  0  0  0  0  0  0
   34.0810   29.4700   33.7090 H   0  0  0  0  0  0  0  0  0  0  0  0
   35.5700   30.6580   34.4860 N   0  0  0  0  0  0  0  0  0  0  0  0
   36.1250   31.0210   35.7190 C   0  0  0  0  0  2  0  0  0  0  0  0
   35.5370   32.3560   36.1300 C   0  0  0  0  0  2  0  0  0  0  0  0
   34.3880   32.7370   35.2180 C   0  0  0  0  0  3  0  0  0  0  0  0
   33.9570   33.6710   35.5740 H   0  0  0  0  0  0  0  0  0  0  0  0
   34.8220   32.7980   33.7670 C   0  0  0  0  0  2  0  0  0  0  0  0
   35.6550   31.5730   33.4300 C   0  0  0  0  0  2  0  0  0  0  0  0
   37.4140   25.3870   33.8240 O   0  0  0  0  0  0  0  0  0  0  0  0
   38.4670   24.8110   34.5300 C   0  0  0  0  0  0  0  0  0  0  0  0
   39.7400   25.0590   34.0550 C   0  0  0  0  0  0  0  0  0  0  0  0
   40.8140   24.4960   34.7400 C   0  0  0  0  0  0  0  0  0  0  0  0
   40.5640   23.7320   35.8380 N   0  0  0  0  0  0  0  0  0  0  0  0
   39.3180   23.5040   36.2830 C   0  0  0  0  0  0  0  0  0  0  0  0
   38.3020   24.0420   35.6280 N   0  0  0  0  0  0  0  0  0  0  0  0
   38.4170   23.3970   38.4730 C   0  0  0  0  0  0  0  0  0  0  0  0
   38.0180   24.6020   38.4780 O   0  0  0  0  0  0  0  0  0  0  0  0
   39.0940   22.6950   37.4340 N   0  0  0  0  0  0  0  0  0  0  0  0
   39.9070   25.6700   33.1800 H   0  0  0  0  0  0  0  0  0  0  0  0
   41.8310   24.6820   34.3780 H   0  0  0  0  0  0  0  0  0  0  0  0
   38.1630   22.9330   39.4190 H   0  0  0  0  0  0  0  0  0  0  0  0
   39.3540   21.6890   37.6010 H   0  0  0  0  0  0  0  0  0  0  0  0
  2  1  2  0  0  0  0
  3  7  1  6  0  0  0
  3 22  1  0  0  0  0
  3  2  1  0  0  0  0
  4  9  1  0  0  0  0
  4  5  1  0  0  0  0
  4  3  1  0  0  0  0
  5  6  1  0  0  0  0
  6  2  1  0  0  0  0
  6 12  1  0  0  0  0
  8  4  1  0  0  0  0
 10  5  1  0  0  0  0
 11  5  1  0  0  0  0
 12 15  1  0  0  0  0
 12 13  1  0  0  0  0
 14 12  1  0  0  0  0
 15 16  1  0  0  0  0
 16 17  1  0  0  0  0
 18 19  1  0  0  0  0
 18 17  1  0  0  0  0
 20 18  1  0  0  0  0
 21 20  1  0  0  0  0
 21 15  1  0  0  0  0
 22 23  1  0  0  0  0
 23 28  1  0  0  0  0
 24 23  2  0  0  0  0
 24 25  1  0  0  0  0
 25 26  2  0  0  0  0
 26 27  1  0  0  0  0
 27 31  1  0  0  0  0
 28 27  2  0  0  0  0
 29 30  2  0  0  0  0
 29 34  1  0  0  0  0
 31 35  1  0  0  0  0
 31 29  1  0  0  0  0
 32 24  1  0  0  0  0
 33 25  1  0  0  0  0
M  END
>  <minimizedAffinity>
-5.35154819

$$$$

 OpenBabel03272506403D

 35 37  0  0  1  0  0  0  0  0999 V2000
   36.9970   24.1450   32.1830 O   0  0  0  0  0  0  0  0  0  0  0  0
   37.2270   25.1290   32.8950 C   0  0  0  0  0  0  0  0  0  0  0  0
   37.9300   25.0210   34.1530 C   0  0  2  0  0  0  0  0  0  0  0  0
   38.1310   26.5190   34.5280 C   0  0  0  0  0  0  0  0  0  0  0  0
   37.0020   27.2020   33.8150 C   0  0  0  0  0  0  0  0  0  0  0  0
   36.8450   26.4690   32.5890 N   0  0  0  0  0  0  0  0  0  0  0  0
   37.4020   24.5240   34.9620 H   0  0  0  0  0  0  0  0  0  0  0  0
   37.9960   26.5590   35.6250 H   0  0  0  0  0  0  0  0  0  0  0  0
   39.1200   26.8680   34.1940 H   0  0  0  0  0  0  0  0  0  0  0  0
   36.0970   27.2560   34.4230 H   0  0  0  0  0  0  0  0  0  0  0  0
   37.3300   28.2470   33.5480 H   0  0  0  0  0  0  0  0  0  0  0  0
   36.3720   27.0300   31.3230 C   0  0  0  0  0  0  0  0  0  0  0  0
   35.2910   27.3050   31.4960 H   0  0  0  0  0  0  0  0  0  0  0  0
   36.3650   26.2700   30.5270 H   0  0  0  0  0  0  0  0  0  0  0  0
   37.2040   28.0940   30.9800 N   0  0  0  0  0  0  0  0  0  0  0  0
   36.6850   29.3900   30.8860 C   0  0  0  0  0  2  0  0  0  0  0  0
   37.0850   29.9660   29.5430 C   0  0  0  0  0  2  0  0  0  0  0  0
   37.6900   28.8930   28.6610 C   0  0  0  0  0  3  0  0  0  0  0  0
   37.9150   29.3290   27.6890 H   0  0  0  0  0  0  0  0  0  0  0  0
   38.8940   28.2450   29.3150 C   0  0  0  0  0  2  0  0  0  0  0  0
   38.5750   27.9150   30.7620 C   0  0  0  0  0  2  0  0  0  0  0  0
   39.2390   24.4600   34.0420 O   0  0  0  0  0  0  0  0  0  0  0  0
   39.7940   23.8810   35.1810 C   0  0  0  0  0  0  0  0  0  0  0  0
   41.1610   23.6790   35.1690 C   0  0  0  0  0  0  0  0  0  0  0  0
   41.7450   23.1020   36.2930 C   0  0  0  0  0  0  0  0  0  0  0  0
   40.9500   22.7640   37.3450 N   0  0  0  0  0  0  0  0  0  0  0  0
   39.6240   22.9690   37.3350 C   0  0  0  0  0  0  0  0  0  0  0  0
   39.0750   23.5190   36.2650 N   0  0  0  0  0  0  0  0  0  0  0  0
   38.1270   23.7060   39.0190 C   0  0  0  0  0  0  0  0  0  0  0  0
   38.1490   24.9220   38.6510 O   0  0  0  0  0  0  0  0  0  0  0  0
   38.8220   22.5990   38.4540 N   0  0  0  0  0  0  0  0  0  0  0  0
   41.7650   23.9570   34.3180 H   0  0  0  0  0  0  0  0  0  0  0  0
   42.8270   22.9330   36.3020 H   0  0  0  0  0  0  0  0  0  0  0  0
   37.4690   23.6060   39.8750 H   0  0  0  0  0  0  0  0  0  0  0  0
   38.6870   21.6520   38.8910 H   0  0  0  0  0  0  0  0  0  0  0  0
  1  2  2  0  0  0  0
  2  3  1  0  0  0  0
  3  4  1  0  0  0  0
  3  7  1  1  0  0  0
  4  8  1  0  0  0  0
  5 10  1  0  0  0  0
  5  4  1  0  0  0  0
  6  2  1  0  0  0  0
  6  5  1  0  0  0  0
  9  4  1  0  0  0  0
 11  5  1  0  0  0  0
 12 13  1  0  0  0  0
 12  6  1  0  0  0  0
 14 12  1  0  0  0  0
 15 12  1  0  0  0  0
 16 15  1  0  0  0  0
 17 16  1  0  0  0  0
 18 20  1  0  0  0  0
 18 17  1  0  0  0  0
 19 18  1  0  0  0  0
 20 21  1  0  0  0  0
 21 15  1  0  0  0  0
 22  3  1  0  0  0  0
 22 23  1  0  0  0  0
 23 28  1  0  0  0  0
 24 23  2  0  0  0  0
 24 25  1  0  0  0  0
 25 33  1  0  0  0  0
 25 26  2  0  0  0  0
 27 26  1  0  0  0  0
 27 31  1  0  0  0  0
 28 27  2  0  0  0  0
 29 34  1  0  0  0  0
 30 29  2  0  0  0  0
 31 35  1  0  0  0  0
 31 29  1  0  0  0  0
 32 24  1  0  0  0  0
M  END
>  <minimizedAffinity>
-5.30269957

$$$$

 OpenBabel03272506403D

 35 37  0  0  1  0  0  0  0  0999 V2000
   38.3700   24.2240   32.7200 O   0  0  0  0  0  0  0  0  0  0  0  0
   39.1070   24.7780   33.5430 C   0  0  0  0  0  0  0  0  0  0  0  0
   39.0380   26.1980   33.8060 C   0  0  2  0  0  0  0  0  0  0  0  0
   39.9920   26.3360   35.0290 C   0  0  0  0  0  0  0  0  0  0  0  0
   40.9190   25.1690   34.8690 C   0  0  0  0  0  0  0  0  0  0  0  0
   40.1000   24.1190   34.3290 N   0  0  0  0  0  0  0  0  0  0  0  0
   39.3840   26.8550   33.0130 H   0  0  0  0  0  0  0  0  0  0  0  0
   40.5220   27.2940   34.8700 H   0  0  0  0  0  0  0  0  0  0  0  0
   39.4190   26.3010   35.9680 H   0  0  0  0  0  0  0  0  0  0  0  0
   41.7940   25.4100   34.2620 H   0  0  0  0  0  0  0  0  0  0  0  0
   41.2600   24.8420   35.8930 H   0  0  0  0  0  0  0  0  0  0  0  0
   40.2980   22.6870   34.5570 C   0  0  0  0  0  0  0  0  0  0  0  0
   41.4140   22.5450   34.6480 H   0  0  0  0  0  0  0  0  0  0  0  0
   39.9890   22.0970   33.6820 H   0  0  0  0  0  0  0  0  0  0  0  0
   39.5630   22.3200   35.6820 N   0  0  0  0  0  0  0  0  0  0  0  0
   38.1820   22.1150   35.5830 C   0  0  0  0  0  2  0  0  0  0  0  0
   37.5010   22.9390   36.6570 C   0  0  0  0  0  2  0  0  0  0  0  0
   38.4900   23.8810   37.3140 C   0  0  0  0  0  3  0  0  0  0  0  0
   37.9560   24.4920   38.0400 H   0  0  0  0  0  0  0  0  0  0  0  0
   39.6620   23.1320   37.9140 C   0  0  0  0  0  2  0  0  0  0  0  0
   40.1740   22.1030   36.9220 C   0  0  0  0  0  2  0  0  0  0  0  0
   37.7560   26.6450   34.2510 O   0  0  0  0  0  0  0  0  0  0  0  0
   37.0250   27.4680   33.3970 C   0  0  0  0  0  0  0  0  0  0  0  0
   36.1810   28.3850   33.9940 C   0  0  0  0  0  0  0  0  0  0  0  0
   35.4380   29.2220   33.1660 C   0  0  0  0  0  0  0  0  0  0  0  0
   35.5730   29.1010   31.8180 N   0  0  0  0  0  0  0  0  0  0  0  0
   36.4000   28.2030   31.2590 C   0  0  0  0  0  0  0  0  0  0  0  0
   37.1040   27.4110   32.0510 N   0  0  0  0  0  0  0  0  0  0  0  0
   37.8410   28.3350   29.3820 C   0  0  0  0  0  0  0  0  0  0  0  0
   38.8750   28.6120   30.0650 O   0  0  0  0  0  0  0  0  0  0  0  0
   36.5140   28.1010   29.8420 N   0  0  0  0  0  0  0  0  0  0  0  0
   36.0940   28.4570   35.0680 H   0  0  0  0  0  0  0  0  0  0  0  0
   34.7630   29.9550   33.6210 H   0  0  0  0  0  0  0  0  0  0  0  0
   38.1090   28.2950   28.3320 H   0  0  0  0  0  0  0  0  0  0  0  0
   35.7710   27.8830   29.1290 H   0  0  0  0  0  0  0  0  0  0  0  0
  1  2  2  0  0  0  0
  2  3  1  0  0  0  0
  2  6  1  0  0  0  0
  3  7  1  6  0  0  0
  3 22  1  0  0  0  0
  3  4  1  0  0  0  0
  4  9  1  0  0  0  0
  5  4  1  0  0  0  0
  5 11  1  0  0  0  0
  6 12  1  0  0  0  0
  6  5  1  0  0  0  0
  8  4  1  0  0  0  0
 10  5  1  0  0  0  0
 12 13  1  0  0  0  0
 12 15  1  0  0  0  0
 14 12  1  0  0  0  0
 15 21  1  0  0  0  0
 16 15  1  0  0  0  0
 16 17  1  0  0  0  0
 17 18  1  0  0  0  0
 18 20  1  0  0  0  0
 18 19  1  0  0  0  0
 21 20  1  0  0  0  0
 23 24  1  0  0  0  0
 23 22  1  0  0  0  0
 24 32  1  0  0  0  0
 25 33  1  0  0  0  0
 25 24  2  0  0  0  0
 26 25  1  0  0  0  0
 27 26  2  0  0  0  0
 27 28  1  0  0  0  0
 28 23  2  0  0  0  0
 29 31  1  0  0  0  0
 29 30  2  0  0  0  0
 31 27  1  0  0  0  0
 34 29  1  0  0  0  0
 35 31  1  0  0  0  0
M  END
>  <minimizedAffinity>
-5.15789938

$$$$

 OpenBabel03272506403D

 35 37  0  0  1  0  0  0  0  0999 V2000
   36.5490   25.6830   32.1920 O   0  0  0  0  0  0  0  0  0  0  0  0
   36.8380   26.4510   33.1160 C   0  0  0  0  0  0  0  0  0  0  0  0
   37.6110   26.0230   34.2600 C   0  0  2  0  0  0  0  0  0  0  0  0
   37.8620   27.3740   34.9920 C   0  0  0  0  0  0  0  0  0  0  0  0
   36.7060   28.2200   34.5480 C   0  0  0  0  0  0  0  0  0  0  0  0
   36.4630   27.8270   33.1870 N   0  0  0  0  0  0  0  0  0  0  0  0
   37.1220   25.3360   34.9460 H   0  0  0  0  0  0  0  0  0  0  0  0
   37.7910   27.1320   36.0700 H   0  0  0  0  0  0  0  0  0  0  0  0
   38.8360   27.7940   34.6980 H   0  0  0  0  0  0  0  0  0  0  0  0
   35.8390   28.1190   35.2040 H   0  0  0  0  0  0  0  0  0  0  0  0
   37.0370   29.2980   34.5380 H   0  0  0  0  0  0  0  0  0  0  0  0
   35.9280   28.6950   32.1380 C   0  0  0  0  0  0  0  0  0  0  0  0
   35.4700   28.0020   31.3730 H   0  0  0  0  0  0  0  0  0  0  0  0
   36.7340   29.2310   31.6150 H   0  0  0  0  0  0  0  0  0  0  0  0
   35.0410   29.5940   32.7260 N   0  0  0  0  0  0  0  0  0  0  0  0
   33.7310   29.1980   33.0170 C   0  0  0  0  0  2  0  0  0  0  0  0
   32.7820   30.2190   32.4200 C   0  0  0  0  0  2  0  0  0  0  0  0
   33.5310   31.1770   31.5160 C   0  0  0  0  0  3  0  0  0  0  0  0
   32.8130   31.8590   31.0640 H   0  0  0  0  0  0  0  0  0  0  0  0
   34.6440   31.8900   32.2560 C   0  0  0  0  0  2  0  0  0  0  0  0
   35.4330   30.8890   33.0820 C   0  0  0  0  0  2  0  0  0  0  0  0
   38.9010   25.5050   33.9290 O   0  0  0  0  0  0  0  0  0  0  0  0
   39.5120   24.6560   34.8480 C   0  0  0  0  0  0  0  0  0  0  0  0
   40.8800   24.4970   34.7290 C   0  0  0  0  0  0  0  0  0  0  0  0
   41.5190   23.6540   35.6330 C   0  0  0  0  0  0  0  0  0  0  0  0
   40.7770   23.0280   36.5860 N   0  0  0  0  0  0  0  0  0  0  0  0
   39.4480   23.1960   36.6840 C   0  0  0  0  0  0  0  0  0  0  0  0
   38.8460   23.9990   35.8220 N   0  0  0  0  0  0  0  0  0  0  0  0
   38.0170   23.4200   38.5600 C   0  0  0  0  0  0  0  0  0  0  0  0
   38.0070   24.6890   38.5310 O   0  0  0  0  0  0  0  0  0  0  0  0
   38.7010   22.5210   37.6920 N   0  0  0  0  0  0  0  0  0  0  0  0
   41.4430   25.0070   33.9610 H   0  0  0  0  0  0  0  0  0  0  0  0
   42.6030   23.5150   35.5550 H   0  0  0  0  0  0  0  0  0  0  0  0
   37.3990   23.0780   39.3830 H   0  0  0  0  0  0  0  0  0  0  0  0
   38.5980   21.4880   37.8640 H   0  0  0  0  0  0  0  0  0  0  0  0
  1  2  2  0  0  0  0
  2  6  1  0  0  0  0
  2  3  1  0  0  0  0
  3  7  1  1  0  0  0
  3  4  1  0  0  0  0
  4  8  1  0  0  0  0
  5  4  1  0  0  0  0
  5 10  1  0  0  0  0
  6  5  1  0  0  0  0
  9  4  1  0  0  0  0
 11  5  1  0  0  0  0
 12 15  1  0  0  0  0
 12  6  1  0  0  0  0
 13 12  1  0  0  0  0
 14 12  1  0  0  0  0
 15 16  1  0  0  0  0
 15 21  1  0  0  0  0
 17 16  1  0  0  0  0
 18 20  1  0  0  0  0
 18 17  1  0  0  0  0
 19 18  1  0  0  0  0
 20 21  1  0  0  0  0
 22  3  1  0  0  0  0
 22 23  1  0  0  0  0
 23 28  1  0  0  0  0
 24 23  2  0  0  0  0
 24 25  1  0  0  0  0
 25 26  2  0  0  0  0
 26 27  1  0  0  0  0
 27 31  1  0  0  0  0
 28 27  2  0  0  0  0
 29 34  1  0  0  0  0
 30 29  2  0  0  0  0
 31 35  1  0  0  0  0
 31 29  1  0  0  0  0
 32 24  1  0  0  0  0
 33 25  1  0  0  0  0
M  END
>  <minimizedAffinity>
-5.13144827

$$$$

 OpenBabel03272506403D

 35 37  0  0  1  0  0  0  0  0999 V2000
   38.9740   24.9100   32.6040 O   0  0  0  0  0  0  0  0  0  0  0  0
   38.4740   25.3340   33.6510 C   0  0  0  0  0  0  0  0  0  0  0  0
   37.7400   26.5790   33.7070 C   0  0  2  0  0  0  0  0  0  0  0  0
   37.1660   26.5390   35.1530 C   0  0  0  0  0  0  0  0  0  0  0  0
   38.1420   25.6650   35.8820 C   0  0  0  0  0  0  0  0  0  0  0  0
   38.5440   24.6790   34.9170 N   0  0  0  0  0  0  0  0  0  0  0  0
   38.3210   27.4890   33.5830 H   0  0  0  0  0  0  0  0  0  0  0  0
   37.2200   27.5850   35.5100 H   0  0  0  0  0  0  0  0  0  0  0  0
   36.1450   26.1280   35.1490 H   0  0  0  0  0  0  0  0  0  0  0  0
   38.9690   26.2320   36.3130 H   0  0  0  0  0  0  0  0  0  0  0  0
   37.5920   25.1290   36.7080 H   0  0  0  0  0  0  0  0  0  0  0  0
   38.9470   23.3060   35.2270 C   0  0  0  0  0  0  0  0  0  0  0  0
   39.0690   22.7920   34.2300 H   0  0  0  0  0  0  0  0  0  0  0  0
   38.1440   22.7640   35.7500 H   0  0  0  0  0  0  0  0  0  0  0  0
   40.0970   23.3560   36.0110 N   0  0  0  0  0  0  0  0  0  0  0  0
   41.2790   23.8950   35.4900 C   0  0  0  0  0  2  0  0  0  0  0  0
   42.3950   22.8930   35.7100 C   0  0  0  0  0  2  0  0  0  0  0  0
   41.8370   21.5680   36.1880 C   0  0  0  0  0  3  0  0  0  0  0  0
   42.6580   20.8600   36.2830 H   0  0  0  0  0  0  0  0  0  0  0  0
   41.0370   21.7260   37.4650 C   0  0  0  0  0  2  0  0  0  0  0  0
   40.1020   22.9170   37.3400 C   0  0  0  0  0  2  0  0  0  0  0  0
   36.6120   26.6280   32.8320 O   0  0  0  0  0  0  0  0  0  0  0  0
   36.5620   27.6580   31.8960 C   0  0  0  0  0  0  0  0  0  0  0  0
   35.9430   28.8270   32.2950 C   0  0  0  0  0  0  0  0  0  0  0  0
   35.8780   29.8750   31.3810 C   0  0  0  0  0  0  0  0  0  0  0  0
   36.4220   29.7040   30.1460 N   0  0  0  0  0  0  0  0  0  0  0  0
   37.0190   28.5590   29.7790 C   0  0  0  0  0  0  0  0  0  0  0  0
   37.0780   27.5660   30.6520 N   0  0  0  0  0  0  0  0  0  0  0  0
   38.9710   28.1330   28.5030 C   0  0  0  0  0  0  0  0  0  0  0  0
   39.7300   28.0090   29.5140 O   0  0  0  0  0  0  0  0  0  0  0  0
   37.5750   28.4130   28.4750 N   0  0  0  0  0  0  0  0  0  0  0  0
   35.5200   28.9330   33.2830 H   0  0  0  0  0  0  0  0  0  0  0  0
   35.3910   30.8100   31.6790 H   0  0  0  0  0  0  0  0  0  0  0  0
   39.5540   27.9900   27.6010 H   0  0  0  0  0  0  0  0  0  0  0  0
   37.1000   28.4830   27.5380 H   0  0  0  0  0  0  0  0  0  0  0  0
  1  2  2  0  0  0  0
  2  3  1  0  0  0  0
  2  6  1  0  0  0  0
  3  7  1  6  0  0  0
  3  4  1  0  0  0  0
  4  8  1  0  0  0  0
  4  5  1  0  0  0  0
  5 10  1  0  0  0  0
  5 11  1  0  0  0  0
  6 12  1  0  0  0  0
  6  5  1  0  0  0  0
  9  4  1  0  0  0  0
 12 14  1  0  0  0  0
 12 15  1  0  0  0  0
 13 12  1  0  0  0  0
 15 21  1  0  0  0  0
 16 17  1  0  0  0  0
 16 15  1  0  0  0  0
 17 18  1  0  0  0  0
 18 19  1  0  0  0  0
 18 20  1  0  0  0  0
 21 20  1  0  0  0  0
 22  3  1  0  0  0  0
 23 24  1  0  0  0  0
 23 22  1  0  0  0  0
 24 32  1  0  0  0  0
 25 33  1  0  0  0  0
 25 24  2  0  0  0  0
 26 25  1  0  0  0  0
 27 26  2  0  0  0  0
 27 28  1  0  0  0  0
 28 23  2  0  0  0  0
 29 30  2  0  0  0  0
 31 29  1  0  0  0  0
 31 27  1  0  0  0  0
 34 29  1  0  0  0  0
 35 31  1  0  0  0  0
M  END
>  <minimizedAffinity>
-5.06599617

$$$$

 OpenBabel03272506403D

 35 37  0  0  1  0  0  0  0  0999 V2000
   34.5820   25.1700   31.0110 O   0  0  0  0  0  0  0  0  0  0  0  0
   35.7760   24.8510   31.0480 C   0  0  0  0  0  0  0  0  0  0  0  0
   36.8290   25.8290   31.2050 C   0  0  2  0  0  0  0  0  0  0  0  0
   38.0770   24.9160   31.3930 C   0  0  0  0  0  0  0  0  0  0  0  0
   37.6810   23.6510   30.6930 C   0  0  0  0  0  0  0  0  0  0  0  0
   36.2720   23.5170   30.9430 N   0  0  0  0  0  0  0  0  0  0  0  0
   37.0030   26.4930   30.3630 H   0  0  0  0  0  0  0  0  0  0  0  0
   38.8930   25.4350   30.8550 H   0  0  0  0  0  0  0  0  0  0  0  0
   38.2830   24.7660   32.4640 H   0  0  0  0  0  0  0  0  0  0  0  0
   37.9480   23.6590   29.6340 H   0  0  0  0  0  0  0  0  0  0  0  0
   38.2010   22.7870   31.1980 H   0  0  0  0  0  0  0  0  0  0  0  0
   35.5480   22.2500   31.0450 C   0  0  0  0  0  0  0  0  0  0  0  0
   35.4160   21.8880   29.9840 H   0  0  0  0  0  0  0  0  0  0  0  0
   34.5320   22.4020   31.4400 H   0  0  0  0  0  0  0  0  0  0  0  0
   36.2740   21.3980   31.8730 N   0  0  0  0  0  0  0  0  0  0  0  0
   36.9580   20.3040   31.3300 C   0  0  0  0  0  2  0  0  0  0  0  0
   36.5570   19.0630   32.1020 C   0  0  0  0  0  2  0  0  0  0  0  0
   35.3940   19.3610   33.0260 C   0  0  0  0  0  3  0  0  0  0  0  0
   35.1000   18.4380   33.5220 H   0  0  0  0  0  0  0  0  0  0  0  0
   35.7210   20.4790   33.9950 C   0  0  0  0  0  2  0  0  0  0  0  0
   36.3820   21.6250   33.2500 C   0  0  0  0  0  2  0  0  0  0  0  0
   36.7240   26.6100   32.3960 O   0  0  0  0  0  0  0  0  0  0  0  0
   36.3850   27.9540   32.2610 C   0  0  0  0  0  0  0  0  0  0  0  0
   37.0580   28.6670   31.2880 C   0  0  0  0  0  0  0  0  0  0  0  0
   36.7410   30.0130   31.1280 C   0  0  0  0  0  0  0  0  0  0  0  0
   35.7910   30.5630   31.9320 N   0  0  0  0  0  0  0  0  0  0  0  0
   35.1490   29.8520   32.8730 C   0  0  0  0  0  0  0  0  0  0  0  0
   35.4540   28.5730   33.0190 N   0  0  0  0  0  0  0  0  0  0  0  0
   32.8860   29.8420   33.5770 C   0  0  0  0  0  0  0  0  0  0  0  0
   32.5550   28.8580   32.8450 O   0  0  0  0  0  0  0  0  0  0  0  0
   34.1620   30.4620   33.7000 N   0  0  0  0  0  0  0  0  0  0  0  0
   37.8090   28.2030   30.6640 H   0  0  0  0  0  0  0  0  0  0  0  0
   37.2640   30.5950   30.3620 H   0  0  0  0  0  0  0  0  0  0  0  0
   32.0190   30.1770   34.1360 H   0  0  0  0  0  0  0  0  0  0  0  0
   34.2580   31.2760   34.3600 H   0  0  0  0  0  0  0  0  0  0  0  0
  1  2  2  0  0  0  0
  2  3  1  0  0  0  0
  3  7  1  6  0  0  0
  3  4  1  0  0  0  0
  3 22  1  0  0  0  0
  4  9  1  0  0  0  0
  5  6  1  0  0  0  0
  5 11  1  0  0  0  0
  5  4  1  0  0  0  0
  6 12  1  0  0  0  0
  6  2  1  0  0  0  0
  8  4  1  0  0  0  0
 10  5  1  0  0  0  0
 12 14  1  0  0  0  0
 12 15  1  0  0  0  0
 13 12  1  0  0  0  0
 15 21  1  0  0  0  0
 16 15  1  0  0  0  0
 16 17  1  0  0  0  0
 17 18  1  0  0  0  0
 18 19  1  0  0  0  0
 18 20  1  0  0  0  0
 21 20  1  0  0  0  0
 23 22  1  0  0  0  0
 23 28  1  0  0  0  0
 24 23  2  0  0  0  0
 25 24  1  0  0  0  0
 25 26  2  0  0  0  0
 26 27  1  0  0  0  0
 27 28  2  0  0  0  0
 27 31  1  0  0  0  0
 29 31  1  0  0  0  0
 29 34  1  0  0  0  0
 30 29  2  0  0  0  0
 31 35  1  0  0  0  0
 32 24  1  0  0  0  0
 33 25  1  0  0  0  0
M  END
>  <minimizedAffinity>
-5.0559473

$$$$

 OpenBabel03272506403D

 35 37  0  0  1  0  0  0  0  0999 V2000
   36.5810   21.1440   34.3280 O   0  0  0  0  0  0  0  0  0  0  0  0
   36.9790   21.8130   33.3680 C   0  0  0  0  0  0  0  0  0  0  0  0
   38.1770   22.6210   33.4350 C   0  0  2  0  0  0  0  0  0  0  0  0
   38.3350   23.0690   31.9520 C   0  0  0  0  0  0  0  0  0  0  0  0
   36.9320   23.0100   31.4280 C   0  0  0  0  0  0  0  0  0  0  0  0
   36.3370   21.8840   32.0950 N   0  0  0  0  0  0  0  0  0  0  0  0
   38.1310   23.5030   34.0670 H   0  0  0  0  0  0  0  0  0  0  0  0
   38.6990   24.1130   32.0080 H   0  0  0  0  0  0  0  0  0  0  0  0
   39.0200   22.3930   31.4180 H   0  0  0  0  0  0  0  0  0  0  0  0
   36.3930   23.9490   31.5690 H   0  0  0  0  0  0  0  0  0  0  0  0
   36.9730   22.7710   30.3270 H   0  0  0  0  0  0  0  0  0  0  0  0
   35.2840   21.0320   31.5420 C   0  0  0  0  0  0  0  0  0  0  0  0
   34.7820   21.6490   30.7400 H   0  0  0  0  0  0  0  0  0  0  0  0
   34.5060   20.8220   32.2910 H   0  0  0  0  0  0  0  0  0  0  0  0
   35.8700   19.8490   31.0960 N   0  0  0  0  0  0  0  0  0  0  0  0
   35.7970   18.6910   31.8780 C   0  0  0  0  0  2  0  0  0  0  0  0
   37.1980   18.1360   32.0370 C   0  0  0  0  0  2  0  0  0  0  0  0
   38.2240   19.1230   31.5190 C   0  0  0  0  0  3  0  0  0  0  0  0
   39.2180   18.7150   31.6980 H   0  0  0  0  0  0  0  0  0  0  0  0
   37.9790   19.4730   30.0650 C   0  0  0  0  0  2  0  0  0  0  0  0
   36.5040   19.7650   29.8510 C   0  0  0  0  0  2  0  0  0  0  0  0
   39.3580   21.8830   33.7550 O   0  0  0  0  0  0  0  0  0  0  0  0
   39.9960   22.1740   34.9590 C   0  0  0  0  0  0  0  0  0  0  0  0
   41.3670   22.3320   34.9090 C   0  0  0  0  0  0  0  0  0  0  0  0
   42.0330   22.6230   36.0970 C   0  0  0  0  0  0  0  0  0  0  0  0
   41.3110   22.7370   37.2440 N   0  0  0  0  0  0  0  0  0  0  0  0
   39.9780   22.5790   37.2690 C   0  0  0  0  0  0  0  0  0  0  0  0
   39.3500   22.3030   36.1380 N   0  0  0  0  0  0  0  0  0  0  0  0
   38.2720   23.7330   38.4430 C   0  0  0  0  0  0  0  0  0  0  0  0
   37.9930   24.5120   37.4790 O   0  0  0  0  0  0  0  0  0  0  0  0
   39.2530   22.7020   38.4900 N   0  0  0  0  0  0  0  0  0  0  0  0
   41.9140   22.2350   33.9830 H   0  0  0  0  0  0  0  0  0  0  0  0
   43.1210   22.7520   36.0780 H   0  0  0  0  0  0  0  0  0  0  0  0
   37.6280   23.9630   39.2840 H   0  0  0  0  0  0  0  0  0  0  0  0
   39.3510   22.1490   39.3800 H   0  0  0  0  0  0  0  0  0  0  0  0
  2  3  1  0  0  0  0
  2  1  2  0  0  0  0
  3 22  1  0  0  0  0
  3  7  1  1  0  0  0
  4  8  1  0  0  0  0
  4  3  1  0  0  0  0
  5 10  1  0  0  0  0
  5  4  1  0  0  0  0
  5  6  1  0  0  0  0
  6  2  1  0  0  0  0
  9  4  1  0  0  0  0
 11  5  1  0  0  0  0
 12  6  1  0  0  0  0
 12 14  1  0  0  0  0
 13 12  1  0  0  0  0
 15 12  1  0  0  0  0
 15 16  1  0  0  0  0
 16 17  1  0  0  0  0
 18 19  1  0  0  0  0
 18 17  1  0  0  0  0
 20 18  1  0  0  0  0
 21 20  1  0  0  0  0
 21 15  1  0  0  0  0
 22 23  1  0  0  0  0
 23 28  1  0  0  0  0
 24 23  2  0  0  0  0
 24 25  1  0  0  0  0
 25 26  2  0  0  0  0
 26 27  1  0  0  0  0
 27 31  1  0  0  0  0
 28 27  2  0  0  0  0
 29 31  1  0  0  0  0
 29 34  1  0  0  0  0
 30 29  2  0  0  0  0
 31 35  1  0  0  0  0
 32 24  1  0  0  0  0
 33 25  1  0  0  0  0
M  END
>  <minimizedAffinity>
-5.0382719

$$$$

 OpenBabel03272506403D

 35 37  0  0  1  0  0  0  0  0999 V2000
   37.6140   27.7160   35.2960 O   0  0  0  0  0  0  0  0  0  0  0  0
   37.5270   26.9070   34.3650 C   0  0  0  0  0  0  0  0  0  0  0  0
   36.7250   27.1670   33.1900 C   0  0  2  0  0  0  0  0  0  0  0  0
   37.1180   25.9720   32.2730 C   0  0  0  0  0  0  0  0  0  0  0  0
   37.5410   24.9180   33.2520 C   0  0  0  0  0  0  0  0  0  0  0  0
   38.1820   25.6400   34.3160 N   0  0  0  0  0  0  0  0  0  0  0  0
   35.6480   27.1660   33.3290 H   0  0  0  0  0  0  0  0  0  0  0  0
   36.1800   25.6880   31.7580 H   0  0  0  0  0  0  0  0  0  0  0  0
   37.9250   26.2650   31.5850 H   0  0  0  0  0  0  0  0  0  0  0  0
   36.7090   24.2900   33.5760 H   0  0  0  0  0  0  0  0  0  0  0  0
   38.3220   24.2690   32.7610 H   0  0  0  0  0  0  0  0  0  0  0  0
   39.2680   25.1280   35.1520 C   0  0  0  0  0  0  0  0  0  0  0  0
   39.5890   25.9950   35.8010 H   0  0  0  0  0  0  0  0  0  0  0  0
   40.1480   24.8630   34.5460 H   0  0  0  0  0  0  0  0  0  0  0  0
   38.7970   24.0150   35.8460 N   0  0  0  0  0  0  0  0  0  0  0  0
   37.8490   24.1720   36.8630 C   0  0  0  0  0  2  0  0  0  0  0  0
   38.3600   23.4620   38.1010 C   0  0  0  0  0  2  0  0  0  0  0  0
   39.8020   23.0350   37.9140 C   0  0  0  0  0  3  0  0  0  0  0  0
   40.1510   22.5780   38.8390 H   0  0  0  0  0  0  0  0  0  0  0  0
   39.9660   22.1330   36.7070 C   0  0  0  0  0  2  0  0  0  0  0  0
   39.2130   22.7180   35.5250 C   0  0  0  0  0  2  0  0  0  0  0  0
   37.0990   28.3500   32.4820 O   0  0  0  0  0  0  0  0  0  0  0  0
   36.1780   29.3940   32.4330 C   0  0  0  0  0  0  0  0  0  0  0  0
   35.8840   29.9010   31.1810 C   0  0  0  0  0  0  0  0  0  0  0  0
   34.9660   30.9440   31.1000 C   0  0  0  0  0  0  0  0  0  0  0  0
   34.4040   31.4160   32.2460 N   0  0  0  0  0  0  0  0  0  0  0  0
   34.7040   30.9080   33.4520 C   0  0  0  0  0  0  0  0  0  0  0  0
   35.5760   29.9160   33.5230 N   0  0  0  0  0  0  0  0  0  0  0  0
   33.3610   30.4440   35.3490 C   0  0  0  0  0  0  0  0  0  0  0  0
   33.1950   29.2180   35.0600 O   0  0  0  0  0  0  0  0  0  0  0  0
   34.0980   31.4290   34.6320 N   0  0  0  0  0  0  0  0  0  0  0  0
   36.3480   29.5060   30.2890 H   0  0  0  0  0  0  0  0  0  0  0  0
   34.7210   31.3600   30.1160 H   0  0  0  0  0  0  0  0  0  0  0  0
   32.8380   30.6660   36.2720 H   0  0  0  0  0  0  0  0  0  0  0  0
   34.1300   32.4060   35.0190 H   0  0  0  0  0  0  0  0  0  0  0  0
  2  1  2  0  0  0  0
  3  7  1  1  0  0  0
  3  2  1  0  0  0  0
  4  3  1  0  0  0  0
  4  5  1  0  0  0  0
  5 10  1  0  0  0  0
  5  6  1  0  0  0  0
  6  2  1  0  0  0  0
  6 12  1  0  0  0  0
  8  4  1  0  0  0  0
  9  4  1  0  0  0  0
 11  5  1  0  0  0  0
 12 13  1  0  0  0  0
 12 15  1  0  0  0  0
 14 12  1  0  0  0  0
 15 16  1  0  0  0  0
 16 17  1  0  0  0  0
 18 17  1  0  0  0  0
 18 19  1  0  0  0  0
 20 18  1  0  0  0  0
 21 15  1  0  0  0  0
 21 20  1  0  0  0  0
 22  3  1  0  0  0  0
 23 22  1  0  0  0  0
 23 28  1  0  0  0  0
 24 23  2  0  0  0  0
 25 24  1  0  0  0  0
 25 26  2  0  0  0  0
 26 27  1  0  0  0  0
 27 28  2  0  0  0  0
 27 31  1  0  0  0  0
 29 34  1  0  0  0  0
 30 29  2  0  0  0  0
 31 35  1  0  0  0  0
 31 29  1  0  0  0  0
 32 24  1  0  0  0  0
 33 25  1  0  0  0  0
M  END
>  <minimizedAffinity>
-5.01382828

$$$$

 OpenBabel03272506403D

 35 37  0  0  1  0  0  0  0  0999 V2000
   37.8400   24.3690   32.9390 O   0  0  0  0  0  0  0  0  0  0  0  0
   38.6080   24.9390   33.7210 C   0  0  0  0  0  0  0  0  0  0  0  0
   38.5460   26.3640   33.9600 C   0  0  2  0  0  0  0  0  0  0  0  0
   39.5490   26.5270   35.1410 C   0  0  0  0  0  0  0  0  0  0  0  0
   40.4720   25.3590   34.9650 C   0  0  0  0  0  0  0  0  0  0  0  0
   39.6340   24.2980   34.4780 N   0  0  0  0  0  0  0  0  0  0  0  0
   38.8570   27.0060   33.1420 H   0  0  0  0  0  0  0  0  0  0  0  0
   40.0690   27.4830   34.9420 H   0  0  0  0  0  0  0  0  0  0  0  0
   39.0140   26.5090   36.1030 H   0  0  0  0  0  0  0  0  0  0  0  0
   41.3200   25.5900   34.3190 H   0  0  0  0  0  0  0  0  0  0  0  0
   40.8550   25.0520   35.9810 H   0  0  0  0  0  0  0  0  0  0  0  0
   39.8450   22.8710   34.7260 C   0  0  0  0  0  0  0  0  0  0  0  0
   40.9650   22.7270   34.7460 H   0  0  0  0  0  0  0  0  0  0  0  0
   39.4790   22.2620   33.8850 H   0  0  0  0  0  0  0  0  0  0  0  0
   39.1850   22.5300   35.9040 N   0  0  0  0  0  0  0  0  0  0  0  0
   37.8040   22.3070   35.8960 C   0  0  0  0  0  2  0  0  0  0  0  0
   37.1790   23.1560   36.9850 C   0  0  0  0  0  2  0  0  0  0  0  0
   38.1930   24.1300   37.5500 C   0  0  0  0  0  3  0  0  0  0  0  0
   37.6970   24.7570   38.2890 H   0  0  0  0  0  0  0  0  0  0  0  0
   39.4100   23.4130   38.1000 C   0  0  0  0  0  2  0  0  0  0  0  0
   39.8740   22.3590   37.1100 C   0  0  0  0  0  2  0  0  0  0  0  0
   37.2820   26.8170   34.4480 O   0  0  0  0  0  0  0  0  0  0  0  0
   36.7020   27.9160   33.8200 C   0  0  0  0  0  0  0  0  0  0  0  0
   36.9070   28.0290   32.4580 C   0  0  0  0  0  0  0  0  0  0  0  0
   36.3400   29.1180   31.8020 C   0  0  0  0  0  0  0  0  0  0  0  0
   35.6140   30.0150   32.5230 N   0  0  0  0  0  0  0  0  0  0  0  0
   35.4270   29.8850   33.8460 C   0  0  0  0  0  0  0  0  0  0  0  0
   35.9680   28.8490   34.4650 N   0  0  0  0  0  0  0  0  0  0  0  0
   33.5350   30.2720   35.2200 C   0  0  0  0  0  0  0  0  0  0  0  0
   33.1560   29.0600   35.2170 O   0  0  0  0  0  0  0  0  0  0  0  0
   34.6650   30.8470   34.5720 N   0  0  0  0  0  0  0  0  0  0  0  0
   37.4880   27.3010   31.9120 H   0  0  0  0  0  0  0  0  0  0  0  0
   36.4910   29.2250   30.7220 H   0  0  0  0  0  0  0  0  0  0  0  0
   32.8460   30.8590   35.8180 H   0  0  0  0  0  0  0  0  0  0  0  0
   34.8300   31.8800   34.6810 H   0  0  0  0  0  0  0  0  0  0  0  0
  1  2  2  0  0  0  0
  2  3  1  0  0  0  0
  2  6  1  0  0  0  0
  3  7  1  6  0  0  0
  3 22  1  0  0  0  0
  3  4  1  0  0  0  0
  4  9  1  0  0  0  0
  5  4  1  0  0  0  0
  5 11  1  0  0  0  0
  6 12  1  0  0  0  0
  6  5  1  0  0  0  0
  8  4  1  0  0  0  0
 10  5  1  0  0  0  0
 12 13  1  0  0  0  0
 12 15  1  0  0  0  0
 14 12  1  0  0  0  0
 15 21  1  0  0  0  0
 16 15  1  0  0  0  0
 16 17  1  0  0  0  0
 17 18  1  0  0  0  0
 18 20  1  0  0  0  0
 18 19  1  0  0  0  0
 21 20  1  0  0  0  0
 23 22  1  0  0  0  0
 23 28  1  0  0  0  0
 24 23  2  0  0  0  0
 25 24  1  0  0  0  0
 25 26  2  0  0  0  0
 26 27  1  0  0  0  0
 27 28  2  0  0  0  0
 27 31  1  0  0  0  0
 29 34  1  0  0  0  0
 30 29  2  0  0  0  0
 31 35  1  0  0  0  0
 31 29  1  0  0  0  0
 32 24  1  0  0  0  0
 33 25  1  0  0  0  0
M  END
>  <minimizedAffinity>
-4.99181986

$$$$
