
 OpenBabel03272510003D

 19 20  0  0  0  0  0  0  0  0999 V2000
   38.3810   31.5840   50.1230 C   0  0  0  0  0  0  0  0  0  0  0  0
   38.6010   31.8800   48.7780 C   0  0  0  0  0  0  0  0  0  0  0  0
   37.7150   31.3590   47.8390 C   0  0  0  0  0  0  0  0  0  0  0  0
   36.6870   30.5930   48.2870 N   0  0  0  0  0  0  0  0  0  0  0  0
   36.5070   30.3320   49.5860 C   0  0  0  0  0  0  0  0  0  0  0  0
   37.3490   30.8240   50.4980 N   0  0  0  0  0  0  0  0  0  0  0  0
   39.1180   32.0320   50.7690 H   0  0  0  0  0  0  0  0  0  0  0  0
   39.3860   32.4720   48.3700 H   0  0  0  0  0  0  0  0  0  0  0  0
   37.7490   31.5310   46.4260 N   0  0  0  0  0  0  0  0  0  0  0  0
   38.5150   32.5100   45.7200 C   0  0  0  0  0  2  0  0  0  0  0  0
   39.4250   31.9650   44.6700 C   0  0  0  0  0  2  0  0  0  0  0  0
   38.6850   31.0410   43.7290 C   0  0  0  0  0  3  0  0  0  0  0  0
   39.3410   30.6130   42.9750 H   0  0  0  0  0  0  0  0  0  0  0  0
   38.0320   29.9830   44.6200 C   0  0  0  0  0  2  0  0  0  0  0  0
   37.0170   30.7480   45.4580 C   0  0  0  0  0  2  0  0  0  0  0  0
   35.3550   29.4830   49.9950 C   0  0  0  0  0  0  0  0  0  0  0  0
   35.3830   29.1190   51.3190 F   0  0  0  0  0  0  0  0  0  0  0  0
   34.1450   30.1570   49.7910 F   0  0  0  0  0  0  0  0  0  0  0  0
   35.2440   28.3270   49.2470 F   0  0  0  0  0  0  0  0  0  0  0  0
  1  6  1  0  0  0  0
  1  7  1  0  0  0  0
  2  1  2  0  0  0  0
  3  4  2  0  0  0  0
  3  2  1  0  0  0  0
  4  5  1  0  0  0  0
  5 16  1  0  0  0  0
  5  6  2  0  0  0  0
  8  2  1  0  0  0  0
  9  3  1  0  0  0  0
 10  9  1  0  0  0  0
 11 10  1  0  0  0  0
 12 14  1  0  0  0  0
 12 11  1  0  0  0  0
 13 12  1  0  0  0  0
 14 15  1  0  0  0  0
 15  9  1  0  0  0  0
 16 17  1  0  0  0  0
 18 16  1  0  0  0  0
 19 16  1  0  0  0  0
M  END
>  <minimizedAffinity>
-5.00671101

>  <minimizedRMSD>
0.755369604

$$$$
