
 OpenBabel03272510033D

 19 20  0  0  0  0  0  0  0  0999 V2000
   38.2730   22.2870   34.8810 C   0  0  0  0  0  0  0  0  0  0  0  0
   38.1620   23.4190   34.0750 C   0  0  0  0  0  0  0  0  0  0  0  0
   38.0890   24.6620   34.6970 C   0  0  0  0  0  0  0  0  0  0  0  0
   38.1290   24.7010   36.0540 N   0  0  0  0  0  0  0  0  0  0  0  0
   38.2370   23.5930   36.7950 C   0  0  0  0  0  0  0  0  0  0  0  0
   38.3080   22.3940   36.2120 N   0  0  0  0  0  0  0  0  0  0  0  0
   38.3230   21.3760   34.3070 H   0  0  0  0  0  0  0  0  0  0  0  0
   38.1250   23.4510   33.0110 H   0  0  0  0  0  0  0  0  0  0  0  0
   37.9730   25.9380   34.0750 N   0  0  0  0  0  0  0  0  0  0  0  0
   37.7930   26.1740   32.6770 C   0  0  0  0  0  2  0  0  0  0  0  0
   36.6050   27.0080   32.3250 C   0  0  0  0  0  2  0  0  0  0  0  0
   36.5830   28.2940   33.1210 C   0  0  0  0  0  3  0  0  0  0  0  0
   35.7070   28.8980   32.8960 H   0  0  0  0  0  0  0  0  0  0  0  0
   36.6520   27.8680   34.5890 C   0  0  0  0  0  2  0  0  0  0  0  0
   38.0180   27.2170   34.7450 C   0  0  0  0  0  2  0  0  0  0  0  0
   38.2740   23.7210   38.2770 C   0  0  0  0  0  0  0  0  0  0  0  0
   37.9640   24.9810   38.7280 F   0  0  0  0  0  0  0  0  0  0  0  0
   37.3580   22.8460   38.8740 F   0  0  0  0  0  0  0  0  0  0  0  0
   39.4960   23.3730   38.8190 F   0  0  0  0  0  0  0  0  0  0  0  0
  1  6  1  0  0  0  0
  2  3  1  0  0  0  0
  2  1  2  0  0  0  0
  3  4  2  0  0  0  0
  4  5  1  0  0  0  0
  5 16  1  0  0  0  0
  6  5  2  0  0  0  0
  7  1  1  0  0  0  0
  8  2  1  0  0  0  0
  9  3  1  0  0  0  0
  9 15  1  0  0  0  0
 10  9  1  0  0  0  0
 11 10  1  0  0  0  0
 11 12  1  0  0  0  0
 12 14  1  0  0  0  0
 13 12  1  0  0  0  0
 14 15  1  0  0  0  0
 16 17  1  0  0  0  0
 16 19  1  0  0  0  0
 16 18  1  0  0  0  0
M  END
>  <minimizedAffinity>
-4.98722792

$$$$

 OpenBabel03272510033D

 19 20  0  0  0  0  0  0  0  0999 V2000
   40.1320   22.2660   34.4130 C   0  0  0  0  0  0  0  0  0  0  0  0
   39.0570   21.8250   33.6420 C   0  0  0  0  0  0  0  0  0  0  0  0
   37.7810   21.9030   34.1920 C   0  0  0  0  0  0  0  0  0  0  0  0
   37.6560   22.4030   35.4480 N   0  0  0  0  0  0  0  0  0  0  0  0
   38.7110   22.8180   36.1580 C   0  0  0  0  0  0  0  0  0  0  0  0
   39.9410   22.7490   35.6430 N   0  0  0  0  0  0  0  0  0  0  0  0
   41.0750   22.1650   33.9000 H   0  0  0  0  0  0  0  0  0  0  0  0
   39.0930   21.4250   32.6560 H   0  0  0  0  0  0  0  0  0  0  0  0
   36.5510   21.5120   33.5890 N   0  0  0  0  0  0  0  0  0  0  0  0
   36.0390   21.9950   32.3460 C   0  0  0  0  0  2  0  0  0  0  0  0
   35.7100   20.9370   31.3440 C   0  0  0  0  0  2  0  0  0  0  0  0
   34.8200   19.8720   31.9460 C   0  0  0  0  0  3  0  0  0  0  0  0
   34.5960   19.0790   31.2350 H   0  0  0  0  0  0  0  0  0  0  0  0
   35.5620   19.3690   33.1840 C   0  0  0  0  0  2  0  0  0  0  0  0
   35.6060   20.5630   34.1270 C   0  0  0  0  0  2  0  0  0  0  0  0
   38.4890   23.3530   37.5290 C   0  0  0  0  0  0  0  0  0  0  0  0
   39.5270   23.0990   38.3920 F   0  0  0  0  0  0  0  0  0  0  0  0
   38.3270   24.7440   37.4980 F   0  0  0  0  0  0  0  0  0  0  0  0
   37.3320   22.8780   38.1140 F   0  0  0  0  0  0  0  0  0  0  0  0
  1  6  1  0  0  0  0
  2  3  1  0  0  0  0
  2  1  2  0  0  0  0
  3  4  2  0  0  0  0
  4  5  1  0  0  0  0
  5 16  1  0  0  0  0
  6  5  2  0  0  0  0
  7  1  1  0  0  0  0
  8  2  1  0  0  0  0
  9 15  1  0  0  0  0
  9  3  1  0  0  0  0
 10  9  1  0  0  0  0
 11 12  1  0  0  0  0
 11 10  1  0  0  0  0
 12 14  1  0  0  0  0
 13 12  1  0  0  0  0
 14 15  1  0  0  0  0
 16 19  1  0  0  0  0
 16 17  1  0  0  0  0
 18 16  1  0  0  0  0
M  END
>  <minimizedAffinity>
-4.90346479

$$$$

 OpenBabel03272510033D

 19 20  0  0  0  0  0  0  0  0999 V2000
   38.3130   27.2270   35.5780 C   0  0  0  0  0  0  0  0  0  0  0  0
   38.0370   26.7390   34.3010 C   0  0  0  0  0  0  0  0  0  0  0  0
   37.8010   25.3750   34.1580 C   0  0  0  0  0  0  0  0  0  0  0  0
   37.8530   24.5970   35.2700 N   0  0  0  0  0  0  0  0  0  0  0  0
   38.1210   25.1010   36.4800 C   0  0  0  0  0  0  0  0  0  0  0  0
   38.3490   26.4080   36.6320 N   0  0  0  0  0  0  0  0  0  0  0  0
   38.4800   28.2920   35.5840 H   0  0  0  0  0  0  0  0  0  0  0  0
   37.9820   27.2980   33.3970 H   0  0  0  0  0  0  0  0  0  0  0  0
   37.5030   24.6670   32.9590 N   0  0  0  0  0  0  0  0  0  0  0  0
   37.6330   23.2580   32.7650 C   0  0  0  0  0  2  0  0  0  0  0  0
   36.3940   22.5680   32.2940 C   0  0  0  0  0  2  0  0  0  0  0  0
   35.8150   23.2540   31.0770 C   0  0  0  0  0  3  0  0  0  0  0  0
   34.8950   22.7790   30.7410 H   0  0  0  0  0  0  0  0  0  0  0  0
   35.6160   24.7140   31.4850 C   0  0  0  0  0  2  0  0  0  0  0  0
   37.0200   25.2480   31.7280 C   0  0  0  0  0  2  0  0  0  0  0  0
   38.1610   24.1810   37.6480 C   0  0  0  0  0  0  0  0  0  0  0  0
   37.9160   24.8040   38.8470 F   0  0  0  0  0  0  0  0  0  0  0  0
   37.1980   23.1720   37.5180 F   0  0  0  0  0  0  0  0  0  0  0  0
   39.3610   23.5070   37.7650 F   0  0  0  0  0  0  0  0  0  0  0  0
  1  7  1  0  0  0  0
  1  6  1  0  0  0  0
  2  1  2  0  0  0  0
  3  2  1  0  0  0  0
  3  4  2  0  0  0  0
  4  5  1  0  0  0  0
  5  6  2  0  0  0  0
  5 16  1  0  0  0  0
  8  2  1  0  0  0  0
  9  3  1  0  0  0  0
 10  9  1  0  0  0  0
 11 10  1  0  0  0  0
 12 14  1  0  0  0  0
 12 11  1  0  0  0  0
 13 12  1  0  0  0  0
 14 15  1  0  0  0  0
 15  9  1  0  0  0  0
 16 19  1  0  0  0  0
 16 17  1  0  0  0  0
 18 16  1  0  0  0  0
M  END
>  <minimizedAffinity>
-4.7763567

$$$$

 OpenBabel03272510033D

 19 20  0  0  0  0  0  0  0  0999 V2000
   38.5130   25.3150   34.9990 C   0  0  0  0  0  0  0  0  0  0  0  0
   38.1750   24.2780   34.1300 C   0  0  0  0  0  0  0  0  0  0  0  0
   37.8460   23.0430   34.6810 C   0  0  0  0  0  0  0  0  0  0  0  0
   37.8720   22.9190   36.0330 N   0  0  0  0  0  0  0  0  0  0  0  0
   38.2000   23.9380   36.8360 C   0  0  0  0  0  0  0  0  0  0  0  0
   38.5190   25.1280   36.3210 N   0  0  0  0  0  0  0  0  0  0  0  0
   38.7500   26.2280   34.4770 H   0  0  0  0  0  0  0  0  0  0  0  0
   38.1380   24.3160   33.0670 H   0  0  0  0  0  0  0  0  0  0  0  0
   37.4750   21.8560   33.9890 N   0  0  0  0  0  0  0  0  0  0  0  0
   36.3120   21.0670   34.2450 C   0  0  0  0  0  2  0  0  0  0  0  0
   35.4310   20.8360   33.0600 C   0  0  0  0  0  2  0  0  0  0  0  0
   36.2220   20.3090   31.8850 C   0  0  0  0  0  3  0  0  0  0  0  0
   35.5980   20.1630   31.0050 H   0  0  0  0  0  0  0  0  0  0  0  0
   37.3440   21.3220   31.6570 C   0  0  0  0  0  2  0  0  0  0  0  0
   38.2070   21.2390   32.9080 C   0  0  0  0  0  2  0  0  0  0  0  0
   38.2050   23.7200   38.3070 C   0  0  0  0  0  0  0  0  0  0  0  0
   39.4250   23.3230   38.8000 F   0  0  0  0  0  0  0  0  0  0  0  0
   37.8650   24.8980   38.9840 F   0  0  0  0  0  0  0  0  0  0  0  0
   37.2670   22.7940   38.7200 F   0  0  0  0  0  0  0  0  0  0  0  0
  1  6  1  0  0  0  0
  2  3  1  0  0  0  0
  2  1  2  0  0  0  0
  3  4  2  0  0  0  0
  4  5  1  0  0  0  0
  5 16  1  0  0  0  0
  6  5  2  0  0  0  0
  7  1  1  0  0  0  0
  8  2  1  0  0  0  0
  9 10  1  0  0  0  0
  9  3  1  0  0  0  0
 11 10  1  0  0  0  0
 12 11  1  0  0  0  0
 13 12  1  0  0  0  0
 14 12  1  0  0  0  0
 14 15  1  0  0  0  0
 15  9  1  0  0  0  0
 16 19  1  0  0  0  0
 16 17  1  0  0  0  0
 16 18  1  0  0  0  0
M  END
>  <minimizedAffinity>
-4.76172638

$$$$

 OpenBabel03272510033D

 19 20  0  0  0  0  0  0  0  0999 V2000
   37.8020   22.3890   34.9180 C   0  0  0  0  0  0  0  0  0  0  0  0
   38.2790   23.4520   34.1510 C   0  0  0  0  0  0  0  0  0  0  0  0
   38.7220   24.5920   34.8160 C   0  0  0  0  0  0  0  0  0  0  0  0
   38.6660   24.6040   36.1720 N   0  0  0  0  0  0  0  0  0  0  0  0
   38.2020   23.5640   36.8750 C   0  0  0  0  0  0  0  0  0  0  0  0
   37.7730   22.4640   36.2510 N   0  0  0  0  0  0  0  0  0  0  0  0
   37.4840   21.5560   34.3130 H   0  0  0  0  0  0  0  0  0  0  0  0
   38.3470   23.5000   33.0900 H   0  0  0  0  0  0  0  0  0  0  0  0
   39.2440   25.7840   34.2380 N   0  0  0  0  0  0  0  0  0  0  0  0
   40.1480   26.6930   34.8690 C   0  0  0  0  0  2  0  0  0  0  0  0
   41.4030   26.9670   34.1070 C   0  0  0  0  0  2  0  0  0  0  0  0
   41.1010   27.3710   32.6810 C   0  0  0  0  0  3  0  0  0  0  0  0
   42.0070   27.5450   32.1060 H   0  0  0  0  0  0  0  0  0  0  0  0
   40.2400   26.2430   32.1090 C   0  0  0  0  0  2  0  0  0  0  0  0
   38.9510   26.2860   32.9160 C   0  0  0  0  0  2  0  0  0  0  0  0
   38.1720   23.6560   38.3600 C   0  0  0  0  0  0  0  0  0  0  0  0
   37.2990   22.7740   38.9480 F   0  0  0  0  0  0  0  0  0  0  0  0
   39.4360   23.3880   38.8990 F   0  0  0  0  0  0  0  0  0  0  0  0
   37.8580   24.9220   38.8160 F   0  0  0  0  0  0  0  0  0  0  0  0
  1  6  1  0  0  0  0
  2  3  1  0  0  0  0
  2  1  2  0  0  0  0
  3  4  2  0  0  0  0
  4  5  1  0  0  0  0
  5 16  1  0  0  0  0
  6  5  2  0  0  0  0
  7  1  1  0  0  0  0
  8  2  1  0  0  0  0
  9  3  1  0  0  0  0
  9 10  1  0  0  0  0
 11 10  1  0  0  0  0
 12 11  1  0  0  0  0
 13 12  1  0  0  0  0
 14 12  1  0  0  0  0
 14 15  1  0  0  0  0
 15  9  1  0  0  0  0
 16 19  1  0  0  0  0
 16 18  1  0  0  0  0
 16 17  1  0  0  0  0
M  END
>  <minimizedAffinity>
-4.75191784

$$$$

 OpenBabel03272510033D

 19 20  0  0  0  0  0  0  0  0999 V2000
   38.1940   23.6090   38.2870 C   0  0  0  0  0  0  0  0  0  0  0  0
   37.8660   24.5700   37.3330 C   0  0  0  0  0  0  0  0  0  0  0  0
   38.7030   24.7100   36.2290 C   0  0  0  0  0  0  0  0  0  0  0  0
   39.7910   23.9020   36.1460 N   0  0  0  0  0  0  0  0  0  0  0  0
   40.0730   22.9890   37.0820 C   0  0  0  0  0  0  0  0  0  0  0  0
   39.2790   22.8440   38.1460 N   0  0  0  0  0  0  0  0  0  0  0  0
   37.4860   23.5780   39.1000 H   0  0  0  0  0  0  0  0  0  0  0  0
   37.0300   25.2300   37.3440 H   0  0  0  0  0  0  0  0  0  0  0  0
   38.5610   25.6200   35.1430 N   0  0  0  0  0  0  0  0  0  0  0  0
   38.3050   25.2650   33.7830 C   0  0  0  0  0  2  0  0  0  0  0  0
   37.1050   25.9160   33.1750 C   0  0  0  0  0  2  0  0  0  0  0  0
   37.1380   27.4150   33.3710 C   0  0  0  0  0  3  0  0  0  0  0  0
   36.2550   27.8990   32.9590 H   0  0  0  0  0  0  0  0  0  0  0  0
   37.2850   27.6290   34.8780 C   0  0  0  0  0  2  0  0  0  0  0  0
   38.6530   27.0590   35.2230 C   0  0  0  0  0  2  0  0  0  0  0  0
   41.2850   22.1420   36.9170 C   0  0  0  0  0  0  0  0  0  0  0  0
   41.2990   21.4250   35.7460 F   0  0  0  0  0  0  0  0  0  0  0  0
   42.4440   22.9290   36.9180 F   0  0  0  0  0  0  0  0  0  0  0  0
   41.4670   21.2500   37.9560 F   0  0  0  0  0  0  0  0  0  0  0  0
  1  7  1  0  0  0  0
  2  8  1  0  0  0  0
  2  1  2  0  0  0  0
  3  2  1  0  0  0  0
  4  3  2  0  0  0  0
  4  5  1  0  0  0  0
  5  6  2  0  0  0  0
  6  1  1  0  0  0  0
  9 15  1  0  0  0  0
  9  3  1  0  0  0  0
 10  9  1  0  0  0  0
 11 12  1  0  0  0  0
 11 10  1  0  0  0  0
 12 14  1  0  0  0  0
 13 12  1  0  0  0  0
 14 15  1  0  0  0  0
 16 18  1  0  0  0  0
 16  5  1  0  0  0  0
 16 19  1  0  0  0  0
 17 16  1  0  0  0  0
M  END
>  <minimizedAffinity>
-4.68983126

$$$$

 OpenBabel03272510033D

 19 20  0  0  0  0  0  0  0  0999 V2000
   39.4000   22.2710   35.0840 C   0  0  0  0  0  0  0  0  0  0  0  0
   38.8800   23.1770   34.1600 C   0  0  0  0  0  0  0  0  0  0  0  0
   38.1760   24.2760   34.6450 C   0  0  0  0  0  0  0  0  0  0  0  0
   38.0370   24.4030   35.9900 N   0  0  0  0  0  0  0  0  0  0  0  0
   38.5520   23.5130   36.8460 C   0  0  0  0  0  0  0  0  0  0  0  0
   39.2290   22.4540   36.3950 N   0  0  0  0  0  0  0  0  0  0  0  0
   39.9260   21.4580   34.6100 H   0  0  0  0  0  0  0  0  0  0  0  0
   38.9560   23.1300   33.0990 H   0  0  0  0  0  0  0  0  0  0  0  0
   37.5640   25.3160   33.8900 N   0  0  0  0  0  0  0  0  0  0  0  0
   37.0660   26.5480   34.4140 C   0  0  0  0  0  2  0  0  0  0  0  0
   37.6220   27.7780   33.7740 C   0  0  0  0  0  2  0  0  0  0  0  0
   37.5000   27.7150   32.2680 C   0  0  0  0  0  3  0  0  0  0  0  0
   37.9280   28.5920   31.7870 H   0  0  0  0  0  0  0  0  0  0  0  0
   38.1880   26.4140   31.8550 C   0  0  0  0  0  2  0  0  0  0  0  0
   37.3370   25.3090   32.4640 C   0  0  0  0  0  2  0  0  0  0  0  0
   38.3550   23.7240   38.3060 C   0  0  0  0  0  0  0  0  0  0  0  0
   37.9710   25.0020   38.6300 F   0  0  0  0  0  0  0  0  0  0  0  0
   37.3610   22.8710   38.8010 F   0  0  0  0  0  0  0  0  0  0  0  0
   39.4780   23.4230   39.0520 F   0  0  0  0  0  0  0  0  0  0  0  0
  1  6  1  0  0  0  0
  2  3  1  0  0  0  0
  2  1  2  0  0  0  0
  3  4  2  0  0  0  0
  4  5  1  0  0  0  0
  5 16  1  0  0  0  0
  6  5  2  0  0  0  0
  7  1  1  0  0  0  0
  8  2  1  0  0  0  0
  9 10  1  0  0  0  0
  9  3  1  0  0  0  0
 11 10  1  0  0  0  0
 12 11  1  0  0  0  0
 13 12  1  0  0  0  0
 14 12  1  0  0  0  0
 14 15  1  0  0  0  0
 15  9  1  0  0  0  0
 16 17  1  0  0  0  0
 16 18  1  0  0  0  0
 16 19  1  0  0  0  0
M  END
>  <minimizedAffinity>
-4.64067173

$$$$

 OpenBabel03272510033D

 19 20  0  0  0  0  0  0  0  0999 V2000
   38.7170   23.0160   36.7780 C   0  0  0  0  0  0  0  0  0  0  0  0
   38.2860   22.3300   35.6430 C   0  0  0  0  0  0  0  0  0  0  0  0
   37.9710   23.0740   34.5090 C   0  0  0  0  0  0  0  0  0  0  0  0
   38.1010   24.4240   34.5740 N   0  0  0  0  0  0  0  0  0  0  0  0
   38.5190   25.0470   35.6820 C   0  0  0  0  0  0  0  0  0  0  0  0
   38.8240   24.3460   36.7770 N   0  0  0  0  0  0  0  0  0  0  0  0
   38.9360   22.3530   37.6000 H   0  0  0  0  0  0  0  0  0  0  0  0
   38.1650   21.2780   35.5340 H   0  0  0  0  0  0  0  0  0  0  0  0
   37.5150   22.5870   33.2520 N   0  0  0  0  0  0  0  0  0  0  0  0
   37.0380   21.2660   32.9900 C   0  0  0  0  0  2  0  0  0  0  0  0
   35.6760   21.1940   32.3810 C   0  0  0  0  0  2  0  0  0  0  0  0
   35.5740   22.0830   31.1620 C   0  0  0  0  0  3  0  0  0  0  0  0
   34.5770   22.0630   30.7250 H   0  0  0  0  0  0  0  0  0  0  0  0
   35.9890   23.4770   31.6340 C   0  0  0  0  0  2  0  0  0  0  0  0
   37.4540   23.3390   32.0210 C   0  0  0  0  0  2  0  0  0  0  0  0
   38.6350   26.5310   35.6710 C   0  0  0  0  0  0  0  0  0  0  0  0
   37.8100   27.1390   34.7580 F   0  0  0  0  0  0  0  0  0  0  0  0
   38.3060   27.0620   36.9240 F   0  0  0  0  0  0  0  0  0  0  0  0
   39.9220   26.9710   35.4310 F   0  0  0  0  0  0  0  0  0  0  0  0
  1  7  1  0  0  0  0
  2  1  2  0  0  0  0
  3  4  2  0  0  0  0
  3  2  1  0  0  0  0
  4  5  1  0  0  0  0
  5  6  2  0  0  0  0
  6  1  1  0  0  0  0
  8  2  1  0  0  0  0
  9  3  1  0  0  0  0
 10  9  1  0  0  0  0
 11 10  1  0  0  0  0
 12 14  1  0  0  0  0
 12 11  1  0  0  0  0
 13 12  1  0  0  0  0
 14 15  1  0  0  0  0
 15  9  1  0  0  0  0
 16  5  1  0  0  0  0
 16 18  1  0  0  0  0
 17 16  1  0  0  0  0
 19 16  1  0  0  0  0
M  END
>  <minimizedAffinity>
-4.57539511

$$$$

 OpenBabel03272510033D

 19 20  0  0  0  0  0  0  0  0999 V2000
   35.3400   25.8140   30.9950 C   0  0  0  0  0  0  0  0  0  0  0  0
   35.2750   24.4240   31.0910 C   0  0  0  0  0  0  0  0  0  0  0  0
   36.2010   23.7810   31.9080 C   0  0  0  0  0  0  0  0  0  0  0  0
   37.1130   24.5430   32.5640 N   0  0  0  0  0  0  0  0  0  0  0  0
   37.1430   25.8760   32.4480 C   0  0  0  0  0  0  0  0  0  0  0  0
   36.2620   26.5060   31.6670 N   0  0  0  0  0  0  0  0  0  0  0  0
   34.5830   26.2160   30.3410 H   0  0  0  0  0  0  0  0  0  0  0  0
   34.5860   23.7770   30.6020 H   0  0  0  0  0  0  0  0  0  0  0  0
   36.3190   22.3830   32.1510 N   0  0  0  0  0  0  0  0  0  0  0  0
   36.8830   21.7820   33.3180 C   0  0  0  0  0  2  0  0  0  0  0  0
   35.9920   20.8120   34.0230 C   0  0  0  0  0  2  0  0  0  0  0  0
   35.4400   19.7790   33.0670 C   0  0  0  0  0  3  0  0  0  0  0  0
   34.7660   19.0840   33.5620 H   0  0  0  0  0  0  0  0  0  0  0  0
   34.7610   20.5740   31.9510 C   0  0  0  0  0  2  0  0  0  0  0  0
   35.8910   21.3270   31.2630 C   0  0  0  0  0  2  0  0  0  0  0  0
   38.1750   26.6390   33.2010 C   0  0  0  0  0  0  0  0  0  0  0  0
   37.6530   27.6110   34.0180 F   0  0  0  0  0  0  0  0  0  0  0  0
   38.9230   25.7850   34.0220 F   0  0  0  0  0  0  0  0  0  0  0  0
   39.1080   27.2410   32.3790 F   0  0  0  0  0  0  0  0  0  0  0  0
  1  2  2  0  0  0  0
  1  6  1  0  0  0  0
  2  3  1  0  0  0  0
  3  9  1  0  0  0  0
  3  4  2  0  0  0  0
  5  4  1  0  0  0  0
  5 16  1  0  0  0  0
  6  5  2  0  0  0  0
  7  1  1  0  0  0  0
  8  2  1  0  0  0  0
  9 10  1  0  0  0  0
 10 11  1  0  0  0  0
 12 13  1  0  0  0  0
 12 11  1  0  0  0  0
 14 12  1  0  0  0  0
 15 14  1  0  0  0  0
 15  9  1  0  0  0  0
 16 17  1  0  0  0  0
 16 18  1  0  0  0  0
 19 16  1  0  0  0  0
M  END
>  <minimizedAffinity>
-4.48566866

$$$$
