
 OpenBabel03272504133D

 19 20  0  0  0  0  0  0  0  0999 V2000
   38.7180   23.0410   36.8830 C   0  0  0  0  0  0  0  0  0  0  0  0
   37.7010   22.7250   35.9700 C   0  0  0  0  0  0  0  0  0  0  0  0
   38.0580   22.2040   34.7290 C   0  0  0  0  0  0  0  0  0  0  0  0
   39.3820   22.0300   34.4710 N   0  0  0  0  0  0  0  0  0  0  0  0
   40.3390   22.3430   35.3690 C   0  0  0  0  0  0  0  0  0  0  0  0
   40.0130   22.8470   36.5730 N   0  0  0  0  0  0  0  0  0  0  0  0
   36.6700   22.8890   36.2420 H   0  0  0  0  0  0  0  0  0  0  0  0
   41.3630   22.1630   35.0600 H   0  0  0  0  0  0  0  0  0  0  0  0
   37.0580   21.8710   33.7740 N   0  0  0  0  0  0  0  0  0  0  0  0
   37.1100   22.5640   32.5000 C   0  0  0  0  0  2  0  0  0  0  0  0
   35.8920   22.2720   31.6540 C   0  0  0  0  0  2  0  0  0  0  0  0
   35.7640   20.7550   31.6410 C   0  0  0  0  0  3  0  0  0  0  0  0
   36.7330   20.2520   31.4560 H   0  0  0  0  0  0  0  0  0  0  0  0
   35.2720   20.3450   33.0060 C   0  0  0  0  0  2  0  0  0  0  0  0
   36.0710   20.8740   34.1440 C   0  0  0  0  0  2  0  0  0  0  0  0
   38.3390   23.6000   38.2180 C   0  0  0  0  0  0  0  0  0  0  0  0
   38.0560   24.9430   38.1060 F   0  0  0  0  0  0  0  0  0  0  0  0
   37.2970   22.8420   38.7060 F   0  0  0  0  0  0  0  0  0  0  0  0
   39.4610   23.4850   39.0370 F   0  0  0  0  0  0  0  0  0  0  0  0
  1 16  1  0  0  0  0
  2  7  1  0  0  0  0
  2  1  2  0  0  0  0
  3  2  1  0  0  0  0
  4  3  2  0  0  0  0
  4  5  1  0  0  0  0
  5  6  2  0  0  0  0
  6  1  1  0  0  0  0
  8  5  1  0  0  0  0
  9 15  1  0  0  0  0
  9  3  1  0  0  0  0
 10  9  1  0  0  0  0
 11 10  1  0  0  0  0
 12 11  1  0  0  0  0
 12 14  1  0  0  0  0
 13 12  1  0  0  0  0
 14 15  1  0  0  0  0
 16 18  1  0  0  0  0
 16 19  1  0  0  0  0
 17 16  1  0  0  0  0
M  END
>  <minimizedAffinity>
-5.2584362

$$$$

 OpenBabel03272504133D

 19 20  0  0  0  0  0  0  0  0999 V2000
   38.1230   23.5950   36.8810 C   0  0  0  0  0  0  0  0  0  0  0  0
   38.1780   24.7650   36.1090 C   0  0  0  0  0  0  0  0  0  0  0  0
   38.1200   24.6520   34.7230 C   0  0  0  0  0  0  0  0  0  0  0  0
   38.0110   23.4050   34.1910 N   0  0  0  0  0  0  0  0  0  0  0  0
   37.9610   22.2960   34.9580 C   0  0  0  0  0  0  0  0  0  0  0  0
   38.0160   22.3860   36.2990 N   0  0  0  0  0  0  0  0  0  0  0  0
   38.2640   25.7230   36.5980 H   0  0  0  0  0  0  0  0  0  0  0  0
   37.8740   21.3530   34.4310 H   0  0  0  0  0  0  0  0  0  0  0  0
   38.1730   25.8150   33.9040 N   0  0  0  0  0  0  0  0  0  0  0  0
   39.2700   25.9000   32.9570 C   0  0  0  0  0  2  0  0  0  0  0  0
   39.3290   27.2560   32.2910 C   0  0  0  0  0  2  0  0  0  0  0  0
   37.9180   27.5170   31.7810 C   0  0  0  0  0  3  0  0  0  0  0  0
   37.4870   26.6360   31.2660 H   0  0  0  0  0  0  0  0  0  0  0  0
   37.0660   27.8250   32.9860 C   0  0  0  0  0  2  0  0  0  0  0  0
   37.1370   26.8150   34.0770 C   0  0  0  0  0  2  0  0  0  0  0  0
   38.1840   23.7110   38.3700 C   0  0  0  0  0  0  0  0  0  0  0  0
   37.9760   25.0180   38.7530 F   0  0  0  0  0  0  0  0  0  0  0  0
   37.2770   22.8180   38.8960 F   0  0  0  0  0  0  0  0  0  0  0  0
   39.4840   23.3770   38.7480 F   0  0  0  0  0  0  0  0  0  0  0  0
  1 16  1  0  0  0  0
  2  7  1  0  0  0  0
  2  1  2  0  0  0  0
  3  2  1  0  0  0  0
  4  3  2  0  0  0  0
  4  5  1  0  0  0  0
  5  6  2  0  0  0  0
  6  1  1  0  0  0  0
  8  5  1  0  0  0  0
  9 15  1  0  0  0  0
  9  3  1  0  0  0  0
 10  9  1  0  0  0  0
 11 10  1  0  0  0  0
 12 11  1  0  0  0  0
 12 14  1  0  0  0  0
 13 12  1  0  0  0  0
 14 15  1  0  0  0  0
 16 19  1  0  0  0  0
 16 17  1  0  0  0  0
 16 18  1  0  0  0  0
M  END
>  <minimizedAffinity>
-5.18207026

$$$$

 OpenBabel03272504133D

 19 20  0  0  0  0  0  0  0  0999 V2000
   39.9540   22.3770   36.8160 C   0  0  0  0  0  0  0  0  0  0  0  0
   39.2600   21.9170   35.6870 C   0  0  0  0  0  0  0  0  0  0  0  0
   37.9010   22.1990   35.5790 C   0  0  0  0  0  0  0  0  0  0  0  0
   37.3190   22.9100   36.5810 N   0  0  0  0  0  0  0  0  0  0  0  0
   38.0110   23.3400   37.6560 C   0  0  0  0  0  0  0  0  0  0  0  0
   39.3240   23.0780   37.7780 N   0  0  0  0  0  0  0  0  0  0  0  0
   39.7870   21.3580   34.9290 H   0  0  0  0  0  0  0  0  0  0  0  0
   37.4480   23.8990   38.3960 H   0  0  0  0  0  0  0  0  0  0  0  0
   37.1610   21.7500   34.4500 N   0  0  0  0  0  0  0  0  0  0  0  0
   36.0440   20.8600   34.7090 C   0  0  0  0  0  2  0  0  0  0  0  0
   35.4650   20.3010   33.4300 C   0  0  0  0  0  2  0  0  0  0  0  0
   35.2280   21.5090   32.5330 C   0  0  0  0  0  3  0  0  0  0  0  0
   34.7410   22.3440   33.0730 H   0  0  0  0  0  0  0  0  0  0  0  0
   36.5800   21.9750   32.0580 C   0  0  0  0  0  2  0  0  0  0  0  0
   37.5750   22.2110   33.1390 C   0  0  0  0  0  2  0  0  0  0  0  0
   41.4140   22.0780   36.9350 C   0  0  0  0  0  0  0  0  0  0  0  0
   41.8410   21.3580   35.8410 F   0  0  0  0  0  0  0  0  0  0  0  0
   42.0710   23.2740   37.1160 F   0  0  0  0  0  0  0  0  0  0  0  0
   41.5670   21.2550   38.0510 F   0  0  0  0  0  0  0  0  0  0  0  0
  1 16  1  0  0  0  0
  1  6  1  0  0  0  0
  2  1  2  0  0  0  0
  3  2  1  0  0  0  0
  3  4  2  0  0  0  0
  4  5  1  0  0  0  0
  5  6  2  0  0  0  0
  5  8  1  0  0  0  0
  7  2  1  0  0  0  0
  9 10  1  0  0  0  0
  9  3  1  0  0  0  0
 11 10  1  0  0  0  0
 12 13  1  0  0  0  0
 12 11  1  0  0  0  0
 14 12  1  0  0  0  0
 14 15  1  0  0  0  0
 15  9  1  0  0  0  0
 16 18  1  0  0  0  0
 16 19  1  0  0  0  0
 17 16  1  0  0  0  0
M  END
>  <minimizedAffinity>
-4.91180134

$$$$

 OpenBabel03272504133D

 19 20  0  0  0  0  0  0  0  0999 V2000
   38.1920   24.2440   36.8810 C   0  0  0  0  0  0  0  0  0  0  0  0
   38.1610   23.2310   35.9120 C   0  0  0  0  0  0  0  0  0  0  0  0
   38.1230   23.5940   34.5690 C   0  0  0  0  0  0  0  0  0  0  0  0
   38.1190   24.9200   34.2690 N   0  0  0  0  0  0  0  0  0  0  0  0
   38.1500   25.8740   35.2230 C   0  0  0  0  0  0  0  0  0  0  0  0
   38.1860   25.5430   36.5250 N   0  0  0  0  0  0  0  0  0  0  0  0
   38.1670   22.1970   36.2220 H   0  0  0  0  0  0  0  0  0  0  0  0
   38.1430   26.9010   34.8730 H   0  0  0  0  0  0  0  0  0  0  0  0
   38.0890   22.5960   33.5550 N   0  0  0  0  0  0  0  0  0  0  0  0
   36.9420   22.6020   32.6660 C   0  0  0  0  0  2  0  0  0  0  0  0
   36.9250   21.3860   31.7680 C   0  0  0  0  0  2  0  0  0  0  0  0
   38.3130   21.3250   31.1460 C   0  0  0  0  0  3  0  0  0  0  0  0
   38.6540   22.3130   30.7790 H   0  0  0  0  0  0  0  0  0  0  0  0
   39.2580   20.8690   32.2280 C   0  0  0  0  0  2  0  0  0  0  0  0
   39.1950   21.6590   33.4870 C   0  0  0  0  0  2  0  0  0  0  0  0
   38.2340   23.8590   38.3250 C   0  0  0  0  0  0  0  0  0  0  0  0
   39.4540   23.2980   38.6310 F   0  0  0  0  0  0  0  0  0  0  0  0
   37.9270   24.9800   39.0640 F   0  0  0  0  0  0  0  0  0  0  0  0
   37.2710   22.8670   38.5070 F   0  0  0  0  0  0  0  0  0  0  0  0
  1 16  1  0  0  0  0
  2  7  1  0  0  0  0
  2  1  2  0  0  0  0
  3  2  1  0  0  0  0
  4  3  2  0  0  0  0
  4  5  1  0  0  0  0
  5  6  2  0  0  0  0
  6  1  1  0  0  0  0
  8  5  1  0  0  0  0
  9  3  1  0  0  0  0
 10  9  1  0  0  0  0
 11 10  1  0  0  0  0
 12 11  1  0  0  0  0
 12 14  1  0  0  0  0
 13 12  1  0  0  0  0
 14 15  1  0  0  0  0
 15  9  1  0  0  0  0
 16 19  1  0  0  0  0
 16 17  1  0  0  0  0
 16 18  1  0  0  0  0
M  END
>  <minimizedAffinity>
-4.73891449

$$$$

 OpenBabel03272504133D

 19 20  0  0  0  0  0  0  0  0999 V2000
   36.4840   21.3770   32.9660 C   0  0  0  0  0  0  0  0  0  0  0  0
   36.9270   21.4650   34.2940 C   0  0  0  0  0  0  0  0  0  0  0  0
   37.8270   22.4720   34.6310 C   0  0  0  0  0  0  0  0  0  0  0  0
   38.2290   23.3190   33.6470 N   0  0  0  0  0  0  0  0  0  0  0  0
   37.7870   23.2110   32.3770 C   0  0  0  0  0  0  0  0  0  0  0  0
   36.9170   22.2450   32.0330 N   0  0  0  0  0  0  0  0  0  0  0  0
   36.5650   20.7570   35.0240 H   0  0  0  0  0  0  0  0  0  0  0  0
   38.1720   23.9400   31.6720 H   0  0  0  0  0  0  0  0  0  0  0  0
   38.3010   22.5950   35.9670 N   0  0  0  0  0  0  0  0  0  0  0  0
   39.7330   22.4770   36.1690 C   0  0  0  0  0  2  0  0  0  0  0  0
   40.0890   22.4290   37.6380 C   0  0  0  0  0  2  0  0  0  0  0  0
   39.3700   23.6150   38.2660 C   0  0  0  0  0  3  0  0  0  0  0  0
   39.4880   24.5420   37.6710 H   0  0  0  0  0  0  0  0  0  0  0  0
   37.9050   23.2650   38.3130 C   0  0  0  0  0  2  0  0  0  0  0  0
   37.3250   22.8260   37.0150 C   0  0  0  0  0  2  0  0  0  0  0  0
   35.5170   20.2980   32.5990 C   0  0  0  0  0  0  0  0  0  0  0  0
   35.3860   19.4050   33.6400 F   0  0  0  0  0  0  0  0  0  0  0  0
   34.3380   20.9040   32.2240 F   0  0  0  0  0  0  0  0  0  0  0  0
   36.0760   19.5990   31.5300 F   0  0  0  0  0  0  0  0  0  0  0  0
  1  2  1  0  0  0  0
  2  3  2  0  0  0  0
  2  7  1  0  0  0  0
  3  9  1  0  0  0  0
  4  3  1  0  0  0  0
  5  4  2  0  0  0  0
  6  5  1  0  0  0  0
  6  1  2  0  0  0  0
  8  5  1  0  0  0  0
  9 10  1  0  0  0  0
  9 15  1  0  0  0  0
 10 11  1  0  0  0  0
 11 12  1  0  0  0  0
 12 14  1  0  0  0  0
 13 12  1  0  0  0  0
 15 14  1  0  0  0  0
 16  1  1  0  0  0  0
 16 17  1  0  0  0  0
 18 16  1  0  0  0  0
 19 16  1  0  0  0  0
M  END
>  <minimizedAffinity>
-4.67119694

$$$$

 OpenBabel03272504133D

 19 20  0  0  0  0  0  0  0  0999 V2000
   36.5800   21.6120   32.6800 C   0  0  0  0  0  0  0  0  0  0  0  0
   37.4080   22.2370   33.6240 C   0  0  0  0  0  0  0  0  0  0  0  0
   37.2560   21.9060   34.9670 C   0  0  0  0  0  0  0  0  0  0  0  0
   36.3070   20.9880   35.2910 N   0  0  0  0  0  0  0  0  0  0  0  0
   35.5230   20.4020   34.3620 C   0  0  0  0  0  0  0  0  0  0  0  0
   35.6560   20.7090   33.0600 N   0  0  0  0  0  0  0  0  0  0  0  0
   38.1410   22.9570   33.2950 H   0  0  0  0  0  0  0  0  0  0  0  0
   34.7990   19.6830   34.7300 H   0  0  0  0  0  0  0  0  0  0  0  0
   38.0750   22.5190   35.9560 N   0  0  0  0  0  0  0  0  0  0  0  0
   37.3990   23.2800   36.9900 C   0  0  0  0  0  2  0  0  0  0  0  0
   38.3780   24.0370   37.8580 C   0  0  0  0  0  2  0  0  0  0  0  0
   39.4150   23.0090   38.2870 C   0  0  0  0  0  3  0  0  0  0  0  0
   38.9530   22.0610   38.6250 H   0  0  0  0  0  0  0  0  0  0  0  0
   40.2690   22.7160   37.0790 C   0  0  0  0  0  2  0  0  0  0  0  0
   39.5110   22.3360   35.8560 C   0  0  0  0  0  2  0  0  0  0  0  0
   36.7400   21.9640   31.2360 C   0  0  0  0  0  0  0  0  0  0  0  0
   35.6440   22.6710   30.7960 F   0  0  0  0  0  0  0  0  0  0  0  0
   37.9360   22.6340   31.1000 F   0  0  0  0  0  0  0  0  0  0  0  0
   36.7630   20.7630   30.5270 F   0  0  0  0  0  0  0  0  0  0  0  0
  1  6  2  0  0  0  0
  1  2  1  0  0  0  0
  2  3  2  0  0  0  0
  3  4  1  0  0  0  0
  3  9  1  0  0  0  0
  5  8  1  0  0  0  0
  5  4  2  0  0  0  0
  6  5  1  0  0  0  0
  7  2  1  0  0  0  0
  9 10  1  0  0  0  0
 10 11  1  0  0  0  0
 11 12  1  0  0  0  0
 12 13  1  0  0  0  0
 14 12  1  0  0  0  0
 15  9  1  0  0  0  0
 15 14  1  0  0  0  0
 16  1  1  0  0  0  0
 17 16  1  0  0  0  0
 18 16  1  0  0  0  0
 19 16  1  0  0  0  0
M  END
>  <minimizedAffinity>
-4.64137411

$$$$

 OpenBabel03272504133D

 19 20  0  0  0  0  0  0  0  0999 V2000
   39.5980   22.8700   36.1250 C   0  0  0  0  0  0  0  0  0  0  0  0
   39.3010   24.1790   35.7190 C   0  0  0  0  0  0  0  0  0  0  0  0
   38.3960   24.3650   34.6770 C   0  0  0  0  0  0  0  0  0  0  0  0
   37.8480   23.2580   34.1080 N   0  0  0  0  0  0  0  0  0  0  0  0
   38.1540   22.0100   34.5190 C   0  0  0  0  0  0  0  0  0  0  0  0
   39.0250   21.8110   35.5240 N   0  0  0  0  0  0  0  0  0  0  0  0
   39.7730   25.0120   36.2170 H   0  0  0  0  0  0  0  0  0  0  0  0
   37.6580   21.1990   33.9950 H   0  0  0  0  0  0  0  0  0  0  0  0
   38.0680   25.6770   34.2350 N   0  0  0  0  0  0  0  0  0  0  0  0
   38.3590   25.9940   32.8490 C   0  0  0  0  0  2  0  0  0  0  0  0
   38.1500   27.4620   32.5560 C   0  0  0  0  0  2  0  0  0  0  0  0
   36.7620   27.7860   33.0890 C   0  0  0  0  0  3  0  0  0  0  0  0
   36.0120   27.0240   32.8010 H   0  0  0  0  0  0  0  0  0  0  0  0
   36.8630   27.8050   34.5940 C   0  0  0  0  0  2  0  0  0  0  0  0
   37.4720   26.5870   35.1940 C   0  0  0  0  0  2  0  0  0  0  0  0
   40.5690   22.6660   37.2440 C   0  0  0  0  0  0  0  0  0  0  0  0
   40.7920   21.3220   37.4390 F   0  0  0  0  0  0  0  0  0  0  0  0
   41.7030   23.3900   36.9500 F   0  0  0  0  0  0  0  0  0  0  0  0
   39.9590   23.1520   38.4010 F   0  0  0  0  0  0  0  0  0  0  0  0
  1 16  1  0  0  0  0
  2  1  1  0  0  0  0
  2  7  1  0  0  0  0
  3  2  2  0  0  0  0
  4  5  2  0  0  0  0
  4  3  1  0  0  0  0
  5  6  1  0  0  0  0
  6  1  2  0  0  0  0
  8  5  1  0  0  0  0
  9  3  1  0  0  0  0
  9 15  1  0  0  0  0
 10  9  1  0  0  0  0
 11 10  1  0  0  0  0
 11 12  1  0  0  0  0
 12 14  1  0  0  0  0
 13 12  1  0  0  0  0
 14 15  1  0  0  0  0
 16 17  1  0  0  0  0
 16 19  1  0  0  0  0
 18 16  1  0  0  0  0
M  END
>  <minimizedAffinity>
-4.64018869

$$$$

 OpenBabel03272504133D

 19 20  0  0  0  0  0  0  0  0999 V2000
   36.5260   22.9460   31.5770 C   0  0  0  0  0  0  0  0  0  0  0  0
   37.3110   23.5190   32.5890 C   0  0  0  0  0  0  0  0  0  0  0  0
   37.1930   24.8850   32.8320 C   0  0  0  0  0  0  0  0  0  0  0  0
   36.3180   25.5920   32.0680 N   0  0  0  0  0  0  0  0  0  0  0  0
   35.5750   25.0140   31.1000 C   0  0  0  0  0  0  0  0  0  0  0  0
   35.6760   23.6970   30.8520 N   0  0  0  0  0  0  0  0  0  0  0  0
   37.9850   22.8970   33.1570 H   0  0  0  0  0  0  0  0  0  0  0  0
   34.9090   25.6720   30.5520 H   0  0  0  0  0  0  0  0  0  0  0  0
   37.9710   25.5040   33.8490 N   0  0  0  0  0  0  0  0  0  0  0  0
   38.8720   26.5630   33.4330 C   0  0  0  0  0  2  0  0  0  0  0  0
   39.7780   27.0020   34.5600 C   0  0  0  0  0  2  0  0  0  0  0  0
   38.8520   27.2700   35.7400 C   0  0  0  0  0  3  0  0  0  0  0  0
   37.9600   27.8580   35.4490 H   0  0  0  0  0  0  0  0  0  0  0  0
   38.3910   25.9280   36.2480 C   0  0  0  0  0  2  0  0  0  0  0  0
   37.8060   25.0350   35.2110 C   0  0  0  0  0  2  0  0  0  0  0  0
   36.6490   21.4800   31.3140 C   0  0  0  0  0  0  0  0  0  0  0  0
   35.4210   20.9540   30.9780 F   0  0  0  0  0  0  0  0  0  0  0  0
   37.6190   21.3080   30.3520 F   0  0  0  0  0  0  0  0  0  0  0  0
   37.0340   20.8840   32.5150 F   0  0  0  0  0  0  0  0  0  0  0  0
  1  2  1  0  0  0  0
  2  3  2  0  0  0  0
  2  7  1  0  0  0  0
  3  9  1  0  0  0  0
  4  3  1  0  0  0  0
  5  4  2  0  0  0  0
  6  5  1  0  0  0  0
  6  1  2  0  0  0  0
  8  5  1  0  0  0  0
  9 15  1  0  0  0  0
 10  9  1  0  0  0  0
 10 11  1  0  0  0  0
 11 12  1  0  0  0  0
 12 14  1  0  0  0  0
 13 12  1  0  0  0  0
 15 14  1  0  0  0  0
 16  1  1  0  0  0  0
 16 19  1  0  0  0  0
 17 16  1  0  0  0  0
 18 16  1  0  0  0  0
M  END
>  <minimizedAffinity>
-4.55680704

$$$$

 OpenBabel03272504133D

 19 20  0  0  0  0  0  0  0  0999 V2000
   38.9040   23.9100   36.5470 C   0  0  0  0  0  0  0  0  0  0  0  0
   38.2580   24.6730   35.5630 C   0  0  0  0  0  0  0  0  0  0  0  0
   38.9120   24.8900   34.3530 C   0  0  0  0  0  0  0  0  0  0  0  0
   40.1470   24.3470   34.1930 N   0  0  0  0  0  0  0  0  0  0  0  0
   40.7450   23.6170   35.1570 C   0  0  0  0  0  0  0  0  0  0  0  0
   40.1300   23.3960   36.3320 N   0  0  0  0  0  0  0  0  0  0  0  0
   37.2760   25.0740   35.7590 H   0  0  0  0  0  0  0  0  0  0  0  0
   41.7320   23.2300   34.9230 H   0  0  0  0  0  0  0  0  0  0  0  0
   38.2910   25.6590   33.3290 N   0  0  0  0  0  0  0  0  0  0  0  0
   38.9860   26.8570   32.8960 C   0  0  0  0  0  2  0  0  0  0  0  0
   38.1410   27.6850   31.9550 C   0  0  0  0  0  2  0  0  0  0  0  0
   37.6550   26.7120   30.8890 C   0  0  0  0  0  3  0  0  0  0  0  0
   38.4660   26.0570   30.5160 H   0  0  0  0  0  0  0  0  0  0  0  0
   36.6030   25.8460   31.5340 C   0  0  0  0  0  2  0  0  0  0  0  0
   37.0240   25.1910   32.8020 C   0  0  0  0  0  2  0  0  0  0  0  0
   38.2060   23.6730   37.8480 C   0  0  0  0  0  0  0  0  0  0  0  0
   37.9220   24.8730   38.4590 F   0  0  0  0  0  0  0  0  0  0  0  0
   37.0990   22.8950   37.5910 F   0  0  0  0  0  0  0  0  0  0  0  0
   39.1050   22.9960   38.6720 F   0  0  0  0  0  0  0  0  0  0  0  0
  1 16  1  0  0  0  0
  2  7  1  0  0  0  0
  2  1  2  0  0  0  0
  3  2  1  0  0  0  0
  4  3  2  0  0  0  0
  4  5  1  0  0  0  0
  5  6  2  0  0  0  0
  6  1  1  0  0  0  0
  8  5  1  0  0  0  0
  9  3  1  0  0  0  0
 10  9  1  0  0  0  0
 11 10  1  0  0  0  0
 12 14  1  0  0  0  0
 12 11  1  0  0  0  0
 13 12  1  0  0  0  0
 14 15  1  0  0  0  0
 15  9  1  0  0  0  0
 16 17  1  0  0  0  0
 16 19  1  0  0  0  0
 18 16  1  0  0  0  0
M  END
>  <minimizedAffinity>
-4.48940659

$$$$
