
 OpenBabel03272508393D

 30 32  0  0  1  0  0  0  0  0999 V2000
   37.9640   22.9580   34.7100 N   0  0  0  0  0  0  0  0  0  0  0  0
   37.3860   21.7460   34.1700 C   0  0  0  0  0  0  0  0  0  0  0  0
   37.8640   21.3590   32.8200 C   0  0  2  0  0  0  0  0  0  0  0  0
   38.3130   22.4070   31.9570 N   0  0  0  0  0  0  0  0  0  0  0  0
   39.0130   23.4720   32.6550 C   0  0  0  0  0  0  0  0  0  0  0  0
   38.0170   23.9590   33.7080 C   0  0  0  0  0  0  0  0  0  0  0  0
   36.3040   21.8300   34.3100 H   0  0  0  0  0  0  0  0  0  0  0  0
   37.6980   20.9330   34.8910 H   0  0  0  0  0  0  0  0  0  0  0  0
   38.7150   20.6480   32.8990 H   0  0  0  0  0  0  0  0  0  0  0  0
   37.5650   22.7810   31.3280 H   0  0  0  0  0  0  0  0  0  0  0  0
   39.2340   24.2590   31.9100 H   0  0  0  0  0  0  0  0  0  0  0  0
   39.8980   23.0430   33.1430 H   0  0  0  0  0  0  0  0  0  0  0  0
   37.0210   24.0910   33.2250 H   0  0  0  0  0  0  0  0  0  0  0  0
   38.2890   24.9740   34.0730 H   0  0  0  0  0  0  0  0  0  0  0  0
   38.3990   23.0760   36.0560 C   0  0  0  0  0  0  0  0  0  0  0  0
   39.6300   22.5980   36.4970 C   0  0  0  0  0  0  0  0  0  0  0  0
   39.9880   22.7500   37.8340 C   0  0  0  0  0  0  0  0  0  0  0  0
   39.0920   23.3740   38.6670 N   0  0  0  0  0  0  0  0  0  0  0  0
   37.9030   23.8250   38.2070 C   0  0  0  0  0  0  0  0  0  0  0  0
   37.5520   23.6820   36.9130 N   0  0  0  0  0  0  0  0  0  0  0  0
   40.2990   22.1090   35.7760 H   0  0  0  0  0  0  0  0  0  0  0  0
   40.9460   22.3760   38.1680 H   0  0  0  0  0  0  0  0  0  0  0  0
   37.2390   24.3100   38.9140 H   0  0  0  0  0  0  0  0  0  0  0  0
   36.8180   20.6780   32.1440 N   0  0  0  0  0  0  0  0  0  0  0  0
   35.4910   20.9990   32.3830 C   0  0  0  0  0  2  0  0  0  0  0  0
   34.5950   19.8040   32.0510 C   0  0  0  0  0  2  0  0  0  0  0  0
   35.2130   18.5080   32.4930 C   0  0  0  0  0  3  0  0  0  0  0  0
   34.5650   17.7030   32.0700 H   0  0  0  0  0  0  0  0  0  0  0  0
   36.6040   18.3080   31.9770 C   0  0  0  0  0  2  0  0  0  0  0  0
   37.1510   19.5660   31.3580 C   0  0  0  0  0  2  0  0  0  0  0  0
  1 15  1  0  0  0  0
  2  7  1  0  0  0  0
  2  1  1  0  0  0  0
  2  8  1  0  0  0  0
  3  9  1  1  0  0  0
  3  2  1  0  0  0  0
  4  5  1  0  0  0  0
  4  3  1  0  0  0  0
  5 12  1  0  0  0  0
  5  6  1  0  0  0  0
  6 14  1  0  0  0  0
  6  1  1  0  0  0  0
 10  4  1  0  0  0  0
 11  5  1  0  0  0  0
 13  6  1  0  0  0  0
 15 16  2  0  0  0  0
 15 20  1  0  0  0  0
 16 17  1  0  0  0  0
 17 22  1  0  0  0  0
 17 18  2  0  0  0  0
 19 18  1  0  0  0  0
 19 23  1  0  0  0  0
 20 19  2  0  0  0  0
 21 16  1  0  0  0  0
 24 25  1  0  0  0  0
 24  3  1  0  0  0  0
 26 25  1  0  0  0  0
 26 27  1  0  0  0  0
 28 27  1  0  0  0  0
 29 27  1  0  0  0  0
 30 29  1  0  0  0  0
 30 24  1  0  0  0  0
M  END
>  <minimizedAffinity>
-4.96593332

$$$$

 OpenBabel03272508393D

 30 32  0  0  1  0  0  0  0  0999 V2000
   38.3080   24.8440   35.7250 N   0  0  0  0  0  0  0  0  0  0  0  0
   39.6780   24.3860   35.6420 C   0  0  0  0  0  0  0  0  0  0  0  0
   39.8870   22.9490   35.9460 C   0  0  2  0  0  0  0  0  0  0  0  0
   38.9550   22.3220   36.8300 N   0  0  0  0  0  0  0  0  0  0  0  0
   37.5920   22.7980   36.6660 C   0  0  0  0  0  0  0  0  0  0  0  0
   37.6850   24.3090   36.8800 C   0  0  0  0  0  0  0  0  0  0  0  0
   40.2800   25.1060   36.2020 H   0  0  0  0  0  0  0  0  0  0  0  0
   39.9730   24.5550   34.5630 H   0  0  0  0  0  0  0  0  0  0  0  0
   39.8690   22.3470   35.0110 H   0  0  0  0  0  0  0  0  0  0  0  0
   39.2540   22.3360   37.8320 H   0  0  0  0  0  0  0  0  0  0  0  0
   36.9820   22.3130   37.4500 H   0  0  0  0  0  0  0  0  0  0  0  0
   37.2710   22.5810   35.6380 H   0  0  0  0  0  0  0  0  0  0  0  0
   38.3000   24.5040   37.7890 H   0  0  0  0  0  0  0  0  0  0  0  0
   36.6880   24.7390   37.1180 H   0  0  0  0  0  0  0  0  0  0  0  0
   37.7200   25.7070   34.7630 C   0  0  0  0  0  0  0  0  0  0  0  0
   37.3230   27.0080   35.0580 C   0  0  0  0  0  0  0  0  0  0  0  0
   36.7530   27.7970   34.0620 C   0  0  0  0  0  0  0  0  0  0  0  0
   36.6070   27.2400   32.8150 N   0  0  0  0  0  0  0  0  0  0  0  0
   37.0010   25.9720   32.5610 C   0  0  0  0  0  0  0  0  0  0  0  0
   37.5550   25.2050   33.5220 N   0  0  0  0  0  0  0  0  0  0  0  0
   37.4700   27.3900   36.0770 H   0  0  0  0  0  0  0  0  0  0  0  0
   36.4480   28.8060   34.3000 H   0  0  0  0  0  0  0  0  0  0  0  0
   36.8600   25.5900   31.5560 H   0  0  0  0  0  0  0  0  0  0  0  0
   41.1780   22.7860   36.5140 N   0  0  0  0  0  0  0  0  0  0  0  0
   42.2500   23.5440   36.0670 C   0  0  0  0  0  2  0  0  0  0  0  0
   43.5630   22.8120   36.3520 C   0  0  0  0  0  2  0  0  0  0  0  0
   43.4430   21.3370   36.0940 C   0  0  0  0  0  3  0  0  0  0  0  0
   44.3890   20.8840   36.4760 H   0  0  0  0  0  0  0  0  0  0  0  0
   42.2950   20.7000   36.8130 C   0  0  0  0  0  2  0  0  0  0  0  0
   41.3790   21.7320   37.4140 C   0  0  0  0  0  2  0  0  0  0  0  0
  1  6  1  0  0  0  0
  2  1  1  0  0  0  0
  2  3  1  0  0  0  0
  2  7  1  0  0  0  0
  3  9  1  6  0  0  0
  3 24  1  0  0  0  0
  3  4  1  0  0  0  0
  4 10  1  0  0  0  0
  5  4  1  0  0  0  0
  5  6  1  0  0  0  0
  5 11  1  0  0  0  0
  6 14  1  0  0  0  0
  6 13  1  0  0  0  0
  8  2  1  0  0  0  0
 12  5  1  0  0  0  0
 15 16  1  0  0  0  0
 15  1  1  0  0  0  0
 16 21  1  0  0  0  0
 17 22  1  0  0  0  0
 17 16  2  0  0  0  0
 18 17  1  0  0  0  0
 19 18  2  0  0  0  0
 19 20  1  0  0  0  0
 20 15  2  0  0  0  0
 23 19  1  0  0  0  0
 24 30  1  0  0  0  0
 25 26  1  0  0  0  0
 25 24  1  0  0  0  0
 27 26  1  0  0  0  0
 27 28  1  0  0  0  0
 27 29  1  0  0  0  0
 29 30  1  0  0  0  0
M  END
>  <minimizedAffinity>
-4.94177818

$$$$

 OpenBabel03272508393D

 30 32  0  0  1  0  0  0  0  0999 V2000
   38.3490   25.2170   35.2650 N   0  0  0  0  0  0  0  0  0  0  0  0
   37.9270   24.7240   33.9710 C   0  0  0  0  0  0  0  0  0  0  0  0
   38.4250   25.4930   32.8050 C   0  0  2  0  0  0  0  0  0  0  0  0
   38.7120   26.8790   33.0060 N   0  0  0  0  0  0  0  0  0  0  0  0
   39.2770   27.1700   34.3120 C   0  0  0  0  0  0  0  0  0  0  0  0
   38.2460   26.6300   35.3040 C   0  0  0  0  0  0  0  0  0  0  0  0
   36.8470   24.5640   34.0380 H   0  0  0  0  0  0  0  0  0  0  0  0
   38.3600   23.6810   33.9060 H   0  0  0  0  0  0  0  0  0  0  0  0
   39.3650   25.0440   32.4160 H   0  0  0  0  0  0  0  0  0  0  0  0
   37.9080   27.5100   32.7810 H   0  0  0  0  0  0  0  0  0  0  0  0
   39.3750   28.2690   34.3870 H   0  0  0  0  0  0  0  0  0  0  0  0
   40.2220   26.6190   34.4110 H   0  0  0  0  0  0  0  0  0  0  0  0
   37.2320   26.9630   34.9840 H   0  0  0  0  0  0  0  0  0  0  0  0
   38.3870   27.0830   36.3100 H   0  0  0  0  0  0  0  0  0  0  0  0
   38.7910   24.3650   36.3110 C   0  0  0  0  0  0  0  0  0  0  0  0
   38.1450   24.2820   37.5420 C   0  0  0  0  0  0  0  0  0  0  0  0
   38.6380   23.4240   38.5210 C   0  0  0  0  0  0  0  0  0  0  0  0
   39.7580   22.6890   38.2200 N   0  0  0  0  0  0  0  0  0  0  0  0
   40.3630   22.7940   37.0150 C   0  0  0  0  0  0  0  0  0  0  0  0
   39.8900   23.6230   36.0630 N   0  0  0  0  0  0  0  0  0  0  0  0
   37.2530   24.8990   37.7160 H   0  0  0  0  0  0  0  0  0  0  0  0
   38.1290   23.3650   39.4740 H   0  0  0  0  0  0  0  0  0  0  0  0
   41.2440   22.1870   36.8370 H   0  0  0  0  0  0  0  0  0  0  0  0
   37.4670   25.4100   31.7610 N   0  0  0  0  0  0  0  0  0  0  0  0
   36.3500   26.2310   31.7570 C   0  0  0  0  0  2  0  0  0  0  0  0
   35.2250   25.5810   30.9480 C   0  0  0  0  0  2  0  0  0  0  0  0
   35.1480   24.1010   31.1950 C   0  0  0  0  0  3  0  0  0  0  0  0
   34.4140   23.7070   30.4530 H   0  0  0  0  0  0  0  0  0  0  0  0
   36.4520   23.3960   30.9830 C   0  0  0  0  0  2  0  0  0  0  0  0
   37.5890   24.3700   30.8290 C   0  0  0  0  0  2  0  0  0  0  0  0
  1  6  1  0  0  0  0
  1 15  1  0  0  0  0
  2  7  1  0  0  0  0
  2  1  1  0  0  0  0
  3  9  1  6  0  0  0
  3  4  1  0  0  0  0
  3  2  1  0  0  0  0
  4  5  1  0  0  0  0
  5 11  1  0  0  0  0
  5 12  1  0  0  0  0
  5  6  1  0  0  0  0
  6 14  1  0  0  0  0
  8  2  1  0  0  0  0
 10  4  1  0  0  0  0
 13  6  1  0  0  0  0
 15 16  1  0  0  0  0
 16 21  1  0  0  0  0
 16 17  2  0  0  0  0
 17 22  1  0  0  0  0
 18 17  1  0  0  0  0
 19 18  2  0  0  0  0
 20 15  2  0  0  0  0
 20 19  1  0  0  0  0
 23 19  1  0  0  0  0
 24  3  1  0  0  0  0
 25 24  1  0  0  0  0
 26 27  1  0  0  0  0
 26 25  1  0  0  0  0
 28 27  1  0  0  0  0
 29 27  1  0  0  0  0
 30 29  1  0  0  0  0
 30 24  1  0  0  0  0
M  END
>  <minimizedAffinity>
-4.86043787

$$$$

 OpenBabel03272508393D

 30 32  0  0  1  0  0  0  0  0999 V2000
   37.0360   26.4730   33.5690 N   0  0  0  0  0  0  0  0  0  0  0  0
   37.3280   25.9520   34.8880 C   0  0  0  0  0  0  0  0  0  0  0  0
   38.5600   25.1320   34.9890 C   0  0  2  0  0  0  0  0  0  0  0  0
   38.9860   24.4380   33.8130 N   0  0  0  0  0  0  0  0  0  0  0  0
   38.7540   25.1810   32.5860 C   0  0  0  0  0  0  0  0  0  0  0  0
   37.2520   25.4700   32.5910 C   0  0  0  0  0  0  0  0  0  0  0  0
   36.4010   25.5050   35.2560 H   0  0  0  0  0  0  0  0  0  0  0  0
   37.4720   26.8690   35.5330 H   0  0  0  0  0  0  0  0  0  0  0  0
   39.4230   25.7630   35.2950 H   0  0  0  0  0  0  0  0  0  0  0  0
   38.6210   23.4600   33.7500 H   0  0  0  0  0  0  0  0  0  0  0  0
   39.0370   24.5200   31.7470 H   0  0  0  0  0  0  0  0  0  0  0  0
   39.3190   26.1210   32.6380 H   0  0  0  0  0  0  0  0  0  0  0  0
   36.7080   24.5330   32.8560 H   0  0  0  0  0  0  0  0  0  0  0  0
   36.8930   25.7240   31.5700 H   0  0  0  0  0  0  0  0  0  0  0  0
   36.5970   27.8030   33.3420 C   0  0  0  0  0  0  0  0  0  0  0  0
   36.6780   28.4240   32.0980 C   0  0  0  0  0  0  0  0  0  0  0  0
   36.2270   29.7330   31.9510 C   0  0  0  0  0  0  0  0  0  0  0  0
   35.7160   30.3590   33.0610 N   0  0  0  0  0  0  0  0  0  0  0  0
   35.6520   29.7290   34.2560 C   0  0  0  0  0  0  0  0  0  0  0  0
   36.0870   28.4610   34.4030 N   0  0  0  0  0  0  0  0  0  0  0  0
   37.0970   27.8630   31.2520 H   0  0  0  0  0  0  0  0  0  0  0  0
   36.2930   30.2060   30.9810 H   0  0  0  0  0  0  0  0  0  0  0  0
   35.2380   30.2770   35.0950 H   0  0  0  0  0  0  0  0  0  0  0  0
   38.3790   24.1600   36.0070 N   0  0  0  0  0  0  0  0  0  0  0  0
   38.0760   24.5410   37.3050 C   0  0  0  0  0  2  0  0  0  0  0  0
   38.5200   23.4540   38.2870 C   0  0  0  0  0  2  0  0  0  0  0  0
   39.8450   22.8640   37.8980 C   0  0  0  0  0  3  0  0  0  0  0  0
   39.9980   21.9900   38.5760 H   0  0  0  0  0  0  0  0  0  0  0  0
   39.8840   22.3730   36.4850 C   0  0  0  0  0  2  0  0  0  0  0  0
   38.6760   22.8240   35.7090 C   0  0  0  0  0  2  0  0  0  0  0  0
  1  2  1  0  0  0  0
  2  3  1  0  0  0  0
  2  7  1  0  0  0  0
  2  8  1  0  0  0  0
  3  9  1  1  0  0  0
  3 24  1  0  0  0  0
  4  3  1  0  0  0  0
  5  6  1  0  0  0  0
  5 12  1  0  0  0  0
  5  4  1  0  0  0  0
  6 13  1  0  0  0  0
  6  1  1  0  0  0  0
 10  4  1  0  0  0  0
 11  5  1  0  0  0  0
 14  6  1  0  0  0  0
 15  1  1  0  0  0  0
 15 20  1  0  0  0  0
 16 15  2  0  0  0  0
 17 16  1  0  0  0  0
 17 18  2  0  0  0  0
 18 19  1  0  0  0  0
 19 20  2  0  0  0  0
 19 23  1  0  0  0  0
 21 16  1  0  0  0  0
 22 17  1  0  0  0  0
 24 25  1  0  0  0  0
 25 26  1  0  0  0  0
 27 26  1  0  0  0  0
 27 28  1  0  0  0  0
 29 27  1  0  0  0  0
 30 24  1  0  0  0  0
 30 29  1  0  0  0  0
M  END
>  <minimizedAffinity>
-4.77996159

$$$$

 OpenBabel03272508393D

 30 32  0  0  1  0  0  0  0  0999 V2000
   37.8530   26.9000   33.4050 N   0  0  0  0  0  0  0  0  0  0  0  0
   37.4260   26.1370   34.5590 C   0  0  0  0  0  0  0  0  0  0  0  0
   38.4210   26.0280   35.6530 C   0  0  2  0  0  0  0  0  0  0  0  0
   39.8030   26.1060   35.2950 N   0  0  0  0  0  0  0  0  0  0  0  0
   40.0690   27.0420   34.2160 C   0  0  0  0  0  0  0  0  0  0  0  0
   39.1860   26.5590   33.0640 C   0  0  0  0  0  0  0  0  0  0  0  0
   37.0040   25.2040   34.1740 H   0  0  0  0  0  0  0  0  0  0  0  0
   36.5330   26.7020   34.9610 H   0  0  0  0  0  0  0  0  0  0  0  0
   38.2580   26.8290   36.4070 H   0  0  0  0  0  0  0  0  0  0  0  0
   40.2430   25.1740   35.1190 H   0  0  0  0  0  0  0  0  0  0  0  0
   41.1430   26.9550   33.9680 H   0  0  0  0  0  0  0  0  0  0  0  0
   39.7540   28.0430   34.5400 H   0  0  0  0  0  0  0  0  0  0  0  0
   39.3010   25.4550   32.9640 H   0  0  0  0  0  0  0  0  0  0  0  0
   39.5420   26.9680   32.0930 H   0  0  0  0  0  0  0  0  0  0  0  0
   37.0190   27.8400   32.7460 C   0  0  0  0  0  0  0  0  0  0  0  0
   37.1840   28.1880   31.4080 C   0  0  0  0  0  0  0  0  0  0  0  0
   36.3260   29.1190   30.8280 C   0  0  0  0  0  0  0  0  0  0  0  0
   35.3430   29.6580   31.6200 N   0  0  0  0  0  0  0  0  0  0  0  0
   35.2100   29.3000   32.9170 C   0  0  0  0  0  0  0  0  0  0  0  0
   36.0370   28.3980   33.4830 N   0  0  0  0  0  0  0  0  0  0  0  0
   37.9920   27.7170   30.8330 H   0  0  0  0  0  0  0  0  0  0  0  0
   36.4610   29.3830   29.7880 H   0  0  0  0  0  0  0  0  0  0  0  0
   34.4130   29.7610   33.4900 H   0  0  0  0  0  0  0  0  0  0  0  0
   38.2300   24.7900   36.3210 N   0  0  0  0  0  0  0  0  0  0  0  0
   38.0490   24.7460   37.6950 C   0  0  0  0  0  2  0  0  0  0  0  0
   38.4680   23.3770   38.2350 C   0  0  0  0  0  2  0  0  0  0  0  0
   39.7110   22.8710   37.5590 C   0  0  0  0  0  3  0  0  0  0  0  0
   39.8380   21.8180   37.9070 H   0  0  0  0  0  0  0  0  0  0  0  0
   39.6130   22.8630   36.0660 C   0  0  0  0  0  2  0  0  0  0  0  0
   38.3960   23.6080   35.5870 C   0  0  0  0  0  2  0  0  0  0  0  0
  1  2  1  0  0  0  0
  2  8  1  0  0  0  0
  2  3  1  0  0  0  0
  3 24  1  0  0  0  0
  3  9  1  1  0  0  0
  4  3  1  0  0  0  0
  5 12  1  0  0  0  0
  5  4  1  0  0  0  0
  6  1  1  0  0  0  0
  6  5  1  0  0  0  0
  7  2  1  0  0  0  0
 10  4  1  0  0  0  0
 11  5  1  0  0  0  0
 13  6  1  0  0  0  0
 14  6  1  0  0  0  0
 15  1  1  0  0  0  0
 15 20  1  0  0  0  0
 16 15  2  0  0  0  0
 17 16  1  0  0  0  0
 17 18  2  0  0  0  0
 18 19  1  0  0  0  0
 19 20  2  0  0  0  0
 19 23  1  0  0  0  0
 21 16  1  0  0  0  0
 22 17  1  0  0  0  0
 24 25  1  0  0  0  0
 25 26  1  0  0  0  0
 27 28  1  0  0  0  0
 27 26  1  0  0  0  0
 29 27  1  0  0  0  0
 30 29  1  0  0  0  0
 30 24  1  0  0  0  0
M  END
>  <minimizedAffinity>
-4.71008253

$$$$

 OpenBabel03272508393D

 30 32  0  0  1  0  0  0  0  0999 V2000
   36.8480   27.6810   33.7570 N   0  0  0  0  0  0  0  0  0  0  0  0
   36.2360   28.6310   34.6620 C   0  0  0  0  0  0  0  0  0  0  0  0
   35.0000   29.2810   34.1600 C   0  0  2  0  0  0  0  0  0  0  0  0
   34.8580   29.4180   32.7440 N   0  0  0  0  0  0  0  0  0  0  0  0
   35.3950   28.2930   31.9970 C   0  0  0  0  0  0  0  0  0  0  0  0
   36.8560   28.2010   32.4390 C   0  0  0  0  0  0  0  0  0  0  0  0
   37.0370   29.2880   35.0110 H   0  0  0  0  0  0  0  0  0  0  0  0
   35.9580   28.0210   35.5730 H   0  0  0  0  0  0  0  0  0  0  0  0
   34.1020   28.7210   34.5010 H   0  0  0  0  0  0  0  0  0  0  0  0
   35.2080   30.3320   32.3750 H   0  0  0  0  0  0  0  0  0  0  0  0
   35.3100   28.5460   30.9240 H   0  0  0  0  0  0  0  0  0  0  0  0
   34.8520   27.3870   32.2970 H   0  0  0  0  0  0  0  0  0  0  0  0
   37.3010   29.2230   32.4170 H   0  0  0  0  0  0  0  0  0  0  0  0
   37.4560   27.6180   31.7070 H   0  0  0  0  0  0  0  0  0  0  0  0
   37.3550   26.4250   34.1800 C   0  0  0  0  0  0  0  0  0  0  0  0
   37.7220   26.1630   35.4970 C   0  0  0  0  0  0  0  0  0  0  0  0
   38.2120   24.9050   35.8380 C   0  0  0  0  0  0  0  0  0  0  0  0
   38.3120   23.9680   34.8390 N   0  0  0  0  0  0  0  0  0  0  0  0
   37.9480   24.2550   33.5690 C   0  0  0  0  0  0  0  0  0  0  0  0
   37.4720   25.4710   33.2340 N   0  0  0  0  0  0  0  0  0  0  0  0
   37.6160   26.9590   36.2460 H   0  0  0  0  0  0  0  0  0  0  0  0
   38.4940   24.7100   36.8640 H   0  0  0  0  0  0  0  0  0  0  0  0
   38.0490   23.4720   32.8250 H   0  0  0  0  0  0  0  0  0  0  0  0
   34.9110   30.5830   34.7190 N   0  0  0  0  0  0  0  0  0  0  0  0
   35.9120   31.0700   35.5450 C   0  0  0  0  0  2  0  0  0  0  0  0
   35.3490   32.1530   36.4670 C   0  0  0  0  0  2  0  0  0  0  0  0
   33.9790   31.7970   36.9690 C   0  0  0  0  0  3  0  0  0  0  0  0
   33.6020   32.7060   37.4950 H   0  0  0  0  0  0  0  0  0  0  0  0
   33.0160   31.4550   35.8750 C   0  0  0  0  0  2  0  0  0  0  0  0
   33.7160   31.2950   34.5520 C   0  0  0  0  0  2  0  0  0  0  0  0
  1 15  1  0  0  0  0
  1  2  1  0  0  0  0
  2  7  1  0  0  0  0
  2  8  1  0  0  0  0
  3  9  1  1  0  0  0
  3  2  1  0  0  0  0
  3 24  1  0  0  0  0
  4  3  1  0  0  0  0
  5 12  1  0  0  0  0
  5  6  1  0  0  0  0
  5  4  1  0  0  0  0
  6  1  1  0  0  0  0
 10  4  1  0  0  0  0
 11  5  1  0  0  0  0
 13  6  1  0  0  0  0
 14  6  1  0  0  0  0
 15 16  1  0  0  0  0
 16 17  2  0  0  0  0
 16 21  1  0  0  0  0
 17 22  1  0  0  0  0
 18 17  1  0  0  0  0
 19 18  2  0  0  0  0
 20 19  1  0  0  0  0
 20 15  2  0  0  0  0
 23 19  1  0  0  0  0
 24 25  1  0  0  0  0
 25 26  1  0  0  0  0
 26 27  1  0  0  0  0
 27 28  1  0  0  0  0
 29 27  1  0  0  0  0
 30 24  1  0  0  0  0
 30 29  1  0  0  0  0
M  END
>  <minimizedAffinity>
-4.65761423

$$$$

 OpenBabel03272508393D

 30 32  0  0  1  0  0  0  0  0999 V2000
   38.5790   23.9750   34.4470 N   0  0  0  0  0  0  0  0  0  0  0  0
   37.9450   25.1210   33.8300 C   0  0  0  0  0  0  0  0  0  0  0  0
   37.0830   24.8190   32.6610 C   0  0  2  0  0  0  0  0  0  0  0  0
   37.3990   23.6530   31.8960 N   0  0  0  0  0  0  0  0  0  0  0  0
   37.8780   22.5430   32.7020 C   0  0  0  0  0  0  0  0  0  0  0  0
   39.0870   23.1060   33.4490 C   0  0  0  0  0  0  0  0  0  0  0  0
   38.7290   25.8700   33.6890 H   0  0  0  0  0  0  0  0  0  0  0  0
   37.2860   25.5550   34.6400 H   0  0  0  0  0  0  0  0  0  0  0  0
   36.0260   24.6920   32.9810 H   0  0  0  0  0  0  0  0  0  0  0  0
   38.0300   23.8440   31.0840 H   0  0  0  0  0  0  0  0  0  0  0  0
   38.1700   21.7370   32.0040 H   0  0  0  0  0  0  0  0  0  0  0  0
   37.0890   22.2670   33.4140 H   0  0  0  0  0  0  0  0  0  0  0  0
   39.7280   23.6620   32.7260 H   0  0  0  0  0  0  0  0  0  0  0  0
   39.7370   22.2860   33.8280 H   0  0  0  0  0  0  0  0  0  0  0  0
   38.6550   23.7960   35.8530 C   0  0  0  0  0  0  0  0  0  0  0  0
   37.7530   24.3790   36.7390 C   0  0  0  0  0  0  0  0  0  0  0  0
   37.8920   24.1580   38.1060 C   0  0  0  0  0  0  0  0  0  0  0  0
   38.9310   23.3620   38.5210 N   0  0  0  0  0  0  0  0  0  0  0  0
   39.7900   22.8110   37.6350 C   0  0  0  0  0  0  0  0  0  0  0  0
   39.6600   23.0210   36.3090 N   0  0  0  0  0  0  0  0  0  0  0  0
   36.9450   25.0050   36.3380 H   0  0  0  0  0  0  0  0  0  0  0  0
   37.1860   24.6140   38.7870 H   0  0  0  0  0  0  0  0  0  0  0  0
   40.5900   22.1910   38.0250 H   0  0  0  0  0  0  0  0  0  0  0  0
   37.1140   25.9250   31.7730 N   0  0  0  0  0  0  0  0  0  0  0  0
   38.3100   26.5620   31.4760 C   0  0  0  0  0  2  0  0  0  0  0  0
   38.0400   28.0030   31.0370 C   0  0  0  0  0  2  0  0  0  0  0  0
   36.9590   28.6410   31.8620 C   0  0  0  0  0  3  0  0  0  0  0  0
   36.7350   29.6160   31.3670 H   0  0  0  0  0  0  0  0  0  0  0  0
   35.6960   27.8380   31.9080 C   0  0  0  0  0  2  0  0  0  0  0  0
   35.8960   26.4600   31.3360 C   0  0  0  0  0  2  0  0  0  0  0  0
  1 15  1  0  0  0  0
  2  1  1  0  0  0  0
  2  8  1  0  0  0  0
  3  9  1  1  0  0  0
  3  2  1  0  0  0  0
  4  3  1  0  0  0  0
  4  5  1  0  0  0  0
  5 12  1  0  0  0  0
  5  6  1  0  0  0  0
  6 14  1  0  0  0  0
  6  1  1  0  0  0  0
  7  2  1  0  0  0  0
 10  4  1  0  0  0  0
 11  5  1  0  0  0  0
 13  6  1  0  0  0  0
 15 20  2  0  0  0  0
 15 16  1  0  0  0  0
 16 17  2  0  0  0  0
 17 18  1  0  0  0  0
 17 22  1  0  0  0  0
 19 23  1  0  0  0  0
 19 18  2  0  0  0  0
 20 19  1  0  0  0  0
 21 16  1  0  0  0  0
 24  3  1  0  0  0  0
 25 24  1  0  0  0  0
 26 25  1  0  0  0  0
 26 27  1  0  0  0  0
 27 29  1  0  0  0  0
 28 27  1  0  0  0  0
 30 24  1  0  0  0  0
 30 29  1  0  0  0  0
M  END
>  <minimizedAffinity>
-4.60146809

$$$$

 OpenBabel03272508393D

 30 32  0  0  1  0  0  0  0  0999 V2000
   38.7240   25.1940   34.9270 N   0  0  0  0  0  0  0  0  0  0  0  0
   37.8840   26.3680   34.8160 C   0  0  0  0  0  0  0  0  0  0  0  0
   37.0740   26.4560   33.5770 C   0  0  2  0  0  0  0  0  0  0  0  0
   37.5850   25.8050   32.4100 N   0  0  0  0  0  0  0  0  0  0  0  0
   38.2690   24.5550   32.6980 C   0  0  0  0  0  0  0  0  0  0  0  0
   39.3670   24.9380   33.6900 C   0  0  0  0  0  0  0  0  0  0  0  0
   38.5170   27.2260   35.0590 H   0  0  0  0  0  0  0  0  0  0  0  0
   37.1690   26.2920   35.6890 H   0  0  0  0  0  0  0  0  0  0  0  0
   36.0620   26.0260   33.7420 H   0  0  0  0  0  0  0  0  0  0  0  0
   38.1600   26.4310   31.8000 H   0  0  0  0  0  0  0  0  0  0  0  0
   38.6930   24.1900   31.7440 H   0  0  0  0  0  0  0  0  0  0  0  0
   37.5530   23.8700   33.1720 H   0  0  0  0  0  0  0  0  0  0  0  0
   39.8850   25.8510   33.3160 H   0  0  0  0  0  0  0  0  0  0  0  0
   40.1600   24.1590   33.7250 H   0  0  0  0  0  0  0  0  0  0  0  0
   38.8520   24.4440   36.1250 C   0  0  0  0  0  0  0  0  0  0  0  0
   39.8180   23.4560   36.2980 C   0  0  0  0  0  0  0  0  0  0  0  0
   39.8830   22.7600   37.5020 C   0  0  0  0  0  0  0  0  0  0  0  0
   38.9730   23.0880   38.4770 N   0  0  0  0  0  0  0  0  0  0  0  0
   38.0460   24.0520   38.2770 C   0  0  0  0  0  0  0  0  0  0  0  0
   37.9790   24.7290   37.1130 N   0  0  0  0  0  0  0  0  0  0  0  0
   40.5150   23.2450   35.4760 H   0  0  0  0  0  0  0  0  0  0  0  0
   40.6370   21.9960   37.6280 H   0  0  0  0  0  0  0  0  0  0  0  0
   37.3550   24.2650   39.0860 H   0  0  0  0  0  0  0  0  0  0  0  0
   36.8920   27.8240   33.2470 N   0  0  0  0  0  0  0  0  0  0  0  0
   36.1840   28.6680   34.0900 C   0  0  0  0  0  2  0  0  0  0  0  0
   35.6130   29.8440   33.2940 C   0  0  0  0  0  2  0  0  0  0  0  0
   35.0940   29.4070   31.9540 C   0  0  0  0  0  3  0  0  0  0  0  0
   34.8500   30.3460   31.4020 H   0  0  0  0  0  0  0  0  0  0  0  0
   36.0970   28.6390   31.1510 C   0  0  0  0  0  2  0  0  0  0  0  0
   37.2960   28.2610   31.9780 C   0  0  0  0  0  2  0  0  0  0  0  0
  1 15  1  0  0  0  0
  2  1  1  0  0  0  0
  2  7  1  0  0  0  0
  2  8  1  0  0  0  0
  3  9  1  1  0  0  0
  3  2  1  0  0  0  0
  4  5  1  0  0  0  0
  4  3  1  0  0  0  0
  5 12  1  0  0  0  0
  5  6  1  0  0  0  0
  6 14  1  0  0  0  0
  6  1  1  0  0  0  0
 10  4  1  0  0  0  0
 11  5  1  0  0  0  0
 13  6  1  0  0  0  0
 15 16  2  0  0  0  0
 15 20  1  0  0  0  0
 16 17  1  0  0  0  0
 17 22  1  0  0  0  0
 17 18  2  0  0  0  0
 19 18  1  0  0  0  0
 19 23  1  0  0  0  0
 20 19  2  0  0  0  0
 21 16  1  0  0  0  0
 24  3  1  0  0  0  0
 24 25  1  0  0  0  0
 26 25  1  0  0  0  0
 27 26  1  0  0  0  0
 28 27  1  0  0  0  0
 29 27  1  0  0  0  0
 29 30  1  0  0  0  0
 30 24  1  0  0  0  0
M  END
>  <minimizedAffinity>
-4.5937891

$$$$

 OpenBabel03272508393D

 30 32  0  0  1  0  0  0  0  0999 V2000
   38.2310   26.0670   33.9440 N   0  0  0  0  0  0  0  0  0  0  0  0
   38.3590   24.6880   34.3640 C   0  0  0  0  0  0  0  0  0  0  0  0
   38.1890   24.4470   35.8170 C   0  0  2  0  0  0  0  0  0  0  0  0
   38.5210   25.5190   36.7040 N   0  0  0  0  0  0  0  0  0  0  0  0
   38.1790   26.8300   36.1800 C   0  0  0  0  0  0  0  0  0  0  0  0
   38.9210   26.9160   34.8460 C   0  0  0  0  0  0  0  0  0  0  0  0
   39.2720   24.3060   33.8990 H   0  0  0  0  0  0  0  0  0  0  0  0
   37.5250   24.1460   33.8260 H   0  0  0  0  0  0  0  0  0  0  0  0
   37.1340   24.1820   36.0470 H   0  0  0  0  0  0  0  0  0  0  0  0
   39.5070   25.4840   37.0520 H   0  0  0  0  0  0  0  0  0  0  0  0
   38.5560   27.5770   36.9030 H   0  0  0  0  0  0  0  0  0  0  0  0
   37.0940   26.8640   36.0120 H   0  0  0  0  0  0  0  0  0  0  0  0
   39.9690   26.5670   34.9970 H   0  0  0  0  0  0  0  0  0  0  0  0
   39.0210   27.9720   34.5140 H   0  0  0  0  0  0  0  0  0  0  0  0
   37.5100   26.4610   32.7870 C   0  0  0  0  0  0  0  0  0  0  0  0
   37.6700   27.7060   32.1840 C   0  0  0  0  0  0  0  0  0  0  0  0
   36.9270   28.0230   31.0500 C   0  0  0  0  0  0  0  0  0  0  0  0
   36.0560   27.0740   30.5740 N   0  0  0  0  0  0  0  0  0  0  0  0
   35.9230   25.8750   31.1840 C   0  0  0  0  0  0  0  0  0  0  0  0
   36.6400   25.5630   32.2820 N   0  0  0  0  0  0  0  0  0  0  0  0
   38.3860   28.4180   32.6180 H   0  0  0  0  0  0  0  0  0  0  0  0
   37.0590   28.9910   30.5880 H   0  0  0  0  0  0  0  0  0  0  0  0
   35.2180   25.1670   30.7600 H   0  0  0  0  0  0  0  0  0  0  0  0
   38.9850   23.3320   36.1910 N   0  0  0  0  0  0  0  0  0  0  0  0
   39.2900   23.0940   37.5230 C   0  0  0  0  0  2  0  0  0  0  0  0
   40.5790   22.2760   37.6250 C   0  0  0  0  0  2  0  0  0  0  0  0
   41.6020   22.7240   36.6210 C   0  0  0  0  0  3  0  0  0  0  0  0
   42.4280   21.9740   36.6730 H   0  0  0  0  0  0  0  0  0  0  0  0
   41.0830   22.7520   35.2170 C   0  0  0  0  0  2  0  0  0  0  0  0
   39.5890   22.5790   35.1770 C   0  0  0  0  0  2  0  0  0  0  0  0
  1  2  1  0  0  0  0
  1  6  1  0  0  0  0
  2  3  1  0  0  0  0
  3  9  1  1  0  0  0
  3 24  1  0  0  0  0
  3  4  1  0  0  0  0
  4 10  1  0  0  0  0
  5  4  1  0  0  0  0
  5 11  1  0  0  0  0
  6 13  1  0  0  0  0
  6  5  1  0  0  0  0
  7  2  1  0  0  0  0
  8  2  1  0  0  0  0
 12  5  1  0  0  0  0
 14  6  1  0  0  0  0
 15  1  1  0  0  0  0
 16 21  1  0  0  0  0
 16 15  2  0  0  0  0
 17 16  1  0  0  0  0
 18 17  2  0  0  0  0
 18 19  1  0  0  0  0
 19 20  2  0  0  0  0
 20 15  1  0  0  0  0
 22 17  1  0  0  0  0
 23 19  1  0  0  0  0
 24 25  1  0  0  0  0
 25 26  1  0  0  0  0
 27 28  1  0  0  0  0
 27 26  1  0  0  0  0
 29 27  1  0  0  0  0
 30 29  1  0  0  0  0
 30 24  1  0  0  0  0
M  END
>  <minimizedAffinity>
-4.57532835

$$$$
