
 OpenBabel03272505253D

 29 31  0  0  0  0  0  0  0  0999 V2000
   37.4050   31.1410   47.0490 N   0  0  0  0  0  0  0  0  0  0  0  0
   36.7930   30.8390   45.8720 C   0  0  0  0  0  0  0  0  0  0  0  0
   37.2450   31.3300   44.6570 C   0  0  0  0  0  0  0  0  0  0  0  0
   38.3740   32.1630   44.6810 C   0  0  0  0  0  0  0  0  0  0  0  0
   38.8150   32.6270   43.6040 O   0  0  0  0  0  0  0  0  0  0  0  0
   38.9900   32.4650   45.8720 N   0  0  0  0  0  0  0  0  0  0  0  0
   38.4620   31.9340   46.9680 C   0  0  0  0  0  0  0  0  0  0  0  0
   39.0470   32.2330   48.0290 O   0  0  0  0  0  0  0  0  0  0  0  0
   35.9200   30.1960   45.8460 H   0  0  0  0  0  0  0  0  0  0  0  0
   37.2960   29.5590   50.4040 C   0  0  0  0  0  0  0  0  0  0  0  0
   37.7690   30.0550   49.1830 C   0  0  0  0  0  0  0  0  0  0  0  0
   36.9330   30.6370   48.2650 C   0  0  0  0  0  0  0  0  0  0  0  0
   35.6130   30.7190   48.5790 N   0  0  0  0  0  0  0  0  0  0  0  0
   35.1230   30.2470   49.7560 C   0  0  0  0  0  0  0  0  0  0  0  0
   35.9590   29.6690   50.6680 N   0  0  0  0  0  0  0  0  0  0  0  0
   37.9000   29.0930   51.1680 H   0  0  0  0  0  0  0  0  0  0  0  0
   38.8110   29.8920   49.1130 H   0  0  0  0  0  0  0  0  0  0  0  0
   34.0700   30.3110   50.0070 H   0  0  0  0  0  0  0  0  0  0  0  0
   36.5980   31.0100   43.4290 N   0  0  0  0  0  0  0  0  0  0  0  0
   35.5620   31.7850   42.7680 C   0  0  0  0  0  0  0  0  0  0  0  0
   35.9190   32.0210   41.3230 C   0  0  0  0  0  0  0  0  0  0  0  0
   35.9360   30.6500   40.6600 C   0  0  0  0  0  0  0  0  0  0  0  0
   36.1890   30.7940   39.5920 H   0  0  0  0  0  0  0  0  0  0  0  0
   37.0420   29.8680   41.2810 C   0  0  0  0  0  0  0  0  0  0  0  0
   37.0100   29.8000   42.7800 C   0  0  0  0  0  0  0  0  0  0  0  0
   40.1600   33.3210   45.8870 C   0  0  0  0  0  0  0  0  0  0  0  0
   40.0470   34.2840   44.9380 F   0  0  0  0  0  0  0  0  0  0  0  0
   41.3320   32.6340   45.6130 F   0  0  0  0  0  0  0  0  0  0  0  0
   40.2410   33.9350   47.1300 F   0  0  0  0  0  0  0  0  0  0  0  0
  1 12  1  0  0  0  0
  2  1  1  0  0  0  0
  3  4  1  0  0  0  0
  3  2  2  0  0  0  0
  4  6  1  0  0  0  0
  5  4  2  0  0  0  0
  6 26  1  0  0  0  0
  6  7  1  0  0  0  0
  7  1  1  0  0  0  0
  7  8  2  0  0  0  0
  9  2  1  0  0  0  0
 10 15  1  0  0  0  0
 10 16  1  0  0  0  0
 11 10  2  0  0  0  0
 12 13  2  0  0  0  0
 12 11  1  0  0  0  0
 13 14  1  0  0  0  0
 14 18  1  0  0  0  0
 14 15  2  0  0  0  0
 17 11  1  0  0  0  0
 19  3  1  0  0  0  0
 20 19  1  0  0  0  0
 21 20  1  0  0  0  0
 22 24  1  0  0  0  0
 22 21  1  0  0  0  0
 23 22  1  0  0  0  0
 24 25  1  0  0  0  0
 25 19  1  0  0  0  0
 26 29  1  0  0  0  0
 27 26  1  0  0  0  0
 28 26  1  0  0  0  0
M  END
>  <minimizedAffinity>
-6.1147418

>  <minimizedRMSD>
0.181081578

$$$$
