
 OpenBabel03272510323D

 26 28  0  0  0  0  0  0  0  0999 V2000
   36.7430   30.6270   45.7270 C   0  0  0  0  0  0  0  0  0  0  0  0
   36.1230   30.2480   44.5640 C   0  0  0  0  0  0  0  0  0  0  0  0
   34.8640   29.6870   44.5640 C   0  0  0  0  0  0  0  0  0  0  0  0
   34.2320   29.5160   45.7900 C   0  0  0  0  0  0  0  0  0  0  0  0
   34.8400   29.8940   46.9890 C   0  0  0  0  0  0  0  0  0  0  0  0
   36.1090   30.4540   46.9460 C   0  0  0  0  0  0  0  0  0  0  0  0
   36.6070   30.3760   43.5940 H   0  0  0  0  0  0  0  0  0  0  0  0
   34.3690   29.3860   43.6480 H   0  0  0  0  0  0  0  0  0  0  0  0
   33.2460   29.0750   45.7490 H   0  0  0  0  0  0  0  0  0  0  0  0
   34.2990   29.7370   47.9130 H   0  0  0  0  0  0  0  0  0  0  0  0
   39.3500   33.0840   45.0630 C   0  0  0  0  0  0  0  0  0  0  0  0
   40.5380   32.4260   45.3750 C   0  0  0  0  0  0  0  0  0  0  0  0
   40.4320   31.0820   45.8330 C   0  0  0  0  0  0  0  0  0  0  0  0
   39.1980   30.5250   45.9370 N   0  0  0  0  0  0  0  0  0  0  0  0
   38.0680   31.2070   45.6210 C   0  0  0  0  0  0  0  0  0  0  0  0
   38.1670   32.4830   45.1860 N   0  0  0  0  0  0  0  0  0  0  0  0
   39.3540   34.1050   44.7100 H   0  0  0  0  0  0  0  0  0  0  0  0
   41.4890   32.8930   45.2810 H   0  0  0  0  0  0  0  0  0  0  0  0
   41.3300   30.5120   46.0940 H   0  0  0  0  0  0  0  0  0  0  0  0
   36.7520   30.8470   48.1600 N   0  0  0  0  0  0  0  0  0  0  0  0
   37.2680   32.1610   48.5760 C   0  0  0  0  0  2  0  0  0  0  0  0
   38.5850   31.9630   49.2980 C   0  0  0  0  0  2  0  0  0  0  0  0
   38.4750   31.0040   50.4410 C   0  0  0  0  0  3  0  0  0  0  0  0
   39.2560   30.2210   50.3400 H   0  0  0  0  0  0  0  0  0  0  0  0
   37.1370   30.2760   50.4450 C   0  0  0  0  0  2  0  0  0  0  0  0
   36.8830   29.7290   49.0740 C   0  0  0  0  0  2  0  0  0  0  0  0
  1  6  1  0  0  0  0
  2  3  1  0  0  0  0
  2  1  2  0  0  0  0
  3  4  2  0  0  0  0
  4  5  1  0  0  0  0
  5 10  1  0  0  0  0
  6  5  2  0  0  0  0
  6 20  1  0  0  0  0
  7  2  1  0  0  0  0
  8  3  1  0  0  0  0
  9  4  1  0  0  0  0
 11 16  2  0  0  0  0
 11 12  1  0  0  0  0
 12 13  2  0  0  0  0
 13 14  1  0  0  0  0
 13 19  1  0  0  0  0
 15  1  1  0  0  0  0
 15 14  2  0  0  0  0
 16 15  1  0  0  0  0
 17 11  1  0  0  0  0
 18 12  1  0  0  0  0
 20 21  1  0  0  0  0
 20 26  1  0  0  0  0
 21 22  1  0  0  0  0
 22 23  1  0  0  0  0
 23 25  1  0  0  0  0
 24 23  1  0  0  0  0
 26 25  1  0  0  0  0
M  END
>  <minimizedAffinity>
-5.47574186

>  <minimizedRMSD>
3.29493785

$$$$
