
 OpenBabel03272507563D

 21 22  0  0  0  0  0  0  0  0999 V2000
   36.7470   27.7620   33.4470 C   0  0  0  0  0  0  0  0  0  0  0  0
   37.5310   26.8130   34.1740 C   0  0  0  0  0  0  0  0  0  0  0  0
   37.6450   25.5330   33.6560 C   0  0  0  0  0  0  0  0  0  0  0  0
   37.0080   25.2330   32.4820 N   0  0  0  0  0  0  0  0  0  0  0  0
   36.2720   26.1650   31.8210 C   0  0  0  0  0  0  0  0  0  0  0  0
   36.1400   27.4150   32.2930 N   0  0  0  0  0  0  0  0  0  0  0  0
   35.7010   25.6400   30.6310 N   0  0  0  0  0  0  0  0  0  0  0  0
   36.6120   28.7650   33.7790 H   0  0  0  0  0  0  0  0  0  0  0  0
   36.1870   25.6350   29.7270 H   0  0  0  0  0  0  0  0  0  0  0  0
   34.7300   25.2450   30.7190 H   0  0  0  0  0  0  0  0  0  0  0  0
   38.4200   24.5520   34.3570 N   0  0  0  0  0  0  0  0  0  0  0  0
   39.3760   24.6840   35.4640 C   0  0  0  0  0  2  0  0  0  0  0  0
   39.0260   23.5280   36.4130 C   0  0  0  0  0  2  0  0  0  0  0  0
   39.4200   22.2600   35.7420 C   0  0  0  0  0  3  0  0  0  0  0  0
   40.5270   22.1690   35.7990 H   0  0  0  0  0  0  0  0  0  0  0  0
   38.9640   22.1310   34.3320 C   0  0  0  0  0  2  0  0  0  0  0  0
   38.1390   23.2490   33.7980 C   0  0  0  0  0  2  0  0  0  0  0  0
   38.1790   27.2480   35.4380 C   0  0  0  0  0  0  0  0  0  0  0  0
   39.5500   27.2840   35.3280 F   0  0  0  0  0  0  0  0  0  0  0  0
   37.7220   28.5210   35.7190 F   0  0  0  0  0  0  0  0  0  0  0  0
   37.8530   26.4450   36.5130 F   0  0  0  0  0  0  0  0  0  0  0  0
  1  8  1  0  0  0  0
  1  2  1  0  0  0  0
  2 18  1  0  0  0  0
  3  2  2  0  0  0  0
  3 11  1  0  0  0  0
  4  3  1  0  0  0  0
  5  6  1  0  0  0  0
  5  4  2  0  0  0  0
  6  1  2  0  0  0  0
  7 10  1  0  0  0  0
  7  5  1  0  0  0  0
  9  7  1  0  0  0  0
 11 12  1  0  0  0  0
 12 13  1  0  0  0  0
 14 15  1  0  0  0  0
 14 13  1  0  0  0  0
 16 14  1  0  0  0  0
 17 16  1  0  0  0  0
 17 11  1  0  0  0  0
 18 20  1  0  0  0  0
 18 21  1  0  0  0  0
 19 18  1  0  0  0  0
M  END
>  <minimizedAffinity>
-5.04341173

$$$$

 OpenBabel03272507563D

 21 22  0  0  0  0  0  0  0  0999 V2000
   40.2340   22.2820   37.6850 C   0  0  0  0  0  0  0  0  0  0  0  0
   39.4360   23.3180   37.1080 C   0  0  0  0  0  0  0  0  0  0  0  0
   39.8860   23.9100   35.9390 C   0  0  0  0  0  0  0  0  0  0  0  0
   41.0660   23.4830   35.3920 N   0  0  0  0  0  0  0  0  0  0  0  0
   41.7950   22.4930   35.9710 C   0  0  0  0  0  0  0  0  0  0  0  0
   41.3890   21.8970   37.1040 N   0  0  0  0  0  0  0  0  0  0  0  0
   42.9790   22.2110   35.2390 N   0  0  0  0  0  0  0  0  0  0  0  0
   39.9540   21.7790   38.5820 H   0  0  0  0  0  0  0  0  0  0  0  0
   43.0140   21.5430   34.4600 H   0  0  0  0  0  0  0  0  0  0  0  0
   43.8430   22.7320   35.5360 H   0  0  0  0  0  0  0  0  0  0  0  0
   39.1150   24.9550   35.3310 N   0  0  0  0  0  0  0  0  0  0  0  0
   37.7390   25.4060   35.5700 C   0  0  0  0  0  2  0  0  0  0  0  0
   37.8330   26.9390   35.5710 C   0  0  0  0  0  2  0  0  0  0  0  0
   38.1210   27.3740   34.1780 C   0  0  0  0  0  3  0  0  0  0  0  0
   37.1830   27.2820   33.5880 H   0  0  0  0  0  0  0  0  0  0  0  0
   39.2250   26.6340   33.5090 C   0  0  0  0  0  2  0  0  0  0  0  0
   39.9240   25.6060   34.3260 C   0  0  0  0  0  2  0  0  0  0  0  0
   38.1710   23.7010   37.7880 C   0  0  0  0  0  0  0  0  0  0  0  0
   37.0730   23.5060   36.9820 F   0  0  0  0  0  0  0  0  0  0  0  0
   38.0480   22.9050   38.9100 F   0  0  0  0  0  0  0  0  0  0  0  0
   38.1670   25.0160   38.2120 F   0  0  0  0  0  0  0  0  0  0  0  0
  1  8  1  0  0  0  0
  2  1  1  0  0  0  0
  2 18  1  0  0  0  0
  3  2  2  0  0  0  0
  4  3  1  0  0  0  0
  4  5  2  0  0  0  0
  5  6  1  0  0  0  0
  6  1  2  0  0  0  0
  7 10  1  0  0  0  0
  7  5  1  0  0  0  0
  9  7  1  0  0  0  0
 11 12  1  0  0  0  0
 11  3  1  0  0  0  0
 12 13  1  0  0  0  0
 14 13  1  0  0  0  0
 15 14  1  0  0  0  0
 16 14  1  0  0  0  0
 16 17  1  0  0  0  0
 17 11  1  0  0  0  0
 18 21  1  0  0  0  0
 18 20  1  0  0  0  0
 19 18  1  0  0  0  0
M  END
>  <minimizedAffinity>
-4.88146639

$$$$

 OpenBabel03272507563D

 21 22  0  0  0  0  0  0  0  0999 V2000
   37.8140   24.4240   36.6540 C   0  0  0  0  0  0  0  0  0  0  0  0
   38.6280   25.0970   35.6910 C   0  0  0  0  0  0  0  0  0  0  0  0
   39.9230   24.6410   35.5030 C   0  0  0  0  0  0  0  0  0  0  0  0
   40.3640   23.5760   36.2400 N   0  0  0  0  0  0  0  0  0  0  0  0
   39.5580   22.9620   37.1460 C   0  0  0  0  0  0  0  0  0  0  0  0
   38.2980   23.3770   37.3540 N   0  0  0  0  0  0  0  0  0  0  0  0
   40.2170   21.8850   37.7960 N   0  0  0  0  0  0  0  0  0  0  0  0
   36.8090   24.7150   36.8550 H   0  0  0  0  0  0  0  0  0  0  0  0
   40.2360   20.9280   37.4240 H   0  0  0  0  0  0  0  0  0  0  0  0
   40.7010   22.1160   38.7010 H   0  0  0  0  0  0  0  0  0  0  0  0
   40.7710   25.2920   34.5470 N   0  0  0  0  0  0  0  0  0  0  0  0
   40.4690   26.2590   33.4850 C   0  0  0  0  0  2  0  0  0  0  0  0
   41.5860   27.3070   33.5920 C   0  0  0  0  0  2  0  0  0  0  0  0
   42.8520   26.6630   33.1480 C   0  0  0  0  0  3  0  0  0  0  0  0
   42.8270   26.5840   32.0390 H   0  0  0  0  0  0  0  0  0  0  0  0
   43.1210   25.3310   33.7540 C   0  0  0  0  0  2  0  0  0  0  0  0
   42.1300   24.8460   34.7520 C   0  0  0  0  0  2  0  0  0  0  0  0
   38.0450   26.2430   34.9460 C   0  0  0  0  0  0  0  0  0  0  0  0
   38.0460   26.0280   33.5870 F   0  0  0  0  0  0  0  0  0  0  0  0
   36.7390   26.3900   35.3730 F   0  0  0  0  0  0  0  0  0  0  0  0
   38.6980   27.4340   35.1970 F   0  0  0  0  0  0  0  0  0  0  0  0
  1  8  1  0  0  0  0
  1  6  1  0  0  0  0
  2  1  2  0  0  0  0
  3  2  1  0  0  0  0
  3  4  2  0  0  0  0
  4  5  1  0  0  0  0
  5  6  2  0  0  0  0
  5  7  1  0  0  0  0
  7 10  1  0  0  0  0
  9  7  1  0  0  0  0
 11 17  1  0  0  0  0
 11  3  1  0  0  0  0
 12 13  1  0  0  0  0
 12 11  1  0  0  0  0
 14 13  1  0  0  0  0
 14 16  1  0  0  0  0
 15 14  1  0  0  0  0
 16 17  1  0  0  0  0
 18 21  1  0  0  0  0
 18 20  1  0  0  0  0
 18  2  1  0  0  0  0
 19 18  1  0  0  0  0
M  END
>  <minimizedAffinity>
-4.71944141

$$$$

 OpenBabel03272507563D

 21 22  0  0  0  0  0  0  0  0999 V2000
   41.1990   22.8930   36.4160 C   0  0  0  0  0  0  0  0  0  0  0  0
   40.7370   23.9780   35.6060 C   0  0  0  0  0  0  0  0  0  0  0  0
   39.5110   24.5430   35.9150 C   0  0  0  0  0  0  0  0  0  0  0  0
   38.7990   24.0440   36.9730 N   0  0  0  0  0  0  0  0  0  0  0  0
   39.2730   23.0120   37.7190 C   0  0  0  0  0  0  0  0  0  0  0  0
   40.4580   22.4410   37.4480 N   0  0  0  0  0  0  0  0  0  0  0  0
   38.3750   22.6570   38.7600 N   0  0  0  0  0  0  0  0  0  0  0  0
   42.1310   22.4070   36.2420 H   0  0  0  0  0  0  0  0  0  0  0  0
   38.3810   23.1010   39.6860 H   0  0  0  0  0  0  0  0  0  0  0  0
   37.6830   21.8970   38.5360 H   0  0  0  0  0  0  0  0  0  0  0  0
   39.0130   25.6310   35.1250 N   0  0  0  0  0  0  0  0  0  0  0  0
   39.6730   26.4870   34.1310 C   0  0  0  0  0  2  0  0  0  0  0  0
   38.6580   26.5920   32.9830 C   0  0  0  0  0  2  0  0  0  0  0  0
   37.5150   27.4120   33.4670 C   0  0  0  0  0  3  0  0  0  0  0  0
   37.8360   28.4770   33.4810 H   0  0  0  0  0  0  0  0  0  0  0  0
   36.9820   27.0170   34.7980 C   0  0  0  0  0  2  0  0  0  0  0  0
   37.6180   25.8360   35.4420 C   0  0  0  0  0  2  0  0  0  0  0  0
   41.5950   24.4390   34.4830 C   0  0  0  0  0  0  0  0  0  0  0  0
   41.9960   25.7450   34.6440 F   0  0  0  0  0  0  0  0  0  0  0  0
   42.7130   23.6290   34.4580 F   0  0  0  0  0  0  0  0  0  0  0  0
   40.9750   24.3240   33.2540 F   0  0  0  0  0  0  0  0  0  0  0  0
  1  6  1  0  0  0  0
  2  3  1  0  0  0  0
  2  1  2  0  0  0  0
  3  4  2  0  0  0  0
  4  5  1  0  0  0  0
  5  7  1  0  0  0  0
  6  5  2  0  0  0  0
  7  9  1  0  0  0  0
  8  1  1  0  0  0  0
 10  7  1  0  0  0  0
 11 17  1  0  0  0  0
 11  3  1  0  0  0  0
 12 11  1  0  0  0  0
 13 14  1  0  0  0  0
 13 12  1  0  0  0  0
 14 15  1  0  0  0  0
 14 16  1  0  0  0  0
 16 17  1  0  0  0  0
 18 19  1  0  0  0  0
 18  2  1  0  0  0  0
 20 18  1  0  0  0  0
 21 18  1  0  0  0  0
M  END
>  <minimizedAffinity>
-4.63704062

$$$$

 OpenBabel03272507563D

 21 22  0  0  0  0  0  0  0  0999 V2000
   38.1530   25.0420   36.9050 C   0  0  0  0  0  0  0  0  0  0  0  0
   38.2930   25.6290   35.6080 C   0  0  0  0  0  0  0  0  0  0  0  0
   38.1860   24.7980   34.5050 C   0  0  0  0  0  0  0  0  0  0  0  0
   37.9530   23.4640   34.7000 N   0  0  0  0  0  0  0  0  0  0  0  0
   37.8250   22.9450   35.9490 C   0  0  0  0  0  0  0  0  0  0  0  0
   37.9230   23.7200   37.0410 N   0  0  0  0  0  0  0  0  0  0  0  0
   37.5890   21.5440   35.9180 N   0  0  0  0  0  0  0  0  0  0  0  0
   38.2230   25.6140   37.8010 H   0  0  0  0  0  0  0  0  0  0  0  0
   36.6530   21.1320   35.8390 H   0  0  0  0  0  0  0  0  0  0  0  0
   38.4410   20.9300   35.9800 H   0  0  0  0  0  0  0  0  0  0  0  0
   38.3220   25.3490   33.1880 N   0  0  0  0  0  0  0  0  0  0  0  0
   38.3230   26.7390   32.7150 C   0  0  0  0  0  2  0  0  0  0  0  0
   39.4720   26.7980   31.6990 C   0  0  0  0  0  2  0  0  0  0  0  0
   39.0610   26.0080   30.5070 C   0  0  0  0  0  3  0  0  0  0  0  0
   38.3230   26.6110   29.9330 H   0  0  0  0  0  0  0  0  0  0  0  0
   38.5030   24.6630   30.8110 C   0  0  0  0  0  2  0  0  0  0  0  0
   38.4770   24.2660   32.2440 C   0  0  0  0  0  2  0  0  0  0  0  0
   38.5430   27.0900   35.5150 C   0  0  0  0  0  0  0  0  0  0  0  0
   37.5390   27.7430   34.8380 F   0  0  0  0  0  0  0  0  0  0  0  0
   38.6050   27.5820   36.8040 F   0  0  0  0  0  0  0  0  0  0  0  0
   39.7440   27.3910   34.9010 F   0  0  0  0  0  0  0  0  0  0  0  0
  1  6  1  0  0  0  0
  1  8  1  0  0  0  0
  2  1  2  0  0  0  0
  3  4  2  0  0  0  0
  3  2  1  0  0  0  0
  4  5  1  0  0  0  0
  5  6  2  0  0  0  0
  7  5  1  0  0  0  0
  7 10  1  0  0  0  0
  9  7  1  0  0  0  0
 11  3  1  0  0  0  0
 12 11  1  0  0  0  0
 13 12  1  0  0  0  0
 14 16  1  0  0  0  0
 14 13  1  0  0  0  0
 15 14  1  0  0  0  0
 16 17  1  0  0  0  0
 17 11  1  0  0  0  0
 18  2  1  0  0  0  0
 18 20  1  0  0  0  0
 19 18  1  0  0  0  0
 21 18  1  0  0  0  0
M  END
>  <minimizedAffinity>
-4.62822151

$$$$

 OpenBabel03272507563D

 21 22  0  0  0  0  0  0  0  0999 V2000
   38.2140   26.0660   33.1740 C   0  0  0  0  0  0  0  0  0  0  0  0
   37.9160   24.6770   33.3410 C   0  0  0  0  0  0  0  0  0  0  0  0
   37.0240   24.0930   32.4570 C   0  0  0  0  0  0  0  0  0  0  0  0
   36.4700   24.8620   31.4690 N   0  0  0  0  0  0  0  0  0  0  0  0
   36.7800   26.1790   31.3430 C   0  0  0  0  0  0  0  0  0  0  0  0
   37.6410   26.7780   32.1820 N   0  0  0  0  0  0  0  0  0  0  0  0
   36.0930   26.7820   30.2560 N   0  0  0  0  0  0  0  0  0  0  0  0
   38.8890   26.5860   33.8120 H   0  0  0  0  0  0  0  0  0  0  0  0
   36.4510   26.7840   29.2940 H   0  0  0  0  0  0  0  0  0  0  0  0
   35.1730   27.2390   30.4850 H   0  0  0  0  0  0  0  0  0  0  0  0
   36.6980   22.7040   32.5940 N   0  0  0  0  0  0  0  0  0  0  0  0
   37.3250   21.6350   33.3830 C   0  0  0  0  0  2  0  0  0  0  0  0
   36.1440   20.8750   34.0030 C   0  0  0  0  0  2  0  0  0  0  0  0
   35.4460   20.1530   32.9050 C   0  0  0  0  0  3  0  0  0  0  0  0
   36.0620   19.2710   32.6260 H   0  0  0  0  0  0  0  0  0  0  0  0
   35.1530   20.9790   31.7030 C   0  0  0  0  0  2  0  0  0  0  0  0
   35.5450   22.4130   31.7730 C   0  0  0  0  0  2  0  0  0  0  0  0
   38.5770   23.9390   34.4490 C   0  0  0  0  0  0  0  0  0  0  0  0
   39.3900   22.9320   33.9830 F   0  0  0  0  0  0  0  0  0  0  0  0
   39.3490   24.8470   35.1470 F   0  0  0  0  0  0  0  0  0  0  0  0
   37.6760   23.3900   35.3410 F   0  0  0  0  0  0  0  0  0  0  0  0
  1  2  1  0  0  0  0
  1  8  1  0  0  0  0
  2 18  1  0  0  0  0
  3 11  1  0  0  0  0
  3  2  2  0  0  0  0
  4  3  1  0  0  0  0
  5  4  2  0  0  0  0
  5  6  1  0  0  0  0
  6  1  2  0  0  0  0
  7 10  1  0  0  0  0
  7  5  1  0  0  0  0
  9  7  1  0  0  0  0
 11 12  1  0  0  0  0
 12 13  1  0  0  0  0
 14 13  1  0  0  0  0
 15 14  1  0  0  0  0
 16 17  1  0  0  0  0
 16 14  1  0  0  0  0
 17 11  1  0  0  0  0
 18 20  1  0  0  0  0
 18 21  1  0  0  0  0
 19 18  1  0  0  0  0
M  END
>  <minimizedAffinity>
-4.55856514

$$$$

 OpenBabel03272507563D

 21 22  0  0  0  0  0  0  0  0999 V2000
   35.3250   26.0210   31.1750 C   0  0  0  0  0  0  0  0  0  0  0  0
   36.5140   26.3970   31.8740 C   0  0  0  0  0  0  0  0  0  0  0  0
   37.3510   25.3890   32.3230 C   0  0  0  0  0  0  0  0  0  0  0  0
   37.0080   24.0860   32.0800 N   0  0  0  0  0  0  0  0  0  0  0  0
   35.8690   23.7690   31.4110 C   0  0  0  0  0  0  0  0  0  0  0  0
   35.0350   24.7200   30.9620 N   0  0  0  0  0  0  0  0  0  0  0  0
   35.7110   22.3640   31.2730 N   0  0  0  0  0  0  0  0  0  0  0  0
   34.6330   26.7370   30.8000 H   0  0  0  0  0  0  0  0  0  0  0  0
   36.1100   21.8250   30.4960 H   0  0  0  0  0  0  0  0  0  0  0  0
   35.1500   21.8850   32.0240 H   0  0  0  0  0  0  0  0  0  0  0  0
   38.5520   25.7270   33.0300 N   0  0  0  0  0  0  0  0  0  0  0  0
   39.2520   27.0070   33.1920 C   0  0  0  0  0  2  0  0  0  0  0  0
   39.6380   27.0470   34.6780 C   0  0  0  0  0  2  0  0  0  0  0  0
   40.6960   26.0240   34.8970 C   0  0  0  0  0  3  0  0  0  0  0  0
   41.6490   26.4210   34.4840 H   0  0  0  0  0  0  0  0  0  0  0  0
   40.4010   24.6870   34.3160 C   0  0  0  0  0  2  0  0  0  0  0  0
   39.0810   24.5320   33.6470 C   0  0  0  0  0  2  0  0  0  0  0  0
   36.7870   27.8440   32.0800 C   0  0  0  0  0  0  0  0  0  0  0  0
   37.9550   28.2390   31.4680 F   0  0  0  0  0  0  0  0  0  0  0  0
   35.7340   28.5450   31.5260 F   0  0  0  0  0  0  0  0  0  0  0  0
   36.8590   28.1910   33.4150 F   0  0  0  0  0  0  0  0  0  0  0  0
  1  2  1  0  0  0  0
  2 18  1  0  0  0  0
  2  3  2  0  0  0  0
  3 11  1  0  0  0  0
  4  3  1  0  0  0  0
  5  4  2  0  0  0  0
  6  1  2  0  0  0  0
  6  5  1  0  0  0  0
  7  5  1  0  0  0  0
  7 10  1  0  0  0  0
  8  1  1  0  0  0  0
  9  7  1  0  0  0  0
 11 12  1  0  0  0  0
 11 17  1  0  0  0  0
 12 13  1  0  0  0  0
 13 14  1  0  0  0  0
 15 14  1  0  0  0  0
 16 14  1  0  0  0  0
 17 16  1  0  0  0  0
 18 21  1  0  0  0  0
 19 18  1  0  0  0  0
 20 18  1  0  0  0  0
M  END
>  <minimizedAffinity>
-4.53524637

$$$$

 OpenBabel03272507563D

 21 22  0  0  0  0  0  0  0  0999 V2000
   37.0110   27.8100   34.5290 C   0  0  0  0  0  0  0  0  0  0  0  0
   37.4960   26.4660   34.5920 C   0  0  0  0  0  0  0  0  0  0  0  0
   37.3690   25.6770   33.4600 C   0  0  0  0  0  0  0  0  0  0  0  0
   36.7910   26.2110   32.3410 N   0  0  0  0  0  0  0  0  0  0  0  0
   36.3440   27.4940   32.3210 C   0  0  0  0  0  0  0  0  0  0  0  0
   36.4500   28.2880   33.3990 N   0  0  0  0  0  0  0  0  0  0  0  0
   35.7810   27.8390   31.0630 N   0  0  0  0  0  0  0  0  0  0  0  0
   37.0730   28.4780   35.3570 H   0  0  0  0  0  0  0  0  0  0  0  0
   36.3340   28.2030   30.2790 H   0  0  0  0  0  0  0  0  0  0  0  0
   34.7430   27.7000   30.9670 H   0  0  0  0  0  0  0  0  0  0  0  0
   37.8410   24.3230   33.4840 N   0  0  0  0  0  0  0  0  0  0  0  0
   38.6980   23.6130   34.4430 C   0  0  0  0  0  2  0  0  0  0  0  0
   38.0150   22.2510   34.6310 C   0  0  0  0  0  2  0  0  0  0  0  0
   38.1770   21.4870   33.3640 C   0  0  0  0  0  3  0  0  0  0  0  0
   39.2270   21.1230   33.3140 H   0  0  0  0  0  0  0  0  0  0  0  0
   37.8340   22.2440   32.1310 C   0  0  0  0  0  2  0  0  0  0  0  0
   37.3300   23.6310   32.3230 C   0  0  0  0  0  2  0  0  0  0  0  0
   38.1070   25.9910   35.8600 C   0  0  0  0  0  0  0  0  0  0  0  0
   37.4230   24.9230   36.3930 F   0  0  0  0  0  0  0  0  0  0  0  0
   39.3980   25.5950   35.5730 F   0  0  0  0  0  0  0  0  0  0  0  0
   38.1820   26.9800   36.8220 F   0  0  0  0  0  0  0  0  0  0  0  0
  1  2  1  0  0  0  0
  1  8  1  0  0  0  0
  2 18  1  0  0  0  0
  3 11  1  0  0  0  0
  3  2  2  0  0  0  0
  4  3  1  0  0  0  0
  5  4  2  0  0  0  0
  5  6  1  0  0  0  0
  6  1  2  0  0  0  0
  7  5  1  0  0  0  0
  9  7  1  0  0  0  0
 10  7  1  0  0  0  0
 11 12  1  0  0  0  0
 12 13  1  0  0  0  0
 14 13  1  0  0  0  0
 15 14  1  0  0  0  0
 16 17  1  0  0  0  0
 16 14  1  0  0  0  0
 17 11  1  0  0  0  0
 18 19  1  0  0  0  0
 18 21  1  0  0  0  0
 20 18  1  0  0  0  0
M  END
>  <minimizedAffinity>
-4.44993973

$$$$

 OpenBabel03272507563D

 21 22  0  0  0  0  0  0  0  0999 V2000
   38.1470   25.1110   35.9860 C   0  0  0  0  0  0  0  0  0  0  0  0
   39.4530   24.6470   35.6340 C   0  0  0  0  0  0  0  0  0  0  0  0
   39.9300   23.5090   36.2640 C   0  0  0  0  0  0  0  0  0  0  0  0
   39.1390   22.8840   37.1900 N   0  0  0  0  0  0  0  0  0  0  0  0
   37.9020   23.3560   37.4970 C   0  0  0  0  0  0  0  0  0  0  0  0
   37.4080   24.4550   36.9050 N   0  0  0  0  0  0  0  0  0  0  0  0
   37.2600   22.5570   38.4790 N   0  0  0  0  0  0  0  0  0  0  0  0
   37.7110   25.9770   35.5460 H   0  0  0  0  0  0  0  0  0  0  0  0
   36.6970   21.7290   38.2520 H   0  0  0  0  0  0  0  0  0  0  0  0
   37.3900   22.8570   39.4790 H   0  0  0  0  0  0  0  0  0  0  0  0
   41.2350   23.0140   35.9390 N   0  0  0  0  0  0  0  0  0  0  0  0
   42.1490   23.3430   34.8380 C   0  0  0  0  0  2  0  0  0  0  0  0
   43.5280   23.4560   35.5040 C   0  0  0  0  0  2  0  0  0  0  0  0
   43.9400   22.0890   35.9220 C   0  0  0  0  0  3  0  0  0  0  0  0
   44.2580   21.5330   35.0140 H   0  0  0  0  0  0  0  0  0  0  0  0
   42.9000   21.3220   36.6590 C   0  0  0  0  0  2  0  0  0  0  0  0
   41.6190   22.0290   36.9250 C   0  0  0  0  0  2  0  0  0  0  0  0
   40.2230   25.4050   34.6140 C   0  0  0  0  0  0  0  0  0  0  0  0
   40.4910   24.6430   33.5000 F   0  0  0  0  0  0  0  0  0  0  0  0
   39.4540   26.4890   34.2380 F   0  0  0  0  0  0  0  0  0  0  0  0
   41.4190   25.8950   35.1000 F   0  0  0  0  0  0  0  0  0  0  0  0
  1  6  1  0  0  0  0
  2  1  2  0  0  0  0
  2  3  1  0  0  0  0
  3  4  2  0  0  0  0
  4  5  1  0  0  0  0
  5  7  1  0  0  0  0
  6  5  2  0  0  0  0
  7 10  1  0  0  0  0
  8  1  1  0  0  0  0
  9  7  1  0  0  0  0
 11  3  1  0  0  0  0
 11 17  1  0  0  0  0
 12 13  1  0  0  0  0
 12 11  1  0  0  0  0
 13 14  1  0  0  0  0
 14 16  1  0  0  0  0
 15 14  1  0  0  0  0
 16 17  1  0  0  0  0
 18 21  1  0  0  0  0
 18  2  1  0  0  0  0
 19 18  1  0  0  0  0
 20 18  1  0  0  0  0
M  END
>  <minimizedAffinity>
-4.44504309

$$$$
