
 OpenBabel03272508363D

 42 45  0  0  1  0  0  0  0  0999 V2000
   40.3160   31.7820   44.2330 C   0  0  0  0  0  0  0  0  0  0  0  0
   40.2740   30.7330   44.5650 H   0  0  0  0  0  0  0  0  0  0  0  0
   41.4420   31.9730   44.1780 H   0  0  0  0  0  0  0  0  0  0  0  0
   39.8510   31.9250   42.9270 N   0  0  0  0  0  0  0  0  0  0  0  0
   39.3150   33.1940   42.5800 C   0  0  0  0  0  0  0  0  0  0  0  0
   37.8960   33.2330   42.1930 C   0  0  0  0  0  0  0  0  0  0  0  0
   37.5720   32.1590   41.3170 O   0  0  0  0  0  0  0  0  0  0  0  0
   37.8030   30.9900   42.0340 C   0  0  0  0  0  0  0  0  0  0  0  0
   39.2810   30.8740   42.2120 C   0  0  2  0  0  0  0  0  0  0  0  0
   39.8590   33.3260   41.5750 H   0  0  0  0  0  0  0  0  0  0  0  0
   39.6640   34.0780   43.0760 H   0  0  0  0  0  0  0  0  0  0  0  0
   37.8350   34.1170   41.4280 H   0  0  0  0  0  0  0  0  0  0  0  0
   37.0800   33.4270   42.8020 H   0  0  0  0  0  0  0  0  0  0  0  0
   37.1770   30.8800   42.9030 H   0  0  0  0  0  0  0  0  0  0  0  0
   37.4760   30.1700   41.3280 H   0  0  0  0  0  0  0  0  0  0  0  0
   39.6460   31.0840   41.1330 H   0  0  0  0  0  0  0  0  0  0  0  0
   39.7980   29.5520   42.4100 N   0  0  0  0  0  0  0  0  0  0  0  0
   39.8420   28.7970   41.1570 C   0  0  0  0  0  0  0  0  0  0  0  0
   40.3560   27.4010   41.3720 C   0  0  0  0  0  0  0  0  0  0  0  0
   39.3780   26.6050   42.1840 C   0  0  0  0  0  0  0  0  0  0  0  0
   39.9120   26.0560   42.9840 H   0  0  0  0  0  0  0  0  0  0  0  0
   38.4190   27.5670   42.8500 C   0  0  0  0  0  0  0  0  0  0  0  0
   39.1040   28.7900   43.4170 C   0  0  0  0  0  0  0  0  0  0  0  0
   39.7630   32.6300   45.2820 C   0  0  0  0  0  0  0  0  0  0  0  0
   40.5880   32.8980   46.0070 H   0  0  0  0  0  0  0  0  0  0  0  0
   39.2820   33.5780   45.0860 H   0  0  0  0  0  0  0  0  0  0  0  0
   37.7620   30.9360   47.7310 C   0  0  0  0  0  0  0  0  0  0  0  0
   36.9800   30.8170   46.6110 C   0  0  0  0  0  0  0  0  0  0  0  0
   37.6390   31.4320   45.5630 C   0  0  0  0  0  0  0  0  0  0  0  0
   38.7830   31.8960   46.0750 N   0  0  0  0  0  0  0  0  0  0  0  0
   38.8530   31.5950   47.3800 N   0  0  0  0  0  0  0  0  0  0  0  0
   35.9970   30.3070   46.5920 H   0  0  0  0  0  0  0  0  0  0  0  0
   37.0980   31.3960   44.6450 H   0  0  0  0  0  0  0  0  0  0  0  0
   37.4980   30.2300   51.4240 C   0  0  0  0  0  0  0  0  0  0  0  0
   37.9960   30.7480   50.2260 C   0  0  0  0  0  0  0  0  0  0  0  0
   37.3610   30.4420   49.0340 C   0  0  0  0  0  0  0  0  0  0  0  0
   36.2700   29.6350   49.1510 N   0  0  0  0  0  0  0  0  0  0  0  0
   35.8080   29.1480   50.3070 C   0  0  0  0  0  0  0  0  0  0  0  0
   36.4260   29.4500   51.4390 N   0  0  0  0  0  0  0  0  0  0  0  0
   38.0740   30.5350   52.2890 H   0  0  0  0  0  0  0  0  0  0  0  0
   38.8670   31.3900   50.1420 H   0  0  0  0  0  0  0  0  0  0  0  0
   34.9240   28.5100   50.2840 H   0  0  0  0  0  0  0  0  0  0  0  0
  1  2  1  0  0  0  0
  1 24  1  0  0  0  0
  3  1  1  0  0  0  0
  4  1  1  0  0  0  0
  5  4  1  0  0  0  0
  5 11  1  0  0  0  0
  6  5  1  0  0  0  0
  6 13  1  0  0  0  0
  7  8  1  0  0  0  0
  7  6  1  0  0  0  0
  8  9  1  0  0  0  0
  8 14  1  0  0  0  0
  9 16  1  6  0  0  0
  9 17  1  0  0  0  0
  9  4  1  0  0  0  0
 10  5  1  0  0  0  0
 12  6  1  0  0  0  0
 15  8  1  0  0  0  0
 17 23  1  0  0  0  0
 18 19  1  0  0  0  0
 18 17  1  0  0  0  0
 19 20  1  0  0  0  0
 20 22  1  0  0  0  0
 20 21  1  0  0  0  0
 22 23  1  0  0  0  0
 24 25  1  0  0  0  0
 24 30  1  0  0  0  0
 26 24  1  0  0  0  0
 27 36  1  0  0  0  0
 28 27  1  0  0  0  0
 29 30  1  0  0  0  0
 29 28  2  0  0  0  0
 30 31  1  0  0  0  0
 31 27  2  0  0  0  0
 32 28  1  0  0  0  0
 33 29  1  0  0  0  0
 34 39  1  0  0  0  0
 34 40  1  0  0  0  0
 35 34  2  0  0  0  0
 36 37  2  0  0  0  0
 36 35  1  0  0  0  0
 37 38  1  0  0  0  0
 38 39  2  0  0  0  0
 41 35  1  0  0  0  0
 42 38  1  0  0  0  0
M  END
>  <minimizedAffinity>
-5.62871838

>  <minimizedRMSD>
2.10014033

$$$$
