
 OpenBabel03272510323D

 26 28  0  0  0  0  0  0  0  0999 V2000
   36.7450   30.6280   45.7270 C   0  0  0  0  0  0  0  0  0  0  0  0
   36.1250   30.2490   44.5640 C   0  0  0  0  0  0  0  0  0  0  0  0
   34.8660   29.6880   44.5640 C   0  0  0  0  0  0  0  0  0  0  0  0
   34.2340   29.5160   45.7900 C   0  0  0  0  0  0  0  0  0  0  0  0
   34.8430   29.8940   46.9890 C   0  0  0  0  0  0  0  0  0  0  0  0
   36.1120   30.4550   46.9460 C   0  0  0  0  0  0  0  0  0  0  0  0
   36.6080   30.3760   43.5940 H   0  0  0  0  0  0  0  0  0  0  0  0
   34.3710   29.3870   43.6480 H   0  0  0  0  0  0  0  0  0  0  0  0
   33.2490   29.0750   45.7500 H   0  0  0  0  0  0  0  0  0  0  0  0
   34.3020   29.7370   47.9140 H   0  0  0  0  0  0  0  0  0  0  0  0
   39.3520   33.0850   45.0620 C   0  0  0  0  0  0  0  0  0  0  0  0
   40.5400   32.4280   45.3740 C   0  0  0  0  0  0  0  0  0  0  0  0
   40.4350   31.0840   45.8320 C   0  0  0  0  0  0  0  0  0  0  0  0
   39.2010   30.5270   45.9370 N   0  0  0  0  0  0  0  0  0  0  0  0
   38.0700   31.2080   45.6210 C   0  0  0  0  0  0  0  0  0  0  0  0
   38.1690   32.4830   45.1850 N   0  0  0  0  0  0  0  0  0  0  0  0
   39.3560   34.1060   44.7080 H   0  0  0  0  0  0  0  0  0  0  0  0
   41.4910   32.8940   45.2800 H   0  0  0  0  0  0  0  0  0  0  0  0
   41.3330   30.5140   46.0940 H   0  0  0  0  0  0  0  0  0  0  0  0
   36.7550   30.8470   48.1600 N   0  0  0  0  0  0  0  0  0  0  0  0
   37.2700   32.1620   48.5760 C   0  0  0  0  0  2  0  0  0  0  0  0
   38.5860   31.9650   49.2990 C   0  0  0  0  0  2  0  0  0  0  0  0
   38.4760   31.0060   50.4420 C   0  0  0  0  0  3  0  0  0  0  0  0
   39.2560   30.2230   50.3430 H   0  0  0  0  0  0  0  0  0  0  0  0
   37.1380   30.2780   50.4460 C   0  0  0  0  0  2  0  0  0  0  0  0
   36.8850   29.7300   49.0750 C   0  0  0  0  0  2  0  0  0  0  0  0
  1  6  1  0  0  0  0
  2  3  1  0  0  0  0
  2  1  2  0  0  0  0
  3  4  2  0  0  0  0
  4  5  1  0  0  0  0
  5 10  1  0  0  0  0
  6  5  2  0  0  0  0
  6 20  1  0  0  0  0
  7  2  1  0  0  0  0
  8  3  1  0  0  0  0
  9  4  1  0  0  0  0
 11 16  2  0  0  0  0
 11 12  1  0  0  0  0
 12 13  2  0  0  0  0
 13 14  1  0  0  0  0
 13 19  1  0  0  0  0
 15  1  1  0  0  0  0
 15 14  2  0  0  0  0
 16 15  1  0  0  0  0
 17 11  1  0  0  0  0
 18 12  1  0  0  0  0
 20 21  1  0  0  0  0
 20 26  1  0  0  0  0
 21 22  1  0  0  0  0
 22 23  1  0  0  0  0
 23 25  1  0  0  0  0
 24 23  1  0  0  0  0
 26 25  1  0  0  0  0
M  END
>  <minimizedAffinity>
-5.47972107

>  <minimizedRMSD>
3.20418048

$$$$
