
 OpenBabel03272506493D

 32 34  0  0  1  0  0  0  0  0999 V2000
   34.0920   29.6020   48.5960 C   0  0  1  0  0  0  0  0  0  0  0  0
   33.8750   29.8780   47.1770 C   0  0  0  0  0  0  0  0  0  0  0  0
   33.9930   28.7170   46.2280 C   0  0  0  0  0  0  0  0  0  0  0  0
   33.4910   27.4140   46.7370 C   0  0  2  0  0  0  0  0  0  0  0  0
   33.7010   27.1200   48.1850 C   0  0  0  0  0  0  0  0  0  0  0  0
   33.4490   28.3210   49.0420 C   0  0  0  0  0  0  0  0  0  0  0  0
   33.5370   30.3950   49.1930 H   0  0  0  0  0  0  0  0  0  0  0  0
   32.7710   30.1520   47.0870 H   0  0  0  0  0  0  0  0  0  0  0  0
   34.3750   30.7310   46.7380 H   0  0  0  0  0  0  0  0  0  0  0  0
   33.4520   28.9560   45.2890 H   0  0  0  0  0  0  0  0  0  0  0  0
   35.0820   28.6970   45.9410 H   0  0  0  0  0  0  0  0  0  0  0  0
   32.3880   27.4090   46.5690 H   0  0  0  0  0  0  0  0  0  0  0  0
   34.7210   26.7450   48.4090 H   0  0  0  0  0  0  0  0  0  0  0  0
   32.9390   26.3610   48.5010 H   0  0  0  0  0  0  0  0  0  0  0  0
   32.3360   28.5250   48.9210 H   0  0  0  0  0  0  0  0  0  0  0  0
   33.5610   28.0550   50.0810 H   0  0  0  0  0  0  0  0  0  0  0  0
   36.4920   30.3990   48.3280 C   0  0  0  0  0  0  0  0  0  0  0  0
   35.4830   29.7600   49.0900 C   0  0  0  0  0  0  0  0  0  0  0  0
   35.8410   29.2820   50.3360 C   0  0  0  0  0  0  0  0  0  0  0  0
   37.1170   29.4380   50.7740 N   0  0  0  0  0  0  0  0  0  0  0  0
   38.0560   30.0570   50.0110 C   0  0  0  0  0  0  0  0  0  0  0  0
   37.7330   30.5360   48.7840 N   0  0  0  0  0  0  0  0  0  0  0  0
   36.2810   30.7950   47.3470 H   0  0  0  0  0  0  0  0  0  0  0  0
   35.1940   28.7790   51.0330 H   0  0  0  0  0  0  0  0  0  0  0  0
   39.0750   30.1730   50.3780 H   0  0  0  0  0  0  0  0  0  0  0  0
   34.0530   26.3970   45.9380 N   0  0  0  0  0  0  0  0  0  0  0  0
   34.2820   26.6120   44.5760 C   0  0  0  0  0  0  0  0  0  0  0  0
   33.7590   25.4610   43.7290 C   0  0  0  0  0  0  0  0  0  0  0  0
   34.1820   24.1260   44.2470 C   0  0  0  0  0  0  0  0  0  0  0  0
   33.2950   23.5290   44.5980 H   0  0  0  0  0  0  0  0  0  0  0  0
   35.0540   24.3170   45.4790 C   0  0  0  0  0  0  0  0  0  0  0  0
   34.2230   25.1190   46.4640 C   0  0  0  0  0  0  0  0  0  0  0  0
  1  6  1  0  0  0  0
  1 18  1  0  0  0  0
  1  7  1  1  0  0  0
  2  1  1  0  0  0  0
  3  4  1  0  0  0  0
  3  2  1  0  0  0  0
  4 12  1  6  0  0  0
  4  5  1  0  0  0  0
  5 13  1  0  0  0  0
  5 14  1  0  0  0  0
  5  6  1  0  0  0  0
  6 16  1  0  0  0  0
  8  2  1  0  0  0  0
  9  2  1  0  0  0  0
 10  3  1  0  0  0  0
 11  3  1  0  0  0  0
 15  6  1  0  0  0  0
 17 22  2  0  0  0  0
 17 18  1  0  0  0  0
 18 19  2  0  0  0  0
 19 20  1  0  0  0  0
 19 24  1  0  0  0  0
 21 25  1  0  0  0  0
 21 20  2  0  0  0  0
 22 21  1  0  0  0  0
 23 17  1  0  0  0  0
 26 32  1  0  0  0  0
 26  4  1  0  0  0  0
 27 26  1  0  0  0  0
 28 29  1  0  0  0  0
 28 27  1  0  0  0  0
 29 30  1  0  0  0  0
 29 31  1  0  0  0  0
 31 32  1  0  0  0  0
M  END
>  <minimizedAffinity>
-4.269526

>  <minimizedRMSD>
1.24120295

$$$$
