
 OpenBabel03272510193D

 34 37  0  0  0  0  0  0  0  0999 V2000
   37.3340   29.1510   50.7750 Br  0  0  0  0  0  0  0  0  0  0  0  0
   35.9510   29.2870   49.4600 C   0  0  0  0  0  0  0  0  0  0  0  0
   35.9650   30.2980   48.5120 C   0  0  0  0  0  0  0  0  0  0  0  0
   34.9430   30.3290   47.6060 C   0  0  0  0  0  0  0  0  0  0  0  0
   33.9140   29.4220   47.5860 C   0  0  0  0  0  0  0  0  0  0  0  0
   33.9250   28.4310   48.5360 C   0  0  0  0  0  0  0  0  0  0  0  0
   34.9370   28.3690   49.4620 C   0  0  0  0  0  0  0  0  0  0  0  0
   34.9300   31.1110   46.8540 H   0  0  0  0  0  0  0  0  0  0  0  0
   33.1340   27.6910   48.5610 H   0  0  0  0  0  0  0  0  0  0  0  0
   34.8980   27.5650   50.1920 H   0  0  0  0  0  0  0  0  0  0  0  0
   32.8280   29.4560   46.6240 C   0  0  0  0  0  0  0  0  0  0  0  0
   32.0800   28.3550   46.2370 C   0  0  0  0  0  0  0  0  0  0  0  0
   31.0480   28.4400   45.3110 C   0  0  0  0  0  0  0  0  0  0  0  0
   30.7510   29.6210   44.7600 N   0  0  0  0  0  0  0  0  0  0  0  0
   31.4730   30.7050   45.1290 C   0  0  0  0  0  0  0  0  0  0  0  0
   32.4580   30.6030   46.0190 N   0  0  0  0  0  0  0  0  0  0  0  0
   32.3230   27.3970   46.6850 H   0  0  0  0  0  0  0  0  0  0  0  0
   30.5110   27.5430   45.0580 H   0  0  0  0  0  0  0  0  0  0  0  0
   31.1230   31.9440   44.5190 N   0  0  0  0  0  0  0  0  0  0  0  0
   31.5860   33.1890   45.0490 C   0  0  0  0  0  0  0  0  0  0  0  0
   31.7770   34.2730   44.0370 C   0  0  0  0  0  0  0  0  0  0  0  0
   30.9500   34.1460   42.8120 C   0  0  0  0  0  0  0  0  0  0  0  0
   30.5960   35.1520   42.5070 H   0  0  0  0  0  0  0  0  0  0  0  0
   29.7350   33.2730   42.9970 C   0  0  0  0  0  0  0  0  0  0  0  0
   30.2730   31.9000   43.3310 C   0  0  0  0  0  0  0  0  0  0  0  0
   37.9850   33.1670   49.5130 C   0  0  0  0  0  0  0  0  0  0  0  0
   39.0350   33.1830   48.5320 C   0  0  0  0  0  0  0  0  0  0  0  0
   39.0160   32.2110   47.5590 C   0  0  0  0  0  0  0  0  0  0  0  0
   38.0130   31.2840   47.5700 N   0  0  0  0  0  0  0  0  0  0  0  0
   37.0380   31.2850   48.4960 C   0  0  0  0  0  0  0  0  0  0  0  0
   37.0290   32.2370   49.4750 N   0  0  0  0  0  0  0  0  0  0  0  0
   38.0220   33.9490   50.2730 H   0  0  0  0  0  0  0  0  0  0  0  0
   39.8110   33.9360   48.5600 H   0  0  0  0  0  0  0  0  0  0  0  0
   39.7670   32.1510   46.7860 H   0  0  0  0  0  0  0  0  0  0  0  0
  2  7  1  0  0  0  0
  2  1  1  0  0  0  0
  3  2  2  0  0  0  0
  4  3  1  0  0  0  0
  5  4  2  0  0  0  0
  5  6  1  0  0  0  0
  6  9  1  0  0  0  0
  6  7  2  0  0  0  0
  7 10  1  0  0  0  0
  8  4  1  0  0  0  0
 11  5  1  0  0  0  0
 12 11  1  0  0  0  0
 12 17  1  0  0  0  0
 13 12  2  0  0  0  0
 14 15  2  0  0  0  0
 14 13  1  0  0  0  0
 15 16  1  0  0  0  0
 16 11  2  0  0  0  0
 18 13  1  0  0  0  0
 19 20  1  0  0  0  0
 19 15  1  0  0  0  0
 21 20  1  0  0  0  0
 22 24  1  0  0  0  0
 22 21  1  0  0  0  0
 23 22  1  0  0  0  0
 24 25  1  0  0  0  0
 25 19  1  0  0  0  0
 26 32  1  0  0  0  0
 27 33  1  0  0  0  0
 27 26  2  0  0  0  0
 28 29  2  0  0  0  0
 28 27  1  0  0  0  0
 29 30  1  0  0  0  0
 30  3  1  0  0  0  0
 30 31  2  0  0  0  0
 31 26  1  0  0  0  0
 34 28  1  0  0  0  0
M  END
>  <minimizedAffinity>
-6.94486904

>  <minimizedRMSD>
0.336171985

$$$$
