
 OpenBabel03272509413D

 33 35  0  0  0  0  0  0  0  0999 V2000
   37.4140   21.8440   33.5700 C   0  0  0  0  0  0  0  0  0  0  0  0
   36.5130   20.8120   33.8780 C   0  0  0  0  0  0  0  0  0  0  0  0
   35.3410   20.6100   33.1810 C   0  0  0  0  0  0  0  0  0  0  0  0
   35.0150   21.4530   32.1220 C   0  0  0  0  0  0  0  0  0  0  0  0
   35.9040   22.4620   31.8270 C   0  0  0  0  0  0  0  0  0  0  0  0
   37.0610   22.6490   32.5260 C   0  0  0  0  0  0  0  0  0  0  0  0
   36.7250   20.1270   34.6950 H   0  0  0  0  0  0  0  0  0  0  0  0
   34.6720   19.8090   33.4370 H   0  0  0  0  0  0  0  0  0  0  0  0
   34.0940   21.2880   31.5770 H   0  0  0  0  0  0  0  0  0  0  0  0
   35.5850   23.0790   30.9910 H   0  0  0  0  0  0  0  0  0  0  0  0
   38.6180   21.9770   34.3620 C   0  0  0  0  0  0  0  0  0  0  0  0
   39.6870   21.5810   33.7720 O   0  0  0  0  0  0  0  0  0  0  0  0
   39.9680   22.6540   37.6560 C   0  0  0  0  0  0  0  0  0  0  0  0
   38.9750   23.4110   38.2820 C   0  0  0  0  0  0  0  0  0  0  0  0
   37.8250   23.6910   37.5650 C   0  0  0  0  0  0  0  0  0  0  0  0
   37.7040   23.2270   36.2920 N   0  0  0  0  0  0  0  0  0  0  0  0
   38.6670   22.5080   35.7210 C   0  0  0  0  0  0  0  0  0  0  0  0
   39.7810   22.2320   36.4080 N   0  0  0  0  0  0  0  0  0  0  0  0
   40.8670   22.4250   38.2260 H   0  0  0  0  0  0  0  0  0  0  0  0
   39.0800   23.7790   39.2960 H   0  0  0  0  0  0  0  0  0  0  0  0
   37.0030   24.2640   37.9730 H   0  0  0  0  0  0  0  0  0  0  0  0
   37.8890   23.7440   32.0940 C   0  0  0  0  0  3  0  0  0  0  0  0
   37.6760   25.0320   32.2910 C   0  0  0  0  0  3  0  0  0  0  0  0
   38.3650   26.2560   31.9290 C   0  0  0  0  0  0  0  0  0  0  0  0
   37.9510   26.6680   30.9740 H   0  0  0  0  0  0  0  0  0  0  0  0
   39.4630   26.0480   31.7620 H   0  0  0  0  0  0  0  0  0  0  0  0
   38.3140   27.3160   32.9220 N   0  0  0  0  0  0  0  0  0  0  0  0
   39.5580   27.1820   33.6650 C   0  0  0  0  0  2  0  0  0  0  0  0
   39.4480   26.2040   34.8090 C   0  0  0  0  0  2  0  0  0  0  0  0
   38.7500   26.9860   35.9300 C   0  0  0  0  0  3  0  0  0  0  0  0
   38.5070   26.3620   36.7830 H   0  0  0  0  0  0  0  0  0  0  0  0
   37.5610   27.6450   35.2580 C   0  0  0  0  0  2  0  0  0  0  0  0
   37.2610   27.0280   33.8920 C   0  0  0  0  0  2  0  0  0  0  0  0
  1  2  1  0  0  0  0
  1 11  1  0  0  0  0
  2  7  1  0  0  0  0
  3  8  1  0  0  0  0
  3  2  2  0  0  0  0
  4  3  1  0  0  0  0
  5  4  2  0  0  0  0
  5  6  1  0  0  0  0
  6  1  2  0  0  0  0
  9  4  1  0  0  0  0
 10  5  1  0  0  0  0
 11 17  1  0  0  0  0
 12 11  2  0  0  0  0
 13 19  1  0  0  0  0
 13 14  1  0  0  0  0
 14 20  1  0  0  0  0
 15 21  1  0  0  0  0
 15 14  2  0  0  0  0
 16 15  1  0  0  0  0
 17 16  2  0  0  0  0
 17 18  1  0  0  0  0
 18 13  2  0  0  0  0
 22 23  2  0  0  0  0
 22  6  1  0  0  0  0
 24 23  1  0  0  0  0
 24 27  1  0  0  0  0
 25 24  1  0  0  0  0
 26 24  1  0  0  0  0
 27 28  1  0  0  0  0
 27 33  1  0  0  0  0
 28 29  1  0  0  0  0
 29 30  1  0  0  0  0
 30 31  1  0  0  0  0
 32 30  1  0  0  0  0
 33 32  1  0  0  0  0
M  END
>  <minimizedAffinity>
-5.71597672

$$$$

 OpenBabel03272509413D

 33 35  0  0  0  0  0  0  0  0999 V2000
   36.7170   27.5820   32.6090 C   0  0  0  0  0  0  0  0  0  0  0  0
   35.8090   28.3730   31.8870 C   0  0  0  0  0  0  0  0  0  0  0  0
   35.0760   29.3880   32.4670 C   0  0  0  0  0  0  0  0  0  0  0  0
   35.2270   29.6580   33.8230 C   0  0  0  0  0  0  0  0  0  0  0  0
   36.1200   28.8780   34.5220 C   0  0  0  0  0  0  0  0  0  0  0  0
   36.8390   27.8770   33.9360 C   0  0  0  0  0  0  0  0  0  0  0  0
   35.6570   28.2000   30.8240 H   0  0  0  0  0  0  0  0  0  0  0  0
   34.3910   29.9800   31.8880 H   0  0  0  0  0  0  0  0  0  0  0  0
   34.6510   30.4570   34.2720 H   0  0  0  0  0  0  0  0  0  0  0  0
   36.1870   29.1450   35.5740 H   0  0  0  0  0  0  0  0  0  0  0  0
   37.4370   26.5380   31.9120 C   0  0  0  0  0  0  0  0  0  0  0  0
   38.5060   26.9350   31.3210 O   0  0  0  0  0  0  0  0  0  0  0  0
   37.5720   22.9710   32.5340 C   0  0  0  0  0  0  0  0  0  0  0  0
   36.4440   22.4680   31.8800 C   0  0  0  0  0  0  0  0  0  0  0  0
   35.6270   23.3660   31.2150 C   0  0  0  0  0  0  0  0  0  0  0  0
   35.9460   24.6880   31.2220 N   0  0  0  0  0  0  0  0  0  0  0  0
   37.0280   25.1390   31.8540 C   0  0  0  0  0  0  0  0  0  0  0  0
   37.8230   24.2770   32.4980 N   0  0  0  0  0  0  0  0  0  0  0  0
   38.2190   22.2620   33.0470 H   0  0  0  0  0  0  0  0  0  0  0  0
   36.1950   21.4130   31.8810 H   0  0  0  0  0  0  0  0  0  0  0  0
   34.7380   23.0650   30.6770 H   0  0  0  0  0  0  0  0  0  0  0  0
   37.7350   27.1550   34.7980 C   0  0  0  0  0  3  0  0  0  0  0  0
   37.4520   26.0980   35.5390 C   0  0  0  0  0  3  0  0  0  0  0  0
   38.1940   25.2610   36.4630 C   0  0  0  0  0  0  0  0  0  0  0  0
   37.6020   25.0960   37.4000 H   0  0  0  0  0  0  0  0  0  0  0  0
   39.1600   25.7690   36.7560 H   0  0  0  0  0  0  0  0  0  0  0  0
   38.5760   23.9570   35.9500 N   0  0  0  0  0  0  0  0  0  0  0  0
   38.4540   23.0640   37.0930 C   0  0  0  0  0  2  0  0  0  0  0  0
   39.7090   23.0210   37.9310 C   0  0  0  0  0  2  0  0  0  0  0  0
   40.6560   22.0800   37.1740 C   0  0  0  0  0  3  0  0  0  0  0  0
   41.6470   22.0450   37.6150 H   0  0  0  0  0  0  0  0  0  0  0  0
   40.6110   22.5620   35.7370 C   0  0  0  0  0  2  0  0  0  0  0  0
   39.9990   23.9570   35.6210 C   0  0  0  0  0  2  0  0  0  0  0  0
  1  6  1  0  0  0  0
  2  3  1  0  0  0  0
  2  1  2  0  0  0  0
  3  4  2  0  0  0  0
  4  9  1  0  0  0  0
  4  5  1  0  0  0  0
  5 10  1  0  0  0  0
  6  5  2  0  0  0  0
  6 22  1  0  0  0  0
  7  2  1  0  0  0  0
  8  3  1  0  0  0  0
 11  1  1  0  0  0  0
 12 11  2  0  0  0  0
 13 19  1  0  0  0  0
 14 20  1  0  0  0  0
 14 13  2  0  0  0  0
 15 16  2  0  0  0  0
 15 14  1  0  0  0  0
 16 17  1  0  0  0  0
 17 11  1  0  0  0  0
 17 18  2  0  0  0  0
 18 13  1  0  0  0  0
 21 15  1  0  0  0  0
 22 23  2  0  0  0  0
 23 24  1  0  0  0  0
 24 26  1  0  0  0  0
 24 25  1  0  0  0  0
 27 24  1  0  0  0  0
 27 28  1  0  0  0  0
 28 29  1  0  0  0  0
 30 31  1  0  0  0  0
 30 29  1  0  0  0  0
 32 30  1  0  0  0  0
 33 32  1  0  0  0  0
 33 27  1  0  0  0  0
M  END
>  <minimizedAffinity>
-5.49175549

$$$$

 OpenBabel03272509413D

 33 35  0  0  0  0  0  0  0  0999 V2000
   37.4870   26.1370   33.0010 C   0  0  0  0  0  0  0  0  0  0  0  0
   37.3530   27.4820   33.3810 C   0  0  0  0  0  0  0  0  0  0  0  0
   36.4640   28.3450   32.7760 C   0  0  0  0  0  0  0  0  0  0  0  0
   35.6530   27.8860   31.7420 C   0  0  0  0  0  0  0  0  0  0  0  0
   35.7910   26.5660   31.3770 C   0  0  0  0  0  0  0  0  0  0  0  0
   36.6750   25.7230   31.9850 C   0  0  0  0  0  0  0  0  0  0  0  0
   37.9640   27.8870   34.1840 H   0  0  0  0  0  0  0  0  0  0  0  0
   36.3800   29.3690   33.0910 H   0  0  0  0  0  0  0  0  0  0  0  0
   34.9560   28.5680   31.2720 H   0  0  0  0  0  0  0  0  0  0  0  0
   35.1280   26.2770   30.5650 H   0  0  0  0  0  0  0  0  0  0  0  0
   38.4510   25.3110   33.6940 C   0  0  0  0  0  0  0  0  0  0  0  0
   39.6110   25.2760   33.1450 O   0  0  0  0  0  0  0  0  0  0  0  0
   37.8080   22.4250   35.7890 C   0  0  0  0  0  0  0  0  0  0  0  0
   37.6780   22.9590   37.0740 C   0  0  0  0  0  0  0  0  0  0  0  0
   37.8110   24.3280   37.2220 C   0  0  0  0  0  0  0  0  0  0  0  0
   38.0610   25.0960   36.1280 N   0  0  0  0  0  0  0  0  0  0  0  0
   38.1800   24.5600   34.9160 C   0  0  0  0  0  0  0  0  0  0  0  0
   38.0520   23.2370   34.7640 N   0  0  0  0  0  0  0  0  0  0  0  0
   37.6920   21.3490   35.6730 H   0  0  0  0  0  0  0  0  0  0  0  0
   37.4810   22.3400   37.9410 H   0  0  0  0  0  0  0  0  0  0  0  0
   37.7190   24.8270   38.1780 H   0  0  0  0  0  0  0  0  0  0  0  0
   36.6980   24.3710   31.4940 C   0  0  0  0  0  3  0  0  0  0  0  0
   35.7090   23.4950   31.5220 C   0  0  0  0  0  3  0  0  0  0  0  0
   35.5460   22.1150   31.1040 C   0  0  0  0  0  0  0  0  0  0  0  0
   36.2150   21.8900   30.2350 H   0  0  0  0  0  0  0  0  0  0  0  0
   34.4810   21.9360   30.7690 H   0  0  0  0  0  0  0  0  0  0  0  0
   35.8080   21.1200   32.1300 N   0  0  0  0  0  0  0  0  0  0  0  0
   37.0070   20.4330   31.6750 C   0  0  0  0  0  2  0  0  0  0  0  0
   36.7010   19.2860   30.7440 C   0  0  0  0  0  2  0  0  0  0  0  0
   36.2730   18.1350   31.6640 C   0  0  0  0  0  3  0  0  0  0  0  0
   35.9150   17.2720   31.1120 H   0  0  0  0  0  0  0  0  0  0  0  0
   35.2630   18.7530   32.6110 C   0  0  0  0  0  2  0  0  0  0  0  0
   34.7590   20.1050   32.1070 C   0  0  0  0  0  2  0  0  0  0  0  0
  1  2  1  0  0  0  0
  1 11  1  0  0  0  0
  2  7  1  0  0  0  0
  3  8  1  0  0  0  0
  3  2  2  0  0  0  0
  4  3  1  0  0  0  0
  5  4  2  0  0  0  0
  5  6  1  0  0  0  0
  6  1  2  0  0  0  0
  9  4  1  0  0  0  0
 10  5  1  0  0  0  0
 11 17  1  0  0  0  0
 12 11  2  0  0  0  0
 13 14  1  0  0  0  0
 14 15  2  0  0  0  0
 14 20  1  0  0  0  0
 15 21  1  0  0  0  0
 16 15  1  0  0  0  0
 17 16  2  0  0  0  0
 18 17  1  0  0  0  0
 18 13  2  0  0  0  0
 19 13  1  0  0  0  0
 22 23  2  0  0  0  0
 22  6  1  0  0  0  0
 24 23  1  0  0  0  0
 24 27  1  0  0  0  0
 25 24  1  0  0  0  0
 26 24  1  0  0  0  0
 28 27  1  0  0  0  0
 29 30  1  0  0  0  0
 29 28  1  0  0  0  0
 30 32  1  0  0  0  0
 31 30  1  0  0  0  0
 33 27  1  0  0  0  0
 33 32  1  0  0  0  0
M  END
>  <minimizedAffinity>
-5.43355179

$$$$

 OpenBabel03272509413D

 33 35  0  0  0  0  0  0  0  0999 V2000
   38.6680   26.9870   33.5490 C   0  0  0  0  0  0  0  0  0  0  0  0
   39.8120   26.7970   32.7580 C   0  0  0  0  0  0  0  0  0  0  0  0
   39.8890   27.2080   31.4440 C   0  0  0  0  0  0  0  0  0  0  0  0
   38.7980   27.8380   30.8540 C   0  0  0  0  0  0  0  0  0  0  0  0
   37.6810   28.0200   31.6370 C   0  0  0  0  0  0  0  0  0  0  0  0
   37.6190   27.6090   32.9370 C   0  0  0  0  0  0  0  0  0  0  0  0
   40.6910   26.3100   33.1750 H   0  0  0  0  0  0  0  0  0  0  0  0
   40.7810   27.0530   30.8640 H   0  0  0  0  0  0  0  0  0  0  0  0
   38.8650   28.1600   29.8230 H   0  0  0  0  0  0  0  0  0  0  0  0
   36.8690   28.5180   31.1120 H   0  0  0  0  0  0  0  0  0  0  0  0
   38.6820   26.5180   34.9180 C   0  0  0  0  0  0  0  0  0  0  0  0
   39.0150   27.4100   35.7800 O   0  0  0  0  0  0  0  0  0  0  0  0
   37.7250   23.8320   37.1540 C   0  0  0  0  0  0  0  0  0  0  0  0
   37.7080   22.6990   36.3370 C   0  0  0  0  0  0  0  0  0  0  0  0
   38.0310   22.8590   35.0020 C   0  0  0  0  0  0  0  0  0  0  0  0
   38.3490   24.0960   34.5360 N   0  0  0  0  0  0  0  0  0  0  0  0
   38.3570   25.1590   35.3380 C   0  0  0  0  0  0  0  0  0  0  0  0
   38.0460   25.0130   36.6300 N   0  0  0  0  0  0  0  0  0  0  0  0
   37.4810   23.7030   38.2070 H   0  0  0  0  0  0  0  0  0  0  0  0
   37.4510   21.7160   36.7150 H   0  0  0  0  0  0  0  0  0  0  0  0
   38.0500   22.0360   34.2990 H   0  0  0  0  0  0  0  0  0  0  0  0
   36.3840   27.8750   33.6250 C   0  0  0  0  0  3  0  0  0  0  0  0
   35.6690   28.9860   33.5820 C   0  0  0  0  0  3  0  0  0  0  0  0
   34.4390   29.4420   34.2010 C   0  0  0  0  0  0  0  0  0  0  0  0
   34.3610   29.0510   35.2470 H   0  0  0  0  0  0  0  0  0  0  0  0
   33.5480   29.0520   33.6240 H   0  0  0  0  0  0  0  0  0  0  0  0
   34.2690   30.8840   34.2570 N   0  0  0  0  0  0  0  0  0  0  0  0
   35.5990   31.3980   34.5510 C   0  0  0  0  0  2  0  0  0  0  0  0
   35.8870   31.4470   36.0320 C   0  0  0  0  0  2  0  0  0  0  0  0
   35.1800   32.7160   36.5290 C   0  0  0  0  0  3  0  0  0  0  0  0
   35.2160   32.8160   37.6080 H   0  0  0  0  0  0  0  0  0  0  0  0
   33.7870   32.6390   35.9370 C   0  0  0  0  0  2  0  0  0  0  0  0
   33.4610   31.2370   35.4210 C   0  0  0  0  0  2  0  0  0  0  0  0
  1 11  1  0  0  0  0
  2  7  1  0  0  0  0
  2  1  2  0  0  0  0
  3  2  1  0  0  0  0
  4  3  2  0  0  0  0
  4  5  1  0  0  0  0
  5  6  2  0  0  0  0
  6  1  1  0  0  0  0
  6 22  1  0  0  0  0
  8  3  1  0  0  0  0
  9  4  1  0  0  0  0
 10  5  1  0  0  0  0
 11 17  1  0  0  0  0
 11 12  2  0  0  0  0
 13 19  1  0  0  0  0
 14 20  1  0  0  0  0
 14 13  2  0  0  0  0
 15 14  1  0  0  0  0
 16 15  2  0  0  0  0
 16 17  1  0  0  0  0
 17 18  2  0  0  0  0
 18 13  1  0  0  0  0
 21 15  1  0  0  0  0
 23 22  2  0  0  0  0
 23 24  1  0  0  0  0
 24 27  1  0  0  0  0
 24 25  1  0  0  0  0
 26 24  1  0  0  0  0
 27 28  1  0  0  0  0
 27 33  1  0  0  0  0
 28 29  1  0  0  0  0
 29 30  1  0  0  0  0
 30 31  1  0  0  0  0
 32 30  1  0  0  0  0
 33 32  1  0  0  0  0
M  END
>  <minimizedAffinity>
-5.39194918

$$$$

 OpenBabel03272509413D

 33 35  0  0  0  0  0  0  0  0999 V2000
   36.7710   27.8790   31.5680 C   0  0  0  0  0  0  0  0  0  0  0  0
   37.7910   28.0580   30.6190 C   0  0  0  0  0  0  0  0  0  0  0  0
   37.8830   29.1810   29.8240 C   0  0  0  0  0  0  0  0  0  0  0  0
   36.9360   30.1940   29.9500 C   0  0  0  0  0  0  0  0  0  0  0  0
   35.9410   30.0090   30.8820 C   0  0  0  0  0  0  0  0  0  0  0  0
   35.8620   28.8930   31.6630 C   0  0  0  0  0  0  0  0  0  0  0  0
   38.5540   27.2960   30.4860 H   0  0  0  0  0  0  0  0  0  0  0  0
   38.6770   29.2930   29.1090 H   0  0  0  0  0  0  0  0  0  0  0  0
   37.0150   31.0740   29.3240 H   0  0  0  0  0  0  0  0  0  0  0  0
   35.2380   30.8380   30.9250 H   0  0  0  0  0  0  0  0  0  0  0  0
   36.7580   26.6640   32.3540 C   0  0  0  0  0  0  0  0  0  0  0  0
   36.1850   25.6680   31.7800 O   0  0  0  0  0  0  0  0  0  0  0  0
   38.1400   25.0010   35.2610 C   0  0  0  0  0  0  0  0  0  0  0  0
   38.4170   26.0420   36.1500 C   0  0  0  0  0  0  0  0  0  0  0  0
   38.1230   27.3330   35.7460 C   0  0  0  0  0  0  0  0  0  0  0  0
   37.5830   27.5400   34.5150 N   0  0  0  0  0  0  0  0  0  0  0  0
   37.3300   26.5280   33.6890 C   0  0  0  0  0  0  0  0  0  0  0  0
   37.6100   25.2770   34.0720 N   0  0  0  0  0  0  0  0  0  0  0  0
   38.3610   23.9850   35.5850 H   0  0  0  0  0  0  0  0  0  0  0  0
   38.8490   25.8700   37.1290 H   0  0  0  0  0  0  0  0  0  0  0  0
   38.2980   28.1990   36.3720 H   0  0  0  0  0  0  0  0  0  0  0  0
   34.7670   28.8500   32.5950 C   0  0  0  0  0  3  0  0  0  0  0  0
   34.6010   29.6030   33.6670 C   0  0  0  0  0  3  0  0  0  0  0  0
   33.6000   29.6980   34.7130 C   0  0  0  0  0  0  0  0  0  0  0  0
   33.9390   29.1470   35.6270 H   0  0  0  0  0  0  0  0  0  0  0  0
   32.6340   29.2230   34.3680 H   0  0  0  0  0  0  0  0  0  0  0  0
   33.2510   31.0480   35.1190 N   0  0  0  0  0  0  0  0  0  0  0  0
   34.4970   31.7940   35.0200 C   0  0  0  0  0  2  0  0  0  0  0  0
   35.3250   31.7090   36.2790 C   0  0  0  0  0  2  0  0  0  0  0  0
   34.6840   32.7180   37.2410 C   0  0  0  0  0  3  0  0  0  0  0  0
   35.1190   32.6790   38.2340 H   0  0  0  0  0  0  0  0  0  0  0  0
   33.1980   32.4200   37.1800 C   0  0  0  0  0  2  0  0  0  0  0  0
   32.9140   31.0620   36.5390 C   0  0  0  0  0  2  0  0  0  0  0  0
  1  6  1  0  0  0  0
  1 11  1  0  0  0  0
  2  1  2  0  0  0  0
  3  4  2  0  0  0  0
  3  2  1  0  0  0  0
  4  5  1  0  0  0  0
  5 10  1  0  0  0  0
  5  6  2  0  0  0  0
  6 22  1  0  0  0  0
  7  2  1  0  0  0  0
  8  3  1  0  0  0  0
  9  4  1  0  0  0  0
 11 17  1  0  0  0  0
 12 11  2  0  0  0  0
 13 19  1  0  0  0  0
 13 14  1  0  0  0  0
 14 20  1  0  0  0  0
 15 14  2  0  0  0  0
 15 21  1  0  0  0  0
 16 15  1  0  0  0  0
 17 18  1  0  0  0  0
 17 16  2  0  0  0  0
 18 13  2  0  0  0  0
 22 23  2  0  0  0  0
 23 24  1  0  0  0  0
 24 27  1  0  0  0  0
 24 25  1  0  0  0  0
 26 24  1  0  0  0  0
 27 33  1  0  0  0  0
 28 27  1  0  0  0  0
 28 29  1  0  0  0  0
 29 30  1  0  0  0  0
 30 31  1  0  0  0  0
 32 30  1  0  0  0  0
 33 32  1  0  0  0  0
M  END
>  <minimizedAffinity>
-5.27125645

$$$$

 OpenBabel03272509413D

 33 35  0  0  0  0  0  0  0  0999 V2000
   37.0980   21.6370   33.1630 C   0  0  0  0  0  0  0  0  0  0  0  0
   36.2140   20.6650   33.6590 C   0  0  0  0  0  0  0  0  0  0  0  0
   35.1220   20.2140   32.9470 C   0  0  0  0  0  0  0  0  0  0  0  0
   34.8650   20.7310   31.6810 C   0  0  0  0  0  0  0  0  0  0  0  0
   35.7360   21.6830   31.2030 C   0  0  0  0  0  0  0  0  0  0  0  0
   36.8130   22.1190   31.9180 C   0  0  0  0  0  0  0  0  0  0  0  0
   36.3750   20.2310   34.6430 H   0  0  0  0  0  0  0  0  0  0  0  0
   34.4650   19.4660   33.3510 H   0  0  0  0  0  0  0  0  0  0  0  0
   34.0070   20.3720   31.1270 H   0  0  0  0  0  0  0  0  0  0  0  0
   35.4740   22.0400   30.2110 H   0  0  0  0  0  0  0  0  0  0  0  0
   38.2150   22.0470   33.9870 C   0  0  0  0  0  0  0  0  0  0  0  0
   39.3440   21.5500   33.6340 O   0  0  0  0  0  0  0  0  0  0  0  0
   38.4100   25.1520   35.8450 C   0  0  0  0  0  0  0  0  0  0  0  0
   38.0060   24.8030   37.1360 C   0  0  0  0  0  0  0  0  0  0  0  0
   37.6640   23.4830   37.3720 C   0  0  0  0  0  0  0  0  0  0  0  0
   37.7310   22.5850   36.3530 N   0  0  0  0  0  0  0  0  0  0  0  0
   38.1190   22.9460   35.1330 C   0  0  0  0  0  0  0  0  0  0  0  0
   38.4520   24.2200   34.8960 N   0  0  0  0  0  0  0  0  0  0  0  0
   38.6890   26.1890   35.6630 H   0  0  0  0  0  0  0  0  0  0  0  0
   37.9530   25.5250   37.9420 H   0  0  0  0  0  0  0  0  0  0  0  0
   37.3470   23.1220   38.3420 H   0  0  0  0  0  0  0  0  0  0  0  0
   37.6340   23.1140   31.2810 C   0  0  0  0  0  3  0  0  0  0  0  0
   37.4870   24.4250   31.3390 C   0  0  0  0  0  3  0  0  0  0  0  0
   38.1820   25.5640   30.7670 C   0  0  0  0  0  0  0  0  0  0  0  0
   38.4980   25.3400   29.7160 H   0  0  0  0  0  0  0  0  0  0  0  0
   39.1160   25.7880   31.3630 H   0  0  0  0  0  0  0  0  0  0  0  0
   37.4260   26.8050   30.7430 N   0  0  0  0  0  0  0  0  0  0  0  0
   38.1370   27.6850   31.6580 C   0  0  0  0  0  2  0  0  0  0  0  0
   37.6840   27.5220   33.0880 C   0  0  0  0  0  2  0  0  0  0  0  0
   36.3770   28.3220   33.1810 C   0  0  0  0  0  3  0  0  0  0  0  0
   35.8820   28.1990   34.1380 H   0  0  0  0  0  0  0  0  0  0  0  0
   35.5670   27.8790   31.9780 C   0  0  0  0  0  2  0  0  0  0  0  0
   36.1190   26.5950   31.3590 C   0  0  0  0  0  2  0  0  0  0  0  0
  1  2  1  0  0  0  0
  1 11  1  0  0  0  0
  2  7  1  0  0  0  0
  3  8  1  0  0  0  0
  3  2  2  0  0  0  0
  4  3  1  0  0  0  0
  5  4  2  0  0  0  0
  5  6  1  0  0  0  0
  6  1  2  0  0  0  0
  9  4  1  0  0  0  0
 10  5  1  0  0  0  0
 11 17  1  0  0  0  0
 12 11  2  0  0  0  0
 13 14  1  0  0  0  0
 14 15  2  0  0  0  0
 14 20  1  0  0  0  0
 15 21  1  0  0  0  0
 16 15  1  0  0  0  0
 17 16  2  0  0  0  0
 18 17  1  0  0  0  0
 18 13  2  0  0  0  0
 19 13  1  0  0  0  0
 22 23  2  0  0  0  0
 22  6  1  0  0  0  0
 24 23  1  0  0  0  0
 24 26  1  0  0  0  0
 25 24  1  0  0  0  0
 27 24  1  0  0  0  0
 27 33  1  0  0  0  0
 27 28  1  0  0  0  0
 28 29  1  0  0  0  0
 29 30  1  0  0  0  0
 30 31  1  0  0  0  0
 32 30  1  0  0  0  0
 33 32  1  0  0  0  0
M  END
>  <minimizedAffinity>
-5.25013971

$$$$

 OpenBabel03272509413D

 33 35  0  0  0  0  0  0  0  0999 V2000
   37.2470   25.3460   32.6740 C   0  0  0  0  0  0  0  0  0  0  0  0
   36.8950   24.1390   32.0500 C   0  0  0  0  0  0  0  0  0  0  0  0
   35.8480   24.0360   31.1580 C   0  0  0  0  0  0  0  0  0  0  0  0
   35.0930   25.1640   30.8490 C   0  0  0  0  0  0  0  0  0  0  0  0
   35.4460   26.3430   31.4660 C   0  0  0  0  0  0  0  0  0  0  0  0
   36.4860   26.4300   32.3460 C   0  0  0  0  0  0  0  0  0  0  0  0
   37.4560   23.2310   32.2580 H   0  0  0  0  0  0  0  0  0  0  0  0
   35.6040   23.0990   30.6920 H   0  0  0  0  0  0  0  0  0  0  0  0
   34.2740   25.0770   30.1470 H   0  0  0  0  0  0  0  0  0  0  0  0
   34.8150   27.1800   31.1780 H   0  0  0  0  0  0  0  0  0  0  0  0
   38.3610   25.3530   33.5980 C   0  0  0  0  0  0  0  0  0  0  0  0
   39.4040   25.9640   33.1660 O   0  0  0  0  0  0  0  0  0  0  0  0
   38.9570   22.8230   36.1230 C   0  0  0  0  0  0  0  0  0  0  0  0
   38.4490   23.3870   37.2960 C   0  0  0  0  0  0  0  0  0  0  0  0
   37.8920   24.6510   37.2190 C   0  0  0  0  0  0  0  0  0  0  0  0
   37.8610   25.2930   36.0200 N   0  0  0  0  0  0  0  0  0  0  0  0
   38.3530   24.7320   34.9190 C   0  0  0  0  0  0  0  0  0  0  0  0
   38.8910   23.5090   34.9850 N   0  0  0  0  0  0  0  0  0  0  0  0
   39.3840   21.8240   36.1840 H   0  0  0  0  0  0  0  0  0  0  0  0
   38.4800   22.8700   38.2490 H   0  0  0  0  0  0  0  0  0  0  0  0
   37.4690   25.1610   38.0750 H   0  0  0  0  0  0  0  0  0  0  0  0
   36.7330   27.7330   32.9030 C   0  0  0  0  0  3  0  0  0  0  0  0
   35.8400   28.6690   33.1700 C   0  0  0  0  0  3  0  0  0  0  0  0
   35.8930   30.0180   33.7030 C   0  0  0  0  0  0  0  0  0  0  0  0
   35.2850   30.7110   33.0680 H   0  0  0  0  0  0  0  0  0  0  0  0
   36.9580   30.3960   33.6970 H   0  0  0  0  0  0  0  0  0  0  0  0
   35.4330   30.1620   35.0740 N   0  0  0  0  0  0  0  0  0  0  0  0
   33.9950   30.3590   34.9590 C   0  0  0  0  0  2  0  0  0  0  0  0
   33.6230   31.8070   34.7590 C   0  0  0  0  0  2  0  0  0  0  0  0
   33.6940   32.4300   36.1600 C   0  0  0  0  0  3  0  0  0  0  0  0
   33.5540   33.5050   36.1450 H   0  0  0  0  0  0  0  0  0  0  0  0
   35.0240   31.9650   36.7220 C   0  0  0  0  0  2  0  0  0  0  0  0
   35.9420   31.4110   35.6330 C   0  0  0  0  0  2  0  0  0  0  0  0
  1 11  1  0  0  0  0
  2  7  1  0  0  0  0
  2  1  2  0  0  0  0
  3  2  1  0  0  0  0
  4  3  2  0  0  0  0
  4  5  1  0  0  0  0
  5  6  2  0  0  0  0
  6  1  1  0  0  0  0
  6 22  1  0  0  0  0
  8  3  1  0  0  0  0
  9  4  1  0  0  0  0
 10  5  1  0  0  0  0
 11 17  1  0  0  0  0
 12 11  2  0  0  0  0
 13 19  1  0  0  0  0
 13 14  1  0  0  0  0
 14 20  1  0  0  0  0
 15 14  2  0  0  0  0
 15 21  1  0  0  0  0
 16 15  1  0  0  0  0
 17 18  1  0  0  0  0
 17 16  2  0  0  0  0
 18 13  2  0  0  0  0
 22 23  2  0  0  0  0
 23 24  1  0  0  0  0
 24 27  1  0  0  0  0
 25 24  1  0  0  0  0
 26 24  1  0  0  0  0
 27 33  1  0  0  0  0
 28 27  1  0  0  0  0
 29 28  1  0  0  0  0
 29 30  1  0  0  0  0
 30 32  1  0  0  0  0
 31 30  1  0  0  0  0
 33 32  1  0  0  0  0
M  END
>  <minimizedAffinity>
-5.22163486

$$$$

 OpenBabel03272509413D

 33 35  0  0  0  0  0  0  0  0999 V2000
   36.7320   23.8980   31.2790 C   0  0  0  0  0  0  0  0  0  0  0  0
   35.4360   24.2550   30.8750 C   0  0  0  0  0  0  0  0  0  0  0  0
   34.9480   25.5410   30.9810 C   0  0  0  0  0  0  0  0  0  0  0  0
   35.7560   26.5430   31.5080 C   0  0  0  0  0  0  0  0  0  0  0  0
   37.0250   26.1840   31.9000 C   0  0  0  0  0  0  0  0  0  0  0  0
   37.4950   24.9070   31.7890 C   0  0  0  0  0  0  0  0  0  0  0  0
   34.7670   23.5070   30.4570 H   0  0  0  0  0  0  0  0  0  0  0  0
   33.9520   25.7860   30.6600 H   0  0  0  0  0  0  0  0  0  0  0  0
   35.3680   27.5510   31.5860 H   0  0  0  0  0  0  0  0  0  0  0  0
   37.5990   27.0160   32.3010 H   0  0  0  0  0  0  0  0  0  0  0  0
   37.1520   22.5210   31.1310 C   0  0  0  0  0  0  0  0  0  0  0  0
   38.1400   22.3520   30.3280 O   0  0  0  0  0  0  0  0  0  0  0  0
   35.8390   19.1700   31.5550 C   0  0  0  0  0  0  0  0  0  0  0  0
   35.4180   19.1350   32.8870 C   0  0  0  0  0  0  0  0  0  0  0  0
   35.5860   20.2780   33.6490 C   0  0  0  0  0  0  0  0  0  0  0  0
   36.1480   21.3800   33.0830 N   0  0  0  0  0  0  0  0  0  0  0  0
   36.5390   21.3840   31.8110 C   0  0  0  0  0  0  0  0  0  0  0  0
   36.3800   20.2840   31.0670 N   0  0  0  0  0  0  0  0  0  0  0  0
   35.6960   18.2740   30.9540 H   0  0  0  0  0  0  0  0  0  0  0  0
   34.9740   18.2520   33.3310 H   0  0  0  0  0  0  0  0  0  0  0  0
   35.2830   20.3430   34.6860 H   0  0  0  0  0  0  0  0  0  0  0  0
   38.8450   24.6900   32.2380 C   0  0  0  0  0  3  0  0  0  0  0  0
   39.2300   24.2270   33.4140 C   0  0  0  0  0  3  0  0  0  0  0  0
   40.5090   23.9600   34.0460 C   0  0  0  0  0  0  0  0  0  0  0  0
   41.3000   24.6310   33.6220 H   0  0  0  0  0  0  0  0  0  0  0  0
   40.8240   22.8930   33.8460 H   0  0  0  0  0  0  0  0  0  0  0  0
   40.5320   24.1130   35.4900 N   0  0  0  0  0  0  0  0  0  0  0  0
   41.7630   23.4570   35.9080 C   0  0  0  0  0  2  0  0  0  0  0  0
   41.5810   21.9770   36.1410 C   0  0  0  0  0  2  0  0  0  0  0  0
   40.9390   21.8730   37.5310 C   0  0  0  0  0  3  0  0  0  0  0  0
   40.6500   20.8580   37.7800 H   0  0  0  0  0  0  0  0  0  0  0  0
   39.8010   22.8750   37.5070 C   0  0  0  0  0  2  0  0  0  0  0  0
   39.4600   23.3190   36.0840 C   0  0  0  0  0  2  0  0  0  0  0  0
  1  6  1  0  0  0  0
  2  3  1  0  0  0  0
  2  1  2  0  0  0  0
  3  4  2  0  0  0  0
  4  9  1  0  0  0  0
  4  5  1  0  0  0  0
  5 10  1  0  0  0  0
  6  5  2  0  0  0  0
  6 22  1  0  0  0  0
  7  2  1  0  0  0  0
  8  3  1  0  0  0  0
 11  1  1  0  0  0  0
 11 17  1  0  0  0  0
 12 11  2  0  0  0  0
 13 14  1  0  0  0  0
 14 20  1  0  0  0  0
 14 15  2  0  0  0  0
 15 21  1  0  0  0  0
 16 15  1  0  0  0  0
 17 16  2  0  0  0  0
 18 13  2  0  0  0  0
 18 17  1  0  0  0  0
 19 13  1  0  0  0  0
 22 23  2  0  0  0  0
 23 24  1  0  0  0  0
 24 27  1  0  0  0  0
 25 24  1  0  0  0  0
 26 24  1  0  0  0  0
 27 28  1  0  0  0  0
 27 33  1  0  0  0  0
 28 29  1  0  0  0  0
 29 30  1  0  0  0  0
 30 31  1  0  0  0  0
 32 30  1  0  0  0  0
 33 32  1  0  0  0  0
M  END
>  <minimizedAffinity>
-5.20815563

$$$$

 OpenBabel03272509413D

 33 35  0  0  0  0  0  0  0  0999 V2000
   39.2660   26.0690   34.7030 C   0  0  0  0  0  0  0  0  0  0  0  0
   38.9470   27.1340   35.5620 C   0  0  0  0  0  0  0  0  0  0  0  0
   37.7740   27.8510   35.4600 C   0  0  0  0  0  0  0  0  0  0  0  0
   36.8510   27.5240   34.4710 C   0  0  0  0  0  0  0  0  0  0  0  0
   37.1720   26.4800   33.6340 C   0  0  0  0  0  0  0  0  0  0  0  0
   38.3370   25.7780   33.7470 C   0  0  0  0  0  0  0  0  0  0  0  0
   39.6360   27.4250   36.3520 H   0  0  0  0  0  0  0  0  0  0  0  0
   37.5540   28.6580   36.1350 H   0  0  0  0  0  0  0  0  0  0  0  0
   35.9310   28.0900   34.3970 H   0  0  0  0  0  0  0  0  0  0  0  0
   36.4070   26.2810   32.8880 H   0  0  0  0  0  0  0  0  0  0  0  0
   40.5240   25.3790   34.8890 C   0  0  0  0  0  0  0  0  0  0  0  0
   41.5220   25.9270   34.2940 O   0  0  0  0  0  0  0  0  0  0  0  0
   39.6220   22.6340   37.0750 C   0  0  0  0  0  0  0  0  0  0  0  0
   40.8010   21.8950   37.1980 C   0  0  0  0  0  0  0  0  0  0  0  0
   41.9210   22.3460   36.5230 C   0  0  0  0  0  0  0  0  0  0  0  0
   41.8370   23.4770   35.7730 N   0  0  0  0  0  0  0  0  0  0  0  0
   40.7000   24.1610   35.6740 C   0  0  0  0  0  0  0  0  0  0  0  0
   39.6120   23.7320   36.3240 N   0  0  0  0  0  0  0  0  0  0  0  0
   38.7440   22.2840   37.6160 H   0  0  0  0  0  0  0  0  0  0  0  0
   40.8600   20.9930   37.7960 H   0  0  0  0  0  0  0  0  0  0  0  0
   42.8780   21.8410   36.5670 H   0  0  0  0  0  0  0  0  0  0  0  0
   38.5260   24.7110   32.8020 C   0  0  0  0  0  3  0  0  0  0  0  0
   38.0700   23.4740   32.8930 C   0  0  0  0  0  3  0  0  0  0  0  0
   38.1650   22.2800   32.0740 C   0  0  0  0  0  0  0  0  0  0  0  0
   38.5930   21.4330   32.6690 H   0  0  0  0  0  0  0  0  0  0  0  0
   38.8560   22.4640   31.1990 H   0  0  0  0  0  0  0  0  0  0  0  0
   36.9130   21.8220   31.4960 N   0  0  0  0  0  0  0  0  0  0  0  0
   35.9680   21.8480   32.6020 C   0  0  0  0  0  2  0  0  0  0  0  0
   35.9800   20.5700   33.4040 C   0  0  0  0  0  2  0  0  0  0  0  0
   35.1410   19.5810   32.5830 C   0  0  0  0  0  3  0  0  0  0  0  0
   35.1580   18.5780   32.9970 H   0  0  0  0  0  0  0  0  0  0  0  0
   35.6770   19.7010   31.1700 C   0  0  0  0  0  2  0  0  0  0  0  0
   37.0290   20.4130   31.1300 C   0  0  0  0  0  2  0  0  0  0  0  0
  1 11  1  0  0  0  0
  1  2  1  0  0  0  0
  2  7  1  0  0  0  0
  3  2  2  0  0  0  0
  3  8  1  0  0  0  0
  4  3  1  0  0  0  0
  5  6  1  0  0  0  0
  5  4  2  0  0  0  0
  6  1  2  0  0  0  0
  9  4  1  0  0  0  0
 10  5  1  0  0  0  0
 11 17  1  0  0  0  0
 12 11  2  0  0  0  0
 13 14  1  0  0  0  0
 13 19  1  0  0  0  0
 14 20  1  0  0  0  0
 15 21  1  0  0  0  0
 15 14  2  0  0  0  0
 16 15  1  0  0  0  0
 17 16  2  0  0  0  0
 17 18  1  0  0  0  0
 18 13  2  0  0  0  0
 22 23  2  0  0  0  0
 22  6  1  0  0  0  0
 24 25  1  0  0  0  0
 24 23  1  0  0  0  0
 26 24  1  0  0  0  0
 27 24  1  0  0  0  0
 27 28  1  0  0  0  0
 28 29  1  0  0  0  0
 30 31  1  0  0  0  0
 30 29  1  0  0  0  0
 32 30  1  0  0  0  0
 33 32  1  0  0  0  0
 33 27  1  0  0  0  0
M  END
>  <minimizedAffinity>
-5.20692587

$$$$
