
 OpenBabel03272507003D

 33 36  0  0  0  0  0  0  0  0999 V2000
   37.2360   28.6310   31.2580 C   0  0  0  0  0  0  0  0  0  0  0  0
   36.1920   29.4900   31.5400 C   0  0  0  0  0  0  0  0  0  0  0  0
   35.5080   29.5590   32.7240 C   0  0  0  0  0  0  0  0  0  0  0  0
   35.9140   28.6930   33.6880 N   0  0  0  0  0  0  0  0  0  0  0  0
   36.9310   27.8380   33.4480 C   0  0  0  0  0  0  0  0  0  0  0  0
   37.5730   27.8110   32.2630 N   0  0  0  0  0  0  0  0  0  0  0  0
   35.8800   30.1790   30.7580 H   0  0  0  0  0  0  0  0  0  0  0  0
   34.7080   30.2490   32.8720 H   0  0  0  0  0  0  0  0  0  0  0  0
   37.4530   26.8690   34.3990 C   0  0  0  0  0  0  0  0  0  0  0  0
   37.9030   27.3710   35.6130 C   0  0  0  0  0  0  0  0  0  0  0  0
   38.3430   26.3180   36.3720 N   0  0  0  0  0  0  0  0  0  0  0  0
   38.1610   25.1890   35.6210 C   0  0  0  0  0  0  0  0  0  0  0  0
   37.6210   25.5150   34.4210 N   0  0  0  0  0  0  0  0  0  0  0  0
   37.9490   28.3940   36.0140 H   0  0  0  0  0  0  0  0  0  0  0  0
   38.7400   26.4080   37.3490 H   0  0  0  0  0  0  0  0  0  0  0  0
   38.5260   23.9450   36.1770 N   0  0  0  0  0  0  0  0  0  0  0  0
   37.5110   23.1200   36.8550 C   0  0  0  0  0  2  0  0  0  0  0  0
   37.7450   23.3190   38.3410 C   0  0  0  0  0  2  0  0  0  0  0  0
   39.2220   23.5130   38.6310 C   0  0  0  0  0  3  0  0  0  0  0  0
   39.5450   24.5570   38.5020 H   0  0  0  0  0  0  0  0  0  0  0  0
   40.0180   22.7160   37.6100 C   0  0  0  0  0  2  0  0  0  0  0  0
   39.8040   23.2840   36.2030 C   0  0  0  0  0  2  0  0  0  0  0  0
   39.3940   27.6290   28.5280 C   0  0  0  0  0  0  0  0  0  0  0  0
   39.2340   28.6000   27.5400 C   0  0  0  0  0  0  0  0  0  0  0  0
   38.3420   29.6200   27.8530 C   0  0  0  0  0  0  0  0  0  0  0  0
   37.7110   29.6110   29.0400 N   0  0  0  0  0  0  0  0  0  0  0  0
   37.9030   28.6490   29.9560 C   0  0  0  0  0  0  0  0  0  0  0  0
   38.7710   27.5960   29.7330 N   0  0  0  0  0  0  0  0  0  0  0  0
   40.0770   26.7980   28.3520 H   0  0  0  0  0  0  0  0  0  0  0  0
   38.1820   30.3970   27.1190 H   0  0  0  0  0  0  0  0  0  0  0  0
   39.9490   28.5170   26.3220 N   0  0  0  0  0  0  0  0  0  0  0  0
   39.9320   27.5490   25.8830 H   0  0  0  0  0  0  0  0  0  0  0  0
   40.4650   29.3100   25.8540 H   0  0  0  0  0  0  0  0  0  0  0  0
  1  2  2  0  0  0  0
  1  6  1  0  0  0  0
  2  3  1  0  0  0  0
  3  8  1  0  0  0  0
  3  4  2  0  0  0  0
  5  4  1  0  0  0  0
  5  9  1  0  0  0  0
  6  5  2  0  0  0  0
  7  2  1  0  0  0  0
  9 13  1  0  0  0  0
  9 10  2  0  0  0  0
 10 14  1  0  0  0  0
 10 11  1  0  0  0  0
 11 15  1  0  0  0  0
 12 16  1  0  0  0  0
 12 11  1  0  0  0  0
 13 12  2  0  0  0  0
 16 22  1  0  0  0  0
 16 17  1  0  0  0  0
 17 18  1  0  0  0  0
 18 19  1  0  0  0  0
 20 19  1  0  0  0  0
 21 19  1  0  0  0  0
 22 21  1  0  0  0  0
 23 28  1  0  0  0  0
 24 25  1  0  0  0  0
 24 23  2  0  0  0  0
 25 26  2  0  0  0  0
 26 27  1  0  0  0  0
 27  1  1  0  0  0  0
 28 27  2  0  0  0  0
 29 23  1  0  0  0  0
 30 25  1  0  0  0  0
 31 24  1  0  0  0  0
 32 31  1  0  0  0  0
 33 31  1  0  0  0  0
M  END
>  <minimizedAffinity>
-6.20151234

$$$$

 OpenBabel03272507003D

 33 36  0  0  0  0  0  0  0  0999 V2000
   35.5740   30.0110   34.1340 C   0  0  0  0  0  0  0  0  0  0  0  0
   35.5920   30.1320   32.7580 C   0  0  0  0  0  0  0  0  0  0  0  0
   36.1800   29.2580   31.8840 C   0  0  0  0  0  0  0  0  0  0  0  0
   36.7920   28.1860   32.4480 N   0  0  0  0  0  0  0  0  0  0  0  0
   36.7960   28.0340   33.7900 C   0  0  0  0  0  0  0  0  0  0  0  0
   36.2000   28.9250   34.6080 N   0  0  0  0  0  0  0  0  0  0  0  0
   35.0950   30.9960   32.3220 H   0  0  0  0  0  0  0  0  0  0  0  0
   36.1570   29.4170   30.8290 H   0  0  0  0  0  0  0  0  0  0  0  0
   37.4150   26.9310   34.5070 C   0  0  0  0  0  0  0  0  0  0  0  0
   38.3820   27.2650   35.4470 C   0  0  0  0  0  0  0  0  0  0  0  0
   38.8370   26.1070   36.0190 N   0  0  0  0  0  0  0  0  0  0  0  0
   38.1510   25.0800   35.4290 C   0  0  0  0  0  0  0  0  0  0  0  0
   37.2870   25.5720   34.5090 N   0  0  0  0  0  0  0  0  0  0  0  0
   38.7910   28.2340   35.7670 H   0  0  0  0  0  0  0  0  0  0  0  0
   39.5800   26.0620   36.7730 H   0  0  0  0  0  0  0  0  0  0  0  0
   38.4230   23.7610   35.8480 N   0  0  0  0  0  0  0  0  0  0  0  0
   37.5830   23.1350   36.8840 C   0  0  0  0  0  2  0  0  0  0  0  0
   38.3910   23.2050   38.1670 C   0  0  0  0  0  2  0  0  0  0  0  0
   39.8740   23.0690   37.8760 C   0  0  0  0  0  3  0  0  0  0  0  0
   40.3410   24.0270   37.6010 H   0  0  0  0  0  0  0  0  0  0  0  0
   40.0420   22.1750   36.6580 C   0  0  0  0  0  2  0  0  0  0  0  0
   39.4460   22.8460   35.4150 C   0  0  0  0  0  2  0  0  0  0  0  0
   35.0020   32.3380   36.8480 C   0  0  0  0  0  0  0  0  0  0  0  0
   33.7250   32.8580   36.6420 C   0  0  0  0  0  0  0  0  0  0  0  0
   33.0650   32.3740   35.5180 C   0  0  0  0  0  0  0  0  0  0  0  0
   33.6710   31.4710   34.7270 N   0  0  0  0  0  0  0  0  0  0  0  0
   34.9040   31.0030   34.9750 C   0  0  0  0  0  0  0  0  0  0  0  0
   35.6370   31.4270   36.0690 N   0  0  0  0  0  0  0  0  0  0  0  0
   35.5800   32.6730   37.7100 H   0  0  0  0  0  0  0  0  0  0  0  0
   32.0710   32.7480   35.3120 H   0  0  0  0  0  0  0  0  0  0  0  0
   33.1770   33.8070   37.5370 N   0  0  0  0  0  0  0  0  0  0  0  0
   33.8490   34.5900   37.7910 H   0  0  0  0  0  0  0  0  0  0  0  0
   32.2020   33.7830   37.9400 H   0  0  0  0  0  0  0  0  0  0  0  0
  1  6  1  0  0  0  0
  1 27  1  0  0  0  0
  2  1  2  0  0  0  0
  3  4  2  0  0  0  0
  3  2  1  0  0  0  0
  4  5  1  0  0  0  0
  5  9  1  0  0  0  0
  5  6  2  0  0  0  0
  7  2  1  0  0  0  0
  8  3  1  0  0  0  0
  9 13  1  0  0  0  0
  9 10  2  0  0  0  0
 10 14  1  0  0  0  0
 10 11  1  0  0  0  0
 11 15  1  0  0  0  0
 12 16  1  0  0  0  0
 12 11  1  0  0  0  0
 13 12  2  0  0  0  0
 16 17  1  0  0  0  0
 17 18  1  0  0  0  0
 19 18  1  0  0  0  0
 20 19  1  0  0  0  0
 21 19  1  0  0  0  0
 22 16  1  0  0  0  0
 22 21  1  0  0  0  0
 23 29  1  0  0  0  0
 24 23  1  0  0  0  0
 24 31  1  0  0  0  0
 25 24  2  0  0  0  0
 26 27  2  0  0  0  0
 26 25  1  0  0  0  0
 27 28  1  0  0  0  0
 28 23  2  0  0  0  0
 30 25  1  0  0  0  0
 31 32  1  0  0  0  0
 31 33  1  0  0  0  0
M  END
>  <minimizedAffinity>
-6.03113651

$$$$

 OpenBabel03272507003D

 33 36  0  0  0  0  0  0  0  0999 V2000
   37.0060   23.5970   31.3120 C   0  0  0  0  0  0  0  0  0  0  0  0
   38.0620   23.7560   30.4360 C   0  0  0  0  0  0  0  0  0  0  0  0
   38.7300   24.9250   30.1890 C   0  0  0  0  0  0  0  0  0  0  0  0
   38.2950   26.0080   30.8830 N   0  0  0  0  0  0  0  0  0  0  0  0
   37.2660   25.8910   31.7480 C   0  0  0  0  0  0  0  0  0  0  0  0
   36.6410   24.7150   31.9560 N   0  0  0  0  0  0  0  0  0  0  0  0
   38.3990   22.8780   29.8890 H   0  0  0  0  0  0  0  0  0  0  0  0
   39.5380   24.9750   29.4940 H   0  0  0  0  0  0  0  0  0  0  0  0
   36.7140   26.9750   32.5460 C   0  0  0  0  0  0  0  0  0  0  0  0
   37.2470   27.1430   33.8180 C   0  0  0  0  0  0  0  0  0  0  0  0
   36.6170   28.2080   34.4060 N   0  0  0  0  0  0  0  0  0  0  0  0
   35.7080   28.6790   33.4970 C   0  0  0  0  0  0  0  0  0  0  0  0
   35.7620   27.9340   32.3650 N   0  0  0  0  0  0  0  0  0  0  0  0
   38.0300   26.5980   34.3650 H   0  0  0  0  0  0  0  0  0  0  0  0
   36.8250   28.5640   35.3810 H   0  0  0  0  0  0  0  0  0  0  0  0
   34.9210   29.7950   33.8480 N   0  0  0  0  0  0  0  0  0  0  0  0
   35.3500   31.1470   33.4530 C   0  0  0  0  0  2  0  0  0  0  0  0
   35.9470   31.7710   34.7000 C   0  0  0  0  0  2  0  0  0  0  0  0
   35.2270   31.2830   35.9430 C   0  0  0  0  0  3  0  0  0  0  0  0
   35.6180   30.3220   36.3090 H   0  0  0  0  0  0  0  0  0  0  0  0
   33.7750   31.0130   35.5790 C   0  0  0  0  0  2  0  0  0  0  0  0
   33.6810   29.8580   34.5760 C   0  0  0  0  0  2  0  0  0  0  0  0
   36.3460   20.0520   30.9840 C   0  0  0  0  0  0  0  0  0  0  0  0
   35.2310   19.7970   31.7810 C   0  0  0  0  0  0  0  0  0  0  0  0
   34.7140   20.9030   32.4460 C   0  0  0  0  0  0  0  0  0  0  0  0
   35.2960   22.1060   32.2880 N   0  0  0  0  0  0  0  0  0  0  0  0
   36.3690   22.2940   31.5050 C   0  0  0  0  0  0  0  0  0  0  0  0
   36.9510   21.2530   30.8060 N   0  0  0  0  0  0  0  0  0  0  0  0
   36.8050   19.2310   30.4330 H   0  0  0  0  0  0  0  0  0  0  0  0
   33.8500   20.7580   33.0790 H   0  0  0  0  0  0  0  0  0  0  0  0
   34.6940   18.4910   31.8770 N   0  0  0  0  0  0  0  0  0  0  0  0
   35.4290   17.7390   32.0320 H   0  0  0  0  0  0  0  0  0  0  0  0
   33.6720   18.2380   31.8080 H   0  0  0  0  0  0  0  0  0  0  0  0
  1 27  1  0  0  0  0
  1  6  1  0  0  0  0
  2  1  2  0  0  0  0
  3  2  1  0  0  0  0
  3  4  2  0  0  0  0
  4  5  1  0  0  0  0
  5  6  2  0  0  0  0
  5  9  1  0  0  0  0
  7  2  1  0  0  0  0
  8  3  1  0  0  0  0
  9 10  2  0  0  0  0
 10 14  1  0  0  0  0
 10 11  1  0  0  0  0
 11 15  1  0  0  0  0
 12 16  1  0  0  0  0
 12 11  1  0  0  0  0
 13  9  1  0  0  0  0
 13 12  2  0  0  0  0
 16 22  1  0  0  0  0
 17 16  1  0  0  0  0
 17 18  1  0  0  0  0
 18 19  1  0  0  0  0
 19 20  1  0  0  0  0
 21 19  1  0  0  0  0
 22 21  1  0  0  0  0
 23 24  1  0  0  0  0
 24 31  1  0  0  0  0
 24 25  2  0  0  0  0
 25 30  1  0  0  0  0
 26 25  1  0  0  0  0
 27 26  2  0  0  0  0
 28 23  2  0  0  0  0
 28 27  1  0  0  0  0
 29 23  1  0  0  0  0
 31 32  1  0  0  0  0
 33 31  1  0  0  0  0
M  END
>  <minimizedAffinity>
-6.01267576

$$$$

 OpenBabel03272507003D

 33 36  0  0  0  0  0  0  0  0999 V2000
   35.5910   29.0480   32.4810 C   0  0  0  0  0  0  0  0  0  0  0  0
   36.3180   29.2730   31.3290 C   0  0  0  0  0  0  0  0  0  0  0  0
   37.5150   28.6920   31.0100 C   0  0  0  0  0  0  0  0  0  0  0  0
   38.0080   27.8210   31.9270 N   0  0  0  0  0  0  0  0  0  0  0  0
   37.3260   27.5760   33.0660 C   0  0  0  0  0  0  0  0  0  0  0  0
   36.1480   28.1750   33.3320 N   0  0  0  0  0  0  0  0  0  0  0  0
   35.9080   29.9730   30.6030 H   0  0  0  0  0  0  0  0  0  0  0  0
   38.0240   28.9150   30.0990 H   0  0  0  0  0  0  0  0  0  0  0  0
   37.7500   26.6650   34.1180 C   0  0  0  0  0  0  0  0  0  0  0  0
   38.0300   27.2330   35.3550 C   0  0  0  0  0  0  0  0  0  0  0  0
   38.3980   26.2280   36.2100 N   0  0  0  0  0  0  0  0  0  0  0  0
   38.3430   25.0620   35.4950 C   0  0  0  0  0  0  0  0  0  0  0  0
   37.9500   25.3200   34.2230 N   0  0  0  0  0  0  0  0  0  0  0  0
   37.9970   28.2720   35.7100 H   0  0  0  0  0  0  0  0  0  0  0  0
   38.6670   26.3720   37.2240 H   0  0  0  0  0  0  0  0  0  0  0  0
   38.6680   23.8560   36.1490 N   0  0  0  0  0  0  0  0  0  0  0  0
   37.5990   23.0280   36.7320 C   0  0  0  0  0  2  0  0  0  0  0  0
   37.6370   23.2970   38.2250 C   0  0  0  0  0  2  0  0  0  0  0  0
   39.0600   23.5500   38.6880 C   0  0  0  0  0  3  0  0  0  0  0  0
   39.3690   24.5980   38.5520 H   0  0  0  0  0  0  0  0  0  0  0  0
   40.0000   22.7370   37.8120 C   0  0  0  0  0  2  0  0  0  0  0  0
   39.9500   23.2380   36.3650 C   0  0  0  0  0  2  0  0  0  0  0  0
   32.5660   30.1110   34.1650 C   0  0  0  0  0  0  0  0  0  0  0  0
   31.8880   30.9210   33.2550 C   0  0  0  0  0  0  0  0  0  0  0  0
   32.5230   31.0920   32.0300 C   0  0  0  0  0  0  0  0  0  0  0  0
   33.7040   30.4910   31.8020 N   0  0  0  0  0  0  0  0  0  0  0  0
   34.3130   29.7200   32.7160 C   0  0  0  0  0  0  0  0  0  0  0  0
   33.7570   29.4930   33.9620 N   0  0  0  0  0  0  0  0  0  0  0  0
   32.1290   29.9330   35.1480 H   0  0  0  0  0  0  0  0  0  0  0  0
   32.0380   31.7130   31.2890 H   0  0  0  0  0  0  0  0  0  0  0  0
   30.6460   31.5060   33.5940 N   0  0  0  0  0  0  0  0  0  0  0  0
   30.6360   31.9580   34.5560 H   0  0  0  0  0  0  0  0  0  0  0  0
   29.7840   31.5200   32.9850 H   0  0  0  0  0  0  0  0  0  0  0  0
  1 27  1  0  0  0  0
  1  6  1  0  0  0  0
  2  1  2  0  0  0  0
  3  2  1  0  0  0  0
  3  4  2  0  0  0  0
  4  5  1  0  0  0  0
  5  6  2  0  0  0  0
  5  9  1  0  0  0  0
  7  2  1  0  0  0  0
  8  3  1  0  0  0  0
  9 13  1  0  0  0  0
  9 10  2  0  0  0  0
 10 14  1  0  0  0  0
 10 11  1  0  0  0  0
 11 15  1  0  0  0  0
 12 16  1  0  0  0  0
 12 11  1  0  0  0  0
 13 12  2  0  0  0  0
 16 22  1  0  0  0  0
 16 17  1  0  0  0  0
 17 18  1  0  0  0  0
 18 19  1  0  0  0  0
 20 19  1  0  0  0  0
 21 19  1  0  0  0  0
 22 21  1  0  0  0  0
 23 29  1  0  0  0  0
 24 31  1  0  0  0  0
 24 23  2  0  0  0  0
 25 24  1  0  0  0  0
 26 25  2  0  0  0  0
 26 27  1  0  0  0  0
 27 28  2  0  0  0  0
 28 23  1  0  0  0  0
 30 25  1  0  0  0  0
 31 32  1  0  0  0  0
 33 31  1  0  0  0  0
M  END
>  <minimizedAffinity>
-5.94836235

$$$$

 OpenBabel03272507003D

 33 36  0  0  0  0  0  0  0  0999 V2000
   37.9760   24.7650   33.7210 C   0  0  0  0  0  0  0  0  0  0  0  0
   37.8100   24.2820   32.4380 C   0  0  0  0  0  0  0  0  0  0  0  0
   37.2080   24.9460   31.4030 C   0  0  0  0  0  0  0  0  0  0  0  0
   36.7420   26.1870   31.6940 N   0  0  0  0  0  0  0  0  0  0  0  0
   36.8860   26.6920   32.9380 C   0  0  0  0  0  0  0  0  0  0  0  0
   37.4890   25.9970   33.9220 N   0  0  0  0  0  0  0  0  0  0  0  0
   38.1910   23.2860   32.2210 H   0  0  0  0  0  0  0  0  0  0  0  0
   37.1120   24.5090   30.4350 H   0  0  0  0  0  0  0  0  0  0  0  0
   36.4310   28.0060   33.3670 C   0  0  0  0  0  0  0  0  0  0  0  0
   36.2050   28.9430   32.3660 C   0  0  0  0  0  0  0  0  0  0  0  0
   35.7760   30.1010   32.9580 N   0  0  0  0  0  0  0  0  0  0  0  0
   35.7440   29.8670   34.3060 C   0  0  0  0  0  0  0  0  0  0  0  0
   36.1410   28.5960   34.5620 N   0  0  0  0  0  0  0  0  0  0  0  0
   36.3090   28.8890   31.2730 H   0  0  0  0  0  0  0  0  0  0  0  0
   35.5270   30.9860   32.4320 H   0  0  0  0  0  0  0  0  0  0  0  0
   35.3210   30.9070   35.1600 N   0  0  0  0  0  0  0  0  0  0  0  0
   33.9130   30.9750   35.5880 C   0  0  0  0  0  2  0  0  0  0  0  0
   33.2750   32.0550   34.7350 C   0  0  0  0  0  2  0  0  0  0  0  0
   34.2730   33.1560   34.4270 C   0  0  0  0  0  3  0  0  0  0  0  0
   34.9030   32.9240   33.5550 H   0  0  0  0  0  0  0  0  0  0  0  0
   35.2340   33.2710   35.5990 C   0  0  0  0  0  2  0  0  0  0  0  0
   36.0700   31.9940   35.7330 C   0  0  0  0  0  2  0  0  0  0  0  0
   38.8560   23.4820   36.9910 C   0  0  0  0  0  0  0  0  0  0  0  0
   39.8620   22.5410   36.7730 C   0  0  0  0  0  0  0  0  0  0  0  0
   40.2240   22.3610   35.4430 C   0  0  0  0  0  0  0  0  0  0  0  0
   39.6100   23.0750   34.4830 N   0  0  0  0  0  0  0  0  0  0  0  0
   38.6470   23.9700   34.7510 C   0  0  0  0  0  0  0  0  0  0  0  0
   38.2210   24.2160   36.0430 N   0  0  0  0  0  0  0  0  0  0  0  0
   38.5200   23.6750   38.0100 H   0  0  0  0  0  0  0  0  0  0  0  0
   40.9990   21.6410   35.2200 H   0  0  0  0  0  0  0  0  0  0  0  0
   40.4460   21.8430   37.8560 N   0  0  0  0  0  0  0  0  0  0  0  0
   39.7360   21.4590   38.5480 H   0  0  0  0  0  0  0  0  0  0  0  0
   41.4800   21.6900   38.0060 H   0  0  0  0  0  0  0  0  0  0  0  0
  1  6  1  0  0  0  0
  1 27  1  0  0  0  0
  2  1  2  0  0  0  0
  3  4  2  0  0  0  0
  3  2  1  0  0  0  0
  4  5  1  0  0  0  0
  5  9  1  0  0  0  0
  5  6  2  0  0  0  0
  7  2  1  0  0  0  0
  8  3  1  0  0  0  0
  9 13  1  0  0  0  0
 10 11  1  0  0  0  0
 10  9  2  0  0  0  0
 11 12  1  0  0  0  0
 12 13  2  0  0  0  0
 12 16  1  0  0  0  0
 14 10  1  0  0  0  0
 15 11  1  0  0  0  0
 16 17  1  0  0  0  0
 16 22  1  0  0  0  0
 18 17  1  0  0  0  0
 19 18  1  0  0  0  0
 19 21  1  0  0  0  0
 20 19  1  0  0  0  0
 21 22  1  0  0  0  0
 23 29  1  0  0  0  0
 24 23  1  0  0  0  0
 24 31  1  0  0  0  0
 25 24  2  0  0  0  0
 26 27  2  0  0  0  0
 26 25  1  0  0  0  0
 27 28  1  0  0  0  0
 28 23  2  0  0  0  0
 30 25  1  0  0  0  0
 31 33  1  0  0  0  0
 31 32  1  0  0  0  0
M  END
>  <minimizedAffinity>
-5.88282394

$$$$

 OpenBabel03272507003D

 33 36  0  0  0  0  0  0  0  0999 V2000
   35.6230   29.2170   34.1220 C   0  0  0  0  0  0  0  0  0  0  0  0
   35.2810   29.1720   32.7850 C   0  0  0  0  0  0  0  0  0  0  0  0
   35.7450   28.2670   31.8690 C   0  0  0  0  0  0  0  0  0  0  0  0
   36.6180   27.3430   32.3460 N   0  0  0  0  0  0  0  0  0  0  0  0
   36.9760   27.3570   33.6480 C   0  0  0  0  0  0  0  0  0  0  0  0
   36.4880   28.2710   34.5100 N   0  0  0  0  0  0  0  0  0  0  0  0
   34.5790   29.9180   32.4180 H   0  0  0  0  0  0  0  0  0  0  0  0
   35.4390   28.2920   30.8470 H   0  0  0  0  0  0  0  0  0  0  0  0
   37.8980   26.4210   34.2730 C   0  0  0  0  0  0  0  0  0  0  0  0
   37.8360   26.3190   35.6580 C   0  0  0  0  0  0  0  0  0  0  0  0
   38.7610   25.3910   36.0570 N   0  0  0  0  0  0  0  0  0  0  0  0
   39.3790   24.9370   34.9240 C   0  0  0  0  0  0  0  0  0  0  0  0
   38.8610   25.5590   33.8360 N   0  0  0  0  0  0  0  0  0  0  0  0
   37.2070   26.8260   36.4040 H   0  0  0  0  0  0  0  0  0  0  0  0
   38.9310   25.1100   37.0640 H   0  0  0  0  0  0  0  0  0  0  0  0
   40.3810   23.9530   35.0520 N   0  0  0  0  0  0  0  0  0  0  0  0
   40.0340   22.5300   34.8970 C   0  0  0  0  0  2  0  0  0  0  0  0
   39.9640   21.9680   36.3050 C   0  0  0  0  0  2  0  0  0  0  0  0
   40.9770   22.6490   37.2060 C   0  0  0  0  0  3  0  0  0  0  0  0
   40.5990   23.5920   37.6290 H   0  0  0  0  0  0  0  0  0  0  0  0
   42.1800   23.0400   36.3630 C   0  0  0  0  0  2  0  0  0  0  0  0
   41.7870   24.0960   35.3250 C   0  0  0  0  0  2  0  0  0  0  0  0
   35.4510   31.9770   36.4600 C   0  0  0  0  0  0  0  0  0  0  0  0
   34.0970   32.1530   36.7430 C   0  0  0  0  0  0  0  0  0  0  0  0
   33.2380   31.2780   36.0860 C   0  0  0  0  0  0  0  0  0  0  0  0
   33.7410   30.3520   35.2510 N   0  0  0  0  0  0  0  0  0  0  0  0
   35.0570   30.2270   35.0170 C   0  0  0  0  0  0  0  0  0  0  0  0
   35.9850   31.0520   35.6230 N   0  0  0  0  0  0  0  0  0  0  0  0
   36.1830   32.6280   36.9380 H   0  0  0  0  0  0  0  0  0  0  0  0
   32.1770   31.3740   36.2710 H   0  0  0  0  0  0  0  0  0  0  0  0
   33.6700   33.1590   37.6400 N   0  0  0  0  0  0  0  0  0  0  0  0
   34.1290   34.1030   37.4720 H   0  0  0  0  0  0  0  0  0  0  0  0
   32.9670   33.0350   38.4180 H   0  0  0  0  0  0  0  0  0  0  0  0
  1  6  1  0  0  0  0
  1 27  1  0  0  0  0
  2  1  2  0  0  0  0
  3  4  2  0  0  0  0
  3  2  1  0  0  0  0
  4  5  1  0  0  0  0
  5  9  1  0  0  0  0
  5  6  2  0  0  0  0
  7  2  1  0  0  0  0
  8  3  1  0  0  0  0
  9 10  2  0  0  0  0
 10 11  1  0  0  0  0
 10 14  1  0  0  0  0
 11 15  1  0  0  0  0
 12 16  1  0  0  0  0
 12 11  1  0  0  0  0
 13  9  1  0  0  0  0
 13 12  2  0  0  0  0
 16 22  1  0  0  0  0
 17 16  1  0  0  0  0
 17 18  1  0  0  0  0
 18 19  1  0  0  0  0
 19 20  1  0  0  0  0
 21 19  1  0  0  0  0
 22 21  1  0  0  0  0
 23 24  1  0  0  0  0
 23 29  1  0  0  0  0
 24 31  1  0  0  0  0
 25 30  1  0  0  0  0
 25 24  2  0  0  0  0
 26 25  1  0  0  0  0
 27 26  2  0  0  0  0
 27 28  1  0  0  0  0
 28 23  2  0  0  0  0
 31 33  1  0  0  0  0
 32 31  1  0  0  0  0
M  END
>  <minimizedAffinity>
-5.86454487

$$$$

 OpenBabel03272507003D

 33 36  0  0  0  0  0  0  0  0999 V2000
   37.6700   26.0120   34.4100 C   0  0  0  0  0  0  0  0  0  0  0  0
   37.8960   25.7690   33.0690 C   0  0  0  0  0  0  0  0  0  0  0  0
   37.4870   26.5610   32.0310 C   0  0  0  0  0  0  0  0  0  0  0  0
   36.8000   27.6790   32.3800 N   0  0  0  0  0  0  0  0  0  0  0  0
   36.5600   27.9490   33.6810 C   0  0  0  0  0  0  0  0  0  0  0  0
   36.9860   27.1350   34.6670 N   0  0  0  0  0  0  0  0  0  0  0  0
   38.4500   24.8700   32.8060 H   0  0  0  0  0  0  0  0  0  0  0  0
   37.6950   26.3100   31.0150 H   0  0  0  0  0  0  0  0  0  0  0  0
   35.8390   29.1110   34.1760 C   0  0  0  0  0  0  0  0  0  0  0  0
   34.5230   29.2530   33.7540 C   0  0  0  0  0  0  0  0  0  0  0  0
   34.0120   30.3870   34.3270 N   0  0  0  0  0  0  0  0  0  0  0  0
   35.0120   30.9280   35.0900 C   0  0  0  0  0  0  0  0  0  0  0  0
   36.1250   30.1590   35.0020 N   0  0  0  0  0  0  0  0  0  0  0  0
   33.8940   28.6410   33.0920 H   0  0  0  0  0  0  0  0  0  0  0  0
   33.0250   30.7410   34.1810 H   0  0  0  0  0  0  0  0  0  0  0  0
   34.7460   32.1120   35.8080 N   0  0  0  0  0  0  0  0  0  0  0  0
   34.3210   32.0350   37.2160 C   0  0  0  0  0  2  0  0  0  0  0  0
   32.8210   32.2640   37.2070 C   0  0  0  0  0  2  0  0  0  0  0  0
   32.4320   33.2320   36.1050 C   0  0  0  0  0  3  0  0  0  0  0  0
   32.3010   32.7350   35.1320 H   0  0  0  0  0  0  0  0  0  0  0  0
   33.5760   34.2130   35.9060 C   0  0  0  0  0  2  0  0  0  0  0  0
   34.8200   33.4860   35.3840 C   0  0  0  0  0  2  0  0  0  0  0  0
   39.8040   23.6220   36.0980 C   0  0  0  0  0  0  0  0  0  0  0  0
   39.1730   23.3350   37.3080 C   0  0  0  0  0  0  0  0  0  0  0  0
   37.9750   24.0080   37.5230 C   0  0  0  0  0  0  0  0  0  0  0  0
   37.5130   24.8610   36.5900 N   0  0  0  0  0  0  0  0  0  0  0  0
   38.1640   25.0980   35.4400 C   0  0  0  0  0  0  0  0  0  0  0  0
   39.3610   24.4760   35.1400 N   0  0  0  0  0  0  0  0  0  0  0  0
   40.7490   23.1320   35.8620 H   0  0  0  0  0  0  0  0  0  0  0  0
   37.4460   23.8220   38.4470 H   0  0  0  0  0  0  0  0  0  0  0  0
   39.7430   22.4190   38.2220 N   0  0  0  0  0  0  0  0  0  0  0  0
   40.7820   22.5700   38.3840 H   0  0  0  0  0  0  0  0  0  0  0  0
   39.2280   21.6440   38.7200 H   0  0  0  0  0  0  0  0  0  0  0  0
  1  6  1  0  0  0  0
  1 27  1  0  0  0  0
  2  1  2  0  0  0  0
  3  4  2  0  0  0  0
  3  2  1  0  0  0  0
  4  5  1  0  0  0  0
  5  9  1  0  0  0  0
  5  6  2  0  0  0  0
  7  2  1  0  0  0  0
  8  3  1  0  0  0  0
  9 13  1  0  0  0  0
 10  9  2  0  0  0  0
 10 11  1  0  0  0  0
 11 12  1  0  0  0  0
 12 16  1  0  0  0  0
 13 12  2  0  0  0  0
 14 10  1  0  0  0  0
 15 11  1  0  0  0  0
 16 17  1  0  0  0  0
 18 17  1  0  0  0  0
 19 18  1  0  0  0  0
 20 19  1  0  0  0  0
 21 19  1  0  0  0  0
 22 16  1  0  0  0  0
 22 21  1  0  0  0  0
 23 24  1  0  0  0  0
 24 25  2  0  0  0  0
 24 31  1  0  0  0  0
 25 30  1  0  0  0  0
 26 25  1  0  0  0  0
 27 26  2  0  0  0  0
 28 27  1  0  0  0  0
 28 23  2  0  0  0  0
 29 23  1  0  0  0  0
 31 32  1  0  0  0  0
 31 33  1  0  0  0  0
M  END
>  <minimizedAffinity>
-5.83460236

$$$$

 OpenBabel03272507003D

 33 36  0  0  0  0  0  0  0  0999 V2000
   35.6610   29.2480   32.7960 C   0  0  0  0  0  0  0  0  0  0  0  0
   36.1500   29.9360   31.7030 C   0  0  0  0  0  0  0  0  0  0  0  0
   36.6470   29.3750   30.5580 C   0  0  0  0  0  0  0  0  0  0  0  0
   36.6470   28.0180   30.5220 N   0  0  0  0  0  0  0  0  0  0  0  0
   36.1770   27.3110   31.5720 C   0  0  0  0  0  0  0  0  0  0  0  0
   35.6970   27.9130   32.6770 N   0  0  0  0  0  0  0  0  0  0  0  0
   36.1410   31.0240   31.7480 H   0  0  0  0  0  0  0  0  0  0  0  0
   37.0110   29.9710   29.7520 H   0  0  0  0  0  0  0  0  0  0  0  0
   36.1240   25.8590   31.6480 C   0  0  0  0  0  0  0  0  0  0  0  0
   35.0650   25.2400   30.9960 C   0  0  0  0  0  0  0  0  0  0  0  0
   35.1910   23.8870   31.1690 N   0  0  0  0  0  0  0  0  0  0  0  0
   36.3170   23.6890   31.9210 C   0  0  0  0  0  0  0  0  0  0  0  0
   36.8890   24.8820   32.2160 N   0  0  0  0  0  0  0  0  0  0  0  0
   34.2240   25.6440   30.4150 H   0  0  0  0  0  0  0  0  0  0  0  0
   34.5200   23.1680   30.7770 H   0  0  0  0  0  0  0  0  0  0  0  0
   36.6890   22.3670   32.2400 N   0  0  0  0  0  0  0  0  0  0  0  0
   37.6660   21.6580   31.3960 C   0  0  0  0  0  2  0  0  0  0  0  0
   36.8540   20.7170   30.5270 C   0  0  0  0  0  2  0  0  0  0  0  0
   35.6370   20.2080   31.2780 C   0  0  0  0  0  3  0  0  0  0  0  0
   34.7840   20.9010   31.2200 H   0  0  0  0  0  0  0  0  0  0  0  0
   35.9880   20.1230   32.7550 C   0  0  0  0  0  2  0  0  0  0  0  0
   36.2580   21.5210   33.3220 C   0  0  0  0  0  2  0  0  0  0  0  0
   33.3220   30.4310   35.2950 C   0  0  0  0  0  0  0  0  0  0  0  0
   34.0580   31.2560   36.1450 C   0  0  0  0  0  0  0  0  0  0  0  0
   35.4040   31.3860   35.8220 C   0  0  0  0  0  0  0  0  0  0  0  0
   35.8990   30.7350   34.7540 N   0  0  0  0  0  0  0  0  0  0  0  0
   35.1430   29.9530   33.9690 C   0  0  0  0  0  0  0  0  0  0  0  0
   33.7950   29.7630   34.2120 N   0  0  0  0  0  0  0  0  0  0  0  0
   32.2600   30.2810   35.4870 H   0  0  0  0  0  0  0  0  0  0  0  0
   36.0190   32.0150   36.4510 H   0  0  0  0  0  0  0  0  0  0  0  0
   33.4390   31.8980   37.2430 N   0  0  0  0  0  0  0  0  0  0  0  0
   32.8150   31.2560   37.8150 H   0  0  0  0  0  0  0  0  0  0  0  0
   33.5560   32.9130   37.5100 H   0  0  0  0  0  0  0  0  0  0  0  0
  1 27  1  0  0  0  0
  2  7  1  0  0  0  0
  2  1  2  0  0  0  0
  3  2  1  0  0  0  0
  4  3  2  0  0  0  0
  4  5  1  0  0  0  0
  5  9  1  0  0  0  0
  5  6  2  0  0  0  0
  6  1  1  0  0  0  0
  8  3  1  0  0  0  0
  9 13  1  0  0  0  0
 10 11  1  0  0  0  0
 10  9  2  0  0  0  0
 11 12  1  0  0  0  0
 12 13  2  0  0  0  0
 12 16  1  0  0  0  0
 14 10  1  0  0  0  0
 15 11  1  0  0  0  0
 16 22  1  0  0  0  0
 17 16  1  0  0  0  0
 18 19  1  0  0  0  0
 18 17  1  0  0  0  0
 19 21  1  0  0  0  0
 20 19  1  0  0  0  0
 21 22  1  0  0  0  0
 23 29  1  0  0  0  0
 23 24  1  0  0  0  0
 24 31  1  0  0  0  0
 25 24  2  0  0  0  0
 25 30  1  0  0  0  0
 26 25  1  0  0  0  0
 27 28  1  0  0  0  0
 27 26  2  0  0  0  0
 28 23  2  0  0  0  0
 31 33  1  0  0  0  0
 31 32  1  0  0  0  0
M  END
>  <minimizedAffinity>
-5.72626591

$$$$

 OpenBabel03272507003D

 33 36  0  0  0  0  0  0  0  0999 V2000
   39.9340   23.0410   36.8240 C   0  0  0  0  0  0  0  0  0  0  0  0
   39.3190   23.0190   38.0600 C   0  0  0  0  0  0  0  0  0  0  0  0
   38.3070   23.8450   38.4680 C   0  0  0  0  0  0  0  0  0  0  0  0
   37.8900   24.7580   37.5540 N   0  0  0  0  0  0  0  0  0  0  0  0
   38.4680   24.8110   36.3340 C   0  0  0  0  0  0  0  0  0  0  0  0
   39.4620   23.9720   35.9820 N   0  0  0  0  0  0  0  0  0  0  0  0
   39.6640   22.2800   38.7810 H   0  0  0  0  0  0  0  0  0  0  0  0
   37.8790   23.7730   39.4420 H   0  0  0  0  0  0  0  0  0  0  0  0
   38.1070   25.7400   35.2750 C   0  0  0  0  0  0  0  0  0  0  0  0
   39.1530   26.2620   34.5230 C   0  0  0  0  0  0  0  0  0  0  0  0
   38.6210   27.0990   33.5790 N   0  0  0  0  0  0  0  0  0  0  0  0
   37.2650   27.0840   33.7580 C   0  0  0  0  0  0  0  0  0  0  0  0
   36.9450   26.2620   34.7880 N   0  0  0  0  0  0  0  0  0  0  0  0
   40.2410   26.1090   34.5740 H   0  0  0  0  0  0  0  0  0  0  0  0
   39.1910   27.6350   32.8640 H   0  0  0  0  0  0  0  0  0  0  0  0
   36.4640   27.8640   32.8980 N   0  0  0  0  0  0  0  0  0  0  0  0
   35.8640   27.2500   31.7010 C   0  0  0  0  0  2  0  0  0  0  0  0
   36.7240   27.6980   30.5330 C   0  0  0  0  0  2  0  0  0  0  0  0
   37.2610   29.0980   30.7680 C   0  0  0  0  0  3  0  0  0  0  0  0
   38.1810   29.1030   31.3700 H   0  0  0  0  0  0  0  0  0  0  0  0
   36.2390   29.8700   31.5880 C   0  0  0  0  0  2  0  0  0  0  0  0
   36.0960   29.2530   32.9830 C   0  0  0  0  0  2  0  0  0  0  0  0
   42.2940   21.1380   34.8450 C   0  0  0  0  0  0  0  0  0  0  0  0
   42.9940   20.3400   35.7490 C   0  0  0  0  0  0  0  0  0  0  0  0
   42.6210   20.4900   37.0810 C   0  0  0  0  0  0  0  0  0  0  0  0
   41.6470   21.3590   37.4050 N   0  0  0  0  0  0  0  0  0  0  0  0
   41.0040   22.1010   36.4910 C   0  0  0  0  0  0  0  0  0  0  0  0
   41.3080   22.0200   35.1440 N   0  0  0  0  0  0  0  0  0  0  0  0
   42.5340   21.0740   33.7830 H   0  0  0  0  0  0  0  0  0  0  0  0
   43.1350   19.8950   37.8220 H   0  0  0  0  0  0  0  0  0  0  0  0
   44.0030   19.4550   35.3030 N   0  0  0  0  0  0  0  0  0  0  0  0
   44.6790   19.8940   34.6110 H   0  0  0  0  0  0  0  0  0  0  0  0
   44.1160   18.4480   35.6000 H   0  0  0  0  0  0  0  0  0  0  0  0
  1  2  1  0  0  0  0
  2  3  2  0  0  0  0
  2  7  1  0  0  0  0
  3  8  1  0  0  0  0
  4  3  1  0  0  0  0
  5  4  2  0  0  0  0
  6  5  1  0  0  0  0
  6  1  2  0  0  0  0
  9  5  1  0  0  0  0
 10 14  1  0  0  0  0
 10  9  2  0  0  0  0
 11 12  1  0  0  0  0
 11 10  1  0  0  0  0
 12 13  2  0  0  0  0
 13  9  1  0  0  0  0
 15 11  1  0  0  0  0
 16 22  1  0  0  0  0
 16 12  1  0  0  0  0
 17 16  1  0  0  0  0
 18 19  1  0  0  0  0
 18 17  1  0  0  0  0
 19 20  1  0  0  0  0
 19 21  1  0  0  0  0
 21 22  1  0  0  0  0
 23 28  2  0  0  0  0
 23 24  1  0  0  0  0
 24 25  2  0  0  0  0
 25 26  1  0  0  0  0
 25 30  1  0  0  0  0
 27  1  1  0  0  0  0
 27 26  2  0  0  0  0
 28 27  1  0  0  0  0
 29 23  1  0  0  0  0
 31 33  1  0  0  0  0
 31 24  1  0  0  0  0
 32 31  1  0  0  0  0
M  END
>  <minimizedAffinity>
-5.70470572

$$$$
