
 OpenBabel03272509123D

 38 41  0  0  1  0  0  0  0  0999 V2000
   35.3700   30.2530   46.6860 C   0  0  0  0  0  0  0  0  0  0  0  0
   36.6540   30.8650   46.6970 C   0  0  0  0  0  0  0  0  0  0  0  0
   37.3830   30.8290   45.5030 C   0  0  0  0  0  0  0  0  0  0  0  0
   36.8340   30.2230   44.4140 N   0  0  0  0  0  0  0  0  0  0  0  0
   35.6170   29.6560   44.4460 C   0  0  0  0  0  0  0  0  0  0  0  0
   34.8850   29.6720   45.5870 N   0  0  0  0  0  0  0  0  0  0  0  0
   34.7220   30.2250   47.5460 H   0  0  0  0  0  0  0  0  0  0  0  0
   35.2990   29.2030   43.5010 H   0  0  0  0  0  0  0  0  0  0  0  0
   37.0350   31.4300   47.9340 N   0  0  0  0  0  0  0  0  0  0  0  0
   38.0810   32.3620   48.4280 C   0  0  0  0  0  0  0  0  0  0  0  0
   38.6500   31.5860   49.5970 C   0  0  0  0  0  0  0  0  0  0  0  0
   37.4450   30.8520   50.1660 C   0  0  0  0  0  0  0  0  0  0  0  0
   36.3430   31.1410   49.1730 C   0  0  2  0  0  0  0  0  0  0  0  0
   38.8280   32.5370   47.6300 H   0  0  0  0  0  0  0  0  0  0  0  0
   37.6150   33.3110   48.7560 H   0  0  0  0  0  0  0  0  0  0  0  0
   39.4580   30.9120   49.2570 H   0  0  0  0  0  0  0  0  0  0  0  0
   39.0270   32.2540   50.3760 H   0  0  0  0  0  0  0  0  0  0  0  0
   37.7340   29.7740   50.1620 H   0  0  0  0  0  0  0  0  0  0  0  0
   37.2110   31.2000   51.1950 H   0  0  0  0  0  0  0  0  0  0  0  0
   35.8760   32.0870   49.5120 H   0  0  0  0  0  0  0  0  0  0  0  0
   35.3620   30.1030   49.0950 N   0  0  0  0  0  0  0  0  0  0  0  0
   34.2360   30.5070   49.9470 C   0  0  0  0  0  0  0  0  0  0  0  0
   33.4180   29.3010   50.3590 C   0  0  0  0  0  0  0  0  0  0  0  0
   33.4590   28.3030   49.2380 C   0  0  0  0  0  0  0  0  0  0  0  0
   32.7260   27.5050   49.4600 H   0  0  0  0  0  0  0  0  0  0  0  0
   34.8820   27.7490   49.1580 C   0  0  0  0  0  0  0  0  0  0  0  0
   35.8160   28.8400   49.6370 C   0  0  0  0  0  0  0  0  0  0  0  0
   38.6880   31.4180   45.3950 C   0  0  0  0  0  0  0  0  0  0  0  0
   38.8020   32.7030   44.9600 C   0  0  0  0  0  0  0  0  0  0  0  0
   40.0070   33.3630   44.8210 C   0  0  0  0  0  0  0  0  0  0  0  0
   41.1450   32.6400   45.1550 C   0  0  0  0  0  0  0  0  0  0  0  0
   41.1160   31.3260   45.6040 C   0  0  0  0  0  0  0  0  0  0  0  0
   39.8460   30.7490   45.7100 C   0  0  0  0  0  0  0  0  0  0  0  0
   37.9260   33.3040   44.6890 H   0  0  0  0  0  0  0  0  0  0  0  0
   40.0680   34.3880   44.4730 H   0  0  0  0  0  0  0  0  0  0  0  0
   42.0910   33.1480   45.0490 H   0  0  0  0  0  0  0  0  0  0  0  0
   42.0210   30.7890   45.8560 H   0  0  0  0  0  0  0  0  0  0  0  0
   39.7560   29.7200   46.0580 H   0  0  0  0  0  0  0  0  0  0  0  0
  1  2  1  0  0  0  0
  1  7  1  0  0  0  0
  2  9  1  0  0  0  0
  3  2  2  0  0  0  0
  4  5  2  0  0  0  0
  4  3  1  0  0  0  0
  5  6  1  0  0  0  0
  6  1  2  0  0  0  0
  8  5  1  0  0  0  0
  9 10  1  0  0  0  0
  9 13  1  0  0  0  0
 10 15  1  0  0  0  0
 10 11  1  0  0  0  0
 11 12  1  0  0  0  0
 11 17  1  0  0  0  0
 12 19  1  0  0  0  0
 13 20  1  1  0  0  0
 13 12  1  0  0  0  0
 14 10  1  0  0  0  0
 16 11  1  0  0  0  0
 18 12  1  0  0  0  0
 21 13  1  0  0  0  0
 21 27  1  0  0  0  0
 21 22  1  0  0  0  0
 22 23  1  0  0  0  0
 24 25  1  0  0  0  0
 24 23  1  0  0  0  0
 26 24  1  0  0  0  0
 26 27  1  0  0  0  0
 28  3  1  0  0  0  0
 28 33  1  0  0  0  0
 29 28  2  0  0  0  0
 30 29  1  0  0  0  0
 30 31  2  0  0  0  0
 31 32  1  0  0  0  0
 32 33  2  0  0  0  0
 32 37  1  0  0  0  0
 33 38  1  0  0  0  0
 34 29  1  0  0  0  0
 35 30  1  0  0  0  0
 36 31  1  0  0  0  0
M  END
>  <minimizedAffinity>
-6.05559683

>  <minimizedRMSD>
1.30477321

$$$$
