
 OpenBabel03272506543D

 18 19  0  0  0  0  0  0  0  0999 V2000
   36.8830   29.3030   50.2670 C   0  0  0  0  0  0  0  0  0  0  0  0
   37.5400   30.4430   49.7480 C   0  0  0  0  0  0  0  0  0  0  0  0
   36.9700   31.0100   48.5970 C   0  0  0  0  0  0  0  0  0  0  0  0
   35.8570   30.4700   48.0450 N   0  0  0  0  0  0  0  0  0  0  0  0
   35.2750   29.3760   48.5880 C   0  0  0  0  0  0  0  0  0  0  0  0
   35.7690   28.7820   49.6930 N   0  0  0  0  0  0  0  0  0  0  0  0
   37.2680   28.8160   51.1500 H   0  0  0  0  0  0  0  0  0  0  0  0
   37.4570   31.8820   48.1860 H   0  0  0  0  0  0  0  0  0  0  0  0
   34.1140   28.8440   47.9800 N   0  0  0  0  0  0  0  0  0  0  0  0
   33.4090   29.6640   47.0120 C   0  0  0  0  0  0  0  0  0  0  0  0
   32.6210   28.8220   46.0400 C   0  0  0  0  0  0  0  0  0  0  0  0
   31.6800   27.8720   46.7110 C   0  0  0  0  0  0  0  0  0  0  0  0
   31.5510   27.0120   46.0190 H   0  0  0  0  0  0  0  0  0  0  0  0
   32.1340   27.3960   48.0540 C   0  0  0  0  0  0  0  0  0  0  0  0
   33.6120   27.5340   48.2820 C   0  0  0  0  0  0  0  0  0  0  0  0
   38.7000   30.9390   50.3940 N   0  0  0  0  0  0  0  0  0  0  0  0
   39.5680   31.3040   49.9540 H   0  0  0  0  0  0  0  0  0  0  0  0
   38.6840   30.9360   51.4400 H   0  0  0  0  0  0  0  0  0  0  0  0
  1  7  1  0  0  0  0
  2  1  1  0  0  0  0
  2 16  1  0  0  0  0
  3  2  2  0  0  0  0
  4  5  2  0  0  0  0
  4  3  1  0  0  0  0
  5  6  1  0  0  0  0
  6  1  2  0  0  0  0
  8  3  1  0  0  0  0
  9 15  1  0  0  0  0
  9  5  1  0  0  0  0
 10  9  1  0  0  0  0
 11 12  1  0  0  0  0
 11 10  1  0  0  0  0
 12 14  1  0  0  0  0
 13 12  1  0  0  0  0
 14 15  1  0  0  0  0
 16 18  1  0  0  0  0
 17 16  1  0  0  0  0
M  END
>  <minimizedAffinity>
-4.3016696

>  <minimizedRMSD>
2.0438776

$$$$
