
 OpenBabel03272506163D

 32 34  0  0  0  0  0  0  0  0999 V2000
   35.4540   30.4030   49.9420 C   0  0  0  0  0  0  0  0  0  0  0  0
   36.4570   31.2310   49.1650 C   0  0  0  0  0  0  0  0  0  0  0  0
   37.8590   30.7100   49.3000 C   0  0  0  0  0  0  0  0  0  0  0  0
   38.2960   30.5900   50.7330 C   0  0  0  0  0  0  0  0  0  0  0  0
   37.2500   29.9950   51.6260 C   0  0  0  0  0  0  0  0  0  0  0  0
   36.0910   29.4060   50.8470 C   0  0  0  0  0  0  0  0  0  0  0  0
   34.7970   31.0760   50.5370 H   0  0  0  0  0  0  0  0  0  0  0  0
   36.2080   31.3240   48.1010 H   0  0  0  0  0  0  0  0  0  0  0  0
   36.4640   32.2550   49.5950 H   0  0  0  0  0  0  0  0  0  0  0  0
   38.5230   31.4350   48.7990 H   0  0  0  0  0  0  0  0  0  0  0  0
   37.9480   29.7040   48.7970 H   0  0  0  0  0  0  0  0  0  0  0  0
   39.1620   29.8720   50.7650 H   0  0  0  0  0  0  0  0  0  0  0  0
   38.6770   31.5650   51.0900 H   0  0  0  0  0  0  0  0  0  0  0  0
   36.8140   30.8020   52.2740 H   0  0  0  0  0  0  0  0  0  0  0  0
   37.6110   29.2130   52.3160 H   0  0  0  0  0  0  0  0  0  0  0  0
   35.3660   28.9970   51.5490 H   0  0  0  0  0  0  0  0  0  0  0  0
   36.5530   28.6080   50.1990 H   0  0  0  0  0  0  0  0  0  0  0  0
   34.5710   29.6640   48.9950 C   0  0  0  0  0  0  0  0  0  0  0  0
   34.2610   30.3080   47.7850 C   0  0  0  0  0  0  0  0  0  0  0  0
   33.4310   29.6320   46.8990 C   0  0  0  0  0  0  0  0  0  0  0  0
   32.9570   28.3920   47.2310 N   0  0  0  0  0  0  0  0  0  0  0  0
   33.2790   27.7930   48.4210 C   0  0  0  0  0  0  0  0  0  0  0  0
   34.0820   28.4420   49.2830 N   0  0  0  0  0  0  0  0  0  0  0  0
   34.5900   31.2660   47.4660 H   0  0  0  0  0  0  0  0  0  0  0  0
   32.8770   26.8110   48.6350 H   0  0  0  0  0  0  0  0  0  0  0  0
   33.0720   30.2180   45.6540 N   0  0  0  0  0  0  0  0  0  0  0  0
   34.0170   30.2730   44.5790 C   0  0  0  0  0  0  0  0  0  0  0  0
   33.3220   30.5810   43.2680 C   0  0  0  0  0  0  0  0  0  0  0  0
   32.5040   31.8470   43.3370 C   0  0  0  0  0  0  0  0  0  0  0  0
   31.7720   31.8220   42.4890 H   0  0  0  0  0  0  0  0  0  0  0  0
   31.7650   32.0200   44.6320 C   0  0  0  0  0  0  0  0  0  0  0  0
   31.7400   30.7620   45.4760 C   0  0  0  0  0  0  0  0  0  0  0  0
  1  7  1  0  0  0  0
  1  6  1  0  0  0  0
  2  3  1  0  0  0  0
  2  9  1  0  0  0  0
  2  1  1  0  0  0  0
  3  4  1  0  0  0  0
  4 12  1  0  0  0  0
  4 13  1  0  0  0  0
  4  5  1  0  0  0  0
  5 14  1  0  0  0  0
  5 15  1  0  0  0  0
  6 16  1  0  0  0  0
  6  5  1  0  0  0  0
  8  2  1  0  0  0  0
 10  3  1  0  0  0  0
 11  3  1  0  0  0  0
 17  6  1  0  0  0  0
 18 23  1  0  0  0  0
 18  1  1  0  0  0  0
 19 18  2  0  0  0  0
 20 21  2  0  0  0  0
 20 19  1  0  0  0  0
 21 22  1  0  0  0  0
 22 25  1  0  0  0  0
 22 23  2  0  0  0  0
 24 19  1  0  0  0  0
 26 20  1  0  0  0  0
 27 26  1  0  0  0  0
 28 29  1  0  0  0  0
 28 27  1  0  0  0  0
 29 31  1  0  0  0  0
 30 29  1  0  0  0  0
 31 32  1  0  0  0  0
 32 26  1  0  0  0  0
M  END
>  <minimizedAffinity>
-5.65861511

>  <minimizedRMSD>
0.505711257

$$$$
