
 OpenBabel03272510323D

 26 28  0  0  0  0  0  0  0  0999 V2000
   35.9370   30.1650   47.7580 C   0  0  0  0  0  0  0  0  0  0  0  0
   35.3470   30.2000   46.5200 C   0  0  0  0  0  0  0  0  0  0  0  0
   34.3590   29.3070   46.1650 C   0  0  0  0  0  0  0  0  0  0  0  0
   33.9710   28.3610   47.1060 C   0  0  0  0  0  0  0  0  0  0  0  0
   34.5550   28.3050   48.3740 C   0  0  0  0  0  0  0  0  0  0  0  0
   35.5480   29.2210   48.6930 C   0  0  0  0  0  0  0  0  0  0  0  0
   35.6410   30.9360   45.7700 H   0  0  0  0  0  0  0  0  0  0  0  0
   33.8880   29.3290   45.1880 H   0  0  0  0  0  0  0  0  0  0  0  0
   33.1930   27.6800   46.7920 H   0  0  0  0  0  0  0  0  0  0  0  0
   34.2120   27.5470   49.0660 H   0  0  0  0  0  0  0  0  0  0  0  0
   37.7070   32.8780   49.4260 C   0  0  0  0  0  0  0  0  0  0  0  0
   38.8630   33.0590   48.6690 C   0  0  0  0  0  0  0  0  0  0  0  0
   39.0360   32.2100   47.5400 C   0  0  0  0  0  0  0  0  0  0  0  0
   38.0790   31.2860   47.2670 N   0  0  0  0  0  0  0  0  0  0  0  0
   36.9680   31.1470   48.0350 C   0  0  0  0  0  0  0  0  0  0  0  0
   36.8030   31.9520   49.1080 N   0  0  0  0  0  0  0  0  0  0  0  0
   37.5100   33.4860   50.2980 H   0  0  0  0  0  0  0  0  0  0  0  0
   39.5930   33.7940   48.9110 H   0  0  0  0  0  0  0  0  0  0  0  0
   39.9230   32.3040   46.9050 H   0  0  0  0  0  0  0  0  0  0  0  0
   36.1610   29.1810   49.9830 N   0  0  0  0  0  0  0  0  0  0  0  0
   35.5810   29.4170   51.3140 C   0  0  0  0  0  2  0  0  0  0  0  0
   36.5680   30.2100   52.1460 C   0  0  0  0  0  2  0  0  0  0  0  0
   37.9130   29.5610   52.2150 C   0  0  0  0  0  3  0  0  0  0  0  0
   38.6930   30.2970   51.9230 H   0  0  0  0  0  0  0  0  0  0  0  0
   38.0350   28.3990   51.2370 C   0  0  0  0  0  2  0  0  0  0  0  0
   37.5700   28.8560   49.8870 C   0  0  0  0  0  2  0  0  0  0  0  0
  1 15  1  0  0  0  0
  1  6  1  0  0  0  0
  2  1  2  0  0  0  0
  3  2  1  0  0  0  0
  3  4  2  0  0  0  0
  4  5  1  0  0  0  0
  5  6  2  0  0  0  0
  5 10  1  0  0  0  0
  6 20  1  0  0  0  0
  7  2  1  0  0  0  0
  8  3  1  0  0  0  0
  9  4  1  0  0  0  0
 11 17  1  0  0  0  0
 12 18  1  0  0  0  0
 12 11  2  0  0  0  0
 13 12  1  0  0  0  0
 14 13  2  0  0  0  0
 14 15  1  0  0  0  0
 15 16  2  0  0  0  0
 16 11  1  0  0  0  0
 19 13  1  0  0  0  0
 20 21  1  0  0  0  0
 21 22  1  0  0  0  0
 22 23  1  0  0  0  0
 24 23  1  0  0  0  0
 25 23  1  0  0  0  0
 26 20  1  0  0  0  0
 26 25  1  0  0  0  0
M  END
>  <minimizedAffinity>
-3.73135805

>  <minimizedRMSD>
1.20858836

$$$$
