
 OpenBabel03272509253D

 22 23  0  0  0  0  0  0  0  0999 V2000
   38.1290   25.3700   33.9190 C   0  0  0  0  0  0  0  0  0  0  0  0
   37.7060   25.8560   34.7960 H   0  0  0  0  0  0  0  0  0  0  0  0
   39.0320   25.8980   33.5050 H   0  0  0  0  0  0  0  0  0  0  0  0
   35.7430   24.4020   31.1420 C   0  0  0  0  0  0  0  0  0  0  0  0
   36.6960   24.2320   32.1700 C   0  0  0  0  0  0  0  0  0  0  0  0
   37.1300   25.3790   32.8110 C   0  0  0  0  0  0  0  0  0  0  0  0
   36.6230   26.5960   32.4220 N   0  0  0  0  0  0  0  0  0  0  0  0
   35.7190   26.7090   31.4370 C   0  0  0  0  0  0  0  0  0  0  0  0
   35.2680   25.6140   30.7870 N   0  0  0  0  0  0  0  0  0  0  0  0
   35.3630   23.5620   30.6060 H   0  0  0  0  0  0  0  0  0  0  0  0
   37.0640   23.2750   32.4410 H   0  0  0  0  0  0  0  0  0  0  0  0
   35.4230   27.7400   31.2530 H   0  0  0  0  0  0  0  0  0  0  0  0
   38.5690   23.9310   34.1910 C   0  0  0  0  0  0  0  0  0  0  0  0
   38.0120   23.2790   33.5240 H   0  0  0  0  0  0  0  0  0  0  0  0
   39.6550   23.8540   34.0350 H   0  0  0  0  0  0  0  0  0  0  0  0
   38.3110   23.5490   35.5540 N   0  0  0  0  0  0  0  0  0  0  0  0
   38.2550   24.6760   36.4570 C   0  0  0  0  0  2  0  0  0  0  0  0
   37.7880   24.1390   37.7970 C   0  0  0  0  0  2  0  0  0  0  0  0
   38.9380   23.3270   38.3970 C   0  0  0  0  0  3  0  0  0  0  0  0
   38.5240   22.4920   38.9780 H   0  0  0  0  0  0  0  0  0  0  0  0
   39.8430   22.7870   37.3100 C   0  0  0  0  0  2  0  0  0  0  0  0
   39.0470   22.4390   36.0450 C   0  0  0  0  0  2  0  0  0  0  0  0
  1 13  1  0  0  0  0
  1  2  1  0  0  0  0
  3  1  1  0  0  0  0
  4  5  1  0  0  0  0
  5 11  1  0  0  0  0
  5  6  2  0  0  0  0
  6  1  1  0  0  0  0
  7  6  1  0  0  0  0
  8  7  2  0  0  0  0
  9  4  2  0  0  0  0
  9  8  1  0  0  0  0
 10  4  1  0  0  0  0
 12  8  1  0  0  0  0
 13 16  1  0  0  0  0
 14 13  1  0  0  0  0
 15 13  1  0  0  0  0
 16 22  1  0  0  0  0
 16 17  1  0  0  0  0
 17 18  1  0  0  0  0
 18 19  1  0  0  0  0
 19 20  1  0  0  0  0
 21 19  1  0  0  0  0
 22 21  1  0  0  0  0
M  END
>  <minimizedAffinity>
-4.13074398

$$$$

 OpenBabel03272509253D

 22 23  0  0  0  0  0  0  0  0999 V2000
   38.2210   25.1170   33.7400 C   0  0  0  0  0  0  0  0  0  0  0  0
   37.9610   25.6930   34.6250 H   0  0  0  0  0  0  0  0  0  0  0  0
   39.1600   25.4720   33.2320 H   0  0  0  0  0  0  0  0  0  0  0  0
   35.6390   26.4630   31.3180 C   0  0  0  0  0  0  0  0  0  0  0  0
   36.6550   26.4880   32.2990 C   0  0  0  0  0  0  0  0  0  0  0  0
   37.1460   25.2630   32.7150 C   0  0  0  0  0  0  0  0  0  0  0  0
   36.6310   24.1130   32.1660 N   0  0  0  0  0  0  0  0  0  0  0  0
   35.6640   24.1380   31.2360 C   0  0  0  0  0  0  0  0  0  0  0  0
   35.1580   25.3130   30.8010 N   0  0  0  0  0  0  0  0  0  0  0  0
   35.2140   27.3690   30.9490 H   0  0  0  0  0  0  0  0  0  0  0  0
   37.0250   27.3960   32.7000 H   0  0  0  0  0  0  0  0  0  0  0  0
   35.3690   23.1440   30.9080 H   0  0  0  0  0  0  0  0  0  0  0  0
   38.4370   23.6330   34.0380 C   0  0  0  0  0  0  0  0  0  0  0  0
   37.7280   23.0650   33.4430 H   0  0  0  0  0  0  0  0  0  0  0  0
   39.4790   23.3700   33.8050 H   0  0  0  0  0  0  0  0  0  0  0  0
   38.2300   23.3390   35.4310 N   0  0  0  0  0  0  0  0  0  0  0  0
   38.1660   24.5240   36.2560 C   0  0  0  0  0  2  0  0  0  0  0  0
   37.7530   24.0680   37.6430 C   0  0  0  0  0  2  0  0  0  0  0  0
   38.9440   23.3330   38.2620 C   0  0  0  0  0  3  0  0  0  0  0  0
   38.5730   22.5290   38.9110 H   0  0  0  0  0  0  0  0  0  0  0  0
   39.8340   22.7460   37.1880 C   0  0  0  0  0  2  0  0  0  0  0  0
   39.0140   22.2870   35.9740 C   0  0  0  0  0  2  0  0  0  0  0  0
  1 13  1  0  0  0  0
  1  2  1  0  0  0  0
  3  1  1  0  0  0  0
  4  5  1  0  0  0  0
  5 11  1  0  0  0  0
  5  6  2  0  0  0  0
  6  1  1  0  0  0  0
  7  6  1  0  0  0  0
  8  7  2  0  0  0  0
  9  8  1  0  0  0  0
  9  4  2  0  0  0  0
 10  4  1  0  0  0  0
 12  8  1  0  0  0  0
 13 16  1  0  0  0  0
 14 13  1  0  0  0  0
 15 13  1  0  0  0  0
 16 22  1  0  0  0  0
 16 17  1  0  0  0  0
 17 18  1  0  0  0  0
 18 19  1  0  0  0  0
 19 20  1  0  0  0  0
 21 19  1  0  0  0  0
 22 21  1  0  0  0  0
M  END
>  <minimizedAffinity>
-4.12683821

$$$$

 OpenBabel03272509253D

 22 23  0  0  0  0  0  0  0  0999 V2000
   37.6360   21.8400   34.5550 C   0  0  0  0  0  0  0  0  0  0  0  0
   38.3890   21.0550   34.5810 H   0  0  0  0  0  0  0  0  0  0  0  0
   36.9190   21.8040   35.4220 H   0  0  0  0  0  0  0  0  0  0  0  0
   35.0830   20.6820   32.0090 C   0  0  0  0  0  0  0  0  0  0  0  0
   35.8090   20.7060   33.2200 C   0  0  0  0  0  0  0  0  0  0  0  0
   36.7860   21.6790   33.3400 C   0  0  0  0  0  0  0  0  0  0  0  0
   36.9950   22.5490   32.2970 N   0  0  0  0  0  0  0  0  0  0  0  0
   36.2810   22.4870   31.1630 C   0  0  0  0  0  0  0  0  0  0  0  0
   35.3170   21.5540   31.0060 N   0  0  0  0  0  0  0  0  0  0  0  0
   34.3150   19.9600   31.8480 H   0  0  0  0  0  0  0  0  0  0  0  0
   35.6190   20.0150   34.0020 H   0  0  0  0  0  0  0  0  0  0  0  0
   36.5720   23.2460   30.4400 H   0  0  0  0  0  0  0  0  0  0  0  0
   38.2410   23.2450   34.5650 C   0  0  0  0  0  0  0  0  0  0  0  0
   39.0060   23.2860   33.7960 H   0  0  0  0  0  0  0  0  0  0  0  0
   37.4400   23.9800   34.3940 H   0  0  0  0  0  0  0  0  0  0  0  0
   38.8310   23.5560   35.8400 N   0  0  0  0  0  0  0  0  0  0  0  0
   39.2470   22.3820   36.5730 C   0  0  0  0  0  2  0  0  0  0  0  0
   40.0160   22.8740   37.7850 C   0  0  0  0  0  2  0  0  0  0  0  0
   39.0070   23.4940   38.7530 C   0  0  0  0  0  3  0  0  0  0  0  0
   39.4840   24.3300   39.2840 H   0  0  0  0  0  0  0  0  0  0  0  0
   37.7860   23.9970   38.0130 C   0  0  0  0  0  2  0  0  0  0  0  0
   38.1580   24.5300   36.6230 C   0  0  0  0  0  2  0  0  0  0  0  0
  1 13  1  0  0  0  0
  1  2  1  0  0  0  0
  1  3  1  0  0  0  0
  4  5  1  0  0  0  0
  5  6  2  0  0  0  0
  5 11  1  0  0  0  0
  6  1  1  0  0  0  0
  7  6  1  0  0  0  0
  8  7  2  0  0  0  0
  9  8  1  0  0  0  0
  9  4  2  0  0  0  0
 10  4  1  0  0  0  0
 12  8  1  0  0  0  0
 13 16  1  0  0  0  0
 14 13  1  0  0  0  0
 15 13  1  0  0  0  0
 16 17  1  0  0  0  0
 16 22  1  0  0  0  0
 17 18  1  0  0  0  0
 18 19  1  0  0  0  0
 19 20  1  0  0  0  0
 21 19  1  0  0  0  0
 22 21  1  0  0  0  0
M  END
>  <minimizedAffinity>
-4.02687454

$$$$

 OpenBabel03272509253D

 22 23  0  0  0  0  0  0  0  0999 V2000
   38.7170   22.5600   33.5470 C   0  0  0  0  0  0  0  0  0  0  0  0
   39.4140   22.7110   32.7250 H   0  0  0  0  0  0  0  0  0  0  0  0
   39.0270   21.7400   34.2530 H   0  0  0  0  0  0  0  0  0  0  0  0
   35.5870   22.1310   31.4590 C   0  0  0  0  0  0  0  0  0  0  0  0
   36.8460   22.6410   31.8430 C   0  0  0  0  0  0  0  0  0  0  0  0
   37.3940   22.1300   33.0070 C   0  0  0  0  0  0  0  0  0  0  0  0
   36.6990   21.1770   33.7120 N   0  0  0  0  0  0  0  0  0  0  0  0
   35.5030   20.7240   33.3090 C   0  0  0  0  0  0  0  0  0  0  0  0
   34.9330   21.1950   32.1780 N   0  0  0  0  0  0  0  0  0  0  0  0
   35.1050   22.4780   30.5720 H   0  0  0  0  0  0  0  0  0  0  0  0
   37.3510   23.3780   31.2730 H   0  0  0  0  0  0  0  0  0  0  0  0
   35.0880   19.9740   33.9790 H   0  0  0  0  0  0  0  0  0  0  0  0
   38.5310   23.8100   34.4060 C   0  0  0  0  0  0  0  0  0  0  0  0
   39.4330   24.4090   34.3280 H   0  0  0  0  0  0  0  0  0  0  0  0
   37.6400   24.3540   34.0570 H   0  0  0  0  0  0  0  0  0  0  0  0
   38.3030   23.4720   35.7860 N   0  0  0  0  0  0  0  0  0  0  0  0
   38.2170   24.6300   36.6460 C   0  0  0  0  0  2  0  0  0  0  0  0
   37.7840   24.1290   38.0110 C   0  0  0  0  0  2  0  0  0  0  0  0
   38.9690   23.3820   38.6270 C   0  0  0  0  0  3  0  0  0  0  0  0
   38.5930   22.5560   39.2450 H   0  0  0  0  0  0  0  0  0  0  0  0
   39.8810   22.8340   37.5500 C   0  0  0  0  0  2  0  0  0  0  0  0
   39.0840   22.4080   36.3100 C   0  0  0  0  0  2  0  0  0  0  0  0
  1  3  1  0  0  0  0
  1 13  1  0  0  0  0
  2  1  1  0  0  0  0
  4  5  2  0  0  0  0
  4  9  1  0  0  0  0
  5  6  1  0  0  0  0
  6  1  1  0  0  0  0
  6  7  2  0  0  0  0
  8  7  1  0  0  0  0
  8 12  1  0  0  0  0
  9  8  2  0  0  0  0
 10  4  1  0  0  0  0
 11  5  1  0  0  0  0
 13 16  1  0  0  0  0
 14 13  1  0  0  0  0
 15 13  1  0  0  0  0
 16 22  1  0  0  0  0
 16 17  1  0  0  0  0
 17 18  1  0  0  0  0
 18 19  1  0  0  0  0
 19 20  1  0  0  0  0
 21 19  1  0  0  0  0
 22 21  1  0  0  0  0
M  END
>  <minimizedAffinity>
-4.00686836

$$$$

 OpenBabel03272509253D

 22 23  0  0  0  0  0  0  0  0999 V2000
   38.2110   26.2760   34.7800 C   0  0  0  0  0  0  0  0  0  0  0  0
   38.0740   26.5670   35.8200 H   0  0  0  0  0  0  0  0  0  0  0  0
   39.2210   26.5520   34.3660 H   0  0  0  0  0  0  0  0  0  0  0  0
   35.6730   28.7250   33.4010 C   0  0  0  0  0  0  0  0  0  0  0  0
   36.5730   28.1510   34.3260 C   0  0  0  0  0  0  0  0  0  0  0  0
   37.2280   27.0000   33.9240 C   0  0  0  0  0  0  0  0  0  0  0  0
   36.9730   26.4880   32.6740 N   0  0  0  0  0  0  0  0  0  0  0  0
   36.1080   27.0670   31.8290 C   0  0  0  0  0  0  0  0  0  0  0  0
   35.4480   28.1920   32.1820 N   0  0  0  0  0  0  0  0  0  0  0  0
   35.1340   29.6130   33.6430 H   0  0  0  0  0  0  0  0  0  0  0  0
   36.7410   28.5770   35.2830 H   0  0  0  0  0  0  0  0  0  0  0  0
   36.0210   26.5350   30.8840 H   0  0  0  0  0  0  0  0  0  0  0  0
   38.0610   24.7710   34.5600 C   0  0  0  0  0  0  0  0  0  0  0  0
   37.1330   24.6020   34.0220 H   0  0  0  0  0  0  0  0  0  0  0  0
   38.9360   24.4020   34.0040 H   0  0  0  0  0  0  0  0  0  0  0  0
   38.0240   24.0560   35.8080 N   0  0  0  0  0  0  0  0  0  0  0  0
   38.1170   24.9230   36.9600 C   0  0  0  0  0  2  0  0  0  0  0  0
   37.8680   24.0560   38.1800 C   0  0  0  0  0  2  0  0  0  0  0  0
   39.0970   23.1640   38.3720 C   0  0  0  0  0  3  0  0  0  0  0  0
   38.7790   22.1970   38.7840 H   0  0  0  0  0  0  0  0  0  0  0  0
   39.8150   22.9430   37.0580 C   0  0  0  0  0  2  0  0  0  0  0  0
   38.8260   22.8870   35.8860 C   0  0  0  0  0  2  0  0  0  0  0  0
  1  2  1  0  0  0  0
  3  1  1  0  0  0  0
  4 10  1  0  0  0  0
  4  5  1  0  0  0  0
  5 11  1  0  0  0  0
  6  5  2  0  0  0  0
  6  1  1  0  0  0  0
  7  6  1  0  0  0  0
  8  9  1  0  0  0  0
  8  7  2  0  0  0  0
  9  4  2  0  0  0  0
 12  8  1  0  0  0  0
 13  1  1  0  0  0  0
 13 16  1  0  0  0  0
 14 13  1  0  0  0  0
 15 13  1  0  0  0  0
 16 22  1  0  0  0  0
 16 17  1  0  0  0  0
 17 18  1  0  0  0  0
 18 19  1  0  0  0  0
 19 20  1  0  0  0  0
 21 19  1  0  0  0  0
 22 21  1  0  0  0  0
M  END
>  <minimizedAffinity>
-3.99550056

$$$$

 OpenBabel03272509253D

 22 23  0  0  0  0  0  0  0  0999 V2000
   37.8250   22.1270   34.5460 C   0  0  0  0  0  0  0  0  0  0  0  0
   36.7930   22.4600   34.4640 H   0  0  0  0  0  0  0  0  0  0  0  0
   37.9460   21.0110   34.4700 H   0  0  0  0  0  0  0  0  0  0  0  0
   40.0300   22.6530   37.5800 C   0  0  0  0  0  0  0  0  0  0  0  0
   39.6710   22.2540   36.2740 C   0  0  0  0  0  0  0  0  0  0  0  0
   38.3610   22.4850   35.8910 C   0  0  0  0  0  0  0  0  0  0  0  0
   37.4990   23.0770   36.7830 N   0  0  0  0  0  0  0  0  0  0  0  0
   37.8850   23.4380   38.0160 C   0  0  0  0  0  0  0  0  0  0  0  0
   39.1550   23.2310   38.4280 N   0  0  0  0  0  0  0  0  0  0  0  0
   41.0230   22.5060   37.9420 H   0  0  0  0  0  0  0  0  0  0  0  0
   40.3660   21.7980   35.6150 H   0  0  0  0  0  0  0  0  0  0  0  0
   37.0820   23.8910   38.5930 H   0  0  0  0  0  0  0  0  0  0  0  0
   38.7300   22.7250   33.4670 C   0  0  0  0  0  0  0  0  0  0  0  0
   39.3490   23.4860   33.9320 H   0  0  0  0  0  0  0  0  0  0  0  0
   39.3290   21.9190   33.0170 H   0  0  0  0  0  0  0  0  0  0  0  0
   37.9620   23.3200   32.4050 N   0  0  0  0  0  0  0  0  0  0  0  0
   37.3210   24.5550   32.7940 C   0  0  0  0  0  2  0  0  0  0  0  0
   36.7240   25.1530   31.5340 C   0  0  0  0  0  2  0  0  0  0  0  0
   35.5180   24.2960   31.1420 C   0  0  0  0  0  3  0  0  0  0  0  0
   35.4300   24.2760   30.0480 H   0  0  0  0  0  0  0  0  0  0  0  0
   35.6670   22.8830   31.6630 C   0  0  0  0  0  2  0  0  0  0  0  0
   37.1360   22.4400   31.6580 C   0  0  0  0  0  2  0  0  0  0  0  0
  1  6  1  0  0  0  0
  2  1  1  0  0  0  0
  3  1  1  0  0  0  0
  4 10  1  0  0  0  0
  4  9  1  0  0  0  0
  5  4  2  0  0  0  0
  6  5  1  0  0  0  0
  6  7  2  0  0  0  0
  7  8  1  0  0  0  0
  8  9  2  0  0  0  0
  8 12  1  0  0  0  0
 11  5  1  0  0  0  0
 13 14  1  0  0  0  0
 13  1  1  0  0  0  0
 15 13  1  0  0  0  0
 16 17  1  0  0  0  0
 16 13  1  0  0  0  0
 18 17  1  0  0  0  0
 19 18  1  0  0  0  0
 19 21  1  0  0  0  0
 20 19  1  0  0  0  0
 22 21  1  0  0  0  0
 22 16  1  0  0  0  0
M  END
>  <minimizedAffinity>
-3.90453887

$$$$

 OpenBabel03272509253D

 22 23  0  0  0  0  0  0  0  0999 V2000
   38.6790   24.5570   34.5100 C   0  0  0  0  0  0  0  0  0  0  0  0
   39.4600   25.2860   34.3050 H   0  0  0  0  0  0  0  0  0  0  0  0
   37.6390   24.9790   34.4390 H   0  0  0  0  0  0  0  0  0  0  0  0
   39.7750   22.8170   37.6900 C   0  0  0  0  0  0  0  0  0  0  0  0
   39.7810   23.1790   36.3260 C   0  0  0  0  0  0  0  0  0  0  0  0
   38.8060   24.0710   35.9150 C   0  0  0  0  0  0  0  0  0  0  0  0
   37.9040   24.5470   36.8370 N   0  0  0  0  0  0  0  0  0  0  0  0
   37.9360   24.1730   38.1250 C   0  0  0  0  0  0  0  0  0  0  0  0
   38.8720   23.3040   38.5660 N   0  0  0  0  0  0  0  0  0  0  0  0
   40.4980   22.1340   38.0770 H   0  0  0  0  0  0  0  0  0  0  0  0
   40.4940   22.7890   35.6450 H   0  0  0  0  0  0  0  0  0  0  0  0
   37.1530   24.6390   38.7190 H   0  0  0  0  0  0  0  0  0  0  0  0
   38.7170   23.3610   33.5580 C   0  0  0  0  0  0  0  0  0  0  0  0
   39.1450   23.6950   32.6180 H   0  0  0  0  0  0  0  0  0  0  0  0
   39.3050   22.5550   34.0200 H   0  0  0  0  0  0  0  0  0  0  0  0
   37.3990   22.8360   33.3190 N   0  0  0  0  0  0  0  0  0  0  0  0
   37.3250   21.4010   33.4710 C   0  0  0  0  0  2  0  0  0  0  0  0
   35.8570   21.0270   33.3840 C   0  0  0  0  0  2  0  0  0  0  0  0
   35.4220   21.2000   31.9270 C   0  0  0  0  0  3  0  0  0  0  0  0
   34.3730   21.5250   31.9010 H   0  0  0  0  0  0  0  0  0  0  0  0
   36.2860   22.2230   31.2220 C   0  0  0  0  0  2  0  0  0  0  0  0
   36.7180   23.3410   32.1800 C   0  0  0  0  0  2  0  0  0  0  0  0
  1  6  1  0  0  0  0
  2  1  1  0  0  0  0
  3  1  1  0  0  0  0
  4 10  1  0  0  0  0
  4  9  1  0  0  0  0
  5  4  2  0  0  0  0
  6  5  1  0  0  0  0
  6  7  2  0  0  0  0
  7  8  1  0  0  0  0
  8  9  2  0  0  0  0
  8 12  1  0  0  0  0
 11  5  1  0  0  0  0
 13 15  1  0  0  0  0
 13  1  1  0  0  0  0
 14 13  1  0  0  0  0
 16 17  1  0  0  0  0
 16 13  1  0  0  0  0
 18 17  1  0  0  0  0
 19 18  1  0  0  0  0
 20 19  1  0  0  0  0
 21 19  1  0  0  0  0
 21 22  1  0  0  0  0
 22 16  1  0  0  0  0
M  END
>  <minimizedAffinity>
-3.89942265

$$$$

 OpenBabel03272509253D

 22 23  0  0  0  0  0  0  0  0999 V2000
   35.8170   23.4180   31.1530 C   0  0  0  0  0  0  0  0  0  0  0  0
   35.3990   23.4190   30.1490 H   0  0  0  0  0  0  0  0  0  0  0  0
   35.1330   22.9690   31.9250 H   0  0  0  0  0  0  0  0  0  0  0  0
   35.7230   27.1810   31.5700 C   0  0  0  0  0  0  0  0  0  0  0  0
   35.4100   25.9140   31.0320 C   0  0  0  0  0  0  0  0  0  0  0  0
   36.0420   24.8230   31.6030 C   0  0  0  0  0  0  0  0  0  0  0  0
   36.9220   25.0260   32.6390 N   0  0  0  0  0  0  0  0  0  0  0  0
   37.1890   26.2510   33.1170 C   0  0  0  0  0  0  0  0  0  0  0  0
   36.5930   27.3420   32.5890 N   0  0  0  0  0  0  0  0  0  0  0  0
   35.2720   28.0660   31.1800 H   0  0  0  0  0  0  0  0  0  0  0  0
   34.7260   25.7980   30.2300 H   0  0  0  0  0  0  0  0  0  0  0  0
   37.9070   26.2370   33.9350 H   0  0  0  0  0  0  0  0  0  0  0  0
   37.1310   22.6410   31.2500 C   0  0  0  0  0  0  0  0  0  0  0  0
   37.5700   22.6010   30.2570 H   0  0  0  0  0  0  0  0  0  0  0  0
   37.7890   23.1410   31.9750 H   0  0  0  0  0  0  0  0  0  0  0  0
   36.9170   21.3020   31.7300 N   0  0  0  0  0  0  0  0  0  0  0  0
   35.7950   20.6460   31.0980 C   0  0  0  0  0  2  0  0  0  0  0  0
   35.8200   19.2000   31.5570 C   0  0  0  0  0  2  0  0  0  0  0  0
   35.3970   19.1740   33.0270 C   0  0  0  0  0  3  0  0  0  0  0  0
   35.9320   18.3640   33.5420 H   0  0  0  0  0  0  0  0  0  0  0  0
   35.7070   20.4920   33.7020 C   0  0  0  0  0  2  0  0  0  0  0  0
   36.9880   21.1200   33.1360 C   0  0  0  0  0  2  0  0  0  0  0  0
  1 13  1  0  0  0  0
  1  6  1  0  0  0  0
  1  3  1  0  0  0  0
  2  1  1  0  0  0  0
  4  9  1  0  0  0  0
  5  4  2  0  0  0  0
  5  6  1  0  0  0  0
  6  7  2  0  0  0  0
  7  8  1  0  0  0  0
  8 12  1  0  0  0  0
  9  8  2  0  0  0  0
 10  4  1  0  0  0  0
 11  5  1  0  0  0  0
 13 16  1  0  0  0  0
 13 15  1  0  0  0  0
 14 13  1  0  0  0  0
 16 22  1  0  0  0  0
 17 18  1  0  0  0  0
 17 16  1  0  0  0  0
 18 19  1  0  0  0  0
 19 20  1  0  0  0  0
 19 21  1  0  0  0  0
 22 21  1  0  0  0  0
M  END
>  <minimizedAffinity>
-3.8738234

$$$$

 OpenBabel03272509253D

 22 23  0  0  0  0  0  0  0  0999 V2000
   38.7090   24.8540   34.7130 C   0  0  0  0  0  0  0  0  0  0  0  0
   37.6800   24.8140   34.3600 H   0  0  0  0  0  0  0  0  0  0  0  0
   39.4200   24.2380   34.0960 H   0  0  0  0  0  0  0  0  0  0  0  0
   38.1100   23.9820   38.3490 C   0  0  0  0  0  0  0  0  0  0  0  0
   37.9080   24.6130   37.1020 C   0  0  0  0  0  0  0  0  0  0  0  0
   38.7880   24.2800   36.0870 C   0  0  0  0  0  0  0  0  0  0  0  0
   39.7910   23.3740   36.3420 N   0  0  0  0  0  0  0  0  0  0  0  0
   39.9450   22.8010   37.5440 C   0  0  0  0  0  0  0  0  0  0  0  0
   39.1060   23.0970   38.5610 N   0  0  0  0  0  0  0  0  0  0  0  0
   37.4680   24.1900   39.1760 H   0  0  0  0  0  0  0  0  0  0  0  0
   37.1230   25.3080   36.9460 H   0  0  0  0  0  0  0  0  0  0  0  0
   40.7850   22.1100   37.5770 H   0  0  0  0  0  0  0  0  0  0  0  0
   39.2780   26.2730   34.7240 C   0  0  0  0  0  0  0  0  0  0  0  0
   39.3940   26.5800   35.7600 H   0  0  0  0  0  0  0  0  0  0  0  0
   40.2350   26.2780   34.1800 H   0  0  0  0  0  0  0  0  0  0  0  0
   38.4060   27.1970   34.0490 N   0  0  0  0  0  0  0  0  0  0  0  0
   37.0670   27.2110   34.5920 C   0  0  0  0  0  2  0  0  0  0  0  0
   36.3350   28.3570   33.9180 C   0  0  0  0  0  2  0  0  0  0  0  0
   36.0700   27.9470   32.4680 C   0  0  0  0  0  3  0  0  0  0  0  0
   36.1130   28.8380   31.8280 H   0  0  0  0  0  0  0  0  0  0  0  0
   37.0920   26.9360   31.9960 C   0  0  0  0  0  2  0  0  0  0  0  0
   38.4650   27.1950   32.6310 C   0  0  0  0  0  2  0  0  0  0  0  0
  1 13  1  0  0  0  0
  1  6  1  0  0  0  0
  2  1  1  0  0  0  0
  3  1  1  0  0  0  0
  4  9  1  0  0  0  0
  4 10  1  0  0  0  0
  5  4  2  0  0  0  0
  6  7  2  0  0  0  0
  6  5  1  0  0  0  0
  7  8  1  0  0  0  0
  8 12  1  0  0  0  0
  8  9  2  0  0  0  0
 11  5  1  0  0  0  0
 13 14  1  0  0  0  0
 15 13  1  0  0  0  0
 16 17  1  0  0  0  0
 16 13  1  0  0  0  0
 18 17  1  0  0  0  0
 19 18  1  0  0  0  0
 20 19  1  0  0  0  0
 21 19  1  0  0  0  0
 21 22  1  0  0  0  0
 22 16  1  0  0  0  0
M  END
>  <minimizedAffinity>
-3.83058047

$$$$
