
 OpenBabel03272510133D

 39 42  0  0  0  0  0  0  0  0999 V2000
   38.3600   31.6070   48.8940 C   0  0  0  0  0  0  0  0  0  0  0  0
   38.5250   32.8690   49.4340 C   0  0  0  0  0  0  0  0  0  0  0  0
   39.1790   33.6450   48.4680 C   0  0  0  0  0  0  0  0  0  0  0  0
   39.3810   32.8520   47.4040 N   0  0  0  0  0  0  0  0  0  0  0  0
   38.8980   31.6700   47.6720 N   0  0  0  0  0  0  0  0  0  0  0  0
   38.2780   33.3640   50.3850 H   0  0  0  0  0  0  0  0  0  0  0  0
   39.4840   34.6850   48.5150 H   0  0  0  0  0  0  0  0  0  0  0  0
   40.0320   33.2630   46.1800 C   0  0  0  0  0  0  0  0  0  0  0  0
   40.9860   33.7880   46.4740 H   0  0  0  0  0  0  0  0  0  0  0  0
   39.4600   33.9610   45.5640 H   0  0  0  0  0  0  0  0  0  0  0  0
   40.4220   32.0150   45.4430 C   0  0  0  0  0  0  0  0  0  0  0  0
   40.4540   31.1280   46.1060 H   0  0  0  0  0  0  0  0  0  0  0  0
   41.4130   32.1060   44.9430 H   0  0  0  0  0  0  0  0  0  0  0  0
   39.4250   31.8040   44.3970 N   0  0  0  0  0  0  0  0  0  0  0  0
   39.4450   30.4340   43.9290 C   0  0  0  0  0  0  0  0  0  0  0  0
   40.4250   30.1610   42.8400 C   0  0  0  0  0  0  0  0  0  0  0  0
   40.3120   31.1480   41.7000 C   0  0  0  0  0  0  0  0  0  0  0  0
   40.0680   30.6960   40.7340 H   0  0  0  0  0  0  0  0  0  0  0  0
   39.2110   32.1290   42.0330 C   0  0  0  0  0  0  0  0  0  0  0  0
   39.5410   32.7700   43.3510 C   0  0  0  0  0  0  0  0  0  0  0  0
   37.7240   30.7210   49.7340 O   0  0  0  0  0  0  0  0  0  0  0  0
   34.1470   28.9390   48.4120 C   0  0  0  0  0  0  0  0  0  0  0  0
   34.8810   28.3850   49.4230 C   0  0  0  0  0  0  0  0  0  0  0  0
   36.0590   28.9080   49.9100 C   0  0  0  0  0  0  0  0  0  0  0  0
   36.5650   30.0560   49.3770 C   0  0  0  0  0  0  0  0  0  0  0  0
   35.8210   30.6220   48.3480 C   0  0  0  0  0  0  0  0  0  0  0  0
   34.6690   30.0820   47.8940 N   0  0  0  0  0  0  0  0  0  0  0  0
   34.5630   27.4730   49.9120 H   0  0  0  0  0  0  0  0  0  0  0  0
   36.6350   28.4650   50.7130 H   0  0  0  0  0  0  0  0  0  0  0  0
   36.1060   31.5390   47.8290 H   0  0  0  0  0  0  0  0  0  0  0  0
   32.0780   27.5610   48.6550 C   0  0  0  0  0  0  0  0  0  0  0  0
   32.9350   28.3770   47.9160 C   0  0  0  0  0  0  0  0  0  0  0  0
   32.5620   28.6390   46.6160 C   0  0  0  0  0  0  0  0  0  0  0  0
   31.4050   28.1080   46.1090 N   0  0  0  0  0  0  0  0  0  0  0  0
   30.6140   27.3220   46.8770 C   0  0  0  0  0  0  0  0  0  0  0  0
   30.9360   27.0310   48.1690 N   0  0  0  0  0  0  0  0  0  0  0  0
   32.3460   27.3390   49.6810 H   0  0  0  0  0  0  0  0  0  0  0  0
   33.1640   29.2670   45.9560 H   0  0  0  0  0  0  0  0  0  0  0  0
   29.6970   26.8880   46.5120 H   0  0  0  0  0  0  0  0  0  0  0  0
  1  2  1  0  0  0  0
  1 21  1  0  0  0  0
  2  6  1  0  0  0  0
  3  7  1  0  0  0  0
  3  2  2  0  0  0  0
  4  5  1  0  0  0  0
  4  3  1  0  0  0  0
  5  1  2  0  0  0  0
  8  9  1  0  0  0  0
  8  4  1  0  0  0  0
 10  8  1  0  0  0  0
 11 12  1  0  0  0  0
 11  8  1  0  0  0  0
 13 11  1  0  0  0  0
 14 11  1  0  0  0  0
 15 14  1  0  0  0  0
 16 15  1  0  0  0  0
 17 19  1  0  0  0  0
 17 16  1  0  0  0  0
 18 17  1  0  0  0  0
 19 20  1  0  0  0  0
 20 14  1  0  0  0  0
 22 23  1  0  0  0  0
 23 24  2  0  0  0  0
 23 28  1  0  0  0  0
 24 29  1  0  0  0  0
 25 21  1  0  0  0  0
 25 24  1  0  0  0  0
 26 25  2  0  0  0  0
 27 26  1  0  0  0  0
 27 22  2  0  0  0  0
 30 26  1  0  0  0  0
 31 37  1  0  0  0  0
 32 22  1  0  0  0  0
 32 31  2  0  0  0  0
 33 32  1  0  0  0  0
 34 33  2  0  0  0  0
 34 35  1  0  0  0  0
 35 36  2  0  0  0  0
 36 31  1  0  0  0  0
 38 33  1  0  0  0  0
 39 35  1  0  0  0  0
M  END
>  <minimizedAffinity>
-6.11041212

>  <minimizedRMSD>
1.20584512

$$$$
