
 OpenBabel03272510323D

 26 28  0  0  0  0  0  0  0  0999 V2000
   34.7400   28.7660   48.6350 C   0  0  0  0  0  0  0  0  0  0  0  0
   35.4560   28.5820   49.7900 C   0  0  0  0  0  0  0  0  0  0  0  0
   36.4730   29.4380   50.1540 C   0  0  0  0  0  0  0  0  0  0  0  0
   36.7560   30.5050   49.3090 C   0  0  0  0  0  0  0  0  0  0  0  0
   36.0410   30.7150   48.1280 C   0  0  0  0  0  0  0  0  0  0  0  0
   35.0250   29.8300   47.7960 C   0  0  0  0  0  0  0  0  0  0  0  0
   35.2460   27.7500   50.4630 H   0  0  0  0  0  0  0  0  0  0  0  0
   37.0430   29.2990   51.0660 H   0  0  0  0  0  0  0  0  0  0  0  0
   37.5590   31.1540   49.6290 H   0  0  0  0  0  0  0  0  0  0  0  0
   36.3050   31.5630   47.5100 H   0  0  0  0  0  0  0  0  0  0  0  0
   31.4460   27.2080   48.6300 C   0  0  0  0  0  0  0  0  0  0  0  0
   31.6020   26.0630   47.8510 C   0  0  0  0  0  0  0  0  0  0  0  0
   32.8950   25.8220   47.3080 C   0  0  0  0  0  0  0  0  0  0  0  0
   33.8890   26.7080   47.5750 N   0  0  0  0  0  0  0  0  0  0  0  0
   33.6890   27.8100   48.3400 C   0  0  0  0  0  0  0  0  0  0  0  0
   32.4620   28.0410   48.8570 N   0  0  0  0  0  0  0  0  0  0  0  0
   30.4920   27.4550   49.0740 H   0  0  0  0  0  0  0  0  0  0  0  0
   30.8010   25.3890   47.6620 H   0  0  0  0  0  0  0  0  0  0  0  0
   33.0820   24.9380   46.6880 H   0  0  0  0  0  0  0  0  0  0  0  0
   34.2810   30.0240   46.5910 N   0  0  0  0  0  0  0  0  0  0  0  0
   32.9250   30.5610   46.3930 C   0  0  0  0  0  2  0  0  0  0  0  0
   32.2280   29.7440   45.3250 C   0  0  0  0  0  2  0  0  0  0  0  0
   33.0090   29.6760   44.0500 C   0  0  0  0  0  3  0  0  0  0  0  0
   33.1270   28.6150   43.7460 H   0  0  0  0  0  0  0  0  0  0  0  0
   34.4170   30.2320   44.2180 C   0  0  0  0  0  2  0  0  0  0  0  0
   35.0410   29.6070   45.4290 C   0  0  0  0  0  2  0  0  0  0  0  0
  1  2  1  0  0  0  0
  2  3  2  0  0  0  0
  2  7  1  0  0  0  0
  3  8  1  0  0  0  0
  4  9  1  0  0  0  0
  4  3  1  0  0  0  0
  5  4  2  0  0  0  0
  6  5  1  0  0  0  0
  6  1  2  0  0  0  0
 10  5  1  0  0  0  0
 11 16  1  0  0  0  0
 11 17  1  0  0  0  0
 12 11  2  0  0  0  0
 13 14  2  0  0  0  0
 13 12  1  0  0  0  0
 14 15  1  0  0  0  0
 15  1  1  0  0  0  0
 15 16  2  0  0  0  0
 18 12  1  0  0  0  0
 19 13  1  0  0  0  0
 20  6  1  0  0  0  0
 21 20  1  0  0  0  0
 22 21  1  0  0  0  0
 23 25  1  0  0  0  0
 23 22  1  0  0  0  0
 24 23  1  0  0  0  0
 25 26  1  0  0  0  0
 26 20  1  0  0  0  0
M  END
>  <minimizedAffinity>
-4.67769861

>  <minimizedRMSD>
6.6485486

$$$$
