
 OpenBabel03272501553D

 22 23  0  0  0  0  0  0  0  0999 V2000
   38.8970   22.1160   34.3280 C   0  0  0  0  0  0  0  0  0  0  0  0
   38.8370   21.0100   34.2900 H   0  0  0  0  0  0  0  0  0  0  0  0
   39.8710   22.4400   33.9020 H   0  0  0  0  0  0  0  0  0  0  0  0
   39.9860   22.7160   37.8290 C   0  0  0  0  0  0  0  0  0  0  0  0
   38.8790   23.3390   38.3930 C   0  0  0  0  0  0  0  0  0  0  0  0
   37.7450   23.5510   37.5520 C   0  0  0  0  0  0  0  0  0  0  0  0
   37.8510   23.1210   36.2670 N   0  0  0  0  0  0  0  0  0  0  0  0
   38.9530   22.5190   35.7670 C   0  0  0  0  0  0  0  0  0  0  0  0
   40.0410   22.3070   36.5460 N   0  0  0  0  0  0  0  0  0  0  0  0
   40.8080   22.5910   38.5280 H   0  0  0  0  0  0  0  0  0  0  0  0
   38.7580   23.6930   39.3970 H   0  0  0  0  0  0  0  0  0  0  0  0
   36.8260   24.0150   37.8440 H   0  0  0  0  0  0  0  0  0  0  0  0
   37.7060   22.7420   33.6560 C   0  0  0  0  0  0  0  0  0  0  0  0
   37.1690   23.3500   34.3940 H   0  0  0  0  0  0  0  0  0  0  0  0
   38.1050   23.4320   32.8870 H   0  0  0  0  0  0  0  0  0  0  0  0
   36.8380   21.8090   33.0280 N   0  0  0  0  0  0  0  0  0  0  0  0
   36.1760   20.9090   33.9200 C   0  0  0  0  0  2  0  0  0  0  0  0
   35.4190   19.8420   33.2150 C   0  0  0  0  0  2  0  0  0  0  0  0
   34.6660   20.3180   32.0030 C   0  0  0  0  0  3  0  0  0  0  0  0
   34.3510   19.4660   31.3880 H   0  0  0  0  0  0  0  0  0  0  0  0
   35.6240   21.1280   31.1180 C   0  0  0  0  0  2  0  0  0  0  0  0
   36.0320   22.3170   31.9700 C   0  0  0  0  0  2  0  0  0  0  0  0
  1  8  1  0  0  0  0
  2  1  1  0  0  0  0
  3  1  1  0  0  0  0
  4  5  1  0  0  0  0
  4 10  1  0  0  0  0
  5 11  1  0  0  0  0
  6 12  1  0  0  0  0
  6  5  2  0  0  0  0
  7  6  1  0  0  0  0
  8  7  2  0  0  0  0
  8  9  1  0  0  0  0
  9  4  2  0  0  0  0
 13  1  1  0  0  0  0
 13 14  1  0  0  0  0
 15 13  1  0  0  0  0
 16 13  1  0  0  0  0
 16 17  1  0  0  0  0
 18 17  1  0  0  0  0
 19 18  1  0  0  0  0
 20 19  1  0  0  0  0
 21 22  1  0  0  0  0
 21 19  1  0  0  0  0
 22 16  1  0  0  0  0
M  END
>  <minimizedAffinity>
-4.24871969

$$$$

 OpenBabel03272501553D

 22 23  0  0  0  0  0  0  0  0999 V2000
   38.2640   25.0380   33.7160 C   0  0  0  0  0  0  0  0  0  0  0  0
   38.1340   25.8430   34.4670 H   0  0  0  0  0  0  0  0  0  0  0  0
   39.1940   25.2270   33.1400 H   0  0  0  0  0  0  0  0  0  0  0  0
   35.6690   26.3650   31.4130 C   0  0  0  0  0  0  0  0  0  0  0  0
   35.1320   25.2110   30.8560 C   0  0  0  0  0  0  0  0  0  0  0  0
   35.6730   23.9610   31.2850 C   0  0  0  0  0  0  0  0  0  0  0  0
   36.6710   24.0140   32.2060 N   0  0  0  0  0  0  0  0  0  0  0  0
   37.1590   25.1670   32.7160 C   0  0  0  0  0  0  0  0  0  0  0  0
   36.6610   26.3640   32.3250 N   0  0  0  0  0  0  0  0  0  0  0  0
   35.2070   27.2750   31.0370 H   0  0  0  0  0  0  0  0  0  0  0  0
   34.3480   25.1280   30.1290 H   0  0  0  0  0  0  0  0  0  0  0  0
   35.3630   22.9950   30.9470 H   0  0  0  0  0  0  0  0  0  0  0  0
   38.2220   23.6830   34.3690 C   0  0  0  0  0  0  0  0  0  0  0  0
   37.2310   23.2450   34.2000 H   0  0  0  0  0  0  0  0  0  0  0  0
   38.9580   23.0530   33.8330 H   0  0  0  0  0  0  0  0  0  0  0  0
   38.5500   23.6960   35.7510 N   0  0  0  0  0  0  0  0  0  0  0  0
   37.5810   24.3250   36.5940 C   0  0  0  0  0  2  0  0  0  0  0  0
   38.0400   24.4730   38.0000 C   0  0  0  0  0  2  0  0  0  0  0  0
   38.7740   23.2760   38.5380 C   0  0  0  0  0  3  0  0  0  0  0  0
   39.3050   23.5360   39.4610 H   0  0  0  0  0  0  0  0  0  0  0  0
   39.8680   22.8810   37.5350 C   0  0  0  0  0  2  0  0  0  0  0  0
   39.1190   22.4990   36.2700 C   0  0  0  0  0  2  0  0  0  0  0  0
  1 13  1  0  0  0  0
  1  2  1  0  0  0  0
  3  1  1  0  0  0  0
  4  9  1  0  0  0  0
  5  6  1  0  0  0  0
  5  4  2  0  0  0  0
  6  7  2  0  0  0  0
  7  8  1  0  0  0  0
  8  1  1  0  0  0  0
  9  8  2  0  0  0  0
 10  4  1  0  0  0  0
 11  5  1  0  0  0  0
 12  6  1  0  0  0  0
 13 16  1  0  0  0  0
 14 13  1  0  0  0  0
 15 13  1  0  0  0  0
 16 22  1  0  0  0  0
 16 17  1  0  0  0  0
 17 18  1  0  0  0  0
 18 19  1  0  0  0  0
 19 20  1  0  0  0  0
 21 19  1  0  0  0  0
 22 21  1  0  0  0  0
M  END
>  <minimizedAffinity>
-4.23178387

$$$$

 OpenBabel03272501553D

 22 23  0  0  0  0  0  0  0  0999 V2000
   35.6380   24.2150   31.1200 C   0  0  0  0  0  0  0  0  0  0  0  0
   35.5560   24.4000   30.0300 H   0  0  0  0  0  0  0  0  0  0  0  0
   34.6240   24.0300   31.5330 H   0  0  0  0  0  0  0  0  0  0  0  0
   37.3090   26.7150   33.3010 C   0  0  0  0  0  0  0  0  0  0  0  0
   36.8210   27.9220   32.8150 C   0  0  0  0  0  0  0  0  0  0  0  0
   35.9030   27.8680   31.7230 C   0  0  0  0  0  0  0  0  0  0  0  0
   35.5870   26.6330   31.2540 N   0  0  0  0  0  0  0  0  0  0  0  0
   36.0910   25.4870   31.7640 C   0  0  0  0  0  0  0  0  0  0  0  0
   36.9630   25.5120   32.8000 N   0  0  0  0  0  0  0  0  0  0  0  0
   38.0020   26.8360   34.1290 H   0  0  0  0  0  0  0  0  0  0  0  0
   37.0470   28.9130   33.1560 H   0  0  0  0  0  0  0  0  0  0  0  0
   35.4460   28.7100   31.2470 H   0  0  0  0  0  0  0  0  0  0  0  0
   36.6170   23.1080   31.4040 C   0  0  0  0  0  0  0  0  0  0  0  0
   37.0930   22.8130   30.4620 H   0  0  0  0  0  0  0  0  0  0  0  0
   37.4040   23.5440   32.0510 H   0  0  0  0  0  0  0  0  0  0  0  0
   36.0480   21.9880   32.0670 N   0  0  0  0  0  0  0  0  0  0  0  0
   35.5460   20.9670   31.2000 C   0  0  0  0  0  2  0  0  0  0  0  0
   34.8050   19.9010   31.9240 C   0  0  0  0  0  2  0  0  0  0  0  0
   35.4410   19.4780   33.2200 C   0  0  0  0  0  3  0  0  0  0  0  0
   34.7350   18.8970   33.8220 H   0  0  0  0  0  0  0  0  0  0  0  0
   35.7460   20.7350   34.0480 C   0  0  0  0  0  2  0  0  0  0  0  0
   36.7460   21.5190   33.2160 C   0  0  0  0  0  2  0  0  0  0  0  0
  1 13  1  0  0  0  0
  1  3  1  0  0  0  0
  1  8  1  0  0  0  0
  2  1  1  0  0  0  0
  4 10  1  0  0  0  0
  5 11  1  0  0  0  0
  5  4  1  0  0  0  0
  6  5  2  0  0  0  0
  7  6  1  0  0  0  0
  7  8  2  0  0  0  0
  8  9  1  0  0  0  0
  9  4  2  0  0  0  0
 12  6  1  0  0  0  0
 13 15  1  0  0  0  0
 13 16  1  0  0  0  0
 14 13  1  0  0  0  0
 16 22  1  0  0  0  0
 17 18  1  0  0  0  0
 17 16  1  0  0  0  0
 18 19  1  0  0  0  0
 19 20  1  0  0  0  0
 19 21  1  0  0  0  0
 22 21  1  0  0  0  0
M  END
>  <minimizedAffinity>
-4.10325718

$$$$

 OpenBabel03272501553D

 22 23  0  0  0  0  0  0  0  0999 V2000
   38.2790   25.0690   33.9360 C   0  0  0  0  0  0  0  0  0  0  0  0
   37.9270   25.6310   34.8250 H   0  0  0  0  0  0  0  0  0  0  0  0
   39.1690   25.5820   33.5130 H   0  0  0  0  0  0  0  0  0  0  0  0
   35.7860   26.3710   31.5090 C   0  0  0  0  0  0  0  0  0  0  0  0
   35.3040   25.2120   30.9120 C   0  0  0  0  0  0  0  0  0  0  0  0
   35.8470   23.9690   31.3570 C   0  0  0  0  0  0  0  0  0  0  0  0
   36.7920   24.0310   32.3310 N   0  0  0  0  0  0  0  0  0  0  0  0
   37.2270   25.1870   32.8790 C   0  0  0  0  0  0  0  0  0  0  0  0
   36.7270   26.3790   32.4730 N   0  0  0  0  0  0  0  0  0  0  0  0
   35.3280   27.2750   31.1180 H   0  0  0  0  0  0  0  0  0  0  0  0
   34.5630   25.1220   30.1430 H   0  0  0  0  0  0  0  0  0  0  0  0
   35.5740   23.0000   30.9930 H   0  0  0  0  0  0  0  0  0  0  0  0
   38.5180   23.6230   34.2750 C   0  0  0  0  0  0  0  0  0  0  0  0
   37.7230   23.0220   33.8200 H   0  0  0  0  0  0  0  0  0  0  0  0
   39.4700   23.3390   33.7830 H   0  0  0  0  0  0  0  0  0  0  0  0
   38.6280   23.3650   35.6680 N   0  0  0  0  0  0  0  0  0  0  0  0
   39.9590   23.1330   36.1330 C   0  0  0  0  0  2  0  0  0  0  0  0
   40.0120   22.6950   37.5530 C   0  0  0  0  0  2  0  0  0  0  0  0
   39.0640   23.4300   38.4600 C   0  0  0  0  0  3  0  0  0  0  0  0
   38.9580   22.9010   39.4140 H   0  0  0  0  0  0  0  0  0  0  0  0
   37.6660   23.4110   37.8250 C   0  0  0  0  0  2  0  0  0  0  0  0
   37.8190   24.1700   36.5180 C   0  0  0  0  0  2  0  0  0  0  0  0
  1 13  1  0  0  0  0
  1  2  1  0  0  0  0
  3  1  1  0  0  0  0
  4  9  1  0  0  0  0
  5  6  1  0  0  0  0
  5  4  2  0  0  0  0
  6  7  2  0  0  0  0
  7  8  1  0  0  0  0
  8  1  1  0  0  0  0
  9  8  2  0  0  0  0
 10  4  1  0  0  0  0
 11  5  1  0  0  0  0
 12  6  1  0  0  0  0
 13 16  1  0  0  0  0
 14 13  1  0  0  0  0
 15 13  1  0  0  0  0
 16 17  1  0  0  0  0
 16 22  1  0  0  0  0
 17 18  1  0  0  0  0
 18 19  1  0  0  0  0
 19 20  1  0  0  0  0
 21 19  1  0  0  0  0
 22 21  1  0  0  0  0
M  END
>  <minimizedAffinity>
-4.04799747

$$$$

 OpenBabel03272501553D

 22 23  0  0  0  0  0  0  0  0999 V2000
   37.6920   21.9910   34.7140 C   0  0  0  0  0  0  0  0  0  0  0  0
   36.6210   22.2750   34.7040 H   0  0  0  0  0  0  0  0  0  0  0  0
   37.7730   20.8830   34.7230 H   0  0  0  0  0  0  0  0  0  0  0  0
   39.9870   22.7140   37.5440 C   0  0  0  0  0  0  0  0  0  0  0  0
   39.1470   23.3100   38.4770 C   0  0  0  0  0  0  0  0  0  0  0  0
   37.7720   23.4600   38.1220 C   0  0  0  0  0  0  0  0  0  0  0  0
   37.4060   23.0030   36.8960 N   0  0  0  0  0  0  0  0  0  0  0  0
   38.2660   22.4300   36.0240 C   0  0  0  0  0  0  0  0  0  0  0  0
   39.5740   22.2760   36.3380 N   0  0  0  0  0  0  0  0  0  0  0  0
   41.0160   22.6360   37.8850 H   0  0  0  0  0  0  0  0  0  0  0  0
   39.3960   23.6830   39.4510 H   0  0  0  0  0  0  0  0  0  0  0  0
   37.0110   23.8970   38.7340 H   0  0  0  0  0  0  0  0  0  0  0  0
   38.4310   22.6410   33.5760 C   0  0  0  0  0  0  0  0  0  0  0  0
   39.1450   23.3610   33.9900 H   0  0  0  0  0  0  0  0  0  0  0  0
   39.0160   21.8400   33.0830 H   0  0  0  0  0  0  0  0  0  0  0  0
   37.5860   23.2510   32.6100 N   0  0  0  0  0  0  0  0  0  0  0  0
   36.4200   22.4980   32.2700 C   0  0  0  0  0  2  0  0  0  0  0  0
   35.6580   23.0840   31.1350 C   0  0  0  0  0  2  0  0  0  0  0  0
   35.5440   24.5830   31.1780 C   0  0  0  0  0  3  0  0  0  0  0  0
   35.2120   24.9690   30.2080 H   0  0  0  0  0  0  0  0  0  0  0  0
   36.9440   25.1740   31.3960 C   0  0  0  0  0  2  0  0  0  0  0  0
   37.3820   24.6530   32.7540 C   0  0  0  0  0  2  0  0  0  0  0  0
  1  3  1  0  0  0  0
  1  8  1  0  0  0  0
  2  1  1  0  0  0  0
  4 10  1  0  0  0  0
  4  5  1  0  0  0  0
  5 11  1  0  0  0  0
  6  5  2  0  0  0  0
  6 12  1  0  0  0  0
  7  6  1  0  0  0  0
  8  9  1  0  0  0  0
  8  7  2  0  0  0  0
  9  4  2  0  0  0  0
 13 14  1  0  0  0  0
 13  1  1  0  0  0  0
 15 13  1  0  0  0  0
 16 22  1  0  0  0  0
 16 13  1  0  0  0  0
 17 16  1  0  0  0  0
 18 19  1  0  0  0  0
 18 17  1  0  0  0  0
 19 21  1  0  0  0  0
 20 19  1  0  0  0  0
 21 22  1  0  0  0  0
M  END
>  <minimizedAffinity>
-4.04674339

$$$$

 OpenBabel03272501553D

 22 23  0  0  0  0  0  0  0  0999 V2000
   38.8530   22.5540   35.9660 C   0  0  0  0  0  0  0  0  0  0  0  0
   39.6500   22.8050   35.2390 H   0  0  0  0  0  0  0  0  0  0  0  0
   39.2280   21.7730   36.6600 H   0  0  0  0  0  0  0  0  0  0  0  0
   36.6970   21.1510   33.2860 C   0  0  0  0  0  0  0  0  0  0  0  0
   35.6100   20.6530   33.9950 C   0  0  0  0  0  0  0  0  0  0  0  0
   35.6240   20.8080   35.4140 C   0  0  0  0  0  0  0  0  0  0  0  0
   36.7070   21.4320   35.9480 N   0  0  0  0  0  0  0  0  0  0  0  0
   37.7400   21.8980   35.2120 C   0  0  0  0  0  0  0  0  0  0  0  0
   37.7490   21.7640   33.8640 N   0  0  0  0  0  0  0  0  0  0  0  0
   36.6160   20.9950   32.2140 H   0  0  0  0  0  0  0  0  0  0  0  0
   34.7420   20.1550   33.6120 H   0  0  0  0  0  0  0  0  0  0  0  0
   34.8610   20.4780   36.0880 H   0  0  0  0  0  0  0  0  0  0  0  0
   38.3530   23.7910   36.6630 C   0  0  0  0  0  0  0  0  0  0  0  0
   37.2580   23.7590   36.6880 H   0  0  0  0  0  0  0  0  0  0  0  0
   38.7090   23.7270   37.7100 H   0  0  0  0  0  0  0  0  0  0  0  0
   38.8200   25.0060   36.0940 N   0  0  0  0  0  0  0  0  0  0  0  0
   39.9320   24.8650   35.2060 C   0  0  0  0  0  2  0  0  0  0  0  0
   40.4990   26.1690   34.7710 C   0  0  0  0  0  2  0  0  0  0  0  0
   39.4670   27.2140   34.4510 C   0  0  0  0  0  3  0  0  0  0  0  0
   39.9300   28.2050   34.3940 H   0  0  0  0  0  0  0  0  0  0  0  0
   38.4720   27.2940   35.6180 C   0  0  0  0  0  2  0  0  0  0  0  0
   37.8190   25.9240   35.6710 C   0  0  0  0  0  2  0  0  0  0  0  0
  1  3  1  0  0  0  0
  1 13  1  0  0  0  0
  2  1  1  0  0  0  0
  4  9  2  0  0  0  0
  4  5  1  0  0  0  0
  5  6  2  0  0  0  0
  6  7  1  0  0  0  0
  6 12  1  0  0  0  0
  8  7  2  0  0  0  0
  8  1  1  0  0  0  0
  9  8  1  0  0  0  0
 10  4  1  0  0  0  0
 11  5  1  0  0  0  0
 13 14  1  0  0  0  0
 13 15  1  0  0  0  0
 16 13  1  0  0  0  0
 17 16  1  0  0  0  0
 18 17  1  0  0  0  0
 19 18  1  0  0  0  0
 19 21  1  0  0  0  0
 20 19  1  0  0  0  0
 21 22  1  0  0  0  0
 22 16  1  0  0  0  0
M  END
>  <minimizedAffinity>
-4.03326797

$$$$

 OpenBabel03272501553D

 22 23  0  0  0  0  0  0  0  0999 V2000
   38.5630   23.6550   34.3860 C   0  0  0  0  0  0  0  0  0  0  0  0
   39.3740   24.3250   34.0370 H   0  0  0  0  0  0  0  0  0  0  0  0
   37.5820   24.1220   34.1550 H   0  0  0  0  0  0  0  0  0  0  0  0
   37.8430   24.0780   38.0050 C   0  0  0  0  0  0  0  0  0  0  0  0
   38.8970   23.4040   38.6100 C   0  0  0  0  0  0  0  0  0  0  0  0
   39.8660   22.7980   37.7550 C   0  0  0  0  0  0  0  0  0  0  0  0
   39.6700   22.9380   36.4170 N   0  0  0  0  0  0  0  0  0  0  0  0
   38.6260   23.6060   35.8800 C   0  0  0  0  0  0  0  0  0  0  0  0
   37.6930   24.1890   36.6710 N   0  0  0  0  0  0  0  0  0  0  0  0
   37.1470   24.5100   38.7190 H   0  0  0  0  0  0  0  0  0  0  0  0
   39.0850   23.2710   39.6570 H   0  0  0  0  0  0  0  0  0  0  0  0
   40.7280   22.2500   38.0740 H   0  0  0  0  0  0  0  0  0  0  0  0
   38.7240   22.2730   33.8120 C   0  0  0  0  0  0  0  0  0  0  0  0
   39.5720   22.2800   33.1180 H   0  0  0  0  0  0  0  0  0  0  0  0
   38.9940   21.6110   34.6580 H   0  0  0  0  0  0  0  0  0  0  0  0
   37.5530   21.7650   33.1880 N   0  0  0  0  0  0  0  0  0  0  0  0
   36.6110   21.1620   34.0790 C   0  0  0  0  0  2  0  0  0  0  0  0
   35.4880   20.4910   33.3730 C   0  0  0  0  0  2  0  0  0  0  0  0
   34.9560   21.2570   32.1930 C   0  0  0  0  0  3  0  0  0  0  0  0
   34.3260   20.6120   31.5700 H   0  0  0  0  0  0  0  0  0  0  0  0
   36.1370   21.6630   31.2990 C   0  0  0  0  0  2  0  0  0  0  0  0
   36.9870   22.5760   32.1650 C   0  0  0  0  0  2  0  0  0  0  0  0
  1  8  1  0  0  0  0
  2  1  1  0  0  0  0
  3  1  1  0  0  0  0
  4  5  1  0  0  0  0
  4 10  1  0  0  0  0
  5 11  1  0  0  0  0
  6 12  1  0  0  0  0
  6  5  2  0  0  0  0
  7  6  1  0  0  0  0
  8  7  2  0  0  0  0
  8  9  1  0  0  0  0
  9  4  2  0  0  0  0
 13  1  1  0  0  0  0
 13 15  1  0  0  0  0
 14 13  1  0  0  0  0
 16 13  1  0  0  0  0
 16 17  1  0  0  0  0
 18 17  1  0  0  0  0
 19 18  1  0  0  0  0
 20 19  1  0  0  0  0
 21 22  1  0  0  0  0
 21 19  1  0  0  0  0
 22 16  1  0  0  0  0
M  END
>  <minimizedAffinity>
-4.03128672

$$$$

 OpenBabel03272501553D

 22 23  0  0  0  0  0  0  0  0999 V2000
   38.5140   22.9090   33.5340 C   0  0  0  0  0  0  0  0  0  0  0  0
   38.9690   23.3420   32.6210 H   0  0  0  0  0  0  0  0  0  0  0  0
   39.1830   22.1150   33.9300 H   0  0  0  0  0  0  0  0  0  0  0  0
   35.5480   20.6740   33.4350 C   0  0  0  0  0  0  0  0  0  0  0  0
   34.9660   20.9900   32.2130 C   0  0  0  0  0  0  0  0  0  0  0  0
   35.6090   21.9850   31.4160 C   0  0  0  0  0  0  0  0  0  0  0  0
   36.7400   22.5370   31.9270 N   0  0  0  0  0  0  0  0  0  0  0  0
   37.2660   22.1930   33.1240 C   0  0  0  0  0  0  0  0  0  0  0  0
   36.6740   21.2520   33.8980 N   0  0  0  0  0  0  0  0  0  0  0  0
   35.0020   19.9120   33.9830 H   0  0  0  0  0  0  0  0  0  0  0  0
   34.0770   20.5790   31.7770 H   0  0  0  0  0  0  0  0  0  0  0  0
   35.2790   22.3300   30.4580 H   0  0  0  0  0  0  0  0  0  0  0  0
   38.1940   23.9840   34.5370 C   0  0  0  0  0  0  0  0  0  0  0  0
   38.7510   24.8890   34.2680 H   0  0  0  0  0  0  0  0  0  0  0  0
   37.1160   24.2120   34.4200 H   0  0  0  0  0  0  0  0  0  0  0  0
   38.4400   23.6100   35.8850 N   0  0  0  0  0  0  0  0  0  0  0  0
   39.7870   23.2230   36.1660 C   0  0  0  0  0  2  0  0  0  0  0  0
   39.9620   22.6740   37.5360 C   0  0  0  0  0  2  0  0  0  0  0  0
   39.2040   23.4190   38.6010 C   0  0  0  0  0  3  0  0  0  0  0  0
   39.1590   22.8290   39.5230 H   0  0  0  0  0  0  0  0  0  0  0  0
   37.7460   23.5760   38.1440 C   0  0  0  0  0  2  0  0  0  0  0  0
   37.8200   24.4160   36.8810 C   0  0  0  0  0  2  0  0  0  0  0  0
  1  3  1  0  0  0  0
  1 13  1  0  0  0  0
  2  1  1  0  0  0  0
  4  9  1  0  0  0  0
  4 10  1  0  0  0  0
  5  4  2  0  0  0  0
  6  7  2  0  0  0  0
  6  5  1  0  0  0  0
  7  8  1  0  0  0  0
  8  1  1  0  0  0  0
  8  9  2  0  0  0  0
 11  5  1  0  0  0  0
 12  6  1  0  0  0  0
 13 16  1  0  0  0  0
 14 13  1  0  0  0  0
 15 13  1  0  0  0  0
 16 17  1  0  0  0  0
 16 22  1  0  0  0  0
 17 18  1  0  0  0  0
 18 19  1  0  0  0  0
 19 20  1  0  0  0  0
 21 19  1  0  0  0  0
 22 21  1  0  0  0  0
M  END
>  <minimizedAffinity>
-4.00758791

$$$$

 OpenBabel03272501553D

 22 23  0  0  0  0  0  0  0  0999 V2000
   39.1520   24.7540   34.4900 C   0  0  0  0  0  0  0  0  0  0  0  0
   40.0660   24.2760   34.0850 H   0  0  0  0  0  0  0  0  0  0  0  0
   39.3210   25.8490   34.5680 H   0  0  0  0  0  0  0  0  0  0  0  0
   37.9420   24.2640   37.9670 C   0  0  0  0  0  0  0  0  0  0  0  0
   38.8150   23.3060   38.4650 C   0  0  0  0  0  0  0  0  0  0  0  0
   39.8340   22.8260   37.5880 C   0  0  0  0  0  0  0  0  0  0  0  0
   39.8590   23.3550   36.3360 N   0  0  0  0  0  0  0  0  0  0  0  0
   38.9830   24.2880   35.9010 C   0  0  0  0  0  0  0  0  0  0  0  0
   38.0080   24.7580   36.7150 N   0  0  0  0  0  0  0  0  0  0  0  0
   37.1940   24.5780   38.6910 H   0  0  0  0  0  0  0  0  0  0  0  0
   38.8280   22.8640   39.4420 H   0  0  0  0  0  0  0  0  0  0  0  0
   40.5750   22.0930   37.8290 H   0  0  0  0  0  0  0  0  0  0  0  0
   37.9450   24.3860   33.6700 C   0  0  0  0  0  0  0  0  0  0  0  0
   38.2120   23.5500   33.0130 H   0  0  0  0  0  0  0  0  0  0  0  0
   37.1820   24.0160   34.3830 H   0  0  0  0  0  0  0  0  0  0  0  0
   37.3960   25.4680   32.9300 N   0  0  0  0  0  0  0  0  0  0  0  0
   36.3880   25.1000   31.9860 C   0  0  0  0  0  2  0  0  0  0  0  0
   35.9660   26.2280   31.1150 C   0  0  0  0  0  2  0  0  0  0  0  0
   35.8160   27.5400   31.8340 C   0  0  0  0  0  3  0  0  0  0  0  0
   35.7640   28.3670   31.1160 H   0  0  0  0  0  0  0  0  0  0  0  0
   37.0870   27.7940   32.6580 C   0  0  0  0  0  2  0  0  0  0  0  0
   37.1340   26.6590   33.6650 C   0  0  0  0  0  2  0  0  0  0  0  0
  1  3  1  0  0  0  0
  1  8  1  0  0  0  0
  2  1  1  0  0  0  0
  4  5  1  0  0  0  0
  4 10  1  0  0  0  0
  5 11  1  0  0  0  0
  6 12  1  0  0  0  0
  6  5  2  0  0  0  0
  7  6  1  0  0  0  0
  8  7  2  0  0  0  0
  8  9  1  0  0  0  0
  9  4  2  0  0  0  0
 13 15  1  0  0  0  0
 13  1  1  0  0  0  0
 14 13  1  0  0  0  0
 16 22  1  0  0  0  0
 16 13  1  0  0  0  0
 17 16  1  0  0  0  0
 18 19  1  0  0  0  0
 18 17  1  0  0  0  0
 19 21  1  0  0  0  0
 20 19  1  0  0  0  0
 21 22  1  0  0  0  0
M  END
>  <minimizedAffinity>
-3.93792081

$$$$
