
 OpenBabel03272501533D

 22 23  0  0  0  0  0  0  0  0999 V2000
   34.8720   28.2890   49.4400 C   0  0  0  0  0  0  0  0  0  0  0  0
   34.0510   28.4330   50.1690 H   0  0  0  0  0  0  0  0  0  0  0  0
   35.2650   27.2550   49.5360 H   0  0  0  0  0  0  0  0  0  0  0  0
   37.3410   30.2440   51.4110 C   0  0  0  0  0  0  0  0  0  0  0  0
   38.1410   30.8110   50.4270 C   0  0  0  0  0  0  0  0  0  0  0  0
   37.8200   30.5140   49.0680 C   0  0  0  0  0  0  0  0  0  0  0  0
   36.7540   29.6990   48.8580 N   0  0  0  0  0  0  0  0  0  0  0  0
   36.0070   29.1720   49.8530 C   0  0  0  0  0  0  0  0  0  0  0  0
   36.2910   29.4400   51.1500 N   0  0  0  0  0  0  0  0  0  0  0  0
   37.6470   30.5140   52.4180 H   0  0  0  0  0  0  0  0  0  0  0  0
   38.9890   31.4560   50.5510 H   0  0  0  0  0  0  0  0  0  0  0  0
   38.3430   30.8770   48.2070 H   0  0  0  0  0  0  0  0  0  0  0  0
   34.4210   28.6370   48.0470 C   0  0  0  0  0  0  0  0  0  0  0  0
   34.7790   29.6440   47.8060 H   0  0  0  0  0  0  0  0  0  0  0  0
   34.9350   27.9310   47.3650 H   0  0  0  0  0  0  0  0  0  0  0  0
   33.0190   28.5270   47.8480 N   0  0  0  0  0  0  0  0  0  0  0  0
   32.5570   28.9640   46.5680 C   0  0  0  0  0  0  0  0  0  0  0  0
   31.0740   28.9980   46.4640 C   0  0  0  0  0  0  0  0  0  0  0  0
   30.3840   27.8240   47.1020 C   0  0  0  0  0  0  0  0  0  0  0  0
   29.3150   28.0290   47.2240 H   0  0  0  0  0  0  0  0  0  0  0  0
   30.9330   27.6480   48.5250 C   0  0  0  0  0  0  0  0  0  0  0  0
   32.4080   27.3400   48.3410 C   0  0  0  0  0  0  0  0  0  0  0  0
  1  3  1  0  0  0  0
  1  8  1  0  0  0  0
  1  2  1  0  0  0  0
  4 10  1  0  0  0  0
  5 11  1  0  0  0  0
  5  4  2  0  0  0  0
  6  5  1  0  0  0  0
  7  6  2  0  0  0  0
  7  8  1  0  0  0  0
  8  9  2  0  0  0  0
  9  4  1  0  0  0  0
 12  6  1  0  0  0  0
 13  1  1  0  0  0  0
 14 13  1  0  0  0  0
 15 13  1  0  0  0  0
 16 13  1  0  0  0  0
 16 22  1  0  0  0  0
 17 16  1  0  0  0  0
 18 17  1  0  0  0  0
 18 19  1  0  0  0  0
 19 20  1  0  0  0  0
 19 21  1  0  0  0  0
 22 21  1  0  0  0  0
M  END
>  <minimizedAffinity>
-4.27717209

>  <minimizedRMSD>
1.20610178

$$$$
