
 OpenBabel03272501373D

 43 47  0  0  1  0  0  0  0  0999 V2000
   37.6460   30.8130   50.6460 C   0  0  0  0  0  0  0  0  0  0  0  0
   38.3860   31.4690   49.6930 C   0  0  0  0  0  0  0  0  0  0  0  0
   38.0590   31.4330   48.3290 C   0  0  0  0  0  0  0  0  0  0  0  0
   37.0020   30.7450   47.9910 N   0  0  0  0  0  0  0  0  0  0  0  0
   36.2700   30.0960   48.9520 C   0  0  0  0  0  0  0  0  0  0  0  0
   36.5830   30.1280   50.2420 N   0  0  0  0  0  0  0  0  0  0  0  0
   37.9210   30.8550   51.6930 H   0  0  0  0  0  0  0  0  0  0  0  0
   39.2530   32.0210   50.0640 H   0  0  0  0  0  0  0  0  0  0  0  0
   35.0780   29.3320   48.5930 C   0  0  0  0  0  0  0  0  0  0  0  0
   34.5430   28.1840   49.1120 C   0  0  0  0  0  0  0  0  0  0  0  0
   33.4140   27.6530   48.6230 C   0  0  0  0  0  0  0  0  0  0  0  0
   32.8320   28.3700   47.5420 C   0  0  0  0  0  0  0  0  0  0  0  0
   33.9710   29.7820   47.3020 S   0  0  0  0  0  0  0  0  0  0  0  0
   35.0880   27.7350   49.9380 H   0  0  0  0  0  0  0  0  0  0  0  0
   32.9170   26.7600   48.9600 H   0  0  0  0  0  0  0  0  0  0  0  0
   31.6800   28.1580   46.7780 N   0  0  0  0  0  0  0  0  0  0  0  0
   31.1740   26.8290   46.4050 C   0  0  0  0  0  0  0  0  0  0  0  0
   29.7340   26.6770   46.8550 C   0  0  0  0  0  0  0  0  0  0  0  0
   28.8820   27.8260   46.3470 C   0  0  0  0  0  0  0  0  0  0  0  0
   28.8470   27.7890   45.2460 H   0  0  0  0  0  0  0  0  0  0  0  0
   29.4860   29.1200   46.8640 C   0  0  0  0  0  0  0  0  0  0  0  0
   30.8700   29.2510   46.2700 C   0  0  0  0  0  0  0  0  0  0  0  0
   38.9950   32.0920   47.4530 C   0  0  1  0  0  0  0  0  0  0  0  0
   39.9730   31.7600   47.9910 H   0  0  0  0  0  0  0  0  0  0  0  0
   39.0980   31.5380   46.0470 C   0  0  2  0  0  0  0  0  0  0  0  0
   40.5660   31.1870   45.8200 C   0  0  0  0  0  0  0  0  0  0  0  0
   39.8580   32.2440   45.0450 C   0  0  1  0  0  0  0  0  0  0  0  0
   38.3570   30.7560   45.7940 H   0  0  0  0  0  0  0  0  0  0  0  0
   41.3880   31.5560   46.4280 H   0  0  0  0  0  0  0  0  0  0  0  0
   40.7400   30.2010   45.3530 H   0  0  0  0  0  0  0  0  0  0  0  0
   39.9870   33.3280   45.2510 H   0  0  0  0  0  0  0  0  0  0  0  0
   39.8100   31.9850   43.5990 C   0  0  0  0  0  0  0  0  0  0  0  0
   39.1140   32.8700   42.8150 C   0  0  0  0  0  0  0  0  0  0  0  0
   39.1070   32.6210   41.4640 C   0  0  0  0  0  0  0  0  0  0  0  0
   39.7490   31.5550   40.8860 C   0  0  0  0  0  0  0  0  0  0  0  0
   40.4450   30.6790   41.7120 C   0  0  0  0  0  0  0  0  0  0  0  0
   40.4610   30.9090   43.0380 N   0  0  0  0  0  0  0  0  0  0  0  0
   38.5790   33.7310   43.1550 H   0  0  0  0  0  0  0  0  0  0  0  0
   38.5760   33.2780   40.7650 H   0  0  0  0  0  0  0  0  0  0  0  0
   39.7820   31.3090   39.8520 H   0  0  0  0  0  0  0  0  0  0  0  0
   41.0080   29.7920   41.4560 H   0  0  0  0  0  0  0  0  0  0  0  0
   39.2410   33.3650   47.5390 O   0  0  0  0  0  0  0  0  0  0  0  0
   38.4540   33.9710   47.5310 H   0  0  0  0  0  0  0  0  0  0  0  0
  1  7  1  0  0  0  0
  2  8  1  0  0  0  0
  2  1  2  0  0  0  0
  3  2  1  0  0  0  0
  4  3  2  0  0  0  0
  4  5  1  0  0  0  0
  5  6  2  0  0  0  0
  6  1  1  0  0  0  0
  9  5  1  0  0  0  0
  9 10  2  0  0  0  0
 10 14  1  0  0  0  0
 11 15  1  0  0  0  0
 11 10  1  0  0  0  0
 12 11  2  0  0  0  0
 13 12  1  0  0  0  0
 13  9  1  0  0  0  0
 16 12  1  0  0  0  0
 17 16  1  0  0  0  0
 17 18  1  0  0  0  0
 19 18  1  0  0  0  0
 19 21  1  0  0  0  0
 20 19  1  0  0  0  0
 22 16  1  0  0  0  0
 22 21  1  0  0  0  0
 23 42  1  0  0  0  0
 23 24  1  1  0  0  0
 23  3  1  0  0  0  0
 25 28  1  6  0  0  0
 25 23  1  0  0  0  0
 26 25  1  0  0  0  0
 26 29  1  0  0  0  0
 27 31  1  1  0  0  0
 27 26  1  0  0  0  0
 27 25  1  0  0  0  0
 30 26  1  0  0  0  0
 32 27  1  0  0  0  0
 33 38  1  0  0  0  0
 33 32  2  0  0  0  0
 34 33  1  0  0  0  0
 35 34  2  0  0  0  0
 35 36  1  0  0  0  0
 36 37  2  0  0  0  0
 37 32  1  0  0  0  0
 39 34  1  0  0  0  0
 40 35  1  0  0  0  0
 41 36  1  0  0  0  0
 43 42  1  0  0  0  0
M  END
>  <minimizedAffinity>
-6.88418913

>  <minimizedRMSD>
0.588913143

$$$$
