
 OpenBabel03272506523D

 32 34  0  0  1  0  0  0  0  0999 V2000
   36.6750   23.4900   30.9350 C   0  0  1  0  0  0  0  0  0  0  0  0
   35.8700   24.7060   31.0160 C   0  0  0  0  0  0  0  0  0  0  0  0
   36.3480   25.7830   31.9520 C   0  0  0  0  0  0  0  0  0  0  0  0
   37.8210   25.9530   32.0400 C   0  0  2  0  0  0  0  0  0  0  0  0
   38.6580   24.7200   31.9530 C   0  0  0  0  0  0  0  0  0  0  0  0
   38.1490   23.7700   30.9130 C   0  0  0  0  0  0  0  0  0  0  0  0
   36.4840   23.0140   29.9190 H   0  0  0  0  0  0  0  0  0  0  0  0
   35.9750   25.2080   29.9980 H   0  0  0  0  0  0  0  0  0  0  0  0
   34.7990   24.6060   31.1300 H   0  0  0  0  0  0  0  0  0  0  0  0
   35.9020   26.7540   31.6510 H   0  0  0  0  0  0  0  0  0  0  0  0
   35.8660   25.5330   32.9390 H   0  0  0  0  0  0  0  0  0  0  0  0
   38.1200   26.5990   31.1810 H   0  0  0  0  0  0  0  0  0  0  0  0
   38.7260   24.1710   32.9150 H   0  0  0  0  0  0  0  0  0  0  0  0
   39.6830   25.0170   31.6110 H   0  0  0  0  0  0  0  0  0  0  0  0
   38.3010   24.3240   29.9300 H   0  0  0  0  0  0  0  0  0  0  0  0
   38.8070   22.9190   30.8460 H   0  0  0  0  0  0  0  0  0  0  0  0
   36.9620   22.1890   33.1010 C   0  0  0  0  0  0  0  0  0  0  0  0
   36.3030   22.3930   31.8640 C   0  0  0  0  0  0  0  0  0  0  0  0
   35.2780   21.5230   31.5440 C   0  0  0  0  0  0  0  0  0  0  0  0
   34.9480   20.5280   32.4070 N   0  0  0  0  0  0  0  0  0  0  0  0
   35.6060   20.3660   33.5850 C   0  0  0  0  0  0  0  0  0  0  0  0
   36.6160   21.2050   33.9250 N   0  0  0  0  0  0  0  0  0  0  0  0
   37.7700   22.8310   33.4130 H   0  0  0  0  0  0  0  0  0  0  0  0
   34.6810   21.5460   30.6490 H   0  0  0  0  0  0  0  0  0  0  0  0
   35.3290   19.5610   34.2650 H   0  0  0  0  0  0  0  0  0  0  0  0
   38.1020   26.6590   33.2280 N   0  0  0  0  0  0  0  0  0  0  0  0
   39.4030   27.0870   33.5050 C   0  0  0  0  0  2  0  0  0  0  0  0
   39.8220   26.7330   34.9250 C   0  0  0  0  0  2  0  0  0  0  0  0
   38.7940   27.1110   35.9390 C   0  0  0  0  0  3  0  0  0  0  0  0
   38.3650   26.1990   36.4390 H   0  0  0  0  0  0  0  0  0  0  0  0
   37.6180   27.7790   35.2410 C   0  0  0  0  0  2  0  0  0  0  0  0
   37.1210   26.7840   34.2070 C   0  0  0  0  0  2  0  0  0  0  0  0
  1  7  1  6  0  0  0
  1  2  1  0  0  0  0
  1 18  1  0  0  0  0
  2  9  1  0  0  0  0
  2  3  1  0  0  0  0
  3  4  1  0  0  0  0
  3 11  1  0  0  0  0
  4 12  1  6  0  0  0
  4 26  1  0  0  0  0
  5  4  1  0  0  0  0
  5 13  1  0  0  0  0
  6  1  1  0  0  0  0
  6  5  1  0  0  0  0
  8  2  1  0  0  0  0
 10  3  1  0  0  0  0
 14  5  1  0  0  0  0
 15  6  1  0  0  0  0
 16  6  1  0  0  0  0
 17 23  1  0  0  0  0
 17 22  1  0  0  0  0
 18 17  2  0  0  0  0
 19 18  1  0  0  0  0
 19 20  2  0  0  0  0
 20 21  1  0  0  0  0
 21 22  2  0  0  0  0
 21 25  1  0  0  0  0
 24 19  1  0  0  0  0
 26 27  1  0  0  0  0
 26 32  1  0  0  0  0
 27 28  1  0  0  0  0
 28 29  1  0  0  0  0
 29 30  1  0  0  0  0
 31 29  1  0  0  0  0
 32 31  1  0  0  0  0
M  END
>  <minimizedAffinity>
-5.06802988

$$$$

 OpenBabel03272506523D

 32 34  0  0  1  0  0  0  0  0999 V2000
   37.7970   26.9890   33.5240 C   0  0  1  0  0  0  0  0  0  0  0  0
   37.4730   26.8990   34.9470 C   0  0  0  0  0  0  0  0  0  0  0  0
   38.1070   25.7780   35.7240 C   0  0  0  0  0  0  0  0  0  0  0  0
   39.4980   25.4300   35.3350 C   0  0  2  0  0  0  0  0  0  0  0  0
   39.8460   25.5220   33.8870 C   0  0  0  0  0  0  0  0  0  0  0  0
   39.2490   26.7350   33.2440 C   0  0  0  0  0  0  0  0  0  0  0  0
   37.6540   28.0710   33.2030 H   0  0  0  0  0  0  0  0  0  0  0  0
   37.9460   27.8210   35.4240 H   0  0  0  0  0  0  0  0  0  0  0  0
   36.4350   26.9760   35.2420 H   0  0  0  0  0  0  0  0  0  0  0  0
   38.1010   26.0330   36.8050 H   0  0  0  0  0  0  0  0  0  0  0  0
   37.3850   24.9200   35.6210 H   0  0  0  0  0  0  0  0  0  0  0  0
   40.1680   26.1460   35.8680 H   0  0  0  0  0  0  0  0  0  0  0  0
   39.5260   24.6320   33.3050 H   0  0  0  0  0  0  0  0  0  0  0  0
   40.9560   25.6520   33.8020 H   0  0  0  0  0  0  0  0  0  0  0  0
   39.7760   27.6080   33.7490 H   0  0  0  0  0  0  0  0  0  0  0  0
   39.5650   26.7910   32.2150 H   0  0  0  0  0  0  0  0  0  0  0  0
   36.8590   24.8550   32.5090 C   0  0  0  0  0  0  0  0  0  0  0  0
   36.8880   26.2680   32.5980 C   0  0  0  0  0  0  0  0  0  0  0  0
   36.0230   26.9700   31.7810 C   0  0  0  0  0  0  0  0  0  0  0  0
   35.1950   26.2950   30.9420 N   0  0  0  0  0  0  0  0  0  0  0  0
   35.1990   24.9370   30.8860 C   0  0  0  0  0  0  0  0  0  0  0  0
   36.0380   24.2230   31.6760 N   0  0  0  0  0  0  0  0  0  0  0  0
   37.5080   24.2450   33.1170 H   0  0  0  0  0  0  0  0  0  0  0  0
   35.9210   28.0400   31.7330 H   0  0  0  0  0  0  0  0  0  0  0  0
   34.5290   24.4120   30.2060 H   0  0  0  0  0  0  0  0  0  0  0  0
   39.7710   24.1380   35.8300 N   0  0  0  0  0  0  0  0  0  0  0  0
   38.8800   23.5130   36.7070 C   0  0  0  0  0  2  0  0  0  0  0  0
   39.5980   22.9230   37.9120 C   0  0  0  0  0  2  0  0  0  0  0  0
   40.7940   22.1150   37.5310 C   0  0  0  0  0  3  0  0  0  0  0  0
   41.7410   22.5910   37.9090 H   0  0  0  0  0  0  0  0  0  0  0  0
   40.9280   22.0960   36.0150 C   0  0  0  0  0  2  0  0  0  0  0  0
   41.0070   23.5490   35.5810 C   0  0  0  0  0  2  0  0  0  0  0  0
  1  7  1  6  0  0  0
  1  2  1  0  0  0  0
  2  9  1  0  0  0  0
  2  8  1  0  0  0  0
  2  3  1  0  0  0  0
  3 10  1  0  0  0  0
  4  3  1  0  0  0  0
  4 26  1  0  0  0  0
  4 12  1  1  0  0  0
  5  4  1  0  0  0  0
  6  1  1  0  0  0  0
  6 15  1  0  0  0  0
  6  5  1  0  0  0  0
 11  3  1  0  0  0  0
 13  5  1  0  0  0  0
 14  5  1  0  0  0  0
 16  6  1  0  0  0  0
 17 18  1  0  0  0  0
 17 23  1  0  0  0  0
 18  1  1  0  0  0  0
 19 18  2  0  0  0  0
 20 19  1  0  0  0  0
 21 20  2  0  0  0  0
 21 22  1  0  0  0  0
 22 17  2  0  0  0  0
 24 19  1  0  0  0  0
 25 21  1  0  0  0  0
 26 27  1  0  0  0  0
 27 28  1  0  0  0  0
 29 30  1  0  0  0  0
 29 28  1  0  0  0  0
 31 29  1  0  0  0  0
 32 26  1  0  0  0  0
 32 31  1  0  0  0  0
M  END
>  <minimizedAffinity>
-5.02776957

$$$$

 OpenBabel03272506523D

 32 34  0  0  1  0  0  0  0  0999 V2000
   36.9000   25.5150   31.2330 C   0  0  1  0  0  0  0  0  0  0  0  0
   37.9470   24.5840   30.8180 C   0  0  0  0  0  0  0  0  0  0  0  0
   37.7340   23.1280   31.1350 C   0  0  0  0  0  0  0  0  0  0  0  0
   36.3340   22.6440   31.0300 C   0  0  2  0  0  0  0  0  0  0  0  0
   35.2520   23.5850   31.4440 C   0  0  0  0  0  0  0  0  0  0  0  0
   35.5190   24.9840   30.9810 C   0  0  0  0  0  0  0  0  0  0  0  0
   36.9580   26.4260   30.5550 H   0  0  0  0  0  0  0  0  0  0  0  0
   37.9230   24.5890   29.6780 H   0  0  0  0  0  0  0  0  0  0  0  0
   38.9750   24.8350   31.0420 H   0  0  0  0  0  0  0  0  0  0  0  0
   38.3680   22.5120   30.4630 H   0  0  0  0  0  0  0  0  0  0  0  0
   38.1790   22.9950   32.1610 H   0  0  0  0  0  0  0  0  0  0  0  0
   36.1560   22.4120   29.9530 H   0  0  0  0  0  0  0  0  0  0  0  0
   35.0960   23.6120   32.5430 H   0  0  0  0  0  0  0  0  0  0  0  0
   34.3050   23.2760   30.9330 H   0  0  0  0  0  0  0  0  0  0  0  0
   35.4610   24.9190   29.8460 H   0  0  0  0  0  0  0  0  0  0  0  0
   34.6940   25.6200   31.2550 H   0  0  0  0  0  0  0  0  0  0  0  0
   37.6670   25.4320   33.6560 C   0  0  0  0  0  0  0  0  0  0  0  0
   37.0560   26.1200   32.5800 C   0  0  0  0  0  0  0  0  0  0  0  0
   36.6030   27.4030   32.8260 C   0  0  0  0  0  0  0  0  0  0  0  0
   36.7570   27.9430   34.0620 N   0  0  0  0  0  0  0  0  0  0  0  0
   37.3480   27.2480   35.0690 C   0  0  0  0  0  0  0  0  0  0  0  0
   37.8020   25.9880   34.8560 N   0  0  0  0  0  0  0  0  0  0  0  0
   38.0420   24.4290   33.5330 H   0  0  0  0  0  0  0  0  0  0  0  0
   36.1230   28.0540   32.1170 H   0  0  0  0  0  0  0  0  0  0  0  0
   37.4630   27.6970   36.0550 H   0  0  0  0  0  0  0  0  0  0  0  0
   36.2420   21.4360   31.7510 N   0  0  0  0  0  0  0  0  0  0  0  0
   37.0180   20.3330   31.3840 C   0  0  0  0  0  2  0  0  0  0  0  0
   36.1850   19.0610   31.3040 C   0  0  0  0  0  2  0  0  0  0  0  0
   35.3180   18.8640   32.5030 C   0  0  0  0  0  3  0  0  0  0  0  0
   34.2280   18.9240   32.2290 H   0  0  0  0  0  0  0  0  0  0  0  0
   35.5500   20.0030   33.4860 C   0  0  0  0  0  2  0  0  0  0  0  0
   35.2590   21.2830   32.7240 C   0  0  0  0  0  2  0  0  0  0  0  0
  1  7  1  6  0  0  0
  1 18  1  0  0  0  0
  2  9  1  0  0  0  0
  2  3  1  0  0  0  0
  2  1  1  0  0  0  0
  3 11  1  0  0  0  0
  4 12  1  6  0  0  0
  4  3  1  0  0  0  0
  4  5  1  0  0  0  0
  4 26  1  0  0  0  0
  5 13  1  0  0  0  0
  6  1  1  0  0  0  0
  6 16  1  0  0  0  0
  6  5  1  0  0  0  0
  8  2  1  0  0  0  0
 10  3  1  0  0  0  0
 14  5  1  0  0  0  0
 15  6  1  0  0  0  0
 17 22  1  0  0  0  0
 18 19  1  0  0  0  0
 18 17  2  0  0  0  0
 19 20  2  0  0  0  0
 20 21  1  0  0  0  0
 21 25  1  0  0  0  0
 22 21  2  0  0  0  0
 23 17  1  0  0  0  0
 24 19  1  0  0  0  0
 26 32  1  0  0  0  0
 27 26  1  0  0  0  0
 28 27  1  0  0  0  0
 28 29  1  0  0  0  0
 29 31  1  0  0  0  0
 30 29  1  0  0  0  0
 32 31  1  0  0  0  0
M  END
>  <minimizedAffinity>
-4.90676022

$$$$

 OpenBabel03272506523D

 32 34  0  0  1  0  0  0  0  0999 V2000
   38.3120   26.9520   33.2770 C   0  0  1  0  0  0  0  0  0  0  0  0
   37.6960   25.6670   32.9500 C   0  0  0  0  0  0  0  0  0  0  0  0
   37.9290   24.5320   33.9090 C   0  0  0  0  0  0  0  0  0  0  0  0
   37.9720   24.9020   35.3470 C   0  0  2  0  0  0  0  0  0  0  0  0
   38.5930   26.2130   35.6970 C   0  0  0  0  0  0  0  0  0  0  0  0
   38.2030   27.2920   34.7350 C   0  0  0  0  0  0  0  0  0  0  0  0
   37.7010   27.7680   32.7720 H   0  0  0  0  0  0  0  0  0  0  0  0
   36.5720   25.8370   33.0450 H   0  0  0  0  0  0  0  0  0  0  0  0
   37.8020   25.2900   31.9410 H   0  0  0  0  0  0  0  0  0  0  0  0
   37.1360   23.7670   33.7690 H   0  0  0  0  0  0  0  0  0  0  0  0
   38.8750   24.0440   33.5430 H   0  0  0  0  0  0  0  0  0  0  0  0
   36.9140   24.9500   35.6970 H   0  0  0  0  0  0  0  0  0  0  0  0
   39.7010   26.1730   35.7370 H   0  0  0  0  0  0  0  0  0  0  0  0
   38.1880   26.5370   36.6910 H   0  0  0  0  0  0  0  0  0  0  0  0
   37.0840   27.4210   34.8960 H   0  0  0  0  0  0  0  0  0  0  0  0
   38.6290   28.2300   35.0500 H   0  0  0  0  0  0  0  0  0  0  0  0
   39.9060   27.3270   31.3310 C   0  0  0  0  0  0  0  0  0  0  0  0
   39.6680   27.1900   32.7210 C   0  0  0  0  0  0  0  0  0  0  0  0
   40.7600   27.2910   33.5620 C   0  0  0  0  0  0  0  0  0  0  0  0
   41.9930   27.5130   33.0370 N   0  0  0  0  0  0  0  0  0  0  0  0
   42.1790   27.6380   31.6970 C   0  0  0  0  0  0  0  0  0  0  0  0
   41.1250   27.5430   30.8490 N   0  0  0  0  0  0  0  0  0  0  0  0
   39.0990   27.2580   30.6190 H   0  0  0  0  0  0  0  0  0  0  0  0
   40.7450   27.2140   34.6350 H   0  0  0  0  0  0  0  0  0  0  0  0
   43.1750   27.8150   31.2930 H   0  0  0  0  0  0  0  0  0  0  0  0
   38.6080   23.8520   36.0420 N   0  0  0  0  0  0  0  0  0  0  0  0
   38.0480   23.3400   37.2150 C   0  0  0  0  0  2  0  0  0  0  0  0
   39.0820   23.2200   38.3260 C   0  0  0  0  0  2  0  0  0  0  0  0
   40.3390   22.5540   37.8720 C   0  0  0  0  0  3  0  0  0  0  0  0
   41.2090   23.2670   37.9080 H   0  0  0  0  0  0  0  0  0  0  0  0
   40.2010   22.1590   36.4090 C   0  0  0  0  0  2  0  0  0  0  0  0
   39.8780   23.4360   35.6560 C   0  0  0  0  0  2  0  0  0  0  0  0
  1  7  1  6  0  0  0
  1  6  1  0  0  0  0
  2  8  1  0  0  0  0
  2  1  1  0  0  0  0
  2  3  1  0  0  0  0
  3  4  1  0  0  0  0
  4  5  1  0  0  0  0
  4 12  1  1  0  0  0
  4 26  1  0  0  0  0
  5 13  1  0  0  0  0
  5 14  1  0  0  0  0
  6 15  1  0  0  0  0
  6 16  1  0  0  0  0
  6  5  1  0  0  0  0
  9  2  1  0  0  0  0
 10  3  1  0  0  0  0
 11  3  1  0  0  0  0
 17 18  1  0  0  0  0
 18  1  1  0  0  0  0
 18 19  2  0  0  0  0
 19 24  1  0  0  0  0
 20 19  1  0  0  0  0
 21 20  2  0  0  0  0
 22 17  2  0  0  0  0
 22 21  1  0  0  0  0
 23 17  1  0  0  0  0
 25 21  1  0  0  0  0
 26 27  1  0  0  0  0
 27 28  1  0  0  0  0
 29 30  1  0  0  0  0
 29 28  1  0  0  0  0
 31 29  1  0  0  0  0
 32 26  1  0  0  0  0
 32 31  1  0  0  0  0
M  END
>  <minimizedAffinity>
-4.77019215

$$$$

 OpenBabel03272506523D

 32 34  0  0  1  0  0  0  0  0999 V2000
   38.3730   26.8160   35.7240 C   0  0  1  0  0  0  0  0  0  0  0  0
   39.6460   27.0140   35.0340 C   0  0  0  0  0  0  0  0  0  0  0  0
   39.6850   26.7000   33.5640 C   0  0  0  0  0  0  0  0  0  0  0  0
   38.4550   27.0350   32.8000 C   0  0  2  0  0  0  0  0  0  0  0  0
   37.1470   26.8440   33.4930 C   0  0  0  0  0  0  0  0  0  0  0  0
   37.1980   27.2920   34.9200 C   0  0  0  0  0  0  0  0  0  0  0  0
   38.3610   27.4990   36.6340 H   0  0  0  0  0  0  0  0  0  0  0  0
   39.8240   28.1400   35.0450 H   0  0  0  0  0  0  0  0  0  0  0  0
   40.5440   26.6200   35.4920 H   0  0  0  0  0  0  0  0  0  0  0  0
   40.5400   27.2320   33.0980 H   0  0  0  0  0  0  0  0  0  0  0  0
   39.9570   25.6080   33.5160 H   0  0  0  0  0  0  0  0  0  0  0  0
   38.5230   28.1190   32.5460 H   0  0  0  0  0  0  0  0  0  0  0  0
   36.7960   25.7900   33.4760 H   0  0  0  0  0  0  0  0  0  0  0  0
   36.3890   27.5050   32.9980 H   0  0  0  0  0  0  0  0  0  0  0  0
   37.3580   28.4170   34.8550 H   0  0  0  0  0  0  0  0  0  0  0  0
   36.2240   27.1850   35.3690 H   0  0  0  0  0  0  0  0  0  0  0  0
   38.1480   24.2870   35.5730 C   0  0  0  0  0  0  0  0  0  0  0  0
   38.1590   25.4800   36.3360 C   0  0  0  0  0  0  0  0  0  0  0  0
   37.9650   25.3600   37.6990 C   0  0  0  0  0  0  0  0  0  0  0  0
   37.7740   24.1300   38.2430 N   0  0  0  0  0  0  0  0  0  0  0  0
   37.7700   23.0090   37.4750 C   0  0  0  0  0  0  0  0  0  0  0  0
   37.9580   23.0980   36.1350 N   0  0  0  0  0  0  0  0  0  0  0  0
   38.2930   24.3100   34.5040 H   0  0  0  0  0  0  0  0  0  0  0  0
   37.9490   26.1650   38.4130 H   0  0  0  0  0  0  0  0  0  0  0  0
   37.6140   22.0310   37.9280 H   0  0  0  0  0  0  0  0  0  0  0  0
   38.4870   26.3070   31.5930 N   0  0  0  0  0  0  0  0  0  0  0  0
   37.3650   25.5910   31.1680 C   0  0  0  0  0  2  0  0  0  0  0  0
   37.7280   24.1760   30.7430 C   0  0  0  0  0  2  0  0  0  0  0  0
   38.9000   24.1350   29.8200 C   0  0  0  0  0  3  0  0  0  0  0  0
   39.7740   23.6120   30.2990 H   0  0  0  0  0  0  0  0  0  0  0  0
   39.3790   25.5540   29.5480 C   0  0  0  0  0  2  0  0  0  0  0  0
   39.6880   26.1610   30.9050 C   0  0  0  0  0  2  0  0  0  0  0  0
  1 18  1  0  0  0  0
  1  7  1  1  0  0  0
  2  8  1  0  0  0  0
  2  9  1  0  0  0  0
  2  1  1  0  0  0  0
  3  2  1  0  0  0  0
  4 12  1  6  0  0  0
  4  5  1  0  0  0  0
  4  3  1  0  0  0  0
  5  6  1  0  0  0  0
  6 16  1  0  0  0  0
  6  1  1  0  0  0  0
 10  3  1  0  0  0  0
 11  3  1  0  0  0  0
 13  5  1  0  0  0  0
 14  5  1  0  0  0  0
 15  6  1  0  0  0  0
 17 22  2  0  0  0  0
 17 18  1  0  0  0  0
 18 19  2  0  0  0  0
 19 20  1  0  0  0  0
 19 24  1  0  0  0  0
 21 25  1  0  0  0  0
 21 20  2  0  0  0  0
 22 21  1  0  0  0  0
 23 17  1  0  0  0  0
 26  4  1  0  0  0  0
 27 26  1  0  0  0  0
 28 27  1  0  0  0  0
 29 30  1  0  0  0  0
 29 28  1  0  0  0  0
 31 29  1  0  0  0  0
 31 32  1  0  0  0  0
 32 26  1  0  0  0  0
M  END
>  <minimizedAffinity>
-4.70431662

$$$$

 OpenBabel03272506523D

 32 34  0  0  1  0  0  0  0  0999 V2000
   37.6750   26.5620   31.6330 C   0  0  1  0  0  0  0  0  0  0  0  0
   38.5890   25.6670   30.9270 C   0  0  0  0  0  0  0  0  0  0  0  0
   38.2700   24.1970   30.9580 C   0  0  0  0  0  0  0  0  0  0  0  0
   36.8260   23.8500   30.9070 C   0  0  2  0  0  0  0  0  0  0  0  0
   35.8790   24.7570   31.6190 C   0  0  0  0  0  0  0  0  0  0  0  0
   36.2330   26.1990   31.4270 C   0  0  0  0  0  0  0  0  0  0  0  0
   37.7570   27.5900   31.1550 H   0  0  0  0  0  0  0  0  0  0  0  0
   38.4630   25.9170   29.8210 H   0  0  0  0  0  0  0  0  0  0  0  0
   39.6520   25.7890   31.0860 H   0  0  0  0  0  0  0  0  0  0  0  0
   38.7800   23.6940   30.1100 H   0  0  0  0  0  0  0  0  0  0  0  0
   38.7900   23.8160   31.8810 H   0  0  0  0  0  0  0  0  0  0  0  0
   36.5310   23.8660   29.8310 H   0  0  0  0  0  0  0  0  0  0  0  0
   35.8250   24.5590   32.7100 H   0  0  0  0  0  0  0  0  0  0  0  0
   34.8640   24.6330   31.1600 H   0  0  0  0  0  0  0  0  0  0  0  0
   36.0680   26.3820   30.3160 H   0  0  0  0  0  0  0  0  0  0  0  0
   35.4990   26.8200   31.9130 H   0  0  0  0  0  0  0  0  0  0  0  0
   39.3060   26.6630   33.5820 C   0  0  0  0  0  0  0  0  0  0  0  0
   38.0060   26.8520   33.0510 C   0  0  0  0  0  0  0  0  0  0  0  0
   37.0360   27.3310   33.9120 C   0  0  0  0  0  0  0  0  0  0  0  0
   37.3580   27.5950   35.2050 N   0  0  0  0  0  0  0  0  0  0  0  0
   38.6180   27.3980   35.6750 C   0  0  0  0  0  0  0  0  0  0  0  0
   39.5880   26.9300   34.8530 N   0  0  0  0  0  0  0  0  0  0  0  0
   40.1090   26.2920   32.9660 H   0  0  0  0  0  0  0  0  0  0  0  0
   36.0090   27.5300   33.6630 H   0  0  0  0  0  0  0  0  0  0  0  0
   38.8570   27.6150   36.7150 H   0  0  0  0  0  0  0  0  0  0  0  0
   36.6870   22.5250   31.3700 N   0  0  0  0  0  0  0  0  0  0  0  0
   35.5360   21.7900   31.0720 C   0  0  0  0  0  2  0  0  0  0  0  0
   34.9680   21.1080   32.3090 C   0  0  0  0  0  2  0  0  0  0  0  0
   36.0080   20.3800   33.0940 C   0  0  0  0  0  3  0  0  0  0  0  0
   36.1510   20.8480   34.1080 H   0  0  0  0  0  0  0  0  0  0  0  0
   37.3540   20.5140   32.3950 C   0  0  0  0  0  2  0  0  0  0  0  0
   37.6150   22.0030   32.2660 C   0  0  0  0  0  2  0  0  0  0  0  0
  1  7  1  6  0  0  0
  1 18  1  0  0  0  0
  2  3  1  0  0  0  0
  2  9  1  0  0  0  0
  2  1  1  0  0  0  0
  3 11  1  0  0  0  0
  4 12  1  6  0  0  0
  4  3  1  0  0  0  0
  4 26  1  0  0  0  0
  4  5  1  0  0  0  0
  5 13  1  0  0  0  0
  6  5  1  0  0  0  0
  6  1  1  0  0  0  0
  6 16  1  0  0  0  0
  8  2  1  0  0  0  0
 10  3  1  0  0  0  0
 14  5  1  0  0  0  0
 15  6  1  0  0  0  0
 17 22  1  0  0  0  0
 18 17  2  0  0  0  0
 18 19  1  0  0  0  0
 19 20  2  0  0  0  0
 20 21  1  0  0  0  0
 21 25  1  0  0  0  0
 22 21  2  0  0  0  0
 23 17  1  0  0  0  0
 24 19  1  0  0  0  0
 26 32  1  0  0  0  0
 27 26  1  0  0  0  0
 27 28  1  0  0  0  0
 28 29  1  0  0  0  0
 29 30  1  0  0  0  0
 31 29  1  0  0  0  0
 32 31  1  0  0  0  0
M  END
>  <minimizedAffinity>
-4.67265081

$$$$

 OpenBabel03272506523D

 32 34  0  0  1  0  0  0  0  0999 V2000
   35.1300   30.1260   33.7380 C   0  0  1  0  0  0  0  0  0  0  0  0
   35.8990   29.1970   34.5650 C   0  0  0  0  0  0  0  0  0  0  0  0
   36.3070   27.8950   33.9330 C   0  0  0  0  0  0  0  0  0  0  0  0
   36.6700   27.9620   32.4940 C   0  0  2  0  0  0  0  0  0  0  0  0
   35.8990   28.9100   31.6380 C   0  0  0  0  0  0  0  0  0  0  0  0
   35.6460   30.2120   32.3310 C   0  0  0  0  0  0  0  0  0  0  0  0
   35.3010   31.1750   34.1440 H   0  0  0  0  0  0  0  0  0  0  0  0
   36.9040   29.7070   34.7380 H   0  0  0  0  0  0  0  0  0  0  0  0
   35.5510   28.9960   35.5690 H   0  0  0  0  0  0  0  0  0  0  0  0
   37.1680   27.4720   34.4910 H   0  0  0  0  0  0  0  0  0  0  0  0
   35.4490   27.1970   34.1460 H   0  0  0  0  0  0  0  0  0  0  0  0
   37.7360   28.2910   32.4490 H   0  0  0  0  0  0  0  0  0  0  0  0
   34.9210   28.5000   31.3080 H   0  0  0  0  0  0  0  0  0  0  0  0
   36.5260   29.1630   30.7440 H   0  0  0  0  0  0  0  0  0  0  0  0
   36.6800   30.6700   32.4540 H   0  0  0  0  0  0  0  0  0  0  0  0
   35.1320   30.8840   31.6640 H   0  0  0  0  0  0  0  0  0  0  0  0
   32.7990   30.4500   32.7750 C   0  0  0  0  0  0  0  0  0  0  0  0
   33.6530   30.0020   33.8130 C   0  0  0  0  0  0  0  0  0  0  0  0
   33.0540   29.4290   34.9190 C   0  0  0  0  0  0  0  0  0  0  0  0
   31.7010   29.3200   34.9690 N   0  0  0  0  0  0  0  0  0  0  0  0
   30.9180   29.7630   33.9510 C   0  0  0  0  0  0  0  0  0  0  0  0
   31.4780   30.3290   32.8540 N   0  0  0  0  0  0  0  0  0  0  0  0
   33.2000   30.9060   31.8840 H   0  0  0  0  0  0  0  0  0  0  0  0
   33.5600   29.0390   35.7840 H   0  0  0  0  0  0  0  0  0  0  0  0
   29.8340   29.6690   34.0090 H   0  0  0  0  0  0  0  0  0  0  0  0
   36.6020   26.6540   31.9720 N   0  0  0  0  0  0  0  0  0  0  0  0
   35.8990   26.4000   30.7910 C   0  0  0  0  0  2  0  0  0  0  0  0
   34.9700   25.2030   30.9350 C   0  0  0  0  0  2  0  0  0  0  0  0
   35.6460   24.0200   31.5450 C   0  0  0  0  0  3  0  0  0  0  0  0
   35.2010   23.7730   32.5490 H   0  0  0  0  0  0  0  0  0  0  0  0
   37.1030   24.3590   31.8220 C   0  0  0  0  0  2  0  0  0  0  0  0
   37.0880   25.5840   32.7180 C   0  0  0  0  0  2  0  0  0  0  0  0
  1 18  1  0  0  0  0
  1  7  1  1  0  0  0
  1  2  1  0  0  0  0
  2  8  1  0  0  0  0
  2  9  1  0  0  0  0
  3 11  1  0  0  0  0
  3 10  1  0  0  0  0
  3  2  1  0  0  0  0
  4 12  1  6  0  0  0
  4  3  1  0  0  0  0
  5  6  1  0  0  0  0
  5  4  1  0  0  0  0
  6 15  1  0  0  0  0
  6  1  1  0  0  0  0
 13  5  1  0  0  0  0
 14  5  1  0  0  0  0
 16  6  1  0  0  0  0
 17 22  2  0  0  0  0
 17 18  1  0  0  0  0
 18 19  2  0  0  0  0
 19 20  1  0  0  0  0
 19 24  1  0  0  0  0
 21 25  1  0  0  0  0
 21 20  2  0  0  0  0
 22 21  1  0  0  0  0
 23 17  1  0  0  0  0
 26  4  1  0  0  0  0
 26 32  1  0  0  0  0
 27 28  1  0  0  0  0
 27 26  1  0  0  0  0
 28 29  1  0  0  0  0
 29 31  1  0  0  0  0
 29 30  1  0  0  0  0
 31 32  1  0  0  0  0
M  END
>  <minimizedAffinity>
-4.65063524

$$$$

 OpenBabel03272506523D

 32 34  0  0  1  0  0  0  0  0999 V2000
   37.2960   27.4790   32.3630 C   0  0  1  0  0  0  0  0  0  0  0  0
   36.8820   28.6100   31.5350 C   0  0  0  0  0  0  0  0  0  0  0  0
   35.6800   29.3900   31.9930 C   0  0  0  0  0  0  0  0  0  0  0  0
   35.5400   29.5550   33.4620 C   0  0  2  0  0  0  0  0  0  0  0  0
   35.9640   28.4110   34.3220 C   0  0  0  0  0  0  0  0  0  0  0  0
   37.2300   27.7810   33.8310 C   0  0  0  0  0  0  0  0  0  0  0  0
   38.4050   27.3040   32.1810 H   0  0  0  0  0  0  0  0  0  0  0  0
   37.7190   29.3790   31.6310 H   0  0  0  0  0  0  0  0  0  0  0  0
   36.8070   28.4630   30.4660 H   0  0  0  0  0  0  0  0  0  0  0  0
   35.7000   30.3990   31.5290 H   0  0  0  0  0  0  0  0  0  0  0  0
   34.8050   28.8660   31.5150 H   0  0  0  0  0  0  0  0  0  0  0  0
   36.1820   30.4210   33.7500 H   0  0  0  0  0  0  0  0  0  0  0  0
   35.1930   27.6160   34.3990 H   0  0  0  0  0  0  0  0  0  0  0  0
   36.2020   28.8090   35.3420 H   0  0  0  0  0  0  0  0  0  0  0  0
   38.0180   28.5900   33.9730 H   0  0  0  0  0  0  0  0  0  0  0  0
   37.5290   26.9950   34.5050 H   0  0  0  0  0  0  0  0  0  0  0  0
   35.5900   26.0290   31.1580 C   0  0  0  0  0  0  0  0  0  0  0  0
   36.7120   26.1600   32.0110 C   0  0  0  0  0  0  0  0  0  0  0  0
   37.2630   24.9960   32.5140 C   0  0  0  0  0  0  0  0  0  0  0  0
   36.7190   23.7980   32.1780 N   0  0  0  0  0  0  0  0  0  0  0  0
   35.6400   23.7160   31.3570 C   0  0  0  0  0  0  0  0  0  0  0  0
   35.0800   24.8410   30.8490 N   0  0  0  0  0  0  0  0  0  0  0  0
   35.1110   26.8960   30.7310 H   0  0  0  0  0  0  0  0  0  0  0  0
   38.1140   24.9260   33.1670 H   0  0  0  0  0  0  0  0  0  0  0  0
   35.2160   22.7450   31.0990 H   0  0  0  0  0  0  0  0  0  0  0  0
   34.2000   29.9050   33.7300 N   0  0  0  0  0  0  0  0  0  0  0  0
   33.8210   30.3290   35.0060 C   0  0  0  0  0  2  0  0  0  0  0  0
   32.5690   29.6110   35.4890 C   0  0  0  0  0  2  0  0  0  0  0  0
   31.4800   29.6030   34.4670 C   0  0  0  0  0  3  0  0  0  0  0  0
   31.2630   28.5560   34.1150 H   0  0  0  0  0  0  0  0  0  0  0  0
   31.9450   30.3570   33.2290 C   0  0  0  0  0  2  0  0  0  0  0  0
   33.2190   29.6700   32.7710 C   0  0  0  0  0  2  0  0  0  0  0  0
  1  7  1  6  0  0  0
  1  6  1  0  0  0  0
  2  8  1  0  0  0  0
  2  3  1  0  0  0  0
  2  1  1  0  0  0  0
  3  4  1  0  0  0  0
  4 26  1  0  0  0  0
  4 12  1  1  0  0  0
  4  5  1  0  0  0  0
  5 13  1  0  0  0  0
  5 14  1  0  0  0  0
  6 15  1  0  0  0  0
  6  5  1  0  0  0  0
  6 16  1  0  0  0  0
  9  2  1  0  0  0  0
 10  3  1  0  0  0  0
 11  3  1  0  0  0  0
 17 18  1  0  0  0  0
 18  1  1  0  0  0  0
 18 19  2  0  0  0  0
 19 24  1  0  0  0  0
 20 19  1  0  0  0  0
 21 20  2  0  0  0  0
 22 17  2  0  0  0  0
 22 21  1  0  0  0  0
 23 17  1  0  0  0  0
 25 21  1  0  0  0  0
 26 27  1  0  0  0  0
 27 28  1  0  0  0  0
 29 28  1  0  0  0  0
 30 29  1  0  0  0  0
 31 29  1  0  0  0  0
 32 31  1  0  0  0  0
 32 26  1  0  0  0  0
M  END
>  <minimizedAffinity>
-4.63913584

$$$$

 OpenBabel03272506523D

 32 34  0  0  1  0  0  0  0  0999 V2000
   35.1940   31.0180   32.7100 C   0  0  1  0  0  0  0  0  0  0  0  0
   35.7970   30.2520   31.6210 C   0  0  0  0  0  0  0  0  0  0  0  0
   36.6310   29.0600   32.0020 C   0  0  0  0  0  0  0  0  0  0  0  0
   36.1500   28.2840   33.1730 C   0  0  2  0  0  0  0  0  0  0  0  0
   35.5260   29.0510   34.2920 C   0  0  0  0  0  0  0  0  0  0  0  0
   34.6320   30.1420   33.7920 C   0  0  0  0  0  0  0  0  0  0  0  0
   34.2750   31.5450   32.2960 H   0  0  0  0  0  0  0  0  0  0  0  0
   34.9230   29.7690   31.0700 H   0  0  0  0  0  0  0  0  0  0  0  0
   36.3100   30.7930   30.8370 H   0  0  0  0  0  0  0  0  0  0  0  0
   36.7040   28.3720   31.1330 H   0  0  0  0  0  0  0  0  0  0  0  0
   37.6700   29.4740   32.1350 H   0  0  0  0  0  0  0  0  0  0  0  0
   35.3670   27.5850   32.7940 H   0  0  0  0  0  0  0  0  0  0  0  0
   36.2730   29.5050   34.9770 H   0  0  0  0  0  0  0  0  0  0  0  0
   34.8590   28.3550   34.8630 H   0  0  0  0  0  0  0  0  0  0  0  0
   33.7800   29.5920   33.2750 H   0  0  0  0  0  0  0  0  0  0  0  0
   34.1630   30.6380   34.6270 H   0  0  0  0  0  0  0  0  0  0  0  0
   36.0290   32.4870   34.6100 C   0  0  0  0  0  0  0  0  0  0  0  0
   35.9930   32.1540   33.2340 C   0  0  0  0  0  0  0  0  0  0  0  0
   36.7450   32.9340   32.3750 C   0  0  0  0  0  0  0  0  0  0  0  0
   37.4730   33.9670   32.8720 N   0  0  0  0  0  0  0  0  0  0  0  0
   37.4790   34.2540   34.2000 C   0  0  0  0  0  0  0  0  0  0  0  0
   36.7510   33.5060   35.0650 N   0  0  0  0  0  0  0  0  0  0  0  0
   35.4650   31.9210   35.3340 H   0  0  0  0  0  0  0  0  0  0  0  0
   36.8260   32.8090   31.3100 H   0  0  0  0  0  0  0  0  0  0  0  0
   38.0690   35.0880   34.5810 H   0  0  0  0  0  0  0  0  0  0  0  0
   37.2270   27.5070   33.6460 N   0  0  0  0  0  0  0  0  0  0  0  0
   37.2580   27.0740   34.9740 C   0  0  0  0  0  2  0  0  0  0  0  0
   38.6090   27.3400   35.6220 C   0  0  0  0  0  2  0  0  0  0  0  0
   39.7530   26.8900   34.7750 C   0  0  0  0  0  3  0  0  0  0  0  0
   40.3740   27.7640   34.4360 H   0  0  0  0  0  0  0  0  0  0  0  0
   39.2170   26.2570   33.4990 C   0  0  0  0  0  2  0  0  0  0  0  0
   38.3450   27.3100   32.8400 C   0  0  0  0  0  2  0  0  0  0  0  0
  1  7  1  6  0  0  0
  1 18  1  0  0  0  0
  1  6  1  0  0  0  0
  2  3  1  0  0  0  0
  2  1  1  0  0  0  0
  3 11  1  0  0  0  0
  3  4  1  0  0  0  0
  4 12  1  6  0  0  0
  4 26  1  0  0  0  0
  4  5  1  0  0  0  0
  5 14  1  0  0  0  0
  5 13  1  0  0  0  0
  6  5  1  0  0  0  0
  6 16  1  0  0  0  0
  8  2  1  0  0  0  0
  9  2  1  0  0  0  0
 10  3  1  0  0  0  0
 15  6  1  0  0  0  0
 17 22  1  0  0  0  0
 17 23  1  0  0  0  0
 18 17  2  0  0  0  0
 19 20  2  0  0  0  0
 19 18  1  0  0  0  0
 20 21  1  0  0  0  0
 21 25  1  0  0  0  0
 21 22  2  0  0  0  0
 24 19  1  0  0  0  0
 26 27  1  0  0  0  0
 27 28  1  0  0  0  0
 29 28  1  0  0  0  0
 30 29  1  0  0  0  0
 31 29  1  0  0  0  0
 32 31  1  0  0  0  0
 32 26  1  0  0  0  0
M  END
>  <minimizedAffinity>
-4.62739801

$$$$
