
 OpenBabel03272506563D

 18 19  0  0  0  0  0  0  0  0999 V2000
   40.5810   23.1870   35.9080 C   0  0  0  0  0  0  0  0  0  0  0  0
   39.9580   22.8020   37.1180 C   0  0  0  0  0  0  0  0  0  0  0  0
   38.8030   23.5180   37.4690 C   0  0  0  0  0  0  0  0  0  0  0  0
   38.3430   24.5120   36.6720 N   0  0  0  0  0  0  0  0  0  0  0  0
   38.9850   24.8350   35.5250 C   0  0  0  0  0  0  0  0  0  0  0  0
   40.0980   24.1870   35.1270 N   0  0  0  0  0  0  0  0  0  0  0  0
   41.4740   22.6790   35.5770 H   0  0  0  0  0  0  0  0  0  0  0  0
   38.3130   23.2390   38.3900 H   0  0  0  0  0  0  0  0  0  0  0  0
   38.4700   25.8790   34.7210 N   0  0  0  0  0  0  0  0  0  0  0  0
   37.1160   26.3360   34.9750 C   0  0  0  0  0  2  0  0  0  0  0  0
   36.9180   27.7610   34.5220 C   0  0  0  0  0  2  0  0  0  0  0  0
   37.2890   27.9820   33.0900 C   0  0  0  0  0  3  0  0  0  0  0  0
   37.5920   29.0470   33.0020 H   0  0  0  0  0  0  0  0  0  0  0  0
   38.3780   27.0880   32.5880 C   0  0  0  0  0  2  0  0  0  0  0  0
   39.2310   26.4970   33.6740 C   0  0  0  0  0  2  0  0  0  0  0  0
   40.5130   21.7490   37.8880 N   0  0  0  0  0  0  0  0  0  0  0  0
   40.6040   21.6950   38.9210 H   0  0  0  0  0  0  0  0  0  0  0  0
   40.8750   20.9260   37.3530 H   0  0  0  0  0  0  0  0  0  0  0  0
  1  2  1  0  0  0  0
  2  3  2  0  0  0  0
  2 16  1  0  0  0  0
  3  8  1  0  0  0  0
  4  3  1  0  0  0  0
  5  4  2  0  0  0  0
  6  5  1  0  0  0  0
  6  1  2  0  0  0  0
  7  1  1  0  0  0  0
  9 10  1  0  0  0  0
  9  5  1  0  0  0  0
 11 10  1  0  0  0  0
 12 11  1  0  0  0  0
 13 12  1  0  0  0  0
 14 12  1  0  0  0  0
 14 15  1  0  0  0  0
 15  9  1  0  0  0  0
 16 17  1  0  0  0  0
 18 16  1  0  0  0  0
M  END
>  <minimizedAffinity>
-4.3070116

$$$$

 OpenBabel03272506563D

 18 19  0  0  0  0  0  0  0  0999 V2000
   38.7470   24.0710   32.1680 C   0  0  0  0  0  0  0  0  0  0  0  0
   37.9010   25.1500   31.8210 C   0  0  0  0  0  0  0  0  0  0  0  0
   37.2860   25.8170   32.8930 C   0  0  0  0  0  0  0  0  0  0  0  0
   37.5120   25.4220   34.1680 N   0  0  0  0  0  0  0  0  0  0  0  0
   38.3320   24.3790   34.4360 C   0  0  0  0  0  0  0  0  0  0  0  0
   38.9560   23.6950   33.4550 N   0  0  0  0  0  0  0  0  0  0  0  0
   39.2520   23.5130   31.3940 H   0  0  0  0  0  0  0  0  0  0  0  0
   36.6360   26.6450   32.6480 H   0  0  0  0  0  0  0  0  0  0  0  0
   38.5420   23.9990   35.7820 N   0  0  0  0  0  0  0  0  0  0  0  0
   38.1450   24.9260   36.8260 C   0  0  0  0  0  2  0  0  0  0  0  0
   37.8510   24.2110   38.1210 C   0  0  0  0  0  2  0  0  0  0  0  0
   38.9800   23.3450   38.5860 C   0  0  0  0  0  3  0  0  0  0  0  0
   38.5260   22.5300   39.1890 H   0  0  0  0  0  0  0  0  0  0  0  0
   39.8160   22.7740   37.4840 C   0  0  0  0  0  2  0  0  0  0  0  0
   39.1260   22.7420   36.1500 C   0  0  0  0  0  2  0  0  0  0  0  0
   37.7240   25.4930   30.4570 N   0  0  0  0  0  0  0  0  0  0  0  0
   36.8460   25.7770   29.9800 H   0  0  0  0  0  0  0  0  0  0  0  0
   38.5790   25.4540   29.8560 H   0  0  0  0  0  0  0  0  0  0  0  0
  1  6  1  0  0  0  0
  2  1  2  0  0  0  0
  2  3  1  0  0  0  0
  3  4  2  0  0  0  0
  4  5  1  0  0  0  0
  5  9  1  0  0  0  0
  6  5  2  0  0  0  0
  7  1  1  0  0  0  0
  8  3  1  0  0  0  0
  9 15  1  0  0  0  0
  9 10  1  0  0  0  0
 10 11  1  0  0  0  0
 11 12  1  0  0  0  0
 12 13  1  0  0  0  0
 14 12  1  0  0  0  0
 15 14  1  0  0  0  0
 16  2  1  0  0  0  0
 17 16  1  0  0  0  0
 18 16  1  0  0  0  0
M  END
>  <minimizedAffinity>
-4.19561529

$$$$

 OpenBabel03272506563D

 18 19  0  0  0  0  0  0  0  0999 V2000
   38.1360   24.6110   37.4060 C   0  0  0  0  0  0  0  0  0  0  0  0
   38.6380   23.2890   37.4540 C   0  0  0  0  0  0  0  0  0  0  0  0
   38.9040   22.6890   36.2130 C   0  0  0  0  0  0  0  0  0  0  0  0
   38.6810   23.3650   35.0610 N   0  0  0  0  0  0  0  0  0  0  0  0
   38.1980   24.6290   35.0810 C   0  0  0  0  0  0  0  0  0  0  0  0
   37.9210   25.2660   36.2370 N   0  0  0  0  0  0  0  0  0  0  0  0
   37.9090   25.1340   38.3230 H   0  0  0  0  0  0  0  0  0  0  0  0
   39.2880   21.6790   36.2290 H   0  0  0  0  0  0  0  0  0  0  0  0
   37.9800   25.3000   33.8550 N   0  0  0  0  0  0  0  0  0  0  0  0
   38.5810   24.7480   32.6550 C   0  0  0  0  0  2  0  0  0  0  0  0
   37.8180   25.1500   31.4170 C   0  0  0  0  0  2  0  0  0  0  0  0
   37.6450   26.6310   31.2870 C   0  0  0  0  0  3  0  0  0  0  0  0
   36.7140   26.7900   30.7020 H   0  0  0  0  0  0  0  0  0  0  0  0
   37.5730   27.3620   32.5890 C   0  0  0  0  0  2  0  0  0  0  0  0
   37.1930   26.4950   33.7550 C   0  0  0  0  0  2  0  0  0  0  0  0
   38.8400   22.6610   38.7080 N   0  0  0  0  0  0  0  0  0  0  0  0
   38.6390   21.6740   38.9660 H   0  0  0  0  0  0  0  0  0  0  0  0
   39.2380   23.2600   39.4670 H   0  0  0  0  0  0  0  0  0  0  0  0
  1  2  1  0  0  0  0
  1  7  1  0  0  0  0
  2 16  1  0  0  0  0
  3  8  1  0  0  0  0
  3  2  2  0  0  0  0
  4  5  2  0  0  0  0
  4  3  1  0  0  0  0
  5  6  1  0  0  0  0
  6  1  2  0  0  0  0
  9  5  1  0  0  0  0
 10  9  1  0  0  0  0
 11 10  1  0  0  0  0
 12 11  1  0  0  0  0
 12 14  1  0  0  0  0
 13 12  1  0  0  0  0
 14 15  1  0  0  0  0
 15  9  1  0  0  0  0
 16 17  1  0  0  0  0
 16 18  1  0  0  0  0
M  END
>  <minimizedAffinity>
-4.11591148

$$$$

 OpenBabel03272506563D

 18 19  0  0  0  0  0  0  0  0999 V2000
   37.4130   24.9890   32.4130 C   0  0  0  0  0  0  0  0  0  0  0  0
   38.0770   24.1530   31.4850 C   0  0  0  0  0  0  0  0  0  0  0  0
   38.9200   23.1740   32.0340 C   0  0  0  0  0  0  0  0  0  0  0  0
   39.0650   23.0670   33.3770 N   0  0  0  0  0  0  0  0  0  0  0  0
   38.4030   23.8990   34.2140 C   0  0  0  0  0  0  0  0  0  0  0  0
   37.5770   24.8600   33.7540 N   0  0  0  0  0  0  0  0  0  0  0  0
   36.7490   25.7640   32.0610 H   0  0  0  0  0  0  0  0  0  0  0  0
   39.4360   22.5250   31.3410 H   0  0  0  0  0  0  0  0  0  0  0  0
   38.5820   23.7520   35.6090 N   0  0  0  0  0  0  0  0  0  0  0  0
   39.1950   22.5310   36.0980 C   0  0  0  0  0  2  0  0  0  0  0  0
   39.8620   22.7410   37.4340 C   0  0  0  0  0  2  0  0  0  0  0  0
   38.9460   23.3200   38.4660 C   0  0  0  0  0  3  0  0  0  0  0  0
   39.5870   23.8820   39.1790 H   0  0  0  0  0  0  0  0  0  0  0  0
   37.8770   24.2100   37.9150 C   0  0  0  0  0  2  0  0  0  0  0  0
   38.1850   24.7590   36.5510 C   0  0  0  0  0  2  0  0  0  0  0  0
   37.8630   24.3390   30.0960 N   0  0  0  0  0  0  0  0  0  0  0  0
   38.5650   24.2920   29.3310 H   0  0  0  0  0  0  0  0  0  0  0  0
   36.8810   24.5500   29.8030 H   0  0  0  0  0  0  0  0  0  0  0  0
  1  6  1  0  0  0  0
  2  3  1  0  0  0  0
  2  1  2  0  0  0  0
  3  4  2  0  0  0  0
  4  5  1  0  0  0  0
  5  9  1  0  0  0  0
  6  5  2  0  0  0  0
  7  1  1  0  0  0  0
  8  3  1  0  0  0  0
  9 10  1  0  0  0  0
  9 15  1  0  0  0  0
 10 11  1  0  0  0  0
 11 12  1  0  0  0  0
 12 13  1  0  0  0  0
 14 12  1  0  0  0  0
 15 14  1  0  0  0  0
 16  2  1  0  0  0  0
 17 16  1  0  0  0  0
 18 16  1  0  0  0  0
M  END
>  <minimizedAffinity>
-4.09427881

$$$$

 OpenBabel03272506563D

 18 19  0  0  0  0  0  0  0  0999 V2000
   36.6470   27.3130   32.4760 C   0  0  0  0  0  0  0  0  0  0  0  0
   36.7660   26.7030   31.2050 C   0  0  0  0  0  0  0  0  0  0  0  0
   37.3270   25.4150   31.1930 C   0  0  0  0  0  0  0  0  0  0  0  0
   37.7200   24.8260   32.3470 N   0  0  0  0  0  0  0  0  0  0  0  0
   37.5810   25.4630   33.5330 C   0  0  0  0  0  0  0  0  0  0  0  0
   37.0490   26.7000   33.6180 N   0  0  0  0  0  0  0  0  0  0  0  0
   36.2250   28.3030   32.5600 H   0  0  0  0  0  0  0  0  0  0  0  0
   37.4250   24.9330   30.2310 H   0  0  0  0  0  0  0  0  0  0  0  0
   38.0030   24.8120   34.7150 N   0  0  0  0  0  0  0  0  0  0  0  0
   38.2570   23.3840   34.6580 C   0  0  0  0  0  2  0  0  0  0  0  0
   39.2340   22.9510   35.7240 C   0  0  0  0  0  2  0  0  0  0  0  0
   38.8210   23.3580   37.1030 C   0  0  0  0  0  3  0  0  0  0  0  0
   39.7550   23.4620   37.6950 H   0  0  0  0  0  0  0  0  0  0  0  0
   38.0230   24.6220   37.1620 C   0  0  0  0  0  2  0  0  0  0  0  0
   38.1890   25.5050   35.9580 C   0  0  0  0  0  2  0  0  0  0  0  0
   36.3270   27.3970   30.0500 N   0  0  0  0  0  0  0  0  0  0  0  0
   36.7840   27.4350   29.1180 H   0  0  0  0  0  0  0  0  0  0  0  0
   35.4360   27.9370   30.1450 H   0  0  0  0  0  0  0  0  0  0  0  0
  1  7  1  0  0  0  0
  1  6  1  0  0  0  0
  2  1  2  0  0  0  0
  3  2  1  0  0  0  0
  3  4  2  0  0  0  0
  4  5  1  0  0  0  0
  5  6  2  0  0  0  0
  5  9  1  0  0  0  0
  8  3  1  0  0  0  0
  9 15  1  0  0  0  0
 10  9  1  0  0  0  0
 10 11  1  0  0  0  0
 11 12  1  0  0  0  0
 12 14  1  0  0  0  0
 12 13  1  0  0  0  0
 15 14  1  0  0  0  0
 16 18  1  0  0  0  0
 16  2  1  0  0  0  0
 17 16  1  0  0  0  0
M  END
>  <minimizedAffinity>
-4.07946587

$$$$

 OpenBabel03272506563D

 18 19  0  0  0  0  0  0  0  0999 V2000
   37.5050   25.6380   31.0770 C   0  0  0  0  0  0  0  0  0  0  0  0
   36.8200   26.8740   31.1580 C   0  0  0  0  0  0  0  0  0  0  0  0
   36.5780   27.3580   32.4530 C   0  0  0  0  0  0  0  0  0  0  0  0
   36.9900   26.6570   33.5360 N   0  0  0  0  0  0  0  0  0  0  0  0
   37.6400   25.4790   33.3940 C   0  0  0  0  0  0  0  0  0  0  0  0
   37.9060   24.9560   32.1800 N   0  0  0  0  0  0  0  0  0  0  0  0
   37.7240   25.2070   30.1120 H   0  0  0  0  0  0  0  0  0  0  0  0
   36.0560   28.3010   32.5350 H   0  0  0  0  0  0  0  0  0  0  0  0
   38.0540   24.7800   34.5510 N   0  0  0  0  0  0  0  0  0  0  0  0
   38.0640   25.4910   35.8160 C   0  0  0  0  0  2  0  0  0  0  0  0
   37.9210   24.5480   36.9850 C   0  0  0  0  0  2  0  0  0  0  0  0
   38.9420   23.4540   36.9870 C   0  0  0  0  0  3  0  0  0  0  0  0
   38.4820   22.5940   37.5190 H   0  0  0  0  0  0  0  0  0  0  0  0
   39.4070   23.0390   35.6280 C   0  0  0  0  0  2  0  0  0  0  0  0
   38.4590   23.4040   34.5210 C   0  0  0  0  0  2  0  0  0  0  0  0
   36.4270   27.5360   29.9680 N   0  0  0  0  0  0  0  0  0  0  0  0
   35.5360   28.0390   29.7830 H   0  0  0  0  0  0  0  0  0  0  0  0
   37.1150   27.5190   29.1790 H   0  0  0  0  0  0  0  0  0  0  0  0
  1  2  2  0  0  0  0
  1  6  1  0  0  0  0
  2  3  1  0  0  0  0
  3  8  1  0  0  0  0
  3  4  2  0  0  0  0
  5  4  1  0  0  0  0
  5  9  1  0  0  0  0
  6  5  2  0  0  0  0
  7  1  1  0  0  0  0
  9 10  1  0  0  0  0
 10 11  1  0  0  0  0
 11 12  1  0  0  0  0
 12 13  1  0  0  0  0
 14 12  1  0  0  0  0
 15  9  1  0  0  0  0
 15 14  1  0  0  0  0
 16  2  1  0  0  0  0
 17 16  1  0  0  0  0
 18 16  1  0  0  0  0
M  END
>  <minimizedAffinity>
-3.9951086

$$$$

 OpenBabel03272506563D

 18 19  0  0  0  0  0  0  0  0999 V2000
   37.8630   24.4330   30.6030 C   0  0  0  0  0  0  0  0  0  0  0  0
   36.8860   25.4250   30.8560 C   0  0  0  0  0  0  0  0  0  0  0  0
   35.6600   24.9640   31.3620 C   0  0  0  0  0  0  0  0  0  0  0  0
   35.4610   23.6420   31.5810 N   0  0  0  0  0  0  0  0  0  0  0  0
   36.4360   22.7410   31.3170 C   0  0  0  0  0  0  0  0  0  0  0  0
   37.6370   23.1140   30.8310 N   0  0  0  0  0  0  0  0  0  0  0  0
   38.8290   24.7160   30.2130 H   0  0  0  0  0  0  0  0  0  0  0  0
   34.9020   25.7070   31.5620 H   0  0  0  0  0  0  0  0  0  0  0  0
   36.1860   21.3700   31.5610 N   0  0  0  0  0  0  0  0  0  0  0  0
   35.0410   21.0160   32.3790 C   0  0  0  0  0  2  0  0  0  0  0  0
   34.5450   19.6260   32.0680 C   0  0  0  0  0  2  0  0  0  0  0  0
   35.6120   18.5820   32.1740 C   0  0  0  0  0  3  0  0  0  0  0  0
   35.3230   17.7620   31.4820 H   0  0  0  0  0  0  0  0  0  0  0  0
   36.9890   19.0710   31.8560 C   0  0  0  0  0  2  0  0  0  0  0  0
   37.0160   20.3260   31.0320 C   0  0  0  0  0  2  0  0  0  0  0  0
   37.1850   26.7860   30.5960 N   0  0  0  0  0  0  0  0  0  0  0  0
   36.5640   27.5060   30.1780 H   0  0  0  0  0  0  0  0  0  0  0  0
   38.1470   27.1060   30.8550 H   0  0  0  0  0  0  0  0  0  0  0  0
  1  6  2  0  0  0  0
  1  2  1  0  0  0  0
  2  3  2  0  0  0  0
  3  8  1  0  0  0  0
  3  4  1  0  0  0  0
  5  9  1  0  0  0  0
  5  4  2  0  0  0  0
  6  5  1  0  0  0  0
  7  1  1  0  0  0  0
  9 10  1  0  0  0  0
 11 12  1  0  0  0  0
 11 10  1  0  0  0  0
 13 12  1  0  0  0  0
 14 12  1  0  0  0  0
 15  9  1  0  0  0  0
 15 14  1  0  0  0  0
 16 18  1  0  0  0  0
 16  2  1  0  0  0  0
 17 16  1  0  0  0  0
M  END
>  <minimizedAffinity>
-3.93094802

$$$$

 OpenBabel03272506563D

 18 19  0  0  0  0  0  0  0  0999 V2000
   35.9460   28.1510   32.0980 C   0  0  0  0  0  0  0  0  0  0  0  0
   36.3040   28.5960   30.8040 C   0  0  0  0  0  0  0  0  0  0  0  0
   36.4210   29.9850   30.6430 C   0  0  0  0  0  0  0  0  0  0  0  0
   36.1960   30.8190   31.6860 N   0  0  0  0  0  0  0  0  0  0  0  0
   35.8550   30.3310   32.9020 C   0  0  0  0  0  0  0  0  0  0  0  0
   35.7260   29.0080   33.1270 N   0  0  0  0  0  0  0  0  0  0  0  0
   35.8380   27.0940   32.2930 H   0  0  0  0  0  0  0  0  0  0  0  0
   36.6930   30.3450   29.6610 H   0  0  0  0  0  0  0  0  0  0  0  0
   35.6300   31.2360   33.9650 N   0  0  0  0  0  0  0  0  0  0  0  0
   36.0860   32.6050   33.8090 C   0  0  0  0  0  2  0  0  0  0  0  0
   35.2910   33.5570   34.6680 C   0  0  0  0  0  2  0  0  0  0  0  0
   35.2700   33.1700   36.1140 C   0  0  0  0  0  3  0  0  0  0  0  0
   34.3260   33.5730   36.5360 H   0  0  0  0  0  0  0  0  0  0  0  0
   35.3650   31.6970   36.3610 C   0  0  0  0  0  2  0  0  0  0  0  0
   34.9720   30.8550   35.1810 C   0  0  0  0  0  2  0  0  0  0  0  0
   36.5200   27.6490   29.7710 N   0  0  0  0  0  0  0  0  0  0  0  0
   36.2310   27.7150   28.7750 H   0  0  0  0  0  0  0  0  0  0  0  0
   37.0300   26.7760   30.0420 H   0  0  0  0  0  0  0  0  0  0  0  0
  1  7  1  0  0  0  0
  1  6  1  0  0  0  0
  2  1  2  0  0  0  0
  3  2  1  0  0  0  0
  3  4  2  0  0  0  0
  4  5  1  0  0  0  0
  5  6  2  0  0  0  0
  5  9  1  0  0  0  0
  8  3  1  0  0  0  0
  9 15  1  0  0  0  0
 10  9  1  0  0  0  0
 10 11  1  0  0  0  0
 11 12  1  0  0  0  0
 12 14  1  0  0  0  0
 12 13  1  0  0  0  0
 15 14  1  0  0  0  0
 16 18  1  0  0  0  0
 16  2  1  0  0  0  0
 17 16  1  0  0  0  0
M  END
>  <minimizedAffinity>
-3.77407598

$$$$

 OpenBabel03272506563D

 18 19  0  0  0  0  0  0  0  0999 V2000
   36.3800   30.0780   30.6150 C   0  0  0  0  0  0  0  0  0  0  0  0
   36.2980   28.6780   30.7970 C   0  0  0  0  0  0  0  0  0  0  0  0
   35.9900   28.2450   32.0970 C   0  0  0  0  0  0  0  0  0  0  0  0
   35.7910   29.1430   33.0910 N   0  0  0  0  0  0  0  0  0  0  0  0
   35.8850   30.4720   32.8530 C   0  0  0  0  0  0  0  0  0  0  0  0
   36.1760   30.9570   31.6290 N   0  0  0  0  0  0  0  0  0  0  0  0
   36.6130   30.4810   29.6410 H   0  0  0  0  0  0  0  0  0  0  0  0
   35.9220   27.1780   32.2560 H   0  0  0  0  0  0  0  0  0  0  0  0
   35.6690   31.3760   33.9190 N   0  0  0  0  0  0  0  0  0  0  0  0
   35.0410   30.8750   35.1280 C   0  0  0  0  0  2  0  0  0  0  0  0
   35.4120   31.7050   36.3310 C   0  0  0  0  0  2  0  0  0  0  0  0
   35.1250   33.1630   36.1540 C   0  0  0  0  0  3  0  0  0  0  0  0
   35.8450   33.7080   36.8000 H   0  0  0  0  0  0  0  0  0  0  0  0
   35.2240   33.6450   34.7420 C   0  0  0  0  0  2  0  0  0  0  0  0
   36.0470   32.7590   33.8510 C   0  0  0  0  0  2  0  0  0  0  0  0
   36.5210   27.8130   29.6970 N   0  0  0  0  0  0  0  0  0  0  0  0
   37.0420   26.9130   29.6880 H   0  0  0  0  0  0  0  0  0  0  0  0
   36.1150   28.1150   28.7810 H   0  0  0  0  0  0  0  0  0  0  0  0
  1  2  2  0  0  0  0
  1  6  1  0  0  0  0
  2  3  1  0  0  0  0
  3  8  1  0  0  0  0
  3  4  2  0  0  0  0
  5  4  1  0  0  0  0
  5  9  1  0  0  0  0
  6  5  2  0  0  0  0
  7  1  1  0  0  0  0
  9 10  1  0  0  0  0
 10 11  1  0  0  0  0
 12 11  1  0  0  0  0
 12 13  1  0  0  0  0
 14 12  1  0  0  0  0
 15  9  1  0  0  0  0
 15 14  1  0  0  0  0
 16  2  1  0  0  0  0
 17 16  1  0  0  0  0
 18 16  1  0  0  0  0
M  END
>  <minimizedAffinity>
-3.74203324

$$$$
