
 OpenBabel03272505213D

 26 28  0  0  0  0  0  0  0  0999 V2000
   38.2870   31.0010   47.9450 Br  0  0  0  0  0  0  0  0  0  0  0  0
   36.9180   30.5720   46.6890 C   0  0  0  0  0  0  0  0  0  0  0  0
   35.7290   30.0350   47.1130 C   0  0  0  0  0  0  0  0  0  0  0  0
   34.7680   29.7430   46.1580 C   0  0  0  0  0  0  0  0  0  0  0  0
   35.0110   29.9870   44.8220 C   0  0  0  0  0  0  0  0  0  0  0  0
   36.2220   30.5350   44.3880 C   0  0  0  0  0  0  0  0  0  0  0  0
   37.1830   30.8250   45.3560 C   0  0  0  0  0  0  0  0  0  0  0  0
   33.8230   29.3140   46.5050 H   0  0  0  0  0  0  0  0  0  0  0  0
   34.2430   29.7480   44.1050 H   0  0  0  0  0  0  0  0  0  0  0  0
   36.3760   30.7120   43.3350 H   0  0  0  0  0  0  0  0  0  0  0  0
   36.4190   29.1290   50.7240 C   0  0  0  0  0  0  0  0  0  0  0  0
   36.5950   29.3360   49.3510 C   0  0  0  0  0  0  0  0  0  0  0  0
   35.5660   29.8140   48.5370 C   0  0  0  0  0  0  0  0  0  0  0  0
   34.4010   30.0560   49.1930 N   0  0  0  0  0  0  0  0  0  0  0  0
   34.2270   29.8600   50.5030 C   0  0  0  0  0  0  0  0  0  0  0  0
   35.2300   29.4000   51.2590 N   0  0  0  0  0  0  0  0  0  0  0  0
   37.2700   28.7570   51.2740 H   0  0  0  0  0  0  0  0  0  0  0  0
   37.5430   29.1290   48.8750 H   0  0  0  0  0  0  0  0  0  0  0  0
   33.2450   30.0880   50.9290 H   0  0  0  0  0  0  0  0  0  0  0  0
   38.3720   31.3720   44.8440 N   0  0  0  0  0  0  0  0  0  0  0  0
   39.5640   30.6060   44.5780 C   0  0  0  0  0  0  0  0  0  0  0  0
   40.4120   31.1170   43.4710 C   0  0  0  0  0  0  0  0  0  0  0  0
   39.7690   32.0230   42.4910 C   0  0  0  0  0  0  0  0  0  0  0  0
   39.4140   31.4620   41.5950 H   0  0  0  0  0  0  0  0  0  0  0  0
   38.6910   32.9030   43.0430 C   0  0  0  0  0  0  0  0  0  0  0  0
   38.5110   32.7710   44.5320 C   0  0  0  0  0  0  0  0  0  0  0  0
  2  3  1  0  0  0  0
  2  1  1  0  0  0  0
  3 13  1  0  0  0  0
  4  8  1  0  0  0  0
  4  3  2  0  0  0  0
  5  4  1  0  0  0  0
  6  5  2  0  0  0  0
  6  7  1  0  0  0  0
  7  2  2  0  0  0  0
  9  5  1  0  0  0  0
 10  6  1  0  0  0  0
 11 16  1  0  0  0  0
 11 17  1  0  0  0  0
 12 11  2  0  0  0  0
 13 14  2  0  0  0  0
 13 12  1  0  0  0  0
 14 15  1  0  0  0  0
 15 19  1  0  0  0  0
 15 16  2  0  0  0  0
 18 12  1  0  0  0  0
 20  7  1  0  0  0  0
 21 20  1  0  0  0  0
 22 21  1  0  0  0  0
 23 25  1  0  0  0  0
 23 22  1  0  0  0  0
 24 23  1  0  0  0  0
 25 26  1  0  0  0  0
 26 20  1  0  0  0  0
M  END
>  <minimizedAffinity>
-5.06830788

>  <minimizedRMSD>
4.14562893

$$$$
