
 OpenBabel03272509063D

 31 33  0  0  0  0  0  0  0  0999 V2000
   37.9630   26.8640   34.3040 C   0  0  0  0  0  3  0  0  0  0  0  0
   37.9230   25.5830   34.1050 C   0  0  0  0  0  3  0  0  0  0  0  0
   35.4490   28.2330   32.0280 C   0  0  0  0  0  0  0  0  0  0  0  0
   34.8830   29.2630   32.8110 C   0  0  0  0  0  0  0  0  0  0  0  0
   35.3920   29.4580   34.1110 C   0  0  0  0  0  0  0  0  0  0  0  0
   36.4080   28.6430   34.5490 N   0  0  0  0  0  0  0  0  0  0  0  0
   36.8980   27.6790   33.7450 C   0  0  0  0  0  0  0  0  0  0  0  0
   36.4390   27.4590   32.4950 N   0  0  0  0  0  0  0  0  0  0  0  0
   35.0680   28.0750   31.0340 H   0  0  0  0  0  0  0  0  0  0  0  0
   34.0990   29.8560   32.4060 H   0  0  0  0  0  0  0  0  0  0  0  0
   34.8560   30.4780   34.9300 N   0  0  0  0  0  0  0  0  0  0  0  0
   35.7340   31.3260   35.6590 C   0  0  0  0  0  2  0  0  0  0  0  0
   35.0870   32.2360   36.6410 C   0  0  0  0  0  2  0  0  0  0  0  0
   33.7450   31.8340   37.1330 C   0  0  0  0  0  3  0  0  0  0  0  0
   33.7840   31.5750   38.2330 H   0  0  0  0  0  0  0  0  0  0  0  0
   33.0890   30.6780   36.4740 C   0  0  0  0  0  2  0  0  0  0  0  0
   33.4160   30.6190   34.9940 C   0  0  0  0  0  2  0  0  0  0  0  0
   38.8660   24.5400   34.5390 C   0  0  0  0  0  0  0  0  0  0  0  0
   38.6940   23.6400   33.9110 H   0  0  0  0  0  0  0  0  0  0  0  0
   39.9330   24.8280   34.3170 H   0  0  0  0  0  0  0  0  0  0  0  0
   38.7590   24.1980   35.9790 C   0  0  0  0  0  0  0  0  0  0  0  0
   37.8200   24.6580   36.8700 C   0  0  0  0  0  0  0  0  0  0  0  0
   37.8500   24.2410   38.1930 C   0  0  0  0  0  0  0  0  0  0  0  0
   38.8160   23.3590   38.6550 C   0  0  0  0  0  0  0  0  0  0  0  0
   39.7650   22.8850   37.7830 C   0  0  0  0  0  0  0  0  0  0  0  0
   39.7330   23.3050   36.4590 C   0  0  0  0  0  0  0  0  0  0  0  0
   37.0900   25.3420   36.4620 H   0  0  0  0  0  0  0  0  0  0  0  0
   37.0590   24.6600   38.8310 H   0  0  0  0  0  0  0  0  0  0  0  0
   38.7870   23.0710   39.6950 H   0  0  0  0  0  0  0  0  0  0  0  0
   40.5320   22.1970   38.1130 H   0  0  0  0  0  0  0  0  0  0  0  0
   40.5110   22.8960   35.8160 H   0  0  0  0  0  0  0  0  0  0  0  0
  2  1  2  0  0  0  0
  2 18  1  0  0  0  0
  3  8  2  0  0  0  0
  3  4  1  0  0  0  0
  4  5  2  0  0  0  0
  5  6  1  0  0  0  0
  5 11  1  0  0  0  0
  7  1  1  0  0  0  0
  7  6  2  0  0  0  0
  8  7  1  0  0  0  0
  9  3  1  0  0  0  0
 10  4  1  0  0  0  0
 11 17  1  0  0  0  0
 11 12  1  0  0  0  0
 12 13  1  0  0  0  0
 13 14  1  0  0  0  0
 14 15  1  0  0  0  0
 16 14  1  0  0  0  0
 17 16  1  0  0  0  0
 18 21  1  0  0  0  0
 19 18  1  0  0  0  0
 20 18  1  0  0  0  0
 21 26  2  0  0  0  0
 21 22  1  0  0  0  0
 22 23  2  0  0  0  0
 23 24  1  0  0  0  0
 23 28  1  0  0  0  0
 24 29  1  0  0  0  0
 25 30  1  0  0  0  0
 25 24  2  0  0  0  0
 26 25  1  0  0  0  0
 27 22  1  0  0  0  0
 31 26  1  0  0  0  0
M  END
>  <minimizedAffinity>
-6.1927433

$$$$

 OpenBabel03272509063D

 31 33  0  0  0  0  0  0  0  0999 V2000
   36.8810   24.0130   31.5440 C   0  0  0  0  0  3  0  0  0  0  0  0
   35.9680   23.1100   31.7230 C   0  0  0  0  0  3  0  0  0  0  0  0
   37.1340   27.0270   33.5990 C   0  0  0  0  0  0  0  0  0  0  0  0
   37.7490   26.5270   34.7690 C   0  0  0  0  0  0  0  0  0  0  0  0
   38.0630   25.1540   34.8120 C   0  0  0  0  0  0  0  0  0  0  0  0
   37.7590   24.3750   33.7220 N   0  0  0  0  0  0  0  0  0  0  0  0
   37.1710   24.9220   32.6400 C   0  0  0  0  0  0  0  0  0  0  0  0
   36.8540   26.2310   32.5580 N   0  0  0  0  0  0  0  0  0  0  0  0
   36.8890   28.0750   33.5560 H   0  0  0  0  0  0  0  0  0  0  0  0
   37.9550   27.1900   35.5750 H   0  0  0  0  0  0  0  0  0  0  0  0
   38.6790   24.6100   35.9620 N   0  0  0  0  0  0  0  0  0  0  0  0
   39.7790   23.7210   35.8140 C   0  0  0  0  0  2  0  0  0  0  0  0
   40.2370   23.0470   37.0580 C   0  0  0  0  0  2  0  0  0  0  0  0
   39.2460   22.9430   38.1590 C   0  0  0  0  0  3  0  0  0  0  0  0
   38.9590   21.8640   38.3380 H   0  0  0  0  0  0  0  0  0  0  0  0
   37.9660   23.6770   38.0040 C   0  0  0  0  0  2  0  0  0  0  0  0
   38.1580   24.9850   37.2610 C   0  0  0  0  0  2  0  0  0  0  0  0
   35.4710   22.0860   30.7900 C   0  0  0  0  0  0  0  0  0  0  0  0
   34.3830   22.2530   30.6460 H   0  0  0  0  0  0  0  0  0  0  0  0
   35.9060   22.2200   29.7580 H   0  0  0  0  0  0  0  0  0  0  0  0
   35.7310   20.6950   31.2350 C   0  0  0  0  0  0  0  0  0  0  0  0
   36.4600   19.7370   30.5740 C   0  0  0  0  0  0  0  0  0  0  0  0
   36.6170   18.4740   31.1240 C   0  0  0  0  0  0  0  0  0  0  0  0
   36.0500   18.1390   32.3470 C   0  0  0  0  0  0  0  0  0  0  0  0
   35.3170   19.0800   33.0270 C   0  0  0  0  0  0  0  0  0  0  0  0
   35.1620   20.3440   32.4730 C   0  0  0  0  0  0  0  0  0  0  0  0
   36.8790   20.0470   29.6280 H   0  0  0  0  0  0  0  0  0  0  0  0
   37.2160   17.7750   30.5250 H   0  0  0  0  0  0  0  0  0  0  0  0
   36.2080   17.1400   32.7240 H   0  0  0  0  0  0  0  0  0  0  0  0
   34.8630   18.8490   33.9820 H   0  0  0  0  0  0  0  0  0  0  0  0
   34.5700   21.0460   33.0580 H   0  0  0  0  0  0  0  0  0  0  0  0
  1  2  2  0  0  0  0
  1  7  1  0  0  0  0
  3  4  1  0  0  0  0
  4  5  2  0  0  0  0
  4 10  1  0  0  0  0
  5 11  1  0  0  0  0
  6  5  1  0  0  0  0
  7  6  2  0  0  0  0
  8  7  1  0  0  0  0
  8  3  2  0  0  0  0
  9  3  1  0  0  0  0
 11 17  1  0  0  0  0
 12 11  1  0  0  0  0
 12 13  1  0  0  0  0
 13 14  1  0  0  0  0
 14 15  1  0  0  0  0
 16 14  1  0  0  0  0
 17 16  1  0  0  0  0
 18 21  1  0  0  0  0
 18  2  1  0  0  0  0
 19 18  1  0  0  0  0
 20 18  1  0  0  0  0
 21 26  1  0  0  0  0
 22 23  1  0  0  0  0
 22 21  2  0  0  0  0
 23 24  2  0  0  0  0
 24 29  1  0  0  0  0
 24 25  1  0  0  0  0
 25 30  1  0  0  0  0
 26 25  2  0  0  0  0
 26 31  1  0  0  0  0
 27 22  1  0  0  0  0
 28 23  1  0  0  0  0
M  END
>  <minimizedAffinity>
-5.80938148

$$$$

 OpenBabel03272509063D

 31 33  0  0  0  0  0  0  0  0999 V2000
   36.7040   28.3290   34.5340 C   0  0  0  0  0  3  0  0  0  0  0  0
   35.9210   29.0480   33.7910 C   0  0  0  0  0  3  0  0  0  0  0  0
   37.0410   25.3050   32.5060 C   0  0  0  0  0  0  0  0  0  0  0  0
   37.5850   24.3930   33.4380 C   0  0  0  0  0  0  0  0  0  0  0  0
   37.8190   24.8520   34.7500 C   0  0  0  0  0  0  0  0  0  0  0  0
   37.5060   26.1550   35.0550 N   0  0  0  0  0  0  0  0  0  0  0  0
   36.9900   26.9680   34.1140 C   0  0  0  0  0  0  0  0  0  0  0  0
   36.7520   26.5690   32.8470 N   0  0  0  0  0  0  0  0  0  0  0  0
   36.8600   24.9650   31.5010 H   0  0  0  0  0  0  0  0  0  0  0  0
   37.8020   23.3990   33.1300 H   0  0  0  0  0  0  0  0  0  0  0  0
   38.3610   23.9740   35.7150 N   0  0  0  0  0  0  0  0  0  0  0  0
   37.7970   23.9310   37.0200 C   0  0  0  0  0  2  0  0  0  0  0  0
   38.5480   23.1310   38.0230 C   0  0  0  0  0  2  0  0  0  0  0  0
   39.9910   22.9120   37.7500 C   0  0  0  0  0  3  0  0  0  0  0  0
   40.6280   23.4460   38.5170 H   0  0  0  0  0  0  0  0  0  0  0  0
   40.5140   23.3370   36.4290 C   0  0  0  0  0  2  0  0  0  0  0  0
   39.4850   23.1440   35.3320 C   0  0  0  0  0  2  0  0  0  0  0  0
   35.4580   30.4310   33.9860 C   0  0  0  0  0  0  0  0  0  0  0  0
   36.3440   31.0580   34.2200 H   0  0  0  0  0  0  0  0  0  0  0  0
   35.0570   30.8720   33.0290 H   0  0  0  0  0  0  0  0  0  0  0  0
   34.4250   30.5730   35.0410 C   0  0  0  0  0  0  0  0  0  0  0  0
   33.2460   29.8750   35.1440 C   0  0  0  0  0  0  0  0  0  0  0  0
   32.3790   30.1210   36.1980 C   0  0  0  0  0  0  0  0  0  0  0  0
   32.6680   31.0670   37.1710 C   0  0  0  0  0  0  0  0  0  0  0  0
   33.8400   31.7780   37.0900 C   0  0  0  0  0  0  0  0  0  0  0  0
   34.7070   31.5300   36.0330 C   0  0  0  0  0  0  0  0  0  0  0  0
   33.0680   29.1510   34.3630 H   0  0  0  0  0  0  0  0  0  0  0  0
   31.4620   29.5150   36.1980 H   0  0  0  0  0  0  0  0  0  0  0  0
   31.9540   31.2130   37.9670 H   0  0  0  0  0  0  0  0  0  0  0  0
   34.0930   32.5230   37.8330 H   0  0  0  0  0  0  0  0  0  0  0  0
   35.6190   32.1240   36.0230 H   0  0  0  0  0  0  0  0  0  0  0  0
  2 18  1  0  0  0  0
  2  1  2  0  0  0  0
  3  8  2  0  0  0  0
  3  4  1  0  0  0  0
  4  5  2  0  0  0  0
  5  6  1  0  0  0  0
  5 11  1  0  0  0  0
  7  1  1  0  0  0  0
  7  6  2  0  0  0  0
  8  7  1  0  0  0  0
  9  3  1  0  0  0  0
 10  4  1  0  0  0  0
 11 12  1  0  0  0  0
 12 13  1  0  0  0  0
 14 13  1  0  0  0  0
 14 15  1  0  0  0  0
 16 14  1  0  0  0  0
 17 11  1  0  0  0  0
 17 16  1  0  0  0  0
 18 19  1  0  0  0  0
 18 21  1  0  0  0  0
 20 18  1  0  0  0  0
 21 22  2  0  0  0  0
 21 26  1  0  0  0  0
 22 23  1  0  0  0  0
 23 28  1  0  0  0  0
 23 24  2  0  0  0  0
 24 29  1  0  0  0  0
 25 24  1  0  0  0  0
 25 30  1  0  0  0  0
 26 25  2  0  0  0  0
 27 22  1  0  0  0  0
 31 26  1  0  0  0  0
M  END
>  <minimizedAffinity>
-5.77081203

$$$$

 OpenBabel03272509063D

 31 33  0  0  0  0  0  0  0  0999 V2000
   36.8630   27.8490   33.4560 C   0  0  0  0  0  3  0  0  0  0  0  0
   36.1130   28.6220   34.1780 C   0  0  0  0  0  3  0  0  0  0  0  0
   38.1960   25.4100   35.8320 C   0  0  0  0  0  0  0  0  0  0  0  0
   38.2150   24.2310   35.0550 C   0  0  0  0  0  0  0  0  0  0  0  0
   37.7650   24.3140   33.7210 C   0  0  0  0  0  0  0  0  0  0  0  0
   37.3360   25.5300   33.2470 N   0  0  0  0  0  0  0  0  0  0  0  0
   37.3460   26.6130   34.0490 C   0  0  0  0  0  0  0  0  0  0  0  0
   37.7680   26.5770   35.3300 N   0  0  0  0  0  0  0  0  0  0  0  0
   38.5370   25.3580   36.8520 H   0  0  0  0  0  0  0  0  0  0  0  0
   38.5610   23.3240   35.4890 H   0  0  0  0  0  0  0  0  0  0  0  0
   37.7660   23.1600   32.9070 N   0  0  0  0  0  0  0  0  0  0  0  0
   38.2590   23.2420   31.5750 C   0  0  0  0  0  2  0  0  0  0  0  0
   38.0420   22.0380   30.7300 C   0  0  0  0  0  2  0  0  0  0  0  0
   36.9380   21.1320   31.1370 C   0  0  0  0  0  3  0  0  0  0  0  0
   36.1090   21.1410   30.3670 H   0  0  0  0  0  0  0  0  0  0  0  0
   36.2770   21.3960   32.4390 C   0  0  0  0  0  2  0  0  0  0  0  0
   37.2580   21.9250   33.4670 C   0  0  0  0  0  2  0  0  0  0  0  0
   35.5080   29.9200   33.8380 C   0  0  0  0  0  0  0  0  0  0  0  0
   36.2760   30.5300   33.3190 H   0  0  0  0  0  0  0  0  0  0  0  0
   34.6860   29.8060   33.0740 H   0  0  0  0  0  0  0  0  0  0  0  0
   34.9660   30.6520   35.0090 C   0  0  0  0  0  0  0  0  0  0  0  0
   35.6530   31.4920   35.8510 C   0  0  0  0  0  0  0  0  0  0  0  0
   35.0020   32.1090   36.9080 C   0  0  0  0  0  0  0  0  0  0  0  0
   33.6500   31.9020   37.1490 C   0  0  0  0  0  0  0  0  0  0  0  0
   32.9410   31.0670   36.3210 C   0  0  0  0  0  0  0  0  0  0  0  0
   33.5970   30.4500   35.2640 C   0  0  0  0  0  0  0  0  0  0  0  0
   36.7010   31.6190   35.6220 H   0  0  0  0  0  0  0  0  0  0  0  0
   35.6320   32.7630   37.5260 H   0  0  0  0  0  0  0  0  0  0  0  0
   33.1990   32.4110   37.9860 H   0  0  0  0  0  0  0  0  0  0  0  0
   31.8870   30.8850   36.4830 H   0  0  0  0  0  0  0  0  0  0  0  0
   32.9820   29.7990   34.6430 H   0  0  0  0  0  0  0  0  0  0  0  0
  1  7  1  0  0  0  0
  1  2  2  0  0  0  0
  3  9  1  0  0  0  0
  4 10  1  0  0  0  0
  4  3  2  0  0  0  0
  5  4  1  0  0  0  0
  6  5  2  0  0  0  0
  6  7  1  0  0  0  0
  7  8  2  0  0  0  0
  8  3  1  0  0  0  0
 11 17  1  0  0  0  0
 11  5  1  0  0  0  0
 12 11  1  0  0  0  0
 13 14  1  0  0  0  0
 13 12  1  0  0  0  0
 14 16  1  0  0  0  0
 15 14  1  0  0  0  0
 16 17  1  0  0  0  0
 18  2  1  0  0  0  0
 18 21  1  0  0  0  0
 19 18  1  0  0  0  0
 20 18  1  0  0  0  0
 21 26  2  0  0  0  0
 21 22  1  0  0  0  0
 22 23  2  0  0  0  0
 23 24  1  0  0  0  0
 23 28  1  0  0  0  0
 24 29  1  0  0  0  0
 25 30  1  0  0  0  0
 25 24  2  0  0  0  0
 26 25  1  0  0  0  0
 27 22  1  0  0  0  0
 31 26  1  0  0  0  0
M  END
>  <minimizedAffinity>
-5.6482358

$$$$

 OpenBabel03272509063D

 31 33  0  0  0  0  0  0  0  0999 V2000
   36.5600   28.6360   34.6970 C   0  0  0  0  0  3  0  0  0  0  0  0
   35.4490   29.2010   34.3400 C   0  0  0  0  0  3  0  0  0  0  0  0
   36.9880   25.8890   32.3210 C   0  0  0  0  0  0  0  0  0  0  0  0
   37.5720   24.8930   33.1340 C   0  0  0  0  0  0  0  0  0  0  0  0
   37.7990   25.2010   34.4910 C   0  0  0  0  0  0  0  0  0  0  0  0
   37.4440   26.4450   34.9510 N   0  0  0  0  0  0  0  0  0  0  0  0
   36.8910   27.3460   34.1150 C   0  0  0  0  0  0  0  0  0  0  0  0
   36.6570   27.0920   32.8110 N   0  0  0  0  0  0  0  0  0  0  0  0
   36.8110   25.6650   31.2830 H   0  0  0  0  0  0  0  0  0  0  0  0
   37.8220   23.9510   32.7090 H   0  0  0  0  0  0  0  0  0  0  0  0
   38.3800   24.2340   35.3420 N   0  0  0  0  0  0  0  0  0  0  0  0
   37.8290   24.0160   36.6350 C   0  0  0  0  0  2  0  0  0  0  0  0
   38.6160   23.1290   37.5320 C   0  0  0  0  0  2  0  0  0  0  0  0
   40.0640   22.9960   37.2300 C   0  0  0  0  0  3  0  0  0  0  0  0
   40.6870   23.4580   38.0520 H   0  0  0  0  0  0  0  0  0  0  0  0
   40.5600   23.5950   35.9670 C   0  0  0  0  0  2  0  0  0  0  0  0
   39.5300   23.4970   34.8580 C   0  0  0  0  0  2  0  0  0  0  0  0
   34.8690   30.4810   34.7780 C   0  0  0  0  0  0  0  0  0  0  0  0
   33.8520   30.5630   34.3410 H   0  0  0  0  0  0  0  0  0  0  0  0
   34.6900   30.4950   35.8910 H   0  0  0  0  0  0  0  0  0  0  0  0
   35.6890   31.6630   34.4160 C   0  0  0  0  0  0  0  0  0  0  0  0
   35.9400   32.1410   33.1530 C   0  0  0  0  0  0  0  0  0  0  0  0
   36.7290   33.2670   32.9750 C   0  0  0  0  0  0  0  0  0  0  0  0
   37.2850   33.9420   34.0540 C   0  0  0  0  0  0  0  0  0  0  0  0
   37.0480   33.4840   35.3260 C   0  0  0  0  0  0  0  0  0  0  0  0
   36.2580   32.3550   35.5010 C   0  0  0  0  0  0  0  0  0  0  0  0
   35.4860   31.5810   32.3480 H   0  0  0  0  0  0  0  0  0  0  0  0
   36.8750   33.5750   31.9310 H   0  0  0  0  0  0  0  0  0  0  0  0
   37.8890   34.8130   33.8520 H   0  0  0  0  0  0  0  0  0  0  0  0
   37.4680   33.9880   36.1870 H   0  0  0  0  0  0  0  0  0  0  0  0
   36.1060   32.0410   36.5320 H   0  0  0  0  0  0  0  0  0  0  0  0
  2  1  2  0  0  0  0
  2 18  1  0  0  0  0
  3  8  2  0  0  0  0
  3  4  1  0  0  0  0
  4  5  2  0  0  0  0
  5  6  1  0  0  0  0
  5 11  1  0  0  0  0
  7  1  1  0  0  0  0
  7  6  2  0  0  0  0
  8  7  1  0  0  0  0
  9  3  1  0  0  0  0
 10  4  1  0  0  0  0
 11 12  1  0  0  0  0
 12 13  1  0  0  0  0
 14 13  1  0  0  0  0
 14 15  1  0  0  0  0
 16 14  1  0  0  0  0
 17 11  1  0  0  0  0
 17 16  1  0  0  0  0
 18 20  1  0  0  0  0
 19 18  1  0  0  0  0
 21 18  1  0  0  0  0
 21 26  1  0  0  0  0
 22 21  2  0  0  0  0
 23 22  1  0  0  0  0
 23 24  2  0  0  0  0
 24 25  1  0  0  0  0
 25 26  2  0  0  0  0
 25 30  1  0  0  0  0
 26 31  1  0  0  0  0
 27 22  1  0  0  0  0
 28 23  1  0  0  0  0
 29 24  1  0  0  0  0
M  END
>  <minimizedAffinity>
-5.51786661

$$$$

 OpenBabel03272509063D

 31 33  0  0  0  0  0  0  0  0999 V2000
   37.9570   24.6930   34.5220 C   0  0  0  0  0  3  0  0  0  0  0  0
   38.5440   25.7560   34.0680 C   0  0  0  0  0  3  0  0  0  0  0  0
   38.1850   23.4620   37.9580 C   0  0  0  0  0  0  0  0  0  0  0  0
   39.5060   22.9620   37.9970 C   0  0  0  0  0  0  0  0  0  0  0  0
   40.2860   23.0690   36.8280 C   0  0  0  0  0  0  0  0  0  0  0  0
   39.7260   23.6500   35.7160 N   0  0  0  0  0  0  0  0  0  0  0  0
   38.4580   24.1040   35.7520 C   0  0  0  0  0  0  0  0  0  0  0  0
   37.6780   24.0220   36.8500 N   0  0  0  0  0  0  0  0  0  0  0  0
   37.5800   23.3860   38.8450 H   0  0  0  0  0  0  0  0  0  0  0  0
   39.8720   22.5250   38.8940 H   0  0  0  0  0  0  0  0  0  0  0  0
   41.6120   22.5820   36.8220 N   0  0  0  0  0  0  0  0  0  0  0  0
   42.6460   23.3730   36.2480 C   0  0  0  0  0  2  0  0  0  0  0  0
   43.9670   22.7060   36.1070 C   0  0  0  0  0  2  0  0  0  0  0  0
   43.9600   21.2210   36.0720 C   0  0  0  0  0  3  0  0  0  0  0  0
   44.2820   20.8440   35.0550 H   0  0  0  0  0  0  0  0  0  0  0  0
   42.6800   20.5330   36.3670 C   0  0  0  0  0  2  0  0  0  0  0  0
   41.8680   21.2820   37.4060 C   0  0  0  0  0  2  0  0  0  0  0  0
   38.2550   26.5370   32.8540 C   0  0  0  0  0  0  0  0  0  0  0  0
   39.2190   26.9150   32.4530 H   0  0  0  0  0  0  0  0  0  0  0  0
   37.8520   25.8840   32.0280 H   0  0  0  0  0  0  0  0  0  0  0  0
   37.3080   27.6570   33.0750 C   0  0  0  0  0  0  0  0  0  0  0  0
   36.6860   27.9950   34.2530 C   0  0  0  0  0  0  0  0  0  0  0  0
   35.8230   29.0790   34.3010 C   0  0  0  0  0  0  0  0  0  0  0  0
   35.5620   29.8500   33.1770 C   0  0  0  0  0  0  0  0  0  0  0  0
   36.1710   29.5330   31.9880 C   0  0  0  0  0  0  0  0  0  0  0  0
   37.0350   28.4460   31.9430 C   0  0  0  0  0  0  0  0  0  0  0  0
   36.9220   27.3640   35.0970 H   0  0  0  0  0  0  0  0  0  0  0  0
   35.3730   29.2740   35.2850 H   0  0  0  0  0  0  0  0  0  0  0  0
   34.8820   30.6820   33.2780 H   0  0  0  0  0  0  0  0  0  0  0  0
   35.9870   30.1140   31.0940 H   0  0  0  0  0  0  0  0  0  0  0  0
   37.4870   28.2430   30.9730 H   0  0  0  0  0  0  0  0  0  0  0  0
  1  7  1  0  0  0  0
  2  1  2  0  0  0  0
  3  4  1  0  0  0  0
  3  9  1  0  0  0  0
  4 10  1  0  0  0  0
  5  4  2  0  0  0  0
  6  7  2  0  0  0  0
  6  5  1  0  0  0  0
  7  8  1  0  0  0  0
  8  3  2  0  0  0  0
 11  5  1  0  0  0  0
 11 17  1  0  0  0  0
 12 11  1  0  0  0  0
 13 12  1  0  0  0  0
 14 13  1  0  0  0  0
 14 16  1  0  0  0  0
 15 14  1  0  0  0  0
 16 17  1  0  0  0  0
 18 21  1  0  0  0  0
 18  2  1  0  0  0  0
 19 18  1  0  0  0  0
 20 18  1  0  0  0  0
 21 22  1  0  0  0  0
 22 23  2  0  0  0  0
 22 27  1  0  0  0  0
 23 28  1  0  0  0  0
 24 29  1  0  0  0  0
 24 23  1  0  0  0  0
 25 24  2  0  0  0  0
 26 25  1  0  0  0  0
 26 21  2  0  0  0  0
 30 25  1  0  0  0  0
 31 26  1  0  0  0  0
M  END
>  <minimizedAffinity>
-5.50412512

$$$$

 OpenBabel03272509063D

 31 33  0  0  0  0  0  0  0  0999 V2000
   37.2890   27.5720   33.3020 C   0  0  0  0  0  3  0  0  0  0  0  0
   36.2850   28.1390   32.7070 C   0  0  0  0  0  3  0  0  0  0  0  0
   37.1180   24.0970   32.1760 C   0  0  0  0  0  0  0  0  0  0  0  0
   37.6130   23.4050   33.3030 C   0  0  0  0  0  0  0  0  0  0  0  0
   37.9900   24.1640   34.4290 C   0  0  0  0  0  0  0  0  0  0  0  0
   37.8590   25.5310   34.3750 N   0  0  0  0  0  0  0  0  0  0  0  0
   37.3800   26.1230   33.2630 C   0  0  0  0  0  0  0  0  0  0  0  0
   37.0070   25.4330   32.1650 N   0  0  0  0  0  0  0  0  0  0  0  0
   36.8280   23.5280   31.3100 H   0  0  0  0  0  0  0  0  0  0  0  0
   37.6870   22.3450   33.2740 H   0  0  0  0  0  0  0  0  0  0  0  0
   38.4900   23.5140   35.5800 N   0  0  0  0  0  0  0  0  0  0  0  0
   38.0170   23.8990   36.8640 C   0  0  0  0  0  2  0  0  0  0  0  0
   38.7350   23.3040   38.0230 C   0  0  0  0  0  2  0  0  0  0  0  0
   40.1190   22.8280   37.7720 C   0  0  0  0  0  3  0  0  0  0  0  0
   40.8670   23.4580   38.3390 H   0  0  0  0  0  0  0  0  0  0  0  0
   40.5950   22.8080   36.3670 C   0  0  0  0  0  2  0  0  0  0  0  0
   39.4760   22.4670   35.4020 C   0  0  0  0  0  2  0  0  0  0  0  0
   35.9450   29.5670   32.6050 C   0  0  0  0  0  0  0  0  0  0  0  0
   36.8820   30.1290   32.4030 H   0  0  0  0  0  0  0  0  0  0  0  0
   35.3020   29.7760   31.7030 H   0  0  0  0  0  0  0  0  0  0  0  0
   35.2630   30.1060   33.8070 C   0  0  0  0  0  0  0  0  0  0  0  0
   35.8320   30.8260   34.8280 C   0  0  0  0  0  0  0  0  0  0  0  0
   35.0560   31.2670   35.8900 C   0  0  0  0  0  0  0  0  0  0  0  0
   33.6960   30.9990   35.9560 C   0  0  0  0  0  0  0  0  0  0  0  0
   33.1030   30.2820   34.9460 C   0  0  0  0  0  0  0  0  0  0  0  0
   33.8830   29.8410   33.8850 C   0  0  0  0  0  0  0  0  0  0  0  0
   36.8930   31.0080   34.7310 H   0  0  0  0  0  0  0  0  0  0  0  0
   35.5980   31.8350   36.6590 H   0  0  0  0  0  0  0  0  0  0  0  0
   33.1450   31.3700   36.8070 H   0  0  0  0  0  0  0  0  0  0  0  0
   32.0450   30.0560   34.9690 H   0  0  0  0  0  0  0  0  0  0  0  0
   33.3580   29.2770   33.1160 H   0  0  0  0  0  0  0  0  0  0  0  0
  2  1  2  0  0  0  0
  3  4  1  0  0  0  0
  4  5  2  0  0  0  0
  5 11  1  0  0  0  0
  6  5  1  0  0  0  0
  7  1  1  0  0  0  0
  7  6  2  0  0  0  0
  8  3  2  0  0  0  0
  8  7  1  0  0  0  0
  9  3  1  0  0  0  0
 10  4  1  0  0  0  0
 11 12  1  0  0  0  0
 12 13  1  0  0  0  0
 14 13  1  0  0  0  0
 14 15  1  0  0  0  0
 16 14  1  0  0  0  0
 17 11  1  0  0  0  0
 17 16  1  0  0  0  0
 18  2  1  0  0  0  0
 18 21  1  0  0  0  0
 19 18  1  0  0  0  0
 20 18  1  0  0  0  0
 21 26  2  0  0  0  0
 21 22  1  0  0  0  0
 22 23  2  0  0  0  0
 23 24  1  0  0  0  0
 23 28  1  0  0  0  0
 24 29  1  0  0  0  0
 25 30  1  0  0  0  0
 25 24  2  0  0  0  0
 26 25  1  0  0  0  0
 27 22  1  0  0  0  0
 31 26  1  0  0  0  0
M  END
>  <minimizedAffinity>
-5.45590734

$$$$

 OpenBabel03272509063D

 31 33  0  0  0  0  0  0  0  0999 V2000
   34.3880   29.9770   32.5550 C   0  0  0  0  0  3  0  0  0  0  0  0
   34.1420   29.3950   33.6880 C   0  0  0  0  0  3  0  0  0  0  0  0
   36.9460   29.4730   29.9910 C   0  0  0  0  0  0  0  0  0  0  0  0
   37.1310   28.0740   30.0400 C   0  0  0  0  0  0  0  0  0  0  0  0
   36.3590   27.3390   30.9620 C   0  0  0  0  0  0  0  0  0  0  0  0
   35.4700   28.0160   31.7620 N   0  0  0  0  0  0  0  0  0  0  0  0
   35.3470   29.3540   31.6590 C   0  0  0  0  0  0  0  0  0  0  0  0
   36.0670   30.0940   30.7910 N   0  0  0  0  0  0  0  0  0  0  0  0
   37.5320   30.0440   29.2910 H   0  0  0  0  0  0  0  0  0  0  0  0
   37.8380   27.6170   29.3900 H   0  0  0  0  0  0  0  0  0  0  0  0
   36.5100   25.9370   31.0460 N   0  0  0  0  0  0  0  0  0  0  0  0
   35.3550   25.1090   31.1110 C   0  0  0  0  0  2  0  0  0  0  0  0
   35.6060   23.6710   31.3940 C   0  0  0  0  0  2  0  0  0  0  0  0
   36.8860   23.3410   32.0720 C   0  0  0  0  0  3  0  0  0  0  0  0
   36.6950   22.9430   33.1130 H   0  0  0  0  0  0  0  0  0  0  0  0
   37.8770   24.4320   32.2350 C   0  0  0  0  0  2  0  0  0  0  0  0
   37.8520   25.3920   31.0620 C   0  0  0  0  0  2  0  0  0  0  0  0
   33.2390   29.8100   34.7740 C   0  0  0  0  0  0  0  0  0  0  0  0
   32.2690   30.1040   34.3200 H   0  0  0  0  0  0  0  0  0  0  0  0
   32.9750   28.9450   35.4460 H   0  0  0  0  0  0  0  0  0  0  0  0
   33.7770   30.9110   35.6110 C   0  0  0  0  0  0  0  0  0  0  0  0
   35.0630   31.3930   35.6160 C   0  0  0  0  0  0  0  0  0  0  0  0
   35.4150   32.4370   36.4600 C   0  0  0  0  0  0  0  0  0  0  0  0
   34.4910   33.0210   37.3160 C   0  0  0  0  0  0  0  0  0  0  0  0
   33.1990   32.5560   37.3290 C   0  0  0  0  0  0  0  0  0  0  0  0
   32.8510   31.5110   36.4830 C   0  0  0  0  0  0  0  0  0  0  0  0
   35.7430   30.9050   34.9330 H   0  0  0  0  0  0  0  0  0  0  0  0
   36.4640   32.7560   36.3940 H   0  0  0  0  0  0  0  0  0  0  0  0
   34.8250   33.8300   37.9480 H   0  0  0  0  0  0  0  0  0  0  0  0
   32.4570   32.9910   37.9850 H   0  0  0  0  0  0  0  0  0  0  0  0
   31.8130   31.1860   36.5390 H   0  0  0  0  0  0  0  0  0  0  0  0
  1  2  2  0  0  0  0
  2 18  1  0  0  0  0
  3  4  2  0  0  0  0
  3  8  1  0  0  0  0
  4  5  1  0  0  0  0
  5 11  1  0  0  0  0
  5  6  2  0  0  0  0
  7  6  1  0  0  0  0
  7  1  1  0  0  0  0
  8  7  2  0  0  0  0
  9  3  1  0  0  0  0
 10  4  1  0  0  0  0
 11 17  1  0  0  0  0
 11 12  1  0  0  0  0
 12 13  1  0  0  0  0
 13 14  1  0  0  0  0
 14 16  1  0  0  0  0
 14 15  1  0  0  0  0
 17 16  1  0  0  0  0
 18 20  1  0  0  0  0
 18 21  1  0  0  0  0
 19 18  1  0  0  0  0
 21 22  2  0  0  0  0
 21 26  1  0  0  0  0
 22 23  1  0  0  0  0
 23 24  2  0  0  0  0
 24 25  1  0  0  0  0
 24 29  1  0  0  0  0
 25 30  1  0  0  0  0
 26 31  1  0  0  0  0
 26 25  2  0  0  0  0
 27 22  1  0  0  0  0
 28 23  1  0  0  0  0
M  END
>  <minimizedAffinity>
-5.37535

$$$$

 OpenBabel03272509063D

 31 33  0  0  0  0  0  0  0  0999 V2000
   37.0670   27.1690   34.1070 C   0  0  0  0  0  3  0  0  0  0  0  0
   37.6990   27.3330   35.2280 C   0  0  0  0  0  3  0  0  0  0  0  0
   35.3570   29.4580   31.8240 C   0  0  0  0  0  0  0  0  0  0  0  0
   34.8350   30.4190   32.7170 C   0  0  0  0  0  0  0  0  0  0  0  0
   35.0920   30.2480   34.0930 C   0  0  0  0  0  0  0  0  0  0  0  0
   35.8350   29.1640   34.4930 N   0  0  0  0  0  0  0  0  0  0  0  0
   36.3010   28.2870   33.5820 C   0  0  0  0  0  0  0  0  0  0  0  0
   36.0770   28.4130   32.2570 N   0  0  0  0  0  0  0  0  0  0  0  0
   35.1660   29.5780   30.7710 H   0  0  0  0  0  0  0  0  0  0  0  0
   34.2680   31.2330   32.3360 H   0  0  0  0  0  0  0  0  0  0  0  0
   34.5890   31.1850   35.0230 N   0  0  0  0  0  0  0  0  0  0  0  0
   35.4350   31.6680   36.0590 C   0  0  0  0  0  2  0  0  0  0  0  0
   34.7720   32.4940   37.1030 C   0  0  0  0  0  2  0  0  0  0  0  0
   33.3080   32.3070   37.2660 C   0  0  0  0  0  3  0  0  0  0  0  0
   33.0740   31.8420   38.2700 H   0  0  0  0  0  0  0  0  0  0  0  0
   32.6070   31.4680   36.2630 C   0  0  0  0  0  2  0  0  0  0  0  0
   33.2150   31.6210   34.8820 C   0  0  0  0  0  2  0  0  0  0  0  0
   38.5250   26.3770   35.9830 C   0  0  0  0  0  0  0  0  0  0  0  0
   38.7760   26.8390   36.9610 H   0  0  0  0  0  0  0  0  0  0  0  0
   37.9410   25.4530   36.2590 H   0  0  0  0  0  0  0  0  0  0  0  0
   39.7580   25.9610   35.2720 C   0  0  0  0  0  0  0  0  0  0  0  0
   40.6870   26.7810   34.6770 C   0  0  0  0  0  0  0  0  0  0  0  0
   41.7980   26.2380   34.0490 C   0  0  0  0  0  0  0  0  0  0  0  0
   42.0070   24.8670   34.0000 C   0  0  0  0  0  0  0  0  0  0  0  0
   41.0930   24.0270   34.5870 C   0  0  0  0  0  0  0  0  0  0  0  0
   39.9810   24.5730   35.2150 C   0  0  0  0  0  0  0  0  0  0  0  0
   40.4790   27.8390   34.7430 H   0  0  0  0  0  0  0  0  0  0  0  0
   42.4850   26.9700   33.6030 H   0  0  0  0  0  0  0  0  0  0  0  0
   42.8910   24.5050   33.4970 H   0  0  0  0  0  0  0  0  0  0  0  0
   41.2270   22.9530   34.5650 H   0  0  0  0  0  0  0  0  0  0  0  0
   39.2920   23.8580   35.6610 H   0  0  0  0  0  0  0  0  0  0  0  0
  1  2  2  0  0  0  0
  2 18  1  0  0  0  0
  3  8  2  0  0  0  0
  3  4  1  0  0  0  0
  4  5  2  0  0  0  0
  5  6  1  0  0  0  0
  5 11  1  0  0  0  0
  7  1  1  0  0  0  0
  7  6  2  0  0  0  0
  8  7  1  0  0  0  0
  9  3  1  0  0  0  0
 10  4  1  0  0  0  0
 11 12  1  0  0  0  0
 12 13  1  0  0  0  0
 13 14  1  0  0  0  0
 14 15  1  0  0  0  0
 16 14  1  0  0  0  0
 17 11  1  0  0  0  0
 17 16  1  0  0  0  0
 18 20  1  0  0  0  0
 18 19  1  0  0  0  0
 21 18  1  0  0  0  0
 22 27  1  0  0  0  0
 22 21  2  0  0  0  0
 23 22  1  0  0  0  0
 24 23  2  0  0  0  0
 24 25  1  0  0  0  0
 25 26  2  0  0  0  0
 26 21  1  0  0  0  0
 26 31  1  0  0  0  0
 28 23  1  0  0  0  0
 29 24  1  0  0  0  0
 30 25  1  0  0  0  0
M  END
>  <minimizedAffinity>
-5.3525877

$$$$
