
 OpenBabel03272504013D

 39 42  0  0  0  0  0  0  0  0999 V2000
   34.4950   29.3440   50.2030 C   0  0  0  0  0  0  0  0  0  0  0  0
   34.1500   29.1120   51.2160 H   0  0  0  0  0  0  0  0  0  0  0  0
   33.7800   30.1450   49.8460 H   0  0  0  0  0  0  0  0  0  0  0  0
   35.8110   30.0070   50.1840 C   0  0  0  0  0  0  0  0  0  0  0  0
   36.7460   29.8040   51.2050 C   0  0  0  0  0  0  0  0  0  0  0  0
   37.8560   30.5450   50.9110 C   0  0  0  0  0  0  0  0  0  0  0  0
   37.6050   31.1720   49.7600 N   0  0  0  0  0  0  0  0  0  0  0  0
   36.3960   30.8380   49.3570 N   0  0  0  0  0  0  0  0  0  0  0  0
   36.6770   29.1860   52.0990 H   0  0  0  0  0  0  0  0  0  0  0  0
   38.7860   30.6520   51.4510 H   0  0  0  0  0  0  0  0  0  0  0  0
   38.3850   32.0740   48.9710 C   0  0  0  0  0  0  0  0  0  0  0  0
   38.7640   33.2410   49.5980 C   0  0  0  0  0  0  0  0  0  0  0  0
   39.5230   34.2380   48.9890 C   0  0  0  0  0  0  0  0  0  0  0  0
   39.8970   33.9930   47.6730 C   0  0  0  0  0  0  0  0  0  0  0  0
   39.5210   32.8250   47.0330 C   0  0  0  0  0  0  0  0  0  0  0  0
   38.7650   31.8550   47.6690 C   0  0  0  0  0  0  0  0  0  0  0  0
   38.4910   33.4650   50.6220 H   0  0  0  0  0  0  0  0  0  0  0  0
   39.8120   35.1390   49.4880 H   0  0  0  0  0  0  0  0  0  0  0  0
   40.4920   34.7080   47.1060 H   0  0  0  0  0  0  0  0  0  0  0  0
   39.7780   32.5730   46.0100 H   0  0  0  0  0  0  0  0  0  0  0  0
   38.4430   30.9270   47.2250 H   0  0  0  0  0  0  0  0  0  0  0  0
   34.3800   28.2450   49.2080 C   0  0  0  0  0  0  0  0  0  0  0  0
   33.6910   27.4860   49.6630 H   0  0  0  0  0  0  0  0  0  0  0  0
   35.3760   27.7200   49.1920 H   0  0  0  0  0  0  0  0  0  0  0  0
   33.8880   28.5640   47.9050 C   0  0  0  0  0  0  0  0  0  0  0  0
   32.6110   28.2530   47.5300 C   0  0  0  0  0  0  0  0  0  0  0  0
   32.0870   28.5500   46.2570 C   0  0  0  0  0  0  0  0  0  0  0  0
   32.9790   29.1890   45.4080 N   0  0  0  0  0  0  0  0  0  0  0  0
   34.2340   29.4800   45.8180 C   0  0  0  0  0  0  0  0  0  0  0  0
   34.6910   29.1780   47.0400 N   0  0  0  0  0  0  0  0  0  0  0  0
   31.9320   27.7490   48.2220 H   0  0  0  0  0  0  0  0  0  0  0  0
   31.0940   28.3060   45.9710 H   0  0  0  0  0  0  0  0  0  0  0  0
   35.0560   30.1370   44.8550 N   0  0  0  0  0  0  0  0  0  0  0  0
   34.5020   30.4360   43.5490 C   0  0  0  0  0  0  0  0  0  0  0  0
   35.3540   29.6750   42.5340 C   0  0  0  0  0  0  0  0  0  0  0  0
   36.7990   30.0270   42.6800 C   0  0  0  0  0  0  0  0  0  0  0  0
   37.3800   29.3180   42.0440 H   0  0  0  0  0  0  0  0  0  0  0  0
   37.3160   29.8860   44.0810 C   0  0  0  0  0  0  0  0  0  0  0  0
   36.4230   30.5230   45.1170 C   0  0  0  0  0  0  0  0  0  0  0  0
  1  2  1  0  0  0  0
  3  1  1  0  0  0  0
  4  1  1  0  0  0  0
  4  5  1  0  0  0  0
  5  9  1  0  0  0  0
  6  5  2  0  0  0  0
  6 10  1  0  0  0  0
  7  6  1  0  0  0  0
  8  7  1  0  0  0  0
  8  4  2  0  0  0  0
 11 12  1  0  0  0  0
 11  7  1  0  0  0  0
 12 17  1  0  0  0  0
 13 18  1  0  0  0  0
 13 12  2  0  0  0  0
 14 13  1  0  0  0  0
 15 16  1  0  0  0  0
 15 14  2  0  0  0  0
 16 11  2  0  0  0  0
 19 14  1  0  0  0  0
 20 15  1  0  0  0  0
 21 16  1  0  0  0  0
 22 23  1  0  0  0  0
 22  1  1  0  0  0  0
 24 22  1  0  0  0  0
 25 22  1  0  0  0  0
 26 25  1  0  0  0  0
 26 31  1  0  0  0  0
 27 26  2  0  0  0  0
 28 29  2  0  0  0  0
 28 27  1  0  0  0  0
 29 30  1  0  0  0  0
 30 25  2  0  0  0  0
 32 27  1  0  0  0  0
 33 39  1  0  0  0  0
 33 29  1  0  0  0  0
 34 33  1  0  0  0  0
 35 36  1  0  0  0  0
 35 34  1  0  0  0  0
 36 38  1  0  0  0  0
 37 36  1  0  0  0  0
 38 39  1  0  0  0  0
M  END
>  <minimizedAffinity>
-6.34049368

>  <minimizedRMSD>
1.52280664

$$$$
