
 OpenBabel03272508103D

 32 34  0  0  0  0  0  0  0  0999 V2000
   36.6680   29.6170   44.1260 Cl  0  0  0  0  0  0  0  0  0  0  0  0
   38.3050   29.9640   43.5630 C   0  0  0  0  0  0  0  0  0  0  0  0
   39.3420   30.4040   44.3870 C   0  0  0  0  0  0  0  0  0  0  0  0
   40.5700   30.6350   43.8050 C   0  0  0  0  0  0  0  0  0  0  0  0
   40.7660   30.4390   42.4600 C   0  0  0  0  0  0  0  0  0  0  0  0
   39.7660   30.0090   41.6350 C   0  0  0  0  0  0  0  0  0  0  0  0
   38.5490   29.7780   42.1960 C   0  0  0  0  0  0  0  0  0  0  0  0
   41.3080   30.9730   44.5240 H   0  0  0  0  0  0  0  0  0  0  0  0
   41.7600   30.6430   42.0860 H   0  0  0  0  0  0  0  0  0  0  0  0
   39.9520   29.8630   40.5770 H   0  0  0  0  0  0  0  0  0  0  0  0
   37.4830   29.3230   41.3330 N   0  0  0  0  0  0  0  0  0  0  0  0
   36.4780   30.1120   40.6950 C   0  0  0  0  0  0  0  0  0  0  0  0
   36.6060   29.9740   39.1920 C   0  0  0  0  0  0  0  0  0  0  0  0
   36.9300   28.5520   38.8320 C   0  0  0  0  0  0  0  0  0  0  0  0
   36.3840   28.1950   37.9410 H   0  0  0  0  0  0  0  0  0  0  0  0
   36.5690   27.5990   39.9510 C   0  0  0  0  0  0  0  0  0  0  0  0
   37.4900   27.8890   41.1310 C   0  0  0  0  0  0  0  0  0  0  0  0
   38.9400   30.5360   45.6900 O   0  0  0  0  0  0  0  0  0  0  0  0
   39.4620   32.5600   47.2180 O   0  0  0  0  0  0  0  0  0  0  0  0
   38.3530   31.8840   46.4870 P   0  0  1  0  0  0  0  0  0  0  0  0
   37.7840   32.9180   45.2520 O   0  0  0  0  0  0  0  0  0  0  0  0
   38.5820   33.4360   44.9440 H   0  0  0  0  0  0  0  0  0  0  0  0
   37.0640   31.4310   47.4850 O   0  0  0  0  0  0  0  0  0  0  0  0
   37.5950   30.5150   51.0180 C   0  0  0  0  0  0  0  0  0  0  0  0
   37.7030   31.2980   49.8600 C   0  0  0  0  0  0  0  0  0  0  0  0
   37.0860   30.8500   48.6910 C   0  0  0  0  0  0  0  0  0  0  0  0
   36.4060   29.6620   48.7430 N   0  0  0  0  0  0  0  0  0  0  0  0
   36.3240   28.9400   49.8730 C   0  0  0  0  0  0  0  0  0  0  0  0
   36.9210   29.3740   51.0060 N   0  0  0  0  0  0  0  0  0  0  0  0
   38.0960   30.9250   51.8800 H   0  0  0  0  0  0  0  0  0  0  0  0
   38.2210   32.2440   49.7390 H   0  0  0  0  0  0  0  0  0  0  0  0
   35.7890   28.0040   49.9200 H   0  0  0  0  0  0  0  0  0  0  0  0
  2  1  1  0  0  0  0
  2  3  1  0  0  0  0
  3 18  1  0  0  0  0
  4  3  2  0  0  0  0
  4  8  1  0  0  0  0
  5  4  1  0  0  0  0
  6  7  1  0  0  0  0
  6  5  2  0  0  0  0
  7  2  2  0  0  0  0
  9  5  1  0  0  0  0
 10  6  1  0  0  0  0
 11  7  1  0  0  0  0
 12 11  1  0  0  0  0
 13 12  1  0  0  0  0
 14 13  1  0  0  0  0
 14 16  1  0  0  0  0
 15 14  1  0  0  0  0
 16 17  1  0  0  0  0
 17 11  1  0  0  0  0
 18 20  1  0  0  0  0
 20 19  2  1  0  0  0
 20 23  1  0  0  0  0
 21 20  1  0  0  0  0
 22 21  1  0  0  0  0
 23 26  1  0  0  0  0
 24 30  1  0  0  0  0
 25 24  2  0  0  0  0
 26 27  2  0  0  0  0
 26 25  1  0  0  0  0
 27 28  1  0  0  0  0
 28 32  1  0  0  0  0
 28 29  2  0  0  0  0
 29 24  1  0  0  0  0
 31 25  1  0  0  0  0
M  END
>  <minimizedAffinity>
-4.8588419

>  <minimizedRMSD>
0.836181581

$$$$
