
 OpenBabel03272500533D

 26 28  0  0  0  0  0  0  0  0999 V2000
   36.3170   30.5000   46.9720 C   0  0  0  0  0  0  0  0  0  0  0  0
   35.6610   29.9610   45.8910 C   0  0  0  0  0  0  0  0  0  0  0  0
   35.9720   30.2060   44.5710 C   0  0  0  0  0  0  0  0  0  0  0  0
   37.0480   31.0770   44.3000 C   0  0  0  0  0  0  0  0  0  0  0  0
   37.7170   31.6270   45.3870 C   0  0  0  0  0  0  0  0  0  0  0  0
   37.3700   31.3540   46.6830 C   0  0  0  0  0  0  0  0  0  0  0  0
   34.8250   29.2830   45.9990 H   0  0  0  0  0  0  0  0  0  0  0  0
   35.4500   29.7770   43.7350 H   0  0  0  0  0  0  0  0  0  0  0  0
   37.3780   31.3390   43.3040 H   0  0  0  0  0  0  0  0  0  0  0  0
   38.5540   32.3060   45.3010 H   0  0  0  0  0  0  0  0  0  0  0  0
   36.6620   29.2340   49.0250 C   0  0  0  0  0  0  0  0  0  0  0  0
   35.8430   30.1230   48.2870 C   0  0  0  0  0  0  0  0  0  0  0  0
   34.6730   30.5380   48.9020 C   0  0  0  0  0  0  0  0  0  0  0  0
   34.3720   30.0920   50.1390 N   0  0  0  0  0  0  0  0  0  0  0  0
   35.1770   29.2400   50.8210 C   0  0  0  0  0  0  0  0  0  0  0  0
   36.3330   28.8110   50.2500 N   0  0  0  0  0  0  0  0  0  0  0  0
   37.6100   28.8150   48.6870 H   0  0  0  0  0  0  0  0  0  0  0  0
   34.0580   31.2170   48.3270 H   0  0  0  0  0  0  0  0  0  0  0  0
   34.9240   28.8880   51.8160 H   0  0  0  0  0  0  0  0  0  0  0  0
   38.0490   31.9110   47.8080 N   0  0  0  0  0  0  0  0  0  0  0  0
   37.6050   31.6390   49.1730 C   0  0  0  0  0  0  0  0  0  0  0  0
   37.1770   32.9150   49.8640 C   0  0  0  0  0  0  0  0  0  0  0  0
   38.0450   34.0800   49.4510 C   0  0  0  0  0  0  0  0  0  0  0  0
   37.4910   34.6490   48.6830 H   0  0  0  0  0  0  0  0  0  0  0  0
   39.3740   33.6080   48.8940 C   0  0  0  0  0  0  0  0  0  0  0  0
   39.2100   32.7750   47.6570 C   0  0  0  0  0  0  0  0  0  0  0  0
  1 12  1  0  0  0  0
  2  7  1  0  0  0  0
  2  1  2  0  0  0  0
  3  2  1  0  0  0  0
  4  3  2  0  0  0  0
  4  5  1  0  0  0  0
  5  6  2  0  0  0  0
  6  1  1  0  0  0  0
  6 20  1  0  0  0  0
  8  3  1  0  0  0  0
  9  4  1  0  0  0  0
 10  5  1  0  0  0  0
 11 16  1  0  0  0  0
 12 13  1  0  0  0  0
 12 11  2  0  0  0  0
 13 14  2  0  0  0  0
 14 15  1  0  0  0  0
 15 19  1  0  0  0  0
 16 15  2  0  0  0  0
 17 11  1  0  0  0  0
 18 13  1  0  0  0  0
 20 21  1  0  0  0  0
 21 22  1  0  0  0  0
 23 22  1  0  0  0  0
 24 23  1  0  0  0  0
 25 23  1  0  0  0  0
 26 20  1  0  0  0  0
 26 25  1  0  0  0  0
M  END
>  <minimizedAffinity>
-4.71823311

>  <minimizedRMSD>
3.39044547

$$$$
