
 OpenBabel03272501093D

 38 41  0  0  1  0  0  0  0  0999 V2000
   37.2200   25.6330   30.9570 C   0  0  2  0  0  0  0  0  0  0  0  0
   35.9130   26.3000   31.5000 C   0  0  2  0  0  0  0  0  0  0  0  0
   34.9030   25.5150   30.8050 C   0  0  0  0  0  0  0  0  0  0  0  0
   35.3520   24.2080   30.7330 O   0  0  0  0  0  0  0  0  0  0  0  0
   36.6710   24.1810   31.0350 C   0  0  0  0  0  0  0  0  0  0  0  0
   37.3950   25.8880   29.9110 H   0  0  0  0  0  0  0  0  0  0  0  0
   35.9290   26.0480   32.5870 H   0  0  0  0  0  0  0  0  0  0  0  0
   33.9420   25.5630   31.3970 H   0  0  0  0  0  0  0  0  0  0  0  0
   34.6410   25.8140   29.7910 H   0  0  0  0  0  0  0  0  0  0  0  0
   37.2070   23.6480   30.2070 H   0  0  0  0  0  0  0  0  0  0  0  0
   36.9670   23.6940   31.9740 H   0  0  0  0  0  0  0  0  0  0  0  0
   35.2560   29.9720   31.9970 C   0  0  0  0  0  0  0  0  0  0  0  0
   35.2110   28.5670   32.2390 C   0  0  0  0  0  0  0  0  0  0  0  0
   35.9210   27.7320   31.3250 C   0  0  0  0  0  0  0  0  0  0  0  0
   36.6030   28.3030   30.2710 N   0  0  0  0  0  0  0  0  0  0  0  0
   36.6080   29.6280   30.0950 C   0  0  0  0  0  0  0  0  0  0  0  0
   35.9470   30.4710   30.9400 N   0  0  0  0  0  0  0  0  0  0  0  0
   34.7060   30.5580   32.7150 H   0  0  0  0  0  0  0  0  0  0  0  0
   34.6690   28.1840   33.0660 H   0  0  0  0  0  0  0  0  0  0  0  0
   37.1210   30.1410   29.2940 H   0  0  0  0  0  0  0  0  0  0  0  0
   38.2530   25.7600   31.8210 O   0  0  0  0  0  0  0  0  0  0  0  0
   38.6770   23.1580   33.4270 Cl  0  0  0  0  0  0  0  0  0  0  0  0
   38.6200   24.7620   34.0970 C   0  0  0  0  0  0  0  0  0  0  0  0
   38.4180   25.7640   33.1610 C   0  0  0  0  0  0  0  0  0  0  0  0
   38.3710   27.0480   33.6890 C   0  0  0  0  0  0  0  0  0  0  0  0
   38.5140   27.3170   35.0290 C   0  0  0  0  0  0  0  0  0  0  0  0
   38.7130   26.2650   35.9030 C   0  0  0  0  0  0  0  0  0  0  0  0
   38.7700   24.9550   35.4500 C   0  0  0  0  0  0  0  0  0  0  0  0
   38.2220   27.9510   33.1110 H   0  0  0  0  0  0  0  0  0  0  0  0
   38.4830   28.3030   35.4690 H   0  0  0  0  0  0  0  0  0  0  0  0
   38.8350   26.3800   36.9770 H   0  0  0  0  0  0  0  0  0  0  0  0
   38.9700   23.8000   36.2600 N   0  0  0  0  0  0  0  0  0  0  0  0
   40.2420   23.1930   36.5470 C   0  0  0  0  0  2  0  0  0  0  0  0
   40.1240   22.5280   37.9170 C   0  0  0  0  0  2  0  0  0  0  0  0
   39.2450   23.3970   38.7970 C   0  0  0  0  0  3  0  0  0  0  0  0
   39.3080   23.0010   39.8370 H   0  0  0  0  0  0  0  0  0  0  0  0
   37.8240   23.4440   38.3360 C   0  0  0  0  0  2  0  0  0  0  0  0
   37.7820   23.1820   36.8480 C   0  0  0  0  0  2  0  0  0  0  0  0
  1  6  1  6  0  0  0
  1  5  1  0  0  0  0
  1  2  1  0  0  0  0
  1 21  1  0  0  0  0
  2  7  1  1  0  0  0
  3  8  1  0  0  0  0
  3  2  1  0  0  0  0
  4  3  1  0  0  0  0
  4  5  1  0  0  0  0
  5 11  1  0  0  0  0
  9  3  1  0  0  0  0
 10  5  1  0  0  0  0
 12 13  1  0  0  0  0
 12 18  1  0  0  0  0
 13 19  1  0  0  0  0
 14  2  1  0  0  0  0
 14 13  2  0  0  0  0
 15 14  1  0  0  0  0
 16 15  2  0  0  0  0
 16 17  1  0  0  0  0
 17 12  2  0  0  0  0
 20 16  1  0  0  0  0
 21 24  1  0  0  0  0
 22 23  1  0  0  0  0
 23 28  1  0  0  0  0
 24 25  1  0  0  0  0
 24 23  2  0  0  0  0
 25 26  2  0  0  0  0
 26 30  1  0  0  0  0
 26 27  1  0  0  0  0
 27 31  1  0  0  0  0
 28 27  2  0  0  0  0
 28 32  1  0  0  0  0
 29 25  1  0  0  0  0
 32 33  1  0  0  0  0
 32 38  1  0  0  0  0
 33 34  1  0  0  0  0
 34 35  1  0  0  0  0
 35 36  1  0  0  0  0
 37 35  1  0  0  0  0
 38 37  1  0  0  0  0
M  END
>  <minimizedAffinity>
-6.00867987

$$$$

 OpenBabel03272501093D

 38 41  0  0  1  0  0  0  0  0999 V2000
   38.5850   27.0470   33.4310 C   0  0  2  0  0  0  0  0  0  0  0  0
   39.2630   26.4080   34.6860 C   0  0  2  0  0  0  0  0  0  0  0  0
   38.7790   27.2940   35.7350 C   0  0  0  0  0  0  0  0  0  0  0  0
   37.4780   27.6500   35.4270 O   0  0  0  0  0  0  0  0  0  0  0  0
   37.2270   27.3210   34.1380 C   0  0  0  0  0  0  0  0  0  0  0  0
   39.0440   28.0020   33.1710 H   0  0  0  0  0  0  0  0  0  0  0  0
   38.7750   25.4070   34.7600 H   0  0  0  0  0  0  0  0  0  0  0  0
   38.8070   26.7370   36.7160 H   0  0  0  0  0  0  0  0  0  0  0  0
   39.3260   28.2200   35.9040 H   0  0  0  0  0  0  0  0  0  0  0  0
   36.8340   28.2320   33.6170 H   0  0  0  0  0  0  0  0  0  0  0  0
   36.5120   26.5100   33.9500 H   0  0  0  0  0  0  0  0  0  0  0  0
   42.8400   27.0240   33.6900 C   0  0  0  0  0  0  0  0  0  0  0  0
   41.4390   27.2520   33.8300 C   0  0  0  0  0  0  0  0  0  0  0  0
   40.6870   26.2500   34.5140 C   0  0  0  0  0  0  0  0  0  0  0  0
   41.3300   25.1300   34.9970 N   0  0  0  0  0  0  0  0  0  0  0  0
   42.6470   24.9710   34.8350 C   0  0  0  0  0  0  0  0  0  0  0  0
   43.4120   25.8980   34.1900 N   0  0  0  0  0  0  0  0  0  0  0  0
   43.3620   27.8090   33.1670 H   0  0  0  0  0  0  0  0  0  0  0  0
   40.9990   28.1330   33.4360 H   0  0  0  0  0  0  0  0  0  0  0  0
   43.2130   24.1210   35.1880 H   0  0  0  0  0  0  0  0  0  0  0  0
   38.3920   26.1470   32.4410 O   0  0  0  0  0  0  0  0  0  0  0  0
   38.7290   23.2080   33.3230 Cl  0  0  0  0  0  0  0  0  0  0  0  0
   37.3930   23.8420   32.4090 C   0  0  0  0  0  0  0  0  0  0  0  0
   37.4780   25.1990   32.1400 C   0  0  0  0  0  0  0  0  0  0  0  0
   36.4140   25.7120   31.4110 C   0  0  0  0  0  0  0  0  0  0  0  0
   35.3550   24.9470   30.9840 C   0  0  0  0  0  0  0  0  0  0  0  0
   35.3390   23.6000   31.2900 C   0  0  0  0  0  0  0  0  0  0  0  0
   36.3670   23.0160   32.0150 C   0  0  0  0  0  0  0  0  0  0  0  0
   36.3100   26.7470   31.1090 H   0  0  0  0  0  0  0  0  0  0  0  0
   34.5130   25.3180   30.4170 H   0  0  0  0  0  0  0  0  0  0  0  0
   34.5460   22.9180   30.9960 H   0  0  0  0  0  0  0  0  0  0  0  0
   36.4510   21.6420   32.3840 N   0  0  0  0  0  0  0  0  0  0  0  0
   35.9620   21.0780   33.6140 C   0  0  0  0  0  2  0  0  0  0  0  0
   35.5840   19.6260   33.3230 C   0  0  0  0  0  2  0  0  0  0  0  0
   35.0000   19.5540   31.9250 C   0  0  0  0  0  3  0  0  0  0  0  0
   34.5680   18.5360   31.7890 H   0  0  0  0  0  0  0  0  0  0  0  0
   36.0060   19.8470   30.8580 C   0  0  0  0  0  2  0  0  0  0  0  0
   37.0880   20.7320   31.4340 C   0  0  0  0  0  2  0  0  0  0  0  0
  1  6  1  6  0  0  0
  1  5  1  0  0  0  0
  1  2  1  0  0  0  0
  2  7  1  1  0  0  0
  2  3  1  0  0  0  0
  3  9  1  0  0  0  0
  3  8  1  0  0  0  0
  4  3  1  0  0  0  0
  5  4  1  0  0  0  0
 10  5  1  0  0  0  0
 11  5  1  0  0  0  0
 12 13  2  0  0  0  0
 12 17  1  0  0  0  0
 13 14  1  0  0  0  0
 14  2  1  0  0  0  0
 14 15  2  0  0  0  0
 16 15  1  0  0  0  0
 16 20  1  0  0  0  0
 17 16  2  0  0  0  0
 18 12  1  0  0  0  0
 19 13  1  0  0  0  0
 21  1  1  0  0  0  0
 23 22  1  0  0  0  0
 24 23  1  0  0  0  0
 24 21  1  0  0  0  0
 25 24  2  0  0  0  0
 26 27  2  0  0  0  0
 26 25  1  0  0  0  0
 27 28  1  0  0  0  0
 28 32  1  0  0  0  0
 28 23  2  0  0  0  0
 29 25  1  0  0  0  0
 30 26  1  0  0  0  0
 31 27  1  0  0  0  0
 32 33  1  0  0  0  0
 34 33  1  0  0  0  0
 35 34  1  0  0  0  0
 36 35  1  0  0  0  0
 37 38  1  0  0  0  0
 37 35  1  0  0  0  0
 38 32  1  0  0  0  0
M  END
>  <minimizedAffinity>
-5.88840008

$$$$

 OpenBabel03272501093D

 38 41  0  0  1  0  0  0  0  0999 V2000
   38.0850   27.7190   31.2870 C   0  0  2  0  0  0  0  0  0  0  0  0
   36.7990   28.2160   30.5480 C   0  0  2  0  0  0  0  0  0  0  0  0
   37.3810   28.7360   29.3180 C   0  0  0  0  0  0  0  0  0  0  0  0
   38.4320   27.9110   28.9610 O   0  0  0  0  0  0  0  0  0  0  0  0
   38.7490   27.1220   30.0150 C   0  0  0  0  0  0  0  0  0  0  0  0
   38.6910   28.5540   31.6410 H   0  0  0  0  0  0  0  0  0  0  0  0
   36.2360   27.2740   30.3490 H   0  0  0  0  0  0  0  0  0  0  0  0
   36.5880   28.7250   28.5140 H   0  0  0  0  0  0  0  0  0  0  0  0
   37.7710   29.7530   29.3350 H   0  0  0  0  0  0  0  0  0  0  0  0
   39.8470   27.2290   30.2110 H   0  0  0  0  0  0  0  0  0  0  0  0
   38.5410   26.0480   29.9260 H   0  0  0  0  0  0  0  0  0  0  0  0
   35.4440   31.3150   32.1980 C   0  0  0  0  0  0  0  0  0  0  0  0
   36.2600   30.5050   31.3540 C   0  0  0  0  0  0  0  0  0  0  0  0
   36.0080   29.1010   31.3680 C   0  0  0  0  0  0  0  0  0  0  0  0
   35.0110   28.5970   32.1770 N   0  0  0  0  0  0  0  0  0  0  0  0
   34.2780   29.4070   32.9460 C   0  0  0  0  0  0  0  0  0  0  0  0
   34.4770   30.7560   32.9700 N   0  0  0  0  0  0  0  0  0  0  0  0
   35.6740   32.3680   32.1510 H   0  0  0  0  0  0  0  0  0  0  0  0
   37.0140   30.9480   30.7540 H   0  0  0  0  0  0  0  0  0  0  0  0
   33.4820   29.0820   33.6020 H   0  0  0  0  0  0  0  0  0  0  0  0
   37.8180   26.7180   32.1560 O   0  0  0  0  0  0  0  0  0  0  0  0
   38.4720   23.9050   33.2460 Cl  0  0  0  0  0  0  0  0  0  0  0  0
   38.2960   25.3460   34.2050 C   0  0  0  0  0  0  0  0  0  0  0  0
   38.0020   26.4850   33.4730 C   0  0  0  0  0  0  0  0  0  0  0  0
   37.8610   27.6390   34.2320 C   0  0  0  0  0  0  0  0  0  0  0  0
   38.0010   27.6640   35.5990 C   0  0  0  0  0  0  0  0  0  0  0  0
   38.2960   26.4870   36.2600 C   0  0  0  0  0  0  0  0  0  0  0  0
   38.4510   25.2940   35.5700 C   0  0  0  0  0  0  0  0  0  0  0  0
   37.6320   28.6200   33.8340 H   0  0  0  0  0  0  0  0  0  0  0  0
   37.8990   28.5460   36.2150 H   0  0  0  0  0  0  0  0  0  0  0  0
   38.4250   26.4090   37.3370 H   0  0  0  0  0  0  0  0  0  0  0  0
   38.7540   24.0280   36.1490 N   0  0  0  0  0  0  0  0  0  0  0  0
   40.0590   23.4270   36.2030 C   0  0  0  0  0  2  0  0  0  0  0  0
   40.0950   22.5390   37.4460 C   0  0  0  0  0  2  0  0  0  0  0  0
   39.2950   23.2190   38.5430 C   0  0  0  0  0  3  0  0  0  0  0  0
   39.4720   22.6570   39.4900 H   0  0  0  0  0  0  0  0  0  0  0  0
   37.8330   23.2910   38.2370 C   0  0  0  0  0  2  0  0  0  0  0  0
   37.6440   23.2790   36.7380 C   0  0  0  0  0  2  0  0  0  0  0  0
  1  6  1  1  0  0  0
  1 21  1  0  0  0  0
  2  7  1  6  0  0  0
  2  1  1  0  0  0  0
  2 14  1  0  0  0  0
  3  9  1  0  0  0  0
  3  2  1  0  0  0  0
  4  3  1  0  0  0  0
  4  5  1  0  0  0  0
  5 10  1  0  0  0  0
  5  1  1  0  0  0  0
  8  3  1  0  0  0  0
 11  5  1  0  0  0  0
 12 17  1  0  0  0  0
 13 14  1  0  0  0  0
 13 12  2  0  0  0  0
 14 15  2  0  0  0  0
 15 16  1  0  0  0  0
 16 17  2  0  0  0  0
 16 20  1  0  0  0  0
 18 12  1  0  0  0  0
 19 13  1  0  0  0  0
 21 24  1  0  0  0  0
 22 23  1  0  0  0  0
 23 28  1  0  0  0  0
 24 23  2  0  0  0  0
 24 25  1  0  0  0  0
 25 26  2  0  0  0  0
 26 30  1  0  0  0  0
 26 27  1  0  0  0  0
 27 31  1  0  0  0  0
 28 32  1  0  0  0  0
 28 27  2  0  0  0  0
 29 25  1  0  0  0  0
 32 33  1  0  0  0  0
 32 38  1  0  0  0  0
 33 34  1  0  0  0  0
 34 35  1  0  0  0  0
 35 36  1  0  0  0  0
 37 35  1  0  0  0  0
 38 37  1  0  0  0  0
M  END
>  <minimizedAffinity>
-5.80215979

$$$$

 OpenBabel03272501093D

 38 41  0  0  1  0  0  0  0  0999 V2000
   36.8880   27.0500   31.1490 C   0  0  2  0  0  0  0  0  0  0  0  0
   37.6000   28.4200   30.8990 C   0  0  2  0  0  0  0  0  0  0  0  0
   36.4520   29.2730   30.6260 C   0  0  0  0  0  0  0  0  0  0  0  0
   35.4150   28.8700   31.4480 O   0  0  0  0  0  0  0  0  0  0  0  0
   35.7150   27.6570   31.9700 C   0  0  0  0  0  0  0  0  0  0  0  0
   36.4900   26.6310   30.2240 H   0  0  0  0  0  0  0  0  0  0  0  0
   38.0440   28.6640   31.8930 H   0  0  0  0  0  0  0  0  0  0  0  0
   36.7370   30.3420   30.8580 H   0  0  0  0  0  0  0  0  0  0  0  0
   36.0620   29.2840   29.6100 H   0  0  0  0  0  0  0  0  0  0  0  0
   34.8570   26.9660   31.7600 H   0  0  0  0  0  0  0  0  0  0  0  0
   35.9150   27.6030   33.0480 H   0  0  0  0  0  0  0  0  0  0  0  0
   39.4100   28.3910   27.6000 C   0  0  0  0  0  0  0  0  0  0  0  0
   38.3320   28.5160   28.5260 C   0  0  0  0  0  0  0  0  0  0  0  0
   38.6400   28.3190   29.9050 C   0  0  0  0  0  0  0  0  0  0  0  0
   39.9350   28.0220   30.2760 N   0  0  0  0  0  0  0  0  0  0  0  0
   40.9040   27.9180   29.3620 C   0  0  0  0  0  0  0  0  0  0  0  0
   40.6630   28.0970   28.0310 N   0  0  0  0  0  0  0  0  0  0  0  0
   39.1250   28.5490   26.5720 H   0  0  0  0  0  0  0  0  0  0  0  0
   37.3550   28.7450   28.1820 H   0  0  0  0  0  0  0  0  0  0  0  0
   41.9370   27.6900   29.5820 H   0  0  0  0  0  0  0  0  0  0  0  0
   37.6130   26.2390   31.9520 O   0  0  0  0  0  0  0  0  0  0  0  0
   38.2370   23.5320   33.3000 Cl  0  0  0  0  0  0  0  0  0  0  0  0
   38.1690   25.0720   34.1070 C   0  0  0  0  0  0  0  0  0  0  0  0
   37.8690   26.1390   33.2750 C   0  0  0  0  0  0  0  0  0  0  0  0
   37.8130   27.3710   33.9120 C   0  0  0  0  0  0  0  0  0  0  0  0
   38.0370   27.5350   35.2580 C   0  0  0  0  0  0  0  0  0  0  0  0
   38.3320   26.4230   36.0240 C   0  0  0  0  0  0  0  0  0  0  0  0
   38.4040   25.1580   35.4580 C   0  0  0  0  0  0  0  0  0  0  0  0
   37.5930   28.3130   33.4240 H   0  0  0  0  0  0  0  0  0  0  0  0
   38.0030   28.4800   35.7810 H   0  0  0  0  0  0  0  0  0  0  0  0
   38.5240   26.4540   37.0940 H   0  0  0  0  0  0  0  0  0  0  0  0
   38.6990   23.9500   36.1520 N   0  0  0  0  0  0  0  0  0  0  0  0
   40.0030   23.3560   36.2750 C   0  0  0  0  0  2  0  0  0  0  0  0
   40.0240   22.5830   37.5930 C   0  0  0  0  0  2  0  0  0  0  0  0
   39.2130   23.3580   38.6150 C   0  0  0  0  0  3  0  0  0  0  0  0
   39.3780   22.8840   39.6100 H   0  0  0  0  0  0  0  0  0  0  0  0
   37.7540   23.4030   38.2870 C   0  0  0  0  0  2  0  0  0  0  0  0
   37.5820   23.2570   36.7930 C   0  0  0  0  0  2  0  0  0  0  0  0
  1  6  1  6  0  0  0
  1 21  1  0  0  0  0
  1  5  1  0  0  0  0
  2  1  1  0  0  0  0
  2  7  1  1  0  0  0
  3  8  1  0  0  0  0
  3  2  1  0  0  0  0
  3  4  1  0  0  0  0
  4  5  1  0  0  0  0
  5 11  1  0  0  0  0
  9  3  1  0  0  0  0
 10  5  1  0  0  0  0
 12 17  2  0  0  0  0
 12 13  1  0  0  0  0
 13 14  2  0  0  0  0
 14 15  1  0  0  0  0
 14  2  1  0  0  0  0
 16 20  1  0  0  0  0
 16 15  2  0  0  0  0
 17 16  1  0  0  0  0
 18 12  1  0  0  0  0
 19 13  1  0  0  0  0
 21 24  1  0  0  0  0
 22 23  1  0  0  0  0
 23 28  1  0  0  0  0
 24 25  1  0  0  0  0
 24 23  2  0  0  0  0
 25 26  2  0  0  0  0
 26 30  1  0  0  0  0
 26 27  1  0  0  0  0
 27 31  1  0  0  0  0
 28 27  2  0  0  0  0
 28 32  1  0  0  0  0
 29 25  1  0  0  0  0
 32 33  1  0  0  0  0
 32 38  1  0  0  0  0
 33 34  1  0  0  0  0
 34 35  1  0  0  0  0
 35 36  1  0  0  0  0
 37 35  1  0  0  0  0
 38 37  1  0  0  0  0
M  END
>  <minimizedAffinity>
-5.75822496

$$$$

 OpenBabel03272501093D

 38 41  0  0  1  0  0  0  0  0999 V2000
   37.4420   26.7920   31.0910 C   0  0  2  0  0  0  0  0  0  0  0  0
   38.8120   27.5460   31.0850 C   0  0  2  0  0  0  0  0  0  0  0  0
   38.8270   28.0670   29.7260 C   0  0  0  0  0  0  0  0  0  0  0  0
   37.5340   28.4300   29.3930 O   0  0  0  0  0  0  0  0  0  0  0  0
   36.6820   27.8920   30.2970 C   0  0  0  0  0  0  0  0  0  0  0  0
   37.4810   25.8860   30.4850 H   0  0  0  0  0  0  0  0  0  0  0  0
   38.6550   28.3700   31.8210 H   0  0  0  0  0  0  0  0  0  0  0  0
   39.5040   28.9710   29.6960 H   0  0  0  0  0  0  0  0  0  0  0  0
   39.1810   27.4060   28.9360 H   0  0  0  0  0  0  0  0  0  0  0  0
   35.8960   27.3220   29.7370 H   0  0  0  0  0  0  0  0  0  0  0  0
   36.1590   28.5800   30.9740 H   0  0  0  0  0  0  0  0  0  0  0  0
   41.8780   26.2810   32.8650 C   0  0  0  0  0  0  0  0  0  0  0  0
   40.8240   27.1690   32.4960 C   0  0  0  0  0  0  0  0  0  0  0  0
   39.8990   26.7000   31.5160 C   0  0  0  0  0  0  0  0  0  0  0  0
   40.0580   25.4400   30.9790 N   0  0  0  0  0  0  0  0  0  0  0  0
   41.0670   24.6520   31.3650 C   0  0  0  0  0  0  0  0  0  0  0  0
   41.9780   25.0520   32.2980 N   0  0  0  0  0  0  0  0  0  0  0  0
   42.5480   26.6820   33.6080 H   0  0  0  0  0  0  0  0  0  0  0  0
   40.7520   28.1280   32.9420 H   0  0  0  0  0  0  0  0  0  0  0  0
   41.2500   23.6570   30.9870 H   0  0  0  0  0  0  0  0  0  0  0  0
   36.9150   26.7020   32.3320 O   0  0  0  0  0  0  0  0  0  0  0  0
   37.7220   23.8910   33.3220 Cl  0  0  0  0  0  0  0  0  0  0  0  0
   37.7980   25.3540   34.2600 C   0  0  0  0  0  0  0  0  0  0  0  0
   37.3780   26.4880   33.5830 C   0  0  0  0  0  0  0  0  0  0  0  0
   37.4370   27.6600   34.3260 C   0  0  0  0  0  0  0  0  0  0  0  0
   37.8750   27.7060   35.6280 C   0  0  0  0  0  0  0  0  0  0  0  0
   38.2780   26.5330   36.2370 C   0  0  0  0  0  0  0  0  0  0  0  0
   38.2470   25.3230   35.5580 C   0  0  0  0  0  0  0  0  0  0  0  0
   37.1500   28.6390   33.9640 H   0  0  0  0  0  0  0  0  0  0  0  0
   37.9330   28.6010   36.2300 H   0  0  0  0  0  0  0  0  0  0  0  0
   38.6390   26.4700   37.2610 H   0  0  0  0  0  0  0  0  0  0  0  0
   38.6380   24.0600   36.0880 N   0  0  0  0  0  0  0  0  0  0  0  0
   39.9580   23.4930   36.0050 C   0  0  0  0  0  2  0  0  0  0  0  0
   40.1390   22.5930   37.2260 C   0  0  0  0  0  2  0  0  0  0  0  0
   39.4360   23.2390   38.4050 C   0  0  0  0  0  3  0  0  0  0  0  0
   39.7200   22.6730   39.3230 H   0  0  0  0  0  0  0  0  0  0  0  0
   37.9490   23.2760   38.2470 C   0  0  0  0  0  2  0  0  0  0  0  0
   37.6120   23.2750   36.7740 C   0  0  0  0  0  2  0  0  0  0  0  0
  1  6  1  6  0  0  0
  1 21  1  0  0  0  0
  2  1  1  0  0  0  0
  2 14  1  0  0  0  0
  2  7  1  1  0  0  0
  3  2  1  0  0  0  0
  4  3  1  0  0  0  0
  4  5  1  0  0  0  0
  5 11  1  0  0  0  0
  5  1  1  0  0  0  0
  8  3  1  0  0  0  0
  9  3  1  0  0  0  0
 10  5  1  0  0  0  0
 12 18  1  0  0  0  0
 13 12  1  0  0  0  0
 13 19  1  0  0  0  0
 14 13  2  0  0  0  0
 15 16  2  0  0  0  0
 15 14  1  0  0  0  0
 16 17  1  0  0  0  0
 17 12  2  0  0  0  0
 20 16  1  0  0  0  0
 21 24  1  0  0  0  0
 22 23  1  0  0  0  0
 23 28  1  0  0  0  0
 24 23  2  0  0  0  0
 24 25  1  0  0  0  0
 25 26  2  0  0  0  0
 26 30  1  0  0  0  0
 26 27  1  0  0  0  0
 27 31  1  0  0  0  0
 28 32  1  0  0  0  0
 28 27  2  0  0  0  0
 29 25  1  0  0  0  0
 32 38  1  0  0  0  0
 33 32  1  0  0  0  0
 33 34  1  0  0  0  0
 34 35  1  0  0  0  0
 35 36  1  0  0  0  0
 37 35  1  0  0  0  0
 38 37  1  0  0  0  0
M  END
>  <minimizedAffinity>
-5.54343081

$$$$

 OpenBabel03272501093D

 38 41  0  0  1  0  0  0  0  0999 V2000
   36.1170   29.2340   32.8010 C   0  0  2  0  0  0  0  0  0  0  0  0
   34.7540   29.9810   32.9730 C   0  0  2  0  0  0  0  0  0  0  0  0
   34.7840   30.8650   31.8160 C   0  0  0  0  0  0  0  0  0  0  0  0
   35.3740   30.1790   30.7700 O   0  0  0  0  0  0  0  0  0  0  0  0
   35.9900   29.0780   31.2590 C   0  0  0  0  0  0  0  0  0  0  0  0
   36.9620   29.8890   33.0190 H   0  0  0  0  0  0  0  0  0  0  0  0
   33.9980   29.1720   32.8310 H   0  0  0  0  0  0  0  0  0  0  0  0
   33.7220   31.1410   31.5490 H   0  0  0  0  0  0  0  0  0  0  0  0
   35.3190   31.8080   31.9150 H   0  0  0  0  0  0  0  0  0  0  0  0
   37.0520   29.0850   30.9010 H   0  0  0  0  0  0  0  0  0  0  0  0
   35.5680   28.0990   30.9930 H   0  0  0  0  0  0  0  0  0  0  0  0
   35.5300   31.7020   36.2290 C   0  0  0  0  0  0  0  0  0  0  0  0
   35.7420   31.1560   34.9280 C   0  0  0  0  0  0  0  0  0  0  0  0
   34.6150   30.5630   34.2860 C   0  0  0  0  0  0  0  0  0  0  0  0
   33.3970   30.5410   34.9330 N   0  0  0  0  0  0  0  0  0  0  0  0
   33.2600   31.0700   36.1530 C   0  0  0  0  0  0  0  0  0  0  0  0
   34.3050   31.6490   36.8110 N   0  0  0  0  0  0  0  0  0  0  0  0
   36.4120   32.1370   36.6700 H   0  0  0  0  0  0  0  0  0  0  0  0
   36.7020   31.2000   34.4800 H   0  0  0  0  0  0  0  0  0  0  0  0
   32.3380   31.0880   36.7170 H   0  0  0  0  0  0  0  0  0  0  0  0
   36.1020   28.0090   33.3710 O   0  0  0  0  0  0  0  0  0  0  0  0
   36.8040   25.1580   32.4150 Cl  0  0  0  0  0  0  0  0  0  0  0  0
   37.4530   25.9400   33.8260 C   0  0  0  0  0  0  0  0  0  0  0  0
   36.9770   27.2240   34.0370 C   0  0  0  0  0  0  0  0  0  0  0  0
   37.4910   27.8550   35.1620 C   0  0  0  0  0  0  0  0  0  0  0  0
   38.4020   27.2650   36.0060 C   0  0  0  0  0  0  0  0  0  0  0  0
   38.8310   25.9810   35.7310 C   0  0  0  0  0  0  0  0  0  0  0  0
   38.3610   25.2870   34.6250 C   0  0  0  0  0  0  0  0  0  0  0  0
   37.2350   28.8560   35.4840 H   0  0  0  0  0  0  0  0  0  0  0  0
   38.8200   27.7300   36.8870 H   0  0  0  0  0  0  0  0  0  0  0  0
   39.5470   25.4340   36.3400 H   0  0  0  0  0  0  0  0  0  0  0  0
   38.7350   23.9650   34.2500 N   0  0  0  0  0  0  0  0  0  0  0  0
   39.7470   23.6270   33.2850 C   0  0  0  0  0  2  0  0  0  0  0  0
   40.3230   22.2710   33.6920 C   0  0  0  0  0  2  0  0  0  0  0  0
   40.3700   22.2070   35.2080 C   0  0  0  0  0  3  0  0  0  0  0  0
   40.9480   21.2970   35.4910 H   0  0  0  0  0  0  0  0  0  0  0  0
   39.0110   22.1830   35.8310 C   0  0  0  0  0  2  0  0  0  0  0  0
   38.0320   22.8600   34.9000 C   0  0  0  0  0  2  0  0  0  0  0  0
  1  2  1  0  0  0  0
  1  6  1  1  0  0  0
  1 21  1  0  0  0  0
  2  7  1  6  0  0  0
  2 14  1  0  0  0  0
  3  9  1  0  0  0  0
  3  2  1  0  0  0  0
  4  5  1  0  0  0  0
  4  3  1  0  0  0  0
  5  1  1  0  0  0  0
  8  3  1  0  0  0  0
 10  5  1  0  0  0  0
 11  5  1  0  0  0  0
 12 18  1  0  0  0  0
 12 17  1  0  0  0  0
 13 12  2  0  0  0  0
 14 13  1  0  0  0  0
 14 15  2  0  0  0  0
 15 16  1  0  0  0  0
 16 20  1  0  0  0  0
 16 17  2  0  0  0  0
 19 13  1  0  0  0  0
 21 24  1  0  0  0  0
 22 23  1  0  0  0  0
 23 24  2  0  0  0  0
 23 28  1  0  0  0  0
 24 25  1  0  0  0  0
 25 29  1  0  0  0  0
 25 26  2  0  0  0  0
 26 30  1  0  0  0  0
 27 26  1  0  0  0  0
 27 31  1  0  0  0  0
 28 27  2  0  0  0  0
 32 28  1  0  0  0  0
 32 38  1  0  0  0  0
 33 34  1  0  0  0  0
 33 32  1  0  0  0  0
 34 35  1  0  0  0  0
 35 36  1  0  0  0  0
 35 37  1  0  0  0  0
 38 37  1  0  0  0  0
M  END
>  <minimizedAffinity>
-5.5070281

$$$$

 OpenBabel03272501093D

 38 41  0  0  1  0  0  0  0  0999 V2000
   40.0400   26.0250   32.3390 C   0  0  2  0  0  0  0  0  0  0  0  0
   39.9940   26.6450   33.7740 C   0  0  2  0  0  0  0  0  0  0  0  0
   41.3530   27.1540   33.8910 C   0  0  0  0  0  0  0  0  0  0  0  0
   41.7370   27.6360   32.6520 O   0  0  0  0  0  0  0  0  0  0  0  0
   40.8660   27.1870   31.7180 C   0  0  0  0  0  0  0  0  0  0  0  0
   40.6410   25.1150   32.3150 H   0  0  0  0  0  0  0  0  0  0  0  0
   39.2660   27.4840   33.6670 H   0  0  0  0  0  0  0  0  0  0  0  0
   41.3580   27.9890   34.6510 H   0  0  0  0  0  0  0  0  0  0  0  0
   42.1260   26.4570   34.2110 H   0  0  0  0  0  0  0  0  0  0  0  0
   41.4540   26.6910   30.9030 H   0  0  0  0  0  0  0  0  0  0  0  0
   40.2110   27.9260   31.2370 H   0  0  0  0  0  0  0  0  0  0  0  0
   37.8260   24.8980   36.3070 C   0  0  0  0  0  0  0  0  0  0  0  0
   38.2240   25.8630   35.3340 C   0  0  0  0  0  0  0  0  0  0  0  0
   39.5190   25.7020   34.7580 C   0  0  0  0  0  0  0  0  0  0  0  0
   40.3140   24.6480   35.1550 N   0  0  0  0  0  0  0  0  0  0  0  0
   39.8870   23.7750   36.0720 C   0  0  0  0  0  0  0  0  0  0  0  0
   38.6570   23.8820   36.6540 N   0  0  0  0  0  0  0  0  0  0  0  0
   36.8410   25.0630   36.7110 H   0  0  0  0  0  0  0  0  0  0  0  0
   37.5700   26.6540   35.0680 H   0  0  0  0  0  0  0  0  0  0  0  0
   40.4550   22.9280   36.4290 H   0  0  0  0  0  0  0  0  0  0  0  0
   38.8200   25.9930   31.7580 O   0  0  0  0  0  0  0  0  0  0  0  0
   39.1060   23.0190   32.5370 Cl  0  0  0  0  0  0  0  0  0  0  0  0
   37.6410   23.7870   31.9980 C   0  0  0  0  0  0  0  0  0  0  0  0
   37.7770   25.1360   31.7090 C   0  0  0  0  0  0  0  0  0  0  0  0
   36.6120   25.7550   31.2790 C   0  0  0  0  0  0  0  0  0  0  0  0
   35.4130   25.0960   31.1460 C   0  0  0  0  0  0  0  0  0  0  0  0
   35.3540   23.7500   31.4530 C   0  0  0  0  0  0  0  0  0  0  0  0
   36.4780   23.0630   31.8890 C   0  0  0  0  0  0  0  0  0  0  0  0
   36.5270   26.8000   31.0090 H   0  0  0  0  0  0  0  0  0  0  0  0
   34.4900   25.5510   30.8150 H   0  0  0  0  0  0  0  0  0  0  0  0
   34.4530   23.1460   31.3780 H   0  0  0  0  0  0  0  0  0  0  0  0
   36.5300   21.6810   32.2300 N   0  0  0  0  0  0  0  0  0  0  0  0
   36.1930   21.1260   33.5140 C   0  0  0  0  0  2  0  0  0  0  0  0
   35.6860   19.7050   33.2720 C   0  0  0  0  0  2  0  0  0  0  0  0
   34.8990   19.6920   31.9740 C   0  0  0  0  0  3  0  0  0  0  0  0
   34.3900   18.7040   31.8960 H   0  0  0  0  0  0  0  0  0  0  0  0
   35.7540   19.9420   30.7730 C   0  0  0  0  0  2  0  0  0  0  0  0
   36.9620   20.7500   31.1890 C   0  0  0  0  0  2  0  0  0  0  0  0
  1  6  1  6  0  0  0
  1  2  1  0  0  0  0
  2  7  1  6  0  0  0
  2  3  1  0  0  0  0
  2 14  1  0  0  0  0
  3  9  1  0  0  0  0
  3  8  1  0  0  0  0
  4  3  1  0  0  0  0
  5  1  1  0  0  0  0
  5  4  1  0  0  0  0
 10  5  1  0  0  0  0
 11  5  1  0  0  0  0
 12 17  1  0  0  0  0
 12 18  1  0  0  0  0
 13 12  2  0  0  0  0
 14 15  2  0  0  0  0
 14 13  1  0  0  0  0
 15 16  1  0  0  0  0
 16 20  1  0  0  0  0
 16 17  2  0  0  0  0
 19 13  1  0  0  0  0
 21  1  1  0  0  0  0
 23 22  1  0  0  0  0
 24 21  1  0  0  0  0
 24 23  2  0  0  0  0
 25 24  1  0  0  0  0
 26 25  2  0  0  0  0
 26 27  1  0  0  0  0
 27 28  2  0  0  0  0
 28 23  1  0  0  0  0
 28 32  1  0  0  0  0
 29 25  1  0  0  0  0
 30 26  1  0  0  0  0
 31 27  1  0  0  0  0
 32 33  1  0  0  0  0
 34 33  1  0  0  0  0
 35 34  1  0  0  0  0
 36 35  1  0  0  0  0
 37 38  1  0  0  0  0
 37 35  1  0  0  0  0
 38 32  1  0  0  0  0
M  END
>  <minimizedAffinity>
-5.45635271

$$$$

 OpenBabel03272501093D

 38 41  0  0  1  0  0  0  0  0999 V2000
   35.8860   26.6840   31.7610 C   0  0  2  0  0  0  0  0  0  0  0  0
   37.1050   25.7710   32.1160 C   0  0  2  0  0  0  0  0  0  0  0  0
   36.4500   24.4740   32.2120 C   0  0  0  0  0  0  0  0  0  0  0  0
   35.4640   24.4200   31.2430 O   0  0  0  0  0  0  0  0  0  0  0  0
   35.2430   25.6710   30.7730 C   0  0  0  0  0  0  0  0  0  0  0  0
   35.2200   26.8130   32.6160 H   0  0  0  0  0  0  0  0  0  0  0  0
   37.7410   25.8250   31.2010 H   0  0  0  0  0  0  0  0  0  0  0  0
   37.2210   23.6690   32.0260 H   0  0  0  0  0  0  0  0  0  0  0  0
   35.9760   24.2170   33.1580 H   0  0  0  0  0  0  0  0  0  0  0  0
   34.1450   25.8820   30.8510 H   0  0  0  0  0  0  0  0  0  0  0  0
   35.5390   25.8840   29.7370 H   0  0  0  0  0  0  0  0  0  0  0  0
   39.8770   27.0890   34.2940 C   0  0  0  0  0  0  0  0  0  0  0  0
   39.2140   26.6190   33.1210 C   0  0  0  0  0  0  0  0  0  0  0  0
   37.8390   26.2630   33.2560 C   0  0  0  0  0  0  0  0  0  0  0  0
   37.2230   26.3850   34.4840 N   0  0  0  0  0  0  0  0  0  0  0  0
   37.8960   26.8310   35.5480 C   0  0  0  0  0  0  0  0  0  0  0  0
   39.2120   27.1850   35.4740 N   0  0  0  0  0  0  0  0  0  0  0  0
   40.9130   27.3440   34.1390 H   0  0  0  0  0  0  0  0  0  0  0  0
   39.7400   26.5460   32.2030 H   0  0  0  0  0  0  0  0  0  0  0  0
   37.4770   26.9520   36.5370 H   0  0  0  0  0  0  0  0  0  0  0  0
   36.2590   27.7890   31.0770 O   0  0  0  0  0  0  0  0  0  0  0  0
   34.9220   29.0580   33.5540 Cl  0  0  0  0  0  0  0  0  0  0  0  0
   35.7660   29.9250   32.3050 C   0  0  0  0  0  0  0  0  0  0  0  0
   36.2770   29.1220   31.2980 C   0  0  0  0  0  0  0  0  0  0  0  0
   36.9530   29.8070   30.2980 C   0  0  0  0  0  0  0  0  0  0  0  0
   37.1100   31.1730   30.2940 C   0  0  0  0  0  0  0  0  0  0  0  0
   36.5730   31.9090   31.3330 C   0  0  0  0  0  0  0  0  0  0  0  0
   35.8830   31.2930   32.3680 C   0  0  0  0  0  0  0  0  0  0  0  0
   37.4180   29.3470   29.4350 H   0  0  0  0  0  0  0  0  0  0  0  0
   37.6310   31.7330   29.5310 H   0  0  0  0  0  0  0  0  0  0  0  0
   36.6450   32.9900   31.4150 H   0  0  0  0  0  0  0  0  0  0  0  0
   35.2910   31.9530   33.4830 N   0  0  0  0  0  0  0  0  0  0  0  0
   33.8800   32.0210   33.7580 C   0  0  0  0  0  2  0  0  0  0  0  0
   33.7220   32.1280   35.2740 C   0  0  0  0  0  2  0  0  0  0  0  0
   34.7970   31.2800   35.9290 C   0  0  0  0  0  3  0  0  0  0  0  0
   34.5670   31.2230   37.0180 H   0  0  0  0  0  0  0  0  0  0  0  0
   36.1750   31.8150   35.7070 C   0  0  0  0  0  2  0  0  0  0  0  0
   36.1910   32.6150   34.4250 C   0  0  0  0  0  2  0  0  0  0  0  0
  1  2  1  0  0  0  0
  1  6  1  1  0  0  0
  2  7  1  6  0  0  0
  2  3  1  0  0  0  0
  2 14  1  0  0  0  0
  3  9  1  0  0  0  0
  4  3  1  0  0  0  0
  5 10  1  0  0  0  0
  5  4  1  0  0  0  0
  5  1  1  0  0  0  0
  8  3  1  0  0  0  0
 11  5  1  0  0  0  0
 12 17  1  0  0  0  0
 13 14  1  0  0  0  0
 13 12  2  0  0  0  0
 14 15  2  0  0  0  0
 15 16  1  0  0  0  0
 16 20  1  0  0  0  0
 17 16  2  0  0  0  0
 18 12  1  0  0  0  0
 19 13  1  0  0  0  0
 21 24  1  0  0  0  0
 21  1  1  0  0  0  0
 23 28  1  0  0  0  0
 23 22  1  0  0  0  0
 24 23  2  0  0  0  0
 25 24  1  0  0  0  0
 26 25  2  0  0  0  0
 26 27  1  0  0  0  0
 27 31  1  0  0  0  0
 27 28  2  0  0  0  0
 28 32  1  0  0  0  0
 29 25  1  0  0  0  0
 30 26  1  0  0  0  0
 32 33  1  0  0  0  0
 32 38  1  0  0  0  0
 33 34  1  0  0  0  0
 34 35  1  0  0  0  0
 35 36  1  0  0  0  0
 37 35  1  0  0  0  0
 38 37  1  0  0  0  0
M  END
>  <minimizedAffinity>
-5.3857336

$$$$

 OpenBabel03272501093D

 38 41  0  0  1  0  0  0  0  0999 V2000
   35.6980   28.6220   32.0750 C   0  0  2  0  0  0  0  0  0  0  0  0
   36.0590   30.0560   31.5660 C   0  0  2  0  0  0  0  0  0  0  0  0
   34.7340   30.6550   31.4900 C   0  0  0  0  0  0  0  0  0  0  0  0
   33.9870   30.1760   32.5510 O   0  0  0  0  0  0  0  0  0  0  0  0
   34.6210   29.1060   33.0860 C   0  0  0  0  0  0  0  0  0  0  0  0
   35.2110   28.0320   31.2980 H   0  0  0  0  0  0  0  0  0  0  0  0
   36.6400   30.4910   32.4140 H   0  0  0  0  0  0  0  0  0  0  0  0
   34.8440   31.7770   31.5670 H   0  0  0  0  0  0  0  0  0  0  0  0
   34.1510   30.4760   30.5880 H   0  0  0  0  0  0  0  0  0  0  0  0
   33.8920   28.2560   33.1280 H   0  0  0  0  0  0  0  0  0  0  0  0
   35.0430   29.2170   34.0940 H   0  0  0  0  0  0  0  0  0  0  0  0
   38.3230   31.0920   28.7440 C   0  0  0  0  0  0  0  0  0  0  0  0
   37.5430   31.2010   29.9330 C   0  0  0  0  0  0  0  0  0  0  0  0
   36.8740   30.0210   30.3760 C   0  0  0  0  0  0  0  0  0  0  0  0
   37.0040   28.8540   29.6530 N   0  0  0  0  0  0  0  0  0  0  0  0
   37.7500   28.8130   28.5440 C   0  0  0  0  0  0  0  0  0  0  0  0
   38.4110   29.9120   28.0790 N   0  0  0  0  0  0  0  0  0  0  0  0
   38.8080   32.0100   28.4520 H   0  0  0  0  0  0  0  0  0  0  0  0
   37.4780   32.1260   30.4480 H   0  0  0  0  0  0  0  0  0  0  0  0
   37.8960   27.9350   27.9320 H   0  0  0  0  0  0  0  0  0  0  0  0
   36.7170   28.0520   32.7580 O   0  0  0  0  0  0  0  0  0  0  0  0
   38.1960   27.4010   35.3880 Cl  0  0  0  0  0  0  0  0  0  0  0  0
   37.7770   26.2510   34.1520 C   0  0  0  0  0  0  0  0  0  0  0  0
   37.1130   26.7980   33.0660 C   0  0  0  0  0  0  0  0  0  0  0  0
   36.7750   25.8860   32.0750 C   0  0  0  0  0  0  0  0  0  0  0  0
   37.0690   24.5450   32.1530 C   0  0  0  0  0  0  0  0  0  0  0  0
   37.7330   24.0720   33.2690 C   0  0  0  0  0  0  0  0  0  0  0  0
   38.1040   24.9240   34.3000 C   0  0  0  0  0  0  0  0  0  0  0  0
   36.2560   26.1300   31.1570 H   0  0  0  0  0  0  0  0  0  0  0  0
   36.8180   23.8120   31.4000 H   0  0  0  0  0  0  0  0  0  0  0  0
   38.0080   23.0310   33.4190 H   0  0  0  0  0  0  0  0  0  0  0  0
   38.7890   24.5440   35.4890 N   0  0  0  0  0  0  0  0  0  0  0  0
   38.1660   24.2400   36.7490 C   0  0  0  0  0  2  0  0  0  0  0  0
   39.0700   23.2390   37.4680 C   0  0  0  0  0  2  0  0  0  0  0  0
   39.6690   22.3050   36.4330 C   0  0  0  0  0  3  0  0  0  0  0  0
   40.1800   21.4780   36.9780 H   0  0  0  0  0  0  0  0  0  0  0  0
   40.6190   22.9940   35.5070 C   0  0  0  0  0  2  0  0  0  0  0  0
   40.2470   24.4570   35.4220 C   0  0  0  0  0  2  0  0  0  0  0  0
  1  6  1  6  0  0  0
  1 21  1  0  0  0  0
  1  5  1  0  0  0  0
  2  1  1  0  0  0  0
  2  7  1  1  0  0  0
  3  2  1  0  0  0  0
  3  8  1  0  0  0  0
  3  4  1  0  0  0  0
  4  5  1  0  0  0  0
  5 10  1  0  0  0  0
  5 11  1  0  0  0  0
  9  3  1  0  0  0  0
 12 13  1  0  0  0  0
 13 14  2  0  0  0  0
 13 19  1  0  0  0  0
 14  2  1  0  0  0  0
 15 14  1  0  0  0  0
 16 15  2  0  0  0  0
 17 16  1  0  0  0  0
 17 12  2  0  0  0  0
 18 12  1  0  0  0  0
 20 16  1  0  0  0  0
 21 24  1  0  0  0  0
 23 28  1  0  0  0  0
 23 22  1  0  0  0  0
 24 23  2  0  0  0  0
 25 26  2  0  0  0  0
 25 24  1  0  0  0  0
 26 27  1  0  0  0  0
 27 31  1  0  0  0  0
 27 28  2  0  0  0  0
 28 32  1  0  0  0  0
 29 25  1  0  0  0  0
 30 26  1  0  0  0  0
 32 33  1  0  0  0  0
 33 34  1  0  0  0  0
 35 36  1  0  0  0  0
 35 34  1  0  0  0  0
 37 35  1  0  0  0  0
 38 32  1  0  0  0  0
 38 37  1  0  0  0  0
M  END
>  <minimizedAffinity>
-5.3588686

$$$$
