
 OpenBabel03272501503D

 28 30  0  0  0  0  0  0  0  0999 V2000
   38.3360   32.3200   48.5810 C   0  0  0  0  0  0  0  0  0  0  0  0
   38.5850   33.1080   49.6710 C   0  0  0  0  0  0  0  0  0  0  0  0
   39.4680   34.1920   49.5780 C   0  0  0  0  0  0  0  0  0  0  0  0
   40.0910   34.4620   48.3670 C   0  0  0  0  0  0  0  0  0  0  0  0
   39.8410   33.6560   47.2360 C   0  0  0  0  0  0  0  0  0  0  0  0
   38.9600   32.6080   47.4050 C   0  0  0  0  0  0  0  0  0  0  0  0
   38.1110   32.9260   50.6480 H   0  0  0  0  0  0  0  0  0  0  0  0
   39.7000   34.8440   50.4070 H   0  0  0  0  0  0  0  0  0  0  0  0
   40.7740   35.3040   48.3050 H   0  0  0  0  0  0  0  0  0  0  0  0
   40.3710   33.9530   46.3500 H   0  0  0  0  0  0  0  0  0  0  0  0
   36.7450   29.0630   49.6360 C   0  0  0  0  0  0  0  0  0  0  0  0
   37.7180   30.0710   49.5430 C   0  0  0  0  0  0  0  0  0  0  0  0
   37.4210   31.2100   48.7540 C   0  0  0  0  0  0  0  0  0  0  0  0
   36.2180   31.2550   48.1380 N   0  0  0  0  0  0  0  0  0  0  0  0
   35.3160   30.2480   48.2660 C   0  0  0  0  0  0  0  0  0  0  0  0
   35.5630   29.1600   49.0010 N   0  0  0  0  0  0  0  0  0  0  0  0
   34.1150   30.4620   47.5660 N   0  0  0  0  0  0  0  0  0  0  0  0
   37.0540   28.2280   50.2600 H   0  0  0  0  0  0  0  0  0  0  0  0
   38.6810   30.0360   50.0350 H   0  0  0  0  0  0  0  0  0  0  0  0
   33.2820   30.7520   48.1290 H   0  0  0  0  0  0  0  0  0  0  0  0
   34.3210   30.2720   46.5460 H   0  0  0  0  0  0  0  0  0  0  0  0
   38.7860   31.9010   46.1720 N   0  0  0  0  0  0  0  0  0  0  0  0
   37.8480   31.9500   45.0800 C   0  0  0  0  0  0  0  0  0  0  0  0
   38.4990   32.3840   43.7870 C   0  0  0  0  0  0  0  0  0  0  0  0
   39.7870   31.6770   43.5090 C   0  0  0  0  0  0  0  0  0  0  0  0
   40.4420   32.3980   42.9370 H   0  0  0  0  0  0  0  0  0  0  0  0
   40.5470   31.2500   44.7020 C   0  0  0  0  0  0  0  0  0  0  0  0
   39.7460   30.8510   45.9010 C   0  0  0  0  0  0  0  0  0  0  0  0
  1 13  1  0  0  0  0
  1  2  1  0  0  0  0
  2  7  1  0  0  0  0
  3  2  2  0  0  0  0
  3  8  1  0  0  0  0
  4  3  1  0  0  0  0
  5  6  1  0  0  0  0
  5  4  2  0  0  0  0
  6  1  2  0  0  0  0
  9  4  1  0  0  0  0
 10  5  1  0  0  0  0
 11 18  1  0  0  0  0
 12 11  1  0  0  0  0
 12 19  1  0  0  0  0
 13 12  2  0  0  0  0
 14 15  2  0  0  0  0
 14 13  1  0  0  0  0
 15 16  1  0  0  0  0
 16 11  2  0  0  0  0
 17 20  1  0  0  0  0
 17 15  1  0  0  0  0
 21 17  1  0  0  0  0
 22  6  1  0  0  0  0
 23 22  1  0  0  0  0
 24 23  1  0  0  0  0
 25 24  1  0  0  0  0
 25 27  1  0  0  0  0
 26 25  1  0  0  0  0
 27 28  1  0  0  0  0
 28 22  1  0  0  0  0
M  END
>  <minimizedAffinity>
-6.27284813

>  <minimizedRMSD>
2.7716527

$$$$
