
 OpenBabel03272509203D

 44 48  0  0  0  0  0  0  0  0999 V2000
   38.1420   31.3920   47.7490 C   0  0  0  0  0  0  0  0  0  0  0  0
   37.1270   31.3760   48.6850 C   0  0  0  0  0  0  0  0  0  0  0  0
   37.1430   32.4690   49.5570 C   0  0  0  0  0  0  0  0  0  0  0  0
   38.1200   33.4790   49.4630 C   0  0  0  0  0  0  0  0  0  0  0  0
   39.1110   33.3900   48.4630 C   0  0  0  0  0  0  0  0  0  0  0  0
   39.1090   32.3180   47.5950 C   0  0  0  0  0  0  0  0  0  0  0  0
   36.3890   32.5570   50.3330 H   0  0  0  0  0  0  0  0  0  0  0  0
   38.1060   34.3120   50.1520 H   0  0  0  0  0  0  0  0  0  0  0  0
   39.8590   34.1700   48.3950 H   0  0  0  0  0  0  0  0  0  0  0  0
   35.0220   30.3880   47.9550 C   0  0  0  0  0  0  0  0  0  0  0  0
   36.1440   30.3630   48.7820 C   0  0  0  0  0  0  0  0  0  0  0  0
   36.2340   29.2940   49.6970 C   0  0  0  0  0  0  0  0  0  0  0  0
   35.2530   28.3700   49.7230 N   0  0  0  0  0  0  0  0  0  0  0  0
   34.1700   28.4470   48.8830 C   0  0  0  0  0  0  0  0  0  0  0  0
   34.0650   29.4470   48.0120 N   0  0  0  0  0  0  0  0  0  0  0  0
   34.8560   31.1650   47.2170 H   0  0  0  0  0  0  0  0  0  0  0  0
   33.4730   27.6280   49.0300 H   0  0  0  0  0  0  0  0  0  0  0  0
   37.4080   29.2080   50.6110 C   0  0  0  0  0  0  0  0  0  0  0  0
   38.2120   29.8670   50.2130 H   0  0  0  0  0  0  0  0  0  0  0  0
   37.8350   28.1640   50.6050 H   0  0  0  0  0  0  0  0  0  0  0  0
   37.1240   29.5660   51.6030 H   0  0  0  0  0  0  0  0  0  0  0  0
   38.2090   30.3360   46.8290 O   0  0  0  0  0  0  0  0  0  0  0  0
   37.6380   29.5070   46.9320 H   0  0  0  0  0  0  0  0  0  0  0  0
   40.1030   32.2950   46.6460 O   0  0  0  0  0  0  0  0  0  0  0  0
   40.2790   30.8120   44.6430 C   0  0  0  0  0  0  0  0  0  0  0  0
   39.9850   31.9740   45.3200 C   0  0  0  0  0  0  0  0  0  0  0  0
   39.4820   33.0440   44.5970 C   0  0  0  0  0  0  0  0  0  0  0  0
   39.2690   32.9610   43.2150 C   0  0  0  0  0  0  0  0  0  0  0  0
   38.8070   33.7990   42.2600 N   0  0  0  0  0  0  0  0  0  0  0  0
   38.8130   33.1930   41.0680 C   0  0  0  0  0  0  0  0  0  0  0  0
   39.2940   31.9320   41.2710 N   0  0  0  0  0  0  0  0  0  0  0  0
   39.5770   31.7810   42.5860 C   0  0  0  0  0  0  0  0  0  0  0  0
   40.0770   30.7170   43.2900 C   0  0  0  0  0  0  0  0  0  0  0  0
   40.6670   30.0370   45.3040 H   0  0  0  0  0  0  0  0  0  0  0  0
   39.1980   34.0340   44.9830 H   0  0  0  0  0  0  0  0  0  0  0  0
   38.4880   34.7900   42.4440 H   0  0  0  0  0  0  0  0  0  0  0  0
   38.5060   33.5890   40.1080 H   0  0  0  0  0  0  0  0  0  0  0  0
   40.4050   29.4790   42.6690 N   0  0  0  0  0  0  0  0  0  0  0  0
   39.3110   28.5720   42.9710 C   0  0  0  0  0  0  0  0  0  0  0  0
   39.6780   27.1830   42.5030 C   0  0  0  0  0  0  0  0  0  0  0  0
   40.0010   27.1370   41.0380 C   0  0  0  0  0  0  0  0  0  0  0  0
   39.0440   27.2140   40.4740 H   0  0  0  0  0  0  0  0  0  0  0  0
   40.9890   28.2250   40.6550 C   0  0  0  0  0  0  0  0  0  0  0  0
   41.5010   28.9660   41.8690 C   0  0  0  0  0  0  0  0  0  0  0  0
  1  2  1  0  0  0  0
  2 11  1  0  0  0  0
  2  3  2  0  0  0  0
  3  7  1  0  0  0  0
  4  3  1  0  0  0  0
  4  8  1  0  0  0  0
  5  4  2  0  0  0  0
  6  1  2  0  0  0  0
  6  5  1  0  0  0  0
  9  5  1  0  0  0  0
 10 15  2  0  0  0  0
 10 11  1  0  0  0  0
 11 12  2  0  0  0  0
 12 13  1  0  0  0  0
 12 18  1  0  0  0  0
 14 17  1  0  0  0  0
 14 13  2  0  0  0  0
 15 14  1  0  0  0  0
 16 10  1  0  0  0  0
 18 21  1  0  0  0  0
 19 18  1  0  0  0  0
 20 18  1  0  0  0  0
 22 23  1  0  0  0  0
 22  1  1  0  0  0  0
 24  6  1  0  0  0  0
 25 34  1  0  0  0  0
 25 26  1  0  0  0  0
 26 24  1  0  0  0  0
 27 35  1  0  0  0  0
 27 26  2  0  0  0  0
 28 27  1  0  0  0  0
 29 36  1  0  0  0  0
 29 28  1  0  0  0  0
 30 31  2  0  0  0  0
 30 29  1  0  0  0  0
 31 32  1  0  0  0  0
 32 28  2  0  0  0  0
 32 33  1  0  0  0  0
 33 25  2  0  0  0  0
 37 30  1  0  0  0  0
 38 39  1  0  0  0  0
 38 33  1  0  0  0  0
 40 39  1  0  0  0  0
 41 40  1  0  0  0  0
 42 41  1  0  0  0  0
 43 41  1  0  0  0  0
 43 44  1  0  0  0  0
 44 38  1  0  0  0  0
M  END
>  <minimizedAffinity>
-7.90546751

>  <minimizedRMSD>
0.892099082

$$$$
