
 OpenBabel03272500523D

 43 48  0  0  1  0  0  0  0  0999 V2000
   37.7200   26.1370   35.6480 C   0  0  1  0  0  0  0  0  0  0  0  0
   38.5580   27.4530   35.8530 C   0  0  0  0  0  0  0  0  0  0  0  0
   38.3750   26.7920   34.5180 C   0  0  2  0  0  0  0  0  0  0  0  0
   36.6190   26.2720   35.7840 H   0  0  0  0  0  0  0  0  0  0  0  0
   37.9390   28.3590   36.0680 H   0  0  0  0  0  0  0  0  0  0  0  0
   39.4960   27.3530   36.4130 H   0  0  0  0  0  0  0  0  0  0  0  0
   39.2930   26.3230   34.0960 H   0  0  0  0  0  0  0  0  0  0  0  0
   39.6780   23.2400   36.4830 C   0  0  0  0  0  0  0  0  0  0  0  0
   38.6790   23.1440   37.4230 C   0  0  0  0  0  0  0  0  0  0  0  0
   37.7970   24.2220   37.2410 C   0  0  0  0  0  0  0  0  0  0  0  0
   38.2830   24.9290   36.2140 N   0  0  0  0  0  0  0  0  0  0  0  0
   39.3720   24.3240   35.8060 N   0  0  0  0  0  0  0  0  0  0  0  0
   38.4700   22.4320   38.2200 H   0  0  0  0  0  0  0  0  0  0  0  0
   36.9040   24.4700   37.7930 H   0  0  0  0  0  0  0  0  0  0  0  0
   41.3680   21.9650   35.1400 C   0  0  0  0  0  0  0  0  0  0  0  0
   40.7550   22.3000   36.3770 C   0  0  0  0  0  0  0  0  0  0  0  0
   41.2540   21.6670   37.4960 C   0  0  0  0  0  0  0  0  0  0  0  0
   42.2790   20.7770   37.3720 N   0  0  0  0  0  0  0  0  0  0  0  0
   42.8250   20.4980   36.1620 C   0  0  0  0  0  0  0  0  0  0  0  0
   42.3730   21.0940   35.0190 N   0  0  0  0  0  0  0  0  0  0  0  0
   40.9520   22.4850   34.2770 H   0  0  0  0  0  0  0  0  0  0  0  0
   40.8260   21.8820   38.4580 H   0  0  0  0  0  0  0  0  0  0  0  0
   43.6350   19.8070   36.0080 H   0  0  0  0  0  0  0  0  0  0  0  0
   37.5510   27.4830   33.4700 C   0  0  0  0  0  0  0  0  0  0  0  0
   37.7590   27.4270   32.1110 C   0  0  0  0  0  0  0  0  0  0  0  0
   36.7910   28.1680   31.5100 N   0  0  0  0  0  0  0  0  0  0  0  0
   35.9790   28.6870   32.4580 C   0  0  0  0  0  0  0  0  0  0  0  0
   36.4520   28.2640   33.6410 N   0  0  0  0  0  0  0  0  0  0  0  0
   38.5310   26.9080   31.5660 H   0  0  0  0  0  0  0  0  0  0  0  0
   36.6140   28.3660   30.4850 H   0  0  0  0  0  0  0  0  0  0  0  0
   34.7910   29.5560   32.2380 C   0  0  0  0  0  0  0  0  0  0  0  0
   34.8180   30.5880   31.2660 C   0  0  0  0  0  0  0  0  0  0  0  0
   33.1420   31.3090   31.4200 S   0  0  0  0  0  0  0  0  0  0  0  0
   32.6970   30.0620   32.7950 C   0  0  0  0  0  0  0  0  0  0  0  0
   33.6530   29.4670   32.8800 N   0  0  0  0  0  0  0  0  0  0  0  0
   35.6770   30.8250   30.6260 H   0  0  0  0  0  0  0  0  0  0  0  0
   31.3440   30.3130   33.2190 N   0  0  0  0  0  0  0  0  0  0  0  0
   30.7320   31.5420   32.7020 C   0  0  0  0  0  2  0  0  0  0  0  0
   30.7020   32.4790   33.9150 C   0  0  0  0  0  2  0  0  0  0  0  0
   29.7710   31.8440   34.9030 C   0  0  0  0  0  3  0  0  0  0  0  0
   29.7530   32.4690   35.8200 H   0  0  0  0  0  0  0  0  0  0  0  0
   30.2120   30.4740   35.2950 C   0  0  0  0  0  2  0  0  0  0  0  0
   30.4590   29.5690   34.0890 C   0  0  0  0  0  2  0  0  0  0  0  0
  1  4  1  1  0  0  0
  1  2  1  0  0  0  0
  1 11  1  0  0  0  0
  2  5  1  0  0  0  0
  2  6  1  0  0  0  0
  3  7  1  6  0  0  0
  3  1  1  0  0  0  0
  3  2  1  0  0  0  0
  8  9  1  0  0  0  0
  9 13  1  0  0  0  0
 10  9  2  0  0  0  0
 10 14  1  0  0  0  0
 11 10  1  0  0  0  0
 12 11  1  0  0  0  0
 12  8  2  0  0  0  0
 15 16  1  0  0  0  0
 16  8  1  0  0  0  0
 16 17  2  0  0  0  0
 17 22  1  0  0  0  0
 18 17  1  0  0  0  0
 19 18  2  0  0  0  0
 20 15  2  0  0  0  0
 20 19  1  0  0  0  0
 21 15  1  0  0  0  0
 23 19  1  0  0  0  0
 24 28  1  0  0  0  0
 24  3  1  0  0  0  0
 25 24  2  0  0  0  0
 26 25  1  0  0  0  0
 26 27  1  0  0  0  0
 27 28  2  0  0  0  0
 29 25  1  0  0  0  0
 30 26  1  0  0  0  0
 31 27  1  0  0  0  0
 31 35  1  0  0  0  0
 32 33  1  0  0  0  0
 32 31  2  0  0  0  0
 33 34  1  0  0  0  0
 34 35  2  0  0  0  0
 34 37  1  0  0  0  0
 36 32  1  0  0  0  0
 37 43  1  0  0  0  0
 38 37  1  0  0  0  0
 38 39  1  0  0  0  0
 39 40  1  0  0  0  0
 40 42  1  0  0  0  0
 40 41  1  0  0  0  0
 43 42  1  0  0  0  0
M  END
>  <minimizedAffinity>
-6.26406622

$$$$

 OpenBabel03272500523D

 43 48  0  0  1  0  0  0  0  0999 V2000
   34.8550   29.4080   33.8830 C   0  0  1  0  0  0  0  0  0  0  0  0
   33.8840   29.6280   32.6660 C   0  0  0  0  0  0  0  0  0  0  0  0
   35.3780   29.6090   32.5340 C   0  0  2  0  0  0  0  0  0  0  0  0
   34.8330   28.3730   34.3040 H   0  0  0  0  0  0  0  0  0  0  0  0
   33.3280   28.7090   32.3550 H   0  0  0  0  0  0  0  0  0  0  0  0
   33.3230   30.5710   32.6510 H   0  0  0  0  0  0  0  0  0  0  0  0
   35.8400   30.5920   32.2890 H   0  0  0  0  0  0  0  0  0  0  0  0
   34.2140   32.1420   36.1280 C   0  0  0  0  0  0  0  0  0  0  0  0
   35.5590   31.9530   36.3460 C   0  0  0  0  0  0  0  0  0  0  0  0
   35.9930   30.8950   35.5290 C   0  0  0  0  0  0  0  0  0  0  0  0
   34.9140   30.4820   34.8540 N   0  0  0  0  0  0  0  0  0  0  0  0
   33.9080   31.2320   35.2310 N   0  0  0  0  0  0  0  0  0  0  0  0
   36.2870   32.4420   36.9900 H   0  0  0  0  0  0  0  0  0  0  0  0
   36.9790   30.4690   35.4360 H   0  0  0  0  0  0  0  0  0  0  0  0
   34.0010   34.0550   37.7340 C   0  0  0  0  0  0  0  0  0  0  0  0
   33.4400   33.1460   36.7980 C   0  0  0  0  0  0  0  0  0  0  0  0
   32.0890   33.2760   36.5550 C   0  0  0  0  0  0  0  0  0  0  0  0
   31.3730   34.2380   37.2020 N   0  0  0  0  0  0  0  0  0  0  0  0
   31.9650   35.0790   38.0880 C   0  0  0  0  0  0  0  0  0  0  0  0
   33.2990   34.9980   38.3680 N   0  0  0  0  0  0  0  0  0  0  0  0
   35.0710   33.9270   37.9010 H   0  0  0  0  0  0  0  0  0  0  0  0
   31.6130   32.6130   35.8560 H   0  0  0  0  0  0  0  0  0  0  0  0
   31.4480   35.8560   38.6240 H   0  0  0  0  0  0  0  0  0  0  0  0
   36.0300   28.4700   31.8040 C   0  0  0  0  0  0  0  0  0  0  0  0
   36.4560   28.4850   30.4970 C   0  0  0  0  0  0  0  0  0  0  0  0
   37.0060   27.2740   30.2220 N   0  0  0  0  0  0  0  0  0  0  0  0
   36.9380   26.4970   31.3270 C   0  0  0  0  0  0  0  0  0  0  0  0
   36.3440   27.2350   32.2780 N   0  0  0  0  0  0  0  0  0  0  0  0
   36.3910   29.2830   29.7730 H   0  0  0  0  0  0  0  0  0  0  0  0
   37.4420   26.9030   29.3320 H   0  0  0  0  0  0  0  0  0  0  0  0
   37.4270   25.0980   31.4670 C   0  0  0  0  0  0  0  0  0  0  0  0
   38.7680   24.7640   31.1510 C   0  0  0  0  0  0  0  0  0  0  0  0
   38.8120   22.9670   31.5020 S   0  0  0  0  0  0  0  0  0  0  0  0
   36.9760   22.9910   32.0230 C   0  0  0  0  0  0  0  0  0  0  0  0
   36.7130   24.0800   31.8770 N   0  0  0  0  0  0  0  0  0  0  0  0
   39.5230   25.4740   30.7910 H   0  0  0  0  0  0  0  0  0  0  0  0
   36.5940   21.6580   32.4070 N   0  0  0  0  0  0  0  0  0  0  0  0
   37.5680   20.6030   32.1040 C   0  0  0  0  0  2  0  0  0  0  0  0
   36.9430   19.8500   30.9240 C   0  0  0  0  0  2  0  0  0  0  0  0
   35.6890   19.2240   31.4530 C   0  0  0  0  0  3  0  0  0  0  0  0
   35.1770   18.7020   30.6160 H   0  0  0  0  0  0  0  0  0  0  0  0
   34.7410   20.2350   32.0050 C   0  0  0  0  0  2  0  0  0  0  0  0
   35.3950   21.1490   33.0390 C   0  0  0  0  0  2  0  0  0  0  0  0
  1  4  1  1  0  0  0
  1 11  1  0  0  0  0
  2  1  1  0  0  0  0
  3  7  1  6  0  0  0
  3  2  1  0  0  0  0
  3  1  1  0  0  0  0
  5  2  1  0  0  0  0
  6  2  1  0  0  0  0
  8  9  1  0  0  0  0
  8 16  1  0  0  0  0
  9 13  1  0  0  0  0
 10  9  2  0  0  0  0
 11 12  1  0  0  0  0
 11 10  1  0  0  0  0
 12  8  2  0  0  0  0
 14 10  1  0  0  0  0
 15 21  1  0  0  0  0
 15 20  1  0  0  0  0
 16 15  2  0  0  0  0
 17 16  1  0  0  0  0
 17 18  2  0  0  0  0
 18 19  1  0  0  0  0
 19 20  2  0  0  0  0
 19 23  1  0  0  0  0
 22 17  1  0  0  0  0
 24 28  1  0  0  0  0
 24  3  1  0  0  0  0
 25 24  2  0  0  0  0
 26 25  1  0  0  0  0
 26 27  1  0  0  0  0
 27 31  1  0  0  0  0
 27 28  2  0  0  0  0
 29 25  1  0  0  0  0
 30 26  1  0  0  0  0
 31 35  1  0  0  0  0
 32 31  2  0  0  0  0
 32 33  1  0  0  0  0
 33 34  1  0  0  0  0
 34 37  1  0  0  0  0
 35 34  2  0  0  0  0
 36 32  1  0  0  0  0
 37 43  1  0  0  0  0
 38 37  1  0  0  0  0
 39 40  1  0  0  0  0
 39 38  1  0  0  0  0
 40 42  1  0  0  0  0
 41 40  1  0  0  0  0
 42 43  1  0  0  0  0
M  END
>  <minimizedAffinity>
-6.25274086

$$$$

 OpenBabel03272500523D

 43 48  0  0  1  0  0  0  0  0999 V2000
   38.0920   26.0600   35.8960 C   0  0  1  0  0  0  0  0  0  0  0  0
   39.1470   27.1500   35.4830 C   0  0  0  0  0  0  0  0  0  0  0  0
   38.2550   26.4530   34.4980 C   0  0  2  0  0  0  0  0  0  0  0  0
   37.2210   26.4620   36.4710 H   0  0  0  0  0  0  0  0  0  0  0  0
   38.8690   28.1910   35.7820 H   0  0  0  0  0  0  0  0  0  0  0  0
   40.2040   26.8740   35.5880 H   0  0  0  0  0  0  0  0  0  0  0  0
   38.7760   25.7480   33.8110 H   0  0  0  0  0  0  0  0  0  0  0  0
   39.9750   23.0550   36.4840 C   0  0  0  0  0  0  0  0  0  0  0  0
   38.9960   22.9250   37.4410 C   0  0  0  0  0  0  0  0  0  0  0  0
   38.1450   24.0390   37.3550 C   0  0  0  0  0  0  0  0  0  0  0  0
   38.6290   24.7990   36.3650 N   0  0  0  0  0  0  0  0  0  0  0  0
   39.6880   24.1910   35.8900 N   0  0  0  0  0  0  0  0  0  0  0  0
   38.7830   22.1670   38.1930 H   0  0  0  0  0  0  0  0  0  0  0  0
   37.2730   24.2760   37.9440 H   0  0  0  0  0  0  0  0  0  0  0  0
   41.5430   21.7730   35.0070 C   0  0  0  0  0  0  0  0  0  0  0  0
   41.0190   22.0910   36.2880 C   0  0  0  0  0  0  0  0  0  0  0  0
   41.5700   21.4180   37.3570 C   0  0  0  0  0  0  0  0  0  0  0  0
   42.5630   20.5080   37.1470 N   0  0  0  0  0  0  0  0  0  0  0  0
   43.0240   20.2460   35.8980 C   0  0  0  0  0  0  0  0  0  0  0  0
   42.5150   20.8810   34.8010 N   0  0  0  0  0  0  0  0  0  0  0  0
   41.0870   22.3240   34.1840 H   0  0  0  0  0  0  0  0  0  0  0  0
   41.2100   21.6190   38.3490 H   0  0  0  0  0  0  0  0  0  0  0  0
   43.8040   19.5390   35.6760 H   0  0  0  0  0  0  0  0  0  0  0  0
   37.1780   27.2370   33.8080 C   0  0  0  0  0  0  0  0  0  0  0  0
   36.7890   27.0970   32.4970 C   0  0  0  0  0  0  0  0  0  0  0  0
   35.7760   27.9720   32.2650 N   0  0  0  0  0  0  0  0  0  0  0  0
   35.5170   28.6590   33.4000 C   0  0  0  0  0  0  0  0  0  0  0  0
   36.3750   28.2040   34.3270 N   0  0  0  0  0  0  0  0  0  0  0  0
   37.1790   26.4310   31.7430 H   0  0  0  0  0  0  0  0  0  0  0  0
   35.2170   28.1600   31.3850 H   0  0  0  0  0  0  0  0  0  0  0  0
   34.4840   29.7140   33.5900 C   0  0  0  0  0  0  0  0  0  0  0  0
   33.6300   30.0920   32.5250 C   0  0  0  0  0  0  0  0  0  0  0  0
   32.5890   31.3830   33.3010 S   0  0  0  0  0  0  0  0  0  0  0  0
   33.5130   31.1760   34.9590 C   0  0  0  0  0  0  0  0  0  0  0  0
   34.2610   30.3690   34.7020 N   0  0  0  0  0  0  0  0  0  0  0  0
   33.6580   29.6620   31.5150 H   0  0  0  0  0  0  0  0  0  0  0  0
   32.9440   32.0880   35.9160 N   0  0  0  0  0  0  0  0  0  0  0  0
   32.0050   33.0770   35.3740 C   0  0  0  0  0  2  0  0  0  0  0  0
   32.7910   34.3920   35.4110 C   0  0  0  0  0  2  0  0  0  0  0  0
   33.0320   34.6870   36.8600 C   0  0  0  0  0  3  0  0  0  0  0  0
   33.6400   35.6140   36.9330 H   0  0  0  0  0  0  0  0  0  0  0  0
   33.7850   33.5940   37.5410 C   0  0  0  0  0  2  0  0  0  0  0  0
   33.1390   32.2240   37.3430 C   0  0  0  0  0  2  0  0  0  0  0  0
  1 11  1  0  0  0  0
  1  4  1  1  0  0  0
  2  6  1  0  0  0  0
  2  5  1  0  0  0  0
  2  1  1  0  0  0  0
  3  7  1  6  0  0  0
  3  2  1  0  0  0  0
  3  1  1  0  0  0  0
  8  9  1  0  0  0  0
  9 13  1  0  0  0  0
 10  9  2  0  0  0  0
 10 14  1  0  0  0  0
 11 10  1  0  0  0  0
 12 11  1  0  0  0  0
 12  8  2  0  0  0  0
 15 16  1  0  0  0  0
 16  8  1  0  0  0  0
 16 17  2  0  0  0  0
 17 22  1  0  0  0  0
 18 17  1  0  0  0  0
 19 18  2  0  0  0  0
 20 15  2  0  0  0  0
 20 19  1  0  0  0  0
 21 15  1  0  0  0  0
 23 19  1  0  0  0  0
 24 28  1  0  0  0  0
 24  3  1  0  0  0  0
 25 24  2  0  0  0  0
 26 25  1  0  0  0  0
 26 27  1  0  0  0  0
 27 31  1  0  0  0  0
 27 28  2  0  0  0  0
 29 25  1  0  0  0  0
 30 26  1  0  0  0  0
 31 35  1  0  0  0  0
 32 33  1  0  0  0  0
 32 31  2  0  0  0  0
 33 34  1  0  0  0  0
 34 37  1  0  0  0  0
 35 34  2  0  0  0  0
 36 32  1  0  0  0  0
 37 43  1  0  0  0  0
 38 39  1  0  0  0  0
 38 37  1  0  0  0  0
 39 40  1  0  0  0  0
 40 41  1  0  0  0  0
 40 42  1  0  0  0  0
 43 42  1  0  0  0  0
M  END
>  <minimizedAffinity>
-6.16238594

$$$$

 OpenBabel03272500523D

 43 48  0  0  1  0  0  0  0  0999 V2000
   37.6660   25.9210   35.7640 C   0  0  1  0  0  0  0  0  0  0  0  0
   38.4320   27.2950   35.7900 C   0  0  0  0  0  0  0  0  0  0  0  0
   38.1590   26.5280   34.5290 C   0  0  2  0  0  0  0  0  0  0  0  0
   36.5780   26.0000   36.0070 H   0  0  0  0  0  0  0  0  0  0  0  0
   37.7790   28.1760   36.0080 H   0  0  0  0  0  0  0  0  0  0  0  0
   39.4260   27.2920   36.2530 H   0  0  0  0  0  0  0  0  0  0  0  0
   39.0580   26.0830   34.0460 H   0  0  0  0  0  0  0  0  0  0  0  0
   39.8210   23.1480   36.5310 C   0  0  0  0  0  0  0  0  0  0  0  0
   39.0400   23.1750   37.6620 C   0  0  0  0  0  0  0  0  0  0  0  0
   38.1150   24.2240   37.5340 C   0  0  0  0  0  0  0  0  0  0  0  0
   38.3610   24.7920   36.3480 N   0  0  0  0  0  0  0  0  0  0  0  0
   39.3560   24.1370   35.8020 N   0  0  0  0  0  0  0  0  0  0  0  0
   39.0170   22.5710   38.5680 H   0  0  0  0  0  0  0  0  0  0  0  0
   37.3490   24.5430   38.2230 H   0  0  0  0  0  0  0  0  0  0  0  0
   41.5120   21.5060   37.3860 C   0  0  0  0  0  0  0  0  0  0  0  0
   40.8750   22.1980   36.3220 C   0  0  0  0  0  0  0  0  0  0  0  0
   41.3230   21.9080   35.0500 C   0  0  0  0  0  0  0  0  0  0  0  0
   42.3250   21.0000   34.8750 N   0  0  0  0  0  0  0  0  0  0  0  0
   42.8960   20.3700   35.9330 C   0  0  0  0  0  0  0  0  0  0  0  0
   42.4930   20.6170   37.2140 N   0  0  0  0  0  0  0  0  0  0  0  0
   41.1320   21.7560   38.3770 H   0  0  0  0  0  0  0  0  0  0  0  0
   40.8770   22.4030   34.2080 H   0  0  0  0  0  0  0  0  0  0  0  0
   43.6870   19.6450   35.8510 H   0  0  0  0  0  0  0  0  0  0  0  0
   37.1890   27.0900   33.5300 C   0  0  0  0  0  0  0  0  0  0  0  0
   36.9260   26.5760   32.2820 C   0  0  0  0  0  0  0  0  0  0  0  0
   35.9800   27.3590   31.7000 N   0  0  0  0  0  0  0  0  0  0  0  0
   35.6410   28.3510   32.5520 C   0  0  0  0  0  0  0  0  0  0  0  0
   36.3820   28.1760   33.6580 N   0  0  0  0  0  0  0  0  0  0  0  0
   37.3600   25.7140   31.8000 H   0  0  0  0  0  0  0  0  0  0  0  0
   35.5200   27.2870   30.7490 H   0  0  0  0  0  0  0  0  0  0  0  0
   34.6400   29.4280   32.3170 C   0  0  0  0  0  0  0  0  0  0  0  0
   33.3250   29.3200   32.8330 C   0  0  0  0  0  0  0  0  0  0  0  0
   32.5550   30.8800   32.2610 S   0  0  0  0  0  0  0  0  0  0  0  0
   34.1810   31.4080   31.4120 C   0  0  0  0  0  0  0  0  0  0  0  0
   34.8550   30.5330   31.6480 N   0  0  0  0  0  0  0  0  0  0  0  0
   32.9490   28.4720   33.4190 H   0  0  0  0  0  0  0  0  0  0  0  0
   33.9780   32.6930   30.7960 N   0  0  0  0  0  0  0  0  0  0  0  0
   32.5900   33.1690   30.7570 C   0  0  0  0  0  2  0  0  0  0  0  0
   32.1880   33.0150   29.2860 C   0  0  0  0  0  2  0  0  0  0  0  0
   33.0560   33.9670   28.5210 C   0  0  0  0  0  3  0  0  0  0  0  0
   32.8280   33.8570   27.4390 H   0  0  0  0  0  0  0  0  0  0  0  0
   34.5080   33.6860   28.7110 C   0  0  0  0  0  2  0  0  0  0  0  0
   34.9050   33.6200   30.1840 C   0  0  0  0  0  2  0  0  0  0  0  0
  1  2  1  0  0  0  0
  1  4  1  1  0  0  0
  1 11  1  0  0  0  0
  2  5  1  0  0  0  0
  2  6  1  0  0  0  0
  3  7  1  6  0  0  0
  3  1  1  0  0  0  0
  3  2  1  0  0  0  0
  8  9  1  0  0  0  0
  9 13  1  0  0  0  0
 10  9  2  0  0  0  0
 10 14  1  0  0  0  0
 11 10  1  0  0  0  0
 12 11  1  0  0  0  0
 12  8  2  0  0  0  0
 15 21  1  0  0  0  0
 16  8  1  0  0  0  0
 16 15  2  0  0  0  0
 17 16  1  0  0  0  0
 18 17  2  0  0  0  0
 18 19  1  0  0  0  0
 19 20  2  0  0  0  0
 20 15  1  0  0  0  0
 22 17  1  0  0  0  0
 23 19  1  0  0  0  0
 24 28  1  0  0  0  0
 24  3  1  0  0  0  0
 25 24  2  0  0  0  0
 26 25  1  0  0  0  0
 26 27  1  0  0  0  0
 27 28  2  0  0  0  0
 29 25  1  0  0  0  0
 30 26  1  0  0  0  0
 31 27  1  0  0  0  0
 31 32  2  0  0  0  0
 32 36  1  0  0  0  0
 33 32  1  0  0  0  0
 34 35  2  0  0  0  0
 34 33  1  0  0  0  0
 35 31  1  0  0  0  0
 37 34  1  0  0  0  0
 38 37  1  0  0  0  0
 39 38  1  0  0  0  0
 40 42  1  0  0  0  0
 40 39  1  0  0  0  0
 41 40  1  0  0  0  0
 42 43  1  0  0  0  0
 43 37  1  0  0  0  0
M  END
>  <minimizedAffinity>
-6.01456404

$$$$

 OpenBabel03272500523D

 43 48  0  0  1  0  0  0  0  0999 V2000
   34.2360   29.6830   32.5190 C   0  0  1  0  0  0  0  0  0  0  0  0
   35.6120   30.4280   32.6640 C   0  0  0  0  0  0  0  0  0  0  0  0
   35.4380   28.9620   32.9310 C   0  0  2  0  0  0  0  0  0  0  0  0
   33.8810   29.5800   31.4630 H   0  0  0  0  0  0  0  0  0  0  0  0
   36.0770   30.7220   31.6900 H   0  0  0  0  0  0  0  0  0  0  0  0
   35.6940   31.1500   33.4860 H   0  0  0  0  0  0  0  0  0  0  0  0
   35.5330   28.6650   34.0000 H   0  0  0  0  0  0  0  0  0  0  0  0
   31.7590   29.7430   35.1240 C   0  0  0  0  0  0  0  0  0  0  0  0
   31.7520   31.0650   34.7450 C   0  0  0  0  0  0  0  0  0  0  0  0
   32.6850   31.2310   33.7080 C   0  0  0  0  0  0  0  0  0  0  0  0
   33.2200   30.0230   33.4940 N   0  0  0  0  0  0  0  0  0  0  0  0
   32.6550   29.1920   34.3360 N   0  0  0  0  0  0  0  0  0  0  0  0
   31.1940   31.9360   35.0830 H   0  0  0  0  0  0  0  0  0  0  0  0
   32.9490   32.1260   33.1680 H   0  0  0  0  0  0  0  0  0  0  0  0
   29.5750   29.6220   36.3490 C   0  0  0  0  0  0  0  0  0  0  0  0
   30.9230   29.2160   36.1630 C   0  0  0  0  0  0  0  0  0  0  0  0
   31.4030   28.2710   37.0450 C   0  0  0  0  0  0  0  0  0  0  0  0
   30.5910   27.7820   38.0240 N   0  0  0  0  0  0  0  0  0  0  0  0
   29.3090   28.2090   38.1520 C   0  0  0  0  0  0  0  0  0  0  0  0
   28.7790   29.1430   37.3090 N   0  0  0  0  0  0  0  0  0  0  0  0
   29.2270   30.3670   35.6340 H   0  0  0  0  0  0  0  0  0  0  0  0
   32.4170   27.9290   36.9510 H   0  0  0  0  0  0  0  0  0  0  0  0
   28.6260   27.8560   38.9050 H   0  0  0  0  0  0  0  0  0  0  0  0
   36.0750   27.9710   32.0010 C   0  0  0  0  0  0  0  0  0  0  0  0
   36.5130   28.2270   30.7230 C   0  0  0  0  0  0  0  0  0  0  0  0
   37.0420   27.0790   30.2250 N   0  0  0  0  0  0  0  0  0  0  0  0
   36.9480   26.1070   31.1600 C   0  0  0  0  0  0  0  0  0  0  0  0
   36.3590   26.6610   32.2310 N   0  0  0  0  0  0  0  0  0  0  0  0
   36.4710   29.1490   30.1660 H   0  0  0  0  0  0  0  0  0  0  0  0
   37.4800   26.8760   29.2820 H   0  0  0  0  0  0  0  0  0  0  0  0
   37.4090   24.6970   31.0320 C   0  0  0  0  0  0  0  0  0  0  0  0
   38.4410   24.3510   30.1250 C   0  0  0  0  0  0  0  0  0  0  0  0
   38.5940   22.5440   30.3830 S   0  0  0  0  0  0  0  0  0  0  0  0
   37.2100   22.5820   31.6970 C   0  0  0  0  0  0  0  0  0  0  0  0
   36.9390   23.6790   31.7090 N   0  0  0  0  0  0  0  0  0  0  0  0
   38.9620   25.0590   29.4680 H   0  0  0  0  0  0  0  0  0  0  0  0
   37.0130   21.2450   32.1910 N   0  0  0  0  0  0  0  0  0  0  0  0
   37.7070   20.1840   31.4520 C   0  0  0  0  0  2  0  0  0  0  0  0
   36.5860   19.4750   30.6830 C   0  0  0  0  0  2  0  0  0  0  0  0
   35.7040   18.8530   31.7230 C   0  0  0  0  0  3  0  0  0  0  0  0
   34.8490   18.3630   31.2090 H   0  0  0  0  0  0  0  0  0  0  0  0
   35.1480   19.8630   32.6680 C   0  0  0  0  0  2  0  0  0  0  0  0
   36.2310   20.7380   33.2970 C   0  0  0  0  0  2  0  0  0  0  0  0
  1  4  1  6  0  0  0
  1  2  1  0  0  0  0
  1  3  1  0  0  0  0
  1 11  1  0  0  0  0
  2  3  1  0  0  0  0
  2  6  1  0  0  0  0
  3  7  1  1  0  0  0
  5  2  1  0  0  0  0
  8 16  1  0  0  0  0
  9 13  1  0  0  0  0
  9  8  1  0  0  0  0
 10  9  2  0  0  0  0
 11 10  1  0  0  0  0
 11 12  1  0  0  0  0
 12  8  2  0  0  0  0
 14 10  1  0  0  0  0
 15 20  1  0  0  0  0
 16 15  2  0  0  0  0
 16 17  1  0  0  0  0
 17 18  2  0  0  0  0
 18 19  1  0  0  0  0
 19 23  1  0  0  0  0
 20 19  2  0  0  0  0
 21 15  1  0  0  0  0
 22 17  1  0  0  0  0
 24 28  1  0  0  0  0
 24  3  1  0  0  0  0
 25 24  2  0  0  0  0
 26 25  1  0  0  0  0
 26 27  1  0  0  0  0
 27 28  2  0  0  0  0
 29 25  1  0  0  0  0
 30 26  1  0  0  0  0
 31 27  1  0  0  0  0
 31 35  1  0  0  0  0
 32 33  1  0  0  0  0
 32 31  2  0  0  0  0
 33 34  1  0  0  0  0
 34 35  2  0  0  0  0
 34 37  1  0  0  0  0
 36 32  1  0  0  0  0
 37 43  1  0  0  0  0
 38 37  1  0  0  0  0
 39 38  1  0  0  0  0
 39 40  1  0  0  0  0
 40 42  1  0  0  0  0
 41 40  1  0  0  0  0
 42 43  1  0  0  0  0
M  END
>  <minimizedAffinity>
-5.87993431

$$$$

 OpenBabel03272500523D

 43 48  0  0  1  0  0  0  0  0999 V2000
   34.8760   29.5940   34.8340 C   0  0  1  0  0  0  0  0  0  0  0  0
   34.7050   29.5870   33.2710 C   0  0  0  0  0  0  0  0  0  0  0  0
   36.0070   29.2990   33.9580 C   0  0  2  0  0  0  0  0  0  0  0  0
   34.3620   28.7490   35.3540 H   0  0  0  0  0  0  0  0  0  0  0  0
   34.1250   28.7150   32.8800 H   0  0  0  0  0  0  0  0  0  0  0  0
   34.5150   30.5570   32.7950 H   0  0  0  0  0  0  0  0  0  0  0  0
   36.7900   30.0800   33.8270 H   0  0  0  0  0  0  0  0  0  0  0  0
   33.8340   32.6330   36.4470 C   0  0  0  0  0  0  0  0  0  0  0  0
   35.1930   32.8360   36.3910 C   0  0  0  0  0  0  0  0  0  0  0  0
   35.7800   31.7190   35.7730 C   0  0  0  0  0  0  0  0  0  0  0  0
   34.7740   30.8870   35.4810 N   0  0  0  0  0  0  0  0  0  0  0  0
   33.6660   31.4560   35.8880 N   0  0  0  0  0  0  0  0  0  0  0  0
   35.8400   33.6480   36.7160 H   0  0  0  0  0  0  0  0  0  0  0  0
   36.8200   31.5290   35.5610 H   0  0  0  0  0  0  0  0  0  0  0  0
   31.5150   33.5200   36.7990 C   0  0  0  0  0  0  0  0  0  0  0  0
   32.9180   33.5780   37.0170 C   0  0  0  0  0  0  0  0  0  0  0  0
   33.3690   34.6050   37.8190 C   0  0  0  0  0  0  0  0  0  0  0  0
   32.4800   35.4900   38.3510 N   0  0  0  0  0  0  0  0  0  0  0  0
   31.1500   35.3840   38.1080 C   0  0  0  0  0  0  0  0  0  0  0  0
   30.6450   34.3880   37.3210 N   0  0  0  0  0  0  0  0  0  0  0  0
   31.1920   32.6960   36.1640 H   0  0  0  0  0  0  0  0  0  0  0  0
   34.4210   34.6960   38.0160 H   0  0  0  0  0  0  0  0  0  0  0  0
   30.4060   36.0540   38.5030 H   0  0  0  0  0  0  0  0  0  0  0  0
   36.5690   27.9080   33.9000 C   0  0  0  0  0  0  0  0  0  0  0  0
   36.6480   27.1130   32.7810 C   0  0  0  0  0  0  0  0  0  0  0  0
   37.2340   25.9410   33.1410 N   0  0  0  0  0  0  0  0  0  0  0  0
   37.5270   25.9810   34.4600 C   0  0  0  0  0  0  0  0  0  0  0  0
   37.1180   27.1790   34.9070 N   0  0  0  0  0  0  0  0  0  0  0  0
   36.3210   27.3270   31.7750 H   0  0  0  0  0  0  0  0  0  0  0  0
   37.4680   25.0850   32.5640 H   0  0  0  0  0  0  0  0  0  0  0  0
   38.1780   24.9100   35.2620 C   0  0  0  0  0  0  0  0  0  0  0  0
   37.7740   24.6570   36.5970 C   0  0  0  0  0  0  0  0  0  0  0  0
   38.8750   23.2770   37.0810 S   0  0  0  0  0  0  0  0  0  0  0  0
   39.7000   23.2880   35.3600 C   0  0  0  0  0  0  0  0  0  0  0  0
   39.1400   24.1250   34.8460 N   0  0  0  0  0  0  0  0  0  0  0  0
   36.9860   25.2060   37.1280 H   0  0  0  0  0  0  0  0  0  0  0  0
   40.7040   22.2590   35.3280 N   0  0  0  0  0  0  0  0  0  0  0  0
   41.0150   21.6310   36.6180 C   0  0  0  0  0  2  0  0  0  0  0  0
   42.3920   22.1970   36.9820 C   0  0  0  0  0  2  0  0  0  0  0  0
   43.3390   21.6780   35.9430 C   0  0  0  0  0  3  0  0  0  0  0  0
   44.3460   22.1020   36.1430 H   0  0  0  0  0  0  0  0  0  0  0  0
   42.9410   22.0840   34.5640 C   0  0  0  0  0  2  0  0  0  0  0  0
   41.4930   21.7220   34.2400 C   0  0  0  0  0  2  0  0  0  0  0  0
  1  4  1  1  0  0  0
  1 11  1  0  0  0  0
  2  3  1  0  0  0  0
  2  1  1  0  0  0  0
  3  7  1  6  0  0  0
  3  1  1  0  0  0  0
  5  2  1  0  0  0  0
  6  2  1  0  0  0  0
  8 16  1  0  0  0  0
  9  8  1  0  0  0  0
  9 13  1  0  0  0  0
 10  9  2  0  0  0  0
 11 10  1  0  0  0  0
 11 12  1  0  0  0  0
 12  8  2  0  0  0  0
 14 10  1  0  0  0  0
 15 16  2  0  0  0  0
 15 20  1  0  0  0  0
 16 17  1  0  0  0  0
 17 22  1  0  0  0  0
 17 18  2  0  0  0  0
 19 18  1  0  0  0  0
 19 23  1  0  0  0  0
 20 19  2  0  0  0  0
 21 15  1  0  0  0  0
 24  3  1  0  0  0  0
 24 28  1  0  0  0  0
 25 26  1  0  0  0  0
 25 24  2  0  0  0  0
 26 27  1  0  0  0  0
 27 28  2  0  0  0  0
 27 31  1  0  0  0  0
 29 25  1  0  0  0  0
 30 26  1  0  0  0  0
 31 32  2  0  0  0  0
 32 33  1  0  0  0  0
 32 36  1  0  0  0  0
 34 33  1  0  0  0  0
 35 31  1  0  0  0  0
 35 34  2  0  0  0  0
 37 34  1  0  0  0  0
 37 38  1  0  0  0  0
 38 39  1  0  0  0  0
 40 41  1  0  0  0  0
 40 39  1  0  0  0  0
 42 40  1  0  0  0  0
 43 42  1  0  0  0  0
 43 37  1  0  0  0  0
M  END
>  <minimizedAffinity>
-5.87140942

$$$$

 OpenBabel03272500523D

 43 48  0  0  1  0  0  0  0  0999 V2000
   37.7530   27.0820   34.2480 C   0  0  1  0  0  0  0  0  0  0  0  0
   38.7320   27.2690   35.4640 C   0  0  0  0  0  0  0  0  0  0  0  0
   37.6770   26.2030   35.4120 C   0  0  2  0  0  0  0  0  0  0  0  0
   38.2460   26.7050   33.3180 H   0  0  0  0  0  0  0  0  0  0  0  0
   39.7860   26.9610   35.2520 H   0  0  0  0  0  0  0  0  0  0  0  0
   38.5960   28.1750   36.0670 H   0  0  0  0  0  0  0  0  0  0  0  0
   36.8330   26.3440   36.1240 H   0  0  0  0  0  0  0  0  0  0  0  0
   35.5340   29.8990   34.5160 C   0  0  0  0  0  0  0  0  0  0  0  0
   35.2040   29.4420   33.2620 C   0  0  0  0  0  0  0  0  0  0  0  0
   35.9930   28.3130   32.9820 C   0  0  0  0  0  0  0  0  0  0  0  0
   36.7660   28.1260   34.0580 N   0  0  0  0  0  0  0  0  0  0  0  0
   36.4670   29.0660   34.9210 N   0  0  0  0  0  0  0  0  0  0  0  0
   34.4930   29.7760   32.5090 H   0  0  0  0  0  0  0  0  0  0  0  0
   36.0070   27.6970   32.0970 H   0  0  0  0  0  0  0  0  0  0  0  0
   33.7260   31.6310   34.6340 C   0  0  0  0  0  0  0  0  0  0  0  0
   34.9210   31.0420   35.1270 C   0  0  0  0  0  0  0  0  0  0  0  0
   35.4760   31.6310   36.2430 C   0  0  0  0  0  0  0  0  0  0  0  0
   34.8750   32.7160   36.8080 N   0  0  0  0  0  0  0  0  0  0  0  0
   33.7320   33.2340   36.2920 C   0  0  0  0  0  0  0  0  0  0  0  0
   33.1370   32.6940   35.1870 N   0  0  0  0  0  0  0  0  0  0  0  0
   33.3120   31.1400   33.7530 H   0  0  0  0  0  0  0  0  0  0  0  0
   36.3810   31.2260   36.6570 H   0  0  0  0  0  0  0  0  0  0  0  0
   33.2160   34.0870   36.6980 H   0  0  0  0  0  0  0  0  0  0  0  0
   38.0980   24.7670   35.2970 C   0  0  0  0  0  0  0  0  0  0  0  0
   38.1530   23.8550   36.3250 C   0  0  0  0  0  0  0  0  0  0  0  0
   38.5610   22.6670   35.8080 N   0  0  0  0  0  0  0  0  0  0  0  0
   38.7630   22.8090   34.4800 C   0  0  0  0  0  0  0  0  0  0  0  0
   38.4780   24.0870   34.1830 N   0  0  0  0  0  0  0  0  0  0  0  0
   37.9260   24.0000   37.3700 H   0  0  0  0  0  0  0  0  0  0  0  0
   38.7220   21.7320   36.2790 H   0  0  0  0  0  0  0  0  0  0  0  0
   39.2100   21.7560   33.5260 C   0  0  0  0  0  0  0  0  0  0  0  0
   40.5880   21.4720   33.3550 C   0  0  0  0  0  0  0  0  0  0  0  0
   40.5550   20.1330   32.1070 S   0  0  0  0  0  0  0  0  0  0  0  0
   38.6480   20.1980   32.0400 C   0  0  0  0  0  0  0  0  0  0  0  0
   38.4230   21.0170   32.7850 N   0  0  0  0  0  0  0  0  0  0  0  0
   41.4040   21.9820   33.8830 H   0  0  0  0  0  0  0  0  0  0  0  0
   38.1900   19.2120   31.0970 N   0  0  0  0  0  0  0  0  0  0  0  0
   39.2320   18.5830   30.2760 C   0  0  0  0  0  2  0  0  0  0  0  0
   39.0320   19.2020   28.8880 C   0  0  0  0  0  2  0  0  0  0  0  0
   37.6870   18.7340   28.4190 C   0  0  0  0  0  3  0  0  0  0  0  0
   37.4810   19.1970   27.4310 H   0  0  0  0  0  0  0  0  0  0  0  0
   36.5930   19.1390   29.3480 C   0  0  0  0  0  2  0  0  0  0  0  0
   36.8640   18.7210   30.7920 C   0  0  0  0  0  2  0  0  0  0  0  0
  1  4  1  6  0  0  0
  1  3  1  0  0  0  0
  1  2  1  0  0  0  0
  2  6  1  0  0  0  0
  3  2  1  0  0  0  0
  3  7  1  1  0  0  0
  5  2  1  0  0  0  0
  8 12  2  0  0  0  0
  8 16  1  0  0  0  0
  9  8  1  0  0  0  0
 10  9  2  0  0  0  0
 10 11  1  0  0  0  0
 11  1  1  0  0  0  0
 11 12  1  0  0  0  0
 13  9  1  0  0  0  0
 14 10  1  0  0  0  0
 15 16  2  0  0  0  0
 15 20  1  0  0  0  0
 16 17  1  0  0  0  0
 17 22  1  0  0  0  0
 17 18  2  0  0  0  0
 19 23  1  0  0  0  0
 19 18  1  0  0  0  0
 20 19  2  0  0  0  0
 21 15  1  0  0  0  0
 24  3  1  0  0  0  0
 24 25  2  0  0  0  0
 25 29  1  0  0  0  0
 26 30  1  0  0  0  0
 26 25  1  0  0  0  0
 27 26  1  0  0  0  0
 28 27  2  0  0  0  0
 28 24  1  0  0  0  0
 31 27  1  0  0  0  0
 32 31  2  0  0  0  0
 32 36  1  0  0  0  0
 33 32  1  0  0  0  0
 34 33  1  0  0  0  0
 34 35  2  0  0  0  0
 35 31  1  0  0  0  0
 37 34  1  0  0  0  0
 38 37  1  0  0  0  0
 39 38  1  0  0  0  0
 40 39  1  0  0  0  0
 40 42  1  0  0  0  0
 41 40  1  0  0  0  0
 42 43  1  0  0  0  0
 43 37  1  0  0  0  0
M  END
>  <minimizedAffinity>
-5.68593979

$$$$

 OpenBabel03272500523D

 43 48  0  0  1  0  0  0  0  0999 V2000
   38.1640   26.6700   34.5850 C   0  0  1  0  0  0  0  0  0  0  0  0
   38.5960   27.2280   35.9900 C   0  0  0  0  0  0  0  0  0  0  0  0
   37.7470   26.0030   35.8160 C   0  0  2  0  0  0  0  0  0  0  0  0
   39.0020   26.2300   33.9900 H   0  0  0  0  0  0  0  0  0  0  0  0
   39.6780   27.0750   36.2280 H   0  0  0  0  0  0  0  0  0  0  0  0
   38.1560   28.1870   36.2930 H   0  0  0  0  0  0  0  0  0  0  0  0
   36.6890   26.1150   36.1440 H   0  0  0  0  0  0  0  0  0  0  0  0
   35.5450   28.8680   33.4720 C   0  0  0  0  0  0  0  0  0  0  0  0
   36.0820   28.4900   32.2630 C   0  0  0  0  0  0  0  0  0  0  0  0
   37.1460   27.6070   32.5110 C   0  0  0  0  0  0  0  0  0  0  0  0
   37.2200   27.4790   33.8410 N   0  0  0  0  0  0  0  0  0  0  0  0
   36.2740   28.2260   34.3570 N   0  0  0  0  0  0  0  0  0  0  0  0
   35.8440   28.7380   31.2310 H   0  0  0  0  0  0  0  0  0  0  0  0
   37.7960   27.1120   31.8070 H   0  0  0  0  0  0  0  0  0  0  0  0
   33.4210   29.8830   32.6080 C   0  0  0  0  0  0  0  0  0  0  0  0
   34.4360   29.7680   33.5960 C   0  0  0  0  0  0  0  0  0  0  0  0
   34.3040   30.5790   34.7040 C   0  0  0  0  0  0  0  0  0  0  0  0
   33.2410   31.4260   34.8010 N   0  0  0  0  0  0  0  0  0  0  0  0
   32.3010   31.4910   33.8240 C   0  0  0  0  0  0  0  0  0  0  0  0
   32.3800   30.7130   32.7040 N   0  0  0  0  0  0  0  0  0  0  0  0
   33.5550   29.2270   31.7480 H   0  0  0  0  0  0  0  0  0  0  0  0
   35.0440   30.5340   35.4810 H   0  0  0  0  0  0  0  0  0  0  0  0
   31.4430   32.1400   33.8510 H   0  0  0  0  0  0  0  0  0  0  0  0
   38.3200   24.6630   36.1740 C   0  0  0  0  0  0  0  0  0  0  0  0
   37.6790   23.6710   36.8790 C   0  0  0  0  0  0  0  0  0  0  0  0
   38.5260   22.6130   36.9760 N   0  0  0  0  0  0  0  0  0  0  0  0
   39.6840   22.9150   36.3480 C   0  0  0  0  0  0  0  0  0  0  0  0
   39.5460   24.1610   35.8670 N   0  0  0  0  0  0  0  0  0  0  0  0
   36.6860   23.6760   37.3020 H   0  0  0  0  0  0  0  0  0  0  0  0
   38.3960   21.6700   37.4400 H   0  0  0  0  0  0  0  0  0  0  0  0
   40.8800   22.0400   36.2120 C   0  0  0  0  0  0  0  0  0  0  0  0
   41.5200   21.5040   37.3580 C   0  0  0  0  0  0  0  0  0  0  0  0
   42.8860   20.5330   36.6190 S   0  0  0  0  0  0  0  0  0  0  0  0
   42.3360   21.0340   34.8620 C   0  0  0  0  0  0  0  0  0  0  0  0
   41.4400   21.6860   35.0820 N   0  0  0  0  0  0  0  0  0  0  0  0
   41.2050   21.6820   38.3930 H   0  0  0  0  0  0  0  0  0  0  0  0
   43.2270   20.4210   33.9120 N   0  0  0  0  0  0  0  0  0  0  0  0
   44.4210   19.7840   34.4780 C   0  0  0  0  0  2  0  0  0  0  0  0
   45.5610   20.7360   34.1000 C   0  0  0  0  0  2  0  0  0  0  0  0
   45.6480   20.7020   32.6050 C   0  0  0  0  0  3  0  0  0  0  0  0
   46.4360   21.4160   32.2830 H   0  0  0  0  0  0  0  0  0  0  0  0
   44.3700   21.1140   31.9560 C   0  0  0  0  0  2  0  0  0  0  0  0
   43.1690   20.3220   32.4700 C   0  0  0  0  0  2  0  0  0  0  0  0
  1  4  1  6  0  0  0
  1  3  1  0  0  0  0
  1  2  1  0  0  0  0
  2  5  1  0  0  0  0
  2  6  1  0  0  0  0
  3  2  1  0  0  0  0
  3  7  1  1  0  0  0
  3 24  1  0  0  0  0
  8 16  1  0  0  0  0
  8 12  2  0  0  0  0
  9 10  2  0  0  0  0
  9  8  1  0  0  0  0
 10 11  1  0  0  0  0
 11 12  1  0  0  0  0
 11  1  1  0  0  0  0
 13  9  1  0  0  0  0
 14 10  1  0  0  0  0
 15 20  2  0  0  0  0
 15 16  1  0  0  0  0
 16 17  2  0  0  0  0
 17 18  1  0  0  0  0
 17 22  1  0  0  0  0
 19 23  1  0  0  0  0
 19 18  2  0  0  0  0
 20 19  1  0  0  0  0
 21 15  1  0  0  0  0
 24 25  2  0  0  0  0
 25 26  1  0  0  0  0
 25 29  1  0  0  0  0
 26 30  1  0  0  0  0
 27 26  1  0  0  0  0
 28 24  1  0  0  0  0
 28 27  2  0  0  0  0
 31 27  1  0  0  0  0
 31 32  2  0  0  0  0
 32 36  1  0  0  0  0
 33 32  1  0  0  0  0
 34 35  2  0  0  0  0
 34 33  1  0  0  0  0
 35 31  1  0  0  0  0
 37 38  1  0  0  0  0
 37 34  1  0  0  0  0
 39 38  1  0  0  0  0
 40 39  1  0  0  0  0
 41 40  1  0  0  0  0
 42 43  1  0  0  0  0
 42 40  1  0  0  0  0
 43 37  1  0  0  0  0
M  END
>  <minimizedAffinity>
-5.68113756

$$$$

 OpenBabel03272500523D

 43 48  0  0  1  0  0  0  0  0999 V2000
   37.8480   26.1960   32.4220 C   0  0  1  0  0  0  0  0  0  0  0  0
   38.7890   26.5550   31.2150 C   0  0  0  0  0  0  0  0  0  0  0  0
   37.2920   26.6240   31.1410 C   0  0  2  0  0  0  0  0  0  0  0  0
   37.8860   26.9290   33.2650 H   0  0  0  0  0  0  0  0  0  0  0  0
   39.3430   27.5190   31.3400 H   0  0  0  0  0  0  0  0  0  0  0  0
   39.3430   25.7240   30.7610 H   0  0  0  0  0  0  0  0  0  0  0  0
   36.8180   25.8550   30.4890 H   0  0  0  0  0  0  0  0  0  0  0  0
   37.1740   22.6840   32.7970 C   0  0  0  0  0  0  0  0  0  0  0  0
   38.1510   22.8520   33.7500 C   0  0  0  0  0  0  0  0  0  0  0  0
   38.5440   24.2010   33.7450 C   0  0  0  0  0  0  0  0  0  0  0  0
   37.8060   24.7980   32.8030 N   0  0  0  0  0  0  0  0  0  0  0  0
   37.0270   23.8830   32.2800 N   0  0  0  0  0  0  0  0  0  0  0  0
   38.6340   22.1740   34.4520 H   0  0  0  0  0  0  0  0  0  0  0  0
   39.2840   24.6950   34.3550 H   0  0  0  0  0  0  0  0  0  0  0  0
   36.5160   20.8350   31.2370 C   0  0  0  0  0  0  0  0  0  0  0  0
   36.5420   21.4250   32.5280 C   0  0  0  0  0  0  0  0  0  0  0  0
   35.9200   20.7180   33.5350 C   0  0  0  0  0  0  0  0  0  0  0  0
   35.3270   19.5230   33.2580 N   0  0  0  0  0  0  0  0  0  0  0  0
   35.3340   19.0080   32.0020 C   0  0  0  0  0  0  0  0  0  0  0  0
   35.9340   19.6640   30.9650 N   0  0  0  0  0  0  0  0  0  0  0  0
   37.0180   21.4190   30.4650 H   0  0  0  0  0  0  0  0  0  0  0  0
   35.9090   21.1190   34.5320 H   0  0  0  0  0  0  0  0  0  0  0  0
   34.8820   18.0710   31.7280 H   0  0  0  0  0  0  0  0  0  0  0  0
   36.6290   27.9650   31.0210 C   0  0  0  0  0  0  0  0  0  0  0  0
   36.7430   28.8320   29.9590 C   0  0  0  0  0  0  0  0  0  0  0  0
   35.9790   29.9230   30.2270 N   0  0  0  0  0  0  0  0  0  0  0  0
   35.3850   29.7630   31.4300 C   0  0  0  0  0  0  0  0  0  0  0  0
   35.7880   28.5720   31.9010 N   0  0  0  0  0  0  0  0  0  0  0  0
   37.3200   28.7210   29.0540 H   0  0  0  0  0  0  0  0  0  0  0  0
   35.8080   30.7990   29.6570 H   0  0  0  0  0  0  0  0  0  0  0  0
   34.4620   30.7160   32.1050 C   0  0  0  0  0  0  0  0  0  0  0  0
   33.5660   31.5140   31.3510 C   0  0  0  0  0  0  0  0  0  0  0  0
   32.7000   32.4620   32.6560 S   0  0  0  0  0  0  0  0  0  0  0  0
   33.7230   31.5930   34.0130 C   0  0  0  0  0  0  0  0  0  0  0  0
   34.3790   30.9080   33.3980 N   0  0  0  0  0  0  0  0  0  0  0  0
   33.4820   31.5000   30.2570 H   0  0  0  0  0  0  0  0  0  0  0  0
   33.3070   32.1000   35.2940 N   0  0  0  0  0  0  0  0  0  0  0  0
   32.4170   33.2660   35.2600 C   0  0  0  0  0  2  0  0  0  0  0  0
   33.3130   34.4270   35.7070 C   0  0  0  0  0  2  0  0  0  0  0  0
   33.6850   34.1350   37.1290 C   0  0  0  0  0  3  0  0  0  0  0  0
   34.3730   34.9320   37.4820 H   0  0  0  0  0  0  0  0  0  0  0  0
   34.3920   32.8290   37.2710 C   0  0  0  0  0  2  0  0  0  0  0  0
   33.6190   31.6720   36.6410 C   0  0  0  0  0  2  0  0  0  0  0  0
  1 11  1  0  0  0  0
  1  4  1  1  0  0  0
  2  5  1  0  0  0  0
  2  1  1  0  0  0  0
  3  7  1  6  0  0  0
  3  2  1  0  0  0  0
  3  1  1  0  0  0  0
  6  2  1  0  0  0  0
  8  9  1  0  0  0  0
  9 13  1  0  0  0  0
 10  9  2  0  0  0  0
 10 14  1  0  0  0  0
 11 10  1  0  0  0  0
 12  8  2  0  0  0  0
 12 11  1  0  0  0  0
 15 16  1  0  0  0  0
 16  8  1  0  0  0  0
 16 17  2  0  0  0  0
 17 22  1  0  0  0  0
 18 17  1  0  0  0  0
 19 18  2  0  0  0  0
 20 15  2  0  0  0  0
 20 19  1  0  0  0  0
 21 15  1  0  0  0  0
 23 19  1  0  0  0  0
 24  3  1  0  0  0  0
 24 28  1  0  0  0  0
 25 26  1  0  0  0  0
 25 24  2  0  0  0  0
 26 27  1  0  0  0  0
 27 28  2  0  0  0  0
 27 31  1  0  0  0  0
 29 25  1  0  0  0  0
 30 26  1  0  0  0  0
 31 35  1  0  0  0  0
 32 31  2  0  0  0  0
 32 33  1  0  0  0  0
 33 34  1  0  0  0  0
 34 37  1  0  0  0  0
 35 34  2  0  0  0  0
 36 32  1  0  0  0  0
 37 43  1  0  0  0  0
 38 37  1  0  0  0  0
 38 39  1  0  0  0  0
 39 40  1  0  0  0  0
 40 42  1  0  0  0  0
 40 41  1  0  0  0  0
 43 42  1  0  0  0  0
M  END
>  <minimizedAffinity>
-5.66850519

$$$$
