
 OpenBabel03262521143D

 29 31  0  0  0  0  0  0  0  0999 V2000
   38.3790   26.3600   33.5610 O   0  0  0  0  0  0  0  0  0  0  0  0
   37.5850   25.4140   32.9090 C   0  0  0  0  0  0  0  0  0  0  0  0
   36.5290   25.5930   32.0310 C   0  0  0  0  0  0  0  0  0  0  0  0
   36.0560   24.4110   31.6480 N   0  0  0  0  0  0  0  0  0  0  0  0
   36.7760   23.4620   32.2530 C   0  0  0  0  0  0  0  0  0  0  0  0
   37.7060   24.0600   33.0200 N   0  0  0  0  0  0  0  0  0  0  0  0
   36.2370   26.6140   31.7820 H   0  0  0  0  0  0  0  0  0  0  0  0
   35.2560   24.2850   30.9840 H   0  0  0  0  0  0  0  0  0  0  0  0
   36.6170   22.0570   32.1310 N   0  0  0  0  0  0  0  0  0  0  0  0
   36.9450   21.1350   33.2010 C   0  0  0  0  0  2  0  0  0  0  0  0
   35.6540   20.4830   33.6440 C   0  0  0  0  0  2  0  0  0  0  0  0
   34.9490   19.8790   32.4780 C   0  0  0  0  0  3  0  0  0  0  0  0
   33.8720   20.1990   32.4380 H   0  0  0  0  0  0  0  0  0  0  0  0
   35.6210   20.0420   31.1570 C   0  0  0  0  0  2  0  0  0  0  0  0
   36.1120   21.4530   30.9140 C   0  0  0  0  0  2  0  0  0  0  0  0
   36.8180   27.8990   34.9060 O   0  0  0  0  0  0  0  0  0  0  0  0
   37.8640   26.8340   35.1110 P   0  0  2  0  0  0  0  0  0  0  0  0
   39.1690   27.4090   36.0270 O   0  0  0  0  0  0  0  0  0  0  0  0
   39.5720   26.6860   36.5690 H   0  0  0  0  0  0  0  0  0  0  0  0
   37.2340   25.4710   35.9400 O   0  0  0  0  0  0  0  0  0  0  0  0
   38.0440   24.6270   36.6930 C   0  0  0  0  0  0  0  0  0  0  0  0
   37.8490   24.2670   38.0260 C   0  0  0  0  0  0  0  0  0  0  0  0
   38.7760   23.4100   38.5950 C   0  0  0  0  0  0  0  0  0  0  0  0
   39.8230   22.9520   37.8710 N   0  0  0  0  0  0  0  0  0  0  0  0
   39.9870   23.3260   36.5620 C   0  0  0  0  0  0  0  0  0  0  0  0
   39.0930   24.1620   35.9850 N   0  0  0  0  0  0  0  0  0  0  0  0
   36.9840   24.6910   38.4970 H   0  0  0  0  0  0  0  0  0  0  0  0
   38.6120   23.1380   39.6320 H   0  0  0  0  0  0  0  0  0  0  0  0
   40.8340   22.9470   36.0000 H   0  0  0  0  0  0  0  0  0  0  0  0
  1 17  1  0  0  0  0
  2  6  1  0  0  0  0
  2  1  1  0  0  0  0
  3  2  2  0  0  0  0
  4  3  1  0  0  0  0
  4  5  1  0  0  0  0
  5  6  2  0  0  0  0
  7  3  1  0  0  0  0
  8  4  1  0  0  0  0
  9  5  1  0  0  0  0
  9 10  1  0  0  0  0
 10 11  1  0  0  0  0
 12 11  1  0  0  0  0
 13 12  1  0  0  0  0
 14 12  1  0  0  0  0
 15 14  1  0  0  0  0
 15  9  1  0  0  0  0
 17 16  2  6  0  0  0
 17 20  1  0  0  0  0
 17 18  1  0  0  0  0
 18 19  1  0  0  0  0
 20 21  1  0  0  0  0
 21 22  1  0  0  0  0
 22 27  1  0  0  0  0
 22 23  2  0  0  0  0
 23 28  1  0  0  0  0
 24 23  1  0  0  0  0
 25 24  2  0  0  0  0
 26 25  1  0  0  0  0
 26 21  2  0  0  0  0
 29 25  1  0  0  0  0
M  END
>  <minimizedAffinity>
-5.85465097

$$$$

 OpenBabel03262521143D

 29 31  0  0  0  0  0  0  0  0999 V2000
   36.8100   27.2270   32.8990 O   0  0  0  0  0  0  0  0  0  0  0  0
   37.3320   26.8440   34.1350 C   0  0  0  0  0  0  0  0  0  0  0  0
   37.9180   27.6110   35.1290 C   0  0  0  0  0  0  0  0  0  0  0  0
   38.2770   26.8330   36.1460 N   0  0  0  0  0  0  0  0  0  0  0  0
   37.9400   25.5770   35.8440 C   0  0  0  0  0  0  0  0  0  0  0  0
   37.3660   25.5720   34.6260 N   0  0  0  0  0  0  0  0  0  0  0  0
   38.0060   28.6850   34.9620 H   0  0  0  0  0  0  0  0  0  0  0  0
   38.7400   27.1830   37.0180 H   0  0  0  0  0  0  0  0  0  0  0  0
   38.1370   24.4210   36.6430 N   0  0  0  0  0  0  0  0  0  0  0  0
   38.3470   23.1020   36.0780 C   0  0  0  0  0  2  0  0  0  0  0  0
   39.7490   22.6720   36.4460 C   0  0  0  0  0  2  0  0  0  0  0  0
   39.9550   22.7730   37.9190 C   0  0  0  0  0  3  0  0  0  0  0  0
   40.8930   23.3390   38.1650 H   0  0  0  0  0  0  0  0  0  0  0  0
   38.7890   23.2690   38.7050 C   0  0  0  0  0  2  0  0  0  0  0  0
   38.1400   24.4910   38.0910 C   0  0  0  0  0  2  0  0  0  0  0  0
   38.8780   27.9380   31.5460 O   0  0  0  0  0  0  0  0  0  0  0  0
   37.7810   26.9050   31.5390 P   0  0  2  0  0  0  0  0  0  0  0  0
   36.8640   26.9780   30.1160 O   0  0  0  0  0  0  0  0  0  0  0  0
   36.5190   26.0850   29.8660 H   0  0  0  0  0  0  0  0  0  0  0  0
   38.4040   25.3110   31.6530 O   0  0  0  0  0  0  0  0  0  0  0  0
   37.6000   24.1910   31.4620 C   0  0  0  0  0  0  0  0  0  0  0  0
   38.0390   22.8780   31.2980 C   0  0  0  0  0  0  0  0  0  0  0  0
   37.0720   21.9020   31.1190 C   0  0  0  0  0  0  0  0  0  0  0  0
   35.7600   22.2300   31.1060 N   0  0  0  0  0  0  0  0  0  0  0  0
   35.3610   23.5330   31.2690 C   0  0  0  0  0  0  0  0  0  0  0  0
   36.2880   24.5020   31.4460 N   0  0  0  0  0  0  0  0  0  0  0  0
   39.1020   22.7390   31.3270 H   0  0  0  0  0  0  0  0  0  0  0  0
   37.4270   20.8850   30.9940 H   0  0  0  0  0  0  0  0  0  0  0  0
   34.3040   23.7730   31.2550 H   0  0  0  0  0  0  0  0  0  0  0  0
  1  2  1  0  0  0  0
  2  6  1  0  0  0  0
  2  3  2  0  0  0  0
  3  4  1  0  0  0  0
  4  8  1  0  0  0  0
  5  4  1  0  0  0  0
  5  9  1  0  0  0  0
  6  5  2  0  0  0  0
  7  3  1  0  0  0  0
  9 15  1  0  0  0  0
 10 11  1  0  0  0  0
 10  9  1  0  0  0  0
 11 12  1  0  0  0  0
 12 13  1  0  0  0  0
 12 14  1  0  0  0  0
 15 14  1  0  0  0  0
 17 16  2  6  0  0  0
 17 20  1  0  0  0  0
 17  1  1  0  0  0  0
 18 17  1  0  0  0  0
 19 18  1  0  0  0  0
 21 20  1  0  0  0  0
 22 27  1  0  0  0  0
 22 21  2  0  0  0  0
 23 22  1  0  0  0  0
 24 23  2  0  0  0  0
 24 25  1  0  0  0  0
 25 26  2  0  0  0  0
 26 21  1  0  0  0  0
 28 23  1  0  0  0  0
 29 25  1  0  0  0  0
M  END
>  <minimizedAffinity>
-5.23005152

$$$$

 OpenBabel03262521143D

 29 31  0  0  0  0  0  0  0  0999 V2000
   37.7700   27.1060   32.1280 O   0  0  0  0  0  0  0  0  0  0  0  0
   37.8400   26.7230   33.4690 C   0  0  0  0  0  0  0  0  0  0  0  0
   37.7410   27.4890   34.6190 C   0  0  0  0  0  0  0  0  0  0  0  0
   37.8650   26.7110   35.6900 N   0  0  0  0  0  0  0  0  0  0  0  0
   38.0420   25.4560   35.2710 C   0  0  0  0  0  0  0  0  0  0  0  0
   38.0290   25.4520   33.9250 N   0  0  0  0  0  0  0  0  0  0  0  0
   37.5850   28.5630   34.5070 H   0  0  0  0  0  0  0  0  0  0  0  0
   37.8240   27.0600   36.6770 H   0  0  0  0  0  0  0  0  0  0  0  0
   38.2180   24.3000   36.0760 N   0  0  0  0  0  0  0  0  0  0  0  0
   38.9940   23.1540   35.6450 C   0  0  0  0  0  2  0  0  0  0  0  0
   40.1920   23.0510   36.5630 C   0  0  0  0  0  2  0  0  0  0  0  0
   39.7560   23.0240   37.9870 C   0  0  0  0  0  3  0  0  0  0  0  0
   40.3200   23.7760   38.6040 H   0  0  0  0  0  0  0  0  0  0  0  0
   38.2860   23.1130   38.2180 C   0  0  0  0  0  2  0  0  0  0  0  0
   37.6230   24.1960   37.3940 C   0  0  0  0  0  2  0  0  0  0  0  0
   35.7370   25.6350   31.5680 O   0  0  0  0  0  0  0  0  0  0  0  0
   36.2300   27.0500   31.4090 P   0  0  2  0  0  0  0  0  0  0  0  0
   36.3120   27.5030   29.7790 O   0  0  0  0  0  0  0  0  0  0  0  0
   36.1400   28.4700   29.6660 H   0  0  0  0  0  0  0  0  0  0  0  0
   35.1990   28.1770   32.1900 O   0  0  0  0  0  0  0  0  0  0  0  0
   35.5400   29.5190   32.3210 C   0  0  0  0  0  0  0  0  0  0  0  0
   35.3490   30.3150   33.4500 C   0  0  0  0  0  0  0  0  0  0  0  0
   35.7600   31.6360   33.3740 C   0  0  0  0  0  0  0  0  0  0  0  0
   36.3210   32.1170   32.2410 N   0  0  0  0  0  0  0  0  0  0  0  0
   36.4940   31.3080   31.1470 C   0  0  0  0  0  0  0  0  0  0  0  0
   36.1010   30.0150   31.1980 N   0  0  0  0  0  0  0  0  0  0  0  0
   34.8950   29.8240   34.2890 H   0  0  0  0  0  0  0  0  0  0  0  0
   35.6050   32.2430   34.2600 H   0  0  0  0  0  0  0  0  0  0  0  0
   36.9460   31.7140   30.2490 H   0  0  0  0  0  0  0  0  0  0  0  0
  1  2  1  0  0  0  0
  2  6  1  0  0  0  0
  2  3  2  0  0  0  0
  3  4  1  0  0  0  0
  4  8  1  0  0  0  0
  5  4  1  0  0  0  0
  5  9  1  0  0  0  0
  6  5  2  0  0  0  0
  7  3  1  0  0  0  0
  9 15  1  0  0  0  0
 10  9  1  0  0  0  0
 10 11  1  0  0  0  0
 11 12  1  0  0  0  0
 12 14  1  0  0  0  0
 12 13  1  0  0  0  0
 15 14  1  0  0  0  0
 17 16  2  1  0  0  0
 17  1  1  0  0  0  0
 17 20  1  0  0  0  0
 18 17  1  0  0  0  0
 19 18  1  0  0  0  0
 20 21  1  0  0  0  0
 21 22  1  0  0  0  0
 22 27  1  0  0  0  0
 23 22  2  0  0  0  0
 23 28  1  0  0  0  0
 24 23  1  0  0  0  0
 25 26  1  0  0  0  0
 25 24  2  0  0  0  0
 26 21  2  0  0  0  0
 29 25  1  0  0  0  0
M  END
>  <minimizedAffinity>
-5.20494461

$$$$

 OpenBabel03262521143D

 29 31  0  0  0  0  0  0  0  0999 V2000
   37.9020   24.5760   37.0590 O   0  0  0  0  0  0  0  0  0  0  0  0
   38.0210   25.5310   36.0480 C   0  0  0  0  0  0  0  0  0  0  0  0
   38.4100   26.8590   36.1200 C   0  0  0  0  0  0  0  0  0  0  0  0
   38.3810   27.4040   34.9070 N   0  0  0  0  0  0  0  0  0  0  0  0
   37.9830   26.4660   34.0430 C   0  0  0  0  0  0  0  0  0  0  0  0
   37.7620   25.3270   34.7250 N   0  0  0  0  0  0  0  0  0  0  0  0
   38.6730   27.2630   37.0980 H   0  0  0  0  0  0  0  0  0  0  0  0
   38.6340   28.3990   34.7040 H   0  0  0  0  0  0  0  0  0  0  0  0
   37.8110   26.6100   32.6420 N   0  0  0  0  0  0  0  0  0  0  0  0
   36.8390   25.8440   31.8870 C   0  0  0  0  0  2  0  0  0  0  0  0
   35.8160   26.8190   31.3510 C   0  0  0  0  0  2  0  0  0  0  0  0
   36.4860   27.9150   30.5950 C   0  0  0  0  0  3  0  0  0  0  0  0
   36.1330   28.9250   30.9370 H   0  0  0  0  0  0  0  0  0  0  0  0
   37.9740   27.8430   30.5310 C   0  0  0  0  0  2  0  0  0  0  0  0
   38.6090   27.5440   31.8720 C   0  0  0  0  0  2  0  0  0  0  0  0
   38.1430   22.1920   36.1270 O   0  0  0  0  0  0  0  0  0  0  0  0
   38.9100   23.2120   36.9270 P   0  0  2  0  0  0  0  0  0  0  0  0
   39.3230   22.6210   38.4600 O   0  0  0  0  0  0  0  0  0  0  0  0
   40.1770   23.0080   38.7750 H   0  0  0  0  0  0  0  0  0  0  0  0
   40.3730   23.6620   36.1530 O   0  0  0  0  0  0  0  0  0  0  0  0
   41.5250   22.8880   36.2490 C   0  0  0  0  0  0  0  0  0  0  0  0
   42.8230   23.2940   35.9380 C   0  0  0  0  0  0  0  0  0  0  0  0
   43.8360   22.3650   36.1030 C   0  0  0  0  0  0  0  0  0  0  0  0
   43.5590   21.1180   36.5480 N   0  0  0  0  0  0  0  0  0  0  0  0
   42.2720   20.7490   36.8450 C   0  0  0  0  0  0  0  0  0  0  0  0
   41.2660   21.6400   36.6920 N   0  0  0  0  0  0  0  0  0  0  0  0
   42.9200   24.3060   35.5950 H   0  0  0  0  0  0  0  0  0  0  0  0
   44.8400   22.6940   35.8580 H   0  0  0  0  0  0  0  0  0  0  0  0
   42.0730   19.7440   37.2000 H   0  0  0  0  0  0  0  0  0  0  0  0
  2  3  2  0  0  0  0
  2  1  1  0  0  0  0
  3  7  1  0  0  0  0
  4  3  1  0  0  0  0
  5  6  2  0  0  0  0
  5  4  1  0  0  0  0
  6  2  1  0  0  0  0
  8  4  1  0  0  0  0
  9  5  1  0  0  0  0
 10  9  1  0  0  0  0
 11 10  1  0  0  0  0
 12 13  1  0  0  0  0
 12 11  1  0  0  0  0
 14 12  1  0  0  0  0
 14 15  1  0  0  0  0
 15  9  1  0  0  0  0
 17 16  2  6  0  0  0
 17  1  1  0  0  0  0
 17 18  1  0  0  0  0
 18 19  1  0  0  0  0
 20 21  1  0  0  0  0
 20 17  1  0  0  0  0
 21 26  1  0  0  0  0
 22 23  1  0  0  0  0
 22 21  2  0  0  0  0
 23 24  2  0  0  0  0
 24 25  1  0  0  0  0
 25 29  1  0  0  0  0
 26 25  2  0  0  0  0
 27 22  1  0  0  0  0
 28 23  1  0  0  0  0
M  END
>  <minimizedAffinity>
-5.19786358

$$$$

 OpenBabel03262521143D

 29 31  0  0  0  0  0  0  0  0999 V2000
   35.2440   27.9590   31.9570 O   0  0  0  0  0  0  0  0  0  0  0  0
   34.6300   28.9170   32.7660 C   0  0  0  0  0  0  0  0  0  0  0  0
   33.3860   29.5160   32.6470 C   0  0  0  0  0  0  0  0  0  0  0  0
   33.2050   30.3780   33.6430 N   0  0  0  0  0  0  0  0  0  0  0  0
   34.2970   30.3580   34.4110 C   0  0  0  0  0  0  0  0  0  0  0  0
   35.1680   29.4750   33.8880 N   0  0  0  0  0  0  0  0  0  0  0  0
   32.7560   29.2260   31.8060 H   0  0  0  0  0  0  0  0  0  0  0  0
   32.3400   30.9550   33.7710 H   0  0  0  0  0  0  0  0  0  0  0  0
   34.5350   31.1210   35.5840 N   0  0  0  0  0  0  0  0  0  0  0  0
   35.8620   31.5360   35.9960 C   0  0  0  0  0  2  0  0  0  0  0  0
   35.9070   33.0450   35.9150 C   0  0  0  0  0  2  0  0  0  0  0  0
   34.7850   33.6420   36.6930 C   0  0  0  0  0  3  0  0  0  0  0  0
   34.2190   34.3970   36.0830 H   0  0  0  0  0  0  0  0  0  0  0  0
   33.8680   32.6730   37.3590 C   0  0  0  0  0  2  0  0  0  0  0  0
   33.4500   31.5360   36.4510 C   0  0  0  0  0  2  0  0  0  0  0  0
   36.5100   29.9880   31.0110 O   0  0  0  0  0  0  0  0  0  0  0  0
   36.5900   28.4840   31.0590 P   0  0  2  0  0  0  0  0  0  0  0  0
   36.5740   27.8090   29.5050 O   0  0  0  0  0  0  0  0  0  0  0  0
   37.0970   26.9700   29.4730 H   0  0  0  0  0  0  0  0  0  0  0  0
   38.0260   27.9450   31.8240 O   0  0  0  0  0  0  0  0  0  0  0  0
   38.0100   26.9770   32.8240 C   0  0  0  0  0  0  0  0  0  0  0  0
   37.9480   27.2070   34.1980 C   0  0  0  0  0  0  0  0  0  0  0  0
   37.9420   26.0990   35.0290 C   0  0  0  0  0  0  0  0  0  0  0  0
   37.9950   24.8510   34.5100 N   0  0  0  0  0  0  0  0  0  0  0  0
   38.0560   24.6580   33.1530 C   0  0  0  0  0  0  0  0  0  0  0  0
   38.0630   25.7250   32.3220 N   0  0  0  0  0  0  0  0  0  0  0  0
   37.9080   28.2380   34.4910 H   0  0  0  0  0  0  0  0  0  0  0  0
   37.8930   26.2930   36.0950 H   0  0  0  0  0  0  0  0  0  0  0  0
   38.0980   23.6490   32.7590 H   0  0  0  0  0  0  0  0  0  0  0  0
  1  2  1  0  0  0  0
  2  6  1  0  0  0  0
  3  2  2  0  0  0  0
  3  4  1  0  0  0  0
  4  8  1  0  0  0  0
  4  5  1  0  0  0  0
  5  9  1  0  0  0  0
  6  5  2  0  0  0  0
  7  3  1  0  0  0  0
  9 10  1  0  0  0  0
  9 15  1  0  0  0  0
 11 10  1  0  0  0  0
 11 12  1  0  0  0  0
 12 14  1  0  0  0  0
 13 12  1  0  0  0  0
 15 14  1  0  0  0  0
 17 16  2  6  0  0  0
 17 20  1  0  0  0  0
 17  1  1  0  0  0  0
 18 17  1  0  0  0  0
 19 18  1  0  0  0  0
 20 21  1  0  0  0  0
 21 22  1  0  0  0  0
 22 27  1  0  0  0  0
 22 23  2  0  0  0  0
 23 28  1  0  0  0  0
 24 23  1  0  0  0  0
 25 24  2  0  0  0  0
 26 21  2  0  0  0  0
 26 25  1  0  0  0  0
 29 25  1  0  0  0  0
M  END
>  <minimizedAffinity>
-5.08880281

$$$$

 OpenBabel03262521143D

 29 31  0  0  0  0  0  0  0  0999 V2000
   36.7000   27.7190   33.2730 O   0  0  0  0  0  0  0  0  0  0  0  0
   37.2530   27.2230   34.4560 C   0  0  0  0  0  0  0  0  0  0  0  0
   37.8810   27.8940   35.4920 C   0  0  0  0  0  0  0  0  0  0  0  0
   38.2570   27.0260   36.4280 N   0  0  0  0  0  0  0  0  0  0  0  0
   37.8890   25.8050   36.0300 C   0  0  0  0  0  0  0  0  0  0  0  0
   37.2790   25.9140   34.8350 N   0  0  0  0  0  0  0  0  0  0  0  0
   37.9830   28.9770   35.4150 H   0  0  0  0  0  0  0  0  0  0  0  0
   38.7530   27.2930   37.3100 H   0  0  0  0  0  0  0  0  0  0  0  0
   38.0900   24.5820   36.7210 N   0  0  0  0  0  0  0  0  0  0  0  0
   38.2590   23.3140   36.0400 C   0  0  0  0  0  2  0  0  0  0  0  0
   39.6640   22.8330   36.3250 C   0  0  0  0  0  2  0  0  0  0  0  0
   39.9160   22.8040   37.7940 C   0  0  0  0  0  3  0  0  0  0  0  0
   40.8720   23.3330   38.0570 H   0  0  0  0  0  0  0  0  0  0  0  0
   38.7840   23.2490   38.6560 C   0  0  0  0  0  2  0  0  0  0  0  0
   38.1380   24.5280   38.1690 C   0  0  0  0  0  2  0  0  0  0  0  0
   36.4010   27.5920   30.7220 O   0  0  0  0  0  0  0  0  0  0  0  0
   37.2010   26.9630   31.8340 P   0  0  2  0  0  0  0  0  0  0  0  0
   36.9480   25.2900   31.9150 O   0  0  0  0  0  0  0  0  0  0  0  0
   37.7560   24.8210   32.2400 H   0  0  0  0  0  0  0  0  0  0  0  0
   38.8860   27.2050   31.6240 O   0  0  0  0  0  0  0  0  0  0  0  0
   39.8240   26.6270   32.4730 C   0  0  0  0  0  0  0  0  0  0  0  0
   40.7330   27.3050   33.2860 C   0  0  0  0  0  0  0  0  0  0  0  0
   41.5880   26.5380   34.0600 C   0  0  0  0  0  0  0  0  0  0  0  0
   41.5300   25.1880   34.0160 N   0  0  0  0  0  0  0  0  0  0  0  0
   40.6250   24.5510   33.2050 C   0  0  0  0  0  0  0  0  0  0  0  0
   39.7800   25.2790   32.4410 N   0  0  0  0  0  0  0  0  0  0  0  0
   40.6850   28.3760   33.2380 H   0  0  0  0  0  0  0  0  0  0  0  0
   42.2890   27.0780   34.6880 H   0  0  0  0  0  0  0  0  0  0  0  0
   40.5960   23.4670   33.1860 H   0  0  0  0  0  0  0  0  0  0  0  0
  1  2  1  0  0  0  0
  2  6  1  0  0  0  0
  2  3  2  0  0  0  0
  3  4  1  0  0  0  0
  4  8  1  0  0  0  0
  5  4  1  0  0  0  0
  5  9  1  0  0  0  0
  6  5  2  0  0  0  0
  7  3  1  0  0  0  0
  9 15  1  0  0  0  0
 10 11  1  0  0  0  0
 10  9  1  0  0  0  0
 11 12  1  0  0  0  0
 12 13  1  0  0  0  0
 12 14  1  0  0  0  0
 15 14  1  0  0  0  0
 17 16  2  6  0  0  0
 17 18  1  0  0  0  0
 17  1  1  0  0  0  0
 18 19  1  0  0  0  0
 20 17  1  0  0  0  0
 20 21  1  0  0  0  0
 21 22  1  0  0  0  0
 22 23  2  0  0  0  0
 23 28  1  0  0  0  0
 24 23  1  0  0  0  0
 25 24  2  0  0  0  0
 26 21  2  0  0  0  0
 26 25  1  0  0  0  0
 27 22  1  0  0  0  0
 29 25  1  0  0  0  0
M  END
>  <minimizedAffinity>
-5.07721806

$$$$

 OpenBabel03262521143D

 29 31  0  0  0  0  0  0  0  0999 V2000
   35.5940   29.5100   31.2660 O   0  0  0  0  0  0  0  0  0  0  0  0
   34.9650   29.5800   32.5110 C   0  0  0  0  0  0  0  0  0  0  0  0
   35.5080   29.7550   33.7730 C   0  0  0  0  0  0  0  0  0  0  0  0
   34.5390   29.7610   34.6840 N   0  0  0  0  0  0  0  0  0  0  0  0
   33.3750   29.5950   34.0490 C   0  0  0  0  0  0  0  0  0  0  0  0
   33.6220   29.4840   32.7310 N   0  0  0  0  0  0  0  0  0  0  0  0
   36.5900   29.8570   33.8550 H   0  0  0  0  0  0  0  0  0  0  0  0
   34.7000   29.8790   35.7110 H   0  0  0  0  0  0  0  0  0  0  0  0
   32.0820   29.5400   34.6320 N   0  0  0  0  0  0  0  0  0  0  0  0
   30.9940   28.7730   34.0570 C   0  0  0  0  0  2  0  0  0  0  0  0
   30.6560   27.6700   35.0350 C   0  0  0  0  0  2  0  0  0  0  0  0
   30.3890   28.2370   36.3870 C   0  0  0  0  0  3  0  0  0  0  0  0
   30.9800   27.7030   37.1800 H   0  0  0  0  0  0  0  0  0  0  0  0
   30.5160   29.7170   36.5070 C   0  0  0  0  0  2  0  0  0  0  0  0
   31.7680   30.2580   35.8510 C   0  0  0  0  0  2  0  0  0  0  0  0
   37.7820   28.2360   31.7150 O   0  0  0  0  0  0  0  0  0  0  0  0
   36.4890   28.0970   30.9540 P   0  0  2  0  0  0  0  0  0  0  0  0
   36.7590   27.9130   29.2920 O   0  0  0  0  0  0  0  0  0  0  0  0
   36.0570   27.3540   28.8750 H   0  0  0  0  0  0  0  0  0  0  0  0
   35.5890   26.7310   31.4690 O   0  0  0  0  0  0  0  0  0  0  0  0
   36.0450   25.4320   31.2740 C   0  0  0  0  0  0  0  0  0  0  0  0
   35.3150   24.2600   31.4710 C   0  0  0  0  0  0  0  0  0  0  0  0
   35.9590   23.0600   31.2180 C   0  0  0  0  0  0  0  0  0  0  0  0
   37.2440   23.0450   30.7980 N   0  0  0  0  0  0  0  0  0  0  0  0
   37.9360   24.2150   30.6140 C   0  0  0  0  0  0  0  0  0  0  0  0
   37.3270   25.3990   30.8540 N   0  0  0  0  0  0  0  0  0  0  0  0
   34.3050   24.3970   31.8050 H   0  0  0  0  0  0  0  0  0  0  0  0
   35.3790   22.1570   31.3750 H   0  0  0  0  0  0  0  0  0  0  0  0
   38.9650   24.1800   30.2770 H   0  0  0  0  0  0  0  0  0  0  0  0
  1  2  1  0  0  0  0
  2  6  1  0  0  0  0
  2  3  2  0  0  0  0
  3  7  1  0  0  0  0
  3  4  1  0  0  0  0
  4  8  1  0  0  0  0
  5  9  1  0  0  0  0
  5  4  1  0  0  0  0
  6  5  2  0  0  0  0
  9 15  1  0  0  0  0
 10  9  1  0  0  0  0
 10 11  1  0  0  0  0
 11 12  1  0  0  0  0
 12 14  1  0  0  0  0
 12 13  1  0  0  0  0
 15 14  1  0  0  0  0
 17  1  1  0  0  0  0
 17 20  1  0  0  0  0
 17 16  2  1  0  0  0
 18 17  1  0  0  0  0
 19 18  1  0  0  0  0
 21 20  1  0  0  0  0
 21 22  1  0  0  0  0
 22 27  1  0  0  0  0
 23 28  1  0  0  0  0
 23 22  2  0  0  0  0
 24 23  1  0  0  0  0
 25 24  2  0  0  0  0
 25 26  1  0  0  0  0
 26 21  2  0  0  0  0
 29 25  1  0  0  0  0
M  END
>  <minimizedAffinity>
-5.07142496

$$$$

 OpenBabel03262521143D

 29 31  0  0  0  0  0  0  0  0999 V2000
   37.4710   26.3310   32.7430 O   0  0  0  0  0  0  0  0  0  0  0  0
   36.8590   25.1900   32.2210 C   0  0  0  0  0  0  0  0  0  0  0  0
   35.8460   25.0760   31.2810 C   0  0  0  0  0  0  0  0  0  0  0  0
   35.5660   23.7930   31.0750 N   0  0  0  0  0  0  0  0  0  0  0  0
   36.3700   23.0640   31.8550 C   0  0  0  0  0  0  0  0  0  0  0  0
   37.1580   23.9020   32.5530 N   0  0  0  0  0  0  0  0  0  0  0  0
   35.4340   25.9930   30.8590 H   0  0  0  0  0  0  0  0  0  0  0  0
   34.8350   23.4510   30.4080 H   0  0  0  0  0  0  0  0  0  0  0  0
   36.4140   21.6490   31.9550 N   0  0  0  0  0  0  0  0  0  0  0  0
   36.7950   20.9600   33.1720 C   0  0  0  0  0  2  0  0  0  0  0  0
   35.5810   20.2030   33.6610 C   0  0  0  0  0  2  0  0  0  0  0  0
   35.0420   19.3300   32.5790 C   0  0  0  0  0  3  0  0  0  0  0  0
   33.9360   19.4800   32.4440 H   0  0  0  0  0  0  0  0  0  0  0  0
   35.7690   19.3840   31.2780 C   0  0  0  0  0  2  0  0  0  0  0  0
   36.0750   20.7980   30.8310 C   0  0  0  0  0  2  0  0  0  0  0  0
   39.7350   27.4940   32.3750 O   0  0  0  0  0  0  0  0  0  0  0  0
   39.1540   26.2410   32.9770 P   0  0  2  0  0  0  0  0  0  0  0  0
   39.7870   24.8480   32.2500 O   0  0  0  0  0  0  0  0  0  0  0  0
   39.8310   24.0970   32.8920 H   0  0  0  0  0  0  0  0  0  0  0  0
   39.4860   26.1240   34.6550 O   0  0  0  0  0  0  0  0  0  0  0  0
   38.9800   25.0910   35.4370 C   0  0  0  0  0  0  0  0  0  0  0  0
   38.0160   25.2070   36.4380 C   0  0  0  0  0  0  0  0  0  0  0  0
   37.6460   24.0500   37.1030 C   0  0  0  0  0  0  0  0  0  0  0  0
   38.2100   22.8630   36.7800 N   0  0  0  0  0  0  0  0  0  0  0  0
   39.1560   22.7820   35.7900 C   0  0  0  0  0  0  0  0  0  0  0  0
   39.5320   23.9000   35.1280 N   0  0  0  0  0  0  0  0  0  0  0  0
   37.6400   26.1990   36.6050 H   0  0  0  0  0  0  0  0  0  0  0  0
   36.8960   24.1550   37.8780 H   0  0  0  0  0  0  0  0  0  0  0  0
   39.5940   21.8210   35.5490 H   0  0  0  0  0  0  0  0  0  0  0  0
  1 17  1  0  0  0  0
  2  6  1  0  0  0  0
  2  1  1  0  0  0  0
  3  2  2  0  0  0  0
  4  3  1  0  0  0  0
  4  5  1  0  0  0  0
  5  9  1  0  0  0  0
  5  6  2  0  0  0  0
  7  3  1  0  0  0  0
  8  4  1  0  0  0  0
  9 10  1  0  0  0  0
 10 11  1  0  0  0  0
 12 11  1  0  0  0  0
 13 12  1  0  0  0  0
 14 12  1  0  0  0  0
 15 14  1  0  0  0  0
 15  9  1  0  0  0  0
 17 16  2  6  0  0  0
 17 20  1  0  0  0  0
 18 19  1  0  0  0  0
 18 17  1  0  0  0  0
 20 21  1  0  0  0  0
 21 22  1  0  0  0  0
 22 27  1  0  0  0  0
 22 23  2  0  0  0  0
 23 28  1  0  0  0  0
 24 23  1  0  0  0  0
 25 24  2  0  0  0  0
 26 21  2  0  0  0  0
 26 25  1  0  0  0  0
 29 25  1  0  0  0  0
M  END
>  <minimizedAffinity>
-5.06828928

$$$$

 OpenBabel03262521143D

 29 31  0  0  0  0  0  0  0  0999 V2000
   36.6910   27.3070   34.0000 O   0  0  0  0  0  0  0  0  0  0  0  0
   36.8100   27.4480   32.6160 C   0  0  0  0  0  0  0  0  0  0  0  0
   35.8690   27.2500   31.6190 C   0  0  0  0  0  0  0  0  0  0  0  0
   36.4130   27.5000   30.4310 N   0  0  0  0  0  0  0  0  0  0  0  0
   37.6850   27.8570   30.6260 C   0  0  0  0  0  0  0  0  0  0  0  0
   37.9360   27.8290   31.9480 N   0  0  0  0  0  0  0  0  0  0  0  0
   34.8680   26.9340   31.9140 H   0  0  0  0  0  0  0  0  0  0  0  0
   35.9000   27.4200   29.5220 H   0  0  0  0  0  0  0  0  0  0  0  0
   38.6370   28.2120   29.6350 N   0  0  0  0  0  0  0  0  0  0  0  0
   40.0590   27.9800   29.7940 C   0  0  0  0  0  2  0  0  0  0  0  0
   40.4700   26.9680   28.7490 C   0  0  0  0  0  2  0  0  0  0  0  0
   40.0470   27.4190   27.3930 C   0  0  0  0  0  3  0  0  0  0  0  0
   39.4920   26.6100   26.8450 H   0  0  0  0  0  0  0  0  0  0  0  0
   39.3210   28.7200   27.3380 C   0  0  0  0  0  2  0  0  0  0  0  0
   38.2380   28.8360   28.3890 C   0  0  0  0  0  2  0  0  0  0  0  0
   38.7280   27.5140   35.5570 O   0  0  0  0  0  0  0  0  0  0  0  0
   37.9540   26.4780   34.7830 P   0  0  2  0  0  0  0  0  0  0  0  0
   38.9350   25.6780   33.6570 O   0  0  0  0  0  0  0  0  0  0  0  0
   38.6370   24.7440   33.5210 H   0  0  0  0  0  0  0  0  0  0  0  0
   37.2900   25.2760   35.8110 O   0  0  0  0  0  0  0  0  0  0  0  0
   38.0910   24.4710   36.6150 C   0  0  0  0  0  0  0  0  0  0  0  0
   37.9190   24.2310   37.9780 C   0  0  0  0  0  0  0  0  0  0  0  0
   38.8310   23.3930   38.5960 C   0  0  0  0  0  0  0  0  0  0  0  0
   39.8440   22.8400   37.8910 N   0  0  0  0  0  0  0  0  0  0  0  0
   39.9870   23.0960   36.5500 C   0  0  0  0  0  0  0  0  0  0  0  0
   39.1060   23.9110   35.9250 N   0  0  0  0  0  0  0  0  0  0  0  0
   37.0800   24.7240   38.4310 H   0  0  0  0  0  0  0  0  0  0  0  0
   38.6850   23.2150   39.6560 H   0  0  0  0  0  0  0  0  0  0  0  0
   40.8050   22.6410   36.0040 H   0  0  0  0  0  0  0  0  0  0  0  0
  1 17  1  0  0  0  0
  2  1  1  0  0  0  0
  3  7  1  0  0  0  0
  3  2  2  0  0  0  0
  4  5  1  0  0  0  0
  4  3  1  0  0  0  0
  5  6  2  0  0  0  0
  6  2  1  0  0  0  0
  8  4  1  0  0  0  0
  9 10  1  0  0  0  0
  9  5  1  0  0  0  0
 11 10  1  0  0  0  0
 12 11  1  0  0  0  0
 13 12  1  0  0  0  0
 14 12  1  0  0  0  0
 14 15  1  0  0  0  0
 15  9  1  0  0  0  0
 17 16  2  1  0  0  0
 17 20  1  0  0  0  0
 18 17  1  0  0  0  0
 19 18  1  0  0  0  0
 20 21  1  0  0  0  0
 21 22  1  0  0  0  0
 22 27  1  0  0  0  0
 22 23  2  0  0  0  0
 23 28  1  0  0  0  0
 24 23  1  0  0  0  0
 25 24  2  0  0  0  0
 26 25  1  0  0  0  0
 26 21  2  0  0  0  0
 29 25  1  0  0  0  0
M  END
>  <minimizedAffinity>
-5.03969193

$$$$
