
 OpenBabel03272509103D

 38 41  0  0  0  0  0  0  0  0999 V2000
   34.7220   29.5110   34.2260 C   0  0  0  0  0  0  0  0  0  0  0  0
   34.8450   29.9890   33.2100 H   0  0  0  0  0  0  0  0  0  0  0  0
   33.7940   28.9200   34.1900 H   0  0  0  0  0  0  0  0  0  0  0  0
   34.6570   30.6380   35.1970 C   0  0  0  0  0  0  0  0  0  0  0  0
   35.6990   31.4840   35.5260 C   0  0  0  0  0  0  0  0  0  0  0  0
   35.5290   32.4990   36.4400 C   0  0  0  0  0  0  0  0  0  0  0  0
   34.3100   32.7070   37.0620 C   0  0  0  0  0  0  0  0  0  0  0  0
   33.2670   31.8710   36.7430 C   0  0  0  0  0  0  0  0  0  0  0  0
   33.4450   30.8520   35.8220 C   0  0  0  0  0  0  0  0  0  0  0  0
   36.6260   31.2550   34.9930 H   0  0  0  0  0  0  0  0  0  0  0  0
   36.4200   33.0970   36.6150 H   0  0  0  0  0  0  0  0  0  0  0  0
   34.2570   33.5170   37.7610 H   0  0  0  0  0  0  0  0  0  0  0  0
   32.3550   32.1060   37.2750 H   0  0  0  0  0  0  0  0  0  0  0  0
   32.2260   30.1050   35.6450 N   0  0  0  0  0  0  0  0  0  0  0  0
   31.3090   30.0270   34.5240 C   0  0  0  0  0  2  0  0  0  0  0  0
   31.0470   28.5740   34.1110 C   0  0  0  0  0  2  0  0  0  0  0  0
   30.6230   27.7160   35.2630 C   0  0  0  0  0  3  0  0  0  0  0  0
   30.6840   26.6690   34.9270 H   0  0  0  0  0  0  0  0  0  0  0  0
   31.5900   27.8460   36.4210 C   0  0  0  0  0  2  0  0  0  0  0  0
   31.8370   29.2920   36.7810 C   0  0  0  0  0  2  0  0  0  0  0  0
   36.5180   27.9070   33.5190 C   0  0  0  0  0  3  0  0  0  0  0  0
   35.9000   28.6410   34.4100 C   0  0  0  0  0  3  0  0  0  0  0  0
   39.9110   26.6140   33.8810 C   0  0  0  0  0  0  0  0  0  0  0  0
   39.7280   25.5970   34.8420 C   0  0  0  0  0  0  0  0  0  0  0  0
   38.4360   25.3820   35.3390 C   0  0  0  0  0  0  0  0  0  0  0  0
   37.4140   26.1730   34.8660 N   0  0  0  0  0  0  0  0  0  0  0  0
   37.6720   27.1350   33.9370 C   0  0  0  0  0  0  0  0  0  0  0  0
   38.8880   27.3520   33.4560 N   0  0  0  0  0  0  0  0  0  0  0  0
   40.9050   26.7850   33.4940 H   0  0  0  0  0  0  0  0  0  0  0  0
   40.5170   24.9850   35.2100 H   0  0  0  0  0  0  0  0  0  0  0  0
   38.1150   24.3550   36.3360 C   0  0  0  0  0  0  0  0  0  0  0  0
   38.0860   24.6020   37.6830 C   0  0  0  0  0  0  0  0  0  0  0  0
   37.7440   23.4150   38.3210 C   0  0  0  0  0  0  0  0  0  0  0  0
   37.5780   22.4880   37.3320 N   0  0  0  0  0  0  0  0  0  0  0  0
   37.8010   23.0610   36.1530 N   0  0  0  0  0  0  0  0  0  0  0  0
   38.2890   25.5450   38.1590 H   0  0  0  0  0  0  0  0  0  0  0  0
   37.6240   23.2250   39.3790 H   0  0  0  0  0  0  0  0  0  0  0  0
   37.3130   21.4680   37.4680 H   0  0  0  0  0  0  0  0  0  0  0  0
  1 22  1  0  0  0  0
  1  4  1  0  0  0  0
  2  1  1  0  0  0  0
  3  1  1  0  0  0  0
  4  5  2  0  0  0  0
  4  9  1  0  0  0  0
  5  6  1  0  0  0  0
  6 11  1  0  0  0  0
  6  7  2  0  0  0  0
  7 12  1  0  0  0  0
  8  7  1  0  0  0  0
  8 13  1  0  0  0  0
  9  8  2  0  0  0  0
 10  5  1  0  0  0  0
 14  9  1  0  0  0  0
 14 20  1  0  0  0  0
 15 14  1  0  0  0  0
 16 15  1  0  0  0  0
 16 17  1  0  0  0  0
 17 19  1  0  0  0  0
 18 17  1  0  0  0  0
 19 20  1  0  0  0  0
 21 27  1  0  0  0  0
 21 22  2  0  0  0  0
 23 24  1  0  0  0  0
 24 30  1  0  0  0  0
 24 25  2  0  0  0  0
 25 31  1  0  0  0  0
 26 25  1  0  0  0  0
 27 26  2  0  0  0  0
 28 23  2  0  0  0  0
 28 27  1  0  0  0  0
 29 23  1  0  0  0  0
 31 32  1  0  0  0  0
 32 36  1  0  0  0  0
 32 33  2  0  0  0  0
 33 37  1  0  0  0  0
 34 38  1  0  0  0  0
 34 33  1  0  0  0  0
 35 31  2  0  0  0  0
 35 34  1  0  0  0  0
M  END
>  <minimizedAffinity>
-6.58128881

$$$$

 OpenBabel03272509103D

 38 41  0  0  0  0  0  0  0  0999 V2000
   35.4060   29.2380   32.8650 C   0  0  0  0  0  0  0  0  0  0  0  0
   34.5180   28.8810   32.2640 H   0  0  0  0  0  0  0  0  0  0  0  0
   35.0160   29.5920   33.8310 H   0  0  0  0  0  0  0  0  0  0  0  0
   36.0290   30.3230   32.0550 C   0  0  0  0  0  0  0  0  0  0  0  0
   36.7080   30.1560   30.8650 C   0  0  0  0  0  0  0  0  0  0  0  0
   37.2470   31.2320   30.1960 C   0  0  0  0  0  0  0  0  0  0  0  0
   37.1270   32.5170   30.6940 C   0  0  0  0  0  0  0  0  0  0  0  0
   36.4530   32.6960   31.8790 C   0  0  0  0  0  0  0  0  0  0  0  0
   35.9130   31.6080   32.5450 C   0  0  0  0  0  0  0  0  0  0  0  0
   36.7600   29.1120   30.5400 H   0  0  0  0  0  0  0  0  0  0  0  0
   37.7570   30.9740   29.2720 H   0  0  0  0  0  0  0  0  0  0  0  0
   37.5730   33.3020   30.1160 H   0  0  0  0  0  0  0  0  0  0  0  0
   36.4070   33.7300   32.1910 H   0  0  0  0  0  0  0  0  0  0  0  0
   35.2580   32.0280   33.7580 N   0  0  0  0  0  0  0  0  0  0  0  0
   33.8520   32.1910   34.0740 C   0  0  0  0  0  2  0  0  0  0  0  0
   33.4700   31.4310   35.3490 C   0  0  0  0  0  2  0  0  0  0  0  0
   34.3620   31.7590   36.5050 C   0  0  0  0  0  3  0  0  0  0  0  0
   34.1650   31.0110   37.2890 H   0  0  0  0  0  0  0  0  0  0  0  0
   35.8200   31.6010   36.1270 C   0  0  0  0  0  2  0  0  0  0  0  0
   36.1500   32.3470   34.8560 C   0  0  0  0  0  2  0  0  0  0  0  0
   36.8400   27.6190   34.1380 C   0  0  0  0  0  3  0  0  0  0  0  0
   36.2770   28.0590   33.0410 C   0  0  0  0  0  3  0  0  0  0  0  0
   38.9310   24.8840   32.9290 C   0  0  0  0  0  0  0  0  0  0  0  0
   39.1640   24.1570   34.1160 C   0  0  0  0  0  0  0  0  0  0  0  0
   38.5910   24.6290   35.3040 C   0  0  0  0  0  0  0  0  0  0  0  0
   37.8320   25.7760   35.2520 N   0  0  0  0  0  0  0  0  0  0  0  0
   37.6540   26.4210   34.0660 C   0  0  0  0  0  0  0  0  0  0  0  0
   38.1890   25.9890   32.9330 N   0  0  0  0  0  0  0  0  0  0  0  0
   39.3710   24.5250   32.0100 H   0  0  0  0  0  0  0  0  0  0  0  0
   39.7510   23.2710   34.1580 H   0  0  0  0  0  0  0  0  0  0  0  0
   38.7550   23.9630   36.6000 C   0  0  0  0  0  0  0  0  0  0  0  0
   38.0140   24.2850   37.7070 C   0  0  0  0  0  0  0  0  0  0  0  0
   38.4270   23.4590   38.7450 C   0  0  0  0  0  0  0  0  0  0  0  0
   39.4090   22.6620   38.2270 N   0  0  0  0  0  0  0  0  0  0  0  0
   39.5940   22.9720   36.9480 N   0  0  0  0  0  0  0  0  0  0  0  0
   37.2500   25.0410   37.7600 H   0  0  0  0  0  0  0  0  0  0  0  0
   38.0700   23.4240   39.7650 H   0  0  0  0  0  0  0  0  0  0  0  0
   39.9460   21.9100   38.7510 H   0  0  0  0  0  0  0  0  0  0  0  0
  1 22  1  0  0  0  0
  1  3  1  0  0  0  0
  2  1  1  0  0  0  0
  4  9  1  0  0  0  0
  4  1  1  0  0  0  0
  5  4  2  0  0  0  0
  6  7  2  0  0  0  0
  6  5  1  0  0  0  0
  7  8  1  0  0  0  0
  8 13  1  0  0  0  0
  8  9  2  0  0  0  0
  9 14  1  0  0  0  0
 10  5  1  0  0  0  0
 11  6  1  0  0  0  0
 12  7  1  0  0  0  0
 14 15  1  0  0  0  0
 14 20  1  0  0  0  0
 15 16  1  0  0  0  0
 16 17  1  0  0  0  0
 17 18  1  0  0  0  0
 19 17  1  0  0  0  0
 20 19  1  0  0  0  0
 22 21  2  0  0  0  0
 23 28  2  0  0  0  0
 23 24  1  0  0  0  0
 24 30  1  0  0  0  0
 24 25  2  0  0  0  0
 25 31  1  0  0  0  0
 26 25  1  0  0  0  0
 27 21  1  0  0  0  0
 27 26  2  0  0  0  0
 28 27  1  0  0  0  0
 29 23  1  0  0  0  0
 31 35  2  0  0  0  0
 31 32  1  0  0  0  0
 32 36  1  0  0  0  0
 32 33  2  0  0  0  0
 33 37  1  0  0  0  0
 34 33  1  0  0  0  0
 34 38  1  0  0  0  0
 35 34  1  0  0  0  0
M  END
>  <minimizedAffinity>
-6.23614979

$$$$

 OpenBabel03272509103D

 38 41  0  0  0  0  0  0  0  0999 V2000
   35.5800   29.7970   34.5460 C   0  0  0  0  0  0  0  0  0  0  0  0
   34.6970   29.6750   35.2390 H   0  0  0  0  0  0  0  0  0  0  0  0
   36.3050   30.4430   35.0640 H   0  0  0  0  0  0  0  0  0  0  0  0
   35.0350   30.4130   33.3040 C   0  0  0  0  0  0  0  0  0  0  0  0
   35.7660   30.7650   32.1870 C   0  0  0  0  0  0  0  0  0  0  0  0
   35.1590   31.3310   31.0880 C   0  0  0  0  0  0  0  0  0  0  0  0
   33.7950   31.5660   31.0660 C   0  0  0  0  0  0  0  0  0  0  0  0
   33.0570   31.2190   32.1720 C   0  0  0  0  0  0  0  0  0  0  0  0
   33.6750   30.6510   33.2730 C   0  0  0  0  0  0  0  0  0  0  0  0
   36.8340   30.5480   32.2830 H   0  0  0  0  0  0  0  0  0  0  0  0
   35.8380   31.5640   30.2730 H   0  0  0  0  0  0  0  0  0  0  0  0
   33.3970   32.0090   30.1750 H   0  0  0  0  0  0  0  0  0  0  0  0
   32.0040   31.4380   32.0670 H   0  0  0  0  0  0  0  0  0  0  0  0
   32.7150   30.3730   34.3100 N   0  0  0  0  0  0  0  0  0  0  0  0
   31.9370   29.1820   34.5960 C   0  0  0  0  0  2  0  0  0  0  0  0
   32.1010   28.7390   36.0540 C   0  0  0  0  0  2  0  0  0  0  0  0
   31.8360   29.8460   37.0260 C   0  0  0  0  0  3  0  0  0  0  0  0
   32.1980   29.5080   38.0100 H   0  0  0  0  0  0  0  0  0  0  0  0
   32.6460   31.0780   36.6780 C   0  0  0  0  0  2  0  0  0  0  0  0
   32.4730   31.4680   35.2300 C   0  0  0  0  0  2  0  0  0  0  0  0
   37.0630   27.8290   35.0190 C   0  0  0  0  0  3  0  0  0  0  0  0
   36.1250   28.4410   34.3420 C   0  0  0  0  0  3  0  0  0  0  0  0
   37.5850   24.7590   33.1170 C   0  0  0  0  0  0  0  0  0  0  0  0
   38.1840   23.9230   34.0830 C   0  0  0  0  0  0  0  0  0  0  0  0
   38.3910   24.4400   35.3680 C   0  0  0  0  0  0  0  0  0  0  0  0
   38.0000   25.7350   35.6220 N   0  0  0  0  0  0  0  0  0  0  0  0
   37.4280   26.4790   34.6350 C   0  0  0  0  0  0  0  0  0  0  0  0
   37.2250   26.0060   33.4130 N   0  0  0  0  0  0  0  0  0  0  0  0
   37.4230   24.3660   32.1230 H   0  0  0  0  0  0  0  0  0  0  0  0
   38.4870   22.9220   33.8890 H   0  0  0  0  0  0  0  0  0  0  0  0
   38.9990   23.6720   36.4600 C   0  0  0  0  0  0  0  0  0  0  0  0
   40.2110   23.0430   36.3480 C   0  0  0  0  0  0  0  0  0  0  0  0
   40.4760   22.4230   37.5630 C   0  0  0  0  0  0  0  0  0  0  0  0
   39.4100   22.7000   38.3710 N   0  0  0  0  0  0  0  0  0  0  0  0
   38.5370   23.4460   37.7020 N   0  0  0  0  0  0  0  0  0  0  0  0
   40.8420   23.0330   35.4770 H   0  0  0  0  0  0  0  0  0  0  0  0
   41.3370   21.8340   37.8490 H   0  0  0  0  0  0  0  0  0  0  0  0
   39.2850   22.3780   39.3750 H   0  0  0  0  0  0  0  0  0  0  0  0
  1  3  1  0  0  0  0
  1  2  1  0  0  0  0
  4  1  1  0  0  0  0
  5 10  1  0  0  0  0
  5  4  2  0  0  0  0
  6  5  1  0  0  0  0
  7  6  2  0  0  0  0
  7  8  1  0  0  0  0
  8  9  2  0  0  0  0
  9  4  1  0  0  0  0
  9 14  1  0  0  0  0
 11  6  1  0  0  0  0
 12  7  1  0  0  0  0
 13  8  1  0  0  0  0
 14 15  1  0  0  0  0
 14 20  1  0  0  0  0
 15 16  1  0  0  0  0
 16 17  1  0  0  0  0
 17 18  1  0  0  0  0
 19 17  1  0  0  0  0
 20 19  1  0  0  0  0
 22  1  1  0  0  0  0
 22 21  2  0  0  0  0
 23 28  2  0  0  0  0
 23 24  1  0  0  0  0
 24 25  2  0  0  0  0
 25 26  1  0  0  0  0
 25 31  1  0  0  0  0
 27 21  1  0  0  0  0
 27 26  2  0  0  0  0
 28 27  1  0  0  0  0
 29 23  1  0  0  0  0
 30 24  1  0  0  0  0
 31 35  2  0  0  0  0
 32 31  1  0  0  0  0
 32 33  2  0  0  0  0
 33 37  1  0  0  0  0
 33 34  1  0  0  0  0
 34 38  1  0  0  0  0
 35 34  1  0  0  0  0
 36 32  1  0  0  0  0
M  END
>  <minimizedAffinity>
-6.14677858

$$$$

 OpenBabel03272509103D

 38 41  0  0  0  0  0  0  0  0999 V2000
   38.0450   24.5640   32.9130 C   0  0  0  0  0  0  0  0  0  0  0  0
   38.8600   24.5900   32.1310 H   0  0  0  0  0  0  0  0  0  0  0  0
   38.5440   24.4790   33.8900 H   0  0  0  0  0  0  0  0  0  0  0  0
   37.2060   23.3780   32.5820 C   0  0  0  0  0  0  0  0  0  0  0  0
   36.3350   23.2760   31.5150 C   0  0  0  0  0  0  0  0  0  0  0  0
   35.6050   22.1290   31.3000 C   0  0  0  0  0  0  0  0  0  0  0  0
   35.7190   21.0390   32.1460 C   0  0  0  0  0  0  0  0  0  0  0  0
   36.5840   21.1290   33.2100 C   0  0  0  0  0  0  0  0  0  0  0  0
   37.3150   22.2870   33.4200 C   0  0  0  0  0  0  0  0  0  0  0  0
   36.3020   24.1780   30.8970 H   0  0  0  0  0  0  0  0  0  0  0  0
   34.9550   22.1690   30.4310 H   0  0  0  0  0  0  0  0  0  0  0  0
   35.1190   20.1820   31.9120 H   0  0  0  0  0  0  0  0  0  0  0  0
   36.6100   20.2330   33.8160 H   0  0  0  0  0  0  0  0  0  0  0  0
   38.1480   22.1590   34.5880 N   0  0  0  0  0  0  0  0  0  0  0  0
   39.5920   22.1360   34.7310 C   0  0  0  0  0  2  0  0  0  0  0  0
   40.0710   23.1600   35.7660 C   0  0  0  0  0  2  0  0  0  0  0  0
   39.3590   23.0300   37.0770 C   0  0  0  0  0  3  0  0  0  0  0  0
   39.5940   23.9320   37.6650 H   0  0  0  0  0  0  0  0  0  0  0  0
   37.8570   23.0320   36.8820 C   0  0  0  0  0  2  0  0  0  0  0  0
   37.4300   22.0250   35.8410 C   0  0  0  0  0  2  0  0  0  0  0  0
   37.3400   26.8700   33.6100 C   0  0  0  0  0  3  0  0  0  0  0  0
   37.3260   25.8480   32.7920 C   0  0  0  0  0  3  0  0  0  0  0  0
   35.4750   29.4130   31.7760 C   0  0  0  0  0  0  0  0  0  0  0  0
   35.0610   30.2700   32.8180 C   0  0  0  0  0  0  0  0  0  0  0  0
   35.4390   29.9490   34.1280 C   0  0  0  0  0  0  0  0  0  0  0  0
   36.1930   28.8160   34.3310 N   0  0  0  0  0  0  0  0  0  0  0  0
   36.5530   28.0390   33.2710 C   0  0  0  0  0  0  0  0  0  0  0  0
   36.2040   28.3280   32.0260 N   0  0  0  0  0  0  0  0  0  0  0  0
   35.1860   29.6550   30.7630 H   0  0  0  0  0  0  0  0  0  0  0  0
   34.4780   31.1470   32.6630 H   0  0  0  0  0  0  0  0  0  0  0  0
   35.0770   30.7600   35.2950 C   0  0  0  0  0  0  0  0  0  0  0  0
   33.7830   30.9490   35.7030 C   0  0  0  0  0  0  0  0  0  0  0  0
   33.8120   31.7590   36.8330 C   0  0  0  0  0  0  0  0  0  0  0  0
   35.1300   32.0330   37.0690 N   0  0  0  0  0  0  0  0  0  0  0  0
   35.8730   31.4320   36.1450 N   0  0  0  0  0  0  0  0  0  0  0  0
   32.9050   30.5430   35.2340 H   0  0  0  0  0  0  0  0  0  0  0  0
   32.9850   32.1190   37.4290 H   0  0  0  0  0  0  0  0  0  0  0  0
   35.5140   32.6290   37.8590 H   0  0  0  0  0  0  0  0  0  0  0  0
  1  3  1  0  0  0  0
  2  1  1  0  0  0  0
  4  1  1  0  0  0  0
  4  9  1  0  0  0  0
  5  4  2  0  0  0  0
  6  5  1  0  0  0  0
  6  7  2  0  0  0  0
  7  8  1  0  0  0  0
  8  9  2  0  0  0  0
  8 13  1  0  0  0  0
  9 14  1  0  0  0  0
 10  5  1  0  0  0  0
 11  6  1  0  0  0  0
 12  7  1  0  0  0  0
 14 15  1  0  0  0  0
 14 20  1  0  0  0  0
 15 16  1  0  0  0  0
 16 17  1  0  0  0  0
 17 18  1  0  0  0  0
 19 17  1  0  0  0  0
 20 19  1  0  0  0  0
 22  1  1  0  0  0  0
 22 21  2  0  0  0  0
 23 28  2  0  0  0  0
 23 24  1  0  0  0  0
 24 25  2  0  0  0  0
 25 26  1  0  0  0  0
 25 31  1  0  0  0  0
 27 21  1  0  0  0  0
 27 26  2  0  0  0  0
 28 27  1  0  0  0  0
 29 23  1  0  0  0  0
 30 24  1  0  0  0  0
 31 32  1  0  0  0  0
 31 35  2  0  0  0  0
 32 33  2  0  0  0  0
 33 34  1  0  0  0  0
 33 37  1  0  0  0  0
 34 38  1  0  0  0  0
 35 34  1  0  0  0  0
 36 32  1  0  0  0  0
M  END
>  <minimizedAffinity>
-6.12895203

$$$$

 OpenBabel03272509103D

 38 41  0  0  0  0  0  0  0  0999 V2000
   38.6120   25.6910   32.6240 C   0  0  0  0  0  0  0  0  0  0  0  0
   38.5980   26.8100   32.7740 H   0  0  0  0  0  0  0  0  0  0  0  0
   39.4660   25.4690   31.9670 H   0  0  0  0  0  0  0  0  0  0  0  0
   37.2990   25.3500   32.0090 C   0  0  0  0  0  0  0  0  0  0  0  0
   36.8660   24.0810   31.6780 C   0  0  0  0  0  0  0  0  0  0  0  0
   35.6280   23.8780   31.1110 C   0  0  0  0  0  0  0  0  0  0  0  0
   34.7750   24.9370   30.8540 C   0  0  0  0  0  0  0  0  0  0  0  0
   35.1970   26.2050   31.1790 C   0  0  0  0  0  0  0  0  0  0  0  0
   36.4430   26.4010   31.7490 C   0  0  0  0  0  0  0  0  0  0  0  0
   37.5950   23.3010   31.9120 H   0  0  0  0  0  0  0  0  0  0  0  0
   35.4000   22.8380   30.8960 H   0  0  0  0  0  0  0  0  0  0  0  0
   33.8290   24.6990   30.4120 H   0  0  0  0  0  0  0  0  0  0  0  0
   34.4680   26.9690   30.9440 H   0  0  0  0  0  0  0  0  0  0  0  0
   36.6730   27.8000   32.0030 N   0  0  0  0  0  0  0  0  0  0  0  0
   37.2300   28.8430   31.1620 C   0  0  0  0  0  2  0  0  0  0  0  0
   36.3050   30.0630   31.0910 C   0  0  0  0  0  2  0  0  0  0  0  0
   35.9090   30.5660   32.4450 C   0  0  0  0  0  3  0  0  0  0  0  0
   35.0800   31.2760   32.2980 H   0  0  0  0  0  0  0  0  0  0  0  0
   35.3570   29.4430   33.3000 C   0  0  0  0  0  2  0  0  0  0  0  0
   36.2880   28.2540   33.3260 C   0  0  0  0  0  2  0  0  0  0  0  0
   37.9680   25.0780   34.9710 C   0  0  0  0  0  3  0  0  0  0  0  0
   38.8060   25.1050   33.9650 C   0  0  0  0  0  3  0  0  0  0  0  0
   38.2240   24.0460   38.4620 C   0  0  0  0  0  0  0  0  0  0  0  0
   39.2820   23.1150   38.4080 C   0  0  0  0  0  0  0  0  0  0  0  0
   39.8830   22.8690   37.1660 C   0  0  0  0  0  0  0  0  0  0  0  0
   39.4100   23.5460   36.0650 N   0  0  0  0  0  0  0  0  0  0  0  0
   38.3830   24.4300   36.2000 C   0  0  0  0  0  0  0  0  0  0  0  0
   37.8030   24.6750   37.3670 N   0  0  0  0  0  0  0  0  0  0  0  0
   37.7560   24.2410   39.4160 H   0  0  0  0  0  0  0  0  0  0  0  0
   39.6490   22.5900   39.2570 H   0  0  0  0  0  0  0  0  0  0  0  0
   40.9930   21.9290   36.9790 C   0  0  0  0  0  0  0  0  0  0  0  0
   41.6690   21.7950   35.7950 C   0  0  0  0  0  0  0  0  0  0  0  0
   42.6510   20.8280   35.9780 C   0  0  0  0  0  0  0  0  0  0  0  0
   42.5330   20.4080   37.2720 N   0  0  0  0  0  0  0  0  0  0  0  0
   41.5410   21.0720   37.8580 N   0  0  0  0  0  0  0  0  0  0  0  0
   41.4760   22.3410   34.8890 H   0  0  0  0  0  0  0  0  0  0  0  0
   43.3770   20.4570   35.2670 H   0  0  0  0  0  0  0  0  0  0  0  0
   43.1300   19.6700   37.7480 H   0  0  0  0  0  0  0  0  0  0  0  0
  1  2  1  0  0  0  0
  1 22  1  0  0  0  0
  3  1  1  0  0  0  0
  4  1  1  0  0  0  0
  5 10  1  0  0  0  0
  5  4  2  0  0  0  0
  6  5  1  0  0  0  0
  7  6  2  0  0  0  0
  7  8  1  0  0  0  0
  8  9  2  0  0  0  0
  9 14  1  0  0  0  0
  9  4  1  0  0  0  0
 11  6  1  0  0  0  0
 12  7  1  0  0  0  0
 13  8  1  0  0  0  0
 14 20  1  0  0  0  0
 15 14  1  0  0  0  0
 16 15  1  0  0  0  0
 16 17  1  0  0  0  0
 17 19  1  0  0  0  0
 18 17  1  0  0  0  0
 19 20  1  0  0  0  0
 21 27  1  0  0  0  0
 22 21  2  0  0  0  0
 23 29  1  0  0  0  0
 24 23  1  0  0  0  0
 24 30  1  0  0  0  0
 25 24  2  0  0  0  0
 26 27  2  0  0  0  0
 26 25  1  0  0  0  0
 27 28  1  0  0  0  0
 28 23  2  0  0  0  0
 31 25  1  0  0  0  0
 31 35  2  0  0  0  0
 32 33  2  0  0  0  0
 32 31  1  0  0  0  0
 33 34  1  0  0  0  0
 34 38  1  0  0  0  0
 34 35  1  0  0  0  0
 36 32  1  0  0  0  0
 37 33  1  0  0  0  0
M  END
>  <minimizedAffinity>
-5.93465948

$$$$

 OpenBabel03272509103D

 38 41  0  0  0  0  0  0  0  0999 V2000
   38.8740   26.6660   35.1730 C   0  0  0  0  0  0  0  0  0  0  0  0
   39.3350   26.3050   34.2070 H   0  0  0  0  0  0  0  0  0  0  0  0
   39.6480   27.2450   35.6980 H   0  0  0  0  0  0  0  0  0  0  0  0
   38.4670   25.4360   35.9090 C   0  0  0  0  0  0  0  0  0  0  0  0
   38.1140   25.3700   37.2430 C   0  0  0  0  0  0  0  0  0  0  0  0
   37.7530   24.1760   37.8250 C   0  0  0  0  0  0  0  0  0  0  0  0
   37.7320   23.0010   37.0940 C   0  0  0  0  0  0  0  0  0  0  0  0
   38.0810   23.0540   35.7660 C   0  0  0  0  0  0  0  0  0  0  0  0
   38.4430   24.2590   35.1870 C   0  0  0  0  0  0  0  0  0  0  0  0
   38.1570   26.3390   37.7490 H   0  0  0  0  0  0  0  0  0  0  0  0
   37.4970   24.2520   38.8780 H   0  0  0  0  0  0  0  0  0  0  0  0
   37.4400   22.1120   37.6170 H   0  0  0  0  0  0  0  0  0  0  0  0
   38.0360   22.0920   35.2740 H   0  0  0  0  0  0  0  0  0  0  0  0
   38.7700   24.0790   33.7960 N   0  0  0  0  0  0  0  0  0  0  0  0
   37.9370   24.1120   32.6090 C   0  0  0  0  0  2  0  0  0  0  0  0
   38.4980   25.0730   31.5540 C   0  0  0  0  0  2  0  0  0  0  0  0
   39.9370   24.8070   31.2400 C   0  0  0  0  0  3  0  0  0  0  0  0
   40.3090   25.6700   30.6650 H   0  0  0  0  0  0  0  0  0  0  0  0
   40.7670   24.7540   32.5060 C   0  0  0  0  0  2  0  0  0  0  0  0
   40.1700   23.8140   33.5250 C   0  0  0  0  0  2  0  0  0  0  0  0
   37.1680   27.6390   33.6110 C   0  0  0  0  0  3  0  0  0  0  0  0
   37.7380   27.5240   34.7840 C   0  0  0  0  0  3  0  0  0  0  0  0
   34.2880   29.4600   32.3050 C   0  0  0  0  0  0  0  0  0  0  0  0
   33.9750   30.3120   33.3860 C   0  0  0  0  0  0  0  0  0  0  0  0
   34.7680   30.2370   34.5380 C   0  0  0  0  0  0  0  0  0  0  0  0
   35.8100   29.3380   34.5570 N   0  0  0  0  0  0  0  0  0  0  0  0
   36.0480   28.5500   33.4720 C   0  0  0  0  0  0  0  0  0  0  0  0
   35.3080   28.6070   32.3740 N   0  0  0  0  0  0  0  0  0  0  0  0
   33.6800   29.5120   31.4140 H   0  0  0  0  0  0  0  0  0  0  0  0
   33.1700   31.0070   33.3730 H   0  0  0  0  0  0  0  0  0  0  0  0
   34.5490   31.0700   35.7250 C   0  0  0  0  0  0  0  0  0  0  0  0
   33.3080   31.3040   36.2570 C   0  0  0  0  0  0  0  0  0  0  0  0
   33.4750   32.1230   37.3680 C   0  0  0  0  0  0  0  0  0  0  0  0
   34.8170   32.3580   37.4680 N   0  0  0  0  0  0  0  0  0  0  0  0
   35.4460   31.7250   36.4830 N   0  0  0  0  0  0  0  0  0  0  0  0
   32.3760   30.9200   35.8840 H   0  0  0  0  0  0  0  0  0  0  0  0
   32.7220   32.5140   38.0390 H   0  0  0  0  0  0  0  0  0  0  0  0
   35.2950   32.9500   38.2090 H   0  0  0  0  0  0  0  0  0  0  0  0
  1  3  1  0  0  0  0
  1  4  1  0  0  0  0
  2  1  1  0  0  0  0
  4  5  1  0  0  0  0
  5 10  1  0  0  0  0
  5  6  2  0  0  0  0
  6 11  1  0  0  0  0
  7 12  1  0  0  0  0
  7  6  1  0  0  0  0
  8  7  2  0  0  0  0
  9  8  1  0  0  0  0
  9  4  2  0  0  0  0
 13  8  1  0  0  0  0
 14  9  1  0  0  0  0
 15 14  1  0  0  0  0
 16 15  1  0  0  0  0
 17 16  1  0  0  0  0
 17 19  1  0  0  0  0
 18 17  1  0  0  0  0
 19 20  1  0  0  0  0
 20 14  1  0  0  0  0
 21 22  2  0  0  0  0
 22  1  1  0  0  0  0
 23 28  2  0  0  0  0
 23 24  1  0  0  0  0
 24 25  2  0  0  0  0
 25 26  1  0  0  0  0
 25 31  1  0  0  0  0
 27 21  1  0  0  0  0
 27 26  2  0  0  0  0
 28 27  1  0  0  0  0
 29 23  1  0  0  0  0
 30 24  1  0  0  0  0
 31 32  1  0  0  0  0
 31 35  2  0  0  0  0
 32 33  2  0  0  0  0
 33 34  1  0  0  0  0
 33 37  1  0  0  0  0
 34 38  1  0  0  0  0
 35 34  1  0  0  0  0
 36 32  1  0  0  0  0
M  END
>  <minimizedAffinity>
-5.89528561

$$$$

 OpenBabel03272509103D

 38 41  0  0  0  0  0  0  0  0999 V2000
   36.1300   22.5850   31.2310 C   0  0  0  0  0  0  0  0  0  0  0  0
   35.0770   22.9420   31.0330 H   0  0  0  0  0  0  0  0  0  0  0  0
   36.7050   22.7640   30.3100 H   0  0  0  0  0  0  0  0  0  0  0  0
   36.0070   21.1400   31.5700 C   0  0  0  0  0  0  0  0  0  0  0  0
   34.8520   20.4980   31.9700 C   0  0  0  0  0  0  0  0  0  0  0  0
   34.8500   19.1520   32.2610 C   0  0  0  0  0  0  0  0  0  0  0  0
   36.0050   18.3960   32.1620 C   0  0  0  0  0  0  0  0  0  0  0  0
   37.1610   19.0250   31.7640 C   0  0  0  0  0  0  0  0  0  0  0  0
   37.1550   20.3790   31.4740 C   0  0  0  0  0  0  0  0  0  0  0  0
   33.9850   21.1630   32.0240 H   0  0  0  0  0  0  0  0  0  0  0  0
   33.8830   18.7620   32.5640 H   0  0  0  0  0  0  0  0  0  0  0  0
   35.9240   17.3560   32.4040 H   0  0  0  0  0  0  0  0  0  0  0  0
   38.0120   18.3600   31.7140 H   0  0  0  0  0  0  0  0  0  0  0  0
   38.4690   20.8220   31.0830 N   0  0  0  0  0  0  0  0  0  0  0  0
   39.0000   21.2050   29.7880 C   0  0  0  0  0  2  0  0  0  0  0  0
   39.6770   22.5800   29.8420 C   0  0  0  0  0  2  0  0  0  0  0  0
   40.6950   22.6790   30.9340 C   0  0  0  0  0  3  0  0  0  0  0  0
   40.9510   23.7440   31.0430 H   0  0  0  0  0  0  0  0  0  0  0  0
   40.1090   22.2470   32.2620 C   0  0  0  0  0  2  0  0  0  0  0  0
   39.4350   20.8990   32.1620 C   0  0  0  0  0  2  0  0  0  0  0  0
   37.0830   24.6420   32.3090 C   0  0  0  0  0  3  0  0  0  0  0  0
   36.6360   23.4120   32.3440 C   0  0  0  0  0  3  0  0  0  0  0  0
   37.8320   27.0640   34.9330 C   0  0  0  0  0  0  0  0  0  0  0  0
   38.3870   26.2380   35.9330 C   0  0  0  0  0  0  0  0  0  0  0  0
   38.4910   24.8650   35.6750 C   0  0  0  0  0  0  0  0  0  0  0  0
   38.0460   24.3930   34.4610 N   0  0  0  0  0  0  0  0  0  0  0  0
   37.5220   25.2560   33.5460 C   0  0  0  0  0  0  0  0  0  0  0  0
   37.4160   26.5570   33.7740 N   0  0  0  0  0  0  0  0  0  0  0  0
   37.7500   28.1240   35.1250 H   0  0  0  0  0  0  0  0  0  0  0  0
   38.7310   26.6010   36.8720 H   0  0  0  0  0  0  0  0  0  0  0  0
   39.0520   23.9040   36.6300 C   0  0  0  0  0  0  0  0  0  0  0  0
   40.2030   23.2000   36.3950 C   0  0  0  0  0  0  0  0  0  0  0  0
   40.4380   22.3950   37.5040 C   0  0  0  0  0  0  0  0  0  0  0  0
   39.4140   22.6410   38.3740 N   0  0  0  0  0  0  0  0  0  0  0  0
   38.5950   23.5420   37.8420 N   0  0  0  0  0  0  0  0  0  0  0  0
   40.8150   23.2610   35.5130 H   0  0  0  0  0  0  0  0  0  0  0  0
   41.2510   21.7030   37.6780 H   0  0  0  0  0  0  0  0  0  0  0  0
   39.2810   22.1910   39.3270 H   0  0  0  0  0  0  0  0  0  0  0  0
  1  4  1  0  0  0  0
  1 22  1  0  0  0  0
  2  1  1  0  0  0  0
  3  1  1  0  0  0  0
  4  5  1  0  0  0  0
  5 10  1  0  0  0  0
  5  6  2  0  0  0  0
  6 11  1  0  0  0  0
  7  6  1  0  0  0  0
  7 12  1  0  0  0  0
  8  7  2  0  0  0  0
  9  4  2  0  0  0  0
  9  8  1  0  0  0  0
 13  8  1  0  0  0  0
 14  9  1  0  0  0  0
 14 20  1  0  0  0  0
 15 16  1  0  0  0  0
 15 14  1  0  0  0  0
 16 17  1  0  0  0  0
 17 18  1  0  0  0  0
 17 19  1  0  0  0  0
 20 19  1  0  0  0  0
 21 22  2  0  0  0  0
 21 27  1  0  0  0  0
 23 29  1  0  0  0  0
 23 24  1  0  0  0  0
 24 30  1  0  0  0  0
 25 24  2  0  0  0  0
 25 31  1  0  0  0  0
 26 25  1  0  0  0  0
 27 28  1  0  0  0  0
 27 26  2  0  0  0  0
 28 23  2  0  0  0  0
 31 35  2  0  0  0  0
 32 31  1  0  0  0  0
 32 33  2  0  0  0  0
 33 37  1  0  0  0  0
 33 34  1  0  0  0  0
 34 38  1  0  0  0  0
 35 34  1  0  0  0  0
 36 32  1  0  0  0  0
M  END
>  <minimizedAffinity>
-5.87348175

$$$$

 OpenBabel03272509103D

 38 41  0  0  0  0  0  0  0  0999 V2000
   37.8220   25.7820   35.0130 C   0  0  0  0  0  0  0  0  0  0  0  0
   37.6810   25.7270   36.1330 H   0  0  0  0  0  0  0  0  0  0  0  0
   37.2830   24.9250   34.5820 H   0  0  0  0  0  0  0  0  0  0  0  0
   39.2940   25.7170   34.7910 C   0  0  0  0  0  0  0  0  0  0  0  0
   40.1520   26.7970   34.7380 C   0  0  0  0  0  0  0  0  0  0  0  0
   41.5020   26.6240   34.5260 C   0  0  0  0  0  0  0  0  0  0  0  0
   42.0440   25.3620   34.3580 C   0  0  0  0  0  0  0  0  0  0  0  0
   41.1980   24.2790   34.4080 C   0  0  0  0  0  0  0  0  0  0  0  0
   39.8420   24.4610   34.6220 C   0  0  0  0  0  0  0  0  0  0  0  0
   39.6480   27.7570   34.8800 H   0  0  0  0  0  0  0  0  0  0  0  0
   42.0730   27.5480   34.5060 H   0  0  0  0  0  0  0  0  0  0  0  0
   43.1020   25.3080   34.1980 H   0  0  0  0  0  0  0  0  0  0  0  0
   41.7060   23.3350   34.2670 H   0  0  0  0  0  0  0  0  0  0  0  0
   39.1530   23.1960   34.6340 N   0  0  0  0  0  0  0  0  0  0  0  0
   38.7440   22.3430   35.7340 C   0  0  0  0  0  2  0  0  0  0  0  0
   37.2570   21.9850   35.6450 C   0  0  0  0  0  2  0  0  0  0  0  0
   36.8780   21.4240   34.3100 C   0  0  0  0  0  3  0  0  0  0  0  0
   35.7770   21.4170   34.2610 H   0  0  0  0  0  0  0  0  0  0  0  0
   37.3440   22.3300   33.1890 C   0  0  0  0  0  2  0  0  0  0  0  0
   38.8080   22.6750   33.3250 C   0  0  0  0  0  2  0  0  0  0  0  0
   36.7660   27.3960   33.4090 C   0  0  0  0  0  3  0  0  0  0  0  0
   37.2170   27.0590   34.5910 C   0  0  0  0  0  3  0  0  0  0  0  0
   35.5620   30.5160   31.9490 C   0  0  0  0  0  0  0  0  0  0  0  0
   35.0980   31.2050   33.0900 C   0  0  0  0  0  0  0  0  0  0  0  0
   35.2150   30.5750   34.3350 C   0  0  0  0  0  0  0  0  0  0  0  0
   35.7750   29.3180   34.3820 N   0  0  0  0  0  0  0  0  0  0  0  0
   36.1990   28.7200   33.2350 C   0  0  0  0  0  0  0  0  0  0  0  0
   36.0970   29.3010   32.0480 N   0  0  0  0  0  0  0  0  0  0  0  0
   35.4750   30.9970   30.9850 H   0  0  0  0  0  0  0  0  0  0  0  0
   34.6650   32.1760   33.0560 H   0  0  0  0  0  0  0  0  0  0  0  0
   34.7760   31.1860   35.5940 C   0  0  0  0  0  0  0  0  0  0  0  0
   33.4760   31.1570   36.0260 C   0  0  0  0  0  0  0  0  0  0  0  0
   33.4240   31.8210   37.2470 C   0  0  0  0  0  0  0  0  0  0  0  0
   34.7000   32.2310   37.5100 N   0  0  0  0  0  0  0  0  0  0  0  0
   35.4960   31.8450   36.5180 N   0  0  0  0  0  0  0  0  0  0  0  0
   32.6470   30.7020   35.5140 H   0  0  0  0  0  0  0  0  0  0  0  0
   32.5690   31.9980   37.8850 H   0  0  0  0  0  0  0  0  0  0  0  0
   35.0200   32.7710   38.3670 H   0  0  0  0  0  0  0  0  0  0  0  0
  1  2  1  0  0  0  0
  3  1  1  0  0  0  0
  4  1  1  0  0  0  0
  5  4  1  0  0  0  0
  5 10  1  0  0  0  0
  6  5  2  0  0  0  0
  7  8  2  0  0  0  0
  7  6  1  0  0  0  0
  8  9  1  0  0  0  0
  9 14  1  0  0  0  0
  9  4  2  0  0  0  0
 11  6  1  0  0  0  0
 12  7  1  0  0  0  0
 13  8  1  0  0  0  0
 14 15  1  0  0  0  0
 16 15  1  0  0  0  0
 17 16  1  0  0  0  0
 18 17  1  0  0  0  0
 19 20  1  0  0  0  0
 19 17  1  0  0  0  0
 20 14  1  0  0  0  0
 21 22  2  0  0  0  0
 22  1  1  0  0  0  0
 23 28  2  0  0  0  0
 23 24  1  0  0  0  0
 24 25  2  0  0  0  0
 25 26  1  0  0  0  0
 25 31  1  0  0  0  0
 27 21  1  0  0  0  0
 27 26  2  0  0  0  0
 28 27  1  0  0  0  0
 29 23  1  0  0  0  0
 30 24  1  0  0  0  0
 31 32  1  0  0  0  0
 31 35  2  0  0  0  0
 32 33  2  0  0  0  0
 33 34  1  0  0  0  0
 33 37  1  0  0  0  0
 34 38  1  0  0  0  0
 35 34  1  0  0  0  0
 36 32  1  0  0  0  0
M  END
>  <minimizedAffinity>
-5.86315346

$$$$

 OpenBabel03272509103D

 38 41  0  0  0  0  0  0  0  0999 V2000
   36.5660   27.9980   33.4990 C   0  0  0  0  0  0  0  0  0  0  0  0
   35.5770   27.7280   33.9750 H   0  0  0  0  0  0  0  0  0  0  0  0
   37.2510   28.2650   34.3180 H   0  0  0  0  0  0  0  0  0  0  0  0
   36.2740   29.1410   32.5880 C   0  0  0  0  0  0  0  0  0  0  0  0
   36.5530   29.1890   31.2360 C   0  0  0  0  0  0  0  0  0  0  0  0
   36.2400   30.2990   30.4840 C   0  0  0  0  0  0  0  0  0  0  0  0
   35.6350   31.4040   31.0570 C   0  0  0  0  0  0  0  0  0  0  0  0
   35.3530   31.3670   32.4020 C   0  0  0  0  0  0  0  0  0  0  0  0
   35.6710   30.2470   33.1520 C   0  0  0  0  0  0  0  0  0  0  0  0
   37.0300   28.2790   30.8610 H   0  0  0  0  0  0  0  0  0  0  0  0
   36.5070   30.2180   29.4350 H   0  0  0  0  0  0  0  0  0  0  0  0
   35.4230   32.2290   30.4070 H   0  0  0  0  0  0  0  0  0  0  0  0
   34.8820   32.2710   32.7640 H   0  0  0  0  0  0  0  0  0  0  0  0
   35.2890   30.4290   34.5280 N   0  0  0  0  0  0  0  0  0  0  0  0
   36.0430   30.9100   35.6710 C   0  0  0  0  0  2  0  0  0  0  0  0
   35.3110   32.0490   36.3900 C   0  0  0  0  0  2  0  0  0  0  0  0
   33.8980   31.6950   36.7390 C   0  0  0  0  0  3  0  0  0  0  0  0
   33.3930   32.6300   37.0320 H   0  0  0  0  0  0  0  0  0  0  0  0
   33.1540   31.1750   35.5270 C   0  0  0  0  0  2  0  0  0  0  0  0
   33.9180   30.0700   34.8370 C   0  0  0  0  0  2  0  0  0  0  0  0
   36.3030   25.8740   32.1880 C   0  0  0  0  0  3  0  0  0  0  0  0
   37.0230   26.7840   32.7950 C   0  0  0  0  0  3  0  0  0  0  0  0
   38.7060   23.8490   30.3340 C   0  0  0  0  0  0  0  0  0  0  0  0
   38.1300   22.5640   30.4290 C   0  0  0  0  0  0  0  0  0  0  0  0
   36.9240   22.4310   31.1300 C   0  0  0  0  0  0  0  0  0  0  0  0
   36.3650   23.5570   31.6890 N   0  0  0  0  0  0  0  0  0  0  0  0
   36.9840   24.7630   31.5530 C   0  0  0  0  0  0  0  0  0  0  0  0
   38.1240   24.9080   30.8930 N   0  0  0  0  0  0  0  0  0  0  0  0
   39.6360   23.9590   29.7950 H   0  0  0  0  0  0  0  0  0  0  0  0
   38.5610   21.6920   29.9980 H   0  0  0  0  0  0  0  0  0  0  0  0
   36.2240   21.1530   31.2960 C   0  0  0  0  0  0  0  0  0  0  0  0
   35.2150   20.9640   32.2030 C   0  0  0  0  0  0  0  0  0  0  0  0
   34.7830   19.6480   32.0840 C   0  0  0  0  0  0  0  0  0  0  0  0
   35.5510   19.0840   31.1060 N   0  0  0  0  0  0  0  0  0  0  0  0
   36.4060   19.9910   30.6430 N   0  0  0  0  0  0  0  0  0  0  0  0
   34.8260   21.7020   32.8810 H   0  0  0  0  0  0  0  0  0  0  0  0
   34.0040   19.1390   32.6350 H   0  0  0  0  0  0  0  0  0  0  0  0
   35.4870   18.0820   30.7590 H   0  0  0  0  0  0  0  0  0  0  0  0
  1  2  1  0  0  0  0
  1  3  1  0  0  0  0
  4  9  1  0  0  0  0
  4  1  1  0  0  0  0
  5  4  2  0  0  0  0
  6  7  2  0  0  0  0
  6  5  1  0  0  0  0
  7  8  1  0  0  0  0
  8 13  1  0  0  0  0
  8  9  2  0  0  0  0
  9 14  1  0  0  0  0
 10  5  1  0  0  0  0
 11  6  1  0  0  0  0
 12  7  1  0  0  0  0
 14 20  1  0  0  0  0
 14 15  1  0  0  0  0
 15 16  1  0  0  0  0
 16 17  1  0  0  0  0
 17 18  1  0  0  0  0
 19 17  1  0  0  0  0
 20 19  1  0  0  0  0
 21 22  2  0  0  0  0
 22  1  1  0  0  0  0
 23 24  2  0  0  0  0
 23 28  1  0  0  0  0
 24 25  1  0  0  0  0
 25 31  1  0  0  0  0
 25 26  2  0  0  0  0
 27 26  1  0  0  0  0
 27 21  1  0  0  0  0
 28 27  2  0  0  0  0
 29 23  1  0  0  0  0
 30 24  1  0  0  0  0
 31 32  1  0  0  0  0
 32 36  1  0  0  0  0
 33 32  2  0  0  0  0
 33 37  1  0  0  0  0
 34 33  1  0  0  0  0
 35 34  1  0  0  0  0
 35 31  2  0  0  0  0
 38 34  1  0  0  0  0
M  END
>  <minimizedAffinity>
-5.80737543

$$$$
