
 OpenBabel03272504543D

 23 25  0  0  0  0  0  0  0  0999 V2000
   35.8860   23.5190   31.4850 C   0  0  0  0  0  0  0  0  0  0  0  0
   35.1250   24.5350   30.8800 C   0  0  0  0  0  0  0  0  0  0  0  0
   35.4620   25.8360   31.2090 C   0  0  0  0  0  0  0  0  0  0  0  0
   36.4870   26.0610   32.0810 N   0  0  0  0  0  0  0  0  0  0  0  0
   37.2070   25.0610   32.6510 C   0  0  0  0  0  0  0  0  0  0  0  0
   36.8940   23.7780   32.3420 N   0  0  0  0  0  0  0  0  0  0  0  0
   34.3270   24.3640   30.2010 H   0  0  0  0  0  0  0  0  0  0  0  0
   34.9330   26.7040   30.7960 H   0  0  0  0  0  0  0  0  0  0  0  0
   38.2690   25.3310   33.5550 N   0  0  0  0  0  0  0  0  0  0  0  0
   38.1350   25.1360   34.9720 C   0  0  0  0  0  2  0  0  0  0  0  0
   38.3000   26.5180   35.5990 C   0  0  0  0  0  2  0  0  0  0  0  0
   39.7250   26.9530   35.2810 C   0  0  0  0  0  3  0  0  0  0  0  0
   40.4490   26.2450   35.7170 H   0  0  0  0  0  0  0  0  0  0  0  0
   39.9200   27.0410   33.8020 C   0  0  0  0  0  2  0  0  0  0  0  0
   39.5320   25.8200   33.0330 C   0  0  0  0  0  2  0  0  0  0  0  0
   35.5460   22.0980   31.1160 C   0  0  0  0  0  0  0  0  0  0  0  0
   36.3510   20.9810   31.5980 C   0  0  0  0  0  0  0  0  0  0  0  0
   35.0470   21.2760   32.2930 C   0  0  0  0  0  0  0  0  0  0  0  0
   34.9820   21.9770   30.1630 H   0  0  0  0  0  0  0  0  0  0  0  0
   36.4130   20.0500   31.0060 H   0  0  0  0  0  0  0  0  0  0  0  0
   37.2370   21.1150   32.2600 H   0  0  0  0  0  0  0  0  0  0  0  0
   35.0290   21.7190   33.3000 H   0  0  0  0  0  0  0  0  0  0  0  0
   34.1330   20.6960   32.0670 H   0  0  0  0  0  0  0  0  0  0  0  0
  1  6  1  0  0  0  0
  2  3  1  0  0  0  0
  2  1  2  0  0  0  0
  3  4  2  0  0  0  0
  4  5  1  0  0  0  0
  5  9  1  0  0  0  0
  6  5  2  0  0  0  0
  7  2  1  0  0  0  0
  8  3  1  0  0  0  0
  9 10  1  0  0  0  0
 10 11  1  0  0  0  0
 12 11  1  0  0  0  0
 12 13  1  0  0  0  0
 14 12  1  0  0  0  0
 15  9  1  0  0  0  0
 15 14  1  0  0  0  0
 16  1  1  0  0  0  0
 16 17  1  0  0  0  0
 16 18  1  0  0  0  0
 17 21  1  0  0  0  0
 17 18  1  0  0  0  0
 18 22  1  0  0  0  0
 19 16  1  0  0  0  0
 20 17  1  0  0  0  0
 23 18  1  0  0  0  0
M  END
>  <minimizedAffinity>
-4.72739601

$$$$

 OpenBabel03272504543D

 23 25  0  0  0  0  0  0  0  0999 V2000
   38.8720   23.0770   35.5920 C   0  0  0  0  0  0  0  0  0  0  0  0
   40.1030   22.7020   35.0250 C   0  0  0  0  0  0  0  0  0  0  0  0
   40.0430   21.8920   33.9040 C   0  0  0  0  0  0  0  0  0  0  0  0
   38.8260   21.5090   33.4200 N   0  0  0  0  0  0  0  0  0  0  0  0
   37.6520   21.8860   33.9880 C   0  0  0  0  0  0  0  0  0  0  0  0
   37.6870   22.6790   35.0860 N   0  0  0  0  0  0  0  0  0  0  0  0
   41.0510   22.9980   35.3980 H   0  0  0  0  0  0  0  0  0  0  0  0
   40.9420   21.5410   33.3830 H   0  0  0  0  0  0  0  0  0  0  0  0
   36.4020   21.4680   33.4570 N   0  0  0  0  0  0  0  0  0  0  0  0
   35.6070   20.4500   34.0850 C   0  0  0  0  0  2  0  0  0  0  0  0
   35.5240   19.3060   33.0770 C   0  0  0  0  0  2  0  0  0  0  0  0
   34.7730   19.8640   31.8750 C   0  0  0  0  0  3  0  0  0  0  0  0
   33.7620   20.1890   32.1710 H   0  0  0  0  0  0  0  0  0  0  0  0
   35.5270   21.0090   31.2810 C   0  0  0  0  0  2  0  0  0  0  0  0
   35.9090   22.0890   32.2410 C   0  0  0  0  0  2  0  0  0  0  0  0
   38.9220   23.9790   36.7990 C   0  0  0  0  0  0  0  0  0  0  0  0
   37.7740   24.1100   37.6890 C   0  0  0  0  0  0  0  0  0  0  0  0
   38.9120   23.2190   38.1150 C   0  0  0  0  0  0  0  0  0  0  0  0
   39.6440   24.8240   36.7300 H   0  0  0  0  0  0  0  0  0  0  0  0
   37.6200   25.0460   38.2560 H   0  0  0  0  0  0  0  0  0  0  0  0
   36.8210   23.5550   37.5340 H   0  0  0  0  0  0  0  0  0  0  0  0
   38.8060   22.1240   38.1140 H   0  0  0  0  0  0  0  0  0  0  0  0
   39.6780   23.5710   38.8310 H   0  0  0  0  0  0  0  0  0  0  0  0
  1 16  1  0  0  0  0
  2  7  1  0  0  0  0
  2  1  2  0  0  0  0
  3  2  1  0  0  0  0
  4  3  2  0  0  0  0
  4  5  1  0  0  0  0
  5  6  2  0  0  0  0
  6  1  1  0  0  0  0
  8  3  1  0  0  0  0
  9  5  1  0  0  0  0
  9 10  1  0  0  0  0
 11 10  1  0  0  0  0
 12 13  1  0  0  0  0
 12 11  1  0  0  0  0
 14 12  1  0  0  0  0
 14 15  1  0  0  0  0
 15  9  1  0  0  0  0
 16 17  1  0  0  0  0
 16 18  1  0  0  0  0
 17 18  1  0  0  0  0
 17 20  1  0  0  0  0
 18 23  1  0  0  0  0
 19 16  1  0  0  0  0
 21 17  1  0  0  0  0
 22 18  1  0  0  0  0
M  END
>  <minimizedAffinity>
-4.69038534

$$$$

 OpenBabel03272504543D

 23 25  0  0  0  0  0  0  0  0999 V2000
   37.8420   24.3660   32.4270 C   0  0  0  0  0  0  0  0  0  0  0  0
   38.8050   25.3550   32.1600 C   0  0  0  0  0  0  0  0  0  0  0  0
   39.6440   25.6960   33.2070 C   0  0  0  0  0  0  0  0  0  0  0  0
   39.4970   25.0720   34.4110 N   0  0  0  0  0  0  0  0  0  0  0  0
   38.5580   24.1190   34.6420 C   0  0  0  0  0  0  0  0  0  0  0  0
   37.7260   23.7700   33.6310 N   0  0  0  0  0  0  0  0  0  0  0  0
   38.9220   25.8430   31.2250 H   0  0  0  0  0  0  0  0  0  0  0  0
   40.4290   26.4560   33.1080 H   0  0  0  0  0  0  0  0  0  0  0  0
   38.4340   23.4900   35.9100 N   0  0  0  0  0  0  0  0  0  0  0  0
   37.3690   23.8080   36.8200 C   0  0  0  0  0  2  0  0  0  0  0  0
   38.0420   24.3950   38.0580 C   0  0  0  0  0  2  0  0  0  0  0  0
   38.8890   23.2730   38.6430 C   0  0  0  0  0  3  0  0  0  0  0  0
   38.2530   22.4160   38.9220 H   0  0  0  0  0  0  0  0  0  0  0  0
   39.9270   22.8420   37.6590 C   0  0  0  0  0  2  0  0  0  0  0  0
   39.4120   22.4920   36.3000 C   0  0  0  0  0  2  0  0  0  0  0  0
   36.9370   23.9680   31.2880 C   0  0  0  0  0  0  0  0  0  0  0  0
   35.7050   23.2260   31.5300 C   0  0  0  0  0  0  0  0  0  0  0  0
   35.6110   24.7110   31.2890 C   0  0  0  0  0  0  0  0  0  0  0  0
   37.4380   23.8640   30.2990 H   0  0  0  0  0  0  0  0  0  0  0  0
   35.3020   22.5570   30.7480 H   0  0  0  0  0  0  0  0  0  0  0  0
   35.3670   22.9280   32.5490 H   0  0  0  0  0  0  0  0  0  0  0  0
   35.3730   25.4040   32.1090 H   0  0  0  0  0  0  0  0  0  0  0  0
   35.3340   25.1140   30.2970 H   0  0  0  0  0  0  0  0  0  0  0  0
  1  6  1  0  0  0  0
  2  1  2  0  0  0  0
  2  3  1  0  0  0  0
  3  4  2  0  0  0  0
  4  5  1  0  0  0  0
  5  9  1  0  0  0  0
  6  5  2  0  0  0  0
  7  2  1  0  0  0  0
  8  3  1  0  0  0  0
  9 15  1  0  0  0  0
  9 10  1  0  0  0  0
 10 11  1  0  0  0  0
 11 12  1  0  0  0  0
 12 13  1  0  0  0  0
 14 12  1  0  0  0  0
 15 14  1  0  0  0  0
 16 18  1  0  0  0  0
 16 17  1  0  0  0  0
 16  1  1  0  0  0  0
 17 21  1  0  0  0  0
 18 17  1  0  0  0  0
 18 22  1  0  0  0  0
 19 16  1  0  0  0  0
 20 17  1  0  0  0  0
 23 18  1  0  0  0  0
M  END
>  <minimizedAffinity>
-4.55781746

$$$$

 OpenBabel03272504543D

 23 25  0  0  0  0  0  0  0  0999 V2000
   36.6470   21.5290   33.3180 C   0  0  0  0  0  0  0  0  0  0  0  0
   35.7240   20.6190   33.8610 C   0  0  0  0  0  0  0  0  0  0  0  0
   35.6670   20.5490   35.2420 C   0  0  0  0  0  0  0  0  0  0  0  0
   36.4880   21.3460   35.9860 N   0  0  0  0  0  0  0  0  0  0  0  0
   37.3710   22.2180   35.4350 C   0  0  0  0  0  0  0  0  0  0  0  0
   37.4430   22.3020   34.0840 N   0  0  0  0  0  0  0  0  0  0  0  0
   35.0830   19.9980   33.2870 H   0  0  0  0  0  0  0  0  0  0  0  0
   34.9830   19.8730   35.7710 H   0  0  0  0  0  0  0  0  0  0  0  0
   38.2120   23.0330   36.2400 N   0  0  0  0  0  0  0  0  0  0  0  0
   39.6120   22.7580   36.4050 C   0  0  0  0  0  2  0  0  0  0  0  0
   39.8060   22.4610   37.8900 C   0  0  0  0  0  2  0  0  0  0  0  0
   39.4530   23.7500   38.6210 C   0  0  0  0  0  3  0  0  0  0  0  0
   40.1210   24.5670   38.3030 H   0  0  0  0  0  0  0  0  0  0  0  0
   38.0290   24.1200   38.3600 C   0  0  0  0  0  2  0  0  0  0  0  0
   37.6400   24.1810   36.9190 C   0  0  0  0  0  2  0  0  0  0  0  0
   36.7010   21.6330   31.8150 C   0  0  0  0  0  0  0  0  0  0  0  0
   35.5360   21.3180   30.9960 C   0  0  0  0  0  0  0  0  0  0  0  0
   35.8540   22.7670   31.2620 C   0  0  0  0  0  0  0  0  0  0  0  0
   37.7150   21.5180   31.3680 H   0  0  0  0  0  0  0  0  0  0  0  0
   35.6720   20.9480   29.9640 H   0  0  0  0  0  0  0  0  0  0  0  0
   34.5600   21.0000   31.4290 H   0  0  0  0  0  0  0  0  0  0  0  0
   35.2330   23.3670   31.9420 H   0  0  0  0  0  0  0  0  0  0  0  0
   36.3830   23.3840   30.5120 H   0  0  0  0  0  0  0  0  0  0  0  0
  1  2  2  0  0  0  0
  1  6  1  0  0  0  0
  2  3  1  0  0  0  0
  3  8  1  0  0  0  0
  3  4  2  0  0  0  0
  5  4  1  0  0  0  0
  5  9  1  0  0  0  0
  6  5  2  0  0  0  0
  7  2  1  0  0  0  0
  9 10  1  0  0  0  0
  9 15  1  0  0  0  0
 10 11  1  0  0  0  0
 11 12  1  0  0  0  0
 13 12  1  0  0  0  0
 14 12  1  0  0  0  0
 15 14  1  0  0  0  0
 16  1  1  0  0  0  0
 17 18  1  0  0  0  0
 17 21  1  0  0  0  0
 17 16  1  0  0  0  0
 18 16  1  0  0  0  0
 18 22  1  0  0  0  0
 19 16  1  0  0  0  0
 20 17  1  0  0  0  0
 23 18  1  0  0  0  0
M  END
>  <minimizedAffinity>
-4.55204821

$$$$

 OpenBabel03272504543D

 23 25  0  0  0  0  0  0  0  0999 V2000
   37.0430   21.8040   32.6270 C   0  0  0  0  0  0  0  0  0  0  0  0
   37.5190   22.8910   31.8730 C   0  0  0  0  0  0  0  0  0  0  0  0
   38.2580   23.8390   32.5590 C   0  0  0  0  0  0  0  0  0  0  0  0
   38.4800   23.6750   33.8950 N   0  0  0  0  0  0  0  0  0  0  0  0
   38.0080   22.6150   34.5990 C   0  0  0  0  0  0  0  0  0  0  0  0
   37.2820   21.6740   33.9470 N   0  0  0  0  0  0  0  0  0  0  0  0
   37.3490   23.0220   30.8340 H   0  0  0  0  0  0  0  0  0  0  0  0
   38.6760   24.7270   32.0690 H   0  0  0  0  0  0  0  0  0  0  0  0
   38.2580   22.4760   35.9910 N   0  0  0  0  0  0  0  0  0  0  0  0
   37.2450   22.7280   36.9780 C   0  0  0  0  0  2  0  0  0  0  0  0
   37.7540   23.9040   37.8060 C   0  0  0  0  0  2  0  0  0  0  0  0
   39.0210   23.4120   38.4940 C   0  0  0  0  0  3  0  0  0  0  0  0
   38.7940   22.5540   39.1480 H   0  0  0  0  0  0  0  0  0  0  0  0
   40.0460   23.0270   37.4780 C   0  0  0  0  0  2  0  0  0  0  0  0
   39.5780   22.0670   36.4330 C   0  0  0  0  0  2  0  0  0  0  0  0
   36.2580   20.7510   31.8860 C   0  0  0  0  0  0  0  0  0  0  0  0
   35.6410   19.6340   32.5950 C   0  0  0  0  0  0  0  0  0  0  0  0
   34.7680   20.7930   32.1860 C   0  0  0  0  0  0  0  0  0  0  0  0
   36.5360   20.6160   30.8170 H   0  0  0  0  0  0  0  0  0  0  0  0
   35.4840   18.6720   32.0770 H   0  0  0  0  0  0  0  0  0  0  0  0
   35.7070   19.5080   33.7000 H   0  0  0  0  0  0  0  0  0  0  0  0
   34.3810   21.5020   32.9320 H   0  0  0  0  0  0  0  0  0  0  0  0
   34.1370   20.7430   31.2790 H   0  0  0  0  0  0  0  0  0  0  0  0
  1  6  1  0  0  0  0
  2  3  1  0  0  0  0
  2  1  2  0  0  0  0
  3  4  2  0  0  0  0
  4  5  1  0  0  0  0
  5  9  1  0  0  0  0
  6  5  2  0  0  0  0
  7  2  1  0  0  0  0
  8  3  1  0  0  0  0
  9 15  1  0  0  0  0
  9 10  1  0  0  0  0
 10 11  1  0  0  0  0
 11 12  1  0  0  0  0
 12 13  1  0  0  0  0
 14 12  1  0  0  0  0
 15 14  1  0  0  0  0
 16 18  1  0  0  0  0
 16 17  1  0  0  0  0
 16  1  1  0  0  0  0
 17 21  1  0  0  0  0
 18 17  1  0  0  0  0
 18 22  1  0  0  0  0
 19 16  1  0  0  0  0
 20 17  1  0  0  0  0
 23 18  1  0  0  0  0
M  END
>  <minimizedAffinity>
-4.51130342

$$$$

 OpenBabel03272504543D

 23 25  0  0  0  0  0  0  0  0999 V2000
   36.7680   25.5910   32.3480 C   0  0  0  0  0  0  0  0  0  0  0  0
   35.8000   26.1420   31.4890 C   0  0  0  0  0  0  0  0  0  0  0  0
   35.0070   25.2420   30.7980 C   0  0  0  0  0  0  0  0  0  0  0  0
   35.2000   23.9040   30.9800 N   0  0  0  0  0  0  0  0  0  0  0  0
   36.1430   23.3990   31.8160 C   0  0  0  0  0  0  0  0  0  0  0  0
   36.9310   24.2620   32.5030 N   0  0  0  0  0  0  0  0  0  0  0  0
   35.6460   27.1820   31.3460 H   0  0  0  0  0  0  0  0  0  0  0  0
   34.2220   25.5630   30.1020 H   0  0  0  0  0  0  0  0  0  0  0  0
   36.3160   21.9980   31.9810 N   0  0  0  0  0  0  0  0  0  0  0  0
   37.4200   21.2910   31.3930 C   0  0  0  0  0  2  0  0  0  0  0  0
   36.8020   20.3010   30.4090 C   0  0  0  0  0  2  0  0  0  0  0  0
   35.9740   19.3390   31.2500 C   0  0  0  0  0  3  0  0  0  0  0  0
   36.6170   18.8090   31.9730 H   0  0  0  0  0  0  0  0  0  0  0  0
   34.8930   20.0790   31.9690 C   0  0  0  0  0  2  0  0  0  0  0  0
   35.3500   21.2560   32.7690 C   0  0  0  0  0  2  0  0  0  0  0  0
   37.6220   26.5600   33.1260 C   0  0  0  0  0  0  0  0  0  0  0  0
   37.0820   27.8330   33.5920 C   0  0  0  0  0  0  0  0  0  0  0  0
   37.1980   26.6990   34.5790 C   0  0  0  0  0  0  0  0  0  0  0  0
   38.7170   26.4790   32.9430 H   0  0  0  0  0  0  0  0  0  0  0  0
   37.7550   28.6980   33.7310 H   0  0  0  0  0  0  0  0  0  0  0  0
   36.0290   28.1470   33.4110 H   0  0  0  0  0  0  0  0  0  0  0  0
   36.3050   26.1700   34.9400 H   0  0  0  0  0  0  0  0  0  0  0  0
   38.0430   26.6420   35.2900 H   0  0  0  0  0  0  0  0  0  0  0  0
  1  6  1  0  0  0  0
  1 16  1  0  0  0  0
  2  1  2  0  0  0  0
  3  4  2  0  0  0  0
  3  2  1  0  0  0  0
  4  5  1  0  0  0  0
  5  9  1  0  0  0  0
  5  6  2  0  0  0  0
  7  2  1  0  0  0  0
  8  3  1  0  0  0  0
  9 15  1  0  0  0  0
 10  9  1  0  0  0  0
 11 12  1  0  0  0  0
 11 10  1  0  0  0  0
 12 14  1  0  0  0  0
 12 13  1  0  0  0  0
 14 15  1  0  0  0  0
 16 17  1  0  0  0  0
 16 18  1  0  0  0  0
 17 20  1  0  0  0  0
 17 18  1  0  0  0  0
 18 22  1  0  0  0  0
 18 23  1  0  0  0  0
 19 16  1  0  0  0  0
 21 17  1  0  0  0  0
M  END
>  <minimizedAffinity>
-4.4186101

$$$$

 OpenBabel03272504543D

 23 25  0  0  0  0  0  0  0  0999 V2000
   41.5550   23.1200   36.2670 C   0  0  0  0  0  0  0  0  0  0  0  0
   40.7500   22.3670   37.1410 C   0  0  0  0  0  0  0  0  0  0  0  0
   39.4140   22.7210   37.2070 C   0  0  0  0  0  0  0  0  0  0  0  0
   38.9580   23.7550   36.4430 N   0  0  0  0  0  0  0  0  0  0  0  0
   39.7570   24.4670   35.6070 C   0  0  0  0  0  0  0  0  0  0  0  0
   41.0690   24.1370   35.5260 N   0  0  0  0  0  0  0  0  0  0  0  0
   41.1010   21.5610   37.7360 H   0  0  0  0  0  0  0  0  0  0  0  0
   38.6990   22.2000   37.8560 H   0  0  0  0  0  0  0  0  0  0  0  0
   39.2480   25.5380   34.8260 N   0  0  0  0  0  0  0  0  0  0  0  0
   39.5030   26.9130   35.1550 C   0  0  0  0  0  2  0  0  0  0  0  0
   38.1390   27.5280   35.4590 C   0  0  0  0  0  2  0  0  0  0  0  0
   37.3520   27.4580   34.1570 C   0  0  0  0  0  3  0  0  0  0  0  0
   37.8640   28.0320   33.3670 H   0  0  0  0  0  0  0  0  0  0  0  0
   37.1830   26.0360   33.7310 C   0  0  0  0  0  2  0  0  0  0  0  0
   38.4440   25.2380   33.6550 C   0  0  0  0  0  2  0  0  0  0  0  0
   43.0070   22.7290   36.1670 C   0  0  0  0  0  0  0  0  0  0  0  0
   43.8900   23.3580   35.1900 C   0  0  0  0  0  0  0  0  0  0  0  0
   43.9560   23.8260   36.6220 C   0  0  0  0  0  0  0  0  0  0  0  0
   43.2470   21.7000   36.5190 H   0  0  0  0  0  0  0  0  0  0  0  0
   44.7600   22.8020   34.7970 H   0  0  0  0  0  0  0  0  0  0  0  0
   43.5490   24.1520   34.4880 H   0  0  0  0  0  0  0  0  0  0  0  0
   43.5560   24.8070   36.9160 H   0  0  0  0  0  0  0  0  0  0  0  0
   44.7460   23.4660   37.3070 H   0  0  0  0  0  0  0  0  0  0  0  0
  1  2  1  0  0  0  0
  2  3  2  0  0  0  0
  2  7  1  0  0  0  0
  3  8  1  0  0  0  0
  4  3  1  0  0  0  0
  5  4  2  0  0  0  0
  6  5  1  0  0  0  0
  6  1  2  0  0  0  0
  9 10  1  0  0  0  0
  9  5  1  0  0  0  0
 10 11  1  0  0  0  0
 12 11  1  0  0  0  0
 13 12  1  0  0  0  0
 14 12  1  0  0  0  0
 15 14  1  0  0  0  0
 15  9  1  0  0  0  0
 16  1  1  0  0  0  0
 16 19  1  0  0  0  0
 16 18  1  0  0  0  0
 17 16  1  0  0  0  0
 17 18  1  0  0  0  0
 18 22  1  0  0  0  0
 18 23  1  0  0  0  0
 20 17  1  0  0  0  0
 21 17  1  0  0  0  0
M  END
>  <minimizedAffinity>
-4.38896799

$$$$

 OpenBabel03272504543D

 23 25  0  0  0  0  0  0  0  0999 V2000
   36.0670   21.9350   31.5580 C   0  0  0  0  0  0  0  0  0  0  0  0
   37.2430   21.5240   30.9060 C   0  0  0  0  0  0  0  0  0  0  0  0
   38.1720   22.5110   30.6300 C   0  0  0  0  0  0  0  0  0  0  0  0
   37.9070   23.7990   30.9940 N   0  0  0  0  0  0  0  0  0  0  0  0
   36.7620   24.1700   31.6230 C   0  0  0  0  0  0  0  0  0  0  0  0
   35.8380   23.2190   31.9030 N   0  0  0  0  0  0  0  0  0  0  0  0
   37.4530   20.5230   30.6220 H   0  0  0  0  0  0  0  0  0  0  0  0
   39.1230   22.3010   30.1240 H   0  0  0  0  0  0  0  0  0  0  0  0
   36.5180   25.5210   31.9880 N   0  0  0  0  0  0  0  0  0  0  0  0
   35.5980   26.3540   31.2640 C   0  0  0  0  0  2  0  0  0  0  0  0
   36.4360   27.4890   30.6800 C   0  0  0  0  0  2  0  0  0  0  0  0
   36.9840   28.2590   31.8740 C   0  0  0  0  0  3  0  0  0  0  0  0
   36.1580   28.6660   32.4810 H   0  0  0  0  0  0  0  0  0  0  0  0
   37.8470   27.3710   32.7100 C   0  0  0  0  0  2  0  0  0  0  0  0
   37.2200   26.0810   33.1280 C   0  0  0  0  0  2  0  0  0  0  0  0
   35.0570   20.8650   31.8870 C   0  0  0  0  0  0  0  0  0  0  0  0
   35.4320   19.4550   31.9030 C   0  0  0  0  0  0  0  0  0  0  0  0
   35.3210   20.1820   33.2180 C   0  0  0  0  0  0  0  0  0  0  0  0
   33.9970   21.1340   31.6780 H   0  0  0  0  0  0  0  0  0  0  0  0
   34.6750   18.6820   31.6830 H   0  0  0  0  0  0  0  0  0  0  0  0
   36.4660   19.1020   31.6870 H   0  0  0  0  0  0  0  0  0  0  0  0
   36.2170   20.4440   33.7990 H   0  0  0  0  0  0  0  0  0  0  0  0
   34.4170   20.0890   33.8500 H   0  0  0  0  0  0  0  0  0  0  0  0
  1 16  1  0  0  0  0
  1  6  1  0  0  0  0
  2  1  2  0  0  0  0
  3  2  1  0  0  0  0
  3  4  2  0  0  0  0
  4  5  1  0  0  0  0
  5  6  2  0  0  0  0
  5  9  1  0  0  0  0
  7  2  1  0  0  0  0
  8  3  1  0  0  0  0
  9 15  1  0  0  0  0
 10  9  1  0  0  0  0
 11 10  1  0  0  0  0
 11 12  1  0  0  0  0
 12 13  1  0  0  0  0
 12 14  1  0  0  0  0
 14 15  1  0  0  0  0
 16 17  1  0  0  0  0
 16 18  1  0  0  0  0
 17 18  1  0  0  0  0
 18 22  1  0  0  0  0
 18 23  1  0  0  0  0
 19 16  1  0  0  0  0
 20 17  1  0  0  0  0
 21 17  1  0  0  0  0
M  END
>  <minimizedAffinity>
-4.32579136

$$$$

 OpenBabel03272504543D

 23 25  0  0  0  0  0  0  0  0999 V2000
   38.9560   24.6890   35.1550 C   0  0  0  0  0  0  0  0  0  0  0  0
   38.7630   23.9910   36.3600 C   0  0  0  0  0  0  0  0  0  0  0  0
   38.1360   22.7610   36.2650 C   0  0  0  0  0  0  0  0  0  0  0  0
   37.7470   22.3010   35.0410 N   0  0  0  0  0  0  0  0  0  0  0  0
   37.9460   22.9970   33.8910 C   0  0  0  0  0  0  0  0  0  0  0  0
   38.5580   24.2040   33.9610 N   0  0  0  0  0  0  0  0  0  0  0  0
   39.0650   24.3440   37.3140 H   0  0  0  0  0  0  0  0  0  0  0  0
   37.9360   22.1330   37.1420 H   0  0  0  0  0  0  0  0  0  0  0  0
   37.5270   22.4870   32.6330 N   0  0  0  0  0  0  0  0  0  0  0  0
   36.3690   22.9940   31.9500 C   0  0  0  0  0  2  0  0  0  0  0  0
   35.3940   21.8230   31.8610 C   0  0  0  0  0  2  0  0  0  0  0  0
   36.0770   20.7770   30.9900 C   0  0  0  0  0  3  0  0  0  0  0  0
   36.2790   21.1860   29.9860 H   0  0  0  0  0  0  0  0  0  0  0  0
   37.3520   20.3270   31.6270 C   0  0  0  0  0  2  0  0  0  0  0  0
   38.2930   21.4220   32.0140 C   0  0  0  0  0  2  0  0  0  0  0  0
   39.6600   26.0200   35.2410 C   0  0  0  0  0  0  0  0  0  0  0  0
   39.4790   27.0350   34.2090 C   0  0  0  0  0  0  0  0  0  0  0  0
   38.7150   27.1820   35.5000 C   0  0  0  0  0  0  0  0  0  0  0  0
   40.6040   26.0190   35.8300 H   0  0  0  0  0  0  0  0  0  0  0  0
   40.2830   27.7650   34.0080 H   0  0  0  0  0  0  0  0  0  0  0  0
   38.8170   26.8890   33.3250 H   0  0  0  0  0  0  0  0  0  0  0  0
   37.6300   27.0060   35.5390 H   0  0  0  0  0  0  0  0  0  0  0  0
   39.0640   27.8610   36.2990 H   0  0  0  0  0  0  0  0  0  0  0  0
  1 16  1  0  0  0  0
  1  2  1  0  0  0  0
  2  7  1  0  0  0  0
  3  2  2  0  0  0  0
  3  8  1  0  0  0  0
  4  3  1  0  0  0  0
  5  6  1  0  0  0  0
  5  4  2  0  0  0  0
  6  1  2  0  0  0  0
  9  5  1  0  0  0  0
 10  9  1  0  0  0  0
 11 10  1  0  0  0  0
 12 14  1  0  0  0  0
 12 11  1  0  0  0  0
 13 12  1  0  0  0  0
 14 15  1  0  0  0  0
 15  9  1  0  0  0  0
 16 18  1  0  0  0  0
 16 19  1  0  0  0  0
 17 16  1  0  0  0  0
 17 18  1  0  0  0  0
 18 22  1  0  0  0  0
 18 23  1  0  0  0  0
 20 17  1  0  0  0  0
 21 17  1  0  0  0  0
M  END
>  <minimizedAffinity>
-4.3033123

$$$$
