
 OpenBabel03272504173D

 26 27  0  0  0  0  0  0  0  0999 V2000
   35.5290   30.0010   46.4470 O   0  0  0  0  0  0  0  0  0  0  0  0
   34.3920   29.9690   47.4420 P   0  0  1  0  0  0  0  0  0  0  0  0
   34.1120   28.4040   47.9980 O   0  0  0  0  0  0  0  0  0  0  0  0
   34.6580   27.7700   47.4550 H   0  0  0  0  0  0  0  0  0  0  0  0
   34.7640   30.9210   48.8380 O   0  0  0  0  0  0  0  0  0  0  0  0
   35.9520   30.7800   49.5380 C   0  0  0  0  0  0  0  0  0  0  0  0
   36.1940   29.9140   50.6040 C   0  0  0  0  0  0  0  0  0  0  0  0
   37.4470   29.9090   51.1820 C   0  0  0  0  0  0  0  0  0  0  0  0
   38.4170   30.7510   50.6990 N   0  0  0  0  0  0  0  0  0  0  0  0
   38.1390   31.5790   49.6600 C   0  0  0  0  0  0  0  0  0  0  0  0
   36.9110   31.5950   49.0790 N   0  0  0  0  0  0  0  0  0  0  0  0
   37.5920   29.2270   51.9990 H   0  0  0  0  0  0  0  0  0  0  0  0
   38.9550   32.2120   49.3370 H   0  0  0  0  0  0  0  0  0  0  0  0
   35.0900   29.1200   50.9720 N   0  0  0  0  0  0  0  0  0  0  0  0
   35.1230   28.1040   51.2110 H   0  0  0  0  0  0  0  0  0  0  0  0
   34.1290   29.5250   51.0280 H   0  0  0  0  0  0  0  0  0  0  0  0
   33.0670   30.6430   46.6600 O   0  0  0  0  0  0  0  0  0  0  0  0
   31.4930   32.2600   45.1880 F   0  0  0  0  0  0  0  0  0  0  0  0
   31.3100   30.9130   45.2220 C   0  0  0  0  0  0  0  0  0  0  0  0
   32.0810   30.0060   45.9600 C   0  0  0  0  0  0  0  0  0  0  0  0
   31.7620   28.6660   45.8840 C   0  0  0  0  0  0  0  0  0  0  0  0
   32.3940   28.0480   46.4720 H   0  0  0  0  0  0  0  0  0  0  0  0
   30.7240   28.2290   45.1160 C   0  0  0  0  0  0  0  0  0  0  0  0
   30.5330   27.1560   45.1070 H   0  0  0  0  0  0  0  0  0  0  0  0
   29.9770   29.1200   44.3990 C   0  0  0  0  0  0  0  0  0  0  0  0
   30.2480   30.4780   44.4330 C   0  0  0  0  0  0  0  0  0  0  0  0
  2  1  2  6  0  0  0
  2  3  1  0  0  0  0
  2  5  1  0  0  0  0
  4  3  1  0  0  0  0
  5  6  1  0  0  0  0
  6  7  1  0  0  0  0
  7 14  1  0  0  0  0
  7  8  2  0  0  0  0
  8 12  1  0  0  0  0
  9  8  1  0  0  0  0
 10  9  2  0  0  0  0
 11  6  2  0  0  0  0
 11 10  1  0  0  0  0
 13 10  1  0  0  0  0
 14 16  1  0  0  0  0
 14 15  1  0  0  0  0
 17  2  1  0  0  0  0
 18 19  1  0  0  0  0
 19 20  1  0  0  0  0
 20 17  1  0  0  0  0
 21 20  2  0  0  0  0
 21 22  1  0  0  0  0
 23 21  1  0  0  0  0
 24 23  1  0  0  0  0
 25 26  1  0  0  0  0
 25 23  2  0  0  0  0
 26 19  2  0  0  0  0
M  END
>  <minimizedAffinity>
-3.99389958

>  <minimizedRMSD>
0.29045707

$$$$
