
 OpenBabel03272505433D

 24 25  0  0  0  0  0  0  0  0999 V2000
   32.4210   28.0470   49.0120 O   0  0  0  0  0  0  0  0  0  0  0  0
   33.8270   28.2890   48.4520 P   0  0  2  0  0  0  0  0  0  0  0  0
   34.0770   27.1340   47.2620 O   0  0  0  0  0  0  0  0  0  0  0  0
   33.8670   27.5360   46.3830 H   0  0  0  0  0  0  0  0  0  0  0  0
   34.9120   28.1080   49.7540 O   0  0  0  0  0  0  0  0  0  0  0  0
   37.2930   30.3190   51.4200 C   0  0  0  0  0  0  0  0  0  0  0  0
   38.0400   30.7630   50.2910 C   0  0  0  0  0  0  0  0  0  0  0  0
   37.6700   30.2680   49.0340 C   0  0  0  0  0  0  0  0  0  0  0  0
   36.6310   29.4020   48.9550 N   0  0  0  0  0  0  0  0  0  0  0  0
   35.9390   28.9960   50.0390 C   0  0  0  0  0  0  0  0  0  0  0  0
   36.2740   29.4580   51.2660 N   0  0  0  0  0  0  0  0  0  0  0  0
   37.5630   30.6900   52.4000 H   0  0  0  0  0  0  0  0  0  0  0  0
   38.8620   31.4540   50.3910 H   0  0  0  0  0  0  0  0  0  0  0  0
   38.2110   30.5800   48.1490 H   0  0  0  0  0  0  0  0  0  0  0  0
   33.8510   29.8170   47.7870 O   0  0  0  0  0  0  0  0  0  0  0  0
   31.6460   30.3090   46.3250 F   0  0  0  0  0  0  0  0  0  0  0  0
   32.8680   30.2810   45.7080 C   0  0  0  0  0  0  0  0  0  0  0  0
   34.0350   30.0310   46.4290 C   0  0  0  0  0  0  0  0  0  0  0  0
   35.2500   30.0100   45.7800 C   0  0  0  0  0  0  0  0  0  0  0  0
   36.1360   29.8120   46.3660 H   0  0  0  0  0  0  0  0  0  0  0  0
   35.3040   30.2390   44.4150 C   0  0  0  0  0  0  0  0  0  0  0  0
   36.2290   30.2290   43.8880 H   0  0  0  0  0  0  0  0  0  0  0  0
   34.1390   30.4860   43.7140 C   0  0  0  0  0  0  0  0  0  0  0  0
   32.9030   30.5140   44.3350 C   0  0  0  0  0  0  0  0  0  0  0  0
  2  1  2  1  0  0  0
  2  5  1  0  0  0  0
  3  2  1  0  0  0  0
  4  3  1  0  0  0  0
  5 10  1  0  0  0  0
  6 12  1  0  0  0  0
  7 13  1  0  0  0  0
  7  6  2  0  0  0  0
  8  7  1  0  0  0  0
  9  8  2  0  0  0  0
  9 10  1  0  0  0  0
 10 11  2  0  0  0  0
 11  6  1  0  0  0  0
 14  8  1  0  0  0  0
 15  2  1  0  0  0  0
 17 16  1  0  0  0  0
 17 18  1  0  0  0  0
 18 15  1  0  0  0  0
 19 20  1  0  0  0  0
 19 18  2  0  0  0  0
 21 19  1  0  0  0  0
 22 21  1  0  0  0  0
 23 24  1  0  0  0  0
 23 21  2  0  0  0  0
 24 17  2  0  0  0  0
M  END
>  <minimizedAffinity>
-4.47340202

>  <minimizedRMSD>
2.06835485

$$$$
