
 OpenBabel03272504013D

 31 33  0  0  0  0  0  0  0  0999 V2000
   37.4500   24.0600   32.5620 C   0  0  0  0  0  0  0  0  0  0  0  0
   37.7000   25.3770   32.9000 C   0  0  0  0  0  0  0  0  0  0  0  0
   38.1150   25.4140   34.2040 C   0  0  0  0  0  0  0  0  0  0  0  0
   38.1140   24.1500   34.6360 N   0  0  0  0  0  0  0  0  0  0  0  0
   37.7200   23.3710   33.6580 N   0  0  0  0  0  0  0  0  0  0  0  0
   37.6030   26.2560   32.2900 H   0  0  0  0  0  0  0  0  0  0  0  0
   38.3900   26.3110   34.7660 H   0  0  0  0  0  0  0  0  0  0  0  0
   40.3060   22.5310   35.3400 F   0  0  0  0  0  0  0  0  0  0  0  0
   39.5720   23.0230   36.3420 C   0  0  0  0  0  0  0  0  0  0  0  0
   38.4990   23.8170   35.9730 C   0  0  0  0  0  0  0  0  0  0  0  0
   37.6930   24.3620   36.9790 C   0  0  0  0  0  0  0  0  0  0  0  0
   36.8330   24.9950   36.7500 H   0  0  0  0  0  0  0  0  0  0  0  0
   37.9680   24.1080   38.3080 C   0  0  0  0  0  0  0  0  0  0  0  0
   37.3170   24.5510   39.0750 H   0  0  0  0  0  0  0  0  0  0  0  0
   39.0340   23.3200   38.6800 C   0  0  0  0  0  3  0  0  0  0  0  0
   39.8240   22.7870   37.6800 C   0  0  0  0  0  3  0  0  0  0  0  0
   36.9830   23.6900   31.2080 C   0  0  0  0  0  0  0  0  0  0  0  0
   36.7760   24.6250   30.5950 H   0  0  0  0  0  0  0  0  0  0  0  0
   37.8480   23.2620   30.6890 H   0  0  0  0  0  0  0  0  0  0  0  0
   35.7190   22.9200   31.2030 C   0  0  0  0  0  0  0  0  0  0  0  0
   35.0540   23.1610   30.3190 H   0  0  0  0  0  0  0  0  0  0  0  0
   35.1100   23.3260   32.0680 H   0  0  0  0  0  0  0  0  0  0  0  0
   35.7680   21.4910   31.3190 C   0  0  0  0  0  0  0  0  0  0  0  0
   34.8240   20.8100   32.0380 C   0  0  0  0  0  0  0  0  0  0  0  0
   34.8740   19.4030   32.1560 C   0  0  0  0  0  0  0  0  0  0  0  0
   35.9300   18.7920   31.4980 N   0  0  0  0  0  0  0  0  0  0  0  0
   36.8390   19.5070   30.8000 C   0  0  0  0  0  0  0  0  0  0  0  0
   36.7530   20.8490   30.7140 N   0  0  0  0  0  0  0  0  0  0  0  0
   33.9680   21.1710   32.5820 H   0  0  0  0  0  0  0  0  0  0  0  0
   34.1810   18.7820   32.6970 H   0  0  0  0  0  0  0  0  0  0  0  0
   37.6250   18.9480   30.3220 H   0  0  0  0  0  0  0  0  0  0  0  0
  1  2  1  0  0  0  0
  1  5  2  0  0  0  0
  2  3  2  0  0  0  0
  3  4  1  0  0  0  0
  3  7  1  0  0  0  0
  4 10  1  0  0  0  0
  5  4  1  0  0  0  0
  6  2  1  0  0  0  0
  8  9  1  0  0  0  0
  9 16  1  0  0  0  0
 10  9  2  0  0  0  0
 10 11  1  0  0  0  0
 11 13  2  0  0  0  0
 12 11  1  0  0  0  0
 13 15  1  0  0  0  0
 13 14  1  0  0  0  0
 16 15  2  0  0  0  0
 17  1  1  0  0  0  0
 18 17  1  0  0  0  0
 19 17  1  0  0  0  0
 20 17  1  0  0  0  0
 20 23  1  0  0  0  0
 20 22  1  0  0  0  0
 21 20  1  0  0  0  0
 23 24  1  0  0  0  0
 24 25  2  0  0  0  0
 24 29  1  0  0  0  0
 25 30  1  0  0  0  0
 26 25  1  0  0  0  0
 27 26  2  0  0  0  0
 28 27  1  0  0  0  0
 28 23  2  0  0  0  0
 31 27  1  0  0  0  0
M  END
>  <minimizedAffinity>
-5.32424641

$$$$

 OpenBabel03272504013D

 31 33  0  0  0  0  0  0  0  0999 V2000
   36.4270   28.3750   33.2100 C   0  0  0  0  0  0  0  0  0  0  0  0
   35.9910   29.3320   32.3130 C   0  0  0  0  0  0  0  0  0  0  0  0
   35.3220   30.3010   33.0110 C   0  0  0  0  0  0  0  0  0  0  0  0
   35.3550   29.9330   34.2950 N   0  0  0  0  0  0  0  0  0  0  0  0
   36.0070   28.8000   34.3900 N   0  0  0  0  0  0  0  0  0  0  0  0
   36.1240   29.3630   31.2490 H   0  0  0  0  0  0  0  0  0  0  0  0
   34.8570   31.1950   32.5850 H   0  0  0  0  0  0  0  0  0  0  0  0
   36.7030   31.7520   35.9670 F   0  0  0  0  0  0  0  0  0  0  0  0
   35.3860   31.6260   36.1490 C   0  0  0  0  0  0  0  0  0  0  0  0
   34.7430   30.7260   35.3160 C   0  0  0  0  0  0  0  0  0  0  0  0
   33.3610   30.5510   35.4590 C   0  0  0  0  0  0  0  0  0  0  0  0
   32.8000   29.8560   34.8320 H   0  0  0  0  0  0  0  0  0  0  0  0
   32.6630   31.2630   36.4140 C   0  0  0  0  0  0  0  0  0  0  0  0
   31.5790   31.1030   36.5020 H   0  0  0  0  0  0  0  0  0  0  0  0
   33.2970   32.1590   37.2440 C   0  0  0  0  0  3  0  0  0  0  0  0
   34.6600   32.3260   37.0960 C   0  0  0  0  0  3  0  0  0  0  0  0
   37.1880   27.1900   32.7590 C   0  0  0  0  0  0  0  0  0  0  0  0
   36.5120   26.2760   32.7330 H   0  0  0  0  0  0  0  0  0  0  0  0
   37.4040   27.3480   31.6960 H   0  0  0  0  0  0  0  0  0  0  0  0
   38.3130   26.8290   33.6500 C   0  0  0  0  0  0  0  0  0  0  0  0
   38.6540   27.6860   34.3070 H   0  0  0  0  0  0  0  0  0  0  0  0
   39.2090   26.6880   32.9700 H   0  0  0  0  0  0  0  0  0  0  0  0
   38.2000   25.6710   34.4900 C   0  0  0  0  0  0  0  0  0  0  0  0
   37.9990   25.7950   35.8370 C   0  0  0  0  0  0  0  0  0  0  0  0
   37.8920   24.6550   36.6650 C   0  0  0  0  0  0  0  0  0  0  0  0
   38.0030   23.4370   36.0110 N   0  0  0  0  0  0  0  0  0  0  0  0
   38.2010   23.3650   34.6770 C   0  0  0  0  0  0  0  0  0  0  0  0
   38.2980   24.4790   33.9250 N   0  0  0  0  0  0  0  0  0  0  0  0
   37.8950   26.6750   36.4490 H   0  0  0  0  0  0  0  0  0  0  0  0
   37.7350   24.6500   37.7300 H   0  0  0  0  0  0  0  0  0  0  0  0
   38.2750   22.3770   34.2560 H   0  0  0  0  0  0  0  0  0  0  0  0
  1  5  2  0  0  0  0
  2  3  2  0  0  0  0
  2  1  1  0  0  0  0
  3  4  1  0  0  0  0
  4  5  1  0  0  0  0
  4 10  1  0  0  0  0
  6  2  1  0  0  0  0
  7  3  1  0  0  0  0
  8  9  1  0  0  0  0
  9 16  1  0  0  0  0
 10 11  1  0  0  0  0
 10  9  2  0  0  0  0
 11 13  2  0  0  0  0
 12 11  1  0  0  0  0
 13 14  1  0  0  0  0
 13 15  1  0  0  0  0
 16 15  2  0  0  0  0
 17  1  1  0  0  0  0
 17 20  1  0  0  0  0
 18 17  1  0  0  0  0
 19 17  1  0  0  0  0
 20 21  1  0  0  0  0
 20 23  1  0  0  0  0
 22 20  1  0  0  0  0
 23 24  1  0  0  0  0
 24 29  1  0  0  0  0
 24 25  2  0  0  0  0
 25 30  1  0  0  0  0
 26 25  1  0  0  0  0
 27 26  2  0  0  0  0
 28 23  2  0  0  0  0
 28 27  1  0  0  0  0
 31 27  1  0  0  0  0
M  END
>  <minimizedAffinity>
-5.14147615

$$$$

 OpenBabel03272504013D

 31 33  0  0  0  0  0  0  0  0999 V2000
   37.4490   24.1520   32.8690 C   0  0  0  0  0  0  0  0  0  0  0  0
   36.4420   24.3770   31.9480 C   0  0  0  0  0  0  0  0  0  0  0  0
   35.9050   23.1680   31.5970 C   0  0  0  0  0  0  0  0  0  0  0  0
   36.5730   22.2420   32.2900 N   0  0  0  0  0  0  0  0  0  0  0  0
   37.4750   22.8400   33.0300 N   0  0  0  0  0  0  0  0  0  0  0  0
   36.1000   25.3110   31.5450 H   0  0  0  0  0  0  0  0  0  0  0  0
   35.0890   23.0100   30.8860 H   0  0  0  0  0  0  0  0  0  0  0  0
   35.3240   20.6680   34.2600 F   0  0  0  0  0  0  0  0  0  0  0  0
   35.6550   20.0570   33.1190 C   0  0  0  0  0  0  0  0  0  0  0  0
   36.2670   20.8500   32.1640 C   0  0  0  0  0  0  0  0  0  0  0  0
   36.6380   20.2660   30.9470 C   0  0  0  0  0  0  0  0  0  0  0  0
   37.1250   20.8400   30.1560 H   0  0  0  0  0  0  0  0  0  0  0  0
   36.3940   18.9260   30.7130 C   0  0  0  0  0  0  0  0  0  0  0  0
   36.6960   18.4970   29.7470 H   0  0  0  0  0  0  0  0  0  0  0  0
   35.7840   18.1350   31.6590 C   0  0  0  0  0  3  0  0  0  0  0  0
   35.4220   18.7200   32.8570 C   0  0  0  0  0  3  0  0  0  0  0  0
   38.2280   25.2700   33.4450 C   0  0  0  0  0  0  0  0  0  0  0  0
   39.3400   25.0440   33.3880 H   0  0  0  0  0  0  0  0  0  0  0  0
   38.1270   26.1080   32.7450 H   0  0  0  0  0  0  0  0  0  0  0  0
   37.9430   25.5220   34.8750 C   0  0  0  0  0  0  0  0  0  0  0  0
   36.8370   25.6360   35.0960 H   0  0  0  0  0  0  0  0  0  0  0  0
   38.3290   26.5670   35.0850 H   0  0  0  0  0  0  0  0  0  0  0  0
   38.4830   24.6350   35.8640 C   0  0  0  0  0  0  0  0  0  0  0  0
   37.8390   24.4300   37.0530 C   0  0  0  0  0  0  0  0  0  0  0  0
   38.3730   23.5600   38.0310 C   0  0  0  0  0  0  0  0  0  0  0  0
   39.5690   22.9490   37.6870 N   0  0  0  0  0  0  0  0  0  0  0  0
   40.1680   23.1830   36.4990 C   0  0  0  0  0  0  0  0  0  0  0  0
   39.6240   24.0210   35.5960 N   0  0  0  0  0  0  0  0  0  0  0  0
   36.9160   24.8400   37.4260 H   0  0  0  0  0  0  0  0  0  0  0  0
   37.9420   23.3360   38.9910 H   0  0  0  0  0  0  0  0  0  0  0  0
   41.0950   22.6650   36.3190 H   0  0  0  0  0  0  0  0  0  0  0  0
  1  5  2  0  0  0  0
  1 17  1  0  0  0  0
  2  1  1  0  0  0  0
  3  2  2  0  0  0  0
  3  4  1  0  0  0  0
  4  5  1  0  0  0  0
  6  2  1  0  0  0  0
  7  3  1  0  0  0  0
  9  8  1  0  0  0  0
 10  4  1  0  0  0  0
 10  9  2  0  0  0  0
 11 10  1  0  0  0  0
 12 11  1  0  0  0  0
 13 11  2  0  0  0  0
 13 15  1  0  0  0  0
 14 13  1  0  0  0  0
 15 16  2  0  0  0  0
 16  9  1  0  0  0  0
 17 20  1  0  0  0  0
 18 17  1  0  0  0  0
 19 17  1  0  0  0  0
 20 22  1  0  0  0  0
 20 21  1  0  0  0  0
 20 23  1  0  0  0  0
 23 24  1  0  0  0  0
 24 29  1  0  0  0  0
 24 25  2  0  0  0  0
 25 30  1  0  0  0  0
 26 25  1  0  0  0  0
 27 26  2  0  0  0  0
 28 23  2  0  0  0  0
 28 27  1  0  0  0  0
 31 27  1  0  0  0  0
M  END
>  <minimizedAffinity>
-5.10279655

$$$$

 OpenBabel03272504013D

 31 33  0  0  0  0  0  0  0  0999 V2000
   37.1030   27.0060   34.5250 C   0  0  0  0  0  0  0  0  0  0  0  0
   37.2280   26.0810   33.5050 C   0  0  0  0  0  0  0  0  0  0  0  0
   37.9250   25.0060   33.9870 C   0  0  0  0  0  0  0  0  0  0  0  0
   38.2100   25.2800   35.2620 N   0  0  0  0  0  0  0  0  0  0  0  0
   37.7190   26.4590   35.5580 N   0  0  0  0  0  0  0  0  0  0  0  0
   36.8650   26.1410   32.4970 H   0  0  0  0  0  0  0  0  0  0  0  0
   38.1880   24.1060   33.4230 H   0  0  0  0  0  0  0  0  0  0  0  0
   37.3400   24.2600   37.7370 F   0  0  0  0  0  0  0  0  0  0  0  0
   38.5320   23.8470   37.2990 C   0  0  0  0  0  0  0  0  0  0  0  0
   38.9400   24.3600   36.0800 C   0  0  0  0  0  0  0  0  0  0  0  0
   40.1810   23.9640   35.5680 C   0  0  0  0  0  0  0  0  0  0  0  0
   40.5570   24.3350   34.6120 H   0  0  0  0  0  0  0  0  0  0  0  0
   40.9750   23.0790   36.2710 C   0  0  0  0  0  0  0  0  0  0  0  0
   41.9440   22.7870   35.8430 H   0  0  0  0  0  0  0  0  0  0  0  0
   40.5730   22.5650   37.4830 C   0  0  0  0  0  3  0  0  0  0  0  0
   39.3470   22.9620   37.9800 C   0  0  0  0  0  3  0  0  0  0  0  0
   36.3930   28.2880   34.3160 C   0  0  0  0  0  0  0  0  0  0  0  0
   35.3460   28.2330   34.7540 H   0  0  0  0  0  0  0  0  0  0  0  0
   36.8790   29.0200   34.9720 H   0  0  0  0  0  0  0  0  0  0  0  0
   36.2130   28.6440   32.8910 C   0  0  0  0  0  0  0  0  0  0  0  0
   36.2610   27.7490   32.1980 H   0  0  0  0  0  0  0  0  0  0  0  0
   37.1480   29.2140   32.5970 H   0  0  0  0  0  0  0  0  0  0  0  0
   35.0720   29.4210   32.5010 C   0  0  0  0  0  0  0  0  0  0  0  0
   35.1890   30.4400   31.5970 C   0  0  0  0  0  0  0  0  0  0  0  0
   34.0660   31.2090   31.2160 C   0  0  0  0  0  0  0  0  0  0  0  0
   32.8710   30.8480   31.8190 N   0  0  0  0  0  0  0  0  0  0  0  0
   32.8040   29.8320   32.7070 C   0  0  0  0  0  0  0  0  0  0  0  0
   33.9010   29.1260   33.0430 N   0  0  0  0  0  0  0  0  0  0  0  0
   36.0520   30.8060   31.0670 H   0  0  0  0  0  0  0  0  0  0  0  0
   34.0580   32.0260   30.5160 H   0  0  0  0  0  0  0  0  0  0  0  0
   31.8340   29.6230   33.1250 H   0  0  0  0  0  0  0  0  0  0  0  0
  1  5  2  0  0  0  0
  2  3  2  0  0  0  0
  2  1  1  0  0  0  0
  3  4  1  0  0  0  0
  4  5  1  0  0  0  0
  4 10  1  0  0  0  0
  6  2  1  0  0  0  0
  7  3  1  0  0  0  0
  9  8  1  0  0  0  0
  9 16  1  0  0  0  0
 10  9  2  0  0  0  0
 11 10  1  0  0  0  0
 11 13  2  0  0  0  0
 12 11  1  0  0  0  0
 13 15  1  0  0  0  0
 14 13  1  0  0  0  0
 15 16  2  0  0  0  0
 17  1  1  0  0  0  0
 17 18  1  0  0  0  0
 17 19  1  0  0  0  0
 20 17  1  0  0  0  0
 21 20  1  0  0  0  0
 22 20  1  0  0  0  0
 23 20  1  0  0  0  0
 23 28  1  0  0  0  0
 24 23  2  0  0  0  0
 25 24  1  0  0  0  0
 25 26  2  0  0  0  0
 26 27  1  0  0  0  0
 27 28  2  0  0  0  0
 27 31  1  0  0  0  0
 29 24  1  0  0  0  0
 30 25  1  0  0  0  0
M  END
>  <minimizedAffinity>
-5.03792095

$$$$

 OpenBabel03272504013D

 31 33  0  0  0  0  0  0  0  0999 V2000
   37.1930   27.1080   34.4170 C   0  0  0  0  0  0  0  0  0  0  0  0
   37.8580   27.8530   35.3730 C   0  0  0  0  0  0  0  0  0  0  0  0
   38.5790   26.9960   36.1590 C   0  0  0  0  0  0  0  0  0  0  0  0
   38.3520   25.7670   35.6860 N   0  0  0  0  0  0  0  0  0  0  0  0
   37.5350   25.8550   34.6650 N   0  0  0  0  0  0  0  0  0  0  0  0
   37.8480   28.9160   35.5200 H   0  0  0  0  0  0  0  0  0  0  0  0
   39.2120   27.2780   37.0060 H   0  0  0  0  0  0  0  0  0  0  0  0
   37.5340   24.5640   38.0950 F   0  0  0  0  0  0  0  0  0  0  0  0
   38.5700   24.0060   37.4620 C   0  0  0  0  0  0  0  0  0  0  0  0
   38.9550   24.6140   36.2800 C   0  0  0  0  0  0  0  0  0  0  0  0
   40.0350   24.0740   35.5700 C   0  0  0  0  0  0  0  0  0  0  0  0
   40.3840   24.5100   34.6320 H   0  0  0  0  0  0  0  0  0  0  0  0
   40.6960   22.9600   36.0480 C   0  0  0  0  0  0  0  0  0  0  0  0
   41.5400   22.5600   35.4680 H   0  0  0  0  0  0  0  0  0  0  0  0
   40.3160   22.3520   37.2230 C   0  0  0  0  0  3  0  0  0  0  0  0
   39.2500   22.8910   37.9160 C   0  0  0  0  0  3  0  0  0  0  0  0
   36.3230   27.7530   33.4090 C   0  0  0  0  0  0  0  0  0  0  0  0
   35.2720   27.3250   33.4670 H   0  0  0  0  0  0  0  0  0  0  0  0
   36.1700   28.7840   33.7480 H   0  0  0  0  0  0  0  0  0  0  0  0
   36.7660   27.5380   32.0140 C   0  0  0  0  0  0  0  0  0  0  0  0
   37.7320   28.0760   31.7650 H   0  0  0  0  0  0  0  0  0  0  0  0
   36.0190   28.0940   31.3670 H   0  0  0  0  0  0  0  0  0  0  0  0
   36.8850   26.2000   31.5140 C   0  0  0  0  0  0  0  0  0  0  0  0
   35.8060   25.3600   31.4830 C   0  0  0  0  0  0  0  0  0  0  0  0
   35.9240   24.0390   30.9940 C   0  0  0  0  0  0  0  0  0  0  0  0
   37.1910   23.6810   30.5600 N   0  0  0  0  0  0  0  0  0  0  0  0
   38.2270   24.5460   30.6090 C   0  0  0  0  0  0  0  0  0  0  0  0
   38.0700   25.7970   31.0840 N   0  0  0  0  0  0  0  0  0  0  0  0
   34.7860   25.5240   31.7860 H   0  0  0  0  0  0  0  0  0  0  0  0
   35.1360   23.3080   30.9310 H   0  0  0  0  0  0  0  0  0  0  0  0
   39.1740   24.1810   30.2510 H   0  0  0  0  0  0  0  0  0  0  0  0
  1  5  2  0  0  0  0
  1  2  1  0  0  0  0
  2  6  1  0  0  0  0
  2  3  2  0  0  0  0
  3  7  1  0  0  0  0
  4  3  1  0  0  0  0
  4 10  1  0  0  0  0
  5  4  1  0  0  0  0
  9 16  1  0  0  0  0
  9  8  1  0  0  0  0
 10  9  2  0  0  0  0
 11 13  2  0  0  0  0
 11 10  1  0  0  0  0
 12 11  1  0  0  0  0
 13 15  1  0  0  0  0
 14 13  1  0  0  0  0
 15 16  2  0  0  0  0
 17 18  1  0  0  0  0
 17 19  1  0  0  0  0
 17  1  1  0  0  0  0
 20 17  1  0  0  0  0
 21 20  1  0  0  0  0
 22 20  1  0  0  0  0
 23 20  1  0  0  0  0
 24 23  1  0  0  0  0
 24 29  1  0  0  0  0
 25 24  2  0  0  0  0
 26 27  2  0  0  0  0
 26 25  1  0  0  0  0
 27 28  1  0  0  0  0
 28 23  2  0  0  0  0
 30 25  1  0  0  0  0
 31 27  1  0  0  0  0
M  END
>  <minimizedAffinity>
-5.02137089

$$$$

 OpenBabel03272504013D

 31 33  0  0  0  0  0  0  0  0999 V2000
   36.3550   28.8310   32.6670 C   0  0  0  0  0  0  0  0  0  0  0  0
   36.0620   29.9970   31.9850 C   0  0  0  0  0  0  0  0  0  0  0  0
   35.4260   30.8490   32.8470 C   0  0  0  0  0  0  0  0  0  0  0  0
   35.3400   30.2100   34.0160 N   0  0  0  0  0  0  0  0  0  0  0  0
   35.8900   29.0260   33.8890 N   0  0  0  0  0  0  0  0  0  0  0  0
   36.2710   30.2460   30.9620 H   0  0  0  0  0  0  0  0  0  0  0  0
   35.0660   31.8540   32.6080 H   0  0  0  0  0  0  0  0  0  0  0  0
   36.6440   31.8650   35.8800 F   0  0  0  0  0  0  0  0  0  0  0  0
   35.3450   31.6320   36.0850 C   0  0  0  0  0  0  0  0  0  0  0  0
   34.7240   30.8150   35.1570 C   0  0  0  0  0  0  0  0  0  0  0  0
   33.3620   30.5340   35.3180 C   0  0  0  0  0  0  0  0  0  0  0  0
   32.8170   29.8970   34.6180 H   0  0  0  0  0  0  0  0  0  0  0  0
   32.6610   31.0640   36.3840 C   0  0  0  0  0  0  0  0  0  0  0  0
   31.5930   30.8250   36.4830 H   0  0  0  0  0  0  0  0  0  0  0  0
   33.2750   31.8770   37.3090 C   0  0  0  0  0  3  0  0  0  0  0  0
   34.6190   32.1490   37.1420 C   0  0  0  0  0  3  0  0  0  0  0  0
   37.0470   27.7050   32.0020 C   0  0  0  0  0  0  0  0  0  0  0  0
   36.4020   27.2870   31.1650 H   0  0  0  0  0  0  0  0  0  0  0  0
   37.8860   28.1440   31.4480 H   0  0  0  0  0  0  0  0  0  0  0  0
   37.3280   26.5640   32.9000 C   0  0  0  0  0  0  0  0  0  0  0  0
   36.9330   26.7150   33.9510 H   0  0  0  0  0  0  0  0  0  0  0  0
   38.4490   26.5770   33.0710 H   0  0  0  0  0  0  0  0  0  0  0  0
   36.9510   25.2410   32.4920 C   0  0  0  0  0  0  0  0  0  0  0  0
   37.6220   24.1430   32.9550 C   0  0  0  0  0  0  0  0  0  0  0  0
   37.2540   22.8400   32.5500 C   0  0  0  0  0  0  0  0  0  0  0  0
   36.1840   22.7750   31.6710 N   0  0  0  0  0  0  0  0  0  0  0  0
   35.5520   23.8890   31.2410 C   0  0  0  0  0  0  0  0  0  0  0  0
   35.9370   25.1120   31.6520 N   0  0  0  0  0  0  0  0  0  0  0  0
   38.4550   24.0690   33.6340 H   0  0  0  0  0  0  0  0  0  0  0  0
   37.7190   21.9200   32.8590 H   0  0  0  0  0  0  0  0  0  0  0  0
   34.7320   23.7420   30.5590 H   0  0  0  0  0  0  0  0  0  0  0  0
  1  5  2  0  0  0  0
  2  1  1  0  0  0  0
  2  3  2  0  0  0  0
  3  4  1  0  0  0  0
  4 10  1  0  0  0  0
  5  4  1  0  0  0  0
  6  2  1  0  0  0  0
  7  3  1  0  0  0  0
  8  9  1  0  0  0  0
  9 16  1  0  0  0  0
 10 11  1  0  0  0  0
 10  9  2  0  0  0  0
 11 13  2  0  0  0  0
 12 11  1  0  0  0  0
 13 14  1  0  0  0  0
 13 15  1  0  0  0  0
 16 15  2  0  0  0  0
 17  1  1  0  0  0  0
 17 20  1  0  0  0  0
 18 17  1  0  0  0  0
 19 17  1  0  0  0  0
 20 22  1  0  0  0  0
 20 21  1  0  0  0  0
 23 20  1  0  0  0  0
 23 24  1  0  0  0  0
 24 29  1  0  0  0  0
 25 30  1  0  0  0  0
 25 24  2  0  0  0  0
 26 25  1  0  0  0  0
 27 28  1  0  0  0  0
 27 26  2  0  0  0  0
 28 23  2  0  0  0  0
 31 27  1  0  0  0  0
M  END
>  <minimizedAffinity>
-5.01540279

$$$$

 OpenBabel03272504013D

 31 33  0  0  0  0  0  0  0  0999 V2000
   36.4350   28.2250   33.1590 C   0  0  0  0  0  0  0  0  0  0  0  0
   36.2380   29.2850   32.2940 C   0  0  0  0  0  0  0  0  0  0  0  0
   35.5740   30.2720   32.9710 C   0  0  0  0  0  0  0  0  0  0  0  0
   35.3780   29.8150   34.2110 N   0  0  0  0  0  0  0  0  0  0  0  0
   35.8900   28.6110   34.3000 N   0  0  0  0  0  0  0  0  0  0  0  0
   36.5310   29.3740   31.2650 H   0  0  0  0  0  0  0  0  0  0  0  0
   35.2700   31.2400   32.5620 H   0  0  0  0  0  0  0  0  0  0  0  0
   32.6370   29.6500   34.8230 F   0  0  0  0  0  0  0  0  0  0  0  0
   33.3590   30.5350   35.5170 C   0  0  0  0  0  0  0  0  0  0  0  0
   34.7040   30.5990   35.2000 C   0  0  0  0  0  0  0  0  0  0  0  0
   35.5130   31.5070   35.8930 C   0  0  0  0  0  0  0  0  0  0  0  0
   36.5810   31.6030   35.6870 H   0  0  0  0  0  0  0  0  0  0  0  0
   34.9720   32.3180   36.8710 C   0  0  0  0  0  0  0  0  0  0  0  0
   35.6320   33.0200   37.3980 H   0  0  0  0  0  0  0  0  0  0  0  0
   33.6340   32.2570   37.1900 C   0  0  0  0  0  3  0  0  0  0  0  0
   32.8440   31.3590   36.5000 C   0  0  0  0  0  3  0  0  0  0  0  0
   37.1310   26.9950   32.7200 C   0  0  0  0  0  0  0  0  0  0  0  0
   36.4280   26.1040   32.7820 H   0  0  0  0  0  0  0  0  0  0  0  0
   37.2820   27.0950   31.6390 H   0  0  0  0  0  0  0  0  0  0  0  0
   38.3000   26.6410   33.5550 C   0  0  0  0  0  0  0  0  0  0  0  0
   38.7260   27.5240   34.1230 H   0  0  0  0  0  0  0  0  0  0  0  0
   39.1370   26.4090   32.8270 H   0  0  0  0  0  0  0  0  0  0  0  0
   38.1970   25.5520   34.4830 C   0  0  0  0  0  0  0  0  0  0  0  0
   38.0390   25.7790   35.8220 C   0  0  0  0  0  0  0  0  0  0  0  0
   37.9410   24.7070   36.7370 C   0  0  0  0  0  0  0  0  0  0  0  0
   38.0150   23.4420   36.1740 N   0  0  0  0  0  0  0  0  0  0  0  0
   38.1710   23.2670   34.8430 C   0  0  0  0  0  0  0  0  0  0  0  0
   38.2610   24.3190   34.0070 N   0  0  0  0  0  0  0  0  0  0  0  0
   37.9660   26.7050   36.3680 H   0  0  0  0  0  0  0  0  0  0  0  0
   37.8170   24.7850   37.8030 H   0  0  0  0  0  0  0  0  0  0  0  0
   38.2190   22.2490   34.4960 H   0  0  0  0  0  0  0  0  0  0  0  0
  1  5  2  0  0  0  0
  2  3  2  0  0  0  0
  2  1  1  0  0  0  0
  3  4  1  0  0  0  0
  4  5  1  0  0  0  0
  4 10  1  0  0  0  0
  6  2  1  0  0  0  0
  7  3  1  0  0  0  0
  8  9  1  0  0  0  0
  9 16  1  0  0  0  0
 10  9  2  0  0  0  0
 10 11  1  0  0  0  0
 11 13  2  0  0  0  0
 12 11  1  0  0  0  0
 13 15  1  0  0  0  0
 13 14  1  0  0  0  0
 16 15  2  0  0  0  0
 17 18  1  0  0  0  0
 17  1  1  0  0  0  0
 17 20  1  0  0  0  0
 19 17  1  0  0  0  0
 20 21  1  0  0  0  0
 20 23  1  0  0  0  0
 22 20  1  0  0  0  0
 23 24  1  0  0  0  0
 24 29  1  0  0  0  0
 24 25  2  0  0  0  0
 25 30  1  0  0  0  0
 26 25  1  0  0  0  0
 27 26  2  0  0  0  0
 28 23  2  0  0  0  0
 28 27  1  0  0  0  0
 31 27  1  0  0  0  0
M  END
>  <minimizedAffinity>
-5.00736046

$$$$

 OpenBabel03272504013D

 31 33  0  0  0  0  0  0  0  0999 V2000
   37.6810   27.2180   33.9570 C   0  0  0  0  0  0  0  0  0  0  0  0
   37.3810   27.6260   32.6710 C   0  0  0  0  0  0  0  0  0  0  0  0
   36.4010   28.5800   32.7420 C   0  0  0  0  0  0  0  0  0  0  0  0
   36.1210   28.7380   34.0380 N   0  0  0  0  0  0  0  0  0  0  0  0
   36.8820   27.9290   34.7340 N   0  0  0  0  0  0  0  0  0  0  0  0
   37.8070   27.2910   31.7450 H   0  0  0  0  0  0  0  0  0  0  0  0
   35.9480   29.1000   31.8930 H   0  0  0  0  0  0  0  0  0  0  0  0
   36.5780   30.8820   35.8030 F   0  0  0  0  0  0  0  0  0  0  0  0
   35.3320   30.7300   35.3470 C   0  0  0  0  0  0  0  0  0  0  0  0
   35.1300   29.6700   34.4800 C   0  0  0  0  0  0  0  0  0  0  0  0
   33.8440   29.4590   33.9680 C   0  0  0  0  0  0  0  0  0  0  0  0
   33.6230   28.6400   33.2810 H   0  0  0  0  0  0  0  0  0  0  0  0
   32.8050   30.2960   34.3260 C   0  0  0  0  0  0  0  0  0  0  0  0
   31.8070   30.1050   33.9070 H   0  0  0  0  0  0  0  0  0  0  0  0
   33.0010   31.3520   35.1860 C   0  0  0  0  0  3  0  0  0  0  0  0
   34.2730   31.5520   35.6870 C   0  0  0  0  0  3  0  0  0  0  0  0
   38.7100   26.1860   34.2150 C   0  0  0  0  0  0  0  0  0  0  0  0
   39.3400   26.0190   33.2840 H   0  0  0  0  0  0  0  0  0  0  0  0
   39.4330   26.6380   34.9040 H   0  0  0  0  0  0  0  0  0  0  0  0
   38.1520   24.8610   34.5640 C   0  0  0  0  0  0  0  0  0  0  0  0
   38.3510   24.0720   33.7760 H   0  0  0  0  0  0  0  0  0  0  0  0
   37.0260   24.9760   34.4960 H   0  0  0  0  0  0  0  0  0  0  0  0
   38.4690   24.2790   35.8360 C   0  0  0  0  0  0  0  0  0  0  0  0
   39.5420   23.4440   35.9800 C   0  0  0  0  0  0  0  0  0  0  0  0
   39.8520   22.8660   37.2320 C   0  0  0  0  0  0  0  0  0  0  0  0
   39.0000   23.2120   38.2700 N   0  0  0  0  0  0  0  0  0  0  0  0
   37.9510   24.0420   38.0780 C   0  0  0  0  0  0  0  0  0  0  0  0
   37.6920   24.5700   36.8660 N   0  0  0  0  0  0  0  0  0  0  0  0
   40.2680   23.1090   35.2580 H   0  0  0  0  0  0  0  0  0  0  0  0
   40.6710   22.2010   37.4440 H   0  0  0  0  0  0  0  0  0  0  0  0
   37.3430   24.2540   38.9410 H   0  0  0  0  0  0  0  0  0  0  0  0
  1 17  1  0  0  0  0
  1  5  2  0  0  0  0
  2  3  2  0  0  0  0
  2  1  1  0  0  0  0
  3  4  1  0  0  0  0
  4 10  1  0  0  0  0
  4  5  1  0  0  0  0
  6  2  1  0  0  0  0
  7  3  1  0  0  0  0
  9 16  1  0  0  0  0
  9  8  1  0  0  0  0
 10  9  2  0  0  0  0
 11 13  2  0  0  0  0
 11 10  1  0  0  0  0
 12 11  1  0  0  0  0
 13 15  1  0  0  0  0
 14 13  1  0  0  0  0
 15 16  2  0  0  0  0
 17 20  1  0  0  0  0
 17 19  1  0  0  0  0
 18 17  1  0  0  0  0
 20 23  1  0  0  0  0
 21 20  1  0  0  0  0
 22 20  1  0  0  0  0
 23 24  2  0  0  0  0
 23 28  1  0  0  0  0
 24 25  1  0  0  0  0
 25 30  1  0  0  0  0
 25 26  2  0  0  0  0
 27 26  1  0  0  0  0
 27 31  1  0  0  0  0
 28 27  2  0  0  0  0
 29 24  1  0  0  0  0
M  END
>  <minimizedAffinity>
-4.99579048

$$$$

 OpenBabel03272504013D

 31 33  0  0  0  0  0  0  0  0999 V2000
   36.3600   28.3280   32.7940 C   0  0  0  0  0  0  0  0  0  0  0  0
   35.9270   29.3460   31.9640 C   0  0  0  0  0  0  0  0  0  0  0  0
   35.2590   30.2650   32.7270 C   0  0  0  0  0  0  0  0  0  0  0  0
   35.2910   29.8100   33.9830 N   0  0  0  0  0  0  0  0  0  0  0  0
   35.9400   28.6710   34.0000 N   0  0  0  0  0  0  0  0  0  0  0  0
   36.0610   29.4490   30.9050 H   0  0  0  0  0  0  0  0  0  0  0  0
   34.7960   31.1870   32.3640 H   0  0  0  0  0  0  0  0  0  0  0  0
   32.5950   29.5920   34.7590 F   0  0  0  0  0  0  0  0  0  0  0  0
   33.3570   30.4400   35.4540 C   0  0  0  0  0  0  0  0  0  0  0  0
   34.6790   30.5320   35.0560 C   0  0  0  0  0  0  0  0  0  0  0  0
   35.5280   31.4050   35.7470 C   0  0  0  0  0  0  0  0  0  0  0  0
   36.5800   31.5200   35.4790 H   0  0  0  0  0  0  0  0  0  0  0  0
   35.0480   32.1550   36.8020 C   0  0  0  0  0  0  0  0  0  0  0  0
   35.7390   32.8310   37.3250 H   0  0  0  0  0  0  0  0  0  0  0  0
   33.7340   32.0670   37.2020 C   0  0  0  0  0  3  0  0  0  0  0  0
   32.9040   31.2030   36.5150 C   0  0  0  0  0  3  0  0  0  0  0  0
   37.1190   27.1750   32.2630 C   0  0  0  0  0  0  0  0  0  0  0  0
   37.9100   27.5310   31.5280 H   0  0  0  0  0  0  0  0  0  0  0  0
   37.7280   26.7980   33.0930 H   0  0  0  0  0  0  0  0  0  0  0  0
   36.2870   26.2050   31.5160 C   0  0  0  0  0  0  0  0  0  0  0  0
   36.3670   26.3220   30.3920 H   0  0  0  0  0  0  0  0  0  0  0  0
   35.2130   26.5160   31.7050 H   0  0  0  0  0  0  0  0  0  0  0  0
   36.4080   24.8060   31.8070 C   0  0  0  0  0  0  0  0  0  0  0  0
   35.6070   23.8860   31.1890 C   0  0  0  0  0  0  0  0  0  0  0  0
   35.7230   22.5080   31.4780 C   0  0  0  0  0  0  0  0  0  0  0  0
   36.6930   22.1800   32.4130 N   0  0  0  0  0  0  0  0  0  0  0  0
   37.4610   23.1250   32.9980 C   0  0  0  0  0  0  0  0  0  0  0  0
   37.3160   24.4290   32.6930 N   0  0  0  0  0  0  0  0  0  0  0  0
   34.8320   24.0190   30.4530 H   0  0  0  0  0  0  0  0  0  0  0  0
   35.1410   21.7120   31.0460 H   0  0  0  0  0  0  0  0  0  0  0  0
   38.1870   22.7780   33.7130 H   0  0  0  0  0  0  0  0  0  0  0  0
  1  5  2  0  0  0  0
  2  3  2  0  0  0  0
  2  1  1  0  0  0  0
  3  4  1  0  0  0  0
  4  5  1  0  0  0  0
  4 10  1  0  0  0  0
  6  2  1  0  0  0  0
  7  3  1  0  0  0  0
  8  9  1  0  0  0  0
  9 16  1  0  0  0  0
 10  9  2  0  0  0  0
 10 11  1  0  0  0  0
 11 13  2  0  0  0  0
 12 11  1  0  0  0  0
 13 15  1  0  0  0  0
 13 14  1  0  0  0  0
 16 15  2  0  0  0  0
 17  1  1  0  0  0  0
 17 19  1  0  0  0  0
 18 17  1  0  0  0  0
 20 22  1  0  0  0  0
 20 23  1  0  0  0  0
 20 17  1  0  0  0  0
 21 20  1  0  0  0  0
 23 28  1  0  0  0  0
 24 25  1  0  0  0  0
 24 23  2  0  0  0  0
 25 26  2  0  0  0  0
 26 27  1  0  0  0  0
 27 31  1  0  0  0  0
 28 27  2  0  0  0  0
 29 24  1  0  0  0  0
 30 25  1  0  0  0  0
M  END
>  <minimizedAffinity>
-4.98266172

$$$$
