
 OpenBabel03272510243D

 32 35  0  0  0  0  0  0  0  0999 V2000
   36.2430   30.1340   46.2770 C   0  0  0  0  0  0  0  0  0  0  0  0
   37.1600   30.8560   47.0090 C   0  0  0  0  0  0  0  0  0  0  0  0
   37.9380   31.8070   46.3880 C   0  0  0  0  0  0  0  0  0  0  0  0
   37.7520   31.9920   45.0200 C   0  0  0  0  0  0  0  0  0  0  0  0
   38.4120   32.8800   44.1960 N   0  0  0  0  0  0  0  0  0  0  0  0
   37.9050   32.7000   42.9810 C   0  0  0  0  0  0  0  0  0  0  0  0
   36.9580   31.7460   42.9920 N   0  0  0  0  0  0  0  0  0  0  0  0
   36.8510   31.2960   44.2550 C   0  0  0  0  0  0  0  0  0  0  0  0
   36.0820   30.3450   44.9070 C   0  0  0  0  0  0  0  0  0  0  0  0
   35.6120   29.3740   46.7390 H   0  0  0  0  0  0  0  0  0  0  0  0
   38.6490   32.3660   46.9550 H   0  0  0  0  0  0  0  0  0  0  0  0
   39.1690   33.5460   44.5390 H   0  0  0  0  0  0  0  0  0  0  0  0
   35.3710   29.7890   44.3280 H   0  0  0  0  0  0  0  0  0  0  0  0
   38.1210   30.9170   50.6480 C   0  0  0  0  0  0  0  0  0  0  0  0
   38.1050   31.2790   49.3050 C   0  0  0  0  0  0  0  0  0  0  0  0
   37.2760   30.5840   48.4290 C   0  0  0  0  0  0  0  0  0  0  0  0
   36.5080   29.5660   48.9390 N   0  0  0  0  0  0  0  0  0  0  0  0
   36.5450   29.2340   50.2550 C   0  0  0  0  0  0  0  0  0  0  0  0
   37.3370   29.8990   51.0920 N   0  0  0  0  0  0  0  0  0  0  0  0
   38.7790   31.4900   51.2690 H   0  0  0  0  0  0  0  0  0  0  0  0
   38.6980   32.0660   48.9120 H   0  0  0  0  0  0  0  0  0  0  0  0
   35.9310   28.4280   50.6310 H   0  0  0  0  0  0  0  0  0  0  0  0
   38.3930   33.4750   41.9310 O   0  0  0  0  0  0  0  0  0  0  0  0
   39.2500   33.6100   39.2600 F   0  0  0  0  0  0  0  0  0  0  0  0
   37.9860   33.9520   39.5250 C   0  0  0  0  0  0  0  0  0  0  0  0
   37.6330   33.8630   40.8480 C   0  0  0  0  0  0  0  0  0  0  0  0
   36.3320   34.1960   41.2400 C   0  0  0  0  0  0  0  0  0  0  0  0
   35.9340   34.1660   42.2610 H   0  0  0  0  0  0  0  0  0  0  0  0
   35.3930   34.6170   40.2980 C   0  0  0  0  0  0  0  0  0  0  0  0
   34.3780   34.8810   40.5720 H   0  0  0  0  0  0  0  0  0  0  0  0
   35.8040   34.6890   38.9650 C   0  0  0  0  0  3  0  0  0  0  0  0
   37.0820   34.3640   38.5670 C   0  0  0  0  0  3  0  0  0  0  0  0
  1 10  1  0  0  0  0
  1  2  1  0  0  0  0
  2 16  1  0  0  0  0
  3 11  1  0  0  0  0
  3  2  2  0  0  0  0
  4  3  1  0  0  0  0
  5 12  1  0  0  0  0
  5  4  1  0  0  0  0
  6  7  2  0  0  0  0
  6  5  1  0  0  0  0
  7  8  1  0  0  0  0
  8  9  1  0  0  0  0
  8  4  2  0  0  0  0
  9  1  2  0  0  0  0
 13  9  1  0  0  0  0
 14 19  1  0  0  0  0
 14 20  1  0  0  0  0
 15 14  2  0  0  0  0
 16 17  2  0  0  0  0
 16 15  1  0  0  0  0
 17 18  1  0  0  0  0
 18 22  1  0  0  0  0
 18 19  2  0  0  0  0
 21 15  1  0  0  0  0
 23  6  1  0  0  0  0
 24 25  1  0  0  0  0
 25 26  1  0  0  0  0
 26 27  2  0  0  0  0
 26 23  1  0  0  0  0
 27 28  1  0  0  0  0
 29 30  1  0  0  0  0
 29 27  1  0  0  0  0
 31 29  2  0  0  0  0
 32 31  1  0  0  0  0
 32 25  2  0  0  0  0
M  END
>  <minimizedAffinity>
-5.37046623

>  <minimizedRMSD>
2.84485102

$$$$
