
 OpenBabel03272508083D

 24 25  0  0  0  0  0  0  0  0999 V2000
   38.7650   32.9860   48.1650 O   0  0  0  0  0  0  0  0  0  0  0  0
   38.5370   31.8320   47.2610 P   0  0  2  0  0  0  0  0  0  0  0  0
   37.2160   32.1640   46.2330 O   0  0  0  0  0  0  0  0  0  0  0  0
   36.4820   32.5020   46.8380 H   0  0  0  0  0  0  0  0  0  0  0  0
   38.2940   30.3440   48.0380 O   0  0  0  0  0  0  0  0  0  0  0  0
   37.1860   30.1070   51.5690 C   0  0  0  0  0  0  0  0  0  0  0  0
   38.0290   30.4650   50.5130 C   0  0  0  0  0  0  0  0  0  0  0  0
   37.6540   30.1140   49.2180 C   0  0  0  0  0  0  0  0  0  0  0  0
   36.4800   29.4360   49.0430 N   0  0  0  0  0  0  0  0  0  0  0  0
   35.6950   29.1100   50.0820 C   0  0  0  0  0  0  0  0  0  0  0  0
   36.0450   29.4430   51.3400 N   0  0  0  0  0  0  0  0  0  0  0  0
   37.5720   30.4280   52.5310 H   0  0  0  0  0  0  0  0  0  0  0  0
   38.9420   30.9830   50.5650 H   0  0  0  0  0  0  0  0  0  0  0  0
   34.7580   28.5690   49.9530 H   0  0  0  0  0  0  0  0  0  0  0  0
   39.8780   31.6930   46.2280 O   0  0  0  0  0  0  0  0  0  0  0  0
   39.8250   34.0430   44.9170 F   0  0  0  0  0  0  0  0  0  0  0  0
   39.8020   32.8460   44.2430 C   0  0  0  0  0  0  0  0  0  0  0  0
   39.8270   31.5910   44.8600 C   0  0  0  0  0  0  0  0  0  0  0  0
   39.7970   30.4930   44.0230 C   0  0  0  0  0  0  0  0  0  0  0  0
   39.8200   29.5570   44.5980 H   0  0  0  0  0  0  0  0  0  0  0  0
   39.7470   30.6390   42.6660 C   0  0  0  0  0  0  0  0  0  0  0  0
   39.7270   29.7250   42.0850 H   0  0  0  0  0  0  0  0  0  0  0  0
   39.7240   31.8600   42.0730 C   0  0  0  0  0  3  0  0  0  0  0  0
   39.7510   32.9900   42.8710 C   0  0  0  0  0  3  0  0  0  0  0  0
  2  5  1  0  0  0  0
  2  1  2  1  0  0  0
  3  4  1  0  0  0  0
  3  2  1  0  0  0  0
  5  8  1  0  0  0  0
  6 12  1  0  0  0  0
  7 13  1  0  0  0  0
  7  6  2  0  0  0  0
  8  7  1  0  0  0  0
  9  8  2  0  0  0  0
  9 10  1  0  0  0  0
 10 11  2  0  0  0  0
 11  6  1  0  0  0  0
 14 10  1  0  0  0  0
 15  2  1  0  0  0  0
 17 18  1  0  0  0  0
 17 16  1  0  0  0  0
 18 15  1  0  0  0  0
 19 20  1  0  0  0  0
 19 18  2  0  0  0  0
 21 19  1  0  0  0  0
 22 21  1  0  0  0  0
 23 21  2  0  0  0  0
 23 24  1  0  0  0  0
 24 17  2  0  0  0  0
M  END
>  <minimizedAffinity>
-5.20320511

>  <minimizedRMSD>
2.58433032

$$$$
