
 OpenBabel03272508193D

 31 33  0  0  0  0  0  0  0  0999 V2000
   37.3760   27.4330   33.3540 C   0  0  0  0  0  0  0  0  0  0  0  0
   36.5150   28.3950   32.8100 C   0  0  0  0  0  0  0  0  0  0  0  0
   36.8310   28.7050   31.5130 C   0  0  0  0  0  0  0  0  0  0  0  0
   37.8530   28.1450   30.8430 N   0  0  0  0  0  0  0  0  0  0  0  0
   38.6580   27.2280   31.3900 C   0  0  0  0  0  0  0  0  0  0  0  0
   38.4170   26.8730   32.6490 N   0  0  0  0  0  0  0  0  0  0  0  0
   36.2400   29.4390   30.9760 H   0  0  0  0  0  0  0  0  0  0  0  0
   39.4940   26.7030   30.9970 H   0  0  0  0  0  0  0  0  0  0  0  0
   37.0460   26.9540   34.7650 C   0  0  0  0  0  0  0  0  0  0  0  0
   37.8840   26.0600   35.4700 C   0  0  0  0  0  0  0  0  0  0  0  0
   38.1450   27.5300   35.7350 C   0  0  0  0  0  0  0  0  0  0  0  0
   36.0400   27.2710   35.1710 H   0  0  0  0  0  0  0  0  0  0  0  0
   37.5090   25.5180   36.3530 H   0  0  0  0  0  0  0  0  0  0  0  0
   38.6820   25.4740   34.9430 H   0  0  0  0  0  0  0  0  0  0  0  0
   37.7970   27.9810   36.6660 H   0  0  0  0  0  0  0  0  0  0  0  0
   39.0680   27.8920   35.3060 H   0  0  0  0  0  0  0  0  0  0  0  0
   35.4330   29.0040   33.5550 C   0  0  0  0  0  0  0  0  0  0  0  0
   34.4910   29.0800   32.9590 H   0  0  0  0  0  0  0  0  0  0  0  0
   35.1800   28.3290   34.4000 H   0  0  0  0  0  0  0  0  0  0  0  0
   35.6780   30.3500   34.1090 C   0  0  0  0  0  0  0  0  0  0  0  0
   36.6890   30.4190   34.5720 H   0  0  0  0  0  0  0  0  0  0  0  0
   35.7460   31.1180   33.2810 H   0  0  0  0  0  0  0  0  0  0  0  0
   36.6170   32.1380   35.9670 F   0  0  0  0  0  0  0  0  0  0  0  0
   35.3260   31.6900   36.0510 C   0  0  0  0  0  0  0  0  0  0  0  0
   34.7500   30.7900   35.1650 C   0  0  0  0  0  0  0  0  0  0  0  0
   33.4230   30.4280   35.3770 C   0  0  0  0  0  0  0  0  0  0  0  0
   33.0490   29.7350   34.6650 H   0  0  0  0  0  0  0  0  0  0  0  0
   32.7200   30.9520   36.4350 C   0  0  0  0  0  0  0  0  0  0  0  0
   31.6960   30.6380   36.5550 H   0  0  0  0  0  0  0  0  0  0  0  0
   33.3100   31.8560   37.3190 C   0  0  0  0  0  3  0  0  0  0  0  0
   34.6200   32.2180   37.1130 C   0  0  0  0  0  3  0  0  0  0  0  0
  1  9  1  0  0  0  0
  2  1  1  0  0  0  0
  2 17  1  0  0  0  0
  3  2  2  0  0  0  0
  4  5  2  0  0  0  0
  4  3  1  0  0  0  0
  5  6  1  0  0  0  0
  6  1  2  0  0  0  0
  7  3  1  0  0  0  0
  8  5  1  0  0  0  0
  9 12  1  0  0  0  0
  9 10  1  0  0  0  0
  9 11  1  0  0  0  0
 10 11  1  0  0  0  0
 10 13  1  0  0  0  0
 11 15  1  0  0  0  0
 14 10  1  0  0  0  0
 16 11  1  0  0  0  0
 17 20  1  0  0  0  0
 17 19  1  0  0  0  0
 18 17  1  0  0  0  0
 20 21  1  0  0  0  0
 20 25  1  0  0  0  0
 22 20  1  0  0  0  0
 23 24  1  0  0  0  0
 24 31  1  0  0  0  0
 25 26  1  0  0  0  0
 25 24  2  0  0  0  0
 26 28  2  0  0  0  0
 27 26  1  0  0  0  0
 28 29  1  0  0  0  0
 28 30  1  0  0  0  0
 31 30  2  0  0  0  0
M  END
>  <minimizedAffinity>
-5.08994246

$$$$

 OpenBabel03272508193D

 31 33  0  0  0  0  0  0  0  0999 V2000
   36.3250   23.5460   31.9710 C   0  0  0  0  0  0  0  0  0  0  0  0
   37.3540   24.2010   32.6600 C   0  0  0  0  0  0  0  0  0  0  0  0
   37.3250   25.5590   32.4750 C   0  0  0  0  0  0  0  0  0  0  0  0
   36.4090   26.1860   31.7170 N   0  0  0  0  0  0  0  0  0  0  0  0
   35.4370   25.5330   31.0720 C   0  0  0  0  0  0  0  0  0  0  0  0
   35.3980   24.2090   31.2000 N   0  0  0  0  0  0  0  0  0  0  0  0
   38.0710   26.1840   32.9550 H   0  0  0  0  0  0  0  0  0  0  0  0
   34.6530   25.8810   30.4450 H   0  0  0  0  0  0  0  0  0  0  0  0
   36.2190   22.0400   32.1920 C   0  0  0  0  0  0  0  0  0  0  0  0
   35.4080   21.2170   31.3770 C   0  0  0  0  0  0  0  0  0  0  0  0
   36.8550   21.3270   30.9400 C   0  0  0  0  0  0  0  0  0  0  0  0
   36.7410   21.6370   33.1090 H   0  0  0  0  0  0  0  0  0  0  0  0
   35.1290   20.2030   31.7060 H   0  0  0  0  0  0  0  0  0  0  0  0
   34.6240   21.6560   30.7050 H   0  0  0  0  0  0  0  0  0  0  0  0
   37.5430   20.5020   31.1350 H   0  0  0  0  0  0  0  0  0  0  0  0
   36.9950   21.9040   30.0370 H   0  0  0  0  0  0  0  0  0  0  0  0
   38.3450   23.5070   33.4540 C   0  0  0  0  0  0  0  0  0  0  0  0
   37.9020   22.6970   34.0830 H   0  0  0  0  0  0  0  0  0  0  0  0
   39.0310   22.9810   32.7570 H   0  0  0  0  0  0  0  0  0  0  0  0
   39.1690   24.3290   34.3630 C   0  0  0  0  0  0  0  0  0  0  0  0
   40.2430   24.2970   34.0750 H   0  0  0  0  0  0  0  0  0  0  0  0
   38.9250   25.4270   34.2420 H   0  0  0  0  0  0  0  0  0  0  0  0
   37.2760   25.4880   35.9770 F   0  0  0  0  0  0  0  0  0  0  0  0
   38.1550   24.5830   36.5080 C   0  0  0  0  0  0  0  0  0  0  0  0
   39.1470   23.9370   35.7830 C   0  0  0  0  0  0  0  0  0  0  0  0
   39.9660   23.0390   36.4600 C   0  0  0  0  0  0  0  0  0  0  0  0
   40.7040   22.5850   35.8470 H   0  0  0  0  0  0  0  0  0  0  0  0
   39.7870   22.8110   37.8030 C   0  0  0  0  0  0  0  0  0  0  0  0
   40.4490   22.1060   38.2800 H   0  0  0  0  0  0  0  0  0  0  0  0
   38.7860   23.4660   38.5210 C   0  0  0  0  0  3  0  0  0  0  0  0
   37.9730   24.3530   37.8560 C   0  0  0  0  0  3  0  0  0  0  0  0
  1  9  1  0  0  0  0
  1  2  1  0  0  0  0
  2 17  1  0  0  0  0
  3  2  2  0  0  0  0
  3  7  1  0  0  0  0
  4  3  1  0  0  0  0
  5  6  1  0  0  0  0
  5  4  2  0  0  0  0
  6  1  2  0  0  0  0
  8  5  1  0  0  0  0
  9 12  1  0  0  0  0
 10 13  1  0  0  0  0
 10  9  1  0  0  0  0
 11 15  1  0  0  0  0
 11 10  1  0  0  0  0
 11  9  1  0  0  0  0
 14 10  1  0  0  0  0
 16 11  1  0  0  0  0
 17 18  1  0  0  0  0
 17 20  1  0  0  0  0
 19 17  1  0  0  0  0
 20 25  1  0  0  0  0
 21 20  1  0  0  0  0
 22 20  1  0  0  0  0
 23 24  1  0  0  0  0
 24 31  1  0  0  0  0
 25 26  1  0  0  0  0
 25 24  2  0  0  0  0
 26 28  2  0  0  0  0
 27 26  1  0  0  0  0
 28 29  1  0  0  0  0
 28 30  1  0  0  0  0
 31 30  2  0  0  0  0
M  END
>  <minimizedAffinity>
-5.03784227

$$$$

 OpenBabel03272508193D

 31 33  0  0  0  0  0  0  0  0999 V2000
   38.0840   25.1090   36.3270 C   0  0  0  0  0  0  0  0  0  0  0  0
   38.1190   23.8000   35.8310 C   0  0  0  0  0  0  0  0  0  0  0  0
   38.0920   22.8610   36.8290 C   0  0  0  0  0  0  0  0  0  0  0  0
   38.0370   23.1680   38.1360 N   0  0  0  0  0  0  0  0  0  0  0  0
   38.0050   24.4290   38.5800 C   0  0  0  0  0  0  0  0  0  0  0  0
   38.0290   25.4000   37.6700 N   0  0  0  0  0  0  0  0  0  0  0  0
   38.1150   21.8060   36.5770 H   0  0  0  0  0  0  0  0  0  0  0  0
   37.9620   24.8270   39.5640 H   0  0  0  0  0  0  0  0  0  0  0  0
   38.0170   26.2220   35.2860 C   0  0  0  0  0  0  0  0  0  0  0  0
   38.1200   27.5880   35.6390 C   0  0  0  0  0  0  0  0  0  0  0  0
   39.4250   26.9250   35.2450 C   0  0  0  0  0  0  0  0  0  0  0  0
   37.7720   25.8990   34.2320 H   0  0  0  0  0  0  0  0  0  0  0  0
   37.8010   28.3740   34.9360 H   0  0  0  0  0  0  0  0  0  0  0  0
   38.0040   27.9230   36.7040 H   0  0  0  0  0  0  0  0  0  0  0  0
   39.8540   27.1200   34.2600 H   0  0  0  0  0  0  0  0  0  0  0  0
   40.1020   26.7680   36.0730 H   0  0  0  0  0  0  0  0  0  0  0  0
   38.2000   23.4870   34.4190 C   0  0  0  0  0  0  0  0  0  0  0  0
   37.3370   23.8940   33.8380 H   0  0  0  0  0  0  0  0  0  0  0  0
   39.0900   24.0090   34.0060 H   0  0  0  0  0  0  0  0  0  0  0  0
   38.3050   22.0600   34.0560 C   0  0  0  0  0  0  0  0  0  0  0  0
   39.2870   21.8340   33.5830 H   0  0  0  0  0  0  0  0  0  0  0  0
   38.3350   21.4120   34.9820 H   0  0  0  0  0  0  0  0  0  0  0  0
   36.0460   20.8780   35.0710 F   0  0  0  0  0  0  0  0  0  0  0  0
   36.2030   20.9840   33.7150 C   0  0  0  0  0  0  0  0  0  0  0  0
   37.3010   21.5650   33.0960 C   0  0  0  0  0  0  0  0  0  0  0  0
   37.3200   21.6030   31.7060 C   0  0  0  0  0  0  0  0  0  0  0  0
   38.1900   22.0570   31.3010 H   0  0  0  0  0  0  0  0  0  0  0  0
   36.2780   21.0770   30.9820 C   0  0  0  0  0  0  0  0  0  0  0  0
   36.3420   21.1320   29.9070 H   0  0  0  0  0  0  0  0  0  0  0  0
   35.1780   20.4960   31.6150 C   0  0  0  0  0  3  0  0  0  0  0  0
   35.1540   20.4570   32.9880 C   0  0  0  0  0  3  0  0  0  0  0  0
  1  6  1  0  0  0  0
  2  1  2  0  0  0  0
  2  3  1  0  0  0  0
  3  4  2  0  0  0  0
  4  5  1  0  0  0  0
  5  8  1  0  0  0  0
  6  5  2  0  0  0  0
  7  3  1  0  0  0  0
  9 10  1  0  0  0  0
  9  1  1  0  0  0  0
 10 14  1  0  0  0  0
 11  9  1  0  0  0  0
 11 10  1  0  0  0  0
 11 16  1  0  0  0  0
 12  9  1  0  0  0  0
 13 10  1  0  0  0  0
 15 11  1  0  0  0  0
 17  2  1  0  0  0  0
 18 17  1  0  0  0  0
 19 17  1  0  0  0  0
 20 17  1  0  0  0  0
 20 22  1  0  0  0  0
 21 20  1  0  0  0  0
 24 23  1  0  0  0  0
 25 24  1  0  0  0  0
 25 20  1  0  0  0  0
 26 25  2  0  0  0  0
 27 26  1  0  0  0  0
 28 30  2  0  0  0  0
 28 26  1  0  0  0  0
 29 28  1  0  0  0  0
 30 31  1  0  0  0  0
 31 24  2  0  0  0  0
M  END
>  <minimizedAffinity>
-4.99993992

$$$$

 OpenBabel03272508193D

 31 33  0  0  0  0  0  0  0  0999 V2000
   36.6530   26.2920   32.2000 C   0  0  0  0  0  0  0  0  0  0  0  0
   37.3140   25.1830   32.7430 C   0  0  0  0  0  0  0  0  0  0  0  0
   36.7860   23.9950   32.3090 C   0  0  0  0  0  0  0  0  0  0  0  0
   35.7500   23.9100   31.4560 N   0  0  0  0  0  0  0  0  0  0  0  0
   35.1400   24.9880   30.9540 C   0  0  0  0  0  0  0  0  0  0  0  0
   35.5940   26.1810   31.3290 N   0  0  0  0  0  0  0  0  0  0  0  0
   37.2090   23.0580   32.6570 H   0  0  0  0  0  0  0  0  0  0  0  0
   34.3220   25.0830   30.2820 H   0  0  0  0  0  0  0  0  0  0  0  0
   37.2310   27.6590   32.5530 C   0  0  0  0  0  0  0  0  0  0  0  0
   36.5510   28.8620   32.2520 C   0  0  0  0  0  0  0  0  0  0  0  0
   36.2940   28.3080   33.6400 C   0  0  0  0  0  0  0  0  0  0  0  0
   38.2810   27.6600   32.9710 H   0  0  0  0  0  0  0  0  0  0  0  0
   37.0860   29.8250   32.2600 H   0  0  0  0  0  0  0  0  0  0  0  0
   35.6930   28.8790   31.5290 H   0  0  0  0  0  0  0  0  0  0  0  0
   36.7800   28.7670   34.5030 H   0  0  0  0  0  0  0  0  0  0  0  0
   35.3010   27.9020   33.7700 H   0  0  0  0  0  0  0  0  0  0  0  0
   38.4150   25.2930   33.6780 C   0  0  0  0  0  0  0  0  0  0  0  0
   39.2470   24.5830   33.4490 H   0  0  0  0  0  0  0  0  0  0  0  0
   38.8630   26.3020   33.5570 H   0  0  0  0  0  0  0  0  0  0  0  0
   38.0980   25.1070   35.1080 C   0  0  0  0  0  0  0  0  0  0  0  0
   38.1020   26.0780   35.6520 H   0  0  0  0  0  0  0  0  0  0  0  0
   37.0270   24.7670   35.2400 H   0  0  0  0  0  0  0  0  0  0  0  0
   37.2920   24.2410   37.5840 F   0  0  0  0  0  0  0  0  0  0  0  0
   38.5190   23.8680   37.1030 C   0  0  0  0  0  0  0  0  0  0  0  0
   39.0230   24.2460   35.8660 C   0  0  0  0  0  0  0  0  0  0  0  0
   40.2870   23.7870   35.5110 C   0  0  0  0  0  0  0  0  0  0  0  0
   40.6110   24.1180   34.5560 H   0  0  0  0  0  0  0  0  0  0  0  0
   41.0030   22.9880   36.3690 C   0  0  0  0  0  0  0  0  0  0  0  0
   41.9780   22.6600   36.0470 H   0  0  0  0  0  0  0  0  0  0  0  0
   40.4860   22.6140   37.6100 C   0  0  0  0  0  3  0  0  0  0  0  0
   39.2360   23.0640   37.9650 C   0  0  0  0  0  3  0  0  0  0  0  0
  1  9  1  0  0  0  0
  1  2  1  0  0  0  0
  2 17  1  0  0  0  0
  3  7  1  0  0  0  0
  3  2  2  0  0  0  0
  4  3  1  0  0  0  0
  5  6  1  0  0  0  0
  5  4  2  0  0  0  0
  6  1  2  0  0  0  0
  8  5  1  0  0  0  0
  9 12  1  0  0  0  0
  9 11  1  0  0  0  0
 10 13  1  0  0  0  0
 10  9  1  0  0  0  0
 10 11  1  0  0  0  0
 11 16  1  0  0  0  0
 11 15  1  0  0  0  0
 14 10  1  0  0  0  0
 17 20  1  0  0  0  0
 18 17  1  0  0  0  0
 19 17  1  0  0  0  0
 20 22  1  0  0  0  0
 20 21  1  0  0  0  0
 20 25  1  0  0  0  0
 24 23  1  0  0  0  0
 24 31  1  0  0  0  0
 25 24  2  0  0  0  0
 26 25  1  0  0  0  0
 26 28  2  0  0  0  0
 27 26  1  0  0  0  0
 28 30  1  0  0  0  0
 29 28  1  0  0  0  0
 30 31  2  0  0  0  0
M  END
>  <minimizedAffinity>
-4.96000719

$$$$

 OpenBabel03272508193D

 31 33  0  0  0  0  0  0  0  0999 V2000
   39.8310   22.5640   36.7280 C   0  0  0  0  0  0  0  0  0  0  0  0
   38.6660   22.4880   35.9540 C   0  0  0  0  0  0  0  0  0  0  0  0
   37.5530   22.8940   36.6430 C   0  0  0  0  0  0  0  0  0  0  0  0
   37.5820   23.3170   37.9180 N   0  0  0  0  0  0  0  0  0  0  0  0
   38.7110   23.3790   38.6310 C   0  0  0  0  0  0  0  0  0  0  0  0
   39.8370   23.0000   38.0320 N   0  0  0  0  0  0  0  0  0  0  0  0
   36.5840   22.8830   36.1550 H   0  0  0  0  0  0  0  0  0  0  0  0
   38.8940   23.6850   39.6330 H   0  0  0  0  0  0  0  0  0  0  0  0
   41.1360   22.2210   36.0160 C   0  0  0  0  0  0  0  0  0  0  0  0
   42.3980   22.5550   36.5590 C   0  0  0  0  0  0  0  0  0  0  0  0
   41.9000   21.1640   36.9000 C   0  0  0  0  0  0  0  0  0  0  0  0
   41.0340   21.7800   34.9800 H   0  0  0  0  0  0  0  0  0  0  0  0
   43.3000   22.5510   35.9260 H   0  0  0  0  0  0  0  0  0  0  0  0
   42.4930   23.2970   37.3960 H   0  0  0  0  0  0  0  0  0  0  0  0
   42.3210   20.2990   36.3850 H   0  0  0  0  0  0  0  0  0  0  0  0
   41.6030   21.0490   37.9330 H   0  0  0  0  0  0  0  0  0  0  0  0
   38.6500   22.0090   34.5870 C   0  0  0  0  0  0  0  0  0  0  0  0
   39.5880   22.2580   34.0330 H   0  0  0  0  0  0  0  0  0  0  0  0
   38.6260   20.8980   34.6170 H   0  0  0  0  0  0  0  0  0  0  0  0
   37.5350   22.4620   33.7330 C   0  0  0  0  0  0  0  0  0  0  0  0
   36.6910   22.8550   34.3440 H   0  0  0  0  0  0  0  0  0  0  0  0
   37.8350   23.3730   33.1330 H   0  0  0  0  0  0  0  0  0  0  0  0
   35.6150   20.8410   34.8350 F   0  0  0  0  0  0  0  0  0  0  0  0
   35.9730   20.6710   33.5250 C   0  0  0  0  0  0  0  0  0  0  0  0
   36.9270   21.4360   32.8680 C   0  0  0  0  0  0  0  0  0  0  0  0
   37.1840   21.1470   31.5310 C   0  0  0  0  0  0  0  0  0  0  0  0
   37.9270   21.7670   31.0950 H   0  0  0  0  0  0  0  0  0  0  0  0
   36.5080   20.1340   30.8960 C   0  0  0  0  0  0  0  0  0  0  0  0
   36.7450   19.9510   29.8610 H   0  0  0  0  0  0  0  0  0  0  0  0
   35.5500   19.3730   31.5670 C   0  0  0  0  0  3  0  0  0  0  0  0
   35.2920   19.6550   32.8870 C   0  0  0  0  0  3  0  0  0  0  0  0
  1  6  1  0  0  0  0
  2  3  1  0  0  0  0
  2  1  2  0  0  0  0
  3  4  2  0  0  0  0
  4  5  1  0  0  0  0
  5  8  1  0  0  0  0
  6  5  2  0  0  0  0
  7  3  1  0  0  0  0
  9 10  1  0  0  0  0
  9  1  1  0  0  0  0
  9 11  1  0  0  0  0
 10 11  1  0  0  0  0
 10 14  1  0  0  0  0
 11 16  1  0  0  0  0
 12  9  1  0  0  0  0
 13 10  1  0  0  0  0
 15 11  1  0  0  0  0
 17 19  1  0  0  0  0
 17  2  1  0  0  0  0
 18 17  1  0  0  0  0
 20 21  1  0  0  0  0
 20 17  1  0  0  0  0
 22 20  1  0  0  0  0
 24 23  1  0  0  0  0
 25 24  2  0  0  0  0
 25 20  1  0  0  0  0
 26 25  1  0  0  0  0
 27 26  1  0  0  0  0
 28 26  2  0  0  0  0
 28 30  1  0  0  0  0
 29 28  1  0  0  0  0
 30 31  2  0  0  0  0
 31 24  1  0  0  0  0
M  END
>  <minimizedAffinity>
-4.95079899

$$$$

 OpenBabel03272508193D

 31 33  0  0  0  0  0  0  0  0999 V2000
   37.0130   27.0410   34.0080 C   0  0  0  0  0  0  0  0  0  0  0  0
   36.3430   28.2360   33.7170 C   0  0  0  0  0  0  0  0  0  0  0  0
   35.7550   28.2180   32.4790 C   0  0  0  0  0  0  0  0  0  0  0  0
   35.8160   27.1680   31.6420 N   0  0  0  0  0  0  0  0  0  0  0  0
   36.4640   26.0390   31.9480 C   0  0  0  0  0  0  0  0  0  0  0  0
   37.0640   25.9780   33.1350 N   0  0  0  0  0  0  0  0  0  0  0  0
   35.2030   29.0860   32.1320 H   0  0  0  0  0  0  0  0  0  0  0  0
   36.6010   25.1380   31.4030 H   0  0  0  0  0  0  0  0  0  0  0  0
   37.6210   26.9310   35.4020 C   0  0  0  0  0  0  0  0  0  0  0  0
   38.4630   25.8580   35.7720 C   0  0  0  0  0  0  0  0  0  0  0  0
   39.1810   27.0900   35.2580 C   0  0  0  0  0  0  0  0  0  0  0  0
   37.2730   27.6990   36.1550 H   0  0  0  0  0  0  0  0  0  0  0  0
   38.6680   25.6450   36.8340 H   0  0  0  0  0  0  0  0  0  0  0  0
   38.5190   24.9230   35.1530 H   0  0  0  0  0  0  0  0  0  0  0  0
   39.6780   27.7580   35.9640 H   0  0  0  0  0  0  0  0  0  0  0  0
   39.6220   26.9610   34.2800 H   0  0  0  0  0  0  0  0  0  0  0  0
   36.3050   29.3650   34.6220 C   0  0  0  0  0  0  0  0  0  0  0  0
   36.0680   29.0670   35.6720 H   0  0  0  0  0  0  0  0  0  0  0  0
   37.3290   29.7930   34.6740 H   0  0  0  0  0  0  0  0  0  0  0  0
   35.3740   30.4610   34.2850 C   0  0  0  0  0  0  0  0  0  0  0  0
   35.9240   31.3990   34.0450 H   0  0  0  0  0  0  0  0  0  0  0  0
   34.8380   30.2460   33.3130 H   0  0  0  0  0  0  0  0  0  0  0  0
   32.9460   29.1840   34.3320 F   0  0  0  0  0  0  0  0  0  0  0  0
   33.2260   30.1400   35.2710 C   0  0  0  0  0  0  0  0  0  0  0  0
   34.4210   30.8430   35.3420 C   0  0  0  0  0  0  0  0  0  0  0  0
   34.5620   31.7850   36.3560 C   0  0  0  0  0  0  0  0  0  0  0  0
   35.4980   32.2870   36.3470 H   0  0  0  0  0  0  0  0  0  0  0  0
   33.5430   32.0010   37.2510 C   0  0  0  0  0  0  0  0  0  0  0  0
   33.7030   32.7420   38.0170 H   0  0  0  0  0  0  0  0  0  0  0  0
   32.3460   31.2880   37.1710 C   0  0  0  0  0  3  0  0  0  0  0  0
   32.2020   30.3560   36.1710 C   0  0  0  0  0  3  0  0  0  0  0  0
  1  9  1  0  0  0  0
  2  1  1  0  0  0  0
  2 17  1  0  0  0  0
  3  2  2  0  0  0  0
  4  5  2  0  0  0  0
  4  3  1  0  0  0  0
  5  6  1  0  0  0  0
  6  1  2  0  0  0  0
  7  3  1  0  0  0  0
  8  5  1  0  0  0  0
  9 10  1  0  0  0  0
  9 12  1  0  0  0  0
 10 13  1  0  0  0  0
 11  9  1  0  0  0  0
 11 10  1  0  0  0  0
 11 15  1  0  0  0  0
 14 10  1  0  0  0  0
 16 11  1  0  0  0  0
 17 19  1  0  0  0  0
 17 18  1  0  0  0  0
 20 17  1  0  0  0  0
 20 25  1  0  0  0  0
 21 20  1  0  0  0  0
 22 20  1  0  0  0  0
 23 24  1  0  0  0  0
 24 25  2  0  0  0  0
 24 31  1  0  0  0  0
 25 26  1  0  0  0  0
 26 28  2  0  0  0  0
 27 26  1  0  0  0  0
 28 29  1  0  0  0  0
 30 28  1  0  0  0  0
 31 30  2  0  0  0  0
M  END
>  <minimizedAffinity>
-4.93127298

$$$$

 OpenBabel03272508193D

 31 33  0  0  0  0  0  0  0  0999 V2000
   38.3580   27.2560   33.1760 C   0  0  0  0  0  0  0  0  0  0  0  0
   37.7250   27.3260   34.4240 C   0  0  0  0  0  0  0  0  0  0  0  0
   36.5600   28.0470   34.3800 C   0  0  0  0  0  0  0  0  0  0  0  0
   36.0830   28.6200   33.2610 N   0  0  0  0  0  0  0  0  0  0  0  0
   36.7100   28.5350   32.0840 C   0  0  0  0  0  0  0  0  0  0  0  0
   37.8510   27.8510   32.0440 N   0  0  0  0  0  0  0  0  0  0  0  0
   35.9730   28.1770   35.2830 H   0  0  0  0  0  0  0  0  0  0  0  0
   36.4650   28.9270   31.1270 H   0  0  0  0  0  0  0  0  0  0  0  0
   39.6150   26.3940   33.1060 C   0  0  0  0  0  0  0  0  0  0  0  0
   40.5180   26.4700   32.0200 C   0  0  0  0  0  0  0  0  0  0  0  0
   40.8590   27.3550   33.2030 C   0  0  0  0  0  0  0  0  0  0  0  0
   39.7270   25.6170   33.9180 H   0  0  0  0  0  0  0  0  0  0  0  0
   41.2550   25.6700   31.8480 H   0  0  0  0  0  0  0  0  0  0  0  0
   40.2290   26.9710   31.0580 H   0  0  0  0  0  0  0  0  0  0  0  0
   41.6610   27.0610   33.8830 H   0  0  0  0  0  0  0  0  0  0  0  0
   40.7100   28.4090   33.0160 H   0  0  0  0  0  0  0  0  0  0  0  0
   38.2650   26.7210   35.6240 C   0  0  0  0  0  0  0  0  0  0  0  0
   39.3760   26.6040   35.5830 H   0  0  0  0  0  0  0  0  0  0  0  0
   38.0850   27.4200   36.4680 H   0  0  0  0  0  0  0  0  0  0  0  0
   37.7270   25.4010   36.0070 C   0  0  0  0  0  0  0  0  0  0  0  0
   37.0190   25.4850   36.8620 H   0  0  0  0  0  0  0  0  0  0  0  0
   37.0610   24.9870   35.1910 H   0  0  0  0  0  0  0  0  0  0  0  0
   37.5000   24.3910   38.5480 F   0  0  0  0  0  0  0  0  0  0  0  0
   38.5140   23.9590   37.7370 C   0  0  0  0  0  0  0  0  0  0  0  0
   38.7200   24.4000   36.4370 C   0  0  0  0  0  0  0  0  0  0  0  0
   39.7950   23.8680   35.7310 C   0  0  0  0  0  0  0  0  0  0  0  0
   39.8930   24.2530   34.7470 H   0  0  0  0  0  0  0  0  0  0  0  0
   40.6180   22.9380   36.3170 C   0  0  0  0  0  0  0  0  0  0  0  0
   41.4370   22.5590   35.7280 H   0  0  0  0  0  0  0  0  0  0  0  0
   40.4020   22.5020   37.6250 C   0  0  0  0  0  3  0  0  0  0  0  0
   39.3410   23.0240   38.3250 C   0  0  0  0  0  3  0  0  0  0  0  0
  1  2  1  0  0  0  0
  2 17  1  0  0  0  0
  3  2  2  0  0  0  0
  3  7  1  0  0  0  0
  4  3  1  0  0  0  0
  5  4  2  0  0  0  0
  6  5  1  0  0  0  0
  6  1  2  0  0  0  0
  8  5  1  0  0  0  0
  9  1  1  0  0  0  0
  9 11  1  0  0  0  0
  9 12  1  0  0  0  0
 10  9  1  0  0  0  0
 10 11  1  0  0  0  0
 11 15  1  0  0  0  0
 13 10  1  0  0  0  0
 14 10  1  0  0  0  0
 16 11  1  0  0  0  0
 17 20  1  0  0  0  0
 17 19  1  0  0  0  0
 18 17  1  0  0  0  0
 20 25  1  0  0  0  0
 20 21  1  0  0  0  0
 22 20  1  0  0  0  0
 24 31  1  0  0  0  0
 24 23  1  0  0  0  0
 25 24  2  0  0  0  0
 26 28  2  0  0  0  0
 26 25  1  0  0  0  0
 27 26  1  0  0  0  0
 28 30  1  0  0  0  0
 29 28  1  0  0  0  0
 30 31  2  0  0  0  0
M  END
>  <minimizedAffinity>
-4.88297749

$$$$

 OpenBabel03272508193D

 31 33  0  0  0  0  0  0  0  0999 V2000
   38.1570   27.2720   33.2360 C   0  0  0  0  0  0  0  0  0  0  0  0
   37.2660   27.7610   34.2000 C   0  0  0  0  0  0  0  0  0  0  0  0
   37.7860   27.7090   35.4670 C   0  0  0  0  0  0  0  0  0  0  0  0
   39.0150   27.2420   35.7470 N   0  0  0  0  0  0  0  0  0  0  0  0
   39.8430   26.7810   34.8040 C   0  0  0  0  0  0  0  0  0  0  0  0
   39.4100   26.7970   33.5460 N   0  0  0  0  0  0  0  0  0  0  0  0
   37.1950   28.0590   36.3070 H   0  0  0  0  0  0  0  0  0  0  0  0
   40.8270   26.3850   34.8660 H   0  0  0  0  0  0  0  0  0  0  0  0
   37.7020   27.3760   31.7840 C   0  0  0  0  0  0  0  0  0  0  0  0
   38.4300   26.7870   30.7240 C   0  0  0  0  0  0  0  0  0  0  0  0
   37.3200   25.9270   31.2970 C   0  0  0  0  0  0  0  0  0  0  0  0
   36.8080   28.0400   31.5920 H   0  0  0  0  0  0  0  0  0  0  0  0
   38.2490   27.0930   29.6810 H   0  0  0  0  0  0  0  0  0  0  0  0
   39.4880   26.4400   30.8690 H   0  0  0  0  0  0  0  0  0  0  0  0
   36.3830   25.8200   30.7480 H   0  0  0  0  0  0  0  0  0  0  0  0
   37.6750   25.0830   31.8710 H   0  0  0  0  0  0  0  0  0  0  0  0
   35.9370   28.2400   33.8820 C   0  0  0  0  0  0  0  0  0  0  0  0
   35.5080   27.7490   32.9750 H   0  0  0  0  0  0  0  0  0  0  0  0
   35.2610   27.9430   34.7120 H   0  0  0  0  0  0  0  0  0  0  0  0
   35.7840   29.6940   33.6730 C   0  0  0  0  0  0  0  0  0  0  0  0
   36.7640   30.1770   33.4590 H   0  0  0  0  0  0  0  0  0  0  0  0
   35.2060   29.9040   32.7240 H   0  0  0  0  0  0  0  0  0  0  0  0
   33.0840   29.5140   34.1290 F   0  0  0  0  0  0  0  0  0  0  0  0
   33.8580   30.2940   34.9470 C   0  0  0  0  0  0  0  0  0  0  0  0
   35.2300   30.4530   34.8090 C   0  0  0  0  0  0  0  0  0  0  0  0
   35.8840   31.2770   35.7190 C   0  0  0  0  0  0  0  0  0  0  0  0
   36.9290   31.3560   35.5510 H   0  0  0  0  0  0  0  0  0  0  0  0
   35.1800   31.9080   36.7160 C   0  0  0  0  0  0  0  0  0  0  0  0
   35.7340   32.5360   37.3940 H   0  0  0  0  0  0  0  0  0  0  0  0
   33.8010   31.7400   36.8460 C   0  0  0  0  0  3  0  0  0  0  0  0
   33.1510   30.9260   35.9500 C   0  0  0  0  0  3  0  0  0  0  0  0
  1  6  2  0  0  0  0
  1  2  1  0  0  0  0
  2  3  2  0  0  0  0
  3  4  1  0  0  0  0
  3  7  1  0  0  0  0
  5  8  1  0  0  0  0
  5  4  2  0  0  0  0
  6  5  1  0  0  0  0
  9  1  1  0  0  0  0
 10 14  1  0  0  0  0
 10 11  1  0  0  0  0
 10  9  1  0  0  0  0
 11  9  1  0  0  0  0
 11 16  1  0  0  0  0
 12  9  1  0  0  0  0
 13 10  1  0  0  0  0
 15 11  1  0  0  0  0
 17  2  1  0  0  0  0
 17 19  1  0  0  0  0
 18 17  1  0  0  0  0
 20 17  1  0  0  0  0
 20 25  1  0  0  0  0
 21 20  1  0  0  0  0
 22 20  1  0  0  0  0
 23 24  1  0  0  0  0
 24 31  1  0  0  0  0
 25 24  2  0  0  0  0
 25 26  1  0  0  0  0
 26 28  2  0  0  0  0
 27 26  1  0  0  0  0
 28 30  1  0  0  0  0
 28 29  1  0  0  0  0
 31 30  2  0  0  0  0
M  END
>  <minimizedAffinity>
-4.74394178

$$$$

 OpenBabel03272508193D

 31 33  0  0  0  0  0  0  0  0999 V2000
   38.0940   25.4390   33.5590 C   0  0  0  0  0  0  0  0  0  0  0  0
   37.9510   24.1190   33.1120 C   0  0  0  0  0  0  0  0  0  0  0  0
   36.9610   23.9890   32.1730 C   0  0  0  0  0  0  0  0  0  0  0  0
   36.2140   25.0160   31.7330 N   0  0  0  0  0  0  0  0  0  0  0  0
   36.3750   26.2660   32.1790 C   0  0  0  0  0  0  0  0  0  0  0  0
   37.3170   26.4750   33.0950 N   0  0  0  0  0  0  0  0  0  0  0  0
   36.7490   23.0140   31.7460 H   0  0  0  0  0  0  0  0  0  0  0  0
   35.8710   27.1690   31.9340 H   0  0  0  0  0  0  0  0  0  0  0  0
   39.2350   25.6990   34.5380 C   0  0  0  0  0  0  0  0  0  0  0  0
   39.6160   27.0070   34.9160 C   0  0  0  0  0  0  0  0  0  0  0  0
   38.6140   26.3370   35.8370 C   0  0  0  0  0  0  0  0  0  0  0  0
   39.8270   24.7920   34.8590 H   0  0  0  0  0  0  0  0  0  0  0  0
   40.5920   27.1900   35.3940 H   0  0  0  0  0  0  0  0  0  0  0  0
   39.2730   27.9030   34.3340 H   0  0  0  0  0  0  0  0  0  0  0  0
   38.9480   25.9340   36.7950 H   0  0  0  0  0  0  0  0  0  0  0  0
   37.6200   26.7570   35.7780 H   0  0  0  0  0  0  0  0  0  0  0  0
   38.7500   23.0200   33.6130 C   0  0  0  0  0  0  0  0  0  0  0  0
   39.0890   22.3300   32.8030 H   0  0  0  0  0  0  0  0  0  0  0  0
   39.6860   23.4450   34.0340 H   0  0  0  0  0  0  0  0  0  0  0  0
   38.1350   22.1660   34.6490 C   0  0  0  0  0  0  0  0  0  0  0  0
   37.0310   22.1050   34.5200 H   0  0  0  0  0  0  0  0  0  0  0  0
   38.4480   21.0870   34.5160 H   0  0  0  0  0  0  0  0  0  0  0  0
   40.6500   21.9300   35.7220 F   0  0  0  0  0  0  0  0  0  0  0  0
   39.6340   22.4390   36.4860 C   0  0  0  0  0  0  0  0  0  0  0  0
   38.3280   22.6040   36.0430 C   0  0  0  0  0  0  0  0  0  0  0  0
   37.4020   23.1370   36.9340 C   0  0  0  0  0  0  0  0  0  0  0  0
   36.4250   23.2320   36.5300 H   0  0  0  0  0  0  0  0  0  0  0  0
   37.7820   23.4830   38.2080 C   0  0  0  0  0  0  0  0  0  0  0  0
   37.0260   23.8910   38.8580 H   0  0  0  0  0  0  0  0  0  0  0  0
   39.0970   23.3130   38.6420 C   0  0  0  0  0  3  0  0  0  0  0  0
   40.0160   22.7880   37.7650 C   0  0  0  0  0  3  0  0  0  0  0  0
  1  9  1  0  0  0  0
  2  1  1  0  0  0  0
  2 17  1  0  0  0  0
  3  2  2  0  0  0  0
  4  3  1  0  0  0  0
  4  5  2  0  0  0  0
  5  6  1  0  0  0  0
  6  1  2  0  0  0  0
  7  3  1  0  0  0  0
  8  5  1  0  0  0  0
  9 12  1  0  0  0  0
  9 10  1  0  0  0  0
  9 11  1  0  0  0  0
 10 13  1  0  0  0  0
 10 11  1  0  0  0  0
 11 15  1  0  0  0  0
 14 10  1  0  0  0  0
 16 11  1  0  0  0  0
 17 19  1  0  0  0  0
 17 20  1  0  0  0  0
 18 17  1  0  0  0  0
 20 25  1  0  0  0  0
 21 20  1  0  0  0  0
 22 20  1  0  0  0  0
 23 24  1  0  0  0  0
 24 31  1  0  0  0  0
 25 24  2  0  0  0  0
 25 26  1  0  0  0  0
 26 28  2  0  0  0  0
 27 26  1  0  0  0  0
 28 30  1  0  0  0  0
 28 29  1  0  0  0  0
 31 30  2  0  0  0  0
M  END
>  <minimizedAffinity>
-4.72792244

$$$$
