
 OpenBabel03272508083D

 24 25  0  0  0  0  0  0  0  0999 V2000
   38.7210   32.9700   48.1510 O   0  0  0  0  0  0  0  0  0  0  0  0
   38.5150   31.8200   47.2370 P   0  0  2  0  0  0  0  0  0  0  0  0
   37.2270   32.1610   46.1710 O   0  0  0  0  0  0  0  0  0  0  0  0
   36.4770   32.5010   46.7550 H   0  0  0  0  0  0  0  0  0  0  0  0
   38.2420   30.3310   48.0020 O   0  0  0  0  0  0  0  0  0  0  0  0
   37.2040   30.1090   51.5540 C   0  0  0  0  0  0  0  0  0  0  0  0
   38.0270   30.4610   50.4800 C   0  0  0  0  0  0  0  0  0  0  0  0
   37.6250   30.1060   49.1940 C   0  0  0  0  0  0  0  0  0  0  0  0
   36.4460   29.4310   49.0460 N   0  0  0  0  0  0  0  0  0  0  0  0
   35.6810   29.1100   50.1010 C   0  0  0  0  0  0  0  0  0  0  0  0
   36.0570   29.4460   51.3510 N   0  0  0  0  0  0  0  0  0  0  0  0
   37.6100   30.4330   52.5080 H   0  0  0  0  0  0  0  0  0  0  0  0
   38.9420   30.9770   50.5120 H   0  0  0  0  0  0  0  0  0  0  0  0
   34.7410   28.5710   49.9930 H   0  0  0  0  0  0  0  0  0  0  0  0
   39.8860   31.6780   46.2450 O   0  0  0  0  0  0  0  0  0  0  0  0
   39.8100   33.9410   44.7880 F   0  0  0  0  0  0  0  0  0  0  0  0
   39.8340   32.7040   44.1900 C   0  0  0  0  0  0  0  0  0  0  0  0
   39.8740   31.4910   44.8850 C   0  0  0  0  0  0  0  0  0  0  0  0
   39.8940   30.3420   44.1180 C   0  0  0  0  0  0  0  0  0  0  0  0
   39.9250   29.4440   44.7510 H   0  0  0  0  0  0  0  0  0  0  0  0
   39.8760   30.4010   42.7540 C   0  0  0  0  0  0  0  0  0  0  0  0
   39.8930   29.4540   42.2310 H   0  0  0  0  0  0  0  0  0  0  0  0
   39.8370   31.5820   42.0850 C   0  0  0  0  0  3  0  0  0  0  0  0
   39.8160   32.7610   42.8120 C   0  0  0  0  0  3  0  0  0  0  0  0
  2  5  1  0  0  0  0
  2  1  2  1  0  0  0
  3  4  1  0  0  0  0
  3  2  1  0  0  0  0
  5  8  1  0  0  0  0
  6 12  1  0  0  0  0
  7 13  1  0  0  0  0
  7  6  2  0  0  0  0
  8  7  1  0  0  0  0
  9  8  2  0  0  0  0
  9 10  1  0  0  0  0
 10 11  2  0  0  0  0
 11  6  1  0  0  0  0
 14 10  1  0  0  0  0
 15  2  1  0  0  0  0
 17 16  1  0  0  0  0
 17 18  1  0  0  0  0
 18 15  1  0  0  0  0
 19 20  1  0  0  0  0
 19 18  2  0  0  0  0
 21 19  1  0  0  0  0
 22 21  1  0  0  0  0
 23 21  2  0  0  0  0
 23 24  1  0  0  0  0
 24 17  2  0  0  0  0
M  END
>  <minimizedAffinity>
-5.19724512

>  <minimizedRMSD>
2.57321024

$$$$
