
 OpenBabel03272504203D

 27 28  0  0  0  0  0  0  0  0999 V2000
   36.6750   27.6080   34.9190 O   0  0  0  0  0  0  0  0  0  0  0  0
   37.8560   26.7260   35.2010 P   0  0  2  0  0  0  0  0  0  0  0  0
   38.8730   27.5700   36.2960 O   0  0  0  0  0  0  0  0  0  0  0  0
   39.7810   27.1780   36.2840 H   0  0  0  0  0  0  0  0  0  0  0  0
   38.7240   26.4500   33.7770 O   0  0  0  0  0  0  0  0  0  0  0  0
   37.9320   26.7800   32.7110 C   0  0  0  0  0  0  0  0  0  0  0  0
   37.3240   27.6940   32.8480 H   0  0  0  0  0  0  0  0  0  0  0  0
   38.6270   27.0300   31.8580 H   0  0  0  0  0  0  0  0  0  0  0  0
   37.1210   25.6430   32.2060 C   0  0  0  0  0  0  0  0  0  0  0  0
   35.9280   25.9490   31.5380 C   0  0  0  0  0  0  0  0  0  0  0  0
   35.1460   24.8950   31.0530 C   0  0  0  0  0  0  0  0  0  0  0  0
   35.5920   23.6240   31.2590 N   0  0  0  0  0  0  0  0  0  0  0  0
   36.7480   23.3670   31.9070 C   0  0  0  0  0  0  0  0  0  0  0  0
   37.5070   24.3630   32.3760 N   0  0  0  0  0  0  0  0  0  0  0  0
   35.5770   26.9650   31.3770 H   0  0  0  0  0  0  0  0  0  0  0  0
   34.2210   25.1170   30.5350 H   0  0  0  0  0  0  0  0  0  0  0  0
   37.0510   22.3240   32.0400 H   0  0  0  0  0  0  0  0  0  0  0  0
   37.3390   25.2710   35.8760 O   0  0  0  0  0  0  0  0  0  0  0  0
   37.4000   24.8080   38.6490 F   0  0  0  0  0  0  0  0  0  0  0  0
   38.2920   24.1450   37.9120 C   0  0  0  0  0  0  0  0  0  0  0  0
   38.1980   24.4270   36.5650 C   0  0  0  0  0  0  0  0  0  0  0  0
   39.0670   23.8080   35.6630 C   0  0  0  0  0  0  0  0  0  0  0  0
   39.1110   23.9290   34.5890 H   0  0  0  0  0  0  0  0  0  0  0  0
   40.0370   22.9040   36.1100 C   0  0  0  0  0  0  0  0  0  0  0  0
   40.7340   22.3950   35.4680 H   0  0  0  0  0  0  0  0  0  0  0  0
   40.1010   22.6460   37.4740 C   0  0  0  0  0  3  0  0  0  0  0  0
   39.2420   23.2590   38.3560 C   0  0  0  0  0  3  0  0  0  0  0  0
  2  1  2  6  0  0  0
  2 18  1  0  0  0  0
  2  3  1  0  0  0  0
  4  3  1  0  0  0  0
  5  2  1  0  0  0  0
  6  7  1  0  0  0  0
  6  5  1  0  0  0  0
  8  6  1  0  0  0  0
  9 14  1  0  0  0  0
  9  6  1  0  0  0  0
 10  9  2  0  0  0  0
 11 12  2  0  0  0  0
 11 10  1  0  0  0  0
 12 13  1  0  0  0  0
 13 17  1  0  0  0  0
 13 14  2  0  0  0  0
 15 10  1  0  0  0  0
 16 11  1  0  0  0  0
 18 21  1  0  0  0  0
 20 27  1  0  0  0  0
 20 19  1  0  0  0  0
 21 20  2  0  0  0  0
 22 24  2  0  0  0  0
 22 21  1  0  0  0  0
 23 22  1  0  0  0  0
 24 26  1  0  0  0  0
 25 24  1  0  0  0  0
 26 27  2  0  0  0  0
M  END
>  <minimizedAffinity>
-5.08957624

$$$$

 OpenBabel03272504203D

 27 28  0  0  0  0  0  0  0  0999 V2000
   36.6720   27.8150   34.8980 O   0  0  0  0  0  0  0  0  0  0  0  0
   37.8810   26.9350   35.0310 P   0  0  2  0  0  0  0  0  0  0  0  0
   38.8920   27.6350   36.2280 O   0  0  0  0  0  0  0  0  0  0  0  0
   39.8100   27.2760   36.1480 H   0  0  0  0  0  0  0  0  0  0  0  0
   38.7340   26.9010   33.5720 O   0  0  0  0  0  0  0  0  0  0  0  0
   37.8740   27.2170   32.5550 C   0  0  0  0  0  0  0  0  0  0  0  0
   37.1900   28.0590   32.7690 H   0  0  0  0  0  0  0  0  0  0  0  0
   38.5090   27.5810   31.6970 H   0  0  0  0  0  0  0  0  0  0  0  0
   37.1530   26.0390   32.0070 C   0  0  0  0  0  0  0  0  0  0  0  0
   35.8700   26.2550   31.4870 C   0  0  0  0  0  0  0  0  0  0  0  0
   35.1700   25.1620   30.9650 C   0  0  0  0  0  0  0  0  0  0  0  0
   35.7790   23.9430   30.9930 N   0  0  0  0  0  0  0  0  0  0  0  0
   37.0180   23.7730   31.5030 C   0  0  0  0  0  0  0  0  0  0  0  0
   37.7000   24.8080   32.0050 N   0  0  0  0  0  0  0  0  0  0  0  0
   35.3890   27.2290   31.4670 H   0  0  0  0  0  0  0  0  0  0  0  0
   34.1770   25.3130   30.5590 H   0  0  0  0  0  0  0  0  0  0  0  0
   37.4510   22.7690   31.4960 H   0  0  0  0  0  0  0  0  0  0  0  0
   37.4140   25.3820   35.4860 O   0  0  0  0  0  0  0  0  0  0  0  0
   39.6270   23.9870   34.4530 F   0  0  0  0  0  0  0  0  0  0  0  0
   39.3580   23.8090   35.7480 C   0  0  0  0  0  0  0  0  0  0  0  0
   38.2600   24.5250   36.1760 C   0  0  0  0  0  0  0  0  0  0  0  0
   37.8530   24.4430   37.5100 C   0  0  0  0  0  0  0  0  0  0  0  0
   37.0190   24.9420   37.9850 H   0  0  0  0  0  0  0  0  0  0  0  0
   38.5460   23.6380   38.4200 C   0  0  0  0  0  0  0  0  0  0  0  0
   38.2840   23.5310   39.4580 H   0  0  0  0  0  0  0  0  0  0  0  0
   39.6460   22.9310   37.9520 C   0  0  0  0  0  3  0  0  0  0  0  0
   40.0420   23.0180   36.6370 C   0  0  0  0  0  3  0  0  0  0  0  0
  2  1  2  6  0  0  0
  2 18  1  0  0  0  0
  2  3  1  0  0  0  0
  4  3  1  0  0  0  0
  5  2  1  0  0  0  0
  6  7  1  0  0  0  0
  6  5  1  0  0  0  0
  8  6  1  0  0  0  0
  9  6  1  0  0  0  0
 10  9  2  0  0  0  0
 11 12  2  0  0  0  0
 11 10  1  0  0  0  0
 12 13  1  0  0  0  0
 13 14  2  0  0  0  0
 14  9  1  0  0  0  0
 15 10  1  0  0  0  0
 16 11  1  0  0  0  0
 17 13  1  0  0  0  0
 18 21  1  0  0  0  0
 19 20  1  0  0  0  0
 20 21  2  0  0  0  0
 20 27  1  0  0  0  0
 21 22  1  0  0  0  0
 22 23  1  0  0  0  0
 22 24  2  0  0  0  0
 24 25  1  0  0  0  0
 26 24  1  0  0  0  0
 27 26  2  0  0  0  0
M  END
>  <minimizedAffinity>
-5.0744009

$$$$

 OpenBabel03272504203D

 27 28  0  0  0  0  0  0  0  0999 V2000
   36.7340   27.8310   34.7970 O   0  0  0  0  0  0  0  0  0  0  0  0
   37.9800   27.0260   35.0210 P   0  0  2  0  0  0  0  0  0  0  0  0
   38.7760   27.6880   36.3910 O   0  0  0  0  0  0  0  0  0  0  0  0
   39.7210   27.3980   36.4060 H   0  0  0  0  0  0  0  0  0  0  0  0
   39.0110   27.1710   33.6890 O   0  0  0  0  0  0  0  0  0  0  0  0
   38.4370   26.5360   32.6210 C   0  0  0  0  0  0  0  0  0  0  0  0
   38.9870   25.6470   32.2580 H   0  0  0  0  0  0  0  0  0  0  0  0
   37.4490   26.1280   32.9810 H   0  0  0  0  0  0  0  0  0  0  0  0
   38.0760   27.4570   31.5130 C   0  0  0  0  0  0  0  0  0  0  0  0
   39.0810   27.7810   30.5920 C   0  0  0  0  0  0  0  0  0  0  0  0
   38.7650   28.6470   29.5400 C   0  0  0  0  0  0  0  0  0  0  0  0
   37.4920   29.1290   29.4700 N   0  0  0  0  0  0  0  0  0  0  0  0
   36.5490   28.7940   30.3770 C   0  0  0  0  0  0  0  0  0  0  0  0
   36.8350   27.9670   31.3880 N   0  0  0  0  0  0  0  0  0  0  0  0
   40.0940   27.3940   30.6520 H   0  0  0  0  0  0  0  0  0  0  0  0
   39.5320   28.9070   28.8190 H   0  0  0  0  0  0  0  0  0  0  0  0
   35.5460   29.2140   30.2650 H   0  0  0  0  0  0  0  0  0  0  0  0
   37.5800   25.4120   35.2930 O   0  0  0  0  0  0  0  0  0  0  0  0
   39.9660   24.1970   34.4310 F   0  0  0  0  0  0  0  0  0  0  0  0
   39.5720   23.9250   35.6760 C   0  0  0  0  0  0  0  0  0  0  0  0
   38.3960   24.5580   36.0220 C   0  0  0  0  0  0  0  0  0  0  0  0
   37.8560   24.3720   37.2970 C   0  0  0  0  0  0  0  0  0  0  0  0
   36.9500   24.7990   37.7060 H   0  0  0  0  0  0  0  0  0  0  0  0
   38.4940   23.5480   38.2300 C   0  0  0  0  0  0  0  0  0  0  0  0
   38.1300   23.3650   39.2260 H   0  0  0  0  0  0  0  0  0  0  0  0
   39.6760   22.9290   37.8450 C   0  0  0  0  0  3  0  0  0  0  0  0
   40.2020   23.1160   36.5890 C   0  0  0  0  0  3  0  0  0  0  0  0
  2  1  2  6  0  0  0
  2 18  1  0  0  0  0
  2  3  1  0  0  0  0
  3  4  1  0  0  0  0
  5  2  1  0  0  0  0
  6  8  1  0  0  0  0
  6  5  1  0  0  0  0
  7  6  1  0  0  0  0
  9  6  1  0  0  0  0
 10 15  1  0  0  0  0
 10  9  2  0  0  0  0
 11 10  1  0  0  0  0
 12 11  2  0  0  0  0
 12 13  1  0  0  0  0
 13 14  2  0  0  0  0
 14  9  1  0  0  0  0
 16 11  1  0  0  0  0
 17 13  1  0  0  0  0
 18 21  1  0  0  0  0
 19 20  1  0  0  0  0
 20 21  2  0  0  0  0
 20 27  1  0  0  0  0
 21 22  1  0  0  0  0
 22 23  1  0  0  0  0
 22 24  2  0  0  0  0
 24 25  1  0  0  0  0
 26 24  1  0  0  0  0
 27 26  2  0  0  0  0
M  END
>  <minimizedAffinity>
-4.79126978

$$$$

 OpenBabel03272504203D

 27 28  0  0  0  0  0  0  0  0999 V2000
   34.9780   25.3350   30.9340 O   0  0  0  0  0  0  0  0  0  0  0  0
   36.3690   25.3500   31.4980 P   0  0  2  0  0  0  0  0  0  0  0  0
   37.4540   25.4880   30.1740 O   0  0  0  0  0  0  0  0  0  0  0  0
   38.3610   25.2100   30.4510 H   0  0  0  0  0  0  0  0  0  0  0  0
   36.6860   23.8920   32.2930 O   0  0  0  0  0  0  0  0  0  0  0  0
   36.6960   22.8830   31.3680 C   0  0  0  0  0  0  0  0  0  0  0  0
   36.2010   23.1250   30.4100 H   0  0  0  0  0  0  0  0  0  0  0  0
   37.7760   22.7090   31.0920 H   0  0  0  0  0  0  0  0  0  0  0  0
   36.2400   21.5790   31.9160 C   0  0  0  0  0  0  0  0  0  0  0  0
   36.1280   20.5080   31.0200 C   0  0  0  0  0  0  0  0  0  0  0  0
   35.7010   19.2700   31.5110 C   0  0  0  0  0  0  0  0  0  0  0  0
   35.4160   19.1760   32.8400 N   0  0  0  0  0  0  0  0  0  0  0  0
   35.5360   20.2310   33.6750 C   0  0  0  0  0  0  0  0  0  0  0  0
   35.9430   21.4210   33.2210 N   0  0  0  0  0  0  0  0  0  0  0  0
   36.3570   20.5890   29.9610 H   0  0  0  0  0  0  0  0  0  0  0  0
   35.6100   18.4330   30.8300 H   0  0  0  0  0  0  0  0  0  0  0  0
   35.2910   20.0900   34.7320 H   0  0  0  0  0  0  0  0  0  0  0  0
   36.5500   26.6540   32.5490 O   0  0  0  0  0  0  0  0  0  0  0  0
   39.2130   27.2720   31.8860 F   0  0  0  0  0  0  0  0  0  0  0  0
   38.9510   27.0590   33.1770 C   0  0  0  0  0  0  0  0  0  0  0  0
   37.6260   26.7630   33.4180 C   0  0  0  0  0  0  0  0  0  0  0  0
   37.1960   26.5150   34.7240 C   0  0  0  0  0  0  0  0  0  0  0  0
   36.1970   26.2720   35.0630 H   0  0  0  0  0  0  0  0  0  0  0  0
   38.0960   26.5630   35.7950 C   0  0  0  0  0  0  0  0  0  0  0  0
   37.8290   26.3830   36.8210 H   0  0  0  0  0  0  0  0  0  0  0  0
   39.4220   26.8650   35.5110 C   0  0  0  0  0  3  0  0  0  0  0  0
   39.8380   27.1080   34.2230 C   0  0  0  0  0  3  0  0  0  0  0  0
  2  1  2  6  0  0  0
  2  5  1  0  0  0  0
  2 18  1  0  0  0  0
  3  4  1  0  0  0  0
  3  2  1  0  0  0  0
  6  9  1  0  0  0  0
  6  5  1  0  0  0  0
  7  6  1  0  0  0  0
  8  6  1  0  0  0  0
  9 14  1  0  0  0  0
 10 11  1  0  0  0  0
 10  9  2  0  0  0  0
 11 12  2  0  0  0  0
 12 13  1  0  0  0  0
 13 17  1  0  0  0  0
 14 13  2  0  0  0  0
 15 10  1  0  0  0  0
 16 11  1  0  0  0  0
 18 21  1  0  0  0  0
 19 20  1  0  0  0  0
 20 21  2  0  0  0  0
 20 27  1  0  0  0  0
 21 22  1  0  0  0  0
 22 23  1  0  0  0  0
 22 24  2  0  0  0  0
 24 25  1  0  0  0  0
 26 24  1  0  0  0  0
 27 26  2  0  0  0  0
M  END
>  <minimizedAffinity>
-4.75749016

$$$$

 OpenBabel03272504203D

 27 28  0  0  0  0  0  0  0  0999 V2000
   39.0030   27.4210   35.5670 O   0  0  0  0  0  0  0  0  0  0  0  0
   39.7560   26.6530   34.5210 P   0  0  2  0  0  0  0  0  0  0  0  0
   41.4290   26.8310   34.8640 O   0  0  0  0  0  0  0  0  0  0  0  0
   41.9640   26.6030   34.0640 H   0  0  0  0  0  0  0  0  0  0  0  0
   39.4560   27.3090   32.9930 O   0  0  0  0  0  0  0  0  0  0  0  0
   38.2890   26.7800   32.5110 C   0  0  0  0  0  0  0  0  0  0  0  0
   38.4130   26.0460   31.6940 H   0  0  0  0  0  0  0  0  0  0  0  0
   37.8310   26.1880   33.3550 H   0  0  0  0  0  0  0  0  0  0  0  0
   37.2680   27.8090   32.1850 C   0  0  0  0  0  0  0  0  0  0  0  0
   37.3020   28.3630   30.8990 C   0  0  0  0  0  0  0  0  0  0  0  0
   36.3510   29.3340   30.5660 C   0  0  0  0  0  0  0  0  0  0  0  0
   35.4410   29.6870   31.5180 N   0  0  0  0  0  0  0  0  0  0  0  0
   35.4390   29.1300   32.7480 C   0  0  0  0  0  0  0  0  0  0  0  0
   36.3410   28.2010   33.0810 N   0  0  0  0  0  0  0  0  0  0  0  0
   38.0290   28.0790   30.1440 H   0  0  0  0  0  0  0  0  0  0  0  0
   36.3640   29.7720   29.5750 H   0  0  0  0  0  0  0  0  0  0  0  0
   34.6810   29.4560   33.4670 H   0  0  0  0  0  0  0  0  0  0  0  0
   39.3130   25.0280   34.5710 O   0  0  0  0  0  0  0  0  0  0  0  0
   37.4540   24.7420   36.6630 F   0  0  0  0  0  0  0  0  0  0  0  0
   38.5960   24.0620   36.7790 C   0  0  0  0  0  0  0  0  0  0  0  0
   39.4520   24.2560   35.7160 C   0  0  0  0  0  0  0  0  0  0  0  0
   40.6900   23.6090   35.6930 C   0  0  0  0  0  0  0  0  0  0  0  0
   41.4580   23.6640   34.9330 H   0  0  0  0  0  0  0  0  0  0  0  0
   41.0750   22.7650   36.7410 C   0  0  0  0  0  0  0  0  0  0  0  0
   42.0120   22.2390   36.7830 H   0  0  0  0  0  0  0  0  0  0  0  0
   40.1860   22.5950   37.7950 C   0  0  0  0  0  3  0  0  0  0  0  0
   38.9690   23.2350   37.8100 C   0  0  0  0  0  3  0  0  0  0  0  0
  2 18  1  0  0  0  0
  2  3  1  0  0  0  0
  2  1  2  1  0  0  0
  4  3  1  0  0  0  0
  5  2  1  0  0  0  0
  6  5  1  0  0  0  0
  6  8  1  0  0  0  0
  7  6  1  0  0  0  0
  9  6  1  0  0  0  0
  9 14  1  0  0  0  0
 10  9  2  0  0  0  0
 11 10  1  0  0  0  0
 11 12  2  0  0  0  0
 12 13  1  0  0  0  0
 13 14  2  0  0  0  0
 13 17  1  0  0  0  0
 15 10  1  0  0  0  0
 16 11  1  0  0  0  0
 18 21  1  0  0  0  0
 19 20  1  0  0  0  0
 20 27  1  0  0  0  0
 21 20  2  0  0  0  0
 22 21  1  0  0  0  0
 22 24  2  0  0  0  0
 23 22  1  0  0  0  0
 24 25  1  0  0  0  0
 24 26  1  0  0  0  0
 26 27  2  0  0  0  0
M  END
>  <minimizedAffinity>
-4.73603821

$$$$

 OpenBabel03272504203D

 27 28  0  0  0  0  0  0  0  0999 V2000
   37.1490   22.6540   36.3660 O   0  0  0  0  0  0  0  0  0  0  0  0
   38.4620   22.5360   35.6490 P   0  0  2  0  0  0  0  0  0  0  0  0
   39.6080   21.9380   36.7780 O   0  0  0  0  0  0  0  0  0  0  0  0
   40.5250   22.1170   36.4560 H   0  0  0  0  0  0  0  0  0  0  0  0
   38.9760   24.0600   35.1290 O   0  0  0  0  0  0  0  0  0  0  0  0
   38.1450   25.0080   35.6630 C   0  0  0  0  0  0  0  0  0  0  0  0
   37.3860   24.6180   36.3660 H   0  0  0  0  0  0  0  0  0  0  0  0
   38.7910   25.6860   36.2920 H   0  0  0  0  0  0  0  0  0  0  0  0
   37.5480   25.9080   34.6430 C   0  0  0  0  0  0  0  0  0  0  0  0
   37.2070   27.2050   35.0500 C   0  0  0  0  0  0  0  0  0  0  0  0
   36.6430   28.0720   34.1080 C   0  0  0  0  0  0  0  0  0  0  0  0
   36.4570   27.6030   32.8420 N   0  0  0  0  0  0  0  0  0  0  0  0
   36.7980   26.3460   32.4860 C   0  0  0  0  0  0  0  0  0  0  0  0
   37.3380   25.5060   33.3750 N   0  0  0  0  0  0  0  0  0  0  0  0
   37.3590   27.5740   36.0600 H   0  0  0  0  0  0  0  0  0  0  0  0
   36.3750   29.0780   34.4070 H   0  0  0  0  0  0  0  0  0  0  0  0
   36.6220   26.0300   31.4530 H   0  0  0  0  0  0  0  0  0  0  0  0
   38.3120   21.4810   34.3440 O   0  0  0  0  0  0  0  0  0  0  0  0
   35.7170   20.4310   34.6230 F   0  0  0  0  0  0  0  0  0  0  0  0
   35.9780   21.0900   33.4930 C   0  0  0  0  0  0  0  0  0  0  0  0
   37.2690   21.5720   33.4330 C   0  0  0  0  0  0  0  0  0  0  0  0
   37.6930   22.2850   32.3090 C   0  0  0  0  0  0  0  0  0  0  0  0
   38.6660   22.7190   32.1230 H   0  0  0  0  0  0  0  0  0  0  0  0
   36.8220   22.5160   31.2380 C   0  0  0  0  0  0  0  0  0  0  0  0
   37.0870   23.0560   30.3470 H   0  0  0  0  0  0  0  0  0  0  0  0
   35.5310   22.0150   31.3350 C   0  0  0  0  0  3  0  0  0  0  0  0
   35.1200   21.3140   32.4450 C   0  0  0  0  0  3  0  0  0  0  0  0
  2  1  2  1  0  0  0
  2  3  1  0  0  0  0
  4  3  1  0  0  0  0
  5  2  1  0  0  0  0
  5  6  1  0  0  0  0
  6  8  1  0  0  0  0
  6  7  1  0  0  0  0
  9 10  1  0  0  0  0
  9  6  1  0  0  0  0
 10 15  1  0  0  0  0
 11 16  1  0  0  0  0
 11 10  2  0  0  0  0
 12 11  1  0  0  0  0
 13 12  2  0  0  0  0
 13 14  1  0  0  0  0
 14  9  2  0  0  0  0
 17 13  1  0  0  0  0
 18  2  1  0  0  0  0
 20 19  1  0  0  0  0
 21 20  1  0  0  0  0
 21 18  1  0  0  0  0
 22 21  2  0  0  0  0
 23 22  1  0  0  0  0
 24 26  2  0  0  0  0
 24 22  1  0  0  0  0
 25 24  1  0  0  0  0
 26 27  1  0  0  0  0
 27 20  2  0  0  0  0
M  END
>  <minimizedAffinity>
-4.6645751

$$$$

 OpenBabel03272504203D

 27 28  0  0  0  0  0  0  0  0999 V2000
   35.1720   27.0260   31.6870 O   0  0  0  0  0  0  0  0  0  0  0  0
   36.5730   27.0350   31.1480 P   0  0  2  0  0  0  0  0  0  0  0  0
   36.4970   27.6380   29.5420 O   0  0  0  0  0  0  0  0  0  0  0  0
   37.3190   27.3940   29.0500 H   0  0  0  0  0  0  0  0  0  0  0  0
   37.1820   25.4590   31.0930 O   0  0  0  0  0  0  0  0  0  0  0  0
   36.1310   24.5820   31.1250 C   0  0  0  0  0  0  0  0  0  0  0  0
   35.4050   24.7570   31.9410 H   0  0  0  0  0  0  0  0  0  0  0  0
   35.5400   24.7520   30.1800 H   0  0  0  0  0  0  0  0  0  0  0  0
   36.5500   23.1590   31.0490 C   0  0  0  0  0  0  0  0  0  0  0  0
   35.5850   22.1880   31.3430 C   0  0  0  0  0  0  0  0  0  0  0  0
   35.9550   20.8400   31.2780 C   0  0  0  0  0  0  0  0  0  0  0  0
   37.2390   20.5480   30.9300 N   0  0  0  0  0  0  0  0  0  0  0  0
   38.1430   21.5120   30.6520 C   0  0  0  0  0  0  0  0  0  0  0  0
   37.8050   22.8040   30.7100 N   0  0  0  0  0  0  0  0  0  0  0  0
   34.5620   22.4260   31.6210 H   0  0  0  0  0  0  0  0  0  0  0  0
   35.2190   20.0770   31.5030 H   0  0  0  0  0  0  0  0  0  0  0  0
   39.1590   21.2120   30.3790 H   0  0  0  0  0  0  0  0  0  0  0  0
   37.5500   28.0200   32.1030 O   0  0  0  0  0  0  0  0  0  0  0  0
   36.0880   28.0680   34.5060 F   0  0  0  0  0  0  0  0  0  0  0  0
   37.3430   27.6220   34.5780 C   0  0  0  0  0  0  0  0  0  0  0  0
   37.9910   27.6300   33.3600 C   0  0  0  0  0  0  0  0  0  0  0  0
   39.3140   27.1910   33.2740 C   0  0  0  0  0  0  0  0  0  0  0  0
   39.9450   27.1410   32.3960 H   0  0  0  0  0  0  0  0  0  0  0  0
   39.9940   26.7430   34.4120 C   0  0  0  0  0  0  0  0  0  0  0  0
   41.0110   26.3920   34.4120 H   0  0  0  0  0  0  0  0  0  0  0  0
   39.3090   26.7490   35.6200 C   0  0  0  0  0  3  0  0  0  0  0  0
   38.0060   27.1830   35.6970 C   0  0  0  0  0  3  0  0  0  0  0  0
  2  1  2  1  0  0  0
  2 18  1  0  0  0  0
  3  2  1  0  0  0  0
  4  3  1  0  0  0  0
  5  6  1  0  0  0  0
  5  2  1  0  0  0  0
  6  7  1  0  0  0  0
  8  6  1  0  0  0  0
  9  6  1  0  0  0  0
  9 10  1  0  0  0  0
 10 15  1  0  0  0  0
 11 10  2  0  0  0  0
 11 16  1  0  0  0  0
 12 11  1  0  0  0  0
 13 14  1  0  0  0  0
 13 12  2  0  0  0  0
 14  9  2  0  0  0  0
 17 13  1  0  0  0  0
 18 21  1  0  0  0  0
 19 20  1  0  0  0  0
 20 27  1  0  0  0  0
 21 20  2  0  0  0  0
 22 21  1  0  0  0  0
 22 24  2  0  0  0  0
 23 22  1  0  0  0  0
 24 25  1  0  0  0  0
 24 26  1  0  0  0  0
 26 27  2  0  0  0  0
M  END
>  <minimizedAffinity>
-4.60591412

$$$$

 OpenBabel03272504203D

 27 28  0  0  0  0  0  0  0  0999 V2000
   33.9530   29.9950   32.2610 O   0  0  0  0  0  0  0  0  0  0  0  0
   35.2510   30.0600   33.0120 P   0  0  2  0  0  0  0  0  0  0  0  0
   35.8810   31.6440   32.8050 O   0  0  0  0  0  0  0  0  0  0  0  0
   36.8460   31.6540   33.0200 H   0  0  0  0  0  0  0  0  0  0  0  0
   36.3550   28.9610   32.3550 O   0  0  0  0  0  0  0  0  0  0  0  0
   36.3060   27.8040   33.0840 C   0  0  0  0  0  0  0  0  0  0  0  0
   35.4390   27.7190   33.7650 H   0  0  0  0  0  0  0  0  0  0  0  0
   36.1680   26.9630   32.3450 H   0  0  0  0  0  0  0  0  0  0  0  0
   37.5850   27.4860   33.7700 C   0  0  0  0  0  0  0  0  0  0  0  0
   37.5820   27.4890   35.1710 C   0  0  0  0  0  0  0  0  0  0  0  0
   38.7750   27.1940   35.8400 C   0  0  0  0  0  0  0  0  0  0  0  0
   39.8760   26.9180   35.0870 N   0  0  0  0  0  0  0  0  0  0  0  0
   39.8420   26.9240   33.7370 C   0  0  0  0  0  0  0  0  0  0  0  0
   38.7100   27.2050   33.0830 N   0  0  0  0  0  0  0  0  0  0  0  0
   36.7010   27.7100   35.7670 H   0  0  0  0  0  0  0  0  0  0  0  0
   38.7880   27.1920   36.9240 H   0  0  0  0  0  0  0  0  0  0  0  0
   40.7610   26.6940   33.1910 H   0  0  0  0  0  0  0  0  0  0  0  0
   34.9870   29.7380   34.6440 O   0  0  0  0  0  0  0  0  0  0  0  0
   36.6830   31.5200   36.0080 F   0  0  0  0  0  0  0  0  0  0  0  0
   35.3760   31.6340   36.2500 C   0  0  0  0  0  0  0  0  0  0  0  0
   34.6140   30.7260   35.5450 C   0  0  0  0  0  0  0  0  0  0  0  0
   33.2250   30.7220   35.6920 C   0  0  0  0  0  0  0  0  0  0  0  0
   32.5050   30.0750   35.2080 H   0  0  0  0  0  0  0  0  0  0  0  0
   32.5940   31.6290   36.5500 C   0  0  0  0  0  0  0  0  0  0  0  0
   31.5310   31.6770   36.7080 H   0  0  0  0  0  0  0  0  0  0  0  0
   33.3950   32.5270   37.2430 C   0  0  0  0  0  3  0  0  0  0  0  0
   34.7620   32.5260   37.0930 C   0  0  0  0  0  3  0  0  0  0  0  0
  2  1  2  6  0  0  0
  2 18  1  0  0  0  0
  3  2  1  0  0  0  0
  3  4  1  0  0  0  0
  5  2  1  0  0  0  0
  5  6  1  0  0  0  0
  6  7  1  0  0  0  0
  6  9  1  0  0  0  0
  8  6  1  0  0  0  0
  9 10  1  0  0  0  0
 10 15  1  0  0  0  0
 10 11  2  0  0  0  0
 11 16  1  0  0  0  0
 12 11  1  0  0  0  0
 13 12  2  0  0  0  0
 14 13  1  0  0  0  0
 14  9  2  0  0  0  0
 17 13  1  0  0  0  0
 18 21  1  0  0  0  0
 19 20  1  0  0  0  0
 20 27  1  0  0  0  0
 21 22  1  0  0  0  0
 21 20  2  0  0  0  0
 22 24  2  0  0  0  0
 23 22  1  0  0  0  0
 24 25  1  0  0  0  0
 24 26  1  0  0  0  0
 27 26  2  0  0  0  0
M  END
>  <minimizedAffinity>
-4.55532074

$$$$

 OpenBabel03272504203D

 27 28  0  0  0  0  0  0  0  0999 V2000
   39.9110   26.7280   35.0250 O   0  0  0  0  0  0  0  0  0  0  0  0
   38.4630   26.6490   35.4090 P   0  0  2  0  0  0  0  0  0  0  0  0
   38.0360   28.1630   36.0970 O   0  0  0  0  0  0  0  0  0  0  0  0
   37.2040   28.0720   36.6250 H   0  0  0  0  0  0  0  0  0  0  0  0
   38.2400   25.4530   36.5820 O   0  0  0  0  0  0  0  0  0  0  0  0
   38.1240   24.2420   35.9550 C   0  0  0  0  0  0  0  0  0  0  0  0
   37.1740   23.7080   36.1450 H   0  0  0  0  0  0  0  0  0  0  0  0
   38.1130   24.4520   34.8470 H   0  0  0  0  0  0  0  0  0  0  0  0
   39.3050   23.3620   36.1530 C   0  0  0  0  0  0  0  0  0  0  0  0
   40.0640   23.0390   35.0200 C   0  0  0  0  0  0  0  0  0  0  0  0
   41.1810   22.2120   35.1800 C   0  0  0  0  0  0  0  0  0  0  0  0
   41.4680   21.7650   36.4350 N   0  0  0  0  0  0  0  0  0  0  0  0
   40.7130   22.0970   37.5040 C   0  0  0  0  0  0  0  0  0  0  0  0
   39.6430   22.8870   37.3680 N   0  0  0  0  0  0  0  0  0  0  0  0
   39.8310   23.3990   34.0220 H   0  0  0  0  0  0  0  0  0  0  0  0
   41.7780   21.9550   34.3140 H   0  0  0  0  0  0  0  0  0  0  0  0
   40.9970   21.7050   38.4850 H   0  0  0  0  0  0  0  0  0  0  0  0
   37.5230   26.3330   34.0480 O   0  0  0  0  0  0  0  0  0  0  0  0
   35.6320   28.4150   34.0800 F   0  0  0  0  0  0  0  0  0  0  0  0
   36.4080   28.3270   32.9980 C   0  0  0  0  0  0  0  0  0  0  0  0
   37.3060   27.2820   33.0590 C   0  0  0  0  0  0  0  0  0  0  0  0
   38.1880   27.0610   31.9990 C   0  0  0  0  0  0  0  0  0  0  0  0
   38.9400   26.2890   31.9070 H   0  0  0  0  0  0  0  0  0  0  0  0
   38.1710   27.8880   30.8700 C   0  0  0  0  0  0  0  0  0  0  0  0
   38.8220   27.7710   30.0220 H   0  0  0  0  0  0  0  0  0  0  0  0
   37.2520   28.9290   30.8450 C   0  0  0  0  0  3  0  0  0  0  0  0
   36.3870   29.1420   31.8930 C   0  0  0  0  0  3  0  0  0  0  0  0
  2  1  2  6  0  0  0
  2  3  1  0  0  0  0
  2  5  1  0  0  0  0
  3  4  1  0  0  0  0
  6  7  1  0  0  0  0
  6  9  1  0  0  0  0
  6  5  1  0  0  0  0
  8  6  1  0  0  0  0
  9 14  1  0  0  0  0
 10 11  1  0  0  0  0
 10  9  2  0  0  0  0
 11 12  2  0  0  0  0
 12 13  1  0  0  0  0
 13 17  1  0  0  0  0
 14 13  2  0  0  0  0
 15 10  1  0  0  0  0
 16 11  1  0  0  0  0
 18  2  1  0  0  0  0
 20 21  1  0  0  0  0
 20 19  1  0  0  0  0
 21 18  1  0  0  0  0
 22 21  2  0  0  0  0
 23 22  1  0  0  0  0
 24 22  1  0  0  0  0
 25 24  1  0  0  0  0
 26 24  2  0  0  0  0
 26 27  1  0  0  0  0
 27 20  2  0  0  0  0
M  END
>  <minimizedAffinity>
-4.53296041

$$$$
