
 OpenBabel03262522253D

 35 37  0  0  0  0  0  0  0  0999 V2000
   37.0190   25.4550   32.8120 C   0  0  0  0  0  0  0  0  0  0  0  0
   37.8690   25.5010   33.9230 C   0  0  0  0  0  0  0  0  0  0  0  0
   38.0390   26.7190   34.5480 C   0  0  0  0  0  0  0  0  0  0  0  0
   37.3780   27.8050   34.0550 N   0  0  0  0  0  0  0  0  0  0  0  0
   36.5920   27.7130   33.0090 C   0  0  0  0  0  0  0  0  0  0  0  0
   36.3730   26.5190   32.3320 N   0  0  0  0  0  0  0  0  0  0  0  0
   36.8510   24.5140   32.2820 H   0  0  0  0  0  0  0  0  0  0  0  0
   38.6930   26.7460   35.3990 H   0  0  0  0  0  0  0  0  0  0  0  0
   38.4590   24.3380   34.2970 O   0  0  0  0  0  0  0  0  0  0  0  0
   38.5210   24.0320   35.6630 C   0  0  0  0  0  0  0  0  0  0  0  0
   37.6730   24.4450   36.6750 C   0  0  0  0  0  0  0  0  0  0  0  0
   37.8990   24.0420   37.9400 C   0  0  0  0  0  0  0  0  0  0  0  0
   38.9690   23.2290   38.1910 C   0  0  0  0  0  0  0  0  0  0  0  0
   39.8200   22.8170   37.1700 C   0  0  0  0  0  0  0  0  0  0  0  0
   39.5650   23.2390   35.9070 N   0  0  0  0  0  0  0  0  0  0  0  0
   36.8650   25.0950   36.3150 H   0  0  0  0  0  0  0  0  0  0  0  0
   37.2090   24.3920   38.6970 H   0  0  0  0  0  0  0  0  0  0  0  0
   39.1480   22.9070   39.2040 H   0  0  0  0  0  0  0  0  0  0  0  0
   40.9920   21.9200   37.4890 C   0  0  0  0  0  0  0  0  0  0  0  0
   41.2700   21.3700   36.5530 H   0  0  0  0  0  0  0  0  0  0  0  0
   41.8670   22.5860   37.6850 H   0  0  0  0  0  0  0  0  0  0  0  0
   40.7540   21.2270   38.3020 H   0  0  0  0  0  0  0  0  0  0  0  0
   35.8560   29.3140   32.5870 S   0  0  0  0  0  0  0  0  0  0  0  0
   34.2940   29.3530   33.5310 C   0  0  0  0  0  0  0  0  0  0  0  0
   33.4570   29.7030   32.8910 H   0  0  0  0  0  0  0  0  0  0  0  0
   34.0480   28.3310   33.8960 H   0  0  0  0  0  0  0  0  0  0  0  0
   32.1540   29.9650   35.1540 F   0  0  0  0  0  0  0  0  0  0  0  0
   33.3730   30.5270   35.4220 C   0  0  0  0  0  0  0  0  0  0  0  0
   34.5170   30.2950   34.6710 C   0  0  0  0  0  0  0  0  0  0  0  0
   35.7040   30.8920   34.9900 C   0  0  0  0  0  0  0  0  0  0  0  0
   36.5420   30.6570   34.3520 H   0  0  0  0  0  0  0  0  0  0  0  0
   35.8050   31.7580   36.0860 C   0  0  0  0  0  0  0  0  0  0  0  0
   36.7690   32.2130   36.3040 H   0  0  0  0  0  0  0  0  0  0  0  0
   34.6740   31.9990   36.8430 C   0  0  0  0  0  3  0  0  0  0  0  0
   33.4790   31.3870   36.5050 C   0  0  0  0  0  3  0  0  0  0  0  0
  1  2  1  0  0  0  0
  2  9  1  0  0  0  0
  2  3  2  0  0  0  0
  3  8  1  0  0  0  0
  4  3  1  0  0  0  0
  5  4  2  0  0  0  0
  6  1  2  0  0  0  0
  6  5  1  0  0  0  0
  7  1  1  0  0  0  0
  9 10  1  0  0  0  0
 10 15  2  0  0  0  0
 10 11  1  0  0  0  0
 11 12  2  0  0  0  0
 12 13  1  0  0  0  0
 12 17  1  0  0  0  0
 13 18  1  0  0  0  0
 14 19  1  0  0  0  0
 14 13  2  0  0  0  0
 15 14  1  0  0  0  0
 16 11  1  0  0  0  0
 19 21  1  0  0  0  0
 19 22  1  0  0  0  0
 20 19  1  0  0  0  0
 23  5  1  0  0  0  0
 23 24  1  0  0  0  0
 24 26  1  0  0  0  0
 24 29  1  0  0  0  0
 25 24  1  0  0  0  0
 27 28  1  0  0  0  0
 28 35  1  0  0  0  0
 29 30  1  0  0  0  0
 29 28  2  0  0  0  0
 30 32  2  0  0  0  0
 31 30  1  0  0  0  0
 32 33  1  0  0  0  0
 32 34  1  0  0  0  0
 35 34  2  0  0  0  0
M  END
>  <minimizedAffinity>
-5.95461416

$$$$

 OpenBabel03262522253D

 35 37  0  0  0  0  0  0  0  0999 V2000
   35.9460   28.0550   32.3060 C   0  0  0  0  0  0  0  0  0  0  0  0
   35.9320   28.8250   33.4750 C   0  0  0  0  0  0  0  0  0  0  0  0
   36.5160   28.2840   34.6020 C   0  0  0  0  0  0  0  0  0  0  0  0
   37.0700   27.0420   34.5210 N   0  0  0  0  0  0  0  0  0  0  0  0
   37.0580   26.3580   33.4020 C   0  0  0  0  0  0  0  0  0  0  0  0
   36.4890   26.8390   32.2280 N   0  0  0  0  0  0  0  0  0  0  0  0
   35.4960   28.4380   31.3860 H   0  0  0  0  0  0  0  0  0  0  0  0
   36.5010   28.8810   35.4940 H   0  0  0  0  0  0  0  0  0  0  0  0
   35.3430   30.0440   33.4040 O   0  0  0  0  0  0  0  0  0  0  0  0
   35.0510   30.7140   34.5990 C   0  0  0  0  0  0  0  0  0  0  0  0
   35.8590   31.5770   35.3180 C   0  0  0  0  0  0  0  0  0  0  0  0
   35.3980   32.1280   36.4580 C   0  0  0  0  0  0  0  0  0  0  0  0
   34.1330   31.8170   36.8750 C   0  0  0  0  0  0  0  0  0  0  0  0
   33.3250   30.9470   36.1490 C   0  0  0  0  0  0  0  0  0  0  0  0
   33.8180   30.4100   35.0060 N   0  0  0  0  0  0  0  0  0  0  0  0
   36.8440   31.7240   34.8560 H   0  0  0  0  0  0  0  0  0  0  0  0
   36.0670   32.7950   36.9850 H   0  0  0  0  0  0  0  0  0  0  0  0
   33.7660   32.2590   37.7870 H   0  0  0  0  0  0  0  0  0  0  0  0
   31.9360   30.6280   36.6450 C   0  0  0  0  0  0  0  0  0  0  0  0
   31.3230   30.2990   35.7660 H   0  0  0  0  0  0  0  0  0  0  0  0
   32.0190   29.7110   37.2780 H   0  0  0  0  0  0  0  0  0  0  0  0
   31.4830   31.4890   37.1460 H   0  0  0  0  0  0  0  0  0  0  0  0
   37.8640   24.7460   33.5990 S   0  0  0  0  0  0  0  0  0  0  0  0
   39.3470   25.1060   34.6000 C   0  0  0  0  0  0  0  0  0  0  0  0
   40.2560   24.6820   34.1230 H   0  0  0  0  0  0  0  0  0  0  0  0
   39.4830   26.2060   34.6910 H   0  0  0  0  0  0  0  0  0  0  0  0
   41.0270   23.0740   35.4010 F   0  0  0  0  0  0  0  0  0  0  0  0
   40.0180   23.4710   36.2370 C   0  0  0  0  0  0  0  0  0  0  0  0
   39.1110   24.4780   35.9370 C   0  0  0  0  0  0  0  0  0  0  0  0
   38.1240   24.8230   36.8150 C   0  0  0  0  0  0  0  0  0  0  0  0
   37.4620   25.6150   36.5010 H   0  0  0  0  0  0  0  0  0  0  0  0
   37.9940   24.1720   38.0490 C   0  0  0  0  0  0  0  0  0  0  0  0
   37.1930   24.4760   38.7190 H   0  0  0  0  0  0  0  0  0  0  0  0
   38.8900   23.1660   38.3620 C   0  0  0  0  0  3  0  0  0  0  0  0
   39.8840   22.8290   37.4600 C   0  0  0  0  0  3  0  0  0  0  0  0
  1  2  1  0  0  0  0
  2  3  2  0  0  0  0
  3  8  1  0  0  0  0
  4  3  1  0  0  0  0
  5 23  1  0  0  0  0
  5  4  2  0  0  0  0
  6  1  2  0  0  0  0
  6  5  1  0  0  0  0
  7  1  1  0  0  0  0
  9  2  1  0  0  0  0
  9 10  1  0  0  0  0
 10 15  2  0  0  0  0
 10 11  1  0  0  0  0
 11 12  2  0  0  0  0
 12 13  1  0  0  0  0
 12 17  1  0  0  0  0
 13 18  1  0  0  0  0
 14 19  1  0  0  0  0
 14 13  2  0  0  0  0
 15 14  1  0  0  0  0
 16 11  1  0  0  0  0
 19 22  1  0  0  0  0
 19 21  1  0  0  0  0
 20 19  1  0  0  0  0
 23 24  1  0  0  0  0
 24 26  1  0  0  0  0
 24 29  1  0  0  0  0
 25 24  1  0  0  0  0
 27 28  1  0  0  0  0
 28 35  1  0  0  0  0
 29 28  2  0  0  0  0
 29 30  1  0  0  0  0
 30 32  2  0  0  0  0
 31 30  1  0  0  0  0
 32 34  1  0  0  0  0
 32 33  1  0  0  0  0
 35 34  2  0  0  0  0
M  END
>  <minimizedAffinity>
-5.82342958

$$$$

 OpenBabel03262522253D

 35 37  0  0  0  0  0  0  0  0999 V2000
   36.8970   24.9540   32.6700 C   0  0  0  0  0  0  0  0  0  0  0  0
   37.9200   24.9350   33.6250 C   0  0  0  0  0  0  0  0  0  0  0  0
   38.5340   26.1330   33.9280 C   0  0  0  0  0  0  0  0  0  0  0  0
   38.1180   27.2620   33.2870 N   0  0  0  0  0  0  0  0  0  0  0  0
   37.1540   27.2310   32.3990 C   0  0  0  0  0  0  0  0  0  0  0  0
   36.4910   26.0610   32.0450 N   0  0  0  0  0  0  0  0  0  0  0  0
   36.3780   24.0320   32.3950 H   0  0  0  0  0  0  0  0  0  0  0  0
   39.3180   26.1090   34.6610 H   0  0  0  0  0  0  0  0  0  0  0  0
   38.2260   23.7350   34.1770 O   0  0  0  0  0  0  0  0  0  0  0  0
   38.3890   23.6620   35.5670 C   0  0  0  0  0  0  0  0  0  0  0  0
   37.5970   24.2220   36.5540 C   0  0  0  0  0  0  0  0  0  0  0  0
   37.9200   24.0420   37.8490 C   0  0  0  0  0  0  0  0  0  0  0  0
   39.0290   23.3030   38.1550 C   0  0  0  0  0  0  0  0  0  0  0  0
   39.8220   22.7420   37.1580 C   0  0  0  0  0  0  0  0  0  0  0  0
   39.4710   22.9420   35.8640 N   0  0  0  0  0  0  0  0  0  0  0  0
   36.7470   24.7880   36.1500 H   0  0  0  0  0  0  0  0  0  0  0  0
   37.2710   24.5000   38.5840 H   0  0  0  0  0  0  0  0  0  0  0  0
   39.2850   23.1590   39.1920 H   0  0  0  0  0  0  0  0  0  0  0  0
   41.0390   21.9340   37.5370 C   0  0  0  0  0  0  0  0  0  0  0  0
   41.2720   21.2410   36.6880 H   0  0  0  0  0  0  0  0  0  0  0  0
   41.9050   22.6410   37.5580 H   0  0  0  0  0  0  0  0  0  0  0  0
   40.8790   21.3830   38.4690 H   0  0  0  0  0  0  0  0  0  0  0  0
   36.8230   28.8770   31.7180 S   0  0  0  0  0  0  0  0  0  0  0  0
   35.2400   29.3680   32.4810 C   0  0  0  0  0  0  0  0  0  0  0  0
   34.5510   29.7910   31.7200 H   0  0  0  0  0  0  0  0  0  0  0  0
   34.7490   28.4800   32.9370 H   0  0  0  0  0  0  0  0  0  0  0  0
   35.6670   31.9630   31.6610 F   0  0  0  0  0  0  0  0  0  0  0  0
   35.7640   31.6620   32.9930 C   0  0  0  0  0  0  0  0  0  0  0  0
   35.5740   30.3920   33.5190 C   0  0  0  0  0  0  0  0  0  0  0  0
   35.6890   30.1580   34.8590 C   0  0  0  0  0  0  0  0  0  0  0  0
   35.5270   29.1410   35.1820 H   0  0  0  0  0  0  0  0  0  0  0  0
   36.0020   31.1940   35.7490 C   0  0  0  0  0  0  0  0  0  0  0  0
   36.0860   30.9650   36.8090 H   0  0  0  0  0  0  0  0  0  0  0  0
   36.1950   32.4650   35.2410 C   0  0  0  0  0  3  0  0  0  0  0  0
   36.0750   32.6840   33.8790 C   0  0  0  0  0  3  0  0  0  0  0  0
  1  2  1  0  0  0  0
  2  3  2  0  0  0  0
  2  9  1  0  0  0  0
  3  8  1  0  0  0  0
  4  3  1  0  0  0  0
  5  4  2  0  0  0  0
  6  5  1  0  0  0  0
  6  1  2  0  0  0  0
  7  1  1  0  0  0  0
  9 10  1  0  0  0  0
 10 15  2  0  0  0  0
 10 11  1  0  0  0  0
 11 12  2  0  0  0  0
 12 13  1  0  0  0  0
 12 17  1  0  0  0  0
 13 18  1  0  0  0  0
 14 19  1  0  0  0  0
 14 13  2  0  0  0  0
 15 14  1  0  0  0  0
 16 11  1  0  0  0  0
 19 21  1  0  0  0  0
 19 22  1  0  0  0  0
 20 19  1  0  0  0  0
 23  5  1  0  0  0  0
 23 24  1  0  0  0  0
 24 26  1  0  0  0  0
 24 29  1  0  0  0  0
 25 24  1  0  0  0  0
 27 28  1  0  0  0  0
 28 29  2  0  0  0  0
 28 35  1  0  0  0  0
 29 30  1  0  0  0  0
 30 31  1  0  0  0  0
 30 32  2  0  0  0  0
 32 33  1  0  0  0  0
 34 32  1  0  0  0  0
 35 34  2  0  0  0  0
M  END
>  <minimizedAffinity>
-5.54909134

$$$$

 OpenBabel03262522253D

 35 37  0  0  0  0  0  0  0  0999 V2000
   37.8960   26.2430   31.2700 C   0  0  0  0  0  0  0  0  0  0  0  0
   36.8260   25.3670   31.0520 C   0  0  0  0  0  0  0  0  0  0  0  0
   35.5500   25.8590   31.2330 C   0  0  0  0  0  0  0  0  0  0  0  0
   35.3980   27.1600   31.6110 N   0  0  0  0  0  0  0  0  0  0  0  0
   36.4320   27.9430   31.8040 C   0  0  0  0  0  0  0  0  0  0  0  0
   37.7440   27.5160   31.6390 N   0  0  0  0  0  0  0  0  0  0  0  0
   38.9260   25.9020   31.1400 H   0  0  0  0  0  0  0  0  0  0  0  0
   34.7350   25.1810   31.0650 H   0  0  0  0  0  0  0  0  0  0  0  0
   37.1320   24.0990   30.6810 O   0  0  0  0  0  0  0  0  0  0  0  0
   36.6920   23.0430   31.4880 C   0  0  0  0  0  0  0  0  0  0  0  0
   35.6700   22.1430   31.2420 C   0  0  0  0  0  0  0  0  0  0  0  0
   35.3910   21.1860   32.1490 C   0  0  0  0  0  0  0  0  0  0  0  0
   36.1320   21.1310   33.2970 C   0  0  0  0  0  0  0  0  0  0  0  0
   37.1580   22.0390   33.5400 C   0  0  0  0  0  0  0  0  0  0  0  0
   37.4150   22.9890   32.6080 N   0  0  0  0  0  0  0  0  0  0  0  0
   35.1680   22.3190   30.2810 H   0  0  0  0  0  0  0  0  0  0  0  0
   34.5820   20.5070   31.9120 H   0  0  0  0  0  0  0  0  0  0  0  0
   35.9080   20.3640   34.0200 H   0  0  0  0  0  0  0  0  0  0  0  0
   37.9520   21.9440   34.8200 C   0  0  0  0  0  0  0  0  0  0  0  0
   38.9470   22.4300   34.6460 H   0  0  0  0  0  0  0  0  0  0  0  0
   37.4490   22.6100   35.5630 H   0  0  0  0  0  0  0  0  0  0  0  0
   38.0670   20.9050   35.1430 H   0  0  0  0  0  0  0  0  0  0  0  0
   35.9200   29.6100   32.3000 S   0  0  0  0  0  0  0  0  0  0  0  0
   34.4640   29.3340   33.3650 C   0  0  0  0  0  0  0  0  0  0  0  0
   33.5260   29.5610   32.8150 H   0  0  0  0  0  0  0  0  0  0  0  0
   34.4290   28.2700   33.6870 H   0  0  0  0  0  0  0  0  0  0  0  0
   32.2340   29.9270   34.8680 F   0  0  0  0  0  0  0  0  0  0  0  0
   33.4380   30.4730   35.2220 C   0  0  0  0  0  0  0  0  0  0  0  0
   34.6240   30.2480   34.5370 C   0  0  0  0  0  0  0  0  0  0  0  0
   35.7930   30.8280   34.9410 C   0  0  0  0  0  0  0  0  0  0  0  0
   36.6670   30.6000   34.3500 H   0  0  0  0  0  0  0  0  0  0  0  0
   35.8330   31.6680   36.0610 C   0  0  0  0  0  0  0  0  0  0  0  0
   36.7850   32.1110   36.3480 H   0  0  0  0  0  0  0  0  0  0  0  0
   34.6600   31.9020   36.7540 C   0  0  0  0  0  3  0  0  0  0  0  0
   33.4840   31.3070   36.3300 C   0  0  0  0  0  3  0  0  0  0  0  0
  1  6  1  0  0  0  0
  2  3  1  0  0  0  0
  2  1  2  0  0  0  0
  3  4  2  0  0  0  0
  4  5  1  0  0  0  0
  5 23  1  0  0  0  0
  6  5  2  0  0  0  0
  7  1  1  0  0  0  0
  8  3  1  0  0  0  0
  9  2  1  0  0  0  0
  9 10  1  0  0  0  0
 10 15  1  0  0  0  0
 11 10  2  0  0  0  0
 11 12  1  0  0  0  0
 12 13  2  0  0  0  0
 13 14  1  0  0  0  0
 13 18  1  0  0  0  0
 14 19  1  0  0  0  0
 15 14  2  0  0  0  0
 16 11  1  0  0  0  0
 17 12  1  0  0  0  0
 19 22  1  0  0  0  0
 19 21  1  0  0  0  0
 20 19  1  0  0  0  0
 23 24  1  0  0  0  0
 24 26  1  0  0  0  0
 24 29  1  0  0  0  0
 25 24  1  0  0  0  0
 27 28  1  0  0  0  0
 28 35  1  0  0  0  0
 29 30  1  0  0  0  0
 29 28  2  0  0  0  0
 30 32  2  0  0  0  0
 31 30  1  0  0  0  0
 32 33  1  0  0  0  0
 32 34  1  0  0  0  0
 35 34  2  0  0  0  0
M  END
>  <minimizedAffinity>
-5.40066242

$$$$

 OpenBabel03262522253D

 35 37  0  0  0  0  0  0  0  0999 V2000
   36.2660   27.6840   32.4710 C   0  0  0  0  0  0  0  0  0  0  0  0
   36.1640   28.4850   33.6150 C   0  0  0  0  0  0  0  0  0  0  0  0
   36.6990   27.9930   34.7880 C   0  0  0  0  0  0  0  0  0  0  0  0
   37.2910   26.7660   34.7740 N   0  0  0  0  0  0  0  0  0  0  0  0
   37.3620   26.0510   33.6760 C   0  0  0  0  0  0  0  0  0  0  0  0
   36.8470   26.4830   32.4590 N   0  0  0  0  0  0  0  0  0  0  0  0
   35.8580   28.0270   31.5160 H   0  0  0  0  0  0  0  0  0  0  0  0
   36.6160   28.6130   35.6600 H   0  0  0  0  0  0  0  0  0  0  0  0
   35.5450   29.6830   33.4750 O   0  0  0  0  0  0  0  0  0  0  0  0
   34.5940   30.0570   34.4330 C   0  0  0  0  0  0  0  0  0  0  0  0
   33.3370   29.5200   34.6490 C   0  0  0  0  0  0  0  0  0  0  0  0
   32.5580   30.0200   35.6280 C   0  0  0  0  0  0  0  0  0  0  0  0
   33.0350   31.0520   36.3880 C   0  0  0  0  0  0  0  0  0  0  0  0
   34.3000   31.5880   36.1660 C   0  0  0  0  0  0  0  0  0  0  0  0
   35.0590   31.0630   35.1740 N   0  0  0  0  0  0  0  0  0  0  0  0
   33.0980   28.7010   33.9580 H   0  0  0  0  0  0  0  0  0  0  0  0
   31.5830   29.5680   35.7570 H   0  0  0  0  0  0  0  0  0  0  0  0
   32.4100   31.4490   37.1710 H   0  0  0  0  0  0  0  0  0  0  0  0
   34.7890   32.7280   37.0260 C   0  0  0  0  0  0  0  0  0  0  0  0
   35.9100   32.7230   37.0010 H   0  0  0  0  0  0  0  0  0  0  0  0
   34.5090   33.6740   36.5010 H   0  0  0  0  0  0  0  0  0  0  0  0
   34.4130   32.6460   38.0500 H   0  0  0  0  0  0  0  0  0  0  0  0
   38.2010   24.4710   33.9650 S   0  0  0  0  0  0  0  0  0  0  0  0
   38.3410   24.3630   35.7810 C   0  0  0  0  0  0  0  0  0  0  0  0
   38.3630   25.3760   36.2350 H   0  0  0  0  0  0  0  0  0  0  0  0
   37.4660   23.8160   36.1960 H   0  0  0  0  0  0  0  0  0  0  0  0
   38.5320   22.9180   38.1190 F   0  0  0  0  0  0  0  0  0  0  0  0
   39.5980   22.9370   37.2610 C   0  0  0  0  0  0  0  0  0  0  0  0
   39.6160   23.6320   36.0600 C   0  0  0  0  0  0  0  0  0  0  0  0
   40.7150   23.6130   35.2490 C   0  0  0  0  0  0  0  0  0  0  0  0
   40.6440   24.1830   34.3360 H   0  0  0  0  0  0  0  0  0  0  0  0
   41.8620   22.8890   35.6040 C   0  0  0  0  0  0  0  0  0  0  0  0
   42.7160   22.9020   34.9310 H   0  0  0  0  0  0  0  0  0  0  0  0
   41.8590   22.1920   36.7970 C   0  0  0  0  0  3  0  0  0  0  0  0
   40.7360   22.2230   37.6070 C   0  0  0  0  0  3  0  0  0  0  0  0
  1  2  1  0  0  0  0
  2  3  2  0  0  0  0
  3  8  1  0  0  0  0
  4  3  1  0  0  0  0
  5 23  1  0  0  0  0
  5  4  2  0  0  0  0
  6  1  2  0  0  0  0
  6  5  1  0  0  0  0
  7  1  1  0  0  0  0
  9  2  1  0  0  0  0
  9 10  1  0  0  0  0
 10 11  2  0  0  0  0
 10 15  1  0  0  0  0
 11 12  1  0  0  0  0
 12 17  1  0  0  0  0
 12 13  2  0  0  0  0
 13 18  1  0  0  0  0
 14 13  1  0  0  0  0
 14 19  1  0  0  0  0
 15 14  2  0  0  0  0
 16 11  1  0  0  0  0
 19 22  1  0  0  0  0
 20 19  1  0  0  0  0
 21 19  1  0  0  0  0
 23 24  1  0  0  0  0
 24 29  1  0  0  0  0
 24 26  1  0  0  0  0
 24 25  1  0  0  0  0
 28 35  1  0  0  0  0
 28 27  1  0  0  0  0
 29 28  2  0  0  0  0
 30 32  2  0  0  0  0
 30 29  1  0  0  0  0
 31 30  1  0  0  0  0
 32 34  1  0  0  0  0
 33 32  1  0  0  0  0
 34 35  2  0  0  0  0
M  END
>  <minimizedAffinity>
-5.39715719

$$$$

 OpenBabel03262522253D

 35 37  0  0  0  0  0  0  0  0999 V2000
   36.5850   27.9690   33.3440 C   0  0  0  0  0  0  0  0  0  0  0  0
   35.8270   27.9080   32.1690 C   0  0  0  0  0  0  0  0  0  0  0  0
   35.7940   26.7070   31.4910 C   0  0  0  0  0  0  0  0  0  0  0  0
   36.4940   25.6520   31.9950 N   0  0  0  0  0  0  0  0  0  0  0  0
   37.1910   25.7560   33.1010 C   0  0  0  0  0  0  0  0  0  0  0  0
   37.2690   26.9330   33.8360 N   0  0  0  0  0  0  0  0  0  0  0  0
   36.6440   28.8970   33.9190 H   0  0  0  0  0  0  0  0  0  0  0  0
   35.2110   26.6690   30.5900 H   0  0  0  0  0  0  0  0  0  0  0  0
   35.1850   29.0410   31.7900 O   0  0  0  0  0  0  0  0  0  0  0  0
   35.9490   30.1070   31.2980 C   0  0  0  0  0  0  0  0  0  0  0  0
   36.1660   31.3460   31.8750 C   0  0  0  0  0  0  0  0  0  0  0  0
   36.9380   32.2500   31.2410 C   0  0  0  0  0  0  0  0  0  0  0  0
   37.4900   31.9160   30.0350 C   0  0  0  0  0  0  0  0  0  0  0  0
   37.2680   30.6680   29.4590 C   0  0  0  0  0  0  0  0  0  0  0  0
   36.4870   29.7800   30.1220 N   0  0  0  0  0  0  0  0  0  0  0  0
   35.6540   31.4630   32.8390 H   0  0  0  0  0  0  0  0  0  0  0  0
   37.0770   33.2050   31.7310 H   0  0  0  0  0  0  0  0  0  0  0  0
   38.1080   32.6400   29.5310 H   0  0  0  0  0  0  0  0  0  0  0  0
   37.8940   30.3390   28.1260 C   0  0  0  0  0  0  0  0  0  0  0  0
   37.9700   29.2230   28.0470 H   0  0  0  0  0  0  0  0  0  0  0  0
   37.1510   30.6180   27.3400 H   0  0  0  0  0  0  0  0  0  0  0  0
   38.8740   30.8140   28.0170 H   0  0  0  0  0  0  0  0  0  0  0  0
   38.0120   24.1960   33.5200 S   0  0  0  0  0  0  0  0  0  0  0  0
   39.4420   24.7000   34.5360 C   0  0  0  0  0  0  0  0  0  0  0  0
   40.3720   24.2080   34.1780 H   0  0  0  0  0  0  0  0  0  0  0  0
   39.5850   25.8010   34.4670 H   0  0  0  0  0  0  0  0  0  0  0  0
   40.9930   22.7370   35.6870 F   0  0  0  0  0  0  0  0  0  0  0  0
   39.9750   23.2910   36.4150 C   0  0  0  0  0  0  0  0  0  0  0  0
   39.1300   24.2820   35.9370 C   0  0  0  0  0  0  0  0  0  0  0  0
   38.1290   24.7920   36.7140 C   0  0  0  0  0  0  0  0  0  0  0  0
   37.5170   25.5580   36.2630 H   0  0  0  0  0  0  0  0  0  0  0  0
   37.9240   24.3310   38.0220 C   0  0  0  0  0  0  0  0  0  0  0  0
   37.1140   24.7630   38.6070 H   0  0  0  0  0  0  0  0  0  0  0  0
   38.7580   23.3450   38.5120 C   0  0  0  0  0  3  0  0  0  0  0  0
   39.7670   22.8390   37.7100 C   0  0  0  0  0  3  0  0  0  0  0  0
  1  6  1  0  0  0  0
  1  7  1  0  0  0  0
  2  1  2  0  0  0  0
  3  4  2  0  0  0  0
  3  2  1  0  0  0  0
  4  5  1  0  0  0  0
  5 23  1  0  0  0  0
  5  6  2  0  0  0  0
  8  3  1  0  0  0  0
  9  2  1  0  0  0  0
 10  9  1  0  0  0  0
 10 11  1  0  0  0  0
 11 16  1  0  0  0  0
 12 17  1  0  0  0  0
 12 11  2  0  0  0  0
 13 12  1  0  0  0  0
 14 13  2  0  0  0  0
 14 15  1  0  0  0  0
 15 10  2  0  0  0  0
 18 13  1  0  0  0  0
 19 14  1  0  0  0  0
 20 19  1  0  0  0  0
 21 19  1  0  0  0  0
 22 19  1  0  0  0  0
 23 24  1  0  0  0  0
 24 29  1  0  0  0  0
 25 24  1  0  0  0  0
 26 24  1  0  0  0  0
 27 28  1  0  0  0  0
 28 35  1  0  0  0  0
 29 28  2  0  0  0  0
 29 30  1  0  0  0  0
 30 32  2  0  0  0  0
 31 30  1  0  0  0  0
 32 34  1  0  0  0  0
 32 33  1  0  0  0  0
 35 34  2  0  0  0  0
M  END
>  <minimizedAffinity>
-5.38359308

$$$$

 OpenBabel03262522253D

 35 37  0  0  0  0  0  0  0  0999 V2000
   35.0910   28.6430   32.2610 C   0  0  0  0  0  0  0  0  0  0  0  0
   35.2040   29.3190   33.4810 C   0  0  0  0  0  0  0  0  0  0  0  0
   36.0920   28.8170   34.4100 C   0  0  0  0  0  0  0  0  0  0  0  0
   36.8050   27.6990   34.0950 N   0  0  0  0  0  0  0  0  0  0  0  0
   36.6650   27.0990   32.9380 C   0  0  0  0  0  0  0  0  0  0  0  0
   35.7910   27.5490   31.9550 N   0  0  0  0  0  0  0  0  0  0  0  0
   34.4010   29.0000   31.4910 H   0  0  0  0  0  0  0  0  0  0  0  0
   36.1720   29.3410   35.3430 H   0  0  0  0  0  0  0  0  0  0  0  0
   34.4280   30.4180   33.6520 O   0  0  0  0  0  0  0  0  0  0  0  0
   33.7470   30.5710   34.8660 C   0  0  0  0  0  0  0  0  0  0  0  0
   32.7430   29.7770   35.3930 C   0  0  0  0  0  0  0  0  0  0  0  0
   32.2050   30.0890   36.5880 C   0  0  0  0  0  0  0  0  0  0  0  0
   32.6690   31.1900   37.2530 C   0  0  0  0  0  0  0  0  0  0  0  0
   33.6790   31.9850   36.7180 C   0  0  0  0  0  0  0  0  0  0  0  0
   34.2000   31.6450   35.5140 N   0  0  0  0  0  0  0  0  0  0  0  0
   32.4790   28.9340   34.7410 H   0  0  0  0  0  0  0  0  0  0  0  0
   31.4220   29.4390   36.9580 H   0  0  0  0  0  0  0  0  0  0  0  0
   32.2380   31.4380   38.2090 H   0  0  0  0  0  0  0  0  0  0  0  0
   34.1630   33.1940   37.4830 C   0  0  0  0  0  0  0  0  0  0  0  0
   35.2030   33.4260   37.1370 H   0  0  0  0  0  0  0  0  0  0  0  0
   33.5570   34.0640   37.1310 H   0  0  0  0  0  0  0  0  0  0  0  0
   34.1300   33.0220   38.5630 H   0  0  0  0  0  0  0  0  0  0  0  0
   37.7380   25.6450   32.8080 S   0  0  0  0  0  0  0  0  0  0  0  0
   38.8880   25.8090   34.2150 C   0  0  0  0  0  0  0  0  0  0  0  0
   39.9370   25.6390   33.8880 H   0  0  0  0  0  0  0  0  0  0  0  0
   38.8200   26.8340   34.6410 H   0  0  0  0  0  0  0  0  0  0  0  0
   38.3330   26.6350   36.7830 F   0  0  0  0  0  0  0  0  0  0  0  0
   38.2170   25.3070   36.4730 C   0  0  0  0  0  0  0  0  0  0  0  0
   38.4750   24.7780   35.2170 C   0  0  0  0  0  0  0  0  0  0  0  0
   38.3430   23.4400   34.9730 C   0  0  0  0  0  0  0  0  0  0  0  0
   38.5660   23.1140   33.9690 H   0  0  0  0  0  0  0  0  0  0  0  0
   37.9430   22.5580   35.9860 C   0  0  0  0  0  0  0  0  0  0  0  0
   37.8530   21.5000   35.7500 H   0  0  0  0  0  0  0  0  0  0  0  0
   37.6830   23.0700   37.2430 C   0  0  0  0  0  3  0  0  0  0  0  0
   37.8220   24.4290   37.4720 C   0  0  0  0  0  3  0  0  0  0  0  0
  1  2  1  0  0  0  0
  2  9  1  0  0  0  0
  2  3  2  0  0  0  0
  3  8  1  0  0  0  0
  4  3  1  0  0  0  0
  5  4  2  0  0  0  0
  6  1  2  0  0  0  0
  6  5  1  0  0  0  0
  7  1  1  0  0  0  0
  9 10  1  0  0  0  0
 10 11  2  0  0  0  0
 10 15  1  0  0  0  0
 11 12  1  0  0  0  0
 12 17  1  0  0  0  0
 12 13  2  0  0  0  0
 13 18  1  0  0  0  0
 14 13  1  0  0  0  0
 14 19  1  0  0  0  0
 15 14  2  0  0  0  0
 16 11  1  0  0  0  0
 19 22  1  0  0  0  0
 20 19  1  0  0  0  0
 21 19  1  0  0  0  0
 23  5  1  0  0  0  0
 23 24  1  0  0  0  0
 24 26  1  0  0  0  0
 24 29  1  0  0  0  0
 25 24  1  0  0  0  0
 28 27  1  0  0  0  0
 28 35  1  0  0  0  0
 29 28  2  0  0  0  0
 30 29  1  0  0  0  0
 30 32  2  0  0  0  0
 31 30  1  0  0  0  0
 32 34  1  0  0  0  0
 33 32  1  0  0  0  0
 34 35  2  0  0  0  0
M  END
>  <minimizedAffinity>
-5.3604784

$$$$

 OpenBabel03262522253D

 35 37  0  0  0  0  0  0  0  0999 V2000
   35.8980   26.2420   31.3980 C   0  0  0  0  0  0  0  0  0  0  0  0
   36.1480   27.4570   32.0450 C   0  0  0  0  0  0  0  0  0  0  0  0
   37.0280   27.4470   33.1070 C   0  0  0  0  0  0  0  0  0  0  0  0
   37.6030   26.2650   33.4690 N   0  0  0  0  0  0  0  0  0  0  0  0
   37.3380   25.1500   32.8320 C   0  0  0  0  0  0  0  0  0  0  0  0
   36.4630   25.0860   31.7540 N   0  0  0  0  0  0  0  0  0  0  0  0
   35.2090   26.1960   30.5510 H   0  0  0  0  0  0  0  0  0  0  0  0
   37.2140   28.3830   33.5980 H   0  0  0  0  0  0  0  0  0  0  0  0
   35.5010   28.5510   31.5730 O   0  0  0  0  0  0  0  0  0  0  0  0
   36.2530   29.5480   30.9380 C   0  0  0  0  0  0  0  0  0  0  0  0
   36.9920   29.4540   29.7710 C   0  0  0  0  0  0  0  0  0  0  0  0
   37.6560   30.5330   29.3140 C   0  0  0  0  0  0  0  0  0  0  0  0
   37.5800   31.7010   30.0200 C   0  0  0  0  0  0  0  0  0  0  0  0
   36.8360   31.7910   31.1930 C   0  0  0  0  0  0  0  0  0  0  0  0
   36.1790   30.6880   31.6270 N   0  0  0  0  0  0  0  0  0  0  0  0
   36.9560   28.4520   29.3230 H   0  0  0  0  0  0  0  0  0  0  0  0
   38.2210   30.4090   28.3990 H   0  0  0  0  0  0  0  0  0  0  0  0
   38.1120   32.5640   29.6520 H   0  0  0  0  0  0  0  0  0  0  0  0
   36.7800   33.0990   31.9440 C   0  0  0  0  0  0  0  0  0  0  0  0
   35.8440   33.1020   32.5610 H   0  0  0  0  0  0  0  0  0  0  0  0
   37.6040   33.0760   32.6990 H   0  0  0  0  0  0  0  0  0  0  0  0
   36.8100   33.9530   31.2610 H   0  0  0  0  0  0  0  0  0  0  0  0
   38.2450   23.7490   33.5380 S   0  0  0  0  0  0  0  0  0  0  0  0
   39.5260   24.5240   34.5810 C   0  0  0  0  0  0  0  0  0  0  0  0
   40.5350   24.1440   34.3130 H   0  0  0  0  0  0  0  0  0  0  0  0
   39.5190   25.6260   34.4320 H   0  0  0  0  0  0  0  0  0  0  0  0
   41.0650   22.6260   35.8540 F   0  0  0  0  0  0  0  0  0  0  0  0
   40.0290   23.2060   36.5340 C   0  0  0  0  0  0  0  0  0  0  0  0
   39.1870   24.1680   35.9940 C   0  0  0  0  0  0  0  0  0  0  0  0
   38.1680   24.7060   36.7270 C   0  0  0  0  0  0  0  0  0  0  0  0
   37.5610   25.4460   36.2280 H   0  0  0  0  0  0  0  0  0  0  0  0
   37.9390   24.3040   38.0500 C   0  0  0  0  0  0  0  0  0  0  0  0
   37.1150   24.7570   38.5980 H   0  0  0  0  0  0  0  0  0  0  0  0
   38.7690   23.3470   38.6020 C   0  0  0  0  0  3  0  0  0  0  0  0
   39.7970   22.8120   37.8440 C   0  0  0  0  0  3  0  0  0  0  0  0
  1  6  2  0  0  0  0
  1  2  1  0  0  0  0
  2  3  2  0  0  0  0
  3  4  1  0  0  0  0
  3  8  1  0  0  0  0
  5  4  2  0  0  0  0
  5 23  1  0  0  0  0
  6  5  1  0  0  0  0
  7  1  1  0  0  0  0
  9  2  1  0  0  0  0
 10  9  1  0  0  0  0
 10 15  1  0  0  0  0
 11 10  2  0  0  0  0
 12 11  1  0  0  0  0
 12 13  2  0  0  0  0
 13 14  1  0  0  0  0
 14 15  2  0  0  0  0
 14 19  1  0  0  0  0
 16 11  1  0  0  0  0
 17 12  1  0  0  0  0
 18 13  1  0  0  0  0
 19 20  1  0  0  0  0
 19 21  1  0  0  0  0
 22 19  1  0  0  0  0
 23 24  1  0  0  0  0
 24 29  1  0  0  0  0
 25 24  1  0  0  0  0
 26 24  1  0  0  0  0
 27 28  1  0  0  0  0
 28 35  1  0  0  0  0
 29 28  2  0  0  0  0
 29 30  1  0  0  0  0
 30 32  2  0  0  0  0
 31 30  1  0  0  0  0
 32 33  1  0  0  0  0
 32 34  1  0  0  0  0
 35 34  2  0  0  0  0
M  END
>  <minimizedAffinity>
-5.30053616

$$$$

 OpenBabel03262522253D

 35 37  0  0  0  0  0  0  0  0999 V2000
   37.6400   27.3490   34.8090 C   0  0  0  0  0  0  0  0  0  0  0  0
   38.0110   26.5430   33.7270 C   0  0  0  0  0  0  0  0  0  0  0  0
   37.3690   26.7520   32.5240 C   0  0  0  0  0  0  0  0  0  0  0  0
   36.4140   27.7230   32.4520 N   0  0  0  0  0  0  0  0  0  0  0  0
   36.0990   28.4530   33.4940 C   0  0  0  0  0  0  0  0  0  0  0  0
   36.7050   28.2990   34.7360 N   0  0  0  0  0  0  0  0  0  0  0  0
   38.1190   27.2230   35.7830 H   0  0  0  0  0  0  0  0  0  0  0  0
   37.6590   26.1300   31.6990 H   0  0  0  0  0  0  0  0  0  0  0  0
   38.9770   25.6170   33.9500 O   0  0  0  0  0  0  0  0  0  0  0  0
   38.6060   24.3910   34.5150 C   0  0  0  0  0  0  0  0  0  0  0  0
   38.0440   23.2920   33.8890 C   0  0  0  0  0  0  0  0  0  0  0  0
   37.7530   22.1910   34.6100 C   0  0  0  0  0  0  0  0  0  0  0  0
   38.0250   22.1900   35.9500 C   0  0  0  0  0  0  0  0  0  0  0  0
   38.5900   23.2980   36.5740 C   0  0  0  0  0  0  0  0  0  0  0  0
   38.8710   24.3900   35.8220 N   0  0  0  0  0  0  0  0  0  0  0  0
   37.8840   23.4490   32.8150 H   0  0  0  0  0  0  0  0  0  0  0  0
   37.3130   21.3590   34.0760 H   0  0  0  0  0  0  0  0  0  0  0  0
   37.7920   21.3080   36.5240 H   0  0  0  0  0  0  0  0  0  0  0  0
   38.8730   23.2560   38.0560 C   0  0  0  0  0  0  0  0  0  0  0  0
   39.6800   24.0030   38.2740 H   0  0  0  0  0  0  0  0  0  0  0  0
   37.9720   23.6700   38.5710 H   0  0  0  0  0  0  0  0  0  0  0  0
   39.1630   22.2520   38.3800 H   0  0  0  0  0  0  0  0  0  0  0  0
   34.8020   29.6540   33.0980 S   0  0  0  0  0  0  0  0  0  0  0  0
   33.6880   29.6060   34.5430 C   0  0  0  0  0  0  0  0  0  0  0  0
   32.6270   29.6910   34.2250 H   0  0  0  0  0  0  0  0  0  0  0  0
   33.8120   28.6410   35.0830 H   0  0  0  0  0  0  0  0  0  0  0  0
   32.0150   30.2970   36.6190 F   0  0  0  0  0  0  0  0  0  0  0  0
   33.1610   31.0180   36.4220 C   0  0  0  0  0  0  0  0  0  0  0  0
   34.0740   30.7630   35.4080 C   0  0  0  0  0  0  0  0  0  0  0  0
   35.1990   31.5240   35.2630 C   0  0  0  0  0  0  0  0  0  0  0  0
   35.8530   31.2580   34.4470 H   0  0  0  0  0  0  0  0  0  0  0  0
   35.4690   32.5870   36.1350 C   0  0  0  0  0  0  0  0  0  0  0  0
   36.3760   33.1690   35.9840 H   0  0  0  0  0  0  0  0  0  0  0  0
   34.5700   32.8530   37.1500 C   0  0  0  0  0  3  0  0  0  0  0  0
   33.4340   32.0720   37.2810 C   0  0  0  0  0  3  0  0  0  0  0  0
  1  7  1  0  0  0  0
  2  9  1  0  0  0  0
  2  1  2  0  0  0  0
  3  2  1  0  0  0  0
  4  3  2  0  0  0  0
  4  5  1  0  0  0  0
  5  6  2  0  0  0  0
  6  1  1  0  0  0  0
  8  3  1  0  0  0  0
  9 10  1  0  0  0  0
 10 15  1  0  0  0  0
 11 10  2  0  0  0  0
 11 12  1  0  0  0  0
 12 13  2  0  0  0  0
 13 18  1  0  0  0  0
 13 14  1  0  0  0  0
 14 19  1  0  0  0  0
 15 14  2  0  0  0  0
 16 11  1  0  0  0  0
 17 12  1  0  0  0  0
 19 20  1  0  0  0  0
 19 22  1  0  0  0  0
 19 21  1  0  0  0  0
 23  5  1  0  0  0  0
 23 24  1  0  0  0  0
 24 26  1  0  0  0  0
 24 29  1  0  0  0  0
 25 24  1  0  0  0  0
 28 27  1  0  0  0  0
 28 35  1  0  0  0  0
 29 28  2  0  0  0  0
 30 29  1  0  0  0  0
 30 32  2  0  0  0  0
 31 30  1  0  0  0  0
 32 34  1  0  0  0  0
 33 32  1  0  0  0  0
 34 35  2  0  0  0  0
M  END
>  <minimizedAffinity>
-5.29154587

$$$$
