
 OpenBabel03272504193D

 27 28  0  0  0  0  0  0  0  0999 V2000
   37.4720   29.0850   49.6910 O   0  0  0  0  0  0  0  0  0  0  0  0
   36.5210   29.9670   50.4450 P   0  0  2  0  0  0  0  0  0  0  0  0
   37.1580   30.1680   52.0270 O   0  0  0  0  0  0  0  0  0  0  0  0
   36.4480   30.4820   52.6390 H   0  0  0  0  0  0  0  0  0  0  0  0
   35.0130   29.2150   50.5730 O   0  0  0  0  0  0  0  0  0  0  0  0
   34.9440   28.2120   49.6450 C   0  0  0  0  0  0  0  0  0  0  0  0
   35.9090   27.9480   49.1730 H   0  0  0  0  0  0  0  0  0  0  0  0
   34.6370   27.2800   50.2000 H   0  0  0  0  0  0  0  0  0  0  0  0
   33.8700   28.4140   48.6380 C   0  0  0  0  0  0  0  0  0  0  0  0
   34.1280   29.3100   47.5930 C   0  0  0  0  0  0  0  0  0  0  0  0
   33.1320   29.5180   46.6330 C   0  0  0  0  0  0  0  0  0  0  0  0
   31.9620   28.8330   46.7700 N   0  0  0  0  0  0  0  0  0  0  0  0
   31.7480   27.9760   47.7920 C   0  0  0  0  0  0  0  0  0  0  0  0
   32.6910   27.7670   48.7170 N   0  0  0  0  0  0  0  0  0  0  0  0
   35.0620   29.8540   47.4880 H   0  0  0  0  0  0  0  0  0  0  0  0
   33.3170   30.2080   45.8180 H   0  0  0  0  0  0  0  0  0  0  0  0
   30.7870   27.4570   47.8450 H   0  0  0  0  0  0  0  0  0  0  0  0
   36.3820   31.4570   49.6710 O   0  0  0  0  0  0  0  0  0  0  0  0
   37.1330   30.6890   47.0700 F   0  0  0  0  0  0  0  0  0  0  0  0
   37.8350   31.6750   47.6300 C   0  0  0  0  0  0  0  0  0  0  0  0
   37.4060   31.9920   48.9020 C   0  0  0  0  0  0  0  0  0  0  0  0
   38.0450   33.0070   49.6190 C   0  0  0  0  0  0  0  0  0  0  0  0
   37.8210   33.3610   50.6170 H   0  0  0  0  0  0  0  0  0  0  0  0
   39.1190   33.7090   49.0610 C   0  0  0  0  0  0  0  0  0  0  0  0
   39.6520   34.4980   49.5610 H   0  0  0  0  0  0  0  0  0  0  0  0
   39.5220   33.3610   47.7780 C   0  0  0  0  0  3  0  0  0  0  0  0
   38.8890   32.3610   47.0780 C   0  0  0  0  0  3  0  0  0  0  0  0
  2  1  2  6  0  0  0
  2  5  1  0  0  0  0
  2  3  1  0  0  0  0
  3  4  1  0  0  0  0
  6  8  1  0  0  0  0
  6  5  1  0  0  0  0
  7  6  1  0  0  0  0
  9 14  1  0  0  0  0
  9  6  1  0  0  0  0
 10  9  2  0  0  0  0
 11 12  2  0  0  0  0
 11 10  1  0  0  0  0
 12 13  1  0  0  0  0
 13 17  1  0  0  0  0
 13 14  2  0  0  0  0
 15 10  1  0  0  0  0
 16 11  1  0  0  0  0
 18  2  1  0  0  0  0
 19 20  1  0  0  0  0
 20 21  1  0  0  0  0
 21 22  2  0  0  0  0
 21 18  1  0  0  0  0
 22 23  1  0  0  0  0
 24 25  1  0  0  0  0
 24 22  1  0  0  0  0
 26 24  2  0  0  0  0
 27 20  2  0  0  0  0
 27 26  1  0  0  0  0
M  END
>  <minimizedAffinity>
-5.04690599

>  <minimizedRMSD>
2.72712827

$$$$
