
 OpenBabel03272502313D

 27 28  0  0  1  0  0  0  0  0999 V2000
   37.7190   30.9040   48.6130 C   0  0  2  0  0  0  0  0  0  0  0  0
   38.4280   29.9930   48.8510 H   0  0  0  0  0  0  0  0  0  0  0  0
   39.1570   31.5110   46.1770 F   0  0  0  0  0  0  0  0  0  0  0  0
   39.2550   32.4250   47.1900 C   0  0  0  0  0  0  0  0  0  0  0  0
   38.5380   32.0240   48.2930 C   0  0  0  0  0  0  0  0  0  0  0  0
   38.5670   32.8700   49.3940 C   0  0  0  0  0  0  0  0  0  0  0  0
   38.0870   32.7820   50.3820 H   0  0  0  0  0  0  0  0  0  0  0  0
   39.2850   34.0760   49.3990 C   0  0  0  0  0  0  0  0  0  0  0  0
   39.3610   34.7930   50.2100 H   0  0  0  0  0  0  0  0  0  0  0  0
   39.9970   34.4400   48.2580 C   0  0  0  0  0  0  0  0  0  0  0  0
   39.9850   33.6050   47.1340 C   0  0  0  0  0  0  0  0  0  0  0  0
   35.5110   30.3170   47.9060 C   0  0  0  0  0  0  0  0  0  0  0  0
   36.7820   30.4310   47.5790 C   0  0  0  0  0  0  0  0  0  0  0  0
   33.7850   29.4310   44.7390 C   0  0  0  0  0  0  0  0  0  0  0  0
   34.7160   29.9260   45.6440 C   0  0  0  0  0  0  0  0  0  0  0  0
   34.5120   29.8160   47.0050 C   0  0  0  0  0  0  0  0  0  0  0  0
   33.3790   29.2110   47.4190 N   0  0  0  0  0  0  0  0  0  0  0  0
   32.4960   28.7420   46.5270 C   0  0  0  0  0  0  0  0  0  0  0  0
   32.6870   28.8460   45.2030 N   0  0  0  0  0  0  0  0  0  0  0  0
   33.9280   29.5080   43.6720 H   0  0  0  0  0  0  0  0  0  0  0  0
   35.5900   30.3900   45.1510 H   0  0  0  0  0  0  0  0  0  0  0  0
   31.6110   28.2730   46.9390 H   0  0  0  0  0  0  0  0  0  0  0  0
   36.7480   31.1390   50.1540 S   0  0  0  0  0  0  0  0  0  0  0  0
   36.9540   29.7260   51.2290 C   0  0  0  0  0  0  0  0  0  0  0  0
   37.6050   28.6580   50.6100 F   0  0  0  0  0  0  0  0  0  0  0  0
   37.5360   30.0660   52.4280 F   0  0  0  0  0  0  0  0  0  0  0  0
   35.6450   29.2680   51.5390 F   0  0  0  0  0  0  0  0  0  0  0  0
  1  2  1  1  0  0  0
  1 23  1  0  0  0  0
  3  4  1  0  0  0  0
  4  5  1  0  0  0  0
  5  1  1  0  0  0  0
  5  6  2  0  0  0  0
  6  8  1  0  0  0  0
  6  7  1  0  0  0  0
  8  9  1  0  0  0  0
 10  8  2  0  0  0  0
 11  4  2  0  0  0  0
 11 10  1  0  0  0  0
 13 12  2  0  0  0  0
 13  1  1  0  0  0  0
 14 19  2  0  0  0  0
 14 15  1  0  0  0  0
 15 16  2  0  0  0  0
 16 17  1  0  0  0  0
 16 12  1  0  0  0  0
 18 22  1  0  0  0  0
 18 17  2  0  0  0  0
 19 18  1  0  0  0  0
 20 14  1  0  0  0  0
 21 15  1  0  0  0  0
 23 24  1  0  0  0  0
 24 27  1  0  0  0  0
 24 26  1  0  0  0  0
 25 24  1  0  0  0  0
M  END
>  <minimizedAffinity>
-6.27086639

>  <minimizedRMSD>
4.78680277

$$$$
