
 OpenBabel03262521503D

 19 20  0  0  0  0  0  0  0  0999 V2000
   38.4130   32.5180   48.1970 S   0  0  0  0  0  0  0  0  0  0  0  0
   39.1850   31.9740   46.6870 C   0  0  0  0  0  0  0  0  0  0  0  0
   39.9870   32.9580   46.0790 C   0  0  0  0  0  0  0  0  0  0  0  0
   40.6390   32.6490   44.8970 C   0  0  0  0  0  0  0  0  0  0  0  0
   40.4760   31.4010   44.3670 N   0  0  0  0  0  0  0  0  0  0  0  0
   39.6970   30.4780   44.9760 C   0  0  0  0  0  0  0  0  0  0  0  0
   39.0580   30.7710   46.1300 N   0  0  0  0  0  0  0  0  0  0  0  0
   40.1640   33.9680   46.4400 H   0  0  0  0  0  0  0  0  0  0  0  0
   41.2640   33.3350   44.3740 H   0  0  0  0  0  0  0  0  0  0  0  0
   39.5350   29.4770   44.5990 H   0  0  0  0  0  0  0  0  0  0  0  0
   38.9050   31.1240   50.7380 F   0  0  0  0  0  0  0  0  0  0  0  0
   37.8310   30.6630   50.0190 C   0  0  0  0  0  0  0  0  0  0  0  0
   37.4090   31.1650   48.7950 C   0  0  0  0  0  0  0  0  0  0  0  0
   36.3080   30.6120   48.1720 C   0  0  0  0  0  0  0  0  0  0  0  0
   36.0510   31.0600   47.2320 H   0  0  0  0  0  0  0  0  0  0  0  0
   35.6320   29.5650   48.7630 C   0  0  0  0  0  0  0  0  0  0  0  0
   34.7670   29.1630   48.2260 H   0  0  0  0  0  0  0  0  0  0  0  0
   36.0650   29.0660   49.9950 C   0  0  0  0  0  0  0  0  0  0  0  0
   37.1670   29.6120   50.6330 C   0  0  0  0  0  0  0  0  0  0  0  0
  1 13  1  0  0  0  0
  2  1  1  0  0  0  0
  3  8  1  0  0  0  0
  3  2  2  0  0  0  0
  4  3  1  0  0  0  0
  5  4  2  0  0  0  0
  5  6  1  0  0  0  0
  6  7  2  0  0  0  0
  7  2  1  0  0  0  0
  9  4  1  0  0  0  0
 10  6  1  0  0  0  0
 12 19  1  0  0  0  0
 12 11  1  0  0  0  0
 13 12  2  0  0  0  0
 14 16  2  0  0  0  0
 14 13  1  0  0  0  0
 15 14  1  0  0  0  0
 16 18  1  0  0  0  0
 17 16  1  0  0  0  0
 18 19  2  0  0  0  0
M  END
>  <minimizedAffinity>
-5.56876898

>  <minimizedRMSD>
4.58748484

$$$$
