
 OpenBabel03262522203D

 19 20  0  0  0  0  0  0  0  0999 V2000
   38.0420   30.3130   49.1480 O   0  0  0  0  0  0  0  0  0  0  0  0
   36.4290   29.4870   50.6240 C   0  0  0  0  0  0  0  0  0  0  0  0
   36.7140   30.0720   49.3730 C   0  0  0  0  0  0  0  0  0  0  0  0
   35.6390   30.3350   48.5190 C   0  0  0  0  0  0  0  0  0  0  0  0
   34.3930   30.0200   48.9330 N   0  0  0  0  0  0  0  0  0  0  0  0
   34.1460   29.4610   50.1340 C   0  0  0  0  0  0  0  0  0  0  0  0
   35.1550   29.1870   50.9940 N   0  0  0  0  0  0  0  0  0  0  0  0
   37.1750   29.2420   51.3560 H   0  0  0  0  0  0  0  0  0  0  0  0
   35.8990   30.7720   47.5940 H   0  0  0  0  0  0  0  0  0  0  0  0
   33.1440   29.2280   50.4190 H   0  0  0  0  0  0  0  0  0  0  0  0
   38.9650   30.6130   46.5110 F   0  0  0  0  0  0  0  0  0  0  0  0
   39.0440   31.6970   47.3120 C   0  0  0  0  0  0  0  0  0  0  0  0
   38.5720   31.4670   48.5890 C   0  0  0  0  0  0  0  0  0  0  0  0
   38.5990   32.5080   49.5180 C   0  0  0  0  0  0  0  0  0  0  0  0
   38.2530   32.4490   50.5590 H   0  0  0  0  0  0  0  0  0  0  0  0
   39.0790   33.7580   49.2080 C   0  0  0  0  0  0  0  0  0  0  0  0
   39.1170   34.5890   49.8990 H   0  0  0  0  0  0  0  0  0  0  0  0
   39.5500   33.9680   47.9200 C   0  0  0  0  0  3  0  0  0  0  0  0
   39.5310   32.9430   46.9830 C   0  0  0  0  0  3  0  0  0  0  0  0
  1  3  1  0  0  0  0
  2  7  1  0  0  0  0
  2  8  1  0  0  0  0
  3  2  2  0  0  0  0
  4  5  2  0  0  0  0
  4  3  1  0  0  0  0
  5  6  1  0  0  0  0
  6 10  1  0  0  0  0
  6  7  2  0  0  0  0
  9  4  1  0  0  0  0
 11 12  1  0  0  0  0
 12 13  1  0  0  0  0
 13  1  1  0  0  0  0
 13 14  2  0  0  0  0
 14 15  1  0  0  0  0
 16 14  1  0  0  0  0
 16 17  1  0  0  0  0
 18 16  2  0  0  0  0
 19 12  2  0  0  0  0
 19 18  1  0  0  0  0
M  END
>  <minimizedAffinity>
-4.71532154

>  <minimizedRMSD>
2.23988223

$$$$
