
 OpenBabel03272507293D

 41 43  0  0  1  0  0  0  0  0999 V2000
   37.5020   27.6000   32.4480 C   0  0  0  0  0  0  0  0  0  0  0  0
   38.0450   26.3400   32.7160 C   0  0  0  0  0  0  0  0  0  0  0  0
   37.8020   25.7690   33.9560 C   0  0  0  0  0  0  0  0  0  0  0  0
   37.0610   26.4480   34.8340 N   0  0  0  0  0  0  0  0  0  0  0  0
   36.5420   27.6630   34.5620 C   0  0  0  0  0  0  0  0  0  0  0  0
   36.7640   28.2290   33.3780 N   0  0  0  0  0  0  0  0  0  0  0  0
   38.3330   24.5220   34.2790 N   0  0  0  0  0  0  0  0  0  0  0  0
   38.5940   23.4120   33.3260 C   0  0  0  0  0  0  0  0  0  0  0  0
   38.8630   22.1900   34.1170 C   0  0  0  0  0  0  0  0  0  0  0  0
   38.3930   22.5210   35.4510 C   0  0  0  0  0  0  0  0  0  0  0  0
   38.7350   23.9650   35.5280 C   0  0  2  0  0  0  0  0  0  0  0  0
   37.7590   27.9530   31.4370 H   0  0  0  0  0  0  0  0  0  0  0  0
   38.6530   25.7590   32.0250 H   0  0  0  0  0  0  0  0  0  0  0  0
   35.9350   28.2510   35.2420 H   0  0  0  0  0  0  0  0  0  0  0  0
   37.5450   23.3480   32.8420 H   0  0  0  0  0  0  0  0  0  0  0  0
   39.2100   23.6520   32.4880 H   0  0  0  0  0  0  0  0  0  0  0  0
   37.9720   21.4760   33.7550 H   0  0  0  0  0  0  0  0  0  0  0  0
   39.6480   21.5210   33.8920 H   0  0  0  0  0  0  0  0  0  0  0  0
   37.3430   22.2960   35.6920 H   0  0  0  0  0  0  0  0  0  0  0  0
   39.0550   21.9920   36.2030 H   0  0  0  0  0  0  0  0  0  0  0  0
   38.0500   24.5900   36.7460 C   0  0  0  0  0  0  0  0  0  0  0  0
   38.5020   23.9470   37.8790 F   0  0  0  0  0  0  0  0  0  0  0  0
   36.6920   24.5020   36.7580 F   0  0  0  0  0  0  0  0  0  0  0  0
   38.5060   25.8910   36.8330 F   0  0  0  0  0  0  0  0  0  0  0  0
   40.1390   24.1950   35.6900 C   0  0  2  0  0  0  0  0  0  0  0  0
   40.3560   24.9660   36.3950 H   0  0  0  0  0  0  0  0  0  0  0  0
   40.5360   27.0180   35.2290 F   0  0  0  0  0  0  0  0  0  0  0  0
   41.1470   26.1860   34.3570 C   0  0  0  0  0  0  0  0  0  0  0  0
   40.9780   24.8190   34.5080 C   0  0  0  0  0  0  0  0  0  0  0  0
   41.6930   24.0790   33.5790 C   0  0  0  0  0  0  0  0  0  0  0  0
   41.5760   22.9850   33.6840 H   0  0  0  0  0  0  0  0  0  0  0  0
   42.4960   24.5710   32.5910 C   0  0  0  0  0  0  0  0  0  0  0  0
   42.9810   23.8640   31.9510 H   0  0  0  0  0  0  0  0  0  0  0  0
   42.5840   25.9210   32.5390 C   0  0  0  0  0  3  0  0  0  0  0  0
   41.9290   26.7690   33.3980 C   0  0  0  0  0  3  0  0  0  0  0  0
   40.6990   23.0620   35.7540 O   0  0  0  0  0  0  0  0  0  0  0  0
   41.2180   22.2410   36.6870 C   0  0  0  0  0  0  0  0  0  0  0  0
   42.4400   22.1210   36.5470 O   0  0  0  0  0  0  0  0  0  0  0  0
   41.0240   21.4040   37.8210 N   0  0  0  0  0  0  0  0  0  0  0  0
   40.9970   21.9250   38.7420 H   0  0  0  0  0  0  0  0  0  0  0  0
   40.9180   20.3600   37.7250 H   0  0  0  0  0  0  0  0  0  0  0  0
  1  2  2  0  0  0  0
  1  6  1  0  0  0  0
  2  3  1  0  0  0  0
  3  7  1  0  0  0  0
  3  4  2  0  0  0  0
  5  4  1  0  0  0  0
  5 14  1  0  0  0  0
  6  5  2  0  0  0  0
  7 11  1  0  0  0  0
  8  9  1  0  0  0  0
  8  7  1  0  0  0  0
  9 10  1  0  0  0  0
 10 11  1  0  0  0  0
 10 19  1  0  0  0  0
 10 20  1  0  0  0  0
 11 25  1  0  0  0  0
 11 21  1  1  0  0  0
 12  1  1  0  0  0  0
 13  2  1  0  0  0  0
 15  8  1  0  0  0  0
 16  8  1  0  0  0  0
 17  9  1  0  0  0  0
 18  9  1  0  0  0  0
 21 23  1  0  0  0  0
 21 24  1  0  0  0  0
 21 22  1  0  0  0  0
 25 36  1  0  0  0  0
 25 26  1  1  0  0  0
 28 29  1  0  0  0  0
 28 27  1  0  0  0  0
 29 25  1  0  0  0  0
 30 31  1  0  0  0  0
 30 29  2  0  0  0  0
 32 30  1  0  0  0  0
 33 32  1  0  0  0  0
 34 32  2  0  0  0  0
 34 35  1  0  0  0  0
 35 28  2  0  0  0  0
 36 37  1  0  0  0  0
 37 39  1  0  0  0  0
 38 37  2  0  0  0  0
 39 40  1  0  0  0  0
 41 39  1  0  0  0  0
M  END
>  <minimizedAffinity>
-5.49955988

$$$$

 OpenBabel03272507293D

 41 43  0  0  1  0  0  0  0  0999 V2000
   34.7320   29.5440   32.4480 C   0  0  0  0  0  0  0  0  0  0  0  0
   35.5150   28.8750   33.3920 C   0  0  0  0  0  0  0  0  0  0  0  0
   36.7350   28.3580   32.9870 C   0  0  0  0  0  0  0  0  0  0  0  0
   37.1050   28.5240   31.7150 N   0  0  0  0  0  0  0  0  0  0  0  0
   36.3390   29.1720   30.8140 C   0  0  0  0  0  0  0  0  0  0  0  0
   35.1640   29.6760   31.1820 N   0  0  0  0  0  0  0  0  0  0  0  0
   37.5480   27.6700   33.8850 N   0  0  0  0  0  0  0  0  0  0  0  0
   37.6390   27.9200   35.3480 C   0  0  0  0  0  0  0  0  0  0  0  0
   38.8220   27.1900   35.8590 C   0  0  0  0  0  0  0  0  0  0  0  0
   39.5780   26.8590   34.6640 C   0  0  0  0  0  0  0  0  0  0  0  0
   38.4840   26.6130   33.6890 C   0  0  2  0  0  0  0  0  0  0  0  0
   33.7880   29.9110   32.8800 H   0  0  0  0  0  0  0  0  0  0  0  0
   35.2460   28.7220   34.4350 H   0  0  0  0  0  0  0  0  0  0  0  0
   36.5980   29.3310   29.7720 H   0  0  0  0  0  0  0  0  0  0  0  0
   37.8570   29.0550   35.3160 H   0  0  0  0  0  0  0  0  0  0  0  0
   36.7170   27.8860   35.8850 H   0  0  0  0  0  0  0  0  0  0  0  0
   39.4880   28.0910   36.2820 H   0  0  0  0  0  0  0  0  0  0  0  0
   38.8070   26.6260   36.7520 H   0  0  0  0  0  0  0  0  0  0  0  0
   40.3300   27.5850   34.3190 H   0  0  0  0  0  0  0  0  0  0  0  0
   40.0910   25.8640   34.8320 H   0  0  0  0  0  0  0  0  0  0  0  0
   39.0640   26.5400   32.2740 C   0  0  0  0  0  0  0  0  0  0  0  0
   39.7000   27.7340   32.0020 F   0  0  0  0  0  0  0  0  0  0  0  0
   38.1540   26.3430   31.2820 F   0  0  0  0  0  0  0  0  0  0  0  0
   40.0520   25.5750   32.3000 F   0  0  0  0  0  0  0  0  0  0  0  0
   37.8090   25.3690   33.9140 C   0  0  2  0  0  0  0  0  0  0  0  0
   36.9820   25.4590   34.5830 H   0  0  0  0  0  0  0  0  0  0  0  0
   37.1670   24.5260   36.6000 F   0  0  0  0  0  0  0  0  0  0  0  0
   38.1580   23.8430   35.9880 C   0  0  0  0  0  0  0  0  0  0  0  0
   38.5320   24.2120   34.7060 C   0  0  0  0  0  0  0  0  0  0  0  0
   39.5260   23.4020   34.1770 C   0  0  0  0  0  0  0  0  0  0  0  0
   39.8360   23.6760   33.1530 H   0  0  0  0  0  0  0  0  0  0  0  0
   40.1220   22.3390   34.7930 C   0  0  0  0  0  0  0  0  0  0  0  0
   40.8780   21.8150   34.2470 H   0  0  0  0  0  0  0  0  0  0  0  0
   39.6780   22.0740   36.0440 C   0  0  0  0  0  3  0  0  0  0  0  0
   38.7000   22.7950   36.6830 C   0  0  0  0  0  3  0  0  0  0  0  0
   37.6930   24.7980   32.7910 O   0  0  0  0  0  0  0  0  0  0  0  0
   36.7590   24.1250   32.0890 C   0  0  0  0  0  0  0  0  0  0  0  0
   37.2230   23.0840   31.6130 O   0  0  0  0  0  0  0  0  0  0  0  0
   35.4230   24.0320   31.6120 N   0  0  0  0  0  0  0  0  0  0  0  0
   34.7430   23.6240   32.3130 H   0  0  0  0  0  0  0  0  0  0  0  0
   35.1590   24.3500   30.6420 H   0  0  0  0  0  0  0  0  0  0  0  0
  1 12  1  0  0  0  0
  1  2  1  0  0  0  0
  2 13  1  0  0  0  0
  3  2  2  0  0  0  0
  3  7  1  0  0  0  0
  4  3  1  0  0  0  0
  5  6  1  0  0  0  0
  5  4  2  0  0  0  0
  6  1  2  0  0  0  0
  7  8  1  0  0  0  0
  8  9  1  0  0  0  0
  8 16  1  0  0  0  0
  9 17  1  0  0  0  0
  9 18  1  0  0  0  0
 10 20  1  0  0  0  0
 10  9  1  0  0  0  0
 11 21  1  6  0  0  0
 11  7  1  0  0  0  0
 11 25  1  0  0  0  0
 11 10  1  0  0  0  0
 14  5  1  0  0  0  0
 15  8  1  0  0  0  0
 19 10  1  0  0  0  0
 21 24  1  0  0  0  0
 22 21  1  0  0  0  0
 23 21  1  0  0  0  0
 25 26  1  1  0  0  0
 25 29  1  0  0  0  0
 28 27  1  0  0  0  0
 28 35  1  0  0  0  0
 29 28  2  0  0  0  0
 30 29  1  0  0  0  0
 30 32  2  0  0  0  0
 31 30  1  0  0  0  0
 32 34  1  0  0  0  0
 33 32  1  0  0  0  0
 34 35  2  0  0  0  0
 36 25  1  0  0  0  0
 37 36  1  0  0  0  0
 38 37  2  0  0  0  0
 39 37  1  0  0  0  0
 39 40  1  0  0  0  0
 41 39  1  0  0  0  0
M  END
>  <minimizedAffinity>
-5.4084878

$$$$

 OpenBabel03272507293D

 41 43  0  0  1  0  0  0  0  0999 V2000
   34.8470   19.4350   32.0120 C   0  0  0  0  0  0  0  0  0  0  0  0
   35.0160   20.8220   32.0270 C   0  0  0  0  0  0  0  0  0  0  0  0
   36.2400   21.3400   31.6320 C   0  0  0  0  0  0  0  0  0  0  0  0
   37.1990   20.4910   31.2560 N   0  0  0  0  0  0  0  0  0  0  0  0
   37.0210   19.1530   31.2470 C   0  0  0  0  0  0  0  0  0  0  0  0
   35.8550   18.6360   31.6230 N   0  0  0  0  0  0  0  0  0  0  0  0
   36.4650   22.7150   31.6420 N   0  0  0  0  0  0  0  0  0  0  0  0
   35.4430   23.7680   31.4040 C   0  0  0  0  0  0  0  0  0  0  0  0
   36.1540   25.0510   31.2040 C   0  0  0  0  0  0  0  0  0  0  0  0
   37.5320   24.6600   30.9590 C   0  0  0  0  0  0  0  0  0  0  0  0
   37.6550   23.4730   31.8450 C   0  0  2  0  0  0  0  0  0  0  0  0
   33.8400   19.1380   32.3440 H   0  0  0  0  0  0  0  0  0  0  0  0
   34.2580   21.5430   32.3260 H   0  0  0  0  0  0  0  0  0  0  0  0
   37.7690   18.4250   30.9500 H   0  0  0  0  0  0  0  0  0  0  0  0
   35.0290   23.3830   30.3950 H   0  0  0  0  0  0  0  0  0  0  0  0
   34.5780   23.7280   32.0280 H   0  0  0  0  0  0  0  0  0  0  0  0
   35.8190   25.3330   30.0890 H   0  0  0  0  0  0  0  0  0  0  0  0
   35.8440   25.9560   31.6520 H   0  0  0  0  0  0  0  0  0  0  0  0
   37.8310   24.4740   29.9170 H   0  0  0  0  0  0  0  0  0  0  0  0
   38.2100   25.4570   31.3910 H   0  0  0  0  0  0  0  0  0  0  0  0
   38.9460   22.7190   31.5140 C   0  0  0  0  0  0  0  0  0  0  0  0
   38.7980   22.1210   30.2800 F   0  0  0  0  0  0  0  0  0  0  0  0
   39.2850   21.7340   32.3900 F   0  0  0  0  0  0  0  0  0  0  0  0
   39.9340   23.6720   31.3650 F   0  0  0  0  0  0  0  0  0  0  0  0
   37.7330   23.8210   33.2320 C   0  0  2  0  0  0  0  0  0  0  0  0
   36.8890   24.3780   33.5710 H   0  0  0  0  0  0  0  0  0  0  0  0
   37.2320   26.5940   33.8590 F   0  0  0  0  0  0  0  0  0  0  0  0
   38.5030   26.1710   34.0310 C   0  0  0  0  0  0  0  0  0  0  0  0
   38.8160   24.8560   33.7260 C   0  0  0  0  0  0  0  0  0  0  0  0
   40.1400   24.5400   33.9910 C   0  0  0  0  0  0  0  0  0  0  0  0
   40.4110   23.4940   33.7580 H   0  0  0  0  0  0  0  0  0  0  0  0
   41.0920   25.3780   34.4950 C   0  0  0  0  0  0  0  0  0  0  0  0
   42.0740   24.9790   34.6410 H   0  0  0  0  0  0  0  0  0  0  0  0
   40.6710   26.6390   34.7530 C   0  0  0  0  0  3  0  0  0  0  0  0
   39.3900   27.0820   34.5370 C   0  0  0  0  0  3  0  0  0  0  0  0
   38.1420   22.7960   33.8530 O   0  0  0  0  0  0  0  0  0  0  0  0
   37.9520   22.1890   35.0410 C   0  0  0  0  0  0  0  0  0  0  0  0
   36.8960   21.5480   35.0510 O   0  0  0  0  0  0  0  0  0  0  0  0
   38.4120   21.9130   36.3580 N   0  0  0  0  0  0  0  0  0  0  0  0
   39.1080   21.1170   36.4130 H   0  0  0  0  0  0  0  0  0  0  0  0
   38.0760   22.4680   37.1880 H   0  0  0  0  0  0  0  0  0  0  0  0
  1  2  1  0  0  0  0
  1 12  1  0  0  0  0
  2 13  1  0  0  0  0
  3  7  1  0  0  0  0
  3  2  2  0  0  0  0
  4  3  1  0  0  0  0
  5  4  2  0  0  0  0
  5  6  1  0  0  0  0
  6  1  2  0  0  0  0
  7 11  1  0  0  0  0
  8  7  1  0  0  0  0
  8 16  1  0  0  0  0
  9  8  1  0  0  0  0
  9 18  1  0  0  0  0
 10  9  1  0  0  0  0
 10 20  1  0  0  0  0
 10 11  1  0  0  0  0
 11 21  1  6  0  0  0
 11 25  1  0  0  0  0
 14  5  1  0  0  0  0
 15  8  1  0  0  0  0
 17  9  1  0  0  0  0
 19 10  1  0  0  0  0
 21 23  1  0  0  0  0
 22 21  1  0  0  0  0
 24 21  1  0  0  0  0
 25 26  1  1  0  0  0
 25 29  1  0  0  0  0
 25 36  1  0  0  0  0
 27 28  1  0  0  0  0
 28 35  1  0  0  0  0
 29 30  1  0  0  0  0
 29 28  2  0  0  0  0
 30 32  2  0  0  0  0
 31 30  1  0  0  0  0
 32 33  1  0  0  0  0
 32 34  1  0  0  0  0
 35 34  2  0  0  0  0
 36 37  1  0  0  0  0
 37 38  2  0  0  0  0
 37 39  1  0  0  0  0
 39 40  1  0  0  0  0
 39 41  1  0  0  0  0
M  END
>  <minimizedAffinity>
-5.3886857

$$$$

 OpenBabel03272507293D

 41 43  0  0  1  0  0  0  0  0999 V2000
   42.3530   22.0250   36.3260 C   0  0  0  0  0  0  0  0  0  0  0  0
   42.1180   23.1740   35.5670 C   0  0  0  0  0  0  0  0  0  0  0  0
   40.9030   23.8250   35.7170 C   0  0  0  0  0  0  0  0  0  0  0  0
   40.0160   23.3230   36.5800 N   0  0  0  0  0  0  0  0  0  0  0  0
   40.2570   22.2130   37.3070 C   0  0  0  0  0  0  0  0  0  0  0  0
   41.4160   21.5730   37.1770 N   0  0  0  0  0  0  0  0  0  0  0  0
   40.6120   24.9660   34.9740 N   0  0  0  0  0  0  0  0  0  0  0  0
   41.5980   25.9760   34.5040 C   0  0  0  0  0  0  0  0  0  0  0  0
   40.8430   27.1570   34.0280 C   0  0  0  0  0  0  0  0  0  0  0  0
   39.5070   26.9660   34.5670 C   0  0  0  0  0  0  0  0  0  0  0  0
   39.3760   25.4880   34.4930 C   0  0  2  0  0  0  0  0  0  0  0  0
   43.3460   21.5940   36.1250 H   0  0  0  0  0  0  0  0  0  0  0  0
   42.8160   23.6100   34.8560 H   0  0  0  0  0  0  0  0  0  0  0  0
   39.5680   21.7700   38.0190 H   0  0  0  0  0  0  0  0  0  0  0  0
   42.1020   26.2100   35.5180 H   0  0  0  0  0  0  0  0  0  0  0  0
   42.4150   25.5980   33.9320 H   0  0  0  0  0  0  0  0  0  0  0  0
   41.2450   28.0070   34.7700 H   0  0  0  0  0  0  0  0  0  0  0  0
   41.0760   27.6650   33.1320 H   0  0  0  0  0  0  0  0  0  0  0  0
   39.2940   27.3850   35.5610 H   0  0  0  0  0  0  0  0  0  0  0  0
   38.7620   27.3930   33.8290 H   0  0  0  0  0  0  0  0  0  0  0  0
   38.1500   25.0420   35.2950 C   0  0  0  0  0  0  0  0  0  0  0  0
   38.3920   25.2820   36.6310 F   0  0  0  0  0  0  0  0  0  0  0  0
   37.8310   23.7230   35.1830 F   0  0  0  0  0  0  0  0  0  0  0  0
   37.1140   25.8800   34.9340 F   0  0  0  0  0  0  0  0  0  0  0  0
   39.1800   25.0140   33.1560 C   0  0  2  0  0  0  0  0  0  0  0  0
   39.7920   25.5160   32.4410 H   0  0  0  0  0  0  0  0  0  0  0  0
   38.4550   27.4740   31.8310 F   0  0  0  0  0  0  0  0  0  0  0  0
   37.5380   26.4840   31.7790 C   0  0  0  0  0  0  0  0  0  0  0  0
   37.8130   25.2840   32.4150 C   0  0  0  0  0  0  0  0  0  0  0  0
   36.8120   24.3400   32.2460 C   0  0  0  0  0  0  0  0  0  0  0  0
   37.0130   23.3730   32.7420 H   0  0  0  0  0  0  0  0  0  0  0  0
   35.6520   24.5000   31.5460 C   0  0  0  0  0  0  0  0  0  0  0  0
   34.9780   23.6700   31.5120 H   0  0  0  0  0  0  0  0  0  0  0  0
   35.4900   25.7150   30.9690 C   0  0  0  0  0  3  0  0  0  0  0  0
   36.4030   26.7370   31.0580 C   0  0  0  0  0  3  0  0  0  0  0  0
   39.1280   23.7500   33.2100 O   0  0  0  0  0  0  0  0  0  0  0  0
   39.6480   22.6870   32.5670 C   0  0  0  0  0  0  0  0  0  0  0  0
   39.6070   21.6740   33.2730 O   0  0  0  0  0  0  0  0  0  0  0  0
   40.2500   22.1410   31.4000 N   0  0  0  0  0  0  0  0  0  0  0  0
   39.5590   21.8660   30.6470 H   0  0  0  0  0  0  0  0  0  0  0  0
   41.2950   22.0320   31.3160 H   0  0  0  0  0  0  0  0  0  0  0  0
  1  6  1  0  0  0  0
  2  3  1  0  0  0  0
  2  1  2  0  0  0  0
  3  4  2  0  0  0  0
  4  5  1  0  0  0  0
  5 14  1  0  0  0  0
  6  5  2  0  0  0  0
  7  3  1  0  0  0  0
  8  7  1  0  0  0  0
  8 15  1  0  0  0  0
  9  8  1  0  0  0  0
  9 10  1  0  0  0  0
  9 17  1  0  0  0  0
 10 19  1  0  0  0  0
 11 10  1  0  0  0  0
 11  7  1  0  0  0  0
 11 21  1  1  0  0  0
 12  1  1  0  0  0  0
 13  2  1  0  0  0  0
 16  8  1  0  0  0  0
 18  9  1  0  0  0  0
 20 10  1  0  0  0  0
 21 22  1  0  0  0  0
 23 21  1  0  0  0  0
 24 21  1  0  0  0  0
 25 26  1  6  0  0  0
 25 36  1  0  0  0  0
 25 11  1  0  0  0  0
 28 27  1  0  0  0  0
 28 29  1  0  0  0  0
 29 25  1  0  0  0  0
 30 29  2  0  0  0  0
 30 31  1  0  0  0  0
 32 30  1  0  0  0  0
 33 32  1  0  0  0  0
 34 35  1  0  0  0  0
 34 32  2  0  0  0  0
 35 28  2  0  0  0  0
 37 36  1  0  0  0  0
 37 38  2  0  0  0  0
 39 37  1  0  0  0  0
 40 39  1  0  0  0  0
 41 39  1  0  0  0  0
M  END
>  <minimizedAffinity>
-5.36330318

$$$$

 OpenBabel03272507293D

 41 43  0  0  1  0  0  0  0  0999 V2000
   38.0770   27.4930   29.8160 C   0  0  0  0  0  0  0  0  0  0  0  0
   37.7950   27.2980   31.1710 C   0  0  0  0  0  0  0  0  0  0  0  0
   38.8570   27.2250   32.0600 C   0  0  0  0  0  0  0  0  0  0  0  0
   40.0970   27.3450   31.5800 N   0  0  0  0  0  0  0  0  0  0  0  0
   40.3540   27.5340   30.2700 C   0  0  0  0  0  0  0  0  0  0  0  0
   39.3500   27.6060   29.4000 N   0  0  0  0  0  0  0  0  0  0  0  0
   38.6320   27.0160   33.4180 N   0  0  0  0  0  0  0  0  0  0  0  0
   37.4440   27.4760   34.1860 C   0  0  0  0  0  0  0  0  0  0  0  0
   37.7480   27.3160   35.6270 C   0  0  0  0  0  0  0  0  0  0  0  0
   39.1890   27.1350   35.6680 C   0  0  0  0  0  0  0  0  0  0  0  0
   39.4190   26.3700   34.4150 C   0  0  2  0  0  0  0  0  0  0  0  0
   37.1620   27.5350   29.2060 H   0  0  0  0  0  0  0  0  0  0  0  0
   36.7990   27.1960   31.5960 H   0  0  0  0  0  0  0  0  0  0  0  0
   41.3430   27.6370   29.8340 H   0  0  0  0  0  0  0  0  0  0  0  0
   37.4740   28.5950   33.8970 H   0  0  0  0  0  0  0  0  0  0  0  0
   36.4960   27.1720   33.8030 H   0  0  0  0  0  0  0  0  0  0  0  0
   37.6710   28.4480   36.0090 H   0  0  0  0  0  0  0  0  0  0  0  0
   37.0590   26.9120   36.3170 H   0  0  0  0  0  0  0  0  0  0  0  0
   39.8130   28.0360   35.7630 H   0  0  0  0  0  0  0  0  0  0  0  0
   39.4350   26.4350   36.5240 H   0  0  0  0  0  0  0  0  0  0  0  0
   40.9180   26.3310   34.1060 C   0  0  0  0  0  0  0  0  0  0  0  0
   41.3230   27.6000   33.7510 F   0  0  0  0  0  0  0  0  0  0  0  0
   41.2810   25.5020   33.0890 F   0  0  0  0  0  0  0  0  0  0  0  0
   41.5600   26.0400   35.2940 F   0  0  0  0  0  0  0  0  0  0  0  0
   38.9890   25.0060   34.5100 C   0  0  2  0  0  0  0  0  0  0  0  0
   37.9810   24.9090   34.8450 H   0  0  0  0  0  0  0  0  0  0  0  0
   37.8630   24.4980   37.1200 F   0  0  0  0  0  0  0  0  0  0  0  0
   39.0070   23.8410   36.8330 C   0  0  0  0  0  0  0  0  0  0  0  0
   39.6130   24.0580   35.6060 C   0  0  0  0  0  0  0  0  0  0  0  0
   40.7520   23.2880   35.4200 C   0  0  0  0  0  0  0  0  0  0  0  0
   41.2490   23.4430   34.4460 H   0  0  0  0  0  0  0  0  0  0  0  0
   41.2830   22.3940   36.3050 C   0  0  0  0  0  0  0  0  0  0  0  0
   42.1720   21.8780   36.0100 H   0  0  0  0  0  0  0  0  0  0  0  0
   40.6070   22.2670   37.4710 C   0  0  0  0  0  3  0  0  0  0  0  0
   39.4670   22.9670   37.7810 C   0  0  0  0  0  3  0  0  0  0  0  0
   39.4030   24.4100   33.4740 O   0  0  0  0  0  0  0  0  0  0  0  0
   38.9480   23.5270   32.5630 C   0  0  0  0  0  0  0  0  0  0  0  0
   39.1720   23.9160   31.4130 O   0  0  0  0  0  0  0  0  0  0  0  0
   38.3030   22.2920   32.2770 N   0  0  0  0  0  0  0  0  0  0  0  0
   38.9450   21.4520   32.3130 H   0  0  0  0  0  0  0  0  0  0  0  0
   37.2740   22.2450   32.0540 H   0  0  0  0  0  0  0  0  0  0  0  0
  1  2  1  0  0  0  0
  2 13  1  0  0  0  0
  2  3  2  0  0  0  0
  3  7  1  0  0  0  0
  4  3  1  0  0  0  0
  5  4  2  0  0  0  0
  6  1  2  0  0  0  0
  6  5  1  0  0  0  0
  7  8  1  0  0  0  0
  7 11  1  0  0  0  0
  8  9  1  0  0  0  0
  9 10  1  0  0  0  0
  9 17  1  0  0  0  0
  9 18  1  0  0  0  0
 10 19  1  0  0  0  0
 10 20  1  0  0  0  0
 11 21  1  6  0  0  0
 11 25  1  0  0  0  0
 11 10  1  0  0  0  0
 12  1  1  0  0  0  0
 14  5  1  0  0  0  0
 15  8  1  0  0  0  0
 16  8  1  0  0  0  0
 21 24  1  0  0  0  0
 22 21  1  0  0  0  0
 23 21  1  0  0  0  0
 25 26  1  1  0  0  0
 25 29  1  0  0  0  0
 28 27  1  0  0  0  0
 28 35  1  0  0  0  0
 29 28  2  0  0  0  0
 30 29  1  0  0  0  0
 30 32  2  0  0  0  0
 31 30  1  0  0  0  0
 32 34  1  0  0  0  0
 33 32  1  0  0  0  0
 34 35  2  0  0  0  0
 36 25  1  0  0  0  0
 37 36  1  0  0  0  0
 38 37  2  0  0  0  0
 39 40  1  0  0  0  0
 39 37  1  0  0  0  0
 41 39  1  0  0  0  0
M  END
>  <minimizedAffinity>
-5.3021512

$$$$

 OpenBabel03272507293D

 41 43  0  0  1  0  0  0  0  0999 V2000
   36.5730   27.9940   31.2750 C   0  0  0  0  0  0  0  0  0  0  0  0
   37.8660   27.5770   31.6000 C   0  0  0  0  0  0  0  0  0  0  0  0
   38.0850   26.2260   31.8220 C   0  0  0  0  0  0  0  0  0  0  0  0
   37.0510   25.3880   31.7140 N   0  0  0  0  0  0  0  0  0  0  0  0
   35.8080   25.8050   31.3980 C   0  0  0  0  0  0  0  0  0  0  0  0
   35.5760   27.0980   31.1820 N   0  0  0  0  0  0  0  0  0  0  0  0
   39.3520   25.7590   32.1630 N   0  0  0  0  0  0  0  0  0  0  0  0
   40.6460   26.3500   31.7290 C   0  0  0  0  0  0  0  0  0  0  0  0
   41.7180   25.3830   32.0570 C   0  0  0  0  0  0  0  0  0  0  0  0
   41.0090   24.1410   32.3150 C   0  0  0  0  0  0  0  0  0  0  0  0
   39.7650   24.6460   32.9520 C   0  0  2  0  0  0  0  0  0  0  0  0
   36.5170   29.0830   31.1210 H   0  0  0  0  0  0  0  0  0  0  0  0
   38.7310   28.2300   31.6960 H   0  0  0  0  0  0  0  0  0  0  0  0
   34.9390   25.1630   31.2990 H   0  0  0  0  0  0  0  0  0  0  0  0
   40.4580   26.3600   30.5880 H   0  0  0  0  0  0  0  0  0  0  0  0
   40.7790   27.3880   31.9410 H   0  0  0  0  0  0  0  0  0  0  0  0
   42.1610   25.1460   30.9700 H   0  0  0  0  0  0  0  0  0  0  0  0
   42.6340   25.6690   32.4980 H   0  0  0  0  0  0  0  0  0  0  0  0
   40.8340   23.4680   31.4630 H   0  0  0  0  0  0  0  0  0  0  0  0
   41.5720   23.5700   33.1140 H   0  0  0  0  0  0  0  0  0  0  0  0
   38.7360   23.5160   33.0330 C   0  0  0  0  0  0  0  0  0  0  0  0
   38.3360   23.1970   31.7520 F   0  0  0  0  0  0  0  0  0  0  0  0
   37.6080   23.8060   33.7380 F   0  0  0  0  0  0  0  0  0  0  0  0
   39.4030   22.4060   33.5150 F   0  0  0  0  0  0  0  0  0  0  0  0
   39.9740   25.1010   34.2940 C   0  0  2  0  0  0  0  0  0  0  0  0
   40.8730   25.6640   34.4080 H   0  0  0  0  0  0  0  0  0  0  0  0
   42.5880   24.0540   34.9310 F   0  0  0  0  0  0  0  0  0  0  0  0
   41.5720   23.6170   35.7070 C   0  0  0  0  0  0  0  0  0  0  0  0
   40.2880   24.0630   35.4400 C   0  0  0  0  0  0  0  0  0  0  0  0
   39.3480   23.5760   36.3350 C   0  0  0  0  0  0  0  0  0  0  0  0
   38.3170   23.9230   36.1430 H   0  0  0  0  0  0  0  0  0  0  0  0
   39.5850   22.7420   37.3900 C   0  0  0  0  0  0  0  0  0  0  0  0
   38.7460   22.4550   37.9900 H   0  0  0  0  0  0  0  0  0  0  0  0
   40.8760   22.3710   37.5520 C   0  0  0  0  0  3  0  0  0  0  0  0
   41.9040   22.7800   36.7380 C   0  0  0  0  0  3  0  0  0  0  0  0
   38.8640   25.5350   34.7190 O   0  0  0  0  0  0  0  0  0  0  0  0
   38.3800   26.6060   35.3790 C   0  0  0  0  0  0  0  0  0  0  0  0
   37.1930   26.8040   35.1010 O   0  0  0  0  0  0  0  0  0  0  0  0
   38.5920   27.6730   36.2960 N   0  0  0  0  0  0  0  0  0  0  0  0
   38.4960   27.3930   37.3120 H   0  0  0  0  0  0  0  0  0  0  0  0
   38.8240   28.6460   35.9660 H   0  0  0  0  0  0  0  0  0  0  0  0
  1  2  1  0  0  0  0
  2 13  1  0  0  0  0
  2  3  2  0  0  0  0
  3  7  1  0  0  0  0
  4  3  1  0  0  0  0
  5  4  2  0  0  0  0
  6  1  2  0  0  0  0
  6  5  1  0  0  0  0
  7 11  1  0  0  0  0
  8 16  1  0  0  0  0
  8  9  1  0  0  0  0
  8  7  1  0  0  0  0
  9 10  1  0  0  0  0
  9 18  1  0  0  0  0
 10 11  1  0  0  0  0
 10 20  1  0  0  0  0
 11 21  1  6  0  0  0
 11 25  1  0  0  0  0
 12  1  1  0  0  0  0
 14  5  1  0  0  0  0
 15  8  1  0  0  0  0
 17  9  1  0  0  0  0
 19 10  1  0  0  0  0
 21 24  1  0  0  0  0
 21 23  1  0  0  0  0
 22 21  1  0  0  0  0
 25 26  1  1  0  0  0
 25 36  1  0  0  0  0
 25 29  1  0  0  0  0
 27 28  1  0  0  0  0
 28 35  1  0  0  0  0
 29 28  2  0  0  0  0
 29 30  1  0  0  0  0
 30 32  2  0  0  0  0
 31 30  1  0  0  0  0
 32 34  1  0  0  0  0
 32 33  1  0  0  0  0
 35 34  2  0  0  0  0
 36 37  1  0  0  0  0
 37 39  1  0  0  0  0
 38 37  2  0  0  0  0
 39 40  1  0  0  0  0
 41 39  1  0  0  0  0
M  END
>  <minimizedAffinity>
-5.25068235

$$$$

 OpenBabel03272507293D

 41 43  0  0  1  0  0  0  0  0999 V2000
   39.1970   22.4630   36.6120 C   0  0  0  0  0  0  0  0  0  0  0  0
   39.4980   23.1530   35.4350 C   0  0  0  0  0  0  0  0  0  0  0  0
   39.1090   24.4800   35.3310 C   0  0  0  0  0  0  0  0  0  0  0  0
   38.4660   25.0360   36.3610 N   0  0  0  0  0  0  0  0  0  0  0  0
   38.1820   24.3580   37.4920 C   0  0  0  0  0  0  0  0  0  0  0  0
   38.5460   23.0830   37.6110 N   0  0  0  0  0  0  0  0  0  0  0  0
   39.3720   25.2080   34.1730 N   0  0  0  0  0  0  0  0  0  0  0  0
   40.5360   25.0190   33.2690 C   0  0  0  0  0  0  0  0  0  0  0  0
   40.5910   26.1800   32.3520 C   0  0  0  0  0  0  0  0  0  0  0  0
   39.7190   27.1630   32.9720 C   0  0  0  0  0  0  0  0  0  0  0  0
   38.6720   26.2890   33.5610 C   0  0  2  0  0  0  0  0  0  0  0  0
   39.5520   21.4220   36.5830 H   0  0  0  0  0  0  0  0  0  0  0  0
   40.0200   22.7330   34.5770 H   0  0  0  0  0  0  0  0  0  0  0  0
   37.6630   24.7670   38.3530 H   0  0  0  0  0  0  0  0  0  0  0  0
   41.3810   25.0960   34.0560 H   0  0  0  0  0  0  0  0  0  0  0  0
   40.6760   24.0310   32.8890 H   0  0  0  0  0  0  0  0  0  0  0  0
   41.6580   26.6470   32.6280 H   0  0  0  0  0  0  0  0  0  0  0  0
   40.7690   26.0850   31.3150 H   0  0  0  0  0  0  0  0  0  0  0  0
   40.1710   27.8650   33.6880 H   0  0  0  0  0  0  0  0  0  0  0  0
   39.2170   27.7600   32.1510 H   0  0  0  0  0  0  0  0  0  0  0  0
   37.8060   27.1050   34.5250 C   0  0  0  0  0  0  0  0  0  0  0  0
   37.3390   28.2170   33.8560 F   0  0  0  0  0  0  0  0  0  0  0  0
   38.4430   27.5540   35.6400 F   0  0  0  0  0  0  0  0  0  0  0  0
   36.6970   26.3330   34.8110 F   0  0  0  0  0  0  0  0  0  0  0  0
   37.7830   25.7470   32.5780 C   0  0  2  0  0  0  0  0  0  0  0  0
   36.8850   25.3530   32.9990 H   0  0  0  0  0  0  0  0  0  0  0  0
   37.0150   23.0610   33.3090 F   0  0  0  0  0  0  0  0  0  0  0  0
   37.7570   23.1770   32.1870 C   0  0  0  0  0  0  0  0  0  0  0  0
   38.1790   24.4370   31.7920 C   0  0  0  0  0  0  0  0  0  0  0  0
   38.8910   24.4220   30.6030 C   0  0  0  0  0  0  0  0  0  0  0  0
   39.2340   25.4170   30.2670 H   0  0  0  0  0  0  0  0  0  0  0  0
   39.1880   23.3250   29.8460 C   0  0  0  0  0  0  0  0  0  0  0  0
   39.7500   23.4810   28.9500 H   0  0  0  0  0  0  0  0  0  0  0  0
   38.7260   22.1480   30.3310 C   0  0  0  0  0  3  0  0  0  0  0  0
   38.0080   22.0240   31.4950 C   0  0  0  0  0  3  0  0  0  0  0  0
   37.7570   26.5590   31.6080 O   0  0  0  0  0  0  0  0  0  0  0  0
   36.8480   27.1890   30.8380 C   0  0  0  0  0  0  0  0  0  0  0  0
   35.7280   27.1630   31.3570 O   0  0  0  0  0  0  0  0  0  0  0  0
   36.5450   27.9140   29.6520 N   0  0  0  0  0  0  0  0  0  0  0  0
   36.7510   28.9510   29.7170 H   0  0  0  0  0  0  0  0  0  0  0  0
   36.1530   27.4370   28.7980 H   0  0  0  0  0  0  0  0  0  0  0  0
  1  6  1  0  0  0  0
  2  1  2  0  0  0  0
  3  2  1  0  0  0  0
  3  4  2  0  0  0  0
  4  5  1  0  0  0  0
  5  6  2  0  0  0  0
  5 14  1  0  0  0  0
  7  3  1  0  0  0  0
  8 15  1  0  0  0  0
  8  7  1  0  0  0  0
  9 17  1  0  0  0  0
  9 10  1  0  0  0  0
  9  8  1  0  0  0  0
 10 11  1  0  0  0  0
 10 19  1  0  0  0  0
 11  7  1  0  0  0  0
 11 21  1  1  0  0  0
 12  1  1  0  0  0  0
 13  2  1  0  0  0  0
 16  8  1  0  0  0  0
 18  9  1  0  0  0  0
 20 10  1  0  0  0  0
 21 24  1  0  0  0  0
 21 23  1  0  0  0  0
 22 21  1  0  0  0  0
 25 26  1  1  0  0  0
 25 11  1  0  0  0  0
 28 27  1  0  0  0  0
 29 28  1  0  0  0  0
 29 25  1  0  0  0  0
 30 29  2  0  0  0  0
 31 30  1  0  0  0  0
 32 34  2  0  0  0  0
 32 30  1  0  0  0  0
 33 32  1  0  0  0  0
 34 35  1  0  0  0  0
 35 28  2  0  0  0  0
 36 25  1  0  0  0  0
 37 38  2  0  0  0  0
 37 36  1  0  0  0  0
 39 40  1  0  0  0  0
 39 37  1  0  0  0  0
 41 39  1  0  0  0  0
M  END
>  <minimizedAffinity>
-5.24783421

$$$$

 OpenBabel03272507293D

 41 43  0  0  1  0  0  0  0  0999 V2000
   43.7650   21.3350   36.0450 C   0  0  0  0  0  0  0  0  0  0  0  0
   42.6790   22.0380   36.5720 C   0  0  0  0  0  0  0  0  0  0  0  0
   41.5140   22.1060   35.8240 C   0  0  0  0  0  0  0  0  0  0  0  0
   41.4840   21.4970   34.6360 N   0  0  0  0  0  0  0  0  0  0  0  0
   42.5410   20.8210   34.1400 C   0  0  0  0  0  0  0  0  0  0  0  0
   43.6690   20.7450   34.8410 N   0  0  0  0  0  0  0  0  0  0  0  0
   40.4060   22.8060   36.2980 N   0  0  0  0  0  0  0  0  0  0  0  0
   40.0240   22.9720   37.7250 C   0  0  0  0  0  0  0  0  0  0  0  0
   38.6450   23.5100   37.7640 C   0  0  0  0  0  0  0  0  0  0  0  0
   38.1400   23.2900   36.4200 C   0  0  0  0  0  0  0  0  0  0  0  0
   39.3690   23.5030   35.6120 C   0  0  2  0  0  0  0  0  0  0  0  0
   44.6330   21.3470   36.7220 H   0  0  0  0  0  0  0  0  0  0  0  0
   42.6670   22.5450   37.5350 H   0  0  0  0  0  0  0  0  0  0  0  0
   42.5630   20.3120   33.1820 H   0  0  0  0  0  0  0  0  0  0  0  0
   40.0240   21.8580   38.0350 H   0  0  0  0  0  0  0  0  0  0  0  0
   40.7750   23.3810   38.3640 H   0  0  0  0  0  0  0  0  0  0  0  0
   38.0700   22.6360   38.3470 H   0  0  0  0  0  0  0  0  0  0  0  0
   38.3520   24.2930   38.4090 H   0  0  0  0  0  0  0  0  0  0  0  0
   37.6300   22.3370   36.2160 H   0  0  0  0  0  0  0  0  0  0  0  0
   37.4340   24.1370   36.1630 H   0  0  0  0  0  0  0  0  0  0  0  0
   39.1290   23.0220   34.1780 C   0  0  0  0  0  0  0  0  0  0  0  0
   39.0430   21.6460   34.1880 F   0  0  0  0  0  0  0  0  0  0  0  0
   40.1020   23.3500   33.2850 F   0  0  0  0  0  0  0  0  0  0  0  0
   37.8800   23.4840   33.8090 F   0  0  0  0  0  0  0  0  0  0  0  0
   39.7420   24.8830   35.5200 C   0  0  2  0  0  0  0  0  0  0  0  0
   39.8160   25.3590   36.4720 H   0  0  0  0  0  0  0  0  0  0  0  0
   38.1480   26.7700   37.0150 F   0  0  0  0  0  0  0  0  0  0  0  0
   38.0210   26.8250   35.6710 C   0  0  0  0  0  0  0  0  0  0  0  0
   38.7410   25.9300   34.8950 C   0  0  0  0  0  0  0  0  0  0  0  0
   38.5560   26.1220   33.5340 C   0  0  0  0  0  0  0  0  0  0  0  0
   39.1240   25.4220   32.8960 H   0  0  0  0  0  0  0  0  0  0  0  0
   37.7650   27.0670   32.9470 C   0  0  0  0  0  0  0  0  0  0  0  0
   37.7290   27.0840   31.8780 H   0  0  0  0  0  0  0  0  0  0  0  0
   37.1090   27.8840   33.8040 C   0  0  0  0  0  3  0  0  0  0  0  0
   37.2040   27.8020   35.1710 C   0  0  0  0  0  3  0  0  0  0  0  0
   40.6710   24.9630   34.6650 O   0  0  0  0  0  0  0  0  0  0  0  0
   41.8390   25.6150   34.4970 C   0  0  0  0  0  0  0  0  0  0  0  0
   42.7280   24.8460   34.1160 O   0  0  0  0  0  0  0  0  0  0  0  0
   42.5770   26.8290   34.5450 N   0  0  0  0  0  0  0  0  0  0  0  0
   42.4740   27.4310   33.6800 H   0  0  0  0  0  0  0  0  0  0  0  0
   43.1650   27.0860   35.3810 H   0  0  0  0  0  0  0  0  0  0  0  0
  1  2  1  0  0  0  0
  1 12  1  0  0  0  0
  2 13  1  0  0  0  0
  3  7  1  0  0  0  0
  3  2  2  0  0  0  0
  4  3  1  0  0  0  0
  5  4  2  0  0  0  0
  5  6  1  0  0  0  0
  6  1  2  0  0  0  0
  7  8  1  0  0  0  0
  8  9  1  0  0  0  0
  8 15  1  0  0  0  0
  8 16  1  0  0  0  0
  9 17  1  0  0  0  0
  9 18  1  0  0  0  0
 10  9  1  0  0  0  0
 11 21  1  6  0  0  0
 11  7  1  0  0  0  0
 11 10  1  0  0  0  0
 14  5  1  0  0  0  0
 19 10  1  0  0  0  0
 20 10  1  0  0  0  0
 21 22  1  0  0  0  0
 23 21  1  0  0  0  0
 24 21  1  0  0  0  0
 25 11  1  0  0  0  0
 25 26  1  1  0  0  0
 28 27  1  0  0  0  0
 29 25  1  0  0  0  0
 29 28  2  0  0  0  0
 30 29  1  0  0  0  0
 31 30  1  0  0  0  0
 32 30  2  0  0  0  0
 32 34  1  0  0  0  0
 33 32  1  0  0  0  0
 34 35  2  0  0  0  0
 35 28  1  0  0  0  0
 36 25  1  0  0  0  0
 37 39  1  0  0  0  0
 37 36  1  0  0  0  0
 38 37  2  0  0  0  0
 39 41  1  0  0  0  0
 40 39  1  0  0  0  0
M  END
>  <minimizedAffinity>
-5.23581696

$$$$

 OpenBabel03272507293D

 41 43  0  0  1  0  0  0  0  0999 V2000
   30.9420   27.6440   37.4270 C   0  0  0  0  0  0  0  0  0  0  0  0
   31.5350   28.8920   37.2140 C   0  0  0  0  0  0  0  0  0  0  0  0
   31.6420   29.3570   35.9130 C   0  0  0  0  0  0  0  0  0  0  0  0
   31.1740   28.5910   34.9240 N   0  0  0  0  0  0  0  0  0  0  0  0
   30.6040   27.3890   35.1430 C   0  0  0  0  0  0  0  0  0  0  0  0
   30.4920   26.9240   36.3850 N   0  0  0  0  0  0  0  0  0  0  0  0
   32.2380   30.5870   35.6450 N   0  0  0  0  0  0  0  0  0  0  0  0
   32.2220   31.7760   36.5380 C   0  0  0  0  0  0  0  0  0  0  0  0
   32.6960   32.9380   35.7520 C   0  0  0  0  0  0  0  0  0  0  0  0
   32.6130   32.4910   34.3720 C   0  0  0  0  0  0  0  0  0  0  0  0
   32.9670   31.0550   34.5130 C   0  0  2  0  0  0  0  0  0  0  0  0
   30.9110   27.3780   38.4940 H   0  0  0  0  0  0  0  0  0  0  0  0
   31.9260   29.5410   37.9950 H   0  0  0  0  0  0  0  0  0  0  0  0
   30.2100   26.7340   34.3730 H   0  0  0  0  0  0  0  0  0  0  0  0
   31.0810   31.8510   36.7070 H   0  0  0  0  0  0  0  0  0  0  0  0
   32.5840   31.6190   37.5300 H   0  0  0  0  0  0  0  0  0  0  0  0
   31.7380   33.6560   35.7940 H   0  0  0  0  0  0  0  0  0  0  0  0
   33.3870   33.6430   36.1280 H   0  0  0  0  0  0  0  0  0  0  0  0
   31.6700   32.6690   33.8340 H   0  0  0  0  0  0  0  0  0  0  0  0
   33.4560   32.9750   33.7910 H   0  0  0  0  0  0  0  0  0  0  0  0
   32.6470   30.3170   33.2100 C   0  0  0  0  0  0  0  0  0  0  0  0
   31.3000   30.4590   32.9490 F   0  0  0  0  0  0  0  0  0  0  0  0
   32.9080   28.9820   33.2190 F   0  0  0  0  0  0  0  0  0  0  0  0
   33.3080   30.9900   32.2020 F   0  0  0  0  0  0  0  0  0  0  0  0
   34.3620   30.8480   34.7630 C   0  0  2  0  0  0  0  0  0  0  0  0
   34.6010   30.8260   35.8030 H   0  0  0  0  0  0  0  0  0  0  0  0
   35.8770   32.4300   36.6450 F   0  0  0  0  0  0  0  0  0  0  0  0
   36.1170   32.6770   35.3390 C   0  0  0  0  0  0  0  0  0  0  0  0
   35.4060   31.9680   34.3830 C   0  0  0  0  0  0  0  0  0  0  0  0
   35.7800   32.2840   33.0860 C   0  0  0  0  0  0  0  0  0  0  0  0
   35.2290   31.7260   32.3070 H   0  0  0  0  0  0  0  0  0  0  0  0
   36.7340   33.1850   32.7100 C   0  0  0  0  0  0  0  0  0  0  0  0
   36.9050   33.3140   31.6620 H   0  0  0  0  0  0  0  0  0  0  0  0
   37.3610   33.8180   33.7290 C   0  0  0  0  0  3  0  0  0  0  0  0
   37.0880   33.5990   35.0570 C   0  0  0  0  0  3  0  0  0  0  0  0
   34.7530   29.9380   33.9760 O   0  0  0  0  0  0  0  0  0  0  0  0
   35.7270   29.0090   33.9050 C   0  0  0  0  0  0  0  0  0  0  0  0
   36.0080   28.7460   32.7310 O   0  0  0  0  0  0  0  0  0  0  0  0
   36.6390   28.1430   34.5700 N   0  0  0  0  0  0  0  0  0  0  0  0
   37.5380   28.6140   34.8710 H   0  0  0  0  0  0  0  0  0  0  0  0
   36.4140   27.1270   34.7370 H   0  0  0  0  0  0  0  0  0  0  0  0
  1 12  1  0  0  0  0
  2  1  1  0  0  0  0
  2 13  1  0  0  0  0
  3  2  2  0  0  0  0
  4  5  2  0  0  0  0
  4  3  1  0  0  0  0
  5  6  1  0  0  0  0
  6  1  2  0  0  0  0
  7  3  1  0  0  0  0
  7  8  1  0  0  0  0
  8 15  1  0  0  0  0
  8 16  1  0  0  0  0
  9 17  1  0  0  0  0
  9 18  1  0  0  0  0
  9  8  1  0  0  0  0
 10 11  1  0  0  0  0
 10  9  1  0  0  0  0
 11 21  1  6  0  0  0
 11 25  1  0  0  0  0
 11  7  1  0  0  0  0
 14  5  1  0  0  0  0
 19 10  1  0  0  0  0
 20 10  1  0  0  0  0
 21 23  1  0  0  0  0
 22 21  1  0  0  0  0
 24 21  1  0  0  0  0
 25 26  1  1  0  0  0
 28 27  1  0  0  0  0
 29 25  1  0  0  0  0
 29 28  2  0  0  0  0
 30 29  1  0  0  0  0
 31 30  1  0  0  0  0
 32 30  2  0  0  0  0
 32 34  1  0  0  0  0
 33 32  1  0  0  0  0
 34 35  2  0  0  0  0
 35 28  1  0  0  0  0
 36 25  1  0  0  0  0
 37 36  1  0  0  0  0
 37 39  1  0  0  0  0
 38 37  2  0  0  0  0
 39 41  1  0  0  0  0
 39 40  1  0  0  0  0
M  END
>  <minimizedAffinity>
-5.18001556

$$$$
