
 OpenBabel03272507283D

 41 43  0  0  1  0  0  0  0  0999 V2000
   37.5690   30.3530   48.8070 C   0  0  0  0  0  0  0  0  0  0  0  0
   38.1340   30.8780   47.6420 C   0  0  0  0  0  0  0  0  0  0  0  0
   37.3680   30.8900   46.4860 C   0  0  0  0  0  0  0  0  0  0  0  0
   36.1270   30.4000   46.5410 N   0  0  0  0  0  0  0  0  0  0  0  0
   35.5940   29.8970   47.6740 C   0  0  0  0  0  0  0  0  0  0  0  0
   36.3130   29.8760   48.7930 N   0  0  0  0  0  0  0  0  0  0  0  0
   37.8880   31.3890   45.2940 N   0  0  0  0  0  0  0  0  0  0  0  0
   38.8920   32.4790   45.1690 C   0  0  0  0  0  0  0  0  0  0  0  0
   38.9330   32.8940   43.7490 C   0  0  0  0  0  0  0  0  0  0  0  0
   37.7270   32.3220   43.1760 C   0  0  0  0  0  0  0  0  0  0  0  0
   37.6230   31.0490   43.9360 C   0  0  2  0  0  0  0  0  0  0  0  0
   38.2660   30.3950   49.6580 H   0  0  0  0  0  0  0  0  0  0  0  0
   39.1400   31.2850   47.5600 H   0  0  0  0  0  0  0  0  0  0  0  0
   34.5930   29.4900   47.7670 H   0  0  0  0  0  0  0  0  0  0  0  0
   38.3530   33.2840   45.8020 H   0  0  0  0  0  0  0  0  0  0  0  0
   39.8000   32.3410   45.7130 H   0  0  0  0  0  0  0  0  0  0  0  0
   38.5990   34.0410   43.8300 H   0  0  0  0  0  0  0  0  0  0  0  0
   39.8350   33.0720   43.2280 H   0  0  0  0  0  0  0  0  0  0  0  0
   36.8120   32.9330   43.1990 H   0  0  0  0  0  0  0  0  0  0  0  0
   37.9430   32.0400   42.1010 H   0  0  0  0  0  0  0  0  0  0  0  0
   36.2460   30.4230   43.7010 C   0  0  0  0  0  0  0  0  0  0  0  0
   35.2820   31.3230   44.1060 F   0  0  0  0  0  0  0  0  0  0  0  0
   36.0110   29.2650   44.3750 F   0  0  0  0  0  0  0  0  0  0  0  0
   36.0980   30.2910   42.3340 F   0  0  0  0  0  0  0  0  0  0  0  0
   38.5870   30.0740   43.5210 C   0  0  2  0  0  0  0  0  0  0  0  0
   39.4870   30.1080   44.0930 H   0  0  0  0  0  0  0  0  0  0  0  0
   41.4380   30.0660   43.0630 F   0  0  0  0  0  0  0  0  0  0  0  0
   40.6640   30.1740   41.9600 C   0  0  0  0  0  0  0  0  0  0  0  0
   39.2870   30.2070   42.1130 C   0  0  0  0  0  0  0  0  0  0  0  0
   38.6090   30.2730   40.9060 C   0  0  0  0  0  0  0  0  0  0  0  0
   37.5100   30.2960   41.0020 H   0  0  0  0  0  0  0  0  0  0  0  0
   39.1690   30.3070   39.6610 C   0  0  0  0  0  0  0  0  0  0  0  0
   38.5050   30.3580   38.8230 H   0  0  0  0  0  0  0  0  0  0  0  0
   40.5230   30.2700   39.6350 C   0  0  0  0  0  3  0  0  0  0  0  0
   41.3120   30.2040   40.7560 C   0  0  0  0  0  3  0  0  0  0  0  0
   37.9640   28.9890   43.3310 O   0  0  0  0  0  0  0  0  0  0  0  0
   38.2380   27.7000   43.0490 C   0  0  0  0  0  0  0  0  0  0  0  0
   37.2980   27.1640   42.4530 O   0  0  0  0  0  0  0  0  0  0  0  0
   39.1420   26.6030   43.1070 N   0  0  0  0  0  0  0  0  0  0  0  0
   39.8680   26.6030   42.3370 H   0  0  0  0  0  0  0  0  0  0  0  0
   39.0730   25.8710   43.8610 H   0  0  0  0  0  0  0  0  0  0  0  0
  1 12  1  0  0  0  0
  2  1  2  0  0  0  0
  3  4  2  0  0  0  0
  3  2  1  0  0  0  0
  4  5  1  0  0  0  0
  5 14  1  0  0  0  0
  5  6  2  0  0  0  0
  6  1  1  0  0  0  0
  7  3  1  0  0  0  0
  8  7  1  0  0  0  0
  8 16  1  0  0  0  0
  8 15  1  0  0  0  0
  9 17  1  0  0  0  0
  9  8  1  0  0  0  0
 10 19  1  0  0  0  0
 10  9  1  0  0  0  0
 10 11  1  0  0  0  0
 11 21  1  6  0  0  0
 11  7  1  0  0  0  0
 13  2  1  0  0  0  0
 18  9  1  0  0  0  0
 20 10  1  0  0  0  0
 21 22  1  0  0  0  0
 21 23  1  0  0  0  0
 24 21  1  0  0  0  0
 25 11  1  0  0  0  0
 25 26  1  1  0  0  0
 28 29  1  0  0  0  0
 28 27  1  0  0  0  0
 29 25  1  0  0  0  0
 30 31  1  0  0  0  0
 30 29  2  0  0  0  0
 32 30  1  0  0  0  0
 33 32  1  0  0  0  0
 34 32  2  0  0  0  0
 34 35  1  0  0  0  0
 35 28  2  0  0  0  0
 36 25  1  0  0  0  0
 37 39  1  0  0  0  0
 37 36  1  0  0  0  0
 38 37  2  0  0  0  0
 39 41  1  0  0  0  0
 40 39  1  0  0  0  0
M  END
>  <minimizedAffinity>
-4.576437

>  <minimizedRMSD>
3.6044414

$$$$
