
 OpenBabel03272504193D

 27 28  0  0  0  0  0  0  0  0999 V2000
   37.8560   29.4630   49.4120 O   0  0  0  0  0  0  0  0  0  0  0  0
   36.9680   30.2920   50.2930 P   0  0  2  0  0  0  0  0  0  0  0  0
   37.6740   30.3080   51.8580 O   0  0  0  0  0  0  0  0  0  0  0  0
   37.0000   30.5800   52.5290 H   0  0  0  0  0  0  0  0  0  0  0  0
   35.4400   29.5790   50.4090 O   0  0  0  0  0  0  0  0  0  0  0  0
   35.3590   28.5660   49.4920 C   0  0  0  0  0  0  0  0  0  0  0  0
   36.3230   28.2760   49.0330 H   0  0  0  0  0  0  0  0  0  0  0  0
   35.0270   27.6470   50.0550 H   0  0  0  0  0  0  0  0  0  0  0  0
   34.2990   28.7780   48.4730 C   0  0  0  0  0  0  0  0  0  0  0  0
   34.4780   29.8320   47.5670 C   0  0  0  0  0  0  0  0  0  0  0  0
   33.4940   30.0520   46.5980 C   0  0  0  0  0  0  0  0  0  0  0  0
   32.4110   29.2240   46.5900 N   0  0  0  0  0  0  0  0  0  0  0  0
   32.2720   28.2180   47.4790 C   0  0  0  0  0  0  0  0  0  0  0  0
   33.2050   27.9940   48.4120 N   0  0  0  0  0  0  0  0  0  0  0  0
   35.3440   30.4890   47.5780 H   0  0  0  0  0  0  0  0  0  0  0  0
   33.6190   30.8630   45.8910 H   0  0  0  0  0  0  0  0  0  0  0  0
   31.3790   27.5880   47.4200 H   0  0  0  0  0  0  0  0  0  0  0  0
   36.8510   31.8570   49.6810 O   0  0  0  0  0  0  0  0  0  0  0  0
   37.4650   31.2220   47.0090 F   0  0  0  0  0  0  0  0  0  0  0  0
   38.2080   32.1690   47.5860 C   0  0  0  0  0  0  0  0  0  0  0  0
   37.8440   32.4210   48.8920 C   0  0  0  0  0  0  0  0  0  0  0  0
   38.5320   33.3890   49.6310 C   0  0  0  0  0  0  0  0  0  0  0  0
   38.3600   33.6920   50.6550 H   0  0  0  0  0  0  0  0  0  0  0  0
   39.5860   34.1080   49.0590 C   0  0  0  0  0  0  0  0  0  0  0  0
   40.1530   34.8650   49.5720 H   0  0  0  0  0  0  0  0  0  0  0  0
   39.9220   33.8260   47.7420 C   0  0  0  0  0  3  0  0  0  0  0  0
   39.2420   32.8720   47.0210 C   0  0  0  0  0  3  0  0  0  0  0  0
  2  1  2  6  0  0  0
  2  5  1  0  0  0  0
  2  3  1  0  0  0  0
  3  4  1  0  0  0  0
  6  8  1  0  0  0  0
  6  5  1  0  0  0  0
  7  6  1  0  0  0  0
  9  6  1  0  0  0  0
 10 15  1  0  0  0  0
 10  9  2  0  0  0  0
 11 10  1  0  0  0  0
 12 11  2  0  0  0  0
 12 13  1  0  0  0  0
 13 14  2  0  0  0  0
 14  9  1  0  0  0  0
 16 11  1  0  0  0  0
 17 13  1  0  0  0  0
 18  2  1  0  0  0  0
 19 20  1  0  0  0  0
 20 21  1  0  0  0  0
 21 22  2  0  0  0  0
 21 18  1  0  0  0  0
 22 23  1  0  0  0  0
 24 25  1  0  0  0  0
 24 22  1  0  0  0  0
 26 24  2  0  0  0  0
 27 20  2  0  0  0  0
 27 26  1  0  0  0  0
M  END
>  <minimizedAffinity>
-4.96500683

>  <minimizedRMSD>
2.33014178

$$$$
