
 OpenBabel03272502323D

 27 28  0  0  1  0  0  0  0  0999 V2000
   39.3620   22.6210   36.0290 C   0  0  2  0  0  0  0  0  0  0  0  0
   39.2690   21.6790   36.7310 H   0  0  0  0  0  0  0  0  0  0  0  0
   41.5910   21.6340   37.5880 F   0  0  0  0  0  0  0  0  0  0  0  0
   41.8490   22.6780   36.7410 C   0  0  0  0  0  0  0  0  0  0  0  0
   40.7160   23.0610   36.0630 C   0  0  0  0  0  0  0  0  0  0  0  0
   40.8510   24.1200   35.1750 C   0  0  0  0  0  0  0  0  0  0  0  0
   40.1110   24.6110   34.5230 H   0  0  0  0  0  0  0  0  0  0  0  0
   42.0730   24.7770   34.9670 C   0  0  0  0  0  0  0  0  0  0  0  0
   42.2680   25.6080   34.2970 H   0  0  0  0  0  0  0  0  0  0  0  0
   43.1950   24.3540   35.6770 C   0  0  0  0  0  3  0  0  0  0  0  0
   43.0860   23.2890   36.5790 C   0  0  0  0  0  3  0  0  0  0  0  0
   37.5370   21.8960   34.6630 C   0  0  0  0  0  3  0  0  0  0  0  0
   38.8150   22.2110   34.7230 C   0  0  0  0  0  3  0  0  0  0  0  0
   35.0280   20.3310   32.4160 C   0  0  0  0  0  0  0  0  0  0  0  0
   35.6880   20.7750   33.5550 C   0  0  0  0  0  0  0  0  0  0  0  0
   36.9010   21.4300   33.4640 C   0  0  0  0  0  0  0  0  0  0  0  0
   37.4160   21.6200   32.2320 N   0  0  0  0  0  0  0  0  0  0  0  0
   36.7620   21.1810   31.1480 C   0  0  0  0  0  0  0  0  0  0  0  0
   35.5830   20.5440   31.2280 N   0  0  0  0  0  0  0  0  0  0  0  0
   34.0800   19.8190   32.4680 H   0  0  0  0  0  0  0  0  0  0  0  0
   35.1390   20.5480   34.4870 H   0  0  0  0  0  0  0  0  0  0  0  0
   37.2420   21.3690   30.1960 H   0  0  0  0  0  0  0  0  0  0  0  0
   38.1900   23.8400   36.7450 S   0  0  0  0  0  0  0  0  0  0  0  0
   38.1630   23.6900   38.5260 C   0  0  0  0  0  0  0  0  0  0  0  0
   37.2440   22.7430   38.9820 F   0  0  0  0  0  0  0  0  0  0  0  0
   39.4190   23.4910   39.0510 F   0  0  0  0  0  0  0  0  0  0  0  0
   37.7190   24.9450   39.0230 F   0  0  0  0  0  0  0  0  0  0  0  0
  1  5  1  0  0  0  0
  1  2  1  1  0  0  0
  1 23  1  0  0  0  0
  4  3  1  0  0  0  0
  5  4  2  0  0  0  0
  6  5  1  0  0  0  0
  7  6  1  0  0  0  0
  8  6  2  0  0  0  0
  8 10  1  0  0  0  0
  9  8  1  0  0  0  0
 10 11  2  0  0  0  0
 11  4  1  0  0  0  0
 12 13  2  0  0  0  0
 13  1  1  0  0  0  0
 14 20  1  0  0  0  0
 14 15  1  0  0  0  0
 15 21  1  0  0  0  0
 16 15  2  0  0  0  0
 16 12  1  0  0  0  0
 17 16  1  0  0  0  0
 18 19  1  0  0  0  0
 18 17  2  0  0  0  0
 19 14  2  0  0  0  0
 22 18  1  0  0  0  0
 23 24  1  0  0  0  0
 24 25  1  0  0  0  0
 24 27  1  0  0  0  0
 24 26  1  0  0  0  0
M  END
>  <minimizedAffinity>
-5.55613947

$$$$

 OpenBabel03272502323D

 27 28  0  0  1  0  0  0  0  0999 V2000
   39.2990   23.1970   35.6960 C   0  0  2  0  0  0  0  0  0  0  0  0
   39.9560   22.5850   36.4600 H   0  0  0  0  0  0  0  0  0  0  0  0
   42.0760   23.3730   34.9020 F   0  0  0  0  0  0  0  0  0  0  0  0
   41.3540   24.5340   34.8700 C   0  0  0  0  0  0  0  0  0  0  0  0
   40.0570   24.3260   35.2730 C   0  0  0  0  0  0  0  0  0  0  0  0
   39.2250   25.4380   35.2890 C   0  0  0  0  0  0  0  0  0  0  0  0
   38.1630   25.5390   35.5670 H   0  0  0  0  0  0  0  0  0  0  0  0
   39.6680   26.7160   34.9150 C   0  0  0  0  0  0  0  0  0  0  0  0
   39.0900   27.6340   34.8960 H   0  0  0  0  0  0  0  0  0  0  0  0
   40.9920   26.8790   34.5130 C   0  0  0  0  0  3  0  0  0  0  0  0
   41.8530   25.7750   34.4890 C   0  0  0  0  0  3  0  0  0  0  0  0
   37.5900   22.1350   34.4040 C   0  0  0  0  0  3  0  0  0  0  0  0
   38.8780   22.2370   34.6610 C   0  0  0  0  0  3  0  0  0  0  0  0
   35.2160   19.8010   32.7580 C   0  0  0  0  0  0  0  0  0  0  0  0
   35.7830   20.6900   33.6630 C   0  0  0  0  0  0  0  0  0  0  0  0
   37.0510   21.1990   33.4590 C   0  0  0  0  0  0  0  0  0  0  0  0
   37.7130   20.8000   32.3530 N   0  0  0  0  0  0  0  0  0  0  0  0
   37.1460   19.9410   31.4960 C   0  0  0  0  0  0  0  0  0  0  0  0
   35.9150   19.4420   31.6860 N   0  0  0  0  0  0  0  0  0  0  0  0
   34.2270   19.3940   32.9000 H   0  0  0  0  0  0  0  0  0  0  0  0
   35.1170   20.9210   34.5140 H   0  0  0  0  0  0  0  0  0  0  0  0
   37.7420   19.6680   30.6340 H   0  0  0  0  0  0  0  0  0  0  0  0
   37.7990   23.6530   36.6510 S   0  0  0  0  0  0  0  0  0  0  0  0
   38.1370   23.5620   38.4040 C   0  0  0  0  0  0  0  0  0  0  0  0
   37.2680   22.7070   39.0850 F   0  0  0  0  0  0  0  0  0  0  0  0
   39.4570   23.2780   38.6660 F   0  0  0  0  0  0  0  0  0  0  0  0
   37.9000   24.8630   38.9230 F   0  0  0  0  0  0  0  0  0  0  0  0
  1  2  1  1  0  0  0
  1 23  1  0  0  0  0
  4  3  1  0  0  0  0
  4  5  1  0  0  0  0
  5  6  2  0  0  0  0
  5  1  1  0  0  0  0
  6  7  1  0  0  0  0
  8  6  1  0  0  0  0
  9  8  1  0  0  0  0
 10  8  2  0  0  0  0
 11 10  1  0  0  0  0
 11  4  2  0  0  0  0
 12 13  2  0  0  0  0
 13  1  1  0  0  0  0
 14 20  1  0  0  0  0
 14 15  1  0  0  0  0
 15 21  1  0  0  0  0
 16 15  2  0  0  0  0
 16 12  1  0  0  0  0
 17 16  1  0  0  0  0
 18 19  1  0  0  0  0
 18 17  2  0  0  0  0
 19 14  2  0  0  0  0
 22 18  1  0  0  0  0
 23 24  1  0  0  0  0
 24 26  1  0  0  0  0
 24 27  1  0  0  0  0
 24 25  1  0  0  0  0
M  END
>  <minimizedAffinity>
-5.33246946

$$$$

 OpenBabel03272502323D

 27 28  0  0  1  0  0  0  0  0999 V2000
   39.5270   22.9250   35.9230 C   0  0  2  0  0  0  0  0  0  0  0  0
   39.6930   22.0880   36.7360 H   0  0  0  0  0  0  0  0  0  0  0  0
   40.1430   25.2340   34.2920 F   0  0  0  0  0  0  0  0  0  0  0  0
   41.1760   24.6990   35.0120 C   0  0  0  0  0  0  0  0  0  0  0  0
   40.7630   23.6080   35.7390 C   0  0  0  0  0  0  0  0  0  0  0  0
   41.7290   22.9720   36.5090 C   0  0  0  0  0  0  0  0  0  0  0  0
   41.6590   22.0930   37.1690 H   0  0  0  0  0  0  0  0  0  0  0  0
   43.0620   23.4080   36.5550 C   0  0  0  0  0  0  0  0  0  0  0  0
   43.8770   22.9740   37.1260 H   0  0  0  0  0  0  0  0  0  0  0  0
   43.4340   24.5190   35.8010 C   0  0  0  0  0  3  0  0  0  0  0  0
   42.4810   25.1780   35.0160 C   0  0  0  0  0  3  0  0  0  0  0  0
   37.6390   22.0890   34.7160 C   0  0  0  0  0  3  0  0  0  0  0  0
   38.9470   22.2460   34.7510 C   0  0  0  0  0  3  0  0  0  0  0  0
   36.8980   20.7200   31.3450 C   0  0  0  0  0  0  0  0  0  0  0  0
   37.5100   21.4000   32.3910 C   0  0  0  0  0  0  0  0  0  0  0  0
   36.9610   21.3970   33.6580 C   0  0  0  0  0  0  0  0  0  0  0  0
   35.8130   20.7110   33.8390 N   0  0  0  0  0  0  0  0  0  0  0  0
   35.2410   20.0640   32.8150 C   0  0  0  0  0  0  0  0  0  0  0  0
   35.7680   20.0620   31.5810 N   0  0  0  0  0  0  0  0  0  0  0  0
   37.3130   20.7100   30.3490 H   0  0  0  0  0  0  0  0  0  0  0  0
   38.4420   21.9090   32.0860 H   0  0  0  0  0  0  0  0  0  0  0  0
   34.3210   19.5400   33.0400 H   0  0  0  0  0  0  0  0  0  0  0  0
   38.2130   23.9940   36.6330 S   0  0  0  0  0  0  0  0  0  0  0  0
   38.1530   23.7940   38.4080 C   0  0  0  0  0  0  0  0  0  0  0  0
   37.9330   24.9950   39.0860 F   0  0  0  0  0  0  0  0  0  0  0  0
   37.2720   22.8100   38.7920 F   0  0  0  0  0  0  0  0  0  0  0  0
   39.4440   23.3490   38.8020 F   0  0  0  0  0  0  0  0  0  0  0  0
  1 23  1  0  0  0  0
  1  2  1  1  0  0  0
  3  4  1  0  0  0  0
  4 11  2  0  0  0  0
  4  5  1  0  0  0  0
  5  1  1  0  0  0  0
  5  6  2  0  0  0  0
  6  8  1  0  0  0  0
  6  7  1  0  0  0  0
  8  9  1  0  0  0  0
 10  8  2  0  0  0  0
 11 10  1  0  0  0  0
 12 13  2  0  0  0  0
 13  1  1  0  0  0  0
 14 19  2  0  0  0  0
 14 15  1  0  0  0  0
 15 16  2  0  0  0  0
 16 17  1  0  0  0  0
 16 12  1  0  0  0  0
 18 22  1  0  0  0  0
 18 17  2  0  0  0  0
 19 18  1  0  0  0  0
 20 14  1  0  0  0  0
 21 15  1  0  0  0  0
 23 24  1  0  0  0  0
 24 26  1  0  0  0  0
 24 27  1  0  0  0  0
 24 25  1  0  0  0  0
M  END
>  <minimizedAffinity>
-5.30596113

$$$$

 OpenBabel03272502323D

 27 28  0  0  1  0  0  0  0  0999 V2000
   39.4760   23.1190   35.5310 C   0  0  2  0  0  0  0  0  0  0  0  0
   40.4050   22.9970   34.8170 H   0  0  0  0  0  0  0  0  0  0  0  0
   37.3070   24.4580   36.9000 F   0  0  0  0  0  0  0  0  0  0  0  0
   38.2110   25.2570   36.2550 C   0  0  0  0  0  0  0  0  0  0  0  0
   39.1860   24.5090   35.6390 C   0  0  0  0  0  0  0  0  0  0  0  0
   40.1610   25.2110   34.9430 C   0  0  0  0  0  0  0  0  0  0  0  0
   41.0350   24.8560   34.3730 H   0  0  0  0  0  0  0  0  0  0  0  0
   40.1670   26.6120   34.8620 C   0  0  0  0  0  0  0  0  0  0  0  0
   40.8860   27.2380   34.3430 H   0  0  0  0  0  0  0  0  0  0  0  0
   39.1580   27.3280   35.5020 C   0  0  0  0  0  3  0  0  0  0  0  0
   38.1620   26.6450   36.2110 C   0  0  0  0  0  3  0  0  0  0  0  0
   37.9560   22.5300   33.7800 C   0  0  0  0  0  3  0  0  0  0  0  0
   38.4220   22.2480   34.9800 C   0  0  0  0  0  3  0  0  0  0  0  0
   35.5190   21.3910   31.2200 C   0  0  0  0  0  0  0  0  0  0  0  0
   36.5250   22.0990   31.8650 C   0  0  0  0  0  0  0  0  0  0  0  0
   36.8940   21.7910   33.1600 C   0  0  0  0  0  0  0  0  0  0  0  0
   36.2410   20.7800   33.7700 N   0  0  0  0  0  0  0  0  0  0  0  0
   35.2730   20.1120   33.1280 C   0  0  0  0  0  0  0  0  0  0  0  0
   34.9100   20.4060   31.8700 N   0  0  0  0  0  0  0  0  0  0  0  0
   35.2190   21.6170   30.2080 H   0  0  0  0  0  0  0  0  0  0  0  0
   36.9650   22.8940   31.2340 H   0  0  0  0  0  0  0  0  0  0  0  0
   34.7960   19.3170   33.6860 H   0  0  0  0  0  0  0  0  0  0  0  0
   40.0200   22.3700   37.1170 S   0  0  0  0  0  0  0  0  0  0  0  0
   41.7160   21.8230   36.9860 C   0  0  0  0  0  0  0  0  0  0  0  0
   42.6290   22.8770   36.9280 F   0  0  0  0  0  0  0  0  0  0  0  0
   42.0430   20.9050   37.9570 F   0  0  0  0  0  0  0  0  0  0  0  0
   41.8190   21.1410   35.7440 F   0  0  0  0  0  0  0  0  0  0  0  0
  1  2  1  6  0  0  0
  1  5  1  0  0  0  0
  1 23  1  0  0  0  0
  4  3  1  0  0  0  0
  5  4  2  0  0  0  0
  6  5  1  0  0  0  0
  7  6  1  0  0  0  0
  8  6  2  0  0  0  0
  8 10  1  0  0  0  0
  9  8  1  0  0  0  0
 10 11  2  0  0  0  0
 11  4  1  0  0  0  0
 12 13  2  0  0  0  0
 13  1  1  0  0  0  0
 14 15  2  0  0  0  0
 14 19  1  0  0  0  0
 15 16  1  0  0  0  0
 16 17  2  0  0  0  0
 16 12  1  0  0  0  0
 18 22  1  0  0  0  0
 18 17  1  0  0  0  0
 19 18  2  0  0  0  0
 20 14  1  0  0  0  0
 21 15  1  0  0  0  0
 24 23  1  0  0  0  0
 24 26  1  0  0  0  0
 25 24  1  0  0  0  0
 27 24  1  0  0  0  0
M  END
>  <minimizedAffinity>
-5.28636599

$$$$

 OpenBabel03272502323D

 27 28  0  0  1  0  0  0  0  0999 V2000
   38.1980   23.8640   34.9340 C   0  0  2  0  0  0  0  0  0  0  0  0
   37.2510   23.9640   35.6290 H   0  0  0  0  0  0  0  0  0  0  0  0
   38.2170   22.8880   37.6570 F   0  0  0  0  0  0  0  0  0  0  0  0
   39.4250   22.9460   37.0180 C   0  0  0  0  0  0  0  0  0  0  0  0
   39.2890   23.4300   35.7390 C   0  0  0  0  0  0  0  0  0  0  0  0
   40.4530   23.5410   34.9890 C   0  0  0  0  0  0  0  0  0  0  0  0
   40.6140   23.8950   33.9580 H   0  0  0  0  0  0  0  0  0  0  0  0
   41.7120   23.1830   35.4950 C   0  0  0  0  0  0  0  0  0  0  0  0
   42.6670   23.2360   34.9820 H   0  0  0  0  0  0  0  0  0  0  0  0
   41.8010   22.6970   36.7980 C   0  0  0  0  0  3  0  0  0  0  0  0
   40.6430   22.5750   37.5750 C   0  0  0  0  0  3  0  0  0  0  0  0
   37.1720   21.8680   34.1050 C   0  0  0  0  0  3  0  0  0  0  0  0
   37.7920   22.9950   33.8150 C   0  0  0  0  0  3  0  0  0  0  0  0
   35.1980   19.2540   32.3570 C   0  0  0  0  0  0  0  0  0  0  0  0
   35.6290   20.1710   33.3080 C   0  0  0  0  0  0  0  0  0  0  0  0
   36.7760   20.9140   33.1100 C   0  0  0  0  0  0  0  0  0  0  0  0
   37.4580   20.7140   31.9640 N   0  0  0  0  0  0  0  0  0  0  0  0
   37.0240   19.8240   31.0610 C   0  0  0  0  0  0  0  0  0  0  0  0
   35.9100   19.0990   31.2460 N   0  0  0  0  0  0  0  0  0  0  0  0
   34.3030   18.6660   32.4930 H   0  0  0  0  0  0  0  0  0  0  0  0
   34.9630   20.2210   34.1890 H   0  0  0  0  0  0  0  0  0  0  0  0
   37.6280   19.7200   30.1690 H   0  0  0  0  0  0  0  0  0  0  0  0
   38.4360   25.5500   34.2460 S   0  0  0  0  0  0  0  0  0  0  0  0
   38.5350   26.7440   35.5720 C   0  0  0  0  0  0  0  0  0  0  0  0
   37.7910   27.8990   35.3240 F   0  0  0  0  0  0  0  0  0  0  0  0
   38.2410   26.1890   36.7960 F   0  0  0  0  0  0  0  0  0  0  0  0
   39.8930   27.1550   35.6370 F   0  0  0  0  0  0  0  0  0  0  0  0
  1  2  1  1  0  0  0
  1  5  1  0  0  0  0
  4 11  1  0  0  0  0
  4  3  1  0  0  0  0
  5  4  2  0  0  0  0
  6  8  2  0  0  0  0
  6  5  1  0  0  0  0
  7  6  1  0  0  0  0
  8 10  1  0  0  0  0
  9  8  1  0  0  0  0
 10 11  2  0  0  0  0
 13 12  2  0  0  0  0
 13  1  1  0  0  0  0
 14 20  1  0  0  0  0
 14 15  1  0  0  0  0
 15 21  1  0  0  0  0
 16 15  2  0  0  0  0
 16 12  1  0  0  0  0
 17 16  1  0  0  0  0
 18 19  1  0  0  0  0
 18 17  2  0  0  0  0
 19 14  2  0  0  0  0
 22 18  1  0  0  0  0
 23  1  1  0  0  0  0
 23 24  1  0  0  0  0
 24 27  1  0  0  0  0
 24 26  1  0  0  0  0
 25 24  1  0  0  0  0
M  END
>  <minimizedAffinity>
-5.15340519

$$$$

 OpenBabel03272502323D

 27 28  0  0  1  0  0  0  0  0999 V2000
   38.4190   24.4330   34.3970 C   0  0  2  0  0  0  0  0  0  0  0  0
   37.5790   25.2470   34.5380 H   0  0  0  0  0  0  0  0  0  0  0  0
   40.5520   22.6370   35.1710 F   0  0  0  0  0  0  0  0  0  0  0  0
   39.7590   23.1160   36.1770 C   0  0  0  0  0  0  0  0  0  0  0  0
   38.7810   23.9500   35.6870 C   0  0  0  0  0  0  0  0  0  0  0  0
   37.9050   24.4950   36.6170 C   0  0  0  0  0  0  0  0  0  0  0  0
   37.0510   25.1790   36.4860 H   0  0  0  0  0  0  0  0  0  0  0  0
   37.9980   24.2210   37.9900 C   0  0  0  0  0  0  0  0  0  0  0  0
   37.3610   24.6010   38.7810 H   0  0  0  0  0  0  0  0  0  0  0  0
   39.0050   23.3700   38.4400 C   0  0  0  0  0  3  0  0  0  0  0  0
   39.9020   22.8060   37.5240 C   0  0  0  0  0  3  0  0  0  0  0  0
   37.4120   22.3190   33.9080 C   0  0  0  0  0  3  0  0  0  0  0  0
   37.8800   23.4560   33.4340 C   0  0  0  0  0  3  0  0  0  0  0  0
   35.0250   20.0820   32.1500 C   0  0  0  0  0  0  0  0  0  0  0  0
   35.5480   21.0730   32.9710 C   0  0  0  0  0  0  0  0  0  0  0  0
   36.9120   21.2670   33.0690 C   0  0  0  0  0  0  0  0  0  0  0  0
   37.7110   20.4600   32.3400 N   0  0  0  0  0  0  0  0  0  0  0  0
   37.1830   19.5110   31.5560 C   0  0  0  0  0  0  0  0  0  0  0  0
   35.8590   19.3170   31.4550 N   0  0  0  0  0  0  0  0  0  0  0  0
   33.9620   19.9170   32.0600 H   0  0  0  0  0  0  0  0  0  0  0  0
   34.7690   21.6510   33.4990 H   0  0  0  0  0  0  0  0  0  0  0  0
   37.8900   18.9030   31.0060 H   0  0  0  0  0  0  0  0  0  0  0  0
   39.7820   25.3270   33.5530 S   0  0  0  0  0  0  0  0  0  0  0  0
   40.5880   26.4370   34.6980 C   0  0  0  0  0  0  0  0  0  0  0  0
   39.6930   27.0980   35.5410 F   0  0  0  0  0  0  0  0  0  0  0  0
   41.6010   25.8210   35.3950 F   0  0  0  0  0  0  0  0  0  0  0  0
   41.2050   27.4440   33.9080 F   0  0  0  0  0  0  0  0  0  0  0  0
  1  2  1  1  0  0  0
  1  5  1  0  0  0  0
  3  4  1  0  0  0  0
  4 11  1  0  0  0  0
  5  4  2  0  0  0  0
  5  6  1  0  0  0  0
  6  8  2  0  0  0  0
  7  6  1  0  0  0  0
  8 10  1  0  0  0  0
  8  9  1  0  0  0  0
 11 10  2  0  0  0  0
 13 12  2  0  0  0  0
 13  1  1  0  0  0  0
 14 15  1  0  0  0  0
 15 16  2  0  0  0  0
 15 21  1  0  0  0  0
 16 12  1  0  0  0  0
 17 16  1  0  0  0  0
 18 17  2  0  0  0  0
 19 18  1  0  0  0  0
 19 14  2  0  0  0  0
 20 14  1  0  0  0  0
 22 18  1  0  0  0  0
 23  1  1  0  0  0  0
 23 24  1  0  0  0  0
 24 26  1  0  0  0  0
 24 25  1  0  0  0  0
 27 24  1  0  0  0  0
M  END
>  <minimizedAffinity>
-5.14298725

$$$$

 OpenBabel03272502323D

 27 28  0  0  1  0  0  0  0  0999 V2000
   36.8410   27.8780   32.4810 C   0  0  2  0  0  0  0  0  0  0  0  0
   37.9990   27.9940   32.6630 H   0  0  0  0  0  0  0  0  0  0  0  0
   38.2340   25.4870   33.3250 F   0  0  0  0  0  0  0  0  0  0  0  0
   37.1520   25.3100   32.5070 C   0  0  0  0  0  0  0  0  0  0  0  0
   36.5800   26.5130   32.1700 C   0  0  0  0  0  0  0  0  0  0  0  0
   35.4720   26.4630   31.3330 C   0  0  0  0  0  0  0  0  0  0  0  0
   34.8440   27.2690   30.9220 H   0  0  0  0  0  0  0  0  0  0  0  0
   34.9500   25.2540   30.8480 C   0  0  0  0  0  0  0  0  0  0  0  0
   34.0930   25.1230   30.1960 H   0  0  0  0  0  0  0  0  0  0  0  0
   35.5630   24.0590   31.2170 C   0  0  0  0  0  3  0  0  0  0  0  0
   36.6820   24.0810   32.0590 C   0  0  0  0  0  3  0  0  0  0  0  0
   35.6620   29.6450   33.5820 C   0  0  0  0  0  3  0  0  0  0  0  0
   36.1840   28.4380   33.6760 C   0  0  0  0  0  3  0  0  0  0  0  0
   35.2490   31.8370   36.5510 C   0  0  0  0  0  0  0  0  0  0  0  0
   35.8130   31.1460   35.4860 C   0  0  0  0  0  0  0  0  0  0  0  0
   35.0460   30.3200   34.6880 C   0  0  0  0  0  0  0  0  0  0  0  0
   33.7340   30.2100   34.9840 N   0  0  0  0  0  0  0  0  0  0  0  0
   33.2120   30.8860   36.0170 C   0  0  0  0  0  0  0  0  0  0  0  0
   33.9510   31.6910   36.7960 N   0  0  0  0  0  0  0  0  0  0  0  0
   35.8320   32.4880   37.1840 H   0  0  0  0  0  0  0  0  0  0  0  0
   36.8950   31.3410   35.3710 H   0  0  0  0  0  0  0  0  0  0  0  0
   32.1530   30.7430   36.1900 H   0  0  0  0  0  0  0  0  0  0  0  0
   36.4840   29.0160   31.0860 S   0  0  0  0  0  0  0  0  0  0  0  0
   37.8300   28.9850   29.9100 C   0  0  0  0  0  0  0  0  0  0  0  0
   38.4220   30.2360   29.7240 F   0  0  0  0  0  0  0  0  0  0  0  0
   38.7540   28.0100   30.2030 F   0  0  0  0  0  0  0  0  0  0  0  0
   37.2570   28.6290   28.6600 F   0  0  0  0  0  0  0  0  0  0  0  0
  1  2  1  1  0  0  0
  1 13  1  0  0  0  0
  4  3  1  0  0  0  0
  5  1  1  0  0  0  0
  5  4  1  0  0  0  0
  6  5  2  0  0  0  0
  7  6  1  0  0  0  0
  8 10  2  0  0  0  0
  8  6  1  0  0  0  0
  9  8  1  0  0  0  0
 10 11  1  0  0  0  0
 11  4  2  0  0  0  0
 12 13  2  0  0  0  0
 12 16  1  0  0  0  0
 14 19  1  0  0  0  0
 14 20  1  0  0  0  0
 15 14  2  0  0  0  0
 16 17  2  0  0  0  0
 16 15  1  0  0  0  0
 17 18  1  0  0  0  0
 18 22  1  0  0  0  0
 18 19  2  0  0  0  0
 21 15  1  0  0  0  0
 23  1  1  0  0  0  0
 24 26  1  0  0  0  0
 24 23  1  0  0  0  0
 25 24  1  0  0  0  0
 27 24  1  0  0  0  0
M  END
>  <minimizedAffinity>
-5.03727102

$$$$

 OpenBabel03272502323D

 27 28  0  0  1  0  0  0  0  0999 V2000
   38.8390   23.6560   35.6530 C   0  0  2  0  0  0  0  0  0  0  0  0
   38.2170   22.6660   35.7980 H   0  0  0  0  0  0  0  0  0  0  0  0
   41.1990   25.2390   35.1080 F   0  0  0  0  0  0  0  0  0  0  0  0
   41.4040   23.9990   35.6470 C   0  0  0  0  0  0  0  0  0  0  0  0
   40.2140   23.3430   35.8540 C   0  0  0  0  0  0  0  0  0  0  0  0
   40.2940   22.0650   36.3940 C   0  0  0  0  0  0  0  0  0  0  0  0
   39.5030   21.3420   36.6500 H   0  0  0  0  0  0  0  0  0  0  0  0
   41.5170   21.4600   36.7180 C   0  0  0  0  0  0  0  0  0  0  0  0
   41.6710   20.4730   37.1410 H   0  0  0  0  0  0  0  0  0  0  0  0
   42.6980   22.1640   36.4900 C   0  0  0  0  0  3  0  0  0  0  0  0
   42.6460   23.4530   35.9470 C   0  0  0  0  0  3  0  0  0  0  0  0
   37.9260   25.3980   34.2920 C   0  0  0  0  0  3  0  0  0  0  0  0
   38.4510   24.1910   34.3350 C   0  0  0  0  0  3  0  0  0  0  0  0
   36.1370   25.8480   31.0690 C   0  0  0  0  0  0  0  0  0  0  0  0
   36.6310   25.2860   32.2400 C   0  0  0  0  0  0  0  0  0  0  0  0
   37.4580   26.0060   33.0800 C   0  0  0  0  0  0  0  0  0  0  0  0
   37.7660   27.2690   32.7190 N   0  0  0  0  0  0  0  0  0  0  0  0
   37.2780   27.7890   31.5840 C   0  0  0  0  0  0  0  0  0  0  0  0
   36.4740   27.0960   30.7630 N   0  0  0  0  0  0  0  0  0  0  0  0
   35.4880   25.3010   30.4020 H   0  0  0  0  0  0  0  0  0  0  0  0
   36.2880   24.2480   32.3980 H   0  0  0  0  0  0  0  0  0  0  0  0
   37.5740   28.8070   31.3640 H   0  0  0  0  0  0  0  0  0  0  0  0
   38.1690   24.8040   36.9190 S   0  0  0  0  0  0  0  0  0  0  0  0
   38.0520   23.9740   38.4980 C   0  0  0  0  0  0  0  0  0  0  0  0
   37.2410   22.8380   38.4600 F   0  0  0  0  0  0  0  0  0  0  0  0
   39.2880   23.7120   39.0410 F   0  0  0  0  0  0  0  0  0  0  0  0
   37.4150   24.8860   39.3810 F   0  0  0  0  0  0  0  0  0  0  0  0
  1  2  1  1  0  0  0
  1  5  1  0  0  0  0
  1 23  1  0  0  0  0
  3  4  1  0  0  0  0
  4  5  2  0  0  0  0
  4 11  1  0  0  0  0
  5  6  1  0  0  0  0
  6  7  1  0  0  0  0
  6  8  2  0  0  0  0
  8  9  1  0  0  0  0
 10  8  1  0  0  0  0
 11 10  2  0  0  0  0
 12 13  2  0  0  0  0
 13  1  1  0  0  0  0
 14 15  1  0  0  0  0
 15 21  1  0  0  0  0
 15 16  2  0  0  0  0
 16 12  1  0  0  0  0
 17 16  1  0  0  0  0
 18 17  2  0  0  0  0
 19 14  2  0  0  0  0
 19 18  1  0  0  0  0
 20 14  1  0  0  0  0
 22 18  1  0  0  0  0
 23 24  1  0  0  0  0
 24 26  1  0  0  0  0
 24 27  1  0  0  0  0
 25 24  1  0  0  0  0
M  END
>  <minimizedAffinity>
-5.03445673

$$$$

 OpenBabel03272502323D

 27 28  0  0  1  0  0  0  0  0999 V2000
   34.9460   29.9640   34.0660 C   0  0  2  0  0  0  0  0  0  0  0  0
   34.3660   29.6930   35.0560 H   0  0  0  0  0  0  0  0  0  0  0  0
   35.6890   31.2920   36.5270 F   0  0  0  0  0  0  0  0  0  0  0  0
   35.9990   31.9400   35.3620 C   0  0  0  0  0  0  0  0  0  0  0  0
   35.5920   31.2170   34.2670 C   0  0  0  0  0  0  0  0  0  0  0  0
   35.8470   31.7780   33.0220 C   0  0  0  0  0  0  0  0  0  0  0  0
   35.6250   31.4090   32.0070 H   0  0  0  0  0  0  0  0  0  0  0  0
   36.4860   33.0180   32.8710 C   0  0  0  0  0  0  0  0  0  0  0  0
   36.7240   33.5270   31.9430 H   0  0  0  0  0  0  0  0  0  0  0  0
   36.8810   33.7150   34.0110 C   0  0  0  0  0  3  0  0  0  0  0  0
   36.6360   33.1730   35.2780 C   0  0  0  0  0  3  0  0  0  0  0  0
   36.5130   28.2900   34.7460 C   0  0  0  0  0  3  0  0  0  0  0  0
   35.8000   28.8010   33.7630 C   0  0  0  0  0  3  0  0  0  0  0  0
   39.5250   26.1480   35.1090 C   0  0  0  0  0  0  0  0  0  0  0  0
   38.6290   27.2020   35.2380 C   0  0  0  0  0  0  0  0  0  0  0  0
   37.4230   27.1940   34.5650 C   0  0  0  0  0  0  0  0  0  0  0  0
   37.1510   26.1290   33.7830 N   0  0  0  0  0  0  0  0  0  0  0  0
   38.0320   25.1250   33.6740 C   0  0  0  0  0  0  0  0  0  0  0  0
   39.2060   25.1250   34.3240 N   0  0  0  0  0  0  0  0  0  0  0  0
   40.4720   26.1360   35.6280 H   0  0  0  0  0  0  0  0  0  0  0  0
   38.9920   27.9960   35.9150 H   0  0  0  0  0  0  0  0  0  0  0  0
   37.7420   24.3090   33.0250 H   0  0  0  0  0  0  0  0  0  0  0  0
   33.6410   30.0240   32.7770 S   0  0  0  0  0  0  0  0  0  0  0  0
   32.1440   29.2580   33.3830 C   0  0  0  0  0  0  0  0  0  0  0  0
   32.2270   28.8820   34.7250 F   0  0  0  0  0  0  0  0  0  0  0  0
   31.0280   30.0190   33.1240 F   0  0  0  0  0  0  0  0  0  0  0  0
   31.9850   28.0550   32.6430 F   0  0  0  0  0  0  0  0  0  0  0  0
  1  5  1  0  0  0  0
  1  2  1  1  0  0  0
  4  3  1  0  0  0  0
  5  4  2  0  0  0  0
  6  5  1  0  0  0  0
  7  6  1  0  0  0  0
  8  6  2  0  0  0  0
  8 10  1  0  0  0  0
  9  8  1  0  0  0  0
 10 11  2  0  0  0  0
 11  4  1  0  0  0  0
 13  1  1  0  0  0  0
 13 12  2  0  0  0  0
 14 15  1  0  0  0  0
 14 20  1  0  0  0  0
 15 21  1  0  0  0  0
 16 12  1  0  0  0  0
 16 15  2  0  0  0  0
 17 16  1  0  0  0  0
 18 17  2  0  0  0  0
 18 19  1  0  0  0  0
 19 14  2  0  0  0  0
 22 18  1  0  0  0  0
 23 24  1  0  0  0  0
 23  1  1  0  0  0  0
 24 25  1  0  0  0  0
 26 24  1  0  0  0  0
 27 24  1  0  0  0  0
M  END
>  <minimizedAffinity>
-5.01478577

$$$$
