
 OpenBabel03272504193D

 27 28  0  0  0  0  0  0  0  0999 V2000
   38.0010   29.9570   48.9460 O   0  0  0  0  0  0  0  0  0  0  0  0
   37.3310   30.7520   50.0280 P   0  0  2  0  0  0  0  0  0  0  0  0
   38.1050   30.3530   51.5080 O   0  0  0  0  0  0  0  0  0  0  0  0
   37.5290   30.6100   52.2700 H   0  0  0  0  0  0  0  0  0  0  0  0
   35.7030   30.3110   50.1470 O   0  0  0  0  0  0  0  0  0  0  0  0
   35.5820   28.9890   49.8120 C   0  0  0  0  0  0  0  0  0  0  0  0
   36.5410   28.4580   49.6650 H   0  0  0  0  0  0  0  0  0  0  0  0
   35.1080   28.4750   50.6970 H   0  0  0  0  0  0  0  0  0  0  0  0
   34.6350   28.7500   48.6930 C   0  0  0  0  0  0  0  0  0  0  0  0
   34.3320   29.8360   47.8620 C   0  0  0  0  0  0  0  0  0  0  0  0
   33.4430   29.6360   46.8010 C   0  0  0  0  0  0  0  0  0  0  0  0
   32.9180   28.3890   46.6360 N   0  0  0  0  0  0  0  0  0  0  0  0
   33.2340   27.3650   47.4580 C   0  0  0  0  0  0  0  0  0  0  0  0
   34.0820   27.5400   48.4760 N   0  0  0  0  0  0  0  0  0  0  0  0
   34.7530   30.8290   47.9990 H   0  0  0  0  0  0  0  0  0  0  0  0
   33.1990   30.4670   46.1500 H   0  0  0  0  0  0  0  0  0  0  0  0
   32.7790   26.3880   47.2710 H   0  0  0  0  0  0  0  0  0  0  0  0
   37.4810   32.3990   49.7080 O   0  0  0  0  0  0  0  0  0  0  0  0
   39.4430   34.3560   50.1940 F   0  0  0  0  0  0  0  0  0  0  0  0
   39.3960   33.8480   48.9610 C   0  0  0  0  0  0  0  0  0  0  0  0
   38.4090   32.8980   48.8040 C   0  0  0  0  0  0  0  0  0  0  0  0
   38.2350   32.2740   47.5660 C   0  0  0  0  0  0  0  0  0  0  0  0
   37.5100   31.5170   47.2970 H   0  0  0  0  0  0  0  0  0  0  0  0
   39.0520   32.6030   46.4790 C   0  0  0  0  0  0  0  0  0  0  0  0
   38.9680   32.1600   45.5020 H   0  0  0  0  0  0  0  0  0  0  0  0
   40.0340   33.5650   46.6760 C   0  0  0  0  0  3  0  0  0  0  0  0
   40.1990   34.1750   47.8970 C   0  0  0  0  0  3  0  0  0  0  0  0
  2  1  2  6  0  0  0
  2  5  1  0  0  0  0
  2  3  1  0  0  0  0
  3  4  1  0  0  0  0
  6  5  1  0  0  0  0
  6  8  1  0  0  0  0
  7  6  1  0  0  0  0
  9  6  1  0  0  0  0
 10 15  1  0  0  0  0
 10  9  2  0  0  0  0
 11 10  1  0  0  0  0
 12 11  2  0  0  0  0
 12 13  1  0  0  0  0
 13 14  2  0  0  0  0
 14  9  1  0  0  0  0
 16 11  1  0  0  0  0
 17 13  1  0  0  0  0
 18  2  1  0  0  0  0
 20 19  1  0  0  0  0
 21 20  1  0  0  0  0
 21 18  1  0  0  0  0
 22 21  2  0  0  0  0
 23 22  1  0  0  0  0
 24 26  2  0  0  0  0
 24 22  1  0  0  0  0
 25 24  1  0  0  0  0
 26 27  1  0  0  0  0
 27 20  2  0  0  0  0
M  END
>  <minimizedAffinity>
-5.21005297

>  <minimizedRMSD>
1.80034518

$$$$
