
 OpenBabel03262520223D

 23 24  0  0  0  0  0  0  0  0999 V2000
   40.6610   23.8760   35.5160 C   0  0  0  0  0  0  0  0  0  0  0  0
   39.4670   24.2210   36.1910 C   0  0  0  0  0  0  0  0  0  0  0  0
   39.0580   23.4820   37.2920 C   0  0  0  0  0  0  0  0  0  0  0  0
   39.8590   22.4440   37.6590 N   0  0  0  0  0  0  0  0  0  0  0  0
   40.9910   22.1150   37.0220 C   0  0  0  0  0  0  0  0  0  0  0  0
   41.3740   22.8390   35.9580 N   0  0  0  0  0  0  0  0  0  0  0  0
   41.6890   20.9910   37.5650 N   0  0  0  0  0  0  0  0  0  0  0  0
   41.0120   24.4280   34.6530 H   0  0  0  0  0  0  0  0  0  0  0  0
   42.2070   20.2740   36.9980 H   0  0  0  0  0  0  0  0  0  0  0  0
   41.7140   20.8300   38.5960 H   0  0  0  0  0  0  0  0  0  0  0  0
   38.0170   23.7870   33.9230 F   0  0  0  0  0  0  0  0  0  0  0  0
   38.0510   25.0280   34.4930 C   0  0  0  0  0  0  0  0  0  0  0  0
   38.7550   25.3580   35.6430 C   0  0  0  0  0  0  0  0  0  0  0  0
   38.6940   26.6760   36.1110 C   0  0  0  0  0  0  0  0  0  0  0  0
   39.2760   26.8190   37.0050 H   0  0  0  0  0  0  0  0  0  0  0  0
   37.9400   27.5980   35.4140 C   0  0  0  0  0  0  0  0  0  0  0  0
   37.9370   28.6040   35.8340 H   0  0  0  0  0  0  0  0  0  0  0  0
   37.2470   27.2500   34.2730 C   0  0  0  0  0  3  0  0  0  0  0  0
   37.2980   25.9550   33.8010 C   0  0  0  0  0  3  0  0  0  0  0  0
   37.8090   23.8650   37.9790 C   0  0  0  0  0  0  0  0  0  0  0  0
   38.0680   24.9540   38.7340 F   0  0  0  0  0  0  0  0  0  0  0  0
   36.7770   24.1020   37.1010 F   0  0  0  0  0  0  0  0  0  0  0  0
   37.3810   22.8400   38.8500 F   0  0  0  0  0  0  0  0  0  0  0  0
  1  6  2  0  0  0  0
  1  2  1  0  0  0  0
  2  3  2  0  0  0  0
  3  4  1  0  0  0  0
  3 20  1  0  0  0  0
  5  7  1  0  0  0  0
  5  4  2  0  0  0  0
  6  5  1  0  0  0  0
  7 10  1  0  0  0  0
  8  1  1  0  0  0  0
  9  7  1  0  0  0  0
 11 12  1  0  0  0  0
 12 13  1  0  0  0  0
 13 14  2  0  0  0  0
 13  2  1  0  0  0  0
 14 15  1  0  0  0  0
 16 17  1  0  0  0  0
 16 14  1  0  0  0  0
 18 16  2  0  0  0  0
 19 18  1  0  0  0  0
 19 12  2  0  0  0  0
 20 21  1  0  0  0  0
 20 23  1  0  0  0  0
 22 20  1  0  0  0  0
M  END
>  <minimizedAffinity>
-5.82060719

$$$$

 OpenBabel03262520223D

 23 24  0  0  0  0  0  0  0  0999 V2000
   37.9880   23.8310   36.3730 C   0  0  0  0  0  0  0  0  0  0  0  0
   38.7870   24.6460   35.5370 C   0  0  0  0  0  0  0  0  0  0  0  0
   40.1590   24.4480   35.4870 C   0  0  0  0  0  0  0  0  0  0  0  0
   40.6590   23.4520   36.2690 N   0  0  0  0  0  0  0  0  0  0  0  0
   39.9050   22.6780   37.0620 C   0  0  0  0  0  0  0  0  0  0  0  0
   38.5780   22.8820   37.1010 N   0  0  0  0  0  0  0  0  0  0  0  0
   40.6220   21.6880   37.8040 N   0  0  0  0  0  0  0  0  0  0  0  0
   36.9150   23.9560   36.4390 H   0  0  0  0  0  0  0  0  0  0  0  0
   40.3920   21.3870   38.7840 H   0  0  0  0  0  0  0  0  0  0  0  0
   41.4430   21.2000   37.3810 H   0  0  0  0  0  0  0  0  0  0  0  0
   38.3380   27.0280   36.7860 F   0  0  0  0  0  0  0  0  0  0  0  0
   37.8920   26.8230   35.5110 C   0  0  0  0  0  0  0  0  0  0  0  0
   38.0650   25.6530   34.7860 C   0  0  0  0  0  0  0  0  0  0  0  0
   37.5510   25.5890   33.4850 C   0  0  0  0  0  0  0  0  0  0  0  0
   37.7410   24.6390   33.0160 H   0  0  0  0  0  0  0  0  0  0  0  0
   36.8920   26.6880   32.9720 C   0  0  0  0  0  0  0  0  0  0  0  0
   36.5180   26.5700   31.9550 H   0  0  0  0  0  0  0  0  0  0  0  0
   36.7310   27.8430   33.7100 C   0  0  0  0  0  3  0  0  0  0  0  0
   37.2330   27.9190   34.9930 C   0  0  0  0  0  3  0  0  0  0  0  0
   40.9690   25.3110   34.6050 C   0  0  0  0  0  0  0  0  0  0  0  0
   42.2630   24.9530   34.7480 F   0  0  0  0  0  0  0  0  0  0  0  0
   40.5740   25.2370   33.2890 F   0  0  0  0  0  0  0  0  0  0  0  0
   40.8610   26.6650   34.9900 F   0  0  0  0  0  0  0  0  0  0  0  0
  1  8  1  0  0  0  0
  1  6  1  0  0  0  0
  2  1  2  0  0  0  0
  3  2  1  0  0  0  0
  3  4  2  0  0  0  0
  4  5  1  0  0  0  0
  5  6  2  0  0  0  0
  5  7  1  0  0  0  0
  7  9  1  0  0  0  0
 10  7  1  0  0  0  0
 12 11  1  0  0  0  0
 13 12  2  0  0  0  0
 13  2  1  0  0  0  0
 14 13  1  0  0  0  0
 15 14  1  0  0  0  0
 16 14  2  0  0  0  0
 16 18  1  0  0  0  0
 17 16  1  0  0  0  0
 18 19  2  0  0  0  0
 19 12  1  0  0  0  0
 20 21  1  0  0  0  0
 20 23  1  0  0  0  0
 20  3  1  0  0  0  0
 22 20  1  0  0  0  0
M  END
>  <minimizedAffinity>
-5.35180283

$$$$

 OpenBabel03262520223D

 23 24  0  0  0  0  0  0  0  0999 V2000
   37.9490   23.9880   33.4390 C   0  0  0  0  0  0  0  0  0  0  0  0
   38.4470   24.7920   34.4920 C   0  0  0  0  0  0  0  0  0  0  0  0
   38.0720   26.1240   34.5790 C   0  0  0  0  0  0  0  0  0  0  0  0
   37.2250   26.5820   33.6160 N   0  0  0  0  0  0  0  0  0  0  0  0
   36.7510   25.8240   32.6180 C   0  0  0  0  0  0  0  0  0  0  0  0
   37.1230   24.5350   32.5460 N   0  0  0  0  0  0  0  0  0  0  0  0
   35.8730   26.4940   31.7100 N   0  0  0  0  0  0  0  0  0  0  0  0
   38.2190   22.9440   33.3370 H   0  0  0  0  0  0  0  0  0  0  0  0
   35.8340   26.3210   30.6740 H   0  0  0  0  0  0  0  0  0  0  0  0
   35.2030   27.2160   32.0560 H   0  0  0  0  0  0  0  0  0  0  0  0
   37.3020   23.5760   36.6470 F   0  0  0  0  0  0  0  0  0  0  0  0
   38.6560   23.5340   36.4690 C   0  0  0  0  0  0  0  0  0  0  0  0
   39.3390   24.1170   35.4120 C   0  0  0  0  0  0  0  0  0  0  0  0
   40.7320   23.9890   35.3630 C   0  0  0  0  0  0  0  0  0  0  0  0
   41.1580   24.4790   34.5040 H   0  0  0  0  0  0  0  0  0  0  0  0
   41.3750   23.2900   36.3650 C   0  0  0  0  0  0  0  0  0  0  0  0
   42.4590   23.2300   36.2640 H   0  0  0  0  0  0  0  0  0  0  0  0
   40.6770   22.7170   37.4070 C   0  0  0  0  0  3  0  0  0  0  0  0
   39.3040   22.8350   37.4690 C   0  0  0  0  0  3  0  0  0  0  0  0
   38.6040   26.9400   35.6880 C   0  0  0  0  0  0  0  0  0  0  0  0
   38.0840   28.1810   35.5780 F   0  0  0  0  0  0  0  0  0  0  0  0
   38.3330   26.3930   36.9210 F   0  0  0  0  0  0  0  0  0  0  0  0
   40.0070   27.0620   35.5930 F   0  0  0  0  0  0  0  0  0  0  0  0
  1  2  1  0  0  0  0
  2  3  2  0  0  0  0
  2 13  1  0  0  0  0
  3 20  1  0  0  0  0
  4  3  1  0  0  0  0
  5  4  2  0  0  0  0
  6  5  1  0  0  0  0
  6  1  2  0  0  0  0
  7 10  1  0  0  0  0
  7  5  1  0  0  0  0
  8  1  1  0  0  0  0
  9  7  1  0  0  0  0
 12 11  1  0  0  0  0
 12 19  1  0  0  0  0
 13 12  2  0  0  0  0
 14 13  1  0  0  0  0
 14 16  2  0  0  0  0
 15 14  1  0  0  0  0
 16 18  1  0  0  0  0
 17 16  1  0  0  0  0
 18 19  2  0  0  0  0
 20 22  1  0  0  0  0
 21 20  1  0  0  0  0
 23 20  1  0  0  0  0
M  END
>  <minimizedAffinity>
-5.24901962

$$$$

 OpenBabel03262520223D

 23 24  0  0  0  0  0  0  0  0999 V2000
   37.7730   24.0310   33.4610 C   0  0  0  0  0  0  0  0  0  0  0  0
   38.2290   24.8150   34.5470 C   0  0  0  0  0  0  0  0  0  0  0  0
   37.9370   26.1700   34.5900 C   0  0  0  0  0  0  0  0  0  0  0  0
   37.2100   26.6700   33.5540 N   0  0  0  0  0  0  0  0  0  0  0  0
   36.7760   25.9310   32.5240 C   0  0  0  0  0  0  0  0  0  0  0  0
   37.0660   24.6200   32.4940 N   0  0  0  0  0  0  0  0  0  0  0  0
   36.0270   26.6440   31.5360 N   0  0  0  0  0  0  0  0  0  0  0  0
   37.9810   22.9710   33.3910 H   0  0  0  0  0  0  0  0  0  0  0  0
   36.0670   26.4610   30.5030 H   0  0  0  0  0  0  0  0  0  0  0  0
   35.3790   27.4140   31.8160 H   0  0  0  0  0  0  0  0  0  0  0  0
   40.9110   24.5760   34.1160 F   0  0  0  0  0  0  0  0  0  0  0  0
   40.3400   24.0340   35.2330 C   0  0  0  0  0  0  0  0  0  0  0  0
   38.9910   24.0960   35.5480 C   0  0  0  0  0  0  0  0  0  0  0  0
   38.5510   23.4920   36.7320 C   0  0  0  0  0  0  0  0  0  0  0  0
   37.4900   23.6000   36.8760 H   0  0  0  0  0  0  0  0  0  0  0  0
   39.4720   22.8580   37.5410 C   0  0  0  0  0  0  0  0  0  0  0  0
   39.0610   22.4090   38.4460 H   0  0  0  0  0  0  0  0  0  0  0  0
   40.8100   22.8070   37.2090 C   0  0  0  0  0  3  0  0  0  0  0  0
   41.2580   23.3980   36.0450 C   0  0  0  0  0  3  0  0  0  0  0  0
   38.4240   26.9640   35.7360 C   0  0  0  0  0  0  0  0  0  0  0  0
   37.8650   28.1910   35.6580 F   0  0  0  0  0  0  0  0  0  0  0  0
   38.1490   26.3670   36.9450 F   0  0  0  0  0  0  0  0  0  0  0  0
   39.8240   27.1340   35.6710 F   0  0  0  0  0  0  0  0  0  0  0  0
  1  2  1  0  0  0  0
  2  3  2  0  0  0  0
  2 13  1  0  0  0  0
  3 20  1  0  0  0  0
  4  3  1  0  0  0  0
  5  4  2  0  0  0  0
  6  5  1  0  0  0  0
  6  1  2  0  0  0  0
  7 10  1  0  0  0  0
  7  5  1  0  0  0  0
  8  1  1  0  0  0  0
  9  7  1  0  0  0  0
 11 12  1  0  0  0  0
 12 13  2  0  0  0  0
 12 19  1  0  0  0  0
 13 14  1  0  0  0  0
 14 15  1  0  0  0  0
 14 16  2  0  0  0  0
 16 17  1  0  0  0  0
 18 16  1  0  0  0  0
 19 18  2  0  0  0  0
 20 22  1  0  0  0  0
 21 20  1  0  0  0  0
 23 20  1  0  0  0  0
M  END
>  <minimizedAffinity>
-5.16572905

$$$$

 OpenBabel03262520223D

 23 24  0  0  0  0  0  0  0  0999 V2000
   37.9590   22.7750   33.9530 C   0  0  0  0  0  0  0  0  0  0  0  0
   38.3900   23.3780   35.1590 C   0  0  0  0  0  0  0  0  0  0  0  0
   37.8560   22.9610   36.3690 C   0  0  0  0  0  0  0  0  0  0  0  0
   36.9250   21.9690   36.3130 N   0  0  0  0  0  0  0  0  0  0  0  0
   36.5140   21.3950   35.1730 C   0  0  0  0  0  0  0  0  0  0  0  0
   37.0400   21.8100   34.0090 N   0  0  0  0  0  0  0  0  0  0  0  0
   35.5290   20.3720   35.3290 N   0  0  0  0  0  0  0  0  0  0  0  0
   38.3530   23.0740   32.9900 H   0  0  0  0  0  0  0  0  0  0  0  0
   34.7330   20.1970   34.6650 H   0  0  0  0  0  0  0  0  0  0  0  0
   35.5610   19.7250   36.1490 H   0  0  0  0  0  0  0  0  0  0  0  0
   37.4710   25.9140   34.7610 F   0  0  0  0  0  0  0  0  0  0  0  0
   38.8140   25.6660   34.8090 C   0  0  0  0  0  0  0  0  0  0  0  0
   39.3870   24.4180   35.0050 C   0  0  0  0  0  0  0  0  0  0  0  0
   40.7830   24.3190   35.0310 C   0  0  0  0  0  0  0  0  0  0  0  0
   41.1180   23.3080   35.1880 H   0  0  0  0  0  0  0  0  0  0  0  0
   41.5380   25.4620   34.8610 C   0  0  0  0  0  0  0  0  0  0  0  0
   42.6170   25.3120   34.8930 H   0  0  0  0  0  0  0  0  0  0  0  0
   40.9480   26.6940   34.6690 C   0  0  0  0  0  3  0  0  0  0  0  0
   39.5730   26.8070   34.6410 C   0  0  0  0  0  3  0  0  0  0  0  0
   38.3250   23.6060   37.6110 C   0  0  0  0  0  0  0  0  0  0  0  0
   39.6290   23.2970   37.7720 F   0  0  0  0  0  0  0  0  0  0  0  0
   38.1330   24.9680   37.6020 F   0  0  0  0  0  0  0  0  0  0  0  0
   37.6310   23.1010   38.7320 F   0  0  0  0  0  0  0  0  0  0  0  0
  1  6  2  0  0  0  0
  1  2  1  0  0  0  0
  2  3  2  0  0  0  0
  3 20  1  0  0  0  0
  4  3  1  0  0  0  0
  5  7  1  0  0  0  0
  5  4  2  0  0  0  0
  6  5  1  0  0  0  0
  7 10  1  0  0  0  0
  8  1  1  0  0  0  0
  9  7  1  0  0  0  0
 11 12  1  0  0  0  0
 12 13  1  0  0  0  0
 13 14  2  0  0  0  0
 13  2  1  0  0  0  0
 14 15  1  0  0  0  0
 16 17  1  0  0  0  0
 16 14  1  0  0  0  0
 18 16  2  0  0  0  0
 19 18  1  0  0  0  0
 19 12  2  0  0  0  0
 20 21  1  0  0  0  0
 20 23  1  0  0  0  0
 22 20  1  0  0  0  0
M  END
>  <minimizedAffinity>
-5.16529465

$$$$

 OpenBabel03262520223D

 23 24  0  0  0  0  0  0  0  0999 V2000
   38.0100   23.9380   36.5080 C   0  0  0  0  0  0  0  0  0  0  0  0
   38.8060   24.7760   35.6930 C   0  0  0  0  0  0  0  0  0  0  0  0
   40.1660   24.5310   35.5710 C   0  0  0  0  0  0  0  0  0  0  0  0
   40.6570   23.4670   36.2640 N   0  0  0  0  0  0  0  0  0  0  0  0
   39.9050   22.6700   37.0360 C   0  0  0  0  0  0  0  0  0  0  0  0
   38.5910   22.9200   37.1460 N   0  0  0  0  0  0  0  0  0  0  0  0
   40.6110   21.6060   37.6810 N   0  0  0  0  0  0  0  0  0  0  0  0
   36.9460   24.0970   36.6280 H   0  0  0  0  0  0  0  0  0  0  0  0
   40.4090   21.2490   38.6480 H   0  0  0  0  0  0  0  0  0  0  0  0
   41.3940   21.1170   37.1920 H   0  0  0  0  0  0  0  0  0  0  0  0
   37.8320   24.2780   33.1960 F   0  0  0  0  0  0  0  0  0  0  0  0
   37.6420   25.4990   33.7800 C   0  0  0  0  0  0  0  0  0  0  0  0
   38.0950   25.8570   35.0410 C   0  0  0  0  0  0  0  0  0  0  0  0
   37.8230   27.1490   35.5090 C   0  0  0  0  0  0  0  0  0  0  0  0
   38.2200   27.3180   36.4950 H   0  0  0  0  0  0  0  0  0  0  0  0
   37.1180   28.0170   34.7010 C   0  0  0  0  0  0  0  0  0  0  0  0
   36.9420   29.0050   35.1270 H   0  0  0  0  0  0  0  0  0  0  0  0
   36.6750   27.6410   33.4500 C   0  0  0  0  0  3  0  0  0  0  0  0
   36.9360   26.3710   32.9760 C   0  0  0  0  0  3  0  0  0  0  0  0
   40.9730   25.4210   34.7140 C   0  0  0  0  0  0  0  0  0  0  0  0
   42.2740   25.1050   34.8960 F   0  0  0  0  0  0  0  0  0  0  0  0
   40.6220   25.3340   33.3860 F   0  0  0  0  0  0  0  0  0  0  0  0
   40.8100   26.7700   35.0950 F   0  0  0  0  0  0  0  0  0  0  0  0
  1  8  1  0  0  0  0
  1  6  1  0  0  0  0
  2  1  2  0  0  0  0
  3  2  1  0  0  0  0
  3  4  2  0  0  0  0
  4  5  1  0  0  0  0
  5  6  2  0  0  0  0
  5  7  1  0  0  0  0
  7  9  1  0  0  0  0
 10  7  1  0  0  0  0
 11 12  1  0  0  0  0
 12 13  1  0  0  0  0
 13 14  2  0  0  0  0
 13  2  1  0  0  0  0
 14 15  1  0  0  0  0
 16 17  1  0  0  0  0
 16 14  1  0  0  0  0
 18 16  2  0  0  0  0
 19 18  1  0  0  0  0
 19 12  2  0  0  0  0
 20 21  1  0  0  0  0
 20 23  1  0  0  0  0
 20  3  1  0  0  0  0
 22 20  1  0  0  0  0
M  END
>  <minimizedAffinity>
-5.15602207

$$$$

 OpenBabel03262520223D

 23 24  0  0  0  0  0  0  0  0999 V2000
   37.9270   23.9190   33.4490 C   0  0  0  0  0  0  0  0  0  0  0  0
   38.8260   24.6390   34.2700 C   0  0  0  0  0  0  0  0  0  0  0  0
   39.4630   25.7660   33.7720 C   0  0  0  0  0  0  0  0  0  0  0  0
   39.1710   26.1140   32.4890 N   0  0  0  0  0  0  0  0  0  0  0  0
   38.3190   25.4340   31.7080 C   0  0  0  0  0  0  0  0  0  0  0  0
   37.7100   24.3440   32.2030 N   0  0  0  0  0  0  0  0  0  0  0  0
   38.1490   25.9620   30.3910 N   0  0  0  0  0  0  0  0  0  0  0  0
   37.4110   23.0350   33.8020 H   0  0  0  0  0  0  0  0  0  0  0  0
   38.0150   25.3840   29.5240 H   0  0  0  0  0  0  0  0  0  0  0  0
   38.1500   26.9940   30.2290 H   0  0  0  0  0  0  0  0  0  0  0  0
   37.1080   25.5310   36.1910 F   0  0  0  0  0  0  0  0  0  0  0  0
   38.0800   24.6230   36.5020 C   0  0  0  0  0  0  0  0  0  0  0  0
   39.0040   24.1050   35.6050 C   0  0  0  0  0  0  0  0  0  0  0  0
   39.9430   23.1780   36.0710 C   0  0  0  0  0  0  0  0  0  0  0  0
   40.6090   22.8440   35.2940 H   0  0  0  0  0  0  0  0  0  0  0  0
   39.9190   22.8130   37.4020 C   0  0  0  0  0  0  0  0  0  0  0  0
   40.6780   22.0880   37.6970 H   0  0  0  0  0  0  0  0  0  0  0  0
   38.9920   23.3390   38.2780 C   0  0  0  0  0  3  0  0  0  0  0  0
   38.0600   24.2540   37.8320 C   0  0  0  0  0  3  0  0  0  0  0  0
   40.3950   26.5000   34.6510 C   0  0  0  0  0  0  0  0  0  0  0  0
   39.6690   27.0930   35.6230 F   0  0  0  0  0  0  0  0  0  0  0  0
   41.3690   25.6860   35.1820 F   0  0  0  0  0  0  0  0  0  0  0  0
   41.0580   27.5220   33.9380 F   0  0  0  0  0  0  0  0  0  0  0  0
  1  8  1  0  0  0  0
  1  2  1  0  0  0  0
  2 13  1  0  0  0  0
  3  2  2  0  0  0  0
  3 20  1  0  0  0  0
  4  3  1  0  0  0  0
  5  6  1  0  0  0  0
  5  4  2  0  0  0  0
  6  1  2  0  0  0  0
  7  5  1  0  0  0  0
  9  7  1  0  0  0  0
 10  7  1  0  0  0  0
 11 12  1  0  0  0  0
 12 19  1  0  0  0  0
 13 14  1  0  0  0  0
 13 12  2  0  0  0  0
 14 16  2  0  0  0  0
 15 14  1  0  0  0  0
 16 17  1  0  0  0  0
 16 18  1  0  0  0  0
 19 18  2  0  0  0  0
 20 22  1  0  0  0  0
 20 21  1  0  0  0  0
 23 20  1  0  0  0  0
M  END
>  <minimizedAffinity>
-5.11969423

$$$$

 OpenBabel03262520223D

 23 24  0  0  0  0  0  0  0  0999 V2000
   37.7820   23.6770   33.6180 C   0  0  0  0  0  0  0  0  0  0  0  0
   38.5440   24.5600   34.4190 C   0  0  0  0  0  0  0  0  0  0  0  0
   39.1600   25.6590   33.8400 C   0  0  0  0  0  0  0  0  0  0  0  0
   38.9860   25.8190   32.4990 N   0  0  0  0  0  0  0  0  0  0  0  0
   38.2650   24.9850   31.7370 C   0  0  0  0  0  0  0  0  0  0  0  0
   37.6740   23.9240   32.3110 N   0  0  0  0  0  0  0  0  0  0  0  0
   38.2040   25.3280   30.3500 N   0  0  0  0  0  0  0  0  0  0  0  0
   37.2870   22.8090   34.0330 H   0  0  0  0  0  0  0  0  0  0  0  0
   38.1990   24.6360   29.5590 H   0  0  0  0  0  0  0  0  0  0  0  0
   38.1590   26.3280   30.0530 H   0  0  0  0  0  0  0  0  0  0  0  0
   40.4940   22.8060   35.1630 F   0  0  0  0  0  0  0  0  0  0  0  0
   39.6360   23.3190   36.0940 C   0  0  0  0  0  0  0  0  0  0  0  0
   38.6110   24.2140   35.8240 C   0  0  0  0  0  0  0  0  0  0  0  0
   37.8100   24.6540   36.8850 C   0  0  0  0  0  0  0  0  0  0  0  0
   37.0480   25.3430   36.5630 H   0  0  0  0  0  0  0  0  0  0  0  0
   38.0660   24.1830   38.1560 C   0  0  0  0  0  0  0  0  0  0  0  0
   37.4040   24.5660   38.9330 H   0  0  0  0  0  0  0  0  0  0  0  0
   39.0900   23.2930   38.4030 C   0  0  0  0  0  3  0  0  0  0  0  0
   39.8880   22.8510   37.3680 C   0  0  0  0  0  3  0  0  0  0  0  0
   39.9480   26.5650   34.6990 C   0  0  0  0  0  0  0  0  0  0  0  0
   40.4570   27.5410   33.9170 F   0  0  0  0  0  0  0  0  0  0  0  0
   39.2040   27.0910   35.7300 F   0  0  0  0  0  0  0  0  0  0  0  0
   41.0360   25.8840   35.2840 F   0  0  0  0  0  0  0  0  0  0  0  0
  1  8  1  0  0  0  0
  1  2  1  0  0  0  0
  2 13  1  0  0  0  0
  3  2  2  0  0  0  0
  3 20  1  0  0  0  0
  4  3  1  0  0  0  0
  5  6  1  0  0  0  0
  5  4  2  0  0  0  0
  6  1  2  0  0  0  0
  7  5  1  0  0  0  0
  9  7  1  0  0  0  0
 10  7  1  0  0  0  0
 11 12  1  0  0  0  0
 12 19  1  0  0  0  0
 13 12  2  0  0  0  0
 13 14  1  0  0  0  0
 14 16  2  0  0  0  0
 15 14  1  0  0  0  0
 16 18  1  0  0  0  0
 16 17  1  0  0  0  0
 19 18  2  0  0  0  0
 20 23  1  0  0  0  0
 20 22  1  0  0  0  0
 21 20  1  0  0  0  0
M  END
>  <minimizedAffinity>
-5.08595943

$$$$

 OpenBabel03262520223D

 23 24  0  0  0  0  0  0  0  0999 V2000
   38.2640   23.8970   33.2710 C   0  0  0  0  0  0  0  0  0  0  0  0
   38.6940   24.6990   34.3540 C   0  0  0  0  0  0  0  0  0  0  0  0
   38.1720   25.9730   34.5190 C   0  0  0  0  0  0  0  0  0  0  0  0
   37.2530   26.3780   33.6000 N   0  0  0  0  0  0  0  0  0  0  0  0
   36.8430   25.6210   32.5730 C   0  0  0  0  0  0  0  0  0  0  0  0
   37.3580   24.3900   32.4250 N   0  0  0  0  0  0  0  0  0  0  0  0
   35.8710   26.2300   31.7200 N   0  0  0  0  0  0  0  0  0  0  0  0
   38.6490   22.8980   33.1080 H   0  0  0  0  0  0  0  0  0  0  0  0
   35.8240   26.1070   30.6770 H   0  0  0  0  0  0  0  0  0  0  0  0
   35.1310   26.8520   32.1170 H   0  0  0  0  0  0  0  0  0  0  0  0
   37.7540   23.1410   36.3850 F   0  0  0  0  0  0  0  0  0  0  0  0
   39.0980   23.3170   36.2160 C   0  0  0  0  0  0  0  0  0  0  0  0
   39.6820   24.0870   35.2200 C   0  0  0  0  0  0  0  0  0  0  0  0
   41.0780   24.1720   35.1710 C   0  0  0  0  0  0  0  0  0  0  0  0
   41.4220   24.7930   34.3620 H   0  0  0  0  0  0  0  0  0  0  0  0
   41.8230   23.4920   36.1120 C   0  0  0  0  0  0  0  0  0  0  0  0
   42.9030   23.6030   36.0160 H   0  0  0  0  0  0  0  0  0  0  0  0
   41.2230   22.7310   37.0950 C   0  0  0  0  0  3  0  0  0  0  0  0
   39.8480   22.6380   37.1550 C   0  0  0  0  0  3  0  0  0  0  0  0
   38.6370   26.7880   35.6600 C   0  0  0  0  0  0  0  0  0  0  0  0
   38.2650   26.1600   36.7960 F   0  0  0  0  0  0  0  0  0  0  0  0
   39.9950   27.0060   35.6320 F   0  0  0  0  0  0  0  0  0  0  0  0
   38.0170   28.0560   35.6570 F   0  0  0  0  0  0  0  0  0  0  0  0
  1  2  1  0  0  0  0
  2  3  2  0  0  0  0
  2 13  1  0  0  0  0
  3 20  1  0  0  0  0
  4  3  1  0  0  0  0
  5  4  2  0  0  0  0
  6  5  1  0  0  0  0
  6  1  2  0  0  0  0
  7 10  1  0  0  0  0
  7  5  1  0  0  0  0
  8  1  1  0  0  0  0
  9  7  1  0  0  0  0
 12 11  1  0  0  0  0
 12 19  1  0  0  0  0
 13 12  2  0  0  0  0
 14 13  1  0  0  0  0
 14 16  2  0  0  0  0
 15 14  1  0  0  0  0
 16 18  1  0  0  0  0
 17 16  1  0  0  0  0
 18 19  2  0  0  0  0
 20 21  1  0  0  0  0
 22 20  1  0  0  0  0
 23 20  1  0  0  0  0
M  END
>  <minimizedAffinity>
-5.05469656

$$$$
