
 OpenBabel03262520333D

 23 24  0  0  0  0  0  0  0  0999 V2000
   36.3480   28.0680   33.2680 C   0  0  0  0  0  0  0  0  0  0  0  0
   35.6890   27.1680   33.1150 H   0  0  0  0  0  0  0  0  0  0  0  0
   36.5420   28.6250   32.3390 H   0  0  0  0  0  0  0  0  0  0  0  0
   38.4770   27.3970   31.6750 F   0  0  0  0  0  0  0  0  0  0  0  0
   38.6170   27.2910   33.0210 C   0  0  0  0  0  0  0  0  0  0  0  0
   37.6210   27.5980   33.9260 C   0  0  0  0  0  0  0  0  0  0  0  0
   37.7530   27.4940   35.2880 C   0  0  0  0  0  0  0  0  0  0  0  0
   36.9090   27.7590   35.9260 H   0  0  0  0  0  0  0  0  0  0  0  0
   38.9780   27.0480   35.7880 C   0  0  0  0  0  0  0  0  0  0  0  0
   39.0860   26.9650   36.8550 H   0  0  0  0  0  0  0  0  0  0  0  0
   39.9850   26.7370   34.8910 C   0  0  0  0  0  3  0  0  0  0  0  0
   39.8260   26.8510   33.5230 C   0  0  0  0  0  3  0  0  0  0  0  0
   35.5540   30.2290   34.2060 C   0  0  0  0  0  3  0  0  0  0  0  0
   35.6560   28.9380   34.2590 C   0  0  0  0  0  3  0  0  0  0  0  0
   34.7460   32.3770   37.0610 C   0  0  0  0  0  0  0  0  0  0  0  0
   33.3850   32.1030   37.2650 C   0  0  0  0  0  0  0  0  0  0  0  0
   32.7710   31.1790   36.4130 C   0  0  0  0  0  0  0  0  0  0  0  0
   33.5360   30.6010   35.4310 N   0  0  0  0  0  0  0  0  0  0  0  0
   34.8310   30.9010   35.2830 C   0  0  0  0  0  0  0  0  0  0  0  0
   35.4390   31.7740   36.0770 N   0  0  0  0  0  0  0  0  0  0  0  0
   35.1400   33.0970   37.7590 H   0  0  0  0  0  0  0  0  0  0  0  0
   32.7410   32.5130   38.0020 H   0  0  0  0  0  0  0  0  0  0  0  0
   31.7450   30.8580   36.4310 H   0  0  0  0  0  0  0  0  0  0  0  0
  1  6  1  0  0  0  0
  1 14  1  0  0  0  0
  2  1  1  0  0  0  0
  3  1  1  0  0  0  0
  4  5  1  0  0  0  0
  5 12  2  0  0  0  0
  5  6  1  0  0  0  0
  6  7  2  0  0  0  0
  7  9  1  0  0  0  0
  7  8  1  0  0  0  0
  9 10  1  0  0  0  0
 11  9  2  0  0  0  0
 12 11  1  0  0  0  0
 13 14  2  0  0  0  0
 13 19  1  0  0  0  0
 15 16  1  0  0  0  0
 15 21  1  0  0  0  0
 16 22  1  0  0  0  0
 17 23  1  0  0  0  0
 17 16  2  0  0  0  0
 18 17  1  0  0  0  0
 19 18  2  0  0  0  0
 19 20  1  0  0  0  0
 20 15  2  0  0  0  0
M  END
>  <minimizedAffinity>
-4.81041288

$$$$

 OpenBabel03262520333D

 23 24  0  0  0  0  0  0  0  0999 V2000
   36.4130   28.1030   33.1570 C   0  0  0  0  0  0  0  0  0  0  0  0
   35.7780   27.2040   32.9180 H   0  0  0  0  0  0  0  0  0  0  0  0
   36.6530   28.7120   32.2710 H   0  0  0  0  0  0  0  0  0  0  0  0
   38.5810   27.3740   31.6440 F   0  0  0  0  0  0  0  0  0  0  0  0
   38.6730   27.2780   32.9950 C   0  0  0  0  0  0  0  0  0  0  0  0
   37.6530   27.6130   33.8620 C   0  0  0  0  0  0  0  0  0  0  0  0
   37.7360   27.5190   35.2290 C   0  0  0  0  0  0  0  0  0  0  0  0
   36.8760   27.8070   35.8350 H   0  0  0  0  0  0  0  0  0  0  0  0
   38.9340   27.0530   35.7750 C   0  0  0  0  0  0  0  0  0  0  0  0
   39.0030   26.9780   36.8450 H   0  0  0  0  0  0  0  0  0  0  0  0
   39.9640   26.7140   34.9160 C   0  0  0  0  0  3  0  0  0  0  0  0
   39.8550   26.8180   33.5420 C   0  0  0  0  0  3  0  0  0  0  0  0
   35.5430   30.2010   34.1670 C   0  0  0  0  0  3  0  0  0  0  0  0
   35.6510   28.9090   34.1500 C   0  0  0  0  0  3  0  0  0  0  0  0
   32.7640   31.0550   36.3960 C   0  0  0  0  0  0  0  0  0  0  0  0
   33.3510   31.9930   37.2590 C   0  0  0  0  0  0  0  0  0  0  0  0
   34.6970   32.3150   37.0540 C   0  0  0  0  0  0  0  0  0  0  0  0
   35.3590   31.6930   36.0250 N   0  0  0  0  0  0  0  0  0  0  0  0
   34.7470   30.8050   35.2330 C   0  0  0  0  0  0  0  0  0  0  0  0
   33.4710   30.4810   35.4050 N   0  0  0  0  0  0  0  0  0  0  0  0
   31.7280   30.8660   36.6220 H   0  0  0  0  0  0  0  0  0  0  0  0
   32.8980   32.5070   38.0690 H   0  0  0  0  0  0  0  0  0  0  0  0
   35.2950   33.0070   37.6190 H   0  0  0  0  0  0  0  0  0  0  0  0
  1  6  1  0  0  0  0
  1 14  1  0  0  0  0
  2  1  1  0  0  0  0
  3  1  1  0  0  0  0
  4  5  1  0  0  0  0
  5 12  2  0  0  0  0
  5  6  1  0  0  0  0
  6  7  2  0  0  0  0
  7  9  1  0  0  0  0
  7  8  1  0  0  0  0
  9 10  1  0  0  0  0
 11  9  2  0  0  0  0
 12 11  1  0  0  0  0
 13 19  1  0  0  0  0
 14 13  2  0  0  0  0
 15 21  1  0  0  0  0
 15 16  1  0  0  0  0
 16 22  1  0  0  0  0
 17 16  2  0  0  0  0
 17 23  1  0  0  0  0
 18 17  1  0  0  0  0
 19 20  1  0  0  0  0
 19 18  2  0  0  0  0
 20 15  2  0  0  0  0
M  END
>  <minimizedAffinity>
-4.78279161

$$$$

 OpenBabel03262520333D

 23 24  0  0  0  0  0  0  0  0999 V2000
   35.2890   30.3000   33.9140 C   0  0  0  0  0  0  0  0  0  0  0  0
   36.0640   31.0740   33.6540 H   0  0  0  0  0  0  0  0  0  0  0  0
   34.6220   30.0540   33.0730 H   0  0  0  0  0  0  0  0  0  0  0  0
   36.5690   31.9610   35.6820 F   0  0  0  0  0  0  0  0  0  0  0  0
   35.2770   31.6260   35.9280 C   0  0  0  0  0  0  0  0  0  0  0  0
   34.5270   30.8010   35.1160 C   0  0  0  0  0  0  0  0  0  0  0  0
   33.2200   30.4570   35.3570 C   0  0  0  0  0  0  0  0  0  0  0  0
   32.7060   29.7960   34.6570 H   0  0  0  0  0  0  0  0  0  0  0  0
   32.6120   30.9790   36.5000 C   0  0  0  0  0  0  0  0  0  0  0  0
   31.5890   30.7120   36.6920 H   0  0  0  0  0  0  0  0  0  0  0  0
   33.3540   31.8080   37.3220 C   0  0  0  0  0  3  0  0  0  0  0  0
   34.6700   32.1390   37.0570 C   0  0  0  0  0  3  0  0  0  0  0  0
   36.4700   28.1360   33.5960 C   0  0  0  0  0  3  0  0  0  0  0  0
   36.0320   29.0880   34.3590 C   0  0  0  0  0  3  0  0  0  0  0  0
   37.9940   24.8630   34.2150 C   0  0  0  0  0  0  0  0  0  0  0  0
   38.5230   25.0180   35.5060 C   0  0  0  0  0  0  0  0  0  0  0  0
   38.3420   26.2520   36.1400 C   0  0  0  0  0  0  0  0  0  0  0  0
   37.6610   27.2320   35.4610 N   0  0  0  0  0  0  0  0  0  0  0  0
   37.1790   27.0260   34.2300 C   0  0  0  0  0  0  0  0  0  0  0  0
   37.3360   25.8660   33.6050 N   0  0  0  0  0  0  0  0  0  0  0  0
   38.1760   23.8850   33.8010 H   0  0  0  0  0  0  0  0  0  0  0  0
   39.0560   24.3050   36.0830 H   0  0  0  0  0  0  0  0  0  0  0  0
   38.6800   26.5370   37.1200 H   0  0  0  0  0  0  0  0  0  0  0  0
  1 14  1  0  0  0  0
  1  6  1  0  0  0  0
  2  1  1  0  0  0  0
  3  1  1  0  0  0  0
  4  5  1  0  0  0  0
  5 12  1  0  0  0  0
  6  7  1  0  0  0  0
  6  5  2  0  0  0  0
  7  9  2  0  0  0  0
  8  7  1  0  0  0  0
  9 10  1  0  0  0  0
  9 11  1  0  0  0  0
 12 11  2  0  0  0  0
 13 19  1  0  0  0  0
 13 14  2  0  0  0  0
 15 16  1  0  0  0  0
 16 22  1  0  0  0  0
 16 17  2  0  0  0  0
 17 23  1  0  0  0  0
 18 17  1  0  0  0  0
 19 18  2  0  0  0  0
 20 15  2  0  0  0  0
 20 19  1  0  0  0  0
 21 15  1  0  0  0  0
M  END
>  <minimizedAffinity>
-4.72600222

$$$$

 OpenBabel03262520333D

 23 24  0  0  0  0  0  0  0  0999 V2000
   38.3400   26.7430   36.2150 C   0  0  0  0  0  0  0  0  0  0  0  0
   39.4240   27.0140   36.3570 H   0  0  0  0  0  0  0  0  0  0  0  0
   37.6890   27.1290   37.0140 H   0  0  0  0  0  0  0  0  0  0  0  0
   37.9880   25.2520   38.4910 F   0  0  0  0  0  0  0  0  0  0  0  0
   38.0790   24.6050   37.3010 C   0  0  0  0  0  0  0  0  0  0  0  0
   38.2560   25.2420   36.0890 C   0  0  0  0  0  0  0  0  0  0  0  0
   38.3480   24.5970   34.8820 C   0  0  0  0  0  0  0  0  0  0  0  0
   38.4890   25.1850   33.9730 H   0  0  0  0  0  0  0  0  0  0  0  0
   38.2560   23.2030   34.8820 C   0  0  0  0  0  0  0  0  0  0  0  0
   38.3280   22.6940   33.9380 H   0  0  0  0  0  0  0  0  0  0  0  0
   38.0780   22.5540   36.0910 C   0  0  0  0  0  3  0  0  0  0  0  0
   37.9880   23.2270   37.2940 C   0  0  0  0  0  3  0  0  0  0  0  0
   36.7910   27.8500   34.6190 C   0  0  0  0  0  3  0  0  0  0  0  0
   37.9320   27.3020   34.8970 C   0  0  0  0  0  3  0  0  0  0  0  0
   35.4100   29.5840   31.7020 C   0  0  0  0  0  0  0  0  0  0  0  0
   36.2890   29.1950   30.6790 C   0  0  0  0  0  0  0  0  0  0  0  0
   37.3430   28.3390   31.0160 C   0  0  0  0  0  0  0  0  0  0  0  0
   37.4520   27.9350   32.3230 N   0  0  0  0  0  0  0  0  0  0  0  0
   36.5830   28.3390   33.2570 C   0  0  0  0  0  0  0  0  0  0  0  0
   35.5740   29.1510   32.9650 N   0  0  0  0  0  0  0  0  0  0  0  0
   34.6290   30.2410   31.3580 H   0  0  0  0  0  0  0  0  0  0  0  0
   36.2600   29.4700   29.6550 H   0  0  0  0  0  0  0  0  0  0  0  0
   38.0990   27.9480   30.3600 H   0  0  0  0  0  0  0  0  0  0  0  0
  1  2  1  0  0  0  0
  1  3  1  0  0  0  0
  5  4  1  0  0  0  0
  6  1  1  0  0  0  0
  6  5  2  0  0  0  0
  7  6  1  0  0  0  0
  8  7  1  0  0  0  0
  9  7  2  0  0  0  0
  9 11  1  0  0  0  0
 10  9  1  0  0  0  0
 11 12  2  0  0  0  0
 12  5  1  0  0  0  0
 13 14  2  0  0  0  0
 14  1  1  0  0  0  0
 15 20  1  0  0  0  0
 16 17  1  0  0  0  0
 16 15  2  0  0  0  0
 17 18  2  0  0  0  0
 18 19  1  0  0  0  0
 19 13  1  0  0  0  0
 20 19  2  0  0  0  0
 21 15  1  0  0  0  0
 22 16  1  0  0  0  0
 23 17  1  0  0  0  0
M  END
>  <minimizedAffinity>
-4.69492531

$$$$

 OpenBabel03262520333D

 23 24  0  0  0  0  0  0  0  0999 V2000
   35.3860   30.2270   33.9240 C   0  0  0  0  0  0  0  0  0  0  0  0
   36.2160   30.9650   33.7420 H   0  0  0  0  0  0  0  0  0  0  0  0
   34.7500   30.0630   33.0400 H   0  0  0  0  0  0  0  0  0  0  0  0
   36.5870   31.9490   35.6880 F   0  0  0  0  0  0  0  0  0  0  0  0
   35.3050   31.5730   35.9230 C   0  0  0  0  0  0  0  0  0  0  0  0
   34.5930   30.7130   35.1120 C   0  0  0  0  0  0  0  0  0  0  0  0
   33.2960   30.3260   35.3410 C   0  0  0  0  0  0  0  0  0  0  0  0
   32.8130   29.6410   34.6420 H   0  0  0  0  0  0  0  0  0  0  0  0
   32.6570   30.8390   36.4720 C   0  0  0  0  0  0  0  0  0  0  0  0
   31.6410   30.5390   36.6550 H   0  0  0  0  0  0  0  0  0  0  0  0
   33.3610   31.7020   37.2940 C   0  0  0  0  0  3  0  0  0  0  0  0
   34.6670   32.0760   37.0400 C   0  0  0  0  0  3  0  0  0  0  0  0
   36.6140   28.0980   33.5580 C   0  0  0  0  0  3  0  0  0  0  0  0
   36.0340   28.9530   34.3400 C   0  0  0  0  0  3  0  0  0  0  0  0
   38.0780   25.7650   35.9740 C   0  0  0  0  0  0  0  0  0  0  0  0
   38.2610   24.6090   35.2000 C   0  0  0  0  0  0  0  0  0  0  0  0
   37.8760   24.6560   33.8550 C   0  0  0  0  0  0  0  0  0  0  0  0
   37.3430   25.8280   33.3790 N   0  0  0  0  0  0  0  0  0  0  0  0
   37.1920   26.9010   34.1650 C   0  0  0  0  0  0  0  0  0  0  0  0
   37.5490   26.8830   35.4440 N   0  0  0  0  0  0  0  0  0  0  0  0
   38.4010   25.6440   36.9940 H   0  0  0  0  0  0  0  0  0  0  0  0
   38.6650   23.6770   35.5050 H   0  0  0  0  0  0  0  0  0  0  0  0
   37.9470   23.8670   33.1290 H   0  0  0  0  0  0  0  0  0  0  0  0
  1 14  1  0  0  0  0
  1  6  1  0  0  0  0
  2  1  1  0  0  0  0
  3  1  1  0  0  0  0
  4  5  1  0  0  0  0
  5 12  1  0  0  0  0
  6  7  1  0  0  0  0
  6  5  2  0  0  0  0
  7  9  2  0  0  0  0
  8  7  1  0  0  0  0
  9 10  1  0  0  0  0
  9 11  1  0  0  0  0
 12 11  2  0  0  0  0
 13 19  1  0  0  0  0
 13 14  2  0  0  0  0
 15 21  1  0  0  0  0
 16 22  1  0  0  0  0
 16 15  2  0  0  0  0
 17 16  1  0  0  0  0
 18 17  2  0  0  0  0
 18 19  1  0  0  0  0
 19 20  2  0  0  0  0
 20 15  1  0  0  0  0
 23 17  1  0  0  0  0
M  END
>  <minimizedAffinity>
-4.69299412

$$$$

 OpenBabel03262520333D

 23 24  0  0  0  0  0  0  0  0999 V2000
   35.5360   29.8560   33.6980 C   0  0  0  0  0  0  0  0  0  0  0  0
   36.3500   30.4990   33.2610 H   0  0  0  0  0  0  0  0  0  0  0  0
   34.7520   29.5940   32.9710 H   0  0  0  0  0  0  0  0  0  0  0  0
   32.9050   29.4610   34.3610 F   0  0  0  0  0  0  0  0  0  0  0  0
   33.6470   30.2970   35.1310 C   0  0  0  0  0  0  0  0  0  0  0  0
   34.9790   30.5760   34.9010 C   0  0  0  0  0  0  0  0  0  0  0  0
   35.7380   31.4190   35.6730 C   0  0  0  0  0  0  0  0  0  0  0  0
   36.7850   31.5800   35.4140 H   0  0  0  0  0  0  0  0  0  0  0  0
   35.1180   32.0330   36.7640 C   0  0  0  0  0  0  0  0  0  0  0  0
   35.7090   32.6940   37.3720 H   0  0  0  0  0  0  0  0  0  0  0  0
   33.7830   31.7600   37.0050 C   0  0  0  0  0  3  0  0  0  0  0  0
   33.0410   30.9070   36.2110 C   0  0  0  0  0  3  0  0  0  0  0  0
   36.7260   27.6830   33.4950 C   0  0  0  0  0  3  0  0  0  0  0  0
   36.1980   28.6250   34.2120 C   0  0  0  0  0  3  0  0  0  0  0  0
   38.1420   24.3860   34.2330 C   0  0  0  0  0  0  0  0  0  0  0  0
   38.4610   24.4960   35.5950 C   0  0  0  0  0  0  0  0  0  0  0  0
   38.1810   25.7080   36.2350 C   0  0  0  0  0  0  0  0  0  0  0  0
   37.6130   26.7120   35.4910 N   0  0  0  0  0  0  0  0  0  0  0  0
   37.3290   26.5500   34.1930 C   0  0  0  0  0  0  0  0  0  0  0  0
   37.5850   25.4110   33.5620 N   0  0  0  0  0  0  0  0  0  0  0  0
   38.3890   23.4220   33.8190 H   0  0  0  0  0  0  0  0  0  0  0  0
   38.8990   23.7620   36.2240 H   0  0  0  0  0  0  0  0  0  0  0  0
   38.3610   25.9580   37.2640 H   0  0  0  0  0  0  0  0  0  0  0  0
  1 14  1  0  0  0  0
  1  6  1  0  0  0  0
  2  1  1  0  0  0  0
  3  1  1  0  0  0  0
  4  5  1  0  0  0  0
  5 12  1  0  0  0  0
  6  5  2  0  0  0  0
  6  7  1  0  0  0  0
  7  9  2  0  0  0  0
  8  7  1  0  0  0  0
  9 11  1  0  0  0  0
  9 10  1  0  0  0  0
 12 11  2  0  0  0  0
 13 19  1  0  0  0  0
 13 14  2  0  0  0  0
 15 16  1  0  0  0  0
 16 22  1  0  0  0  0
 16 17  2  0  0  0  0
 17 23  1  0  0  0  0
 18 17  1  0  0  0  0
 19 18  2  0  0  0  0
 20 19  1  0  0  0  0
 20 15  2  0  0  0  0
 21 15  1  0  0  0  0
M  END
>  <minimizedAffinity>
-4.64147997

$$$$

 OpenBabel03262520333D

 23 24  0  0  0  0  0  0  0  0999 V2000
   37.6940   22.8460   32.3610 C   0  0  0  0  0  0  0  0  0  0  0  0
   38.6500   22.8250   31.7670 H   0  0  0  0  0  0  0  0  0  0  0  0
   37.0870   21.9360   32.2380 H   0  0  0  0  0  0  0  0  0  0  0  0
   35.3750   22.5720   30.9210 F   0  0  0  0  0  0  0  0  0  0  0  0
   35.7910   23.8230   31.2470 C   0  0  0  0  0  0  0  0  0  0  0  0
   36.9370   24.0910   31.9660 C   0  0  0  0  0  0  0  0  0  0  0  0
   37.3650   25.3510   32.3000 C   0  0  0  0  0  0  0  0  0  0  0  0
   38.2870   25.4660   32.8720 H   0  0  0  0  0  0  0  0  0  0  0  0
   36.5860   26.4320   31.8830 C   0  0  0  0  0  0  0  0  0  0  0  0
   36.9180   27.4210   32.1430 H   0  0  0  0  0  0  0  0  0  0  0  0
   35.4330   26.1760   31.1610 C   0  0  0  0  0  3  0  0  0  0  0  0
   35.0240   24.8960   30.8380 C   0  0  0  0  0  3  0  0  0  0  0  0
   37.6940   22.2900   34.7830 C   0  0  0  0  0  3  0  0  0  0  0  0
   38.0830   23.0220   33.7870 C   0  0  0  0  0  3  0  0  0  0  0  0
   37.8810   23.4640   38.2480 C   0  0  0  0  0  0  0  0  0  0  0  0
   39.2240   23.2220   38.5740 C   0  0  0  0  0  0  0  0  0  0  0  0
   40.0430   22.6590   37.5880 C   0  0  0  0  0  0  0  0  0  0  0  0
   39.4810   22.3760   36.3680 N   0  0  0  0  0  0  0  0  0  0  0  0
   38.1910   22.6290   36.1150 C   0  0  0  0  0  0  0  0  0  0  0  0
   37.3920   23.1630   37.0310 N   0  0  0  0  0  0  0  0  0  0  0  0
   37.3230   23.8980   39.0600 H   0  0  0  0  0  0  0  0  0  0  0  0
   39.7180   23.4160   39.4920 H   0  0  0  0  0  0  0  0  0  0  0  0
   41.0850   22.4110   37.6710 H   0  0  0  0  0  0  0  0  0  0  0  0
  1 14  1  0  0  0  0
  2  1  1  0  0  0  0
  3  1  1  0  0  0  0
  4  5  1  0  0  0  0
  5  6  1  0  0  0  0
  6  7  2  0  0  0  0
  6  1  1  0  0  0  0
  7  8  1  0  0  0  0
  9 10  1  0  0  0  0
  9  7  1  0  0  0  0
 11  9  2  0  0  0  0
 12 11  1  0  0  0  0
 12  5  2  0  0  0  0
 13 19  1  0  0  0  0
 14 13  2  0  0  0  0
 15 16  1  0  0  0  0
 15 21  1  0  0  0  0
 16 22  1  0  0  0  0
 17 23  1  0  0  0  0
 17 16  2  0  0  0  0
 18 17  1  0  0  0  0
 19 18  2  0  0  0  0
 19 20  1  0  0  0  0
 20 15  2  0  0  0  0
M  END
>  <minimizedAffinity>
-4.63909101

$$$$

 OpenBabel03262520333D

 23 24  0  0  0  0  0  0  0  0999 V2000
   38.1890   26.3630   33.0000 C   0  0  0  0  0  0  0  0  0  0  0  0
   39.2110   26.7430   32.7230 H   0  0  0  0  0  0  0  0  0  0  0  0
   37.7930   25.6230   32.2860 H   0  0  0  0  0  0  0  0  0  0  0  0
   37.6970   27.9090   30.7880 F   0  0  0  0  0  0  0  0  0  0  0  0
   37.1090   28.2530   31.9620 C   0  0  0  0  0  0  0  0  0  0  0  0
   37.2780   27.5570   33.1420 C   0  0  0  0  0  0  0  0  0  0  0  0
   36.6880   27.8980   34.3330 C   0  0  0  0  0  0  0  0  0  0  0  0
   36.8810   27.2860   35.2160 H   0  0  0  0  0  0  0  0  0  0  0  0
   35.8630   29.0240   34.3500 C   0  0  0  0  0  0  0  0  0  0  0  0
   35.3990   29.2930   35.2810 H   0  0  0  0  0  0  0  0  0  0  0  0
   35.6850   29.7300   33.1730 C   0  0  0  0  0  3  0  0  0  0  0  0
   36.2920   29.3660   31.9860 C   0  0  0  0  0  3  0  0  0  0  0  0
   38.6020   24.5260   34.6220 C   0  0  0  0  0  3  0  0  0  0  0  0
   38.3120   25.7610   34.3560 C   0  0  0  0  0  3  0  0  0  0  0  0
   37.8980   24.2090   38.2040 C   0  0  0  0  0  0  0  0  0  0  0  0
   38.9020   23.3240   38.6280 C   0  0  0  0  0  0  0  0  0  0  0  0
   39.8060   22.8540   37.6690 C   0  0  0  0  0  0  0  0  0  0  0  0
   39.6530   23.2850   36.3740 N   0  0  0  0  0  0  0  0  0  0  0  0
   38.6750   24.1300   36.0270 C   0  0  0  0  0  0  0  0  0  0  0  0
   37.8050   24.5920   36.9170 N   0  0  0  0  0  0  0  0  0  0  0  0
   37.2480   24.5220   39.0030 H   0  0  0  0  0  0  0  0  0  0  0  0
   39.0740   22.9540   39.6080 H   0  0  0  0  0  0  0  0  0  0  0  0
   40.6260   22.1780   37.8240 H   0  0  0  0  0  0  0  0  0  0  0  0
  1  6  1  0  0  0  0
  1 14  1  0  0  0  0
  2  1  1  0  0  0  0
  3  1  1  0  0  0  0
  4  5  1  0  0  0  0
  5 12  2  0  0  0  0
  5  6  1  0  0  0  0
  6  7  2  0  0  0  0
  7  9  1  0  0  0  0
  7  8  1  0  0  0  0
  9 10  1  0  0  0  0
 11  9  2  0  0  0  0
 12 11  1  0  0  0  0
 13 19  1  0  0  0  0
 14 13  2  0  0  0  0
 15 16  1  0  0  0  0
 15 21  1  0  0  0  0
 16 22  1  0  0  0  0
 17 23  1  0  0  0  0
 17 16  2  0  0  0  0
 18 17  1  0  0  0  0
 19 18  2  0  0  0  0
 19 20  1  0  0  0  0
 20 15  2  0  0  0  0
M  END
>  <minimizedAffinity>
-4.59913206

$$$$

 OpenBabel03262520333D

 23 24  0  0  0  0  0  0  0  0999 V2000
   34.8580   30.6850   34.2870 C   0  0  0  0  0  0  0  0  0  0  0  0
   34.4050   30.4630   33.2810 H   0  0  0  0  0  0  0  0  0  0  0  0
   34.1070   30.8350   35.0770 H   0  0  0  0  0  0  0  0  0  0  0  0
   35.7800   31.9420   36.5430 F   0  0  0  0  0  0  0  0  0  0  0  0
   36.1580   32.4270   35.3330 C   0  0  0  0  0  0  0  0  0  0  0  0
   35.7610   31.8830   34.1280 C   0  0  0  0  0  0  0  0  0  0  0  0
   36.1370   32.3660   32.8990 C   0  0  0  0  0  0  0  0  0  0  0  0
   35.7730   31.8700   31.9980 H   0  0  0  0  0  0  0  0  0  0  0  0
   36.9780   33.4810   32.8700 C   0  0  0  0  0  0  0  0  0  0  0  0
   37.2750   33.8620   31.9100 H   0  0  0  0  0  0  0  0  0  0  0  0
   37.3820   34.0350   34.0720 C   0  0  0  0  0  3  0  0  0  0  0  0
   36.9890   33.5290   35.2970 C   0  0  0  0  0  3  0  0  0  0  0  0
   36.1240   28.6010   33.8050 C   0  0  0  0  0  3  0  0  0  0  0  0
   35.7390   29.5320   34.6200 C   0  0  0  0  0  3  0  0  0  0  0  0
   37.8830   25.4180   34.2450 C   0  0  0  0  0  0  0  0  0  0  0  0
   38.6500   25.6570   35.3960 C   0  0  0  0  0  0  0  0  0  0  0  0
   38.5450   26.9150   36.0000 C   0  0  0  0  0  0  0  0  0  0  0  0
   37.7000   27.8350   35.4290 N   0  0  0  0  0  0  0  0  0  0  0  0
   36.9930   27.5500   34.3300 C   0  0  0  0  0  0  0  0  0  0  0  0
   37.0730   26.3650   33.7370 N   0  0  0  0  0  0  0  0  0  0  0  0
   38.0220   24.4280   33.8450 H   0  0  0  0  0  0  0  0  0  0  0  0
   39.3180   24.9930   35.8840 H   0  0  0  0  0  0  0  0  0  0  0  0
   39.0580   27.2600   36.8790 H   0  0  0  0  0  0  0  0  0  0  0  0
  1 14  1  0  0  0  0
  1  3  1  0  0  0  0
  2  1  1  0  0  0  0
  5  4  1  0  0  0  0
  6  1  1  0  0  0  0
  6  5  2  0  0  0  0
  7  6  1  0  0  0  0
  8  7  1  0  0  0  0
  9  7  2  0  0  0  0
  9 11  1  0  0  0  0
 10  9  1  0  0  0  0
 11 12  2  0  0  0  0
 12  5  1  0  0  0  0
 13 19  1  0  0  0  0
 13 14  2  0  0  0  0
 15 16  1  0  0  0  0
 16 22  1  0  0  0  0
 16 17  2  0  0  0  0
 17 23  1  0  0  0  0
 18 17  1  0  0  0  0
 19 18  2  0  0  0  0
 20 15  2  0  0  0  0
 20 19  1  0  0  0  0
 21 15  1  0  0  0  0
M  END
>  <minimizedAffinity>
-4.5242734

$$$$
