
 OpenBabel03272510143D

 41 44  0  0  0  0  0  0  0  0999 V2000
   36.7140   28.0420   32.4510 C   0  0  0  0  0  0  0  0  0  0  0  0
   36.4170   29.0890   31.6150 C   0  0  0  0  0  0  0  0  0  0  0  0
   35.7020   30.0240   32.3640 C   0  0  0  0  0  0  0  0  0  0  0  0
   35.5870   29.5370   33.5950 N   0  0  0  0  0  0  0  0  0  0  0  0
   36.1800   28.3870   33.6300 N   0  0  0  0  0  0  0  0  0  0  0  0
   36.5990   29.3350   30.5790 H   0  0  0  0  0  0  0  0  0  0  0  0
   35.2830   30.9830   32.0850 H   0  0  0  0  0  0  0  0  0  0  0  0
   34.9290   30.1420   34.7240 C   0  0  0  0  0  0  0  0  0  0  0  0
   34.1230   30.8470   34.4150 H   0  0  0  0  0  0  0  0  0  0  0  0
   34.4010   29.3380   35.2730 H   0  0  0  0  0  0  0  0  0  0  0  0
   35.9490   30.7900   35.6010 C   0  0  0  0  0  0  0  0  0  0  0  0
   35.9520   30.1850   36.5570 H   0  0  0  0  0  0  0  0  0  0  0  0
   36.9500   30.5190   35.1480 H   0  0  0  0  0  0  0  0  0  0  0  0
   34.0110   31.6540   37.4630 F   0  0  0  0  0  0  0  0  0  0  0  0
   34.8240   32.5270   36.7810 C   0  0  0  0  0  0  0  0  0  0  0  0
   35.8060   32.2180   35.8400 C   0  0  0  0  0  0  0  0  0  0  0  0
   36.4900   33.2850   35.2950 C   0  0  0  0  0  0  0  0  0  0  0  0
   37.2450   33.0180   34.5800 H   0  0  0  0  0  0  0  0  0  0  0  0
   36.2460   34.5940   35.6350 C   0  0  0  0  0  0  0  0  0  0  0  0
   36.8650   35.3410   35.1210 H   0  0  0  0  0  0  0  0  0  0  0  0
   35.2760   34.8790   36.5620 C   0  0  0  0  0  3  0  0  0  0  0  0
   34.5660   33.8430   37.1360 C   0  0  0  0  0  3  0  0  0  0  0  0
   37.4280   27.0130   31.8680 O   0  0  0  0  0  0  0  0  0  0  0  0
   36.3260   22.9530   32.0120 C   0  0  0  0  0  0  0  0  0  0  0  0
   35.6070   23.8590   31.2860 C   0  0  0  0  0  0  0  0  0  0  0  0
   35.9100   25.1900   31.1950 C   0  0  0  0  0  0  0  0  0  0  0  0
   36.9830   25.7070   31.8490 C   0  0  0  0  0  0  0  0  0  0  0  0
   37.7290   24.7880   32.5990 C   0  0  0  0  0  0  0  0  0  0  0  0
   37.4090   23.4830   32.6700 N   0  0  0  0  0  0  0  0  0  0  0  0
   34.7370   23.5190   30.7380 H   0  0  0  0  0  0  0  0  0  0  0  0
   35.3290   25.9020   30.6120 H   0  0  0  0  0  0  0  0  0  0  0  0
   38.6060   25.0590   33.1680 H   0  0  0  0  0  0  0  0  0  0  0  0
   36.0250   20.6900   31.0210 C   0  0  0  0  0  0  0  0  0  0  0  0
   36.0330   21.5600   32.1240 C   0  0  0  0  0  0  0  0  0  0  0  0
   35.7410   21.0080   33.3410 C   0  0  0  0  0  0  0  0  0  0  0  0
   35.4610   19.6760   33.4440 N   0  0  0  0  0  0  0  0  0  0  0  0
   35.4690   18.8790   32.3330 C   0  0  0  0  0  0  0  0  0  0  0  0
   35.7500   19.3720   31.1130 N   0  0  0  0  0  0  0  0  0  0  0  0
   36.2480   21.0710   30.0370 H   0  0  0  0  0  0  0  0  0  0  0  0
   35.7200   21.5990   34.2600 H   0  0  0  0  0  0  0  0  0  0  0  0
   35.2290   17.8510   32.5770 H   0  0  0  0  0  0  0  0  0  0  0  0
  1  5  2  0  0  0  0
  2  3  2  0  0  0  0
  2  1  1  0  0  0  0
  3  4  1  0  0  0  0
  4  5  1  0  0  0  0
  4  8  1  0  0  0  0
  6  2  1  0  0  0  0
  7  3  1  0  0  0  0
  8 10  1  0  0  0  0
  8 11  1  0  0  0  0
  9  8  1  0  0  0  0
 11 16  1  0  0  0  0
 11 12  1  0  0  0  0
 13 11  1  0  0  0  0
 15 22  1  0  0  0  0
 15 14  1  0  0  0  0
 16 15  2  0  0  0  0
 17 19  2  0  0  0  0
 17 16  1  0  0  0  0
 18 17  1  0  0  0  0
 19 21  1  0  0  0  0
 20 19  1  0  0  0  0
 21 22  2  0  0  0  0
 23  1  1  0  0  0  0
 24 34  1  0  0  0  0
 24 29  1  0  0  0  0
 25 24  2  0  0  0  0
 26 25  1  0  0  0  0
 26 27  2  0  0  0  0
 27 23  1  0  0  0  0
 27 28  1  0  0  0  0
 28 29  2  0  0  0  0
 28 32  1  0  0  0  0
 30 25  1  0  0  0  0
 31 26  1  0  0  0  0
 33 38  2  0  0  0  0
 33 34  1  0  0  0  0
 34 35  2  0  0  0  0
 35 36  1  0  0  0  0
 35 40  1  0  0  0  0
 37 41  1  0  0  0  0
 37 36  2  0  0  0  0
 38 37  1  0  0  0  0
 39 33  1  0  0  0  0
M  END
>  <minimizedAffinity>
-6.14258862

$$$$

 OpenBabel03272510143D

 41 44  0  0  0  0  0  0  0  0999 V2000
   37.0830   24.9010   32.0520 C   0  0  0  0  0  0  0  0  0  0  0  0
   36.3150   24.0990   31.2450 C   0  0  0  0  0  0  0  0  0  0  0  0
   36.3550   22.8130   31.7860 C   0  0  0  0  0  0  0  0  0  0  0  0
   37.1190   22.8660   32.8720 N   0  0  0  0  0  0  0  0  0  0  0  0
   37.5340   24.0840   33.0130 N   0  0  0  0  0  0  0  0  0  0  0  0
   35.7290   24.2280   30.3480 H   0  0  0  0  0  0  0  0  0  0  0  0
   35.8880   21.8920   31.4580 H   0  0  0  0  0  0  0  0  0  0  0  0
   37.4580   21.7880   33.7640 C   0  0  0  0  0  0  0  0  0  0  0  0
   36.6600   21.5970   34.5180 H   0  0  0  0  0  0  0  0  0  0  0  0
   37.5030   20.8580   33.1630 H   0  0  0  0  0  0  0  0  0  0  0  0
   38.7830   22.0660   34.3920 C   0  0  0  0  0  0  0  0  0  0  0  0
   39.3950   21.1280   34.2330 H   0  0  0  0  0  0  0  0  0  0  0  0
   39.2950   22.8010   33.7010 H   0  0  0  0  0  0  0  0  0  0  0  0
   41.1130   21.6640   35.9360 F   0  0  0  0  0  0  0  0  0  0  0  0
   39.9840   22.2610   36.4410 C   0  0  0  0  0  0  0  0  0  0  0  0
   38.7800   22.5060   35.7790 C   0  0  0  0  0  0  0  0  0  0  0  0
   37.7910   23.1250   36.5160 C   0  0  0  0  0  0  0  0  0  0  0  0
   36.8800   23.3080   35.9790 H   0  0  0  0  0  0  0  0  0  0  0  0
   37.9450   23.4950   37.8300 C   0  0  0  0  0  0  0  0  0  0  0  0
   37.0730   23.9780   38.2920 H   0  0  0  0  0  0  0  0  0  0  0  0
   39.1350   23.2460   38.4650 C   0  0  0  0  0  3  0  0  0  0  0  0
   40.1550   22.6290   37.7680 C   0  0  0  0  0  3  0  0  0  0  0  0
   37.1570   26.2230   31.6590 O   0  0  0  0  0  0  0  0  0  0  0  0
   35.5300   29.2720   34.0630 C   0  0  0  0  0  0  0  0  0  0  0  0
   35.1000   29.0720   32.7830 C   0  0  0  0  0  0  0  0  0  0  0  0
   35.5840   28.1010   31.9490 C   0  0  0  0  0  0  0  0  0  0  0  0
   36.5590   27.2490   32.3620 C   0  0  0  0  0  0  0  0  0  0  0  0
   37.0090   27.4450   33.6760 C   0  0  0  0  0  0  0  0  0  0  0  0
   36.5140   28.4070   34.4740 N   0  0  0  0  0  0  0  0  0  0  0  0
   34.3240   29.7140   32.3840 H   0  0  0  0  0  0  0  0  0  0  0  0
   35.2330   27.9520   30.9300 H   0  0  0  0  0  0  0  0  0  0  0  0
   37.7790   26.8410   34.1350 H   0  0  0  0  0  0  0  0  0  0  0  0
   33.6740   30.5040   35.1750 C   0  0  0  0  0  0  0  0  0  0  0  0
   35.0420   30.2760   34.9540 C   0  0  0  0  0  0  0  0  0  0  0  0
   35.9140   31.0750   35.6430 C   0  0  0  0  0  0  0  0  0  0  0  0
   35.4450   32.0330   36.4930 N   0  0  0  0  0  0  0  0  0  0  0  0
   34.1000   32.2070   36.6660 C   0  0  0  0  0  0  0  0  0  0  0  0
   33.2000   31.4480   36.0130 N   0  0  0  0  0  0  0  0  0  0  0  0
   32.9420   29.9030   34.6570 H   0  0  0  0  0  0  0  0  0  0  0  0
   36.9980   30.9790   35.5420 H   0  0  0  0  0  0  0  0  0  0  0  0
   33.8860   33.0030   37.3700 H   0  0  0  0  0  0  0  0  0  0  0  0
  1  5  2  0  0  0  0
  2  3  2  0  0  0  0
  2  1  1  0  0  0  0
  3  4  1  0  0  0  0
  4  5  1  0  0  0  0
  4  8  1  0  0  0  0
  6  2  1  0  0  0  0
  7  3  1  0  0  0  0
  8 11  1  0  0  0  0
  8  9  1  0  0  0  0
 10  8  1  0  0  0  0
 11 16  1  0  0  0  0
 12 11  1  0  0  0  0
 13 11  1  0  0  0  0
 14 15  1  0  0  0  0
 15 22  1  0  0  0  0
 16 15  2  0  0  0  0
 16 17  1  0  0  0  0
 17 19  2  0  0  0  0
 18 17  1  0  0  0  0
 19 20  1  0  0  0  0
 19 21  1  0  0  0  0
 22 21  2  0  0  0  0
 23  1  1  0  0  0  0
 23 27  1  0  0  0  0
 24 29  1  0  0  0  0
 24 34  1  0  0  0  0
 25 24  2  0  0  0  0
 26 27  2  0  0  0  0
 26 25  1  0  0  0  0
 27 28  1  0  0  0  0
 28 32  1  0  0  0  0
 28 29  2  0  0  0  0
 30 25  1  0  0  0  0
 31 26  1  0  0  0  0
 33 38  1  0  0  0  0
 34 33  2  0  0  0  0
 34 35  1  0  0  0  0
 35 36  2  0  0  0  0
 36 37  1  0  0  0  0
 37 41  1  0  0  0  0
 38 37  2  0  0  0  0
 39 33  1  0  0  0  0
 40 35  1  0  0  0  0
M  END
>  <minimizedAffinity>
-6.11914587

$$$$

 OpenBabel03272510143D

 41 44  0  0  0  0  0  0  0  0999 V2000
   36.2710   28.0220   31.7610 C   0  0  0  0  0  0  0  0  0  0  0  0
   36.5530   29.0990   30.9580 C   0  0  0  0  0  0  0  0  0  0  0  0
   35.5570   30.0510   31.1830 C   0  0  0  0  0  0  0  0  0  0  0  0
   34.7250   29.5450   32.0870 N   0  0  0  0  0  0  0  0  0  0  0  0
   35.1530   28.3680   32.4130 N   0  0  0  0  0  0  0  0  0  0  0  0
   37.3170   29.3580   30.2410 H   0  0  0  0  0  0  0  0  0  0  0  0
   35.4090   31.0350   30.7540 H   0  0  0  0  0  0  0  0  0  0  0  0
   33.5430   30.1570   32.6360 C   0  0  0  0  0  0  0  0  0  0  0  0
   33.5340   31.2620   32.4920 H   0  0  0  0  0  0  0  0  0  0  0  0
   32.6760   29.7920   32.0530 H   0  0  0  0  0  0  0  0  0  0  0  0
   33.4080   29.7660   34.0710 C   0  0  0  0  0  0  0  0  0  0  0  0
   32.3020   29.5940   34.2330 H   0  0  0  0  0  0  0  0  0  0  0  0
   33.8220   28.7150   34.1370 H   0  0  0  0  0  0  0  0  0  0  0  0
   31.8160   30.5580   36.2640 F   0  0  0  0  0  0  0  0  0  0  0  0
   33.1130   30.9820   36.0990 C   0  0  0  0  0  0  0  0  0  0  0  0
   33.9870   30.6630   35.0590 C   0  0  0  0  0  0  0  0  0  0  0  0
   35.2470   31.2220   35.1260 C   0  0  0  0  0  0  0  0  0  0  0  0
   35.9010   30.9530   34.3180 H   0  0  0  0  0  0  0  0  0  0  0  0
   35.6550   32.0510   36.1420 C   0  0  0  0  0  0  0  0  0  0  0  0
   36.6850   32.4240   36.0660 H   0  0  0  0  0  0  0  0  0  0  0  0
   34.7810   32.3540   37.1560 C   0  0  0  0  0  3  0  0  0  0  0  0
   33.5100   31.8160   37.1330 C   0  0  0  0  0  3  0  0  0  0  0  0
   37.1650   26.9730   31.6650 O   0  0  0  0  0  0  0  0  0  0  0  0
   36.2310   22.8770   31.9200 C   0  0  0  0  0  0  0  0  0  0  0  0
   35.4730   23.7320   31.1730 C   0  0  0  0  0  0  0  0  0  0  0  0
   35.7210   25.0720   31.0470 C   0  0  0  0  0  0  0  0  0  0  0  0
   36.7730   25.6500   31.6820 C   0  0  0  0  0  0  0  0  0  0  0  0
   37.5590   24.7820   32.4530 C   0  0  0  0  0  0  0  0  0  0  0  0
   37.2930   23.4680   32.5590 N   0  0  0  0  0  0  0  0  0  0  0  0
   34.6160   23.3430   30.6380 H   0  0  0  0  0  0  0  0  0  0  0  0
   35.1090   25.7440   30.4470 H   0  0  0  0  0  0  0  0  0  0  0  0
   38.4260   25.1040   33.0110 H   0  0  0  0  0  0  0  0  0  0  0  0
   36.0600   20.5710   30.9970 C   0  0  0  0  0  0  0  0  0  0  0  0
   35.9960   21.4760   32.0700 C   0  0  0  0  0  0  0  0  0  0  0  0
   35.6910   20.9510   33.2960 C   0  0  0  0  0  0  0  0  0  0  0  0
   35.4670   19.6120   33.4350 N   0  0  0  0  0  0  0  0  0  0  0  0
   35.5440   18.7810   32.3520 C   0  0  0  0  0  0  0  0  0  0  0  0
   35.8400   19.2460   31.1250 N   0  0  0  0  0  0  0  0  0  0  0  0
   36.2960   20.9310   30.0080 H   0  0  0  0  0  0  0  0  0  0  0  0
   35.6160   21.5690   34.1940 H   0  0  0  0  0  0  0  0  0  0  0  0
   35.3410   17.7510   32.6230 H   0  0  0  0  0  0  0  0  0  0  0  0
  1  5  2  0  0  0  0
  2  3  2  0  0  0  0
  2  1  1  0  0  0  0
  3  4  1  0  0  0  0
  4  5  1  0  0  0  0
  4  8  1  0  0  0  0
  6  2  1  0  0  0  0
  7  3  1  0  0  0  0
  8 11  1  0  0  0  0
  9  8  1  0  0  0  0
 10  8  1  0  0  0  0
 11 13  1  0  0  0  0
 11 12  1  0  0  0  0
 11 16  1  0  0  0  0
 15 14  1  0  0  0  0
 15 22  1  0  0  0  0
 16 17  1  0  0  0  0
 16 15  2  0  0  0  0
 17 19  2  0  0  0  0
 18 17  1  0  0  0  0
 19 21  1  0  0  0  0
 20 19  1  0  0  0  0
 22 21  2  0  0  0  0
 23 27  1  0  0  0  0
 23  1  1  0  0  0  0
 24 34  1  0  0  0  0
 24 29  1  0  0  0  0
 25 24  2  0  0  0  0
 26 25  1  0  0  0  0
 26 27  2  0  0  0  0
 27 28  1  0  0  0  0
 28 29  2  0  0  0  0
 28 32  1  0  0  0  0
 30 25  1  0  0  0  0
 31 26  1  0  0  0  0
 33 38  2  0  0  0  0
 33 34  1  0  0  0  0
 34 35  2  0  0  0  0
 35 36  1  0  0  0  0
 35 40  1  0  0  0  0
 37 41  1  0  0  0  0
 37 36  2  0  0  0  0
 38 37  1  0  0  0  0
 39 33  1  0  0  0  0
M  END
>  <minimizedAffinity>
-6.11139727

$$$$

 OpenBabel03272510143D

 41 44  0  0  0  0  0  0  0  0999 V2000
   36.3000   26.1580   32.0260 C   0  0  0  0  0  0  0  0  0  0  0  0
   35.6920   25.1190   31.3650 C   0  0  0  0  0  0  0  0  0  0  0  0
   36.3450   23.9480   31.7520 C   0  0  0  0  0  0  0  0  0  0  0  0
   37.3000   24.2940   32.6090 N   0  0  0  0  0  0  0  0  0  0  0  0
   37.2610   25.5790   32.7580 N   0  0  0  0  0  0  0  0  0  0  0  0
   34.8800   25.0120   30.6630 H   0  0  0  0  0  0  0  0  0  0  0  0
   36.1780   22.9170   31.4650 H   0  0  0  0  0  0  0  0  0  0  0  0
   38.2390   23.4300   33.2770 C   0  0  0  0  0  0  0  0  0  0  0  0
   37.7350   22.5890   33.8070 H   0  0  0  0  0  0  0  0  0  0  0  0
   38.8560   22.9400   32.4980 H   0  0  0  0  0  0  0  0  0  0  0  0
   39.0980   24.2450   34.1860 C   0  0  0  0  0  0  0  0  0  0  0  0
   40.1290   24.2280   33.7220 H   0  0  0  0  0  0  0  0  0  0  0  0
   38.7810   25.3180   34.0170 H   0  0  0  0  0  0  0  0  0  0  0  0
   37.2280   25.4720   35.9100 F   0  0  0  0  0  0  0  0  0  0  0  0
   38.1400   24.5410   36.3480 C   0  0  0  0  0  0  0  0  0  0  0  0
   39.1090   23.8770   35.5930 C   0  0  0  0  0  0  0  0  0  0  0  0
   39.9080   22.9830   36.2750 C   0  0  0  0  0  0  0  0  0  0  0  0
   40.6380   22.4810   35.6690 H   0  0  0  0  0  0  0  0  0  0  0  0
   39.7870   22.7320   37.6200 C   0  0  0  0  0  0  0  0  0  0  0  0
   40.4910   21.9950   38.0310 H   0  0  0  0  0  0  0  0  0  0  0  0
   38.8300   23.3940   38.3460 C   0  0  0  0  0  3  0  0  0  0  0  0
   38.0050   24.2980   37.7070 C   0  0  0  0  0  3  0  0  0  0  0  0
   35.7750   27.4070   31.7580 O   0  0  0  0  0  0  0  0  0  0  0  0
   34.6990   30.3210   34.5990 C   0  0  0  0  0  0  0  0  0  0  0  0
   35.8630   29.6150   34.7120 C   0  0  0  0  0  0  0  0  0  0  0  0
   36.2730   28.6570   33.8250 C   0  0  0  0  0  0  0  0  0  0  0  0
   35.5160   28.3390   32.7430 C   0  0  0  0  0  0  0  0  0  0  0  0
   34.3170   29.0560   32.6160 C   0  0  0  0  0  0  0  0  0  0  0  0
   33.9400   29.9940   33.5030 N   0  0  0  0  0  0  0  0  0  0  0  0
   36.5180   29.8150   35.5500 H   0  0  0  0  0  0  0  0  0  0  0  0
   37.2040   28.1020   33.9260 H   0  0  0  0  0  0  0  0  0  0  0  0
   33.6200   28.9070   31.8050 H   0  0  0  0  0  0  0  0  0  0  0  0
   32.9170   31.7730   35.5540 C   0  0  0  0  0  0  0  0  0  0  0  0
   34.2470   31.3250   35.5090 C   0  0  0  0  0  0  0  0  0  0  0  0
   35.1180   31.9030   36.3920 C   0  0  0  0  0  0  0  0  0  0  0  0
   34.6830   32.8620   37.2600 N   0  0  0  0  0  0  0  0  0  0  0  0
   33.3740   33.2570   37.2560 C   0  0  0  0  0  0  0  0  0  0  0  0
   32.4770   32.7210   36.4080 N   0  0  0  0  0  0  0  0  0  0  0  0
   32.1880   31.3520   34.8800 H   0  0  0  0  0  0  0  0  0  0  0  0
   36.1740   31.6250   36.4370 H   0  0  0  0  0  0  0  0  0  0  0  0
   33.1850   34.0230   37.9990 H   0  0  0  0  0  0  0  0  0  0  0  0
  1  5  2  0  0  0  0
  2  3  2  0  0  0  0
  2  1  1  0  0  0  0
  3  4  1  0  0  0  0
  4  5  1  0  0  0  0
  4  8  1  0  0  0  0
  6  2  1  0  0  0  0
  7  3  1  0  0  0  0
  8  9  1  0  0  0  0
  8 11  1  0  0  0  0
 10  8  1  0  0  0  0
 11 16  1  0  0  0  0
 12 11  1  0  0  0  0
 13 11  1  0  0  0  0
 14 15  1  0  0  0  0
 15 22  1  0  0  0  0
 16 17  1  0  0  0  0
 16 15  2  0  0  0  0
 17 19  2  0  0  0  0
 18 17  1  0  0  0  0
 19 20  1  0  0  0  0
 19 21  1  0  0  0  0
 22 21  2  0  0  0  0
 23  1  1  0  0  0  0
 23 27  1  0  0  0  0
 24 25  1  0  0  0  0
 24 34  1  0  0  0  0
 25 30  1  0  0  0  0
 26 31  1  0  0  0  0
 26 25  2  0  0  0  0
 27 26  1  0  0  0  0
 28 27  2  0  0  0  0
 28 29  1  0  0  0  0
 29 24  2  0  0  0  0
 32 28  1  0  0  0  0
 33 38  1  0  0  0  0
 34 33  2  0  0  0  0
 34 35  1  0  0  0  0
 35 40  1  0  0  0  0
 35 36  2  0  0  0  0
 37 36  1  0  0  0  0
 37 41  1  0  0  0  0
 38 37  2  0  0  0  0
 39 33  1  0  0  0  0
M  END
>  <minimizedAffinity>
-6.00717163

$$$$

 OpenBabel03272510143D

 41 44  0  0  0  0  0  0  0  0999 V2000
   35.4590   29.0020   32.3280 C   0  0  0  0  0  0  0  0  0  0  0  0
   35.3730   29.9680   31.3570 C   0  0  0  0  0  0  0  0  0  0  0  0
   34.2440   30.7380   31.6400 C   0  0  0  0  0  0  0  0  0  0  0  0
   33.6920   30.2370   32.7400 N   0  0  0  0  0  0  0  0  0  0  0  0
   34.4080   29.2300   33.1270 N   0  0  0  0  0  0  0  0  0  0  0  0
   35.9420   30.2480   30.4830 H   0  0  0  0  0  0  0  0  0  0  0  0
   33.8230   31.5930   31.1260 H   0  0  0  0  0  0  0  0  0  0  0  0
   32.5060   30.6940   33.4180 C   0  0  0  0  0  0  0  0  0  0  0  0
   32.2340   31.7370   33.1350 H   0  0  0  0  0  0  0  0  0  0  0  0
   31.6580   30.0770   33.0600 H   0  0  0  0  0  0  0  0  0  0  0  0
   32.6860   30.5290   34.8900 C   0  0  0  0  0  0  0  0  0  0  0  0
   33.8040   30.4680   35.0530 H   0  0  0  0  0  0  0  0  0  0  0  0
   32.4370   31.5370   35.3390 H   0  0  0  0  0  0  0  0  0  0  0  0
   32.5810   30.4520   37.7110 F   0  0  0  0  0  0  0  0  0  0  0  0
   31.9760   29.5040   36.9210 C   0  0  0  0  0  0  0  0  0  0  0  0
   31.9660   29.4370   35.5270 C   0  0  0  0  0  0  0  0  0  0  0  0
   31.2810   28.3760   34.9710 C   0  0  0  0  0  0  0  0  0  0  0  0
   31.2830   28.3540   33.8980 H   0  0  0  0  0  0  0  0  0  0  0  0
   30.6330   27.4200   35.7140 C   0  0  0  0  0  0  0  0  0  0  0  0
   30.1290   26.6320   35.1380 H   0  0  0  0  0  0  0  0  0  0  0  0
   30.6540   27.5020   37.0830 C   0  0  0  0  0  3  0  0  0  0  0  0
   31.3260   28.5470   37.6850 C   0  0  0  0  0  3  0  0  0  0  0  0
   36.5310   28.1410   32.2010 O   0  0  0  0  0  0  0  0  0  0  0  0
   38.0400   25.5780   35.1800 C   0  0  0  0  0  0  0  0  0  0  0  0
   37.6710   26.8610   35.4670 C   0  0  0  0  0  0  0  0  0  0  0  0
   37.1730   27.7450   34.5490 C   0  0  0  0  0  0  0  0  0  0  0  0
   37.0130   27.3830   33.2490 C   0  0  0  0  0  0  0  0  0  0  0  0
   37.3890   26.0680   32.9410 C   0  0  0  0  0  0  0  0  0  0  0  0
   37.8750   25.2200   33.8640 N   0  0  0  0  0  0  0  0  0  0  0  0
   37.7710   27.2200   36.4840 H   0  0  0  0  0  0  0  0  0  0  0  0
   36.8820   28.7650   34.7910 H   0  0  0  0  0  0  0  0  0  0  0  0
   37.3150   25.6470   31.9490 H   0  0  0  0  0  0  0  0  0  0  0  0
   39.7380   23.9030   35.8920 C   0  0  0  0  0  0  0  0  0  0  0  0
   38.5610   24.6350   36.1180 C   0  0  0  0  0  0  0  0  0  0  0  0
   37.9150   24.4050   37.3010 C   0  0  0  0  0  0  0  0  0  0  0  0
   38.4160   23.5030   38.1950 N   0  0  0  0  0  0  0  0  0  0  0  0
   39.5680   22.8210   37.9180 C   0  0  0  0  0  0  0  0  0  0  0  0
   40.2420   23.0100   36.7690 N   0  0  0  0  0  0  0  0  0  0  0  0
   40.2880   24.0450   34.9750 H   0  0  0  0  0  0  0  0  0  0  0  0
   36.9910   24.9220   37.5730 H   0  0  0  0  0  0  0  0  0  0  0  0
   39.8350   22.1450   38.7230 H   0  0  0  0  0  0  0  0  0  0  0  0
  1  5  2  0  0  0  0
  2  3  2  0  0  0  0
  2  1  1  0  0  0  0
  3  4  1  0  0  0  0
  4  5  1  0  0  0  0
  4  8  1  0  0  0  0
  6  2  1  0  0  0  0
  7  3  1  0  0  0  0
  8 11  1  0  0  0  0
  9  8  1  0  0  0  0
 10  8  1  0  0  0  0
 11 12  1  0  0  0  0
 11 13  1  0  0  0  0
 11 16  1  0  0  0  0
 15 22  1  0  0  0  0
 15 14  1  0  0  0  0
 16 15  2  0  0  0  0
 17 16  1  0  0  0  0
 17 19  2  0  0  0  0
 18 17  1  0  0  0  0
 19 21  1  0  0  0  0
 20 19  1  0  0  0  0
 21 22  2  0  0  0  0
 23  1  1  0  0  0  0
 23 27  1  0  0  0  0
 24 25  1  0  0  0  0
 24 34  1  0  0  0  0
 25 30  1  0  0  0  0
 26 31  1  0  0  0  0
 26 25  2  0  0  0  0
 27 26  1  0  0  0  0
 28 27  2  0  0  0  0
 28 29  1  0  0  0  0
 29 24  2  0  0  0  0
 32 28  1  0  0  0  0
 33 34  2  0  0  0  0
 33 38  1  0  0  0  0
 34 35  1  0  0  0  0
 35 40  1  0  0  0  0
 35 36  2  0  0  0  0
 37 36  1  0  0  0  0
 37 41  1  0  0  0  0
 38 37  2  0  0  0  0
 39 33  1  0  0  0  0
M  END
>  <minimizedAffinity>
-5.94295168

$$$$

 OpenBabel03272510143D

 41 44  0  0  0  0  0  0  0  0999 V2000
   36.2710   26.0730   31.9450 C   0  0  0  0  0  0  0  0  0  0  0  0
   35.5940   25.1350   31.2070 C   0  0  0  0  0  0  0  0  0  0  0  0
   36.0860   23.8830   31.5830 C   0  0  0  0  0  0  0  0  0  0  0  0
   37.0180   24.0880   32.5070 N   0  0  0  0  0  0  0  0  0  0  0  0
   37.1140   25.3630   32.7070 N   0  0  0  0  0  0  0  0  0  0  0  0
   34.8200   25.1450   30.4540 H   0  0  0  0  0  0  0  0  0  0  0  0
   35.8220   22.8890   31.2440 H   0  0  0  0  0  0  0  0  0  0  0  0
   37.8100   23.1000   33.1930 C   0  0  0  0  0  0  0  0  0  0  0  0
   37.1870   22.4200   33.8180 H   0  0  0  0  0  0  0  0  0  0  0  0
   38.2600   22.4410   32.4250 H   0  0  0  0  0  0  0  0  0  0  0  0
   38.8760   23.7850   33.9820 C   0  0  0  0  0  0  0  0  0  0  0  0
   39.8530   23.3670   33.5940 H   0  0  0  0  0  0  0  0  0  0  0  0
   38.9030   24.8470   33.5930 H   0  0  0  0  0  0  0  0  0  0  0  0
   40.6420   22.0800   35.3780 F   0  0  0  0  0  0  0  0  0  0  0  0
   39.6980   22.8500   36.0140 C   0  0  0  0  0  0  0  0  0  0  0  0
   38.7740   23.7190   35.4320 C   0  0  0  0  0  0  0  0  0  0  0  0
   37.9260   24.3800   36.2970 C   0  0  0  0  0  0  0  0  0  0  0  0
   37.2320   25.0470   35.8230 H   0  0  0  0  0  0  0  0  0  0  0  0
   37.9600   24.2190   37.6600 C   0  0  0  0  0  0  0  0  0  0  0  0
   37.2260   24.8080   38.2270 H   0  0  0  0  0  0  0  0  0  0  0  0
   38.8750   23.3600   38.2150 C   0  0  0  0  0  3  0  0  0  0  0  0
   39.7450   22.6770   37.3890 C   0  0  0  0  0  3  0  0  0  0  0  0
   35.9080   27.3830   31.6980 O   0  0  0  0  0  0  0  0  0  0  0  0
   34.7630   30.2110   34.5980 C   0  0  0  0  0  0  0  0  0  0  0  0
   35.9220   29.4990   34.7200 C   0  0  0  0  0  0  0  0  0  0  0  0
   36.3530   28.5680   33.8150 C   0  0  0  0  0  0  0  0  0  0  0  0
   35.6250   28.2850   32.7040 C   0  0  0  0  0  0  0  0  0  0  0  0
   34.4310   29.0090   32.5680 C   0  0  0  0  0  0  0  0  0  0  0  0
   34.0320   29.9200   33.4730 N   0  0  0  0  0  0  0  0  0  0  0  0
   36.5550   29.6710   35.5810 H   0  0  0  0  0  0  0  0  0  0  0  0
   37.2800   28.0070   33.9230 H   0  0  0  0  0  0  0  0  0  0  0  0
   33.7550   28.8870   31.7350 H   0  0  0  0  0  0  0  0  0  0  0  0
   35.1450   31.9510   36.3370 C   0  0  0  0  0  0  0  0  0  0  0  0
   34.2890   31.1880   35.5260 C   0  0  0  0  0  0  0  0  0  0  0  0
   32.9480   31.4230   35.6620 C   0  0  0  0  0  0  0  0  0  0  0  0
   32.4990   32.3570   36.5490 N   0  0  0  0  0  0  0  0  0  0  0  0
   33.3830   33.0690   37.3120 C   0  0  0  0  0  0  0  0  0  0  0  0
   34.7120   32.8770   37.2170 N   0  0  0  0  0  0  0  0  0  0  0  0
   36.2130   31.8070   36.2710 H   0  0  0  0  0  0  0  0  0  0  0  0
   32.1980   30.8830   35.0780 H   0  0  0  0  0  0  0  0  0  0  0  0
   32.8750   33.7690   37.9650 H   0  0  0  0  0  0  0  0  0  0  0  0
  1  5  2  0  0  0  0
  2  3  2  0  0  0  0
  2  1  1  0  0  0  0
  3  4  1  0  0  0  0
  4  5  1  0  0  0  0
  4  8  1  0  0  0  0
  6  2  1  0  0  0  0
  7  3  1  0  0  0  0
  8  9  1  0  0  0  0
  8 11  1  0  0  0  0
 10  8  1  0  0  0  0
 11 16  1  0  0  0  0
 12 11  1  0  0  0  0
 13 11  1  0  0  0  0
 14 15  1  0  0  0  0
 15 22  1  0  0  0  0
 16 15  2  0  0  0  0
 16 17  1  0  0  0  0
 17 19  2  0  0  0  0
 18 17  1  0  0  0  0
 19 21  1  0  0  0  0
 19 20  1  0  0  0  0
 22 21  2  0  0  0  0
 23  1  1  0  0  0  0
 23 27  1  0  0  0  0
 24 25  1  0  0  0  0
 24 34  1  0  0  0  0
 25 30  1  0  0  0  0
 26 31  1  0  0  0  0
 26 25  2  0  0  0  0
 27 26  1  0  0  0  0
 28 27  2  0  0  0  0
 28 29  1  0  0  0  0
 29 24  2  0  0  0  0
 32 28  1  0  0  0  0
 33 38  1  0  0  0  0
 34 35  1  0  0  0  0
 34 33  2  0  0  0  0
 35 36  2  0  0  0  0
 36 37  1  0  0  0  0
 37 41  1  0  0  0  0
 38 37  2  0  0  0  0
 39 33  1  0  0  0  0
 40 35  1  0  0  0  0
M  END
>  <minimizedAffinity>
-5.91389942

$$$$

 OpenBabel03272510143D

 41 44  0  0  0  0  0  0  0  0999 V2000
   35.5570   28.6740   32.1780 C   0  0  0  0  0  0  0  0  0  0  0  0
   35.7750   29.7720   31.3840 C   0  0  0  0  0  0  0  0  0  0  0  0
   34.7620   30.6910   31.6660 C   0  0  0  0  0  0  0  0  0  0  0  0
   33.9820   30.1450   32.5930 N   0  0  0  0  0  0  0  0  0  0  0  0
   34.4560   28.9750   32.8800 N   0  0  0  0  0  0  0  0  0  0  0  0
   36.5010   30.0660   30.6420 H   0  0  0  0  0  0  0  0  0  0  0  0
   34.5680   31.6770   31.2610 H   0  0  0  0  0  0  0  0  0  0  0  0
   32.8060   30.7130   33.2000 C   0  0  0  0  0  0  0  0  0  0  0  0
   32.7380   31.8130   33.0400 H   0  0  0  0  0  0  0  0  0  0  0  0
   31.9250   30.2980   32.6730 H   0  0  0  0  0  0  0  0  0  0  0  0
   32.7700   30.3410   34.6460 C   0  0  0  0  0  0  0  0  0  0  0  0
   31.7300   29.9350   34.8270 H   0  0  0  0  0  0  0  0  0  0  0  0
   33.4060   29.4090   34.7330 H   0  0  0  0  0  0  0  0  0  0  0  0
   35.4870   30.5660   35.3800 F   0  0  0  0  0  0  0  0  0  0  0  0
   34.5120   31.3910   35.8870 C   0  0  0  0  0  0  0  0  0  0  0  0
   33.1460   31.3700   35.6030 C   0  0  0  0  0  0  0  0  0  0  0  0
   32.3720   32.3130   36.2480 C   0  0  0  0  0  0  0  0  0  0  0  0
   31.3280   32.2800   36.0050 H   0  0  0  0  0  0  0  0  0  0  0  0
   32.8820   33.2380   37.1270 C   0  0  0  0  0  0  0  0  0  0  0  0
   32.1500   33.9280   37.5680 H   0  0  0  0  0  0  0  0  0  0  0  0
   34.2280   33.2430   37.3940 C   0  0  0  0  0  3  0  0  0  0  0  0
   35.0420   32.3190   36.7720 C   0  0  0  0  0  3  0  0  0  0  0  0
   36.4750   27.6540   32.0270 O   0  0  0  0  0  0  0  0  0  0  0  0
   38.1670   25.3050   35.0840 C   0  0  0  0  0  0  0  0  0  0  0  0
   37.8050   26.6030   35.3040 C   0  0  0  0  0  0  0  0  0  0  0  0
   37.2500   27.4210   34.3570 C   0  0  0  0  0  0  0  0  0  0  0  0
   37.0210   26.9710   33.0960 C   0  0  0  0  0  0  0  0  0  0  0  0
   37.3890   25.6390   32.8560 C   0  0  0  0  0  0  0  0  0  0  0  0
   37.9320   24.8580   33.8070 N   0  0  0  0  0  0  0  0  0  0  0  0
   37.9590   27.0310   36.2870 H   0  0  0  0  0  0  0  0  0  0  0  0
   36.9660   28.4540   34.5450 H   0  0  0  0  0  0  0  0  0  0  0  0
   37.2630   25.1520   31.9010 H   0  0  0  0  0  0  0  0  0  0  0  0
   39.9280   23.7070   35.8200 C   0  0  0  0  0  0  0  0  0  0  0  0
   38.7470   24.4300   36.0530 C   0  0  0  0  0  0  0  0  0  0  0  0
   38.1560   24.2610   37.2750 C   0  0  0  0  0  0  0  0  0  0  0  0
   38.7140   23.4240   38.1990 N   0  0  0  0  0  0  0  0  0  0  0  0
   39.8660   22.7470   37.9130 C   0  0  0  0  0  0  0  0  0  0  0  0
   40.4870   22.8780   36.7260 N   0  0  0  0  0  0  0  0  0  0  0  0
   40.4360   23.8030   34.8730 H   0  0  0  0  0  0  0  0  0  0  0  0
   37.2350   24.7770   37.5550 H   0  0  0  0  0  0  0  0  0  0  0  0
   40.1810   22.1260   38.7430 H   0  0  0  0  0  0  0  0  0  0  0  0
  1  5  2  0  0  0  0
  2  3  2  0  0  0  0
  2  1  1  0  0  0  0
  3  4  1  0  0  0  0
  4  5  1  0  0  0  0
  4  8  1  0  0  0  0
  6  2  1  0  0  0  0
  7  3  1  0  0  0  0
  8 11  1  0  0  0  0
  9  8  1  0  0  0  0
 10  8  1  0  0  0  0
 11 13  1  0  0  0  0
 11 12  1  0  0  0  0
 11 16  1  0  0  0  0
 14 15  1  0  0  0  0
 15 22  1  0  0  0  0
 16 15  2  0  0  0  0
 16 17  1  0  0  0  0
 17 19  2  0  0  0  0
 18 17  1  0  0  0  0
 19 21  1  0  0  0  0
 19 20  1  0  0  0  0
 22 21  2  0  0  0  0
 23  1  1  0  0  0  0
 23 27  1  0  0  0  0
 24 25  1  0  0  0  0
 24 34  1  0  0  0  0
 25 30  1  0  0  0  0
 26 31  1  0  0  0  0
 26 25  2  0  0  0  0
 27 26  1  0  0  0  0
 28 27  2  0  0  0  0
 28 29  1  0  0  0  0
 29 24  2  0  0  0  0
 32 28  1  0  0  0  0
 33 34  2  0  0  0  0
 33 38  1  0  0  0  0
 34 35  1  0  0  0  0
 35 40  1  0  0  0  0
 35 36  2  0  0  0  0
 37 36  1  0  0  0  0
 37 41  1  0  0  0  0
 38 37  2  0  0  0  0
 39 33  1  0  0  0  0
M  END
>  <minimizedAffinity>
-5.89558601

$$$$

 OpenBabel03272510143D

 41 44  0  0  0  0  0  0  0  0999 V2000
   36.4070   26.2420   30.9980 C   0  0  0  0  0  0  0  0  0  0  0  0
   35.1870   25.6130   31.0200 C   0  0  0  0  0  0  0  0  0  0  0  0
   35.4330   24.2390   30.9910 C   0  0  0  0  0  0  0  0  0  0  0  0
   36.7510   24.0750   30.9530 N   0  0  0  0  0  0  0  0  0  0  0  0
   37.3020   25.2460   30.9580 N   0  0  0  0  0  0  0  0  0  0  0  0
   34.1520   25.9190   31.0530 H   0  0  0  0  0  0  0  0  0  0  0  0
   34.7500   23.3980   30.9960 H   0  0  0  0  0  0  0  0  0  0  0  0
   37.4830   22.8360   30.9110 C   0  0  0  0  0  0  0  0  0  0  0  0
   37.2060   22.2110   30.0310 H   0  0  0  0  0  0  0  0  0  0  0  0
   38.5510   23.0840   30.7530 H   0  0  0  0  0  0  0  0  0  0  0  0
   37.3030   22.1130   32.2050 C   0  0  0  0  0  0  0  0  0  0  0  0
   38.2790   22.2430   32.7610 H   0  0  0  0  0  0  0  0  0  0  0  0
   36.5980   22.7550   32.8130 H   0  0  0  0  0  0  0  0  0  0  0  0
   34.5690   21.5220   32.5910 F   0  0  0  0  0  0  0  0  0  0  0  0
   35.5080   20.5520   32.3340 C   0  0  0  0  0  0  0  0  0  0  0  0
   36.8780   20.7230   32.1330 C   0  0  0  0  0  0  0  0  0  0  0  0
   37.6090   19.5780   31.8910 C   0  0  0  0  0  0  0  0  0  0  0  0
   38.6580   19.7410   31.7320 H   0  0  0  0  0  0  0  0  0  0  0  0
   37.0550   18.3230   31.8420 C   0  0  0  0  0  0  0  0  0  0  0  0
   37.7560   17.5010   31.6400 H   0  0  0  0  0  0  0  0  0  0  0  0
   35.7060   18.1730   32.0420 C   0  0  0  0  0  3  0  0  0  0  0  0
   34.9330   19.2900   32.2870 C   0  0  0  0  0  3  0  0  0  0  0  0
   36.3520   27.6220   31.0220 O   0  0  0  0  0  0  0  0  0  0  0  0
   35.0610   29.9870   34.2550 C   0  0  0  0  0  0  0  0  0  0  0  0
   35.9920   29.0020   34.4230 C   0  0  0  0  0  0  0  0  0  0  0  0
   36.4560   28.1990   33.4170 C   0  0  0  0  0  0  0  0  0  0  0  0
   35.9980   28.3390   32.1460 C   0  0  0  0  0  0  0  0  0  0  0  0
   35.0400   29.3460   31.9600 C   0  0  0  0  0  0  0  0  0  0  0  0
   34.6020   30.1220   32.9680 N   0  0  0  0  0  0  0  0  0  0  0  0
   36.4030   28.8320   35.4100 H   0  0  0  0  0  0  0  0  0  0  0  0
   37.2000   27.4180   33.5640 H   0  0  0  0  0  0  0  0  0  0  0  0
   34.5900   29.5680   31.0040 H   0  0  0  0  0  0  0  0  0  0  0  0
   35.3930   31.6070   36.1160 C   0  0  0  0  0  0  0  0  0  0  0  0
   34.5600   30.8380   35.2870 C   0  0  0  0  0  0  0  0  0  0  0  0
   33.2140   30.9390   35.5100 C   0  0  0  0  0  0  0  0  0  0  0  0
   32.7380   31.7540   36.4960 N   0  0  0  0  0  0  0  0  0  0  0  0
   33.6010   32.4780   37.2720 C   0  0  0  0  0  0  0  0  0  0  0  0
   34.9330   32.4150   37.0930 N   0  0  0  0  0  0  0  0  0  0  0  0
   36.4630   31.5660   35.9840 H   0  0  0  0  0  0  0  0  0  0  0  0
   32.4800   30.3830   34.9210 H   0  0  0  0  0  0  0  0  0  0  0  0
   33.0730   33.0740   38.0070 H   0  0  0  0  0  0  0  0  0  0  0  0
  1  2  1  0  0  0  0
  1 23  1  0  0  0  0
  2  6  1  0  0  0  0
  3  7  1  0  0  0  0
  3  2  2  0  0  0  0
  4  5  1  0  0  0  0
  4  3  1  0  0  0  0
  5  1  2  0  0  0  0
  8  4  1  0  0  0  0
  8 11  1  0  0  0  0
  9  8  1  0  0  0  0
 10  8  1  0  0  0  0
 11 12  1  0  0  0  0
 11 13  1  0  0  0  0
 15 14  1  0  0  0  0
 16 11  1  0  0  0  0
 16 15  2  0  0  0  0
 17 16  1  0  0  0  0
 18 17  1  0  0  0  0
 19 17  2  0  0  0  0
 19 21  1  0  0  0  0
 20 19  1  0  0  0  0
 21 22  2  0  0  0  0
 22 15  1  0  0  0  0
 23 27  1  0  0  0  0
 24 25  1  0  0  0  0
 24 34  1  0  0  0  0
 25 30  1  0  0  0  0
 26 31  1  0  0  0  0
 26 25  2  0  0  0  0
 27 26  1  0  0  0  0
 28 27  2  0  0  0  0
 28 29  1  0  0  0  0
 29 24  2  0  0  0  0
 32 28  1  0  0  0  0
 33 38  1  0  0  0  0
 34 35  1  0  0  0  0
 34 33  2  0  0  0  0
 35 36  2  0  0  0  0
 36 37  1  0  0  0  0
 37 41  1  0  0  0  0
 38 37  2  0  0  0  0
 39 33  1  0  0  0  0
 40 35  1  0  0  0  0
M  END
>  <minimizedAffinity>
-5.84604168

$$$$

 OpenBabel03272510143D

 41 44  0  0  0  0  0  0  0  0999 V2000
   35.8080   28.9710   32.3700 C   0  0  0  0  0  0  0  0  0  0  0  0
   34.4720   29.1130   32.6530 C   0  0  0  0  0  0  0  0  0  0  0  0
   34.2160   30.4820   32.7510 C   0  0  0  0  0  0  0  0  0  0  0  0
   35.3640   31.1130   32.5330 N   0  0  0  0  0  0  0  0  0  0  0  0
   36.2780   30.2230   32.3130 N   0  0  0  0  0  0  0  0  0  0  0  0
   33.6320   28.4520   32.8060 H   0  0  0  0  0  0  0  0  0  0  0  0
   33.2970   31.0170   32.9590 H   0  0  0  0  0  0  0  0  0  0  0  0
   35.6020   32.5340   32.5320 C   0  0  0  0  0  0  0  0  0  0  0  0
   36.1200   32.8750   31.6060 H   0  0  0  0  0  0  0  0  0  0  0  0
   34.6160   33.0370   32.5030 H   0  0  0  0  0  0  0  0  0  0  0  0
   36.3420   32.9100   33.7730 C   0  0  0  0  0  0  0  0  0  0  0  0
   37.1030   32.0880   33.9310 H   0  0  0  0  0  0  0  0  0  0  0  0
   36.9980   33.7840   33.4790 H   0  0  0  0  0  0  0  0  0  0  0  0
   36.2320   30.9340   35.7870 F   0  0  0  0  0  0  0  0  0  0  0  0
   35.5710   32.1350   35.8900 C   0  0  0  0  0  0  0  0  0  0  0  0
   35.5480   33.1770   34.9620 C   0  0  0  0  0  0  0  0  0  0  0  0
   34.8030   34.2860   35.3060 C   0  0  0  0  0  0  0  0  0  0  0  0
   34.8090   35.0750   34.5790 H   0  0  0  0  0  0  0  0  0  0  0  0
   34.1080   34.3950   36.4870 C   0  0  0  0  0  0  0  0  0  0  0  0
   33.5570   35.3350   36.6280 H   0  0  0  0  0  0  0  0  0  0  0  0
   34.1430   33.3600   37.3860 C   0  0  0  0  0  3  0  0  0  0  0  0
   34.8760   32.2300   37.0860 C   0  0  0  0  0  3  0  0  0  0  0  0
   36.2400   27.6650   32.2380 O   0  0  0  0  0  0  0  0  0  0  0  0
   38.1270   25.2820   35.1500 C   0  0  0  0  0  0  0  0  0  0  0  0
   37.7630   26.5710   35.4150 C   0  0  0  0  0  0  0  0  0  0  0  0
   37.1460   27.3990   34.5160 C   0  0  0  0  0  0  0  0  0  0  0  0
   36.8520   26.9700   33.2610 C   0  0  0  0  0  0  0  0  0  0  0  0
   37.2220   25.6480   32.9760 C   0  0  0  0  0  0  0  0  0  0  0  0
   37.8260   24.8560   33.8800 N   0  0  0  0  0  0  0  0  0  0  0  0
   37.9650   26.9830   36.3960 H   0  0  0  0  0  0  0  0  0  0  0  0
   36.8610   28.4250   34.7400 H   0  0  0  0  0  0  0  0  0  0  0  0
   37.0490   25.1770   32.0200 H   0  0  0  0  0  0  0  0  0  0  0  0
   38.2690   24.1330   37.3530 C   0  0  0  0  0  0  0  0  0  0  0  0
   38.7700   24.3970   36.0680 C   0  0  0  0  0  0  0  0  0  0  0  0
   39.9290   23.7590   35.7200 C   0  0  0  0  0  0  0  0  0  0  0  0
   40.5400   22.9140   36.6000 N   0  0  0  0  0  0  0  0  0  0  0  0
   40.0030   22.6960   37.8380 C   0  0  0  0  0  0  0  0  0  0  0  0
   38.8660   23.2990   38.2300 N   0  0  0  0  0  0  0  0  0  0  0  0
   37.3580   24.6090   37.6810 H   0  0  0  0  0  0  0  0  0  0  0  0
   40.4010   23.8960   34.7440 H   0  0  0  0  0  0  0  0  0  0  0  0
   40.6030   22.0030   38.4180 H   0  0  0  0  0  0  0  0  0  0  0  0
  1  2  1  0  0  0  0
  2  3  2  0  0  0  0
  2  6  1  0  0  0  0
  3  7  1  0  0  0  0
  4  3  1  0  0  0  0
  5  1  2  0  0  0  0
  5  4  1  0  0  0  0
  8  4  1  0  0  0  0
  8 11  1  0  0  0  0
  9  8  1  0  0  0  0
 10  8  1  0  0  0  0
 11 12  1  0  0  0  0
 11 16  1  0  0  0  0
 13 11  1  0  0  0  0
 14 15  1  0  0  0  0
 15 22  1  0  0  0  0
 16 17  1  0  0  0  0
 16 15  2  0  0  0  0
 17 19  2  0  0  0  0
 18 17  1  0  0  0  0
 19 20  1  0  0  0  0
 19 21  1  0  0  0  0
 22 21  2  0  0  0  0
 23  1  1  0  0  0  0
 23 27  1  0  0  0  0
 24 25  1  0  0  0  0
 24 34  1  0  0  0  0
 25 30  1  0  0  0  0
 26 31  1  0  0  0  0
 26 25  2  0  0  0  0
 27 26  1  0  0  0  0
 28 27  2  0  0  0  0
 28 29  1  0  0  0  0
 29 24  2  0  0  0  0
 32 28  1  0  0  0  0
 33 39  1  0  0  0  0
 33 38  1  0  0  0  0
 34 33  2  0  0  0  0
 35 34  1  0  0  0  0
 35 36  2  0  0  0  0
 36 37  1  0  0  0  0
 37 38  2  0  0  0  0
 37 41  1  0  0  0  0
 40 35  1  0  0  0  0
M  END
>  <minimizedAffinity>
-5.82492924

$$$$
