
 OpenBabel03272510133D

 41 44  0  0  0  0  0  0  0  0999 V2000
   38.4350   31.4140   48.7680 C   0  0  0  0  0  0  0  0  0  0  0  0
   38.5140   32.6220   49.4160 C   0  0  0  0  0  0  0  0  0  0  0  0
   39.0890   33.5300   48.5250 C   0  0  0  0  0  0  0  0  0  0  0  0
   39.3350   32.8720   47.3970 N   0  0  0  0  0  0  0  0  0  0  0  0
   38.9500   31.6460   47.5540 N   0  0  0  0  0  0  0  0  0  0  0  0
   38.2520   33.0020   50.3920 H   0  0  0  0  0  0  0  0  0  0  0  0
   39.3250   34.5810   48.6390 H   0  0  0  0  0  0  0  0  0  0  0  0
   39.9260   33.3860   46.1880 C   0  0  0  0  0  0  0  0  0  0  0  0
   39.1750   33.8780   45.5280 H   0  0  0  0  0  0  0  0  0  0  0  0
   40.6200   34.2000   46.4760 H   0  0  0  0  0  0  0  0  0  0  0  0
   40.6650   32.2900   45.4960 C   0  0  0  0  0  0  0  0  0  0  0  0
   41.6470   32.7470   45.1710 H   0  0  0  0  0  0  0  0  0  0  0  0
   40.9940   31.5840   46.3170 H   0  0  0  0  0  0  0  0  0  0  0  0
   39.8940   33.7990   43.2370 F   0  0  0  0  0  0  0  0  0  0  0  0
   39.6490   32.4500   43.3470 C   0  0  0  0  0  0  0  0  0  0  0  0
   39.9760   31.6080   44.4110 C   0  0  0  0  0  0  0  0  0  0  0  0
   39.6180   30.2830   44.2750 C   0  0  0  0  0  0  0  0  0  0  0  0
   39.8900   29.6580   45.1030 H   0  0  0  0  0  0  0  0  0  0  0  0
   38.9740   29.7830   43.1700 C   0  0  0  0  0  0  0  0  0  0  0  0
   38.7480   28.7080   43.1970 H   0  0  0  0  0  0  0  0  0  0  0  0
   38.6590   30.6260   42.1340 C   0  0  0  0  0  3  0  0  0  0  0  0
   38.9980   31.9610   42.2250 C   0  0  0  0  0  3  0  0  0  0  0  0
   37.8850   30.3880   49.5120 O   0  0  0  0  0  0  0  0  0  0  0  0
   34.1460   28.8510   48.3410 C   0  0  0  0  0  0  0  0  0  0  0  0
   34.7780   28.4010   49.4640 C   0  0  0  0  0  0  0  0  0  0  0  0
   35.9920   28.8570   49.9020 C   0  0  0  0  0  0  0  0  0  0  0  0
   36.6630   29.8190   49.2170 C   0  0  0  0  0  0  0  0  0  0  0  0
   36.0250   30.2890   48.0600 C   0  0  0  0  0  0  0  0  0  0  0  0
   34.8310   29.8230   47.6530 N   0  0  0  0  0  0  0  0  0  0  0  0
   34.3020   27.6340   50.0620 H   0  0  0  0  0  0  0  0  0  0  0  0
   36.4850   28.4910   50.8000 H   0  0  0  0  0  0  0  0  0  0  0  0
   36.4440   31.0520   47.4200 H   0  0  0  0  0  0  0  0  0  0  0  0
   32.0310   27.5670   48.6150 C   0  0  0  0  0  0  0  0  0  0  0  0
   32.8810   28.3930   47.8620 C   0  0  0  0  0  0  0  0  0  0  0  0
   32.4390   28.7530   46.6180 C   0  0  0  0  0  0  0  0  0  0  0  0
   31.2290   28.3140   46.1630 N   0  0  0  0  0  0  0  0  0  0  0  0
   30.4460   27.5100   46.9450 C   0  0  0  0  0  0  0  0  0  0  0  0
   30.8340   27.1280   48.1750 N   0  0  0  0  0  0  0  0  0  0  0  0
   32.3300   27.2530   49.6030 H   0  0  0  0  0  0  0  0  0  0  0  0
   33.0240   29.3930   45.9520 H   0  0  0  0  0  0  0  0  0  0  0  0
   29.5200   27.2470   46.4460 H   0  0  0  0  0  0  0  0  0  0  0  0
  1  2  1  0  0  0  0
  1 23  1  0  0  0  0
  2  6  1  0  0  0  0
  3  7  1  0  0  0  0
  3  2  2  0  0  0  0
  4  5  1  0  0  0  0
  4  3  1  0  0  0  0
  5  1  2  0  0  0  0
  8 10  1  0  0  0  0
  8  4  1  0  0  0  0
  9  8  1  0  0  0  0
 11  8  1  0  0  0  0
 11 13  1  0  0  0  0
 12 11  1  0  0  0  0
 14 15  1  0  0  0  0
 15 16  1  0  0  0  0
 16 11  1  0  0  0  0
 17 16  2  0  0  0  0
 17 18  1  0  0  0  0
 19 20  1  0  0  0  0
 19 17  1  0  0  0  0
 21 22  1  0  0  0  0
 21 19  2  0  0  0  0
 22 15  2  0  0  0  0
 24 25  1  0  0  0  0
 25 26  2  0  0  0  0
 25 30  1  0  0  0  0
 26 31  1  0  0  0  0
 27 23  1  0  0  0  0
 27 26  1  0  0  0  0
 28 27  2  0  0  0  0
 29 28  1  0  0  0  0
 29 24  2  0  0  0  0
 32 28  1  0  0  0  0
 33 39  1  0  0  0  0
 34 24  1  0  0  0  0
 34 33  2  0  0  0  0
 35 34  1  0  0  0  0
 36 35  2  0  0  0  0
 36 37  1  0  0  0  0
 37 38  2  0  0  0  0
 38 33  1  0  0  0  0
 40 35  1  0  0  0  0
 41 37  1  0  0  0  0
M  END
>  <minimizedAffinity>
-6.37862444

>  <minimizedRMSD>
1.40050483

$$$$
