
 OpenBabel03272510133D

 41 44  0  0  0  0  0  0  0  0999 V2000
   38.4440   31.3830   48.7480 C   0  0  0  0  0  0  0  0  0  0  0  0
   38.4720   32.6090   49.3640 C   0  0  0  0  0  0  0  0  0  0  0  0
   39.0680   33.5040   48.4740 C   0  0  0  0  0  0  0  0  0  0  0  0
   39.3750   32.8210   47.3760 N   0  0  0  0  0  0  0  0  0  0  0  0
   39.0070   31.5920   47.5510 N   0  0  0  0  0  0  0  0  0  0  0  0
   38.1590   33.0100   50.3160 H   0  0  0  0  0  0  0  0  0  0  0  0
   39.2790   34.5620   48.5690 H   0  0  0  0  0  0  0  0  0  0  0  0
   40.0090   33.3130   46.1810 C   0  0  0  0  0  0  0  0  0  0  0  0
   39.3830   34.0690   45.6520 H   0  0  0  0  0  0  0  0  0  0  0  0
   40.9170   33.8680   46.4880 H   0  0  0  0  0  0  0  0  0  0  0  0
   40.3740   32.1600   45.3060 C   0  0  0  0  0  0  0  0  0  0  0  0
   41.4950   32.0470   45.4080 H   0  0  0  0  0  0  0  0  0  0  0  0
   39.9940   31.2410   45.8450 H   0  0  0  0  0  0  0  0  0  0  0  0
   41.2810   30.1620   43.5290 F   0  0  0  0  0  0  0  0  0  0  0  0
   40.4450   31.1790   43.1360 C   0  0  0  0  0  0  0  0  0  0  0  0
   39.9400   32.2180   43.9180 C   0  0  0  0  0  0  0  0  0  0  0  0
   39.1140   33.1200   43.2790 C   0  0  0  0  0  0  0  0  0  0  0  0
   38.7330   33.9030   43.9070 H   0  0  0  0  0  0  0  0  0  0  0  0
   38.7830   33.0330   41.9490 C   0  0  0  0  0  0  0  0  0  0  0  0
   38.1160   33.8200   41.5730 H   0  0  0  0  0  0  0  0  0  0  0  0
   39.2890   32.0050   41.1950 C   0  0  0  0  0  3  0  0  0  0  0  0
   40.1200   31.0770   41.7910 C   0  0  0  0  0  3  0  0  0  0  0  0
   37.8810   30.3670   49.4950 O   0  0  0  0  0  0  0  0  0  0  0  0
   34.1370   28.8510   48.3120 C   0  0  0  0  0  0  0  0  0  0  0  0
   34.7590   28.4040   49.4420 C   0  0  0  0  0  0  0  0  0  0  0  0
   35.9730   28.8540   49.8840 C   0  0  0  0  0  0  0  0  0  0  0  0
   36.6570   29.8050   49.1970 C   0  0  0  0  0  0  0  0  0  0  0  0
   36.0290   30.2730   48.0330 C   0  0  0  0  0  0  0  0  0  0  0  0
   34.8330   29.8130   47.6220 N   0  0  0  0  0  0  0  0  0  0  0  0
   34.2730   27.6440   50.0420 H   0  0  0  0  0  0  0  0  0  0  0  0
   36.4580   28.4890   50.7880 H   0  0  0  0  0  0  0  0  0  0  0  0
   36.4570   31.0280   47.3900 H   0  0  0  0  0  0  0  0  0  0  0  0
   32.0140   27.5790   48.5790 C   0  0  0  0  0  0  0  0  0  0  0  0
   32.8710   28.4000   47.8280 C   0  0  0  0  0  0  0  0  0  0  0  0
   32.4360   28.7610   46.5830 C   0  0  0  0  0  0  0  0  0  0  0  0
   31.2250   28.3290   46.1240 N   0  0  0  0  0  0  0  0  0  0  0  0
   30.4350   27.5300   46.9020 C   0  0  0  0  0  0  0  0  0  0  0  0
   30.8160   27.1460   48.1350 N   0  0  0  0  0  0  0  0  0  0  0  0
   32.3070   27.2630   49.5680 H   0  0  0  0  0  0  0  0  0  0  0  0
   33.0270   29.3980   45.9190 H   0  0  0  0  0  0  0  0  0  0  0  0
   29.5100   27.2710   46.4010 H   0  0  0  0  0  0  0  0  0  0  0  0
  1  2  1  0  0  0  0
  1 23  1  0  0  0  0
  2  6  1  0  0  0  0
  3  7  1  0  0  0  0
  3  2  2  0  0  0  0
  4  5  1  0  0  0  0
  4  3  1  0  0  0  0
  5  1  2  0  0  0  0
  8 10  1  0  0  0  0
  8  4  1  0  0  0  0
  9  8  1  0  0  0  0
 11 12  1  0  0  0  0
 11 13  1  0  0  0  0
 11  8  1  0  0  0  0
 15 14  1  0  0  0  0
 15 16  1  0  0  0  0
 16 11  1  0  0  0  0
 17 18  1  0  0  0  0
 17 16  2  0  0  0  0
 19 17  1  0  0  0  0
 20 19  1  0  0  0  0
 21 22  1  0  0  0  0
 21 19  2  0  0  0  0
 22 15  2  0  0  0  0
 24 25  1  0  0  0  0
 25 26  2  0  0  0  0
 25 30  1  0  0  0  0
 26 31  1  0  0  0  0
 27 23  1  0  0  0  0
 27 26  1  0  0  0  0
 28 27  2  0  0  0  0
 29 28  1  0  0  0  0
 29 24  2  0  0  0  0
 32 28  1  0  0  0  0
 33 39  1  0  0  0  0
 34 24  1  0  0  0  0
 34 33  2  0  0  0  0
 35 34  1  0  0  0  0
 36 35  2  0  0  0  0
 36 37  1  0  0  0  0
 37 38  2  0  0  0  0
 38 33  1  0  0  0  0
 40 35  1  0  0  0  0
 41 37  1  0  0  0  0
M  END
>  <minimizedAffinity>
-6.39940023

>  <minimizedRMSD>
1.68535066

$$$$
