
 OpenBabel03272510133D

 41 44  0  0  0  0  0  0  0  0999 V2000
   38.4340   31.4170   48.7710 C   0  0  0  0  0  0  0  0  0  0  0  0
   38.5130   32.6250   49.4180 C   0  0  0  0  0  0  0  0  0  0  0  0
   39.0880   33.5320   48.5270 C   0  0  0  0  0  0  0  0  0  0  0  0
   39.3340   32.8730   47.3990 N   0  0  0  0  0  0  0  0  0  0  0  0
   38.9490   31.6480   47.5570 N   0  0  0  0  0  0  0  0  0  0  0  0
   38.2500   33.0050   50.3940 H   0  0  0  0  0  0  0  0  0  0  0  0
   39.3250   34.5830   48.6410 H   0  0  0  0  0  0  0  0  0  0  0  0
   39.9250   33.3870   46.1900 C   0  0  0  0  0  0  0  0  0  0  0  0
   39.1750   33.8780   45.5290 H   0  0  0  0  0  0  0  0  0  0  0  0
   40.6200   34.2000   46.4770 H   0  0  0  0  0  0  0  0  0  0  0  0
   40.6640   32.2890   45.4990 C   0  0  0  0  0  0  0  0  0  0  0  0
   41.6470   32.7460   45.1740 H   0  0  0  0  0  0  0  0  0  0  0  0
   40.9920   31.5830   46.3200 H   0  0  0  0  0  0  0  0  0  0  0  0
   39.8950   33.7990   43.2400 F   0  0  0  0  0  0  0  0  0  0  0  0
   39.6490   32.4520   43.3490 C   0  0  0  0  0  0  0  0  0  0  0  0
   39.9750   31.6090   44.4130 C   0  0  0  0  0  0  0  0  0  0  0  0
   39.6160   30.2840   44.2770 C   0  0  0  0  0  0  0  0  0  0  0  0
   39.8870   29.6580   45.1050 H   0  0  0  0  0  0  0  0  0  0  0  0
   38.9700   29.7860   43.1710 C   0  0  0  0  0  0  0  0  0  0  0  0
   38.7440   28.7100   43.1970 H   0  0  0  0  0  0  0  0  0  0  0  0
   38.6570   30.6280   42.1350 C   0  0  0  0  0  3  0  0  0  0  0  0
   38.9980   31.9620   42.2260 C   0  0  0  0  0  3  0  0  0  0  0  0
   37.8830   30.3910   49.5150 O   0  0  0  0  0  0  0  0  0  0  0  0
   34.1450   28.8520   48.3420 C   0  0  0  0  0  0  0  0  0  0  0  0
   34.7780   28.4010   49.4640 C   0  0  0  0  0  0  0  0  0  0  0  0
   35.9920   28.8570   49.9030 C   0  0  0  0  0  0  0  0  0  0  0  0
   36.6620   29.8210   49.2190 C   0  0  0  0  0  0  0  0  0  0  0  0
   36.0230   30.2930   48.0640 C   0  0  0  0  0  0  0  0  0  0  0  0
   34.8280   29.8270   47.6570 N   0  0  0  0  0  0  0  0  0  0  0  0
   34.3040   27.6310   50.0600 H   0  0  0  0  0  0  0  0  0  0  0  0
   36.4860   28.4890   50.8000 H   0  0  0  0  0  0  0  0  0  0  0  0
   36.4400   31.0580   47.4260 H   0  0  0  0  0  0  0  0  0  0  0  0
   32.0320   27.5650   48.6150 C   0  0  0  0  0  0  0  0  0  0  0  0
   32.8800   28.3940   47.8630 C   0  0  0  0  0  0  0  0  0  0  0  0
   32.4370   28.7560   46.6200 C   0  0  0  0  0  0  0  0  0  0  0  0
   31.2280   28.3170   46.1650 N   0  0  0  0  0  0  0  0  0  0  0  0
   30.4460   27.5100   46.9450 C   0  0  0  0  0  0  0  0  0  0  0  0
   30.8360   27.1250   48.1740 N   0  0  0  0  0  0  0  0  0  0  0  0
   32.3320   27.2480   49.6020 H   0  0  0  0  0  0  0  0  0  0  0  0
   33.0210   29.3990   45.9560 H   0  0  0  0  0  0  0  0  0  0  0  0
   29.5210   27.2470   46.4460 H   0  0  0  0  0  0  0  0  0  0  0  0
  1  2  1  0  0  0  0
  1 23  1  0  0  0  0
  2  6  1  0  0  0  0
  3  7  1  0  0  0  0
  3  2  2  0  0  0  0
  4  5  1  0  0  0  0
  4  3  1  0  0  0  0
  5  1  2  0  0  0  0
  8 10  1  0  0  0  0
  8  4  1  0  0  0  0
  9  8  1  0  0  0  0
 11  8  1  0  0  0  0
 11 13  1  0  0  0  0
 12 11  1  0  0  0  0
 14 15  1  0  0  0  0
 15 16  1  0  0  0  0
 16 11  1  0  0  0  0
 17 16  2  0  0  0  0
 17 18  1  0  0  0  0
 19 20  1  0  0  0  0
 19 17  1  0  0  0  0
 21 22  1  0  0  0  0
 21 19  2  0  0  0  0
 22 15  2  0  0  0  0
 24 25  1  0  0  0  0
 25 26  2  0  0  0  0
 25 30  1  0  0  0  0
 26 31  1  0  0  0  0
 27 23  1  0  0  0  0
 27 26  1  0  0  0  0
 28 27  2  0  0  0  0
 29 28  1  0  0  0  0
 29 24  2  0  0  0  0
 32 28  1  0  0  0  0
 33 39  1  0  0  0  0
 34 24  1  0  0  0  0
 34 33  2  0  0  0  0
 35 34  1  0  0  0  0
 36 35  2  0  0  0  0
 36 37  1  0  0  0  0
 37 38  2  0  0  0  0
 38 33  1  0  0  0  0
 40 35  1  0  0  0  0
 41 37  1  0  0  0  0
M  END
>  <minimizedAffinity>
-6.37783575

>  <minimizedRMSD>
1.30678713

$$$$
