
 OpenBabel03272510133D

 41 44  0  0  0  0  0  0  0  0999 V2000
   38.4350   31.4080   48.7970 C   0  0  0  0  0  0  0  0  0  0  0  0
   38.4490   32.6320   49.4170 C   0  0  0  0  0  0  0  0  0  0  0  0
   39.0480   33.5330   48.5340 C   0  0  0  0  0  0  0  0  0  0  0  0
   39.3710   32.8550   47.4390 N   0  0  0  0  0  0  0  0  0  0  0  0
   39.0090   31.6230   47.6060 N   0  0  0  0  0  0  0  0  0  0  0  0
   38.1240   33.0290   50.3670 H   0  0  0  0  0  0  0  0  0  0  0  0
   39.2520   34.5920   48.6340 H   0  0  0  0  0  0  0  0  0  0  0  0
   40.0130   33.3550   46.2500 C   0  0  0  0  0  0  0  0  0  0  0  0
   39.4000   34.1280   45.7330 H   0  0  0  0  0  0  0  0  0  0  0  0
   40.9300   33.8900   46.5660 H   0  0  0  0  0  0  0  0  0  0  0  0
   40.3600   32.2090   45.3590 C   0  0  0  0  0  0  0  0  0  0  0  0
   41.4800   32.2690   45.2130 H   0  0  0  0  0  0  0  0  0  0  0  0
   40.2560   31.2840   46.0020 H   0  0  0  0  0  0  0  0  0  0  0  0
   41.2880   30.3780   43.4200 F   0  0  0  0  0  0  0  0  0  0  0  0
   40.1790   31.1670   43.2240 C   0  0  0  0  0  0  0  0  0  0  0  0
   39.6350   32.1040   44.1020 C   0  0  0  0  0  0  0  0  0  0  0  0
   38.5080   32.7700   43.6650 C   0  0  0  0  0  0  0  0  0  0  0  0
   38.1060   33.4790   44.3640 H   0  0  0  0  0  0  0  0  0  0  0  0
   37.9270   32.5500   42.4410 C   0  0  0  0  0  0  0  0  0  0  0  0
   37.0330   33.1520   42.2230 H   0  0  0  0  0  0  0  0  0  0  0  0
   38.4750   31.6240   41.5900 C   0  0  0  0  0  3  0  0  0  0  0  0
   39.6030   30.9330   41.9840 C   0  0  0  0  0  3  0  0  0  0  0  0
   37.8720   30.3860   49.5360 O   0  0  0  0  0  0  0  0  0  0  0  0
   34.1420   28.8590   48.3200 C   0  0  0  0  0  0  0  0  0  0  0  0
   34.7580   28.4090   49.4520 C   0  0  0  0  0  0  0  0  0  0  0  0
   35.9680   28.8620   49.9050 C   0  0  0  0  0  0  0  0  0  0  0  0
   36.6520   29.8200   49.2260 C   0  0  0  0  0  0  0  0  0  0  0  0
   36.0300   30.2900   48.0610 C   0  0  0  0  0  0  0  0  0  0  0  0
   34.8390   29.8280   47.6400 N   0  0  0  0  0  0  0  0  0  0  0  0
   34.2720   27.6450   50.0450 H   0  0  0  0  0  0  0  0  0  0  0  0
   36.4490   28.4950   50.8100 H   0  0  0  0  0  0  0  0  0  0  0  0
   36.4590   31.0510   47.4250 H   0  0  0  0  0  0  0  0  0  0  0  0
   32.0130   27.5960   48.5760 C   0  0  0  0  0  0  0  0  0  0  0  0
   32.8820   28.4050   47.8260 C   0  0  0  0  0  0  0  0  0  0  0  0
   32.4640   28.7510   46.5700 C   0  0  0  0  0  0  0  0  0  0  0  0
   31.2590   28.3150   46.1010 N   0  0  0  0  0  0  0  0  0  0  0  0
   30.4560   27.5290   46.8790 C   0  0  0  0  0  0  0  0  0  0  0  0
   30.8200   27.1600   48.1220 N   0  0  0  0  0  0  0  0  0  0  0  0
   32.2920   27.2930   49.5730 H   0  0  0  0  0  0  0  0  0  0  0  0
   33.0660   29.3760   45.9050 H   0  0  0  0  0  0  0  0  0  0  0  0
   29.5370   27.2660   46.3690 H   0  0  0  0  0  0  0  0  0  0  0  0
  1  2  1  0  0  0  0
  1 23  1  0  0  0  0
  2  6  1  0  0  0  0
  3  7  1  0  0  0  0
  3  2  2  0  0  0  0
  4  5  1  0  0  0  0
  4  3  1  0  0  0  0
  5  1  2  0  0  0  0
  8 10  1  0  0  0  0
  8  4  1  0  0  0  0
  9  8  1  0  0  0  0
 11 13  1  0  0  0  0
 11  8  1  0  0  0  0
 12 11  1  0  0  0  0
 15 14  1  0  0  0  0
 15 16  1  0  0  0  0
 16 11  1  0  0  0  0
 17 16  2  0  0  0  0
 17 18  1  0  0  0  0
 19 17  1  0  0  0  0
 20 19  1  0  0  0  0
 21 22  1  0  0  0  0
 21 19  2  0  0  0  0
 22 15  2  0  0  0  0
 24 25  1  0  0  0  0
 25 26  2  0  0  0  0
 25 30  1  0  0  0  0
 26 31  1  0  0  0  0
 27 23  1  0  0  0  0
 27 26  1  0  0  0  0
 28 27  2  0  0  0  0
 29 28  1  0  0  0  0
 29 24  2  0  0  0  0
 32 28  1  0  0  0  0
 33 39  1  0  0  0  0
 34 24  1  0  0  0  0
 34 33  2  0  0  0  0
 35 34  1  0  0  0  0
 36 35  2  0  0  0  0
 36 37  1  0  0  0  0
 37 38  2  0  0  0  0
 38 33  1  0  0  0  0
 40 35  1  0  0  0  0
 41 37  1  0  0  0  0
M  END
>  <minimizedAffinity>
-6.318295

>  <minimizedRMSD>
1.49313736

$$$$
