
 OpenBabel03272506423D

 32 34  0  0  1  0  0  0  0  0999 V2000
   32.3780   28.3570   47.5880 C   0  0  2  0  0  0  0  0  0  0  0  0
   33.6730   28.3390   48.3760 C   0  0  1  0  0  0  0  0  0  0  0  0
   34.2080   27.0750   48.2780 O   0  0  0  0  0  0  0  0  0  0  0  0
   33.5040   26.3530   47.3380 C   0  0  0  0  0  0  0  0  0  0  0  0
   32.7490   27.3810   46.4780 C   0  0  1  0  0  0  0  0  0  0  0  0
   31.5090   28.0020   48.1450 H   0  0  0  0  0  0  0  0  0  0  0  0
   33.5380   28.6800   49.4170 H   0  0  0  0  0  0  0  0  0  0  0  0
   34.2050   25.7660   46.7050 H   0  0  0  0  0  0  0  0  0  0  0  0
   32.7180   25.7190   47.7990 H   0  0  0  0  0  0  0  0  0  0  0  0
   33.4740   27.8670   45.8280 H   0  0  0  0  0  0  0  0  0  0  0  0
   32.1270   29.6370   47.0730 O   0  0  0  0  0  0  0  0  0  0  0  0
   32.8280   29.9470   46.4760 H   0  0  0  0  0  0  0  0  0  0  0  0
   34.8160   29.4920   47.5340 S   0  0  0  0  0  0  0  0  0  0  0  0
   37.3920   29.4800   50.5490 C   0  0  0  0  0  0  0  0  0  0  0  0
   37.9940   30.7410   50.5180 C   0  0  0  0  0  0  0  0  0  0  0  0
   37.5860   31.6350   49.5230 C   0  0  0  0  0  0  0  0  0  0  0  0
   36.6300   31.2350   48.6410 N   0  0  0  0  0  0  0  0  0  0  0  0
   36.0690   30.0020   48.7020 C   0  0  0  0  0  0  0  0  0  0  0  0
   36.4440   29.1270   49.6480 N   0  0  0  0  0  0  0  0  0  0  0  0
   37.6730   28.7530   51.2990 H   0  0  0  0  0  0  0  0  0  0  0  0
   38.7430   30.9950   51.2450 H   0  0  0  0  0  0  0  0  0  0  0  0
   38.0320   32.6200   49.4710 H   0  0  0  0  0  0  0  0  0  0  0  0
   31.6480   26.7910   45.9050 O   0  0  0  0  0  0  0  0  0  0  0  0
   32.6430   26.2620   43.4620 F   0  0  0  0  0  0  0  0  0  0  0  0
   31.5330   27.0180   43.6380 C   0  0  0  0  0  0  0  0  0  0  0  0
   30.9360   27.3530   44.8590 C   0  0  0  0  0  0  0  0  0  0  0  0
   29.8020   28.1370   44.8740 C   0  0  0  0  0  0  0  0  0  0  0  0
   29.4390   28.3220   45.8660 H   0  0  0  0  0  0  0  0  0  0  0  0
   29.2660   28.5850   43.6850 C   0  0  0  0  0  0  0  0  0  0  0  0
   28.3810   29.1900   43.7950 H   0  0  0  0  0  0  0  0  0  0  0  0
   29.8420   28.2660   42.4640 C   0  0  0  0  0  3  0  0  0  0  0  0
   30.9870   27.4740   42.4360 C   0  0  0  0  0  3  0  0  0  0  0  0
  1  6  1  1  0  0  0
  1  2  1  0  0  0  0
  2  7  1  1  0  0  0
  3  2  1  0  0  0  0
  4  9  1  0  0  0  0
  4  3  1  0  0  0  0
  5 10  1  6  0  0  0
  5  4  1  0  0  0  0
  5  1  1  0  0  0  0
  8  4  1  0  0  0  0
 11  1  1  0  0  0  0
 12 11  1  0  0  0  0
 13  2  1  0  0  0  0
 13 18  1  0  0  0  0
 14 20  1  0  0  0  0
 15 14  1  0  0  0  0
 15 21  1  0  0  0  0
 16 15  2  0  0  0  0
 17 18  2  0  0  0  0
 17 16  1  0  0  0  0
 18 19  1  0  0  0  0
 19 14  2  0  0  0  0
 22 16  1  0  0  0  0
 23  5  1  0  0  0  0
 24 25  1  0  0  0  0
 25 26  1  0  0  0  0
 26 27  2  0  0  0  0
 26 23  1  0  0  0  0
 27 28  1  0  0  0  0
 29 30  1  0  0  0  0
 29 27  1  0  0  0  0
 31 29  2  0  0  0  0
 32 31  1  0  0  0  0
 32 25  2  0  0  0  0
M  END
>  <minimizedAffinity>
-3.80294132

>  <minimizedRMSD>
1.23818791

$$$$
