
 OpenBabel03272507383D

 23 24  0  0  0  0  0  0  0  0999 V2000
   39.7830   23.6020   35.5870 C   0  0  0  0  0  0  0  0  0  0  0  0
   39.5610   22.8940   36.7750 C   0  0  0  0  0  0  0  0  0  0  0  0
   40.6200   22.3960   37.4960 C   0  0  0  0  0  0  0  0  0  0  0  0
   41.8830   22.6230   37.0000 N   0  0  0  0  0  0  0  0  0  0  0  0
   42.0770   23.3070   35.8520 C   0  0  0  0  0  0  0  0  0  0  0  0
   41.0560   23.7860   35.1570 N   0  0  0  0  0  0  0  0  0  0  0  0
   40.5300   21.8420   38.4220 H   0  0  0  0  0  0  0  0  0  0  0  0
   43.0940   23.4240   35.5580 H   0  0  0  0  0  0  0  0  0  0  0  0
   37.7510   23.5330   38.2870 C   0  0  0  0  0  0  0  0  0  0  0  0
   38.1490   24.5830   38.8850 O   0  0  0  0  0  0  0  0  0  0  0  0
   38.2990   22.6350   37.3280 N   0  0  0  0  0  0  0  0  0  0  0  0
   36.7450   23.4540   38.7350 H   0  0  0  0  0  0  0  0  0  0  0  0
   37.6300   21.8430   37.1520 H   0  0  0  0  0  0  0  0  0  0  0  0
   38.6180   24.0200   35.0070 O   0  0  0  0  0  0  0  0  0  0  0  0
   37.2210   24.7290   32.7420 F   0  0  0  0  0  0  0  0  0  0  0  0
   37.4890   25.6130   33.7310 C   0  0  0  0  0  0  0  0  0  0  0  0
   38.1840   25.3160   34.8870 C   0  0  0  0  0  0  0  0  0  0  0  0
   38.3770   26.3170   35.7970 C   0  0  0  0  0  0  0  0  0  0  0  0
   38.9320   26.0620   36.7080 H   0  0  0  0  0  0  0  0  0  0  0  0
   37.9390   27.6140   35.6700 C   0  0  0  0  0  0  0  0  0  0  0  0
   38.1240   28.3630   36.4280 H   0  0  0  0  0  0  0  0  0  0  0  0
   37.2430   27.8690   34.4910 C   0  0  0  0  0  3  0  0  0  0  0  0
   37.0240   26.9000   33.5490 C   0  0  0  0  0  3  0  0  0  0  0  0
  1  2  1  0  0  0  0
  2 11  1  0  0  0  0
  2  3  2  0  0  0  0
  3  7  1  0  0  0  0
  4  3  1  0  0  0  0
  5  4  2  0  0  0  0
  6  1  2  0  0  0  0
  6  5  1  0  0  0  0
  8  5  1  0  0  0  0
  9 12  1  0  0  0  0
  9 10  2  0  0  0  0
 11  9  1  0  0  0  0
 13 11  1  0  0  0  0
 14  1  1  0  0  0  0
 15 16  1  0  0  0  0
 16 17  1  0  0  0  0
 17 14  1  0  0  0  0
 17 18  2  0  0  0  0
 18 19  1  0  0  0  0
 20 18  1  0  0  0  0
 20 21  1  0  0  0  0
 22 20  2  0  0  0  0
 23 16  2  0  0  0  0
 23 22  1  0  0  0  0
M  END
>  <minimizedAffinity>
-4.86392546

$$$$

 OpenBabel03272507383D

 23 24  0  0  0  0  0  0  0  0999 V2000
   39.5380   23.8660   35.5450 C   0  0  0  0  0  0  0  0  0  0  0  0
   39.5690   23.0660   36.6940 C   0  0  0  0  0  0  0  0  0  0  0  0
   40.7690   22.6680   37.2320 C   0  0  0  0  0  0  0  0  0  0  0  0
   41.9150   23.0860   36.5960 N   0  0  0  0  0  0  0  0  0  0  0  0
   41.8650   23.8560   35.4880 C   0  0  0  0  0  0  0  0  0  0  0  0
   40.7070   24.2400   34.9700 N   0  0  0  0  0  0  0  0  0  0  0  0
   40.8750   22.0530   38.1170 H   0  0  0  0  0  0  0  0  0  0  0  0
   42.8110   24.1220   35.0750 H   0  0  0  0  0  0  0  0  0  0  0  0
   37.8790   23.4060   38.4260 C   0  0  0  0  0  0  0  0  0  0  0  0
   38.1860   24.4980   39.0040 O   0  0  0  0  0  0  0  0  0  0  0  0
   38.4350   22.6130   37.3830 N   0  0  0  0  0  0  0  0  0  0  0  0
   36.9580   23.1710   38.9870 H   0  0  0  0  0  0  0  0  0  0  0  0
   37.8750   21.7300   37.2650 H   0  0  0  0  0  0  0  0  0  0  0  0
   38.2620   24.1630   35.1540 O   0  0  0  0  0  0  0  0  0  0  0  0
   38.1770   26.4180   36.7330 F   0  0  0  0  0  0  0  0  0  0  0  0
   37.8120   26.4350   35.4290 C   0  0  0  0  0  0  0  0  0  0  0  0
   37.8330   25.3380   34.5900 C   0  0  0  0  0  0  0  0  0  0  0  0
   37.4340   25.5110   33.2950 C   0  0  0  0  0  0  0  0  0  0  0  0
   37.4580   24.6280   32.6450 H   0  0  0  0  0  0  0  0  0  0  0  0
   37.0050   26.6920   32.7370 C   0  0  0  0  0  0  0  0  0  0  0  0
   36.7010   26.7650   31.7010 H   0  0  0  0  0  0  0  0  0  0  0  0
   36.9990   27.7710   33.6180 C   0  0  0  0  0  3  0  0  0  0  0  0
   37.3900   27.6480   34.9240 C   0  0  0  0  0  3  0  0  0  0  0  0
  1  2  1  0  0  0  0
  2  3  2  0  0  0  0
  2 11  1  0  0  0  0
  3  7  1  0  0  0  0
  4  3  1  0  0  0  0
  5  4  2  0  0  0  0
  6  5  1  0  0  0  0
  6  1  2  0  0  0  0
  8  5  1  0  0  0  0
  9 12  1  0  0  0  0
  9 10  2  0  0  0  0
 11  9  1  0  0  0  0
 13 11  1  0  0  0  0
 14  1  1  0  0  0  0
 16 15  1  0  0  0  0
 17 14  1  0  0  0  0
 17 16  2  0  0  0  0
 18 17  1  0  0  0  0
 19 18  1  0  0  0  0
 20 18  2  0  0  0  0
 20 22  1  0  0  0  0
 21 20  1  0  0  0  0
 22 23  2  0  0  0  0
 23 16  1  0  0  0  0
M  END
>  <minimizedAffinity>
-4.82974625

$$$$

 OpenBabel03272507383D

 23 24  0  0  0  0  0  0  0  0999 V2000
   38.1430   24.1650   34.5330 C   0  0  0  0  0  0  0  0  0  0  0  0
   38.0660   24.9670   35.6780 C   0  0  0  0  0  0  0  0  0  0  0  0
   38.0880   24.3980   36.9280 C   0  0  0  0  0  0  0  0  0  0  0  0
   38.1870   23.0280   36.9970 N   0  0  0  0  0  0  0  0  0  0  0  0
   38.2600   22.2710   35.8810 C   0  0  0  0  0  0  0  0  0  0  0  0
   38.2380   22.8200   34.6760 N   0  0  0  0  0  0  0  0  0  0  0  0
   38.0340   24.9510   37.8590 H   0  0  0  0  0  0  0  0  0  0  0  0
   38.3330   21.2210   36.0480 H   0  0  0  0  0  0  0  0  0  0  0  0
   39.1100   27.1530   35.3630 C   0  0  0  0  0  0  0  0  0  0  0  0
   40.3380   26.9230   35.1250 O   0  0  0  0  0  0  0  0  0  0  0  0
   37.9650   26.3660   35.6690 N   0  0  0  0  0  0  0  0  0  0  0  0
   39.1230   28.2530   35.2700 H   0  0  0  0  0  0  0  0  0  0  0  0
   37.1390   26.9890   35.8580 H   0  0  0  0  0  0  0  0  0  0  0  0
   38.1070   24.8990   33.3810 O   0  0  0  0  0  0  0  0  0  0  0  0
   37.2150   27.4070   32.6740 F   0  0  0  0  0  0  0  0  0  0  0  0
   36.6520   26.2770   32.1860 C   0  0  0  0  0  0  0  0  0  0  0  0
   37.0550   24.9940   32.5050 C   0  0  0  0  0  0  0  0  0  0  0  0
   36.3880   23.9490   31.9310 C   0  0  0  0  0  0  0  0  0  0  0  0
   36.7230   22.9390   32.1960 H   0  0  0  0  0  0  0  0  0  0  0  0
   35.3350   24.0530   31.0530 C   0  0  0  0  0  0  0  0  0  0  0  0
   34.8460   23.1840   30.6320 H   0  0  0  0  0  0  0  0  0  0  0  0
   34.9610   25.3620   30.7610 C   0  0  0  0  0  3  0  0  0  0  0  0
   35.5990   26.4420   31.3090 C   0  0  0  0  0  3  0  0  0  0  0  0
  1  6  2  0  0  0  0
  1  2  1  0  0  0  0
  2  3  2  0  0  0  0
  3  4  1  0  0  0  0
  3  7  1  0  0  0  0
  5  8  1  0  0  0  0
  5  4  2  0  0  0  0
  6  5  1  0  0  0  0
  9 11  1  0  0  0  0
 10  9  2  0  0  0  0
 11  2  1  0  0  0  0
 11 13  1  0  0  0  0
 12  9  1  0  0  0  0
 14  1  1  0  0  0  0
 16 17  1  0  0  0  0
 16 15  1  0  0  0  0
 17 14  1  0  0  0  0
 18 19  1  0  0  0  0
 18 17  2  0  0  0  0
 20 18  1  0  0  0  0
 21 20  1  0  0  0  0
 22 20  2  0  0  0  0
 22 23  1  0  0  0  0
 23 16  2  0  0  0  0
M  END
>  <minimizedAffinity>
-4.64300203

$$$$

 OpenBabel03272507383D

 23 24  0  0  0  0  0  0  0  0999 V2000
   38.7720   22.2250   34.5100 C   0  0  0  0  0  0  0  0  0  0  0  0
   38.8870   22.2620   35.9050 C   0  0  0  0  0  0  0  0  0  0  0  0
   40.1100   22.0930   36.5080 C   0  0  0  0  0  0  0  0  0  0  0  0
   41.1940   21.8880   35.6870 N   0  0  0  0  0  0  0  0  0  0  0  0
   41.0640   21.8550   34.3430 C   0  0  0  0  0  0  0  0  0  0  0  0
   39.8850   22.0180   33.7630 N   0  0  0  0  0  0  0  0  0  0  0  0
   40.2780   22.1100   37.5780 H   0  0  0  0  0  0  0  0  0  0  0  0
   41.9670   21.6890   33.8020 H   0  0  0  0  0  0  0  0  0  0  0  0
   37.5480   23.7780   37.2770 C   0  0  0  0  0  0  0  0  0  0  0  0
   38.0920   24.9220   37.1660 O   0  0  0  0  0  0  0  0  0  0  0  0
   37.8180   22.4680   36.7900 N   0  0  0  0  0  0  0  0  0  0  0  0
   36.6990   24.0570   37.9250 H   0  0  0  0  0  0  0  0  0  0  0  0
   37.1250   21.7850   37.1900 H   0  0  0  0  0  0  0  0  0  0  0  0
   37.4850   22.4120   34.0890 O   0  0  0  0  0  0  0  0  0  0  0  0
   35.7300   20.5720   35.1490 F   0  0  0  0  0  0  0  0  0  0  0  0
   35.9180   20.7070   33.8150 C   0  0  0  0  0  0  0  0  0  0  0  0
   36.7830   21.6090   33.2270 C   0  0  0  0  0  0  0  0  0  0  0  0
   36.8640   21.6270   31.8630 C   0  0  0  0  0  0  0  0  0  0  0  0
   37.5560   22.3500   31.4160 H   0  0  0  0  0  0  0  0  0  0  0  0
   36.1560   20.8200   31.0050 C   0  0  0  0  0  0  0  0  0  0  0  0
   36.2650   20.8830   29.9300 H   0  0  0  0  0  0  0  0  0  0  0  0
   35.2970   19.9260   31.6390 C   0  0  0  0  0  3  0  0  0  0  0  0
   35.1800   19.8690   33.0020 C   0  0  0  0  0  3  0  0  0  0  0  0
  1  2  1  0  0  0  0
  2  3  2  0  0  0  0
  2 11  1  0  0  0  0
  3  7  1  0  0  0  0
  4  3  1  0  0  0  0
  5  4  2  0  0  0  0
  6  5  1  0  0  0  0
  6  1  2  0  0  0  0
  8  5  1  0  0  0  0
  9 12  1  0  0  0  0
 10  9  2  0  0  0  0
 11 13  1  0  0  0  0
 11  9  1  0  0  0  0
 14  1  1  0  0  0  0
 16 15  1  0  0  0  0
 17 16  1  0  0  0  0
 17 14  1  0  0  0  0
 18 17  2  0  0  0  0
 19 18  1  0  0  0  0
 20 22  2  0  0  0  0
 20 18  1  0  0  0  0
 21 20  1  0  0  0  0
 22 23  1  0  0  0  0
 23 16  2  0  0  0  0
M  END
>  <minimizedAffinity>
-4.63669777

$$$$

 OpenBabel03272507383D

 23 24  0  0  0  0  0  0  0  0999 V2000
   38.0880   23.5800   34.5540 C   0  0  0  0  0  0  0  0  0  0  0  0
   38.3860   23.5710   35.9230 C   0  0  0  0  0  0  0  0  0  0  0  0
   38.3270   24.7330   36.6540 C   0  0  0  0  0  0  0  0  0  0  0  0
   37.9690   25.8810   35.9870 N   0  0  0  0  0  0  0  0  0  0  0  0
   37.6850   25.8700   34.6670 C   0  0  0  0  0  0  0  0  0  0  0  0
   37.7420   24.7500   33.9620 N   0  0  0  0  0  0  0  0  0  0  0  0
   38.5420   24.8060   37.7130 H   0  0  0  0  0  0  0  0  0  0  0  0
   37.4190   26.8140   34.2500 H   0  0  0  0  0  0  0  0  0  0  0  0
   40.1210   22.2250   36.9930 C   0  0  0  0  0  0  0  0  0  0  0  0
   41.2220   22.8150   36.7480 O   0  0  0  0  0  0  0  0  0  0  0  0
   38.7550   22.4330   36.6530 N   0  0  0  0  0  0  0  0  0  0  0  0
   40.5070   21.3980   37.6140 H   0  0  0  0  0  0  0  0  0  0  0  0
   38.1670   21.6450   37.0270 H   0  0  0  0  0  0  0  0  0  0  0  0
   38.1980   22.3390   33.9910 O   0  0  0  0  0  0  0  0  0  0  0  0
   36.1350   20.9730   35.2000 F   0  0  0  0  0  0  0  0  0  0  0  0
   36.2590   21.0500   33.8540 C   0  0  0  0  0  0  0  0  0  0  0  0
   37.2710   21.7190   33.1930 C   0  0  0  0  0  0  0  0  0  0  0  0
   37.2640   21.7070   31.8260 C   0  0  0  0  0  0  0  0  0  0  0  0
   38.0750   22.2440   31.3200 H   0  0  0  0  0  0  0  0  0  0  0  0
   36.3310   21.0830   31.0330 C   0  0  0  0  0  0  0  0  0  0  0  0
   36.3800   21.1110   29.9520 H   0  0  0  0  0  0  0  0  0  0  0  0
   35.3300   20.4210   31.7400 C   0  0  0  0  0  3  0  0  0  0  0  0
   35.2930   20.4040   33.1080 C   0  0  0  0  0  3  0  0  0  0  0  0
  1  2  1  0  0  0  0
  2 11  1  0  0  0  0
  2  3  2  0  0  0  0
  3  7  1  0  0  0  0
  4  3  1  0  0  0  0
  5  4  2  0  0  0  0
  6  1  2  0  0  0  0
  6  5  1  0  0  0  0
  8  5  1  0  0  0  0
  9 12  1  0  0  0  0
 10  9  2  0  0  0  0
 11  9  1  0  0  0  0
 11 13  1  0  0  0  0
 14  1  1  0  0  0  0
 16 15  1  0  0  0  0
 17 16  1  0  0  0  0
 17 14  1  0  0  0  0
 18 17  2  0  0  0  0
 19 18  1  0  0  0  0
 20 22  2  0  0  0  0
 20 18  1  0  0  0  0
 21 20  1  0  0  0  0
 22 23  1  0  0  0  0
 23 16  2  0  0  0  0
M  END
>  <minimizedAffinity>
-4.50598192

$$$$

 OpenBabel03272507383D

 23 24  0  0  0  0  0  0  0  0999 V2000
   36.1100   28.8680   33.9070 C   0  0  0  0  0  0  0  0  0  0  0  0
   36.0050   28.3560   32.6070 C   0  0  0  0  0  0  0  0  0  0  0  0
   36.4630   27.0940   32.3170 C   0  0  0  0  0  0  0  0  0  0  0  0
   37.0220   26.3740   33.3480 N   0  0  0  0  0  0  0  0  0  0  0  0
   37.1150   26.8840   34.5940 C   0  0  0  0  0  0  0  0  0  0  0  0
   36.6730   28.1010   34.8730 N   0  0  0  0  0  0  0  0  0  0  0  0
   36.4160   26.6300   31.3400 H   0  0  0  0  0  0  0  0  0  0  0  0
   37.5650   26.2420   35.3170 H   0  0  0  0  0  0  0  0  0  0  0  0
   36.2970   29.6260   30.5400 C   0  0  0  0  0  0  0  0  0  0  0  0
   37.5530   29.7580   30.3850 O   0  0  0  0  0  0  0  0  0  0  0  0
   35.4450   29.0440   31.5210 N   0  0  0  0  0  0  0  0  0  0  0  0
   35.9590   30.1330   29.6200 H   0  0  0  0  0  0  0  0  0  0  0  0
   34.4380   29.2230   31.2750 H   0  0  0  0  0  0  0  0  0  0  0  0
   35.6040   30.1330   34.0090 O   0  0  0  0  0  0  0  0  0  0  0  0
   36.7430   31.8060   35.8770 F   0  0  0  0  0  0  0  0  0  0  0  0
   35.4380   31.4520   35.9260 C   0  0  0  0  0  0  0  0  0  0  0  0
   34.8130   30.6180   35.0200 C   0  0  0  0  0  0  0  0  0  0  0  0
   33.4850   30.3500   35.2010 C   0  0  0  0  0  0  0  0  0  0  0  0
   33.0070   29.6860   34.4710 H   0  0  0  0  0  0  0  0  0  0  0  0
   32.6980   30.8400   36.2160 C   0  0  0  0  0  0  0  0  0  0  0  0
   31.6490   30.5910   36.3060 H   0  0  0  0  0  0  0  0  0  0  0  0
   33.3680   31.6760   37.1060 C   0  0  0  0  0  3  0  0  0  0  0  0
   34.6970   31.9740   36.9670 C   0  0  0  0  0  3  0  0  0  0  0  0
  1 14  1  0  0  0  0
  1  6  1  0  0  0  0
  2  1  2  0  0  0  0
  3  2  1  0  0  0  0
  3  4  2  0  0  0  0
  4  5  1  0  0  0  0
  5  6  2  0  0  0  0
  5  8  1  0  0  0  0
  7  3  1  0  0  0  0
  9 11  1  0  0  0  0
 10  9  2  0  0  0  0
 11  2  1  0  0  0  0
 12  9  1  0  0  0  0
 13 11  1  0  0  0  0
 14 17  1  0  0  0  0
 15 16  1  0  0  0  0
 16 23  1  0  0  0  0
 17 18  1  0  0  0  0
 17 16  2  0  0  0  0
 18 20  2  0  0  0  0
 19 18  1  0  0  0  0
 20 21  1  0  0  0  0
 20 22  1  0  0  0  0
 23 22  2  0  0  0  0
M  END
>  <minimizedAffinity>
-4.43460512

$$$$

 OpenBabel03272507383D

 23 24  0  0  0  0  0  0  0  0999 V2000
   38.0920   23.7930   33.6280 C   0  0  0  0  0  0  0  0  0  0  0  0
   37.7650   25.0050   33.0090 C   0  0  0  0  0  0  0  0  0  0  0  0
   36.8000   25.0490   32.0320 C   0  0  0  0  0  0  0  0  0  0  0  0
   36.1840   23.8650   31.7000 N   0  0  0  0  0  0  0  0  0  0  0  0
   36.5130   22.7050   32.3090 C   0  0  0  0  0  0  0  0  0  0  0  0
   37.4430   22.6640   33.2500 N   0  0  0  0  0  0  0  0  0  0  0  0
   36.4920   25.9460   31.5090 H   0  0  0  0  0  0  0  0  0  0  0  0
   35.9750   21.8480   31.9750 H   0  0  0  0  0  0  0  0  0  0  0  0
   37.7370   27.1130   34.2450 C   0  0  0  0  0  0  0  0  0  0  0  0
   36.6570   27.1100   34.9170 O   0  0  0  0  0  0  0  0  0  0  0  0
   38.3580   26.2410   33.3070 N   0  0  0  0  0  0  0  0  0  0  0  0
   38.1500   28.0760   34.5940 H   0  0  0  0  0  0  0  0  0  0  0  0
   39.2430   26.6760   32.9410 H   0  0  0  0  0  0  0  0  0  0  0  0
   39.0700   23.9390   34.5720 O   0  0  0  0  0  0  0  0  0  0  0  0
   40.9650   22.4760   35.9330 F   0  0  0  0  0  0  0  0  0  0  0  0
   39.9070   23.0450   36.5570 C   0  0  0  0  0  0  0  0  0  0  0  0
   38.9270   23.7880   35.9280 C   0  0  0  0  0  0  0  0  0  0  0  0
   37.9170   24.3000   36.6930 C   0  0  0  0  0  0  0  0  0  0  0  0
   37.1490   24.8860   36.1760 H   0  0  0  0  0  0  0  0  0  0  0  0
   37.7810   24.1440   38.0520 C   0  0  0  0  0  0  0  0  0  0  0  0
   36.9560   24.5760   38.6040 H   0  0  0  0  0  0  0  0  0  0  0  0
   38.7900   23.3890   38.6450 C   0  0  0  0  0  3  0  0  0  0  0  0
   39.8230   22.8550   37.9220 C   0  0  0  0  0  3  0  0  0  0  0  0
  1 14  1  0  0  0  0
  2 11  1  0  0  0  0
  2  1  2  0  0  0  0
  3  2  1  0  0  0  0
  4  3  2  0  0  0  0
  4  5  1  0  0  0  0
  5  6  2  0  0  0  0
  6  1  1  0  0  0  0
  7  3  1  0  0  0  0
  8  5  1  0  0  0  0
  9 12  1  0  0  0  0
  9 10  2  0  0  0  0
 11  9  1  0  0  0  0
 13 11  1  0  0  0  0
 14 17  1  0  0  0  0
 15 16  1  0  0  0  0
 16 23  1  0  0  0  0
 17 16  2  0  0  0  0
 17 18  1  0  0  0  0
 18 20  2  0  0  0  0
 19 18  1  0  0  0  0
 20 21  1  0  0  0  0
 20 22  1  0  0  0  0
 23 22  2  0  0  0  0
M  END
>  <minimizedAffinity>
-4.42588043

$$$$

 OpenBabel03272507383D

 23 24  0  0  0  0  0  0  0  0999 V2000
   37.8120   24.5360   33.6370 C   0  0  0  0  0  0  0  0  0  0  0  0
   38.3610   24.6760   34.9180 C   0  0  0  0  0  0  0  0  0  0  0  0
   38.2620   25.8700   35.5900 C   0  0  0  0  0  0  0  0  0  0  0  0
   37.6110   26.9010   34.9530 N   0  0  0  0  0  0  0  0  0  0  0  0
   37.0880   26.7460   33.7170 C   0  0  0  0  0  0  0  0  0  0  0  0
   37.1840   25.5950   33.0700 N   0  0  0  0  0  0  0  0  0  0  0  0
   38.6590   26.0550   36.5810 H   0  0  0  0  0  0  0  0  0  0  0  0
   36.6050   27.6080   33.3160 H   0  0  0  0  0  0  0  0  0  0  0  0
   38.3420   22.9060   36.6020 C   0  0  0  0  0  0  0  0  0  0  0  0
   37.1810   22.9300   37.1210 O   0  0  0  0  0  0  0  0  0  0  0  0
   39.0340   23.6620   35.6140 N   0  0  0  0  0  0  0  0  0  0  0  0
   38.7590   22.0500   37.1610 H   0  0  0  0  0  0  0  0  0  0  0  0
   40.0290   23.3290   35.5380 H   0  0  0  0  0  0  0  0  0  0  0  0
   38.0050   23.2840   33.1240 O   0  0  0  0  0  0  0  0  0  0  0  0
   36.7420   23.3300   30.6770 F   0  0  0  0  0  0  0  0  0  0  0  0
   36.4390   22.4170   31.6290 C   0  0  0  0  0  0  0  0  0  0  0  0
   37.0370   22.3450   32.8720 C   0  0  0  0  0  0  0  0  0  0  0  0
   36.6240   21.3650   33.7290 C   0  0  0  0  0  0  0  0  0  0  0  0
   37.1100   21.3250   34.7110 H   0  0  0  0  0  0  0  0  0  0  0  0
   35.6530   20.4270   33.4690 C   0  0  0  0  0  0  0  0  0  0  0  0
   35.3690   19.6740   34.1920 H   0  0  0  0  0  0  0  0  0  0  0  0
   35.0760   20.5360   32.2060 C   0  0  0  0  0  3  0  0  0  0  0  0
   35.4560   21.5010   31.3120 C   0  0  0  0  0  3  0  0  0  0  0  0
  1  2  1  0  0  0  0
  2  3  2  0  0  0  0
  2 11  1  0  0  0  0
  3  7  1  0  0  0  0
  4  3  1  0  0  0  0
  5  4  2  0  0  0  0
  6  1  2  0  0  0  0
  6  5  1  0  0  0  0
  8  5  1  0  0  0  0
  9 10  2  0  0  0  0
  9 12  1  0  0  0  0
 11  9  1  0  0  0  0
 13 11  1  0  0  0  0
 14  1  1  0  0  0  0
 15 16  1  0  0  0  0
 16 17  1  0  0  0  0
 17 14  1  0  0  0  0
 17 18  2  0  0  0  0
 18 19  1  0  0  0  0
 20 18  1  0  0  0  0
 20 21  1  0  0  0  0
 22 20  2  0  0  0  0
 23 16  2  0  0  0  0
 23 22  1  0  0  0  0
M  END
>  <minimizedAffinity>
-4.39345884

$$$$

 OpenBabel03272507383D

 23 24  0  0  0  0  0  0  0  0999 V2000
   37.8810   24.0720   33.3500 C   0  0  0  0  0  0  0  0  0  0  0  0
   37.2350   25.1670   32.7640 C   0  0  0  0  0  0  0  0  0  0  0  0
   36.2560   24.9740   31.8200 C   0  0  0  0  0  0  0  0  0  0  0  0
   35.9500   23.6750   31.4850 N   0  0  0  0  0  0  0  0  0  0  0  0
   36.5850   22.6310   32.0610 C   0  0  0  0  0  0  0  0  0  0  0  0
   37.5280   22.8180   32.9710 N   0  0  0  0  0  0  0  0  0  0  0  0
   35.7120   25.7680   31.3240 H   0  0  0  0  0  0  0  0  0  0  0  0
   36.2710   21.6680   31.7290 H   0  0  0  0  0  0  0  0  0  0  0  0
   38.3950   27.2540   32.2430 C   0  0  0  0  0  0  0  0  0  0  0  0
   39.1330   27.0020   31.2380 O   0  0  0  0  0  0  0  0  0  0  0  0
   37.5040   26.5100   33.0670 N   0  0  0  0  0  0  0  0  0  0  0  0
   38.6260   28.3270   32.3580 H   0  0  0  0  0  0  0  0  0  0  0  0
   37.1440   27.1160   33.8470 H   0  0  0  0  0  0  0  0  0  0  0  0
   38.8230   24.4520   34.2650 O   0  0  0  0  0  0  0  0  0  0  0  0
   37.1150   25.5980   36.0970 F   0  0  0  0  0  0  0  0  0  0  0  0
   38.0220   24.6550   36.4460 C   0  0  0  0  0  0  0  0  0  0  0  0
   38.9030   24.0470   35.5730 C   0  0  0  0  0  0  0  0  0  0  0  0
   39.7630   23.1110   36.0750 C   0  0  0  0  0  0  0  0  0  0  0  0
   40.4540   22.6400   35.3660 H   0  0  0  0  0  0  0  0  0  0  0  0
   39.8370   22.7100   37.3870 C   0  0  0  0  0  0  0  0  0  0  0  0
   40.5410   21.9610   37.7240 H   0  0  0  0  0  0  0  0  0  0  0  0
   38.9320   23.3480   38.2320 C   0  0  0  0  0  3  0  0  0  0  0  0
   38.0500   24.2920   37.7770 C   0  0  0  0  0  3  0  0  0  0  0  0
  1 14  1  0  0  0  0
  2 11  1  0  0  0  0
  2  1  2  0  0  0  0
  3  2  1  0  0  0  0
  4  3  2  0  0  0  0
  4  5  1  0  0  0  0
  5  6  2  0  0  0  0
  6  1  1  0  0  0  0
  7  3  1  0  0  0  0
  8  5  1  0  0  0  0
  9 12  1  0  0  0  0
  9 11  1  0  0  0  0
 10  9  2  0  0  0  0
 11 13  1  0  0  0  0
 14 17  1  0  0  0  0
 15 16  1  0  0  0  0
 16 23  1  0  0  0  0
 17 18  1  0  0  0  0
 17 16  2  0  0  0  0
 18 20  2  0  0  0  0
 19 18  1  0  0  0  0
 20 21  1  0  0  0  0
 20 22  1  0  0  0  0
 23 22  2  0  0  0  0
M  END
>  <minimizedAffinity>
-4.37172556

$$$$
