
 OpenBabel03272502233D

 29 31  0  0  0  0  0  0  0  0999 V2000
   37.3480   29.6680   50.1720 C   0  0  0  0  0  0  0  0  0  0  0  0
   37.8820   30.3850   49.0920 C   0  0  0  0  0  0  0  0  0  0  0  0
   37.1780   30.4000   47.9100 C   0  0  0  0  0  0  0  0  0  0  0  0
   36.0090   29.7240   47.8540 N   0  0  0  0  0  0  0  0  0  0  0  0
   35.5040   29.0410   48.8930 C   0  0  0  0  0  0  0  0  0  0  0  0
   36.1800   29.0140   50.0570 N   0  0  0  0  0  0  0  0  0  0  0  0
   37.9240   29.6710   51.0960 H   0  0  0  0  0  0  0  0  0  0  0  0
   38.7990   30.9210   49.1190 H   0  0  0  0  0  0  0  0  0  0  0  0
   33.2290   29.5910   50.5130 F   0  0  0  0  0  0  0  0  0  0  0  0
   33.1490   28.6610   49.5400 C   0  0  0  0  0  0  0  0  0  0  0  0
   34.2330   28.3490   48.7140 C   0  0  0  0  0  0  0  0  0  0  0  0
   34.1540   27.3970   47.7190 C   0  0  0  0  0  0  0  0  0  0  0  0
   35.0040   27.1610   47.0790 H   0  0  0  0  0  0  0  0  0  0  0  0
   32.9580   26.7310   47.5340 C   0  0  0  0  0  0  0  0  0  0  0  0
   32.9400   25.9810   46.7280 H   0  0  0  0  0  0  0  0  0  0  0  0
   31.8570   26.9810   48.3010 C   0  0  0  0  0  0  0  0  0  0  0  0
   31.9720   27.9470   49.2960 C   0  0  0  0  0  0  0  0  0  0  0  0
   37.6110   31.1060   46.6970 C   0  0  0  0  0  0  0  0  0  0  0  0
   36.9320   30.9990   45.4980 C   0  0  0  0  0  0  0  0  0  0  0  0
   37.3450   31.6670   44.3560 C   0  0  0  0  0  0  0  0  0  0  0  0
   38.4370   32.4460   44.3980 N   0  0  0  0  0  0  0  0  0  0  0  0
   39.0840   32.5420   45.5610 C   0  0  0  0  0  0  0  0  0  0  0  0
   38.6980   31.9020   46.6780 N   0  0  0  0  0  0  0  0  0  0  0  0
   36.0470   30.3780   45.4310 H   0  0  0  0  0  0  0  0  0  0  0  0
   36.7630   31.5390   43.4410 H   0  0  0  0  0  0  0  0  0  0  0  0
   40.2960   33.3930   45.6540 C   0  0  0  0  0  0  0  0  0  0  0  0
   40.3260   33.9850   46.9070 F   0  0  0  0  0  0  0  0  0  0  0  0
   41.4490   32.6420   45.4190 F   0  0  0  0  0  0  0  0  0  0  0  0
   40.2880   34.3980   44.7350 F   0  0  0  0  0  0  0  0  0  0  0  0
  1  7  1  0  0  0  0
  2  8  1  0  0  0  0
  2  1  2  0  0  0  0
  3  2  1  0  0  0  0
  4  3  2  0  0  0  0
  4  5  1  0  0  0  0
  5  6  2  0  0  0  0
  6  1  1  0  0  0  0
 10  9  1  0  0  0  0
 11  5  1  0  0  0  0
 11 10  2  0  0  0  0
 12 11  1  0  0  0  0
 13 12  1  0  0  0  0
 14 12  2  0  0  0  0
 14 16  1  0  0  0  0
 15 14  1  0  0  0  0
 16 17  2  0  0  0  0
 17 10  1  0  0  0  0
 18  3  1  0  0  0  0
 19 18  2  0  0  0  0
 20 21  2  0  0  0  0
 20 19  1  0  0  0  0
 21 22  1  0  0  0  0
 22 26  1  0  0  0  0
 22 23  2  0  0  0  0
 23 18  1  0  0  0  0
 24 19  1  0  0  0  0
 25 20  1  0  0  0  0
 26 27  1  0  0  0  0
 28 26  1  0  0  0  0
 29 26  1  0  0  0  0
M  END
>  <minimizedAffinity>
-6.4324193

>  <minimizedRMSD>
1.28394306

$$$$
