
 OpenBabel03262523593D

 29 31  0  0  0  0  0  0  0  0999 V2000
   38.5110   32.3740   46.9320 C   0  0  0  0  0  0  0  0  0  0  0  0
   38.3330   32.0950   45.5650 C   0  0  0  0  0  0  0  0  0  0  0  0
   37.3650   31.1550   45.1980 C   0  0  0  0  0  0  0  0  0  0  0  0
   36.6340   30.5500   46.1910 N   0  0  0  0  0  0  0  0  0  0  0  0
   36.8360   30.8460   47.4940 C   0  0  0  0  0  0  0  0  0  0  0  0
   37.7800   31.7650   47.8690 N   0  0  0  0  0  0  0  0  0  0  0  0
   39.2470   33.0930   47.2640 H   0  0  0  0  0  0  0  0  0  0  0  0
   37.2020   30.9180   44.1650 H   0  0  0  0  0  0  0  0  0  0  0  0
   38.2430   30.9300   50.2800 Br  0  0  0  0  0  0  0  0  0  0  0  0
   36.5530   30.1690   49.8450 C   0  0  0  0  0  0  0  0  0  0  0  0
   36.0670   30.2120   48.5640 C   0  0  0  0  0  0  0  0  0  0  0  0
   34.8340   29.6370   48.3370 C   0  0  0  0  0  0  0  0  0  0  0  0
   34.0660   29.0260   49.3010 C   0  0  0  0  0  0  0  0  0  0  0  0
   34.5910   29.0040   50.5760 C   0  0  0  0  0  0  0  0  0  0  0  0
   35.8410   29.5780   50.8470 C   0  0  0  0  0  0  0  0  0  0  0  0
   34.4410   29.6680   47.3220 H   0  0  0  0  0  0  0  0  0  0  0  0
   33.1000   28.5810   49.0960 H   0  0  0  0  0  0  0  0  0  0  0  0
   34.0680   28.5450   51.4190 H   0  0  0  0  0  0  0  0  0  0  0  0
   36.2150   29.5370   51.8580 H   0  0  0  0  0  0  0  0  0  0  0  0
   39.0970   32.7340   44.6040 O   0  0  0  0  0  0  0  0  0  0  0  0
   38.4290   33.3870   42.0290 F   0  0  0  0  0  0  0  0  0  0  0  0
   39.2550   32.3490   42.3190 C   0  0  0  0  0  0  0  0  0  0  0  0
   39.6480   31.9480   43.6000 C   0  0  0  0  0  0  0  0  0  0  0  0
   40.4970   30.8680   43.7310 C   0  0  0  0  0  0  0  0  0  0  0  0
   40.7480   30.6290   44.7570 H   0  0  0  0  0  0  0  0  0  0  0  0
   40.9490   30.1990   42.6130 C   0  0  0  0  0  0  0  0  0  0  0  0
   41.6140   29.3590   42.7710 H   0  0  0  0  0  0  0  0  0  0  0  0
   40.5720   30.5820   41.3320 C   0  0  0  0  0  0  0  0  0  0  0  0
   39.7120   31.6740   41.2020 C   0  0  0  0  0  0  0  0  0  0  0  0
  1  7  1  0  0  0  0
  1  6  1  0  0  0  0
  2  1  2  0  0  0  0
  3  2  1  0  0  0  0
  3  4  2  0  0  0  0
  4  5  1  0  0  0  0
  5  6  2  0  0  0  0
  5 11  1  0  0  0  0
  8  3  1  0  0  0  0
 10  9  1  0  0  0  0
 10 15  1  0  0  0  0
 11 10  2  0  0  0  0
 12 11  1  0  0  0  0
 12 13  2  0  0  0  0
 13 14  1  0  0  0  0
 14 15  2  0  0  0  0
 14 18  1  0  0  0  0
 15 19  1  0  0  0  0
 16 12  1  0  0  0  0
 17 13  1  0  0  0  0
 20  2  1  0  0  0  0
 21 22  1  0  0  0  0
 22 23  1  0  0  0  0
 23 24  2  0  0  0  0
 23 20  1  0  0  0  0
 24 25  1  0  0  0  0
 26 27  1  0  0  0  0
 26 24  1  0  0  0  0
 28 26  2  0  0  0  0
 29 28  1  0  0  0  0
 29 22  2  0  0  0  0
M  END
>  <minimizedAffinity>
-6.12244034

>  <minimizedRMSD>
4.78077126

$$$$
