
 OpenBabel03272510133D

 41 44  0  0  0  0  0  0  0  0999 V2000
   38.4340   31.4160   48.7700 C   0  0  0  0  0  0  0  0  0  0  0  0
   38.5130   32.6240   49.4170 C   0  0  0  0  0  0  0  0  0  0  0  0
   39.0880   33.5310   48.5260 C   0  0  0  0  0  0  0  0  0  0  0  0
   39.3340   32.8730   47.3980 N   0  0  0  0  0  0  0  0  0  0  0  0
   38.9490   31.6470   47.5560 N   0  0  0  0  0  0  0  0  0  0  0  0
   38.2500   33.0040   50.3930 H   0  0  0  0  0  0  0  0  0  0  0  0
   39.3240   34.5820   48.6400 H   0  0  0  0  0  0  0  0  0  0  0  0
   39.9250   33.3860   46.1890 C   0  0  0  0  0  0  0  0  0  0  0  0
   39.1750   33.8780   45.5290 H   0  0  0  0  0  0  0  0  0  0  0  0
   40.6200   34.1990   46.4770 H   0  0  0  0  0  0  0  0  0  0  0  0
   40.6640   32.2890   45.4980 C   0  0  0  0  0  0  0  0  0  0  0  0
   41.6470   32.7450   45.1740 H   0  0  0  0  0  0  0  0  0  0  0  0
   40.9920   31.5830   46.3190 H   0  0  0  0  0  0  0  0  0  0  0  0
   39.8950   33.8000   43.2390 F   0  0  0  0  0  0  0  0  0  0  0  0
   39.6480   32.4520   43.3480 C   0  0  0  0  0  0  0  0  0  0  0  0
   39.9760   31.6080   44.4120 C   0  0  0  0  0  0  0  0  0  0  0  0
   39.6160   30.2840   44.2750 C   0  0  0  0  0  0  0  0  0  0  0  0
   39.8880   29.6580   45.1040 H   0  0  0  0  0  0  0  0  0  0  0  0
   38.9720   29.7840   43.1700 C   0  0  0  0  0  0  0  0  0  0  0  0
   38.7460   28.7090   43.1960 H   0  0  0  0  0  0  0  0  0  0  0  0
   38.6580   30.6280   42.1340 C   0  0  0  0  0  3  0  0  0  0  0  0
   38.9980   31.9620   42.2260 C   0  0  0  0  0  3  0  0  0  0  0  0
   37.8840   30.3900   49.5140 O   0  0  0  0  0  0  0  0  0  0  0  0
   34.1450   28.8520   48.3410 C   0  0  0  0  0  0  0  0  0  0  0  0
   34.7790   28.3990   49.4630 C   0  0  0  0  0  0  0  0  0  0  0  0
   35.9920   28.8560   49.9010 C   0  0  0  0  0  0  0  0  0  0  0  0
   36.6620   29.8200   49.2180 C   0  0  0  0  0  0  0  0  0  0  0  0
   36.0220   30.2930   48.0640 C   0  0  0  0  0  0  0  0  0  0  0  0
   34.8280   29.8270   47.6570 N   0  0  0  0  0  0  0  0  0  0  0  0
   34.3050   27.6290   50.0580 H   0  0  0  0  0  0  0  0  0  0  0  0
   36.4870   28.4860   50.7970 H   0  0  0  0  0  0  0  0  0  0  0  0
   36.4390   31.0590   47.4260 H   0  0  0  0  0  0  0  0  0  0  0  0
   32.0300   27.5680   48.6160 C   0  0  0  0  0  0  0  0  0  0  0  0
   32.8800   28.3940   47.8620 C   0  0  0  0  0  0  0  0  0  0  0  0
   32.4390   28.7520   46.6170 C   0  0  0  0  0  0  0  0  0  0  0  0
   31.2290   28.3130   46.1620 N   0  0  0  0  0  0  0  0  0  0  0  0
   30.4460   27.5100   46.9440 C   0  0  0  0  0  0  0  0  0  0  0  0
   30.8330   27.1290   48.1750 N   0  0  0  0  0  0  0  0  0  0  0  0
   32.3280   27.2540   49.6040 H   0  0  0  0  0  0  0  0  0  0  0  0
   33.0250   29.3920   45.9520 H   0  0  0  0  0  0  0  0  0  0  0  0
   29.5200   27.2470   46.4450 H   0  0  0  0  0  0  0  0  0  0  0  0
  1  2  1  0  0  0  0
  1 23  1  0  0  0  0
  2  6  1  0  0  0  0
  3  7  1  0  0  0  0
  3  2  2  0  0  0  0
  4  5  1  0  0  0  0
  4  3  1  0  0  0  0
  5  1  2  0  0  0  0
  8 10  1  0  0  0  0
  8  4  1  0  0  0  0
  9  8  1  0  0  0  0
 11  8  1  0  0  0  0
 11 13  1  0  0  0  0
 12 11  1  0  0  0  0
 14 15  1  0  0  0  0
 15 16  1  0  0  0  0
 16 11  1  0  0  0  0
 17 16  2  0  0  0  0
 17 18  1  0  0  0  0
 19 20  1  0  0  0  0
 19 17  1  0  0  0  0
 21 22  1  0  0  0  0
 21 19  2  0  0  0  0
 22 15  2  0  0  0  0
 24 25  1  0  0  0  0
 25 26  2  0  0  0  0
 25 30  1  0  0  0  0
 26 31  1  0  0  0  0
 27 23  1  0  0  0  0
 27 26  1  0  0  0  0
 28 27  2  0  0  0  0
 29 28  1  0  0  0  0
 29 24  2  0  0  0  0
 32 28  1  0  0  0  0
 33 39  1  0  0  0  0
 34 24  1  0  0  0  0
 34 33  2  0  0  0  0
 35 34  1  0  0  0  0
 36 35  2  0  0  0  0
 36 37  1  0  0  0  0
 37 38  2  0  0  0  0
 38 33  1  0  0  0  0
 40 35  1  0  0  0  0
 41 37  1  0  0  0  0
M  END
>  <minimizedAffinity>
-6.378335

>  <minimizedRMSD>
1.14701319

$$$$
