
 OpenBabel03272507553D

 23 24  0  0  0  0  0  0  0  0999 V2000
   35.1790   28.7060   49.9980 C   0  0  0  0  0  0  0  0  0  0  0  0
   36.2800   29.6030   49.8740 C   0  0  0  0  0  0  0  0  0  0  0  0
   36.2390   30.5200   48.8460 C   0  0  0  0  0  0  0  0  0  0  0  0
   35.1490   30.5260   48.0010 N   0  0  0  0  0  0  0  0  0  0  0  0
   34.1260   29.6500   48.1630 C   0  0  0  0  0  0  0  0  0  0  0  0
   34.1440   28.7430   49.1600 N   0  0  0  0  0  0  0  0  0  0  0  0
   33.1060   29.8260   47.1850 N   0  0  0  0  0  0  0  0  0  0  0  0
   35.1740   27.9520   50.8050 H   0  0  0  0  0  0  0  0  0  0  0  0
   33.4110   29.2600   46.3530 H   0  0  0  0  0  0  0  0  0  0  0  0
   32.2460   30.3740   47.2420 H   0  0  0  0  0  0  0  0  0  0  0  0
   37.9570   30.3540   46.6940 F   0  0  0  0  0  0  0  0  0  0  0  0
   38.1570   31.4330   47.5320 C   0  0  0  0  0  0  0  0  0  0  0  0
   37.2310   31.5150   48.5770 C   0  0  0  0  0  0  0  0  0  0  0  0
   37.3540   32.5890   49.4510 C   0  0  0  0  0  0  0  0  0  0  0  0
   36.7260   32.7920   50.3360 H   0  0  0  0  0  0  0  0  0  0  0  0
   38.3290   33.5370   49.3200 C   0  0  0  0  0  0  0  0  0  0  0  0
   38.5040   34.3920   49.9420 H   0  0  0  0  0  0  0  0  0  0  0  0
   39.2340   33.4180   48.2620 C   0  0  0  0  0  3  0  0  0  0  0  0
   39.1630   32.3830   47.3650 C   0  0  0  0  0  3  0  0  0  0  0  0
   37.4090   29.5370   50.8440 C   0  0  0  0  0  0  0  0  0  0  0  0
   38.6150   29.7770   50.2280 F   0  0  0  0  0  0  0  0  0  0  0  0
   37.1940   30.4680   51.8230 F   0  0  0  0  0  0  0  0  0  0  0  0
   37.4810   28.2960   51.4680 F   0  0  0  0  0  0  0  0  0  0  0  0
  1  8  1  0  0  0  0
  2  1  1  0  0  0  0
  2 20  1  0  0  0  0
  3  2  2  0  0  0  0
  4  5  2  0  0  0  0
  4  3  1  0  0  0  0
  5  6  1  0  0  0  0
  6  1  2  0  0  0  0
  7 10  1  0  0  0  0
  7  5  1  0  0  0  0
  9  7  1  0  0  0  0
 11 12  1  0  0  0  0
 12 13  1  0  0  0  0
 13  3  1  0  0  0  0
 13 14  2  0  0  0  0
 14 15  1  0  0  0  0
 16 14  1  0  0  0  0
 16 17  1  0  0  0  0
 18 16  2  0  0  0  0
 19 12  2  0  0  0  0
 19 18  1  0  0  0  0
 20 23  1  0  0  0  0
 20 22  1  0  0  0  0
 21 20  1  0  0  0  0
M  END
>  <minimizedAffinity>
-6.34863567

>  <minimizedRMSD>
1.58578289

$$$$
