
 OpenBabel03272507543D

 23 24  0  0  0  0  0  0  0  0999 V2000
   35.1780   28.7050   49.9940 C   0  0  0  0  0  0  0  0  0  0  0  0
   36.2790   29.6020   49.8710 C   0  0  0  0  0  0  0  0  0  0  0  0
   36.2380   30.5200   48.8440 C   0  0  0  0  0  0  0  0  0  0  0  0
   35.1480   30.5270   47.9980 N   0  0  0  0  0  0  0  0  0  0  0  0
   34.1250   29.6510   48.1590 C   0  0  0  0  0  0  0  0  0  0  0  0
   34.1420   28.7430   49.1550 N   0  0  0  0  0  0  0  0  0  0  0  0
   33.1060   29.8280   47.1800 N   0  0  0  0  0  0  0  0  0  0  0  0
   35.1720   27.9510   50.8000 H   0  0  0  0  0  0  0  0  0  0  0  0
   33.4110   29.2630   46.3480 H   0  0  0  0  0  0  0  0  0  0  0  0
   32.2460   30.3760   47.2370 H   0  0  0  0  0  0  0  0  0  0  0  0
   37.9580   30.3560   46.6930 F   0  0  0  0  0  0  0  0  0  0  0  0
   38.1570   31.4350   47.5310 C   0  0  0  0  0  0  0  0  0  0  0  0
   37.2300   31.5150   48.5760 C   0  0  0  0  0  0  0  0  0  0  0  0
   37.3530   32.5890   49.4510 C   0  0  0  0  0  0  0  0  0  0  0  0
   36.7240   32.7910   50.3370 H   0  0  0  0  0  0  0  0  0  0  0  0
   38.3280   33.5370   49.3220 C   0  0  0  0  0  0  0  0  0  0  0  0
   38.5030   34.3910   49.9440 H   0  0  0  0  0  0  0  0  0  0  0  0
   39.2340   33.4190   48.2640 C   0  0  0  0  0  3  0  0  0  0  0  0
   39.1630   32.3830   47.3660 C   0  0  0  0  0  3  0  0  0  0  0  0
   37.4070   29.5350   50.8410 C   0  0  0  0  0  0  0  0  0  0  0  0
   38.6130   29.7760   50.2260 F   0  0  0  0  0  0  0  0  0  0  0  0
   37.1920   30.4650   51.8210 F   0  0  0  0  0  0  0  0  0  0  0  0
   37.4790   28.2930   51.4640 F   0  0  0  0  0  0  0  0  0  0  0  0
  1  8  1  0  0  0  0
  2  1  1  0  0  0  0
  2 20  1  0  0  0  0
  3  2  2  0  0  0  0
  4  5  2  0  0  0  0
  4  3  1  0  0  0  0
  5  6  1  0  0  0  0
  6  1  2  0  0  0  0
  7 10  1  0  0  0  0
  7  5  1  0  0  0  0
  9  7  1  0  0  0  0
 11 12  1  0  0  0  0
 12 13  1  0  0  0  0
 13  3  1  0  0  0  0
 13 14  2  0  0  0  0
 14 15  1  0  0  0  0
 16 14  1  0  0  0  0
 16 17  1  0  0  0  0
 18 16  2  0  0  0  0
 19 12  2  0  0  0  0
 19 18  1  0  0  0  0
 20 23  1  0  0  0  0
 20 22  1  0  0  0  0
 21 20  1  0  0  0  0
M  END
>  <minimizedAffinity>
-6.34635305

>  <minimizedRMSD>
1.52623069

$$$$
