
 OpenBabel03272506383D

 37 39  0  0  1  0  0  0  0  0999 V2000
   34.7560   27.9070   49.5470 O   0  0  0  0  0  0  0  0  0  0  0  0
   34.5510   28.6580   48.5840 C   0  0  0  0  0  0  0  0  0  0  0  0
   35.2830   29.8940   48.4180 C   0  0  2  0  0  0  0  0  0  0  0  0
   34.8020   30.3430   47.0000 C   0  0  0  0  0  0  0  0  0  0  0  0
   33.4500   29.6970   46.8880 C   0  0  0  0  0  0  0  0  0  0  0  0
   33.5940   28.4060   47.5500 N   0  0  0  0  0  0  0  0  0  0  0  0
   34.9870   30.6570   49.1370 H   0  0  0  0  0  0  0  0  0  0  0  0
   34.6620   31.4350   47.0800 H   0  0  0  0  0  0  0  0  0  0  0  0
   35.5150   30.0110   46.2450 H   0  0  0  0  0  0  0  0  0  0  0  0
   32.6310   30.2920   47.2900 H   0  0  0  0  0  0  0  0  0  0  0  0
   33.3100   29.4710   45.8000 H   0  0  0  0  0  0  0  0  0  0  0  0
   32.9010   27.1870   47.1870 C   0  0  0  0  0  0  0  0  0  0  0  0
   31.9510   27.4630   46.7270 H   0  0  0  0  0  0  0  0  0  0  0  0
   32.6470   26.5610   48.0850 H   0  0  0  0  0  0  0  0  0  0  0  0
   34.0180   24.6380   47.9140 F   0  0  0  0  0  0  0  0  0  0  0  0
   34.2360   25.0910   46.6590 C   0  0  0  0  0  0  0  0  0  0  0  0
   33.7030   26.3070   46.3010 C   0  0  0  0  0  0  0  0  0  0  0  0
   33.9290   26.7690   44.9970 C   0  0  0  0  0  0  0  0  0  0  0  0
   33.5520   27.7080   44.6250 H   0  0  0  0  0  0  0  0  0  0  0  0
   34.6730   25.9550   44.1780 C   0  0  0  0  0  0  0  0  0  0  0  0
   34.8590   26.3020   43.1580 H   0  0  0  0  0  0  0  0  0  0  0  0
   35.2190   24.7230   44.5240 C   0  0  0  0  0  3  0  0  0  0  0  0
   34.9800   24.2900   45.8190 C   0  0  0  0  0  3  0  0  0  0  0  0
   36.6980   29.7350   48.3090 O   0  0  0  0  0  0  0  0  0  0  0  0
   37.4800   30.8870   48.3530 C   0  0  0  0  0  0  0  0  0  0  0  0
   37.6500   31.4850   49.5880 C   0  0  0  0  0  0  0  0  0  0  0  0
   38.4220   32.6320   49.6620 C   0  0  0  0  0  0  0  0  0  0  0  0
   38.9800   33.1220   48.5180 N   0  0  0  0  0  0  0  0  0  0  0  0
   38.8030   32.5260   47.3260 C   0  0  0  0  0  0  0  0  0  0  0  0
   38.0640   31.4320   47.2680 N   0  0  0  0  0  0  0  0  0  0  0  0
   40.3020   32.1480   45.5250 C   0  0  0  0  0  0  0  0  0  0  0  0
   40.5950   30.9660   45.8820 O   0  0  0  0  0  0  0  0  0  0  0  0
   39.4030   33.0730   46.1570 N   0  0  0  0  0  0  0  0  0  0  0  0
   37.2350   31.1480   50.5330 H   0  0  0  0  0  0  0  0  0  0  0  0
   38.5900   33.1370   50.5800 H   0  0  0  0  0  0  0  0  0  0  0  0
   40.8340   32.4210   44.6230 H   0  0  0  0  0  0  0  0  0  0  0  0
   39.2960   34.0030   45.7090 H   0  0  0  0  0  0  0  0  0  0  0  0
  2  1  2  0  0  0  0
  3  2  1  0  0  0  0
  3  7  1  1  0  0  0
  4  8  1  0  0  0  0
  4  3  1  0  0  0  0
  5  4  1  0  0  0  0
  5 10  1  0  0  0  0
  5  6  1  0  0  0  0
  6  2  1  0  0  0  0
  9  4  1  0  0  0  0
 11  5  1  0  0  0  0
 12  6  1  0  0  0  0
 12 14  1  0  0  0  0
 13 12  1  0  0  0  0
 16 15  1  0  0  0  0
 17 16  1  0  0  0  0
 17 12  1  0  0  0  0
 18 17  2  0  0  0  0
 19 18  1  0  0  0  0
 20 22  2  0  0  0  0
 20 18  1  0  0  0  0
 21 20  1  0  0  0  0
 22 23  1  0  0  0  0
 23 16  2  0  0  0  0
 24 25  1  0  0  0  0
 24  3  1  0  0  0  0
 25 26  1  0  0  0  0
 26 27  2  0  0  0  0
 26 34  1  0  0  0  0
 27 35  1  0  0  0  0
 28 27  1  0  0  0  0
 29 28  2  0  0  0  0
 30 29  1  0  0  0  0
 30 25  2  0  0  0  0
 31 32  2  0  0  0  0
 31 33  1  0  0  0  0
 33 29  1  0  0  0  0
 36 31  1  0  0  0  0
 37 33  1  0  0  0  0
M  END
>  <minimizedAffinity>
-5.73449373

>  <minimizedRMSD>
1.13994455

$$$$
