
 OpenBabel03272509463D

 25 26  0  0  0  0  0  0  0  0999 V2000
   33.9990   28.5770   48.6020 C   0  0  0  0  0  0  0  0  0  0  0  0
   34.6950   28.8690   47.7800 H   0  0  0  0  0  0  0  0  0  0  0  0
   33.3670   29.4600   48.8300 H   0  0  0  0  0  0  0  0  0  0  0  0
   33.2080   27.4010   48.1330 C   0  0  0  0  0  0  0  0  0  0  0  0
   33.4380   27.1020   47.1100 H   0  0  0  0  0  0  0  0  0  0  0  0
   33.4400   26.5590   48.8460 H   0  0  0  0  0  0  0  0  0  0  0  0
   32.0320   28.5290   45.9280 F   0  0  0  0  0  0  0  0  0  0  0  0
   31.2840   28.3050   47.0540 C   0  0  0  0  0  0  0  0  0  0  0  0
   31.7620   27.7400   48.2370 C   0  0  0  0  0  0  0  0  0  0  0  0
   30.8950   27.5750   49.2920 C   0  0  0  0  0  0  0  0  0  0  0  0
   31.3810   27.1280   50.1510 H   0  0  0  0  0  0  0  0  0  0  0  0
   29.5840   27.9520   49.2010 C   0  0  0  0  0  0  0  0  0  0  0  0
   28.9570   27.7970   50.0600 H   0  0  0  0  0  0  0  0  0  0  0  0
   29.1050   28.5160   48.0180 C   0  0  0  0  0  3  0  0  0  0  0  0
   29.9680   28.6920   46.9320 C   0  0  0  0  0  3  0  0  0  0  0  0
   34.7150   28.2840   49.7740 O   0  0  0  0  0  0  0  0  0  0  0  0
   37.3160   30.2190   51.3900 C   0  0  0  0  0  0  0  0  0  0  0  0
   38.0340   30.6550   50.2820 C   0  0  0  0  0  0  0  0  0  0  0  0
   37.5920   30.2640   49.0250 C   0  0  0  0  0  0  0  0  0  0  0  0
   36.4810   29.4780   48.9760 N   0  0  0  0  0  0  0  0  0  0  0  0
   35.8070   29.0720   50.0770 C   0  0  0  0  0  0  0  0  0  0  0  0
   36.2360   29.4510   51.3000 N   0  0  0  0  0  0  0  0  0  0  0  0
   37.7090   30.5560   52.3450 H   0  0  0  0  0  0  0  0  0  0  0  0
   38.9080   31.2690   50.2740 H   0  0  0  0  0  0  0  0  0  0  0  0
   38.0810   30.5500   48.1000 H   0  0  0  0  0  0  0  0  0  0  0  0
  1  3  1  0  0  0  0
  1 16  1  0  0  0  0
  2  1  1  0  0  0  0
  4  9  1  0  0  0  0
  4  1  1  0  0  0  0
  4  6  1  0  0  0  0
  5  4  1  0  0  0  0
  7  8  1  0  0  0  0
  8  9  1  0  0  0  0
  9 10  2  0  0  0  0
 10 11  1  0  0  0  0
 12 10  1  0  0  0  0
 12 13  1  0  0  0  0
 14 12  2  0  0  0  0
 15  8  2  0  0  0  0
 15 14  1  0  0  0  0
 16 21  1  0  0  0  0
 17 23  1  0  0  0  0
 18 17  2  0  0  0  0
 19 18  1  0  0  0  0
 20 19  2  0  0  0  0
 20 21  1  0  0  0  0
 21 22  2  0  0  0  0
 22 17  1  0  0  0  0
 24 18  1  0  0  0  0
 25 19  1  0  0  0  0
M  END
>  <minimizedAffinity>
-4.54440784

>  <minimizedRMSD>
2.23605013

$$$$
