
 OpenBabel03272509463D

 25 26  0  0  0  0  0  0  0  0999 V2000
   34.7230   28.3220   49.5710 C   0  0  0  0  0  0  0  0  0  0  0  0
   35.2770   28.3950   48.6050 H   0  0  0  0  0  0  0  0  0  0  0  0
   34.7250   27.2550   49.8740 H   0  0  0  0  0  0  0  0  0  0  0  0
   35.4080   29.2090   50.5570 C   0  0  0  0  0  0  0  0  0  0  0  0
   34.7240   29.8430   51.1210 H   0  0  0  0  0  0  0  0  0  0  0  0
   35.9730   28.5280   51.2560 H   0  0  0  0  0  0  0  0  0  0  0  0
   37.4700   30.2860   52.0090 F   0  0  0  0  0  0  0  0  0  0  0  0
   37.3790   30.5470   50.6660 C   0  0  0  0  0  0  0  0  0  0  0  0
   36.3810   30.0620   49.8200 C   0  0  0  0  0  0  0  0  0  0  0  0
   36.4140   30.4070   48.4900 C   0  0  0  0  0  0  0  0  0  0  0  0
   35.5910   29.9710   47.9360 H   0  0  0  0  0  0  0  0  0  0  0  0
   37.3980   31.2120   47.9870 C   0  0  0  0  0  0  0  0  0  0  0  0
   37.3680   31.4460   46.9390 H   0  0  0  0  0  0  0  0  0  0  0  0
   38.3970   31.6970   48.8330 C   0  0  0  0  0  0  0  0  0  0  0  0
   38.3840   31.3580   50.1900 C   0  0  0  0  0  0  0  0  0  0  0  0
   33.3770   28.6850   49.3960 O   0  0  0  0  0  0  0  0  0  0  0  0
   30.5720   26.7410   48.1830 C   0  0  0  0  0  0  0  0  0  0  0  0
   31.2230   25.8690   47.3180 C   0  0  0  0  0  0  0  0  0  0  0  0
   32.6010   25.9870   47.1880 C   0  0  0  0  0  0  0  0  0  0  0  0
   33.2110   26.9570   47.9250 N   0  0  0  0  0  0  0  0  0  0  0  0
   32.5440   27.7890   48.7590 C   0  0  0  0  0  0  0  0  0  0  0  0
   31.2050   27.6750   48.8860 N   0  0  0  0  0  0  0  0  0  0  0  0
   29.4970   26.6010   48.2430 H   0  0  0  0  0  0  0  0  0  0  0  0
   30.7860   25.0990   46.7220 H   0  0  0  0  0  0  0  0  0  0  0  0
   33.2000   25.3570   46.5400 H   0  0  0  0  0  0  0  0  0  0  0  0
  1  3  1  0  0  0  0
  1  4  1  0  0  0  0
  2  1  1  0  0  0  0
  4  5  1  0  0  0  0
  4  6  1  0  0  0  0
  8  7  1  0  0  0  0
  9  4  1  0  0  0  0
  9  8  2  0  0  0  0
 10  9  1  0  0  0  0
 11 10  1  0  0  0  0
 12 10  2  0  0  0  0
 12 14  1  0  0  0  0
 13 12  1  0  0  0  0
 14 15  2  0  0  0  0
 15  8  1  0  0  0  0
 16  1  1  0  0  0  0
 17 23  1  0  0  0  0
 17 22  1  0  0  0  0
 18 17  2  0  0  0  0
 19 18  1  0  0  0  0
 19 20  2  0  0  0  0
 20 21  1  0  0  0  0
 21 22  2  0  0  0  0
 21 16  1  0  0  0  0
 24 18  1  0  0  0  0
 25 19  1  0  0  0  0
M  END
>  <minimizedAffinity>
-5.17896795

>  <minimizedRMSD>
6.69806099

$$$$
