
 OpenBabel03272509463D

 25 26  0  0  0  0  0  0  0  0999 V2000
   31.7320   28.5720   46.8390 C   0  0  0  0  0  0  0  0  0  0  0  0
   31.8130   28.1030   47.8480 H   0  0  0  0  0  0  0  0  0  0  0  0
   31.9140   27.7770   46.0880 H   0  0  0  0  0  0  0  0  0  0  0  0
   30.3720   29.1780   46.7280 C   0  0  0  0  0  0  0  0  0  0  0  0
   30.2280   30.0460   47.3710 H   0  0  0  0  0  0  0  0  0  0  0  0
   30.2430   29.4690   45.6460 H   0  0  0  0  0  0  0  0  0  0  0  0
   28.5300   29.8130   48.6570 F   0  0  0  0  0  0  0  0  0  0  0  0
   28.4880   28.5790   48.0620 C   0  0  0  0  0  0  0  0  0  0  0  0
   29.3670   28.1350   47.0720 C   0  0  0  0  0  0  0  0  0  0  0  0
   29.2080   26.8670   46.5640 C   0  0  0  0  0  0  0  0  0  0  0  0
   29.9440   26.6380   45.8040 H   0  0  0  0  0  0  0  0  0  0  0  0
   28.2140   26.0420   47.0100 C   0  0  0  0  0  0  0  0  0  0  0  0
   28.1410   25.0620   46.5730 H   0  0  0  0  0  0  0  0  0  0  0  0
   27.3350   26.4860   47.9990 C   0  0  0  0  0  3  0  0  0  0  0  0
   27.4770   27.7720   48.5300 C   0  0  0  0  0  3  0  0  0  0  0  0
   32.7420   29.5320   46.6580 O   0  0  0  0  0  0  0  0  0  0  0  0
   35.9220   30.0200   48.3210 C   0  0  0  0  0  0  0  0  0  0  0  0
   35.8280   29.0720   49.3340 C   0  0  0  0  0  0  0  0  0  0  0  0
   34.6720   28.3050   49.4020 C   0  0  0  0  0  0  0  0  0  0  0  0
   33.7140   28.5440   48.4630 N   0  0  0  0  0  0  0  0  0  0  0  0
   33.8410   29.4760   47.4900 C   0  0  0  0  0  0  0  0  0  0  0  0
   34.9640   30.2220   47.4230 N   0  0  0  0  0  0  0  0  0  0  0  0
   36.8480   30.5890   48.3180 H   0  0  0  0  0  0  0  0  0  0  0  0
   36.5500   28.8540   50.0890 H   0  0  0  0  0  0  0  0  0  0  0  0
   34.5010   27.5410   50.1540 H   0  0  0  0  0  0  0  0  0  0  0  0
  1  2  1  0  0  0  0
  3  1  1  0  0  0  0
  4  1  1  0  0  0  0
  4  9  1  0  0  0  0
  4  5  1  0  0  0  0
  6  4  1  0  0  0  0
  8 15  1  0  0  0  0
  8  7  1  0  0  0  0
  9  8  2  0  0  0  0
 10 12  2  0  0  0  0
 10  9  1  0  0  0  0
 11 10  1  0  0  0  0
 12 14  1  0  0  0  0
 13 12  1  0  0  0  0
 14 15  2  0  0  0  0
 16  1  1  0  0  0  0
 16 21  1  0  0  0  0
 17 18  1  0  0  0  0
 18 19  2  0  0  0  0
 18 24  1  0  0  0  0
 19 25  1  0  0  0  0
 20 19  1  0  0  0  0
 21 20  2  0  0  0  0
 22 21  1  0  0  0  0
 22 17  2  0  0  0  0
 23 17  1  0  0  0  0
M  END
>  <minimizedAffinity>
-3.68296266

>  <minimizedRMSD>
4.27033281

$$$$
