
 OpenBabel03272507563D

 23 24  0  0  0  0  0  0  0  0999 V2000
   37.2620   26.6620   33.5670 C   0  0  0  0  0  0  0  0  0  0  0  0
   38.0570   26.1050   34.6110 C   0  0  0  0  0  0  0  0  0  0  0  0
   38.3240   24.7540   34.5550 C   0  0  0  0  0  0  0  0  0  0  0  0
   37.8160   24.0180   33.5050 N   0  0  0  0  0  0  0  0  0  0  0  0
   37.0640   24.5960   32.5350 C   0  0  0  0  0  0  0  0  0  0  0  0
   36.7890   25.9150   32.5690 N   0  0  0  0  0  0  0  0  0  0  0  0
   36.6410   23.6590   31.5500 N   0  0  0  0  0  0  0  0  0  0  0  0
   37.0210   27.7390   33.5750 H   0  0  0  0  0  0  0  0  0  0  0  0
   35.7590   23.2300   31.9280 H   0  0  0  0  0  0  0  0  0  0  0  0
   37.0730   23.4270   30.6550 H   0  0  0  0  0  0  0  0  0  0  0  0
   37.2760   23.6730   36.8670 F   0  0  0  0  0  0  0  0  0  0  0  0
   38.6370   23.5130   36.7000 C   0  0  0  0  0  0  0  0  0  0  0  0
   39.1220   24.0230   35.4900 C   0  0  0  0  0  0  0  0  0  0  0  0
   40.4810   23.8790   35.2400 C   0  0  0  0  0  0  0  0  0  0  0  0
   41.0280   24.2400   34.3510 H   0  0  0  0  0  0  0  0  0  0  0  0
   41.3320   23.2720   36.1200 C   0  0  0  0  0  0  0  0  0  0  0  0
   42.3870   23.1190   36.0170 H   0  0  0  0  0  0  0  0  0  0  0  0
   40.8070   22.7760   37.3170 C   0  0  0  0  0  3  0  0  0  0  0  0
   39.4740   22.8870   37.6200 C   0  0  0  0  0  3  0  0  0  0  0  0
   38.5800   26.9800   35.6980 C   0  0  0  0  0  0  0  0  0  0  0  0
   39.9450   27.1220   35.6160 F   0  0  0  0  0  0  0  0  0  0  0  0
   37.9780   28.2050   35.5960 F   0  0  0  0  0  0  0  0  0  0  0  0
   38.2720   26.4760   36.9570 F   0  0  0  0  0  0  0  0  0  0  0  0
  1  8  1  0  0  0  0
  1  2  1  0  0  0  0
  2 20  1  0  0  0  0
  3  2  2  0  0  0  0
  3 13  1  0  0  0  0
  4  3  1  0  0  0  0
  5  6  1  0  0  0  0
  5  4  2  0  0  0  0
  6  1  2  0  0  0  0
  7  9  1  0  0  0  0
  7  5  1  0  0  0  0
 10  7  1  0  0  0  0
 12 11  1  0  0  0  0
 12 19  1  0  0  0  0
 13 12  2  0  0  0  0
 14 13  1  0  0  0  0
 14 16  2  0  0  0  0
 15 14  1  0  0  0  0
 16 18  1  0  0  0  0
 17 16  1  0  0  0  0
 18 19  2  0  0  0  0
 20 23  1  0  0  0  0
 21 20  1  0  0  0  0
 22 20  1  0  0  0  0
M  END
>  <minimizedAffinity>
-5.38486099

$$$$

 OpenBabel03272507563D

 23 24  0  0  0  0  0  0  0  0999 V2000
   38.9080   25.8590   32.6190 C   0  0  0  0  0  0  0  0  0  0  0  0
   39.1830   25.6590   34.0030 C   0  0  0  0  0  0  0  0  0  0  0  0
   38.6170   24.5590   34.6110 C   0  0  0  0  0  0  0  0  0  0  0  0
   37.8240   23.7170   33.8590 N   0  0  0  0  0  0  0  0  0  0  0  0
   37.5930   23.9520   32.5440 C   0  0  0  0  0  0  0  0  0  0  0  0
   38.1340   25.0220   31.9280 N   0  0  0  0  0  0  0  0  0  0  0  0
   36.7490   22.9660   31.9590 N   0  0  0  0  0  0  0  0  0  0  0  0
   39.3380   26.7300   32.0950 H   0  0  0  0  0  0  0  0  0  0  0  0
   35.7660   23.2840   32.1510 H   0  0  0  0  0  0  0  0  0  0  0  0
   37.0050   22.1180   31.4510 H   0  0  0  0  0  0  0  0  0  0  0  0
   40.6630   22.8960   35.4230 F   0  0  0  0  0  0  0  0  0  0  0  0
   39.7870   23.2880   36.4150 C   0  0  0  0  0  0  0  0  0  0  0  0
   38.7970   24.1760   35.9770 C   0  0  0  0  0  0  0  0  0  0  0  0
   37.8910   24.6340   36.9250 C   0  0  0  0  0  0  0  0  0  0  0  0
   37.0410   25.3160   36.7470 H   0  0  0  0  0  0  0  0  0  0  0  0
   37.9370   24.2480   38.2350 C   0  0  0  0  0  0  0  0  0  0  0  0
   37.2840   24.5430   39.0320 H   0  0  0  0  0  0  0  0  0  0  0  0
   38.9410   23.3600   38.6320 C   0  0  0  0  0  3  0  0  0  0  0  0
   39.8660   22.8750   37.7430 C   0  0  0  0  0  3  0  0  0  0  0  0
   40.0670   26.6100   34.7340 C   0  0  0  0  0  0  0  0  0  0  0  0
   41.1740   25.9760   35.2450 F   0  0  0  0  0  0  0  0  0  0  0  0
   40.4540   27.5960   33.8670 F   0  0  0  0  0  0  0  0  0  0  0  0
   39.3990   27.2300   35.7860 F   0  0  0  0  0  0  0  0  0  0  0  0
  1  2  1  0  0  0  0
  2  3  2  0  0  0  0
  2 20  1  0  0  0  0
  3 13  1  0  0  0  0
  4  3  1  0  0  0  0
  5  4  2  0  0  0  0
  6  5  1  0  0  0  0
  6  1  2  0  0  0  0
  7  9  1  0  0  0  0
  7  5  1  0  0  0  0
  8  1  1  0  0  0  0
 10  7  1  0  0  0  0
 11 12  1  0  0  0  0
 12 19  1  0  0  0  0
 13 12  2  0  0  0  0
 13 14  1  0  0  0  0
 14 16  2  0  0  0  0
 15 14  1  0  0  0  0
 16 18  1  0  0  0  0
 16 17  1  0  0  0  0
 19 18  2  0  0  0  0
 20 21  1  0  0  0  0
 20 23  1  0  0  0  0
 22 20  1  0  0  0  0
M  END
>  <minimizedAffinity>
-5.25519228

$$$$

 OpenBabel03272507563D

 23 24  0  0  0  0  0  0  0  0999 V2000
   37.2120   26.5860   33.6030 C   0  0  0  0  0  0  0  0  0  0  0  0
   38.0470   26.1070   34.6550 C   0  0  0  0  0  0  0  0  0  0  0  0
   38.3710   24.7670   34.6490 C   0  0  0  0  0  0  0  0  0  0  0  0
   37.8800   23.9670   33.6380 N   0  0  0  0  0  0  0  0  0  0  0  0
   37.0890   24.4720   32.6590 C   0  0  0  0  0  0  0  0  0  0  0  0
   36.7570   25.7790   32.6440 N   0  0  0  0  0  0  0  0  0  0  0  0
   36.6920   23.4790   31.7200 N   0  0  0  0  0  0  0  0  0  0  0  0
   36.9250   27.6510   33.5720 H   0  0  0  0  0  0  0  0  0  0  0  0
   35.8350   23.0280   32.1290 H   0  0  0  0  0  0  0  0  0  0  0  0
   37.1200   23.2290   30.8270 H   0  0  0  0  0  0  0  0  0  0  0  0
   41.0860   24.4680   34.2590 F   0  0  0  0  0  0  0  0  0  0  0  0
   40.5840   23.8880   35.4060 C   0  0  0  0  0  0  0  0  0  0  0  0
   39.2150   24.1100   35.5980 C   0  0  0  0  0  0  0  0  0  0  0  0
   38.6400   23.5760   36.7450 C   0  0  0  0  0  0  0  0  0  0  0  0
   37.5780   23.6380   37.0390 H   0  0  0  0  0  0  0  0  0  0  0  0
   39.3560   22.8570   37.6610 C   0  0  0  0  0  0  0  0  0  0  0  0
   39.0020   22.4060   38.5670 H   0  0  0  0  0  0  0  0  0  0  0  0
   40.7200   22.6590   37.4320 C   0  0  0  0  0  3  0  0  0  0  0  0
   41.3450   23.1630   36.3190 C   0  0  0  0  0  3  0  0  0  0  0  0
   38.5470   27.0470   35.6970 C   0  0  0  0  0  0  0  0  0  0  0  0
   39.9100   27.2060   35.6170 F   0  0  0  0  0  0  0  0  0  0  0  0
   37.9280   28.2550   35.5240 F   0  0  0  0  0  0  0  0  0  0  0  0
   38.2370   26.6070   36.9790 F   0  0  0  0  0  0  0  0  0  0  0  0
  1  2  1  0  0  0  0
  2 20  1  0  0  0  0
  3  2  2  0  0  0  0
  3 13  1  0  0  0  0
  4  3  1  0  0  0  0
  5  4  2  0  0  0  0
  6  5  1  0  0  0  0
  6  1  2  0  0  0  0
  7  9  1  0  0  0  0
  7  5  1  0  0  0  0
  8  1  1  0  0  0  0
 10  7  1  0  0  0  0
 11 12  1  0  0  0  0
 12 13  2  0  0  0  0
 12 19  1  0  0  0  0
 13 14  1  0  0  0  0
 14 15  1  0  0  0  0
 14 16  2  0  0  0  0
 16 17  1  0  0  0  0
 18 16  1  0  0  0  0
 19 18  2  0  0  0  0
 20 23  1  0  0  0  0
 21 20  1  0  0  0  0
 22 20  1  0  0  0  0
M  END
>  <minimizedAffinity>
-5.23961115

$$$$

 OpenBabel03272507563D

 23 24  0  0  0  0  0  0  0  0999 V2000
   41.0110   23.0650   36.4500 C   0  0  0  0  0  0  0  0  0  0  0  0
   40.4010   24.0720   35.6470 C   0  0  0  0  0  0  0  0  0  0  0  0
   39.1560   24.5230   36.0310 C   0  0  0  0  0  0  0  0  0  0  0  0
   38.5700   23.9840   37.1580 N   0  0  0  0  0  0  0  0  0  0  0  0
   39.1940   23.0260   37.8880 C   0  0  0  0  0  0  0  0  0  0  0  0
   40.4110   22.5690   37.5320 N   0  0  0  0  0  0  0  0  0  0  0  0
   38.4170   22.6080   39.0050 N   0  0  0  0  0  0  0  0  0  0  0  0
   42.0070   22.6730   36.1760 H   0  0  0  0  0  0  0  0  0  0  0  0
   37.7750   21.8600   38.6400 H   0  0  0  0  0  0  0  0  0  0  0  0
   38.4490   22.9370   39.9710 H   0  0  0  0  0  0  0  0  0  0  0  0
   37.6740   24.0330   33.7560 F   0  0  0  0  0  0  0  0  0  0  0  0
   37.6860   25.3440   34.1850 C   0  0  0  0  0  0  0  0  0  0  0  0
   38.4000   25.5430   35.3730 C   0  0  0  0  0  0  0  0  0  0  0  0
   38.4380   26.8360   35.8810 C   0  0  0  0  0  0  0  0  0  0  0  0
   38.9700   27.1700   36.7890 H   0  0  0  0  0  0  0  0  0  0  0  0
   37.8180   27.8870   35.2670 C   0  0  0  0  0  0  0  0  0  0  0  0
   37.7950   28.9120   35.5800 H   0  0  0  0  0  0  0  0  0  0  0  0
   37.1160   27.6460   34.0840 C   0  0  0  0  0  3  0  0  0  0  0  0
   37.0400   26.3920   33.5330 C   0  0  0  0  0  3  0  0  0  0  0  0
   41.1150   24.6110   34.4550 C   0  0  0  0  0  0  0  0  0  0  0  0
   40.4750   24.2650   33.2890 F   0  0  0  0  0  0  0  0  0  0  0  0
   41.1760   25.9730   34.5660 F   0  0  0  0  0  0  0  0  0  0  0  0
   42.4240   24.1470   34.3860 F   0  0  0  0  0  0  0  0  0  0  0  0
  1  6  1  0  0  0  0
  2  3  1  0  0  0  0
  2  1  2  0  0  0  0
  3  4  2  0  0  0  0
  4  5  1  0  0  0  0
  5  7  1  0  0  0  0
  6  5  2  0  0  0  0
  7 10  1  0  0  0  0
  8  1  1  0  0  0  0
  9  7  1  0  0  0  0
 11 12  1  0  0  0  0
 12 13  1  0  0  0  0
 13 14  2  0  0  0  0
 13  3  1  0  0  0  0
 14 15  1  0  0  0  0
 16 17  1  0  0  0  0
 16 14  1  0  0  0  0
 18 16  2  0  0  0  0
 19 18  1  0  0  0  0
 19 12  2  0  0  0  0
 20 22  1  0  0  0  0
 20  2  1  0  0  0  0
 21 20  1  0  0  0  0
 23 20  1  0  0  0  0
M  END
>  <minimizedAffinity>
-5.06360245

$$$$

 OpenBabel03272507563D

 23 24  0  0  0  0  0  0  0  0999 V2000
   39.4880   25.9070   32.3960 C   0  0  0  0  0  0  0  0  0  0  0  0
   39.5460   25.6550   33.7970 C   0  0  0  0  0  0  0  0  0  0  0  0
   38.8180   24.5890   34.2820 C   0  0  0  0  0  0  0  0  0  0  0  0
   38.0800   23.8300   33.3980 N   0  0  0  0  0  0  0  0  0  0  0  0
   38.0570   24.1120   32.0720 C   0  0  0  0  0  0  0  0  0  0  0  0
   38.7600   25.1490   31.5740 N   0  0  0  0  0  0  0  0  0  0  0  0
   37.2340   23.2090   31.3420 N   0  0  0  0  0  0  0  0  0  0  0  0
   40.0530   26.7530   31.9660 H   0  0  0  0  0  0  0  0  0  0  0  0
   36.2610   23.5990   31.4040 H   0  0  0  0  0  0  0  0  0  0  0  0
   37.4960   22.3550   30.8470 H   0  0  0  0  0  0  0  0  0  0  0  0
   37.0240   25.6330   36.0990 F   0  0  0  0  0  0  0  0  0  0  0  0
   37.9170   24.7130   36.6090 C   0  0  0  0  0  0  0  0  0  0  0  0
   38.7730   24.1630   35.6460 C   0  0  0  0  0  0  0  0  0  0  0  0
   39.6870   23.2110   36.0800 C   0  0  0  0  0  0  0  0  0  0  0  0
   40.4430   22.6970   35.4620 H   0  0  0  0  0  0  0  0  0  0  0  0
   39.7710   22.8110   37.3840 C   0  0  0  0  0  0  0  0  0  0  0  0
   40.4410   22.0910   37.8100 H   0  0  0  0  0  0  0  0  0  0  0  0
   38.8990   23.3840   38.3130 C   0  0  0  0  0  3  0  0  0  0  0  0
   37.9730   24.3280   37.9460 C   0  0  0  0  0  3  0  0  0  0  0  0
   40.3850   26.5170   34.6760 C   0  0  0  0  0  0  0  0  0  0  0  0
   41.3810   25.7920   35.2880 F   0  0  0  0  0  0  0  0  0  0  0  0
   40.9360   27.5090   33.9120 F   0  0  0  0  0  0  0  0  0  0  0  0
   39.6280   27.1340   35.6660 F   0  0  0  0  0  0  0  0  0  0  0  0
  1  2  1  0  0  0  0
  2  3  2  0  0  0  0
  2 20  1  0  0  0  0
  3 13  1  0  0  0  0
  4  3  1  0  0  0  0
  5  4  2  0  0  0  0
  6  5  1  0  0  0  0
  6  1  2  0  0  0  0
  7  9  1  0  0  0  0
  7  5  1  0  0  0  0
  8  1  1  0  0  0  0
 10  7  1  0  0  0  0
 11 12  1  0  0  0  0
 12 19  1  0  0  0  0
 13 14  1  0  0  0  0
 13 12  2  0  0  0  0
 14 16  2  0  0  0  0
 15 14  1  0  0  0  0
 16 17  1  0  0  0  0
 16 18  1  0  0  0  0
 19 18  2  0  0  0  0
 20 21  1  0  0  0  0
 20 23  1  0  0  0  0
 22 20  1  0  0  0  0
M  END
>  <minimizedAffinity>
-4.94992828

$$$$

 OpenBabel03272507563D

 23 24  0  0  0  0  0  0  0  0999 V2000
   37.0160   21.8710   36.3810 C   0  0  0  0  0  0  0  0  0  0  0  0
   37.8940   22.9920   36.4390 C   0  0  0  0  0  0  0  0  0  0  0  0
   38.3680   23.4900   35.2440 C   0  0  0  0  0  0  0  0  0  0  0  0
   37.9730   22.8870   34.0670 N   0  0  0  0  0  0  0  0  0  0  0  0
   37.1340   21.8210   34.0670 C   0  0  0  0  0  0  0  0  0  0  0  0
   36.6590   21.3160   35.2230 N   0  0  0  0  0  0  0  0  0  0  0  0
   36.8560   21.3530   32.7510 N   0  0  0  0  0  0  0  0  0  0  0  0
   36.6170   21.4380   37.3160 H   0  0  0  0  0  0  0  0  0  0  0  0
   37.6380   20.6920   32.5160 H   0  0  0  0  0  0  0  0  0  0  0  0
   36.0750   21.5850   32.1370 H   0  0  0  0  0  0  0  0  0  0  0  0
   37.4070   26.0640   35.0030 F   0  0  0  0  0  0  0  0  0  0  0  0
   38.7780   25.9310   34.9110 C   0  0  0  0  0  0  0  0  0  0  0  0
   39.2320   24.6200   35.0960 C   0  0  0  0  0  0  0  0  0  0  0  0
   40.6040   24.4100   35.0400 C   0  0  0  0  0  0  0  0  0  0  0  0
   41.1260   23.4420   35.1420 H   0  0  0  0  0  0  0  0  0  0  0  0
   41.4960   25.4200   34.8130 C   0  0  0  0  0  0  0  0  0  0  0  0
   42.5640   25.3550   34.7500 H   0  0  0  0  0  0  0  0  0  0  0  0
   41.0010   26.7150   34.6350 C   0  0  0  0  0  3  0  0  0  0  0  0
   39.6580   26.9870   34.6800 C   0  0  0  0  0  3  0  0  0  0  0  0
   38.2540   23.5920   37.7540 C   0  0  0  0  0  0  0  0  0  0  0  0
   38.0340   24.9490   37.7650 F   0  0  0  0  0  0  0  0  0  0  0  0
   37.5010   22.9910   38.7250 F   0  0  0  0  0  0  0  0  0  0  0  0
   39.5890   23.3670   38.0750 F   0  0  0  0  0  0  0  0  0  0  0  0
  1  2  1  0  0  0  0
  1  8  1  0  0  0  0
  2 20  1  0  0  0  0
  3  2  2  0  0  0  0
  4  5  2  0  0  0  0
  4  3  1  0  0  0  0
  5  6  1  0  0  0  0
  6  1  2  0  0  0  0
  7  5  1  0  0  0  0
  9  7  1  0  0  0  0
 10  7  1  0  0  0  0
 12 11  1  0  0  0  0
 12 13  1  0  0  0  0
 13  3  1  0  0  0  0
 14 13  2  0  0  0  0
 14 15  1  0  0  0  0
 16 14  1  0  0  0  0
 17 16  1  0  0  0  0
 18 19  1  0  0  0  0
 18 16  2  0  0  0  0
 19 12  2  0  0  0  0
 20 21  1  0  0  0  0
 20 23  1  0  0  0  0
 20 22  1  0  0  0  0
M  END
>  <minimizedAffinity>
-4.87074423

$$$$

 OpenBabel03272507563D

 23 24  0  0  0  0  0  0  0  0999 V2000
   37.5890   24.3470   32.8740 C   0  0  0  0  0  0  0  0  0  0  0  0
   37.4630   22.9280   32.9030 C   0  0  0  0  0  0  0  0  0  0  0  0
   36.4690   22.3620   32.1330 C   0  0  0  0  0  0  0  0  0  0  0  0
   35.6570   23.1870   31.3830 N   0  0  0  0  0  0  0  0  0  0  0  0
   35.8180   24.5340   31.3910 C   0  0  0  0  0  0  0  0  0  0  0  0
   36.7820   25.1100   32.1360 N   0  0  0  0  0  0  0  0  0  0  0  0
   34.8760   25.1950   30.5520 N   0  0  0  0  0  0  0  0  0  0  0  0
   38.3700   24.8410   33.4790 H   0  0  0  0  0  0  0  0  0  0  0  0
   34.0180   25.3310   31.1420 H   0  0  0  0  0  0  0  0  0  0  0  0
   34.9770   25.4920   29.5800 H   0  0  0  0  0  0  0  0  0  0  0  0
   35.1330   20.9310   34.0770 F   0  0  0  0  0  0  0  0  0  0  0  0
   35.5840   20.1930   33.0010 C   0  0  0  0  0  0  0  0  0  0  0  0
   36.2050   20.9620   32.0100 C   0  0  0  0  0  0  0  0  0  0  0  0
   36.6670   20.2920   30.8830 C   0  0  0  0  0  0  0  0  0  0  0  0
   37.1960   20.7390   30.0230 H   0  0  0  0  0  0  0  0  0  0  0  0
   36.5360   18.9410   30.7250 C   0  0  0  0  0  0  0  0  0  0  0  0
   36.8620   18.3400   29.8990 H   0  0  0  0  0  0  0  0  0  0  0  0
   35.9090   18.2100   31.7380 C   0  0  0  0  0  3  0  0  0  0  0  0
   35.4310   18.8150   32.8730 C   0  0  0  0  0  3  0  0  0  0  0  0
   38.3970   22.1120   33.7290 C   0  0  0  0  0  0  0  0  0  0  0  0
   38.8990   21.0480   33.0170 F   0  0  0  0  0  0  0  0  0  0  0  0
   39.4220   22.9160   34.1470 F   0  0  0  0  0  0  0  0  0  0  0  0
   37.7760   21.6150   34.8700 F   0  0  0  0  0  0  0  0  0  0  0  0
  1  2  1  0  0  0  0
  1  8  1  0  0  0  0
  2 20  1  0  0  0  0
  3  2  2  0  0  0  0
  4  5  2  0  0  0  0
  4  3  1  0  0  0  0
  5  6  1  0  0  0  0
  6  1  2  0  0  0  0
  7  9  1  0  0  0  0
  7  5  1  0  0  0  0
 10  7  1  0  0  0  0
 12 11  1  0  0  0  0
 13  3  1  0  0  0  0
 13 12  2  0  0  0  0
 14 13  1  0  0  0  0
 15 14  1  0  0  0  0
 16 14  2  0  0  0  0
 16 18  1  0  0  0  0
 17 16  1  0  0  0  0
 18 19  2  0  0  0  0
 19 12  1  0  0  0  0
 20 22  1  0  0  0  0
 20 23  1  0  0  0  0
 21 20  1  0  0  0  0
M  END
>  <minimizedAffinity>
-4.8583765

$$$$

 OpenBabel03272507563D

 23 24  0  0  0  0  0  0  0  0999 V2000
   41.0770   23.8080   35.4910 C   0  0  0  0  0  0  0  0  0  0  0  0
   39.8610   24.4900   35.1930 C   0  0  0  0  0  0  0  0  0  0  0  0
   39.9540   25.7980   34.7660 C   0  0  0  0  0  0  0  0  0  0  0  0
   41.2030   26.3730   34.6500 N   0  0  0  0  0  0  0  0  0  0  0  0
   42.3300   25.6800   34.9460 C   0  0  0  0  0  0  0  0  0  0  0  0
   42.2640   24.4010   35.3660 N   0  0  0  0  0  0  0  0  0  0  0  0
   43.5080   26.4590   34.7600 N   0  0  0  0  0  0  0  0  0  0  0  0
   41.0470   22.7610   35.8390 H   0  0  0  0  0  0  0  0  0  0  0  0
   43.6410   26.9890   35.6570 H   0  0  0  0  0  0  0  0  0  0  0  0
   44.1200   26.5160   33.9450 H   0  0  0  0  0  0  0  0  0  0  0  0
   38.4840   27.2180   36.6190 F   0  0  0  0  0  0  0  0  0  0  0  0
   38.0510   27.3200   35.3120 C   0  0  0  0  0  0  0  0  0  0  0  0
   38.8550   26.6330   34.3950 C   0  0  0  0  0  0  0  0  0  0  0  0
   38.4950   26.7080   33.0550 C   0  0  0  0  0  0  0  0  0  0  0  0
   39.0020   26.2120   32.2090 H   0  0  0  0  0  0  0  0  0  0  0  0
   37.4060   27.4110   32.6230 C   0  0  0  0  0  0  0  0  0  0  0  0
   37.0500   27.5230   31.6180 H   0  0  0  0  0  0  0  0  0  0  0  0
   36.6290   28.0830   33.5710 C   0  0  0  0  0  3  0  0  0  0  0  0
   36.9350   28.0490   34.9080 C   0  0  0  0  0  3  0  0  0  0  0  0
   38.5560   23.7840   35.3300 C   0  0  0  0  0  0  0  0  0  0  0  0
   37.8510   23.7990   34.1500 F   0  0  0  0  0  0  0  0  0  0  0  0
   38.8000   22.4920   35.7100 F   0  0  0  0  0  0  0  0  0  0  0  0
   37.7620   24.3580   36.3170 F   0  0  0  0  0  0  0  0  0  0  0  0
  1  8  1  0  0  0  0
  2 20  1  0  0  0  0
  2  1  2  0  0  0  0
  3  2  1  0  0  0  0
  4  3  2  0  0  0  0
  4  5  1  0  0  0  0
  5  6  2  0  0  0  0
  6  1  1  0  0  0  0
  7  5  1  0  0  0  0
  7  9  1  0  0  0  0
 10  7  1  0  0  0  0
 12 11  1  0  0  0  0
 13  3  1  0  0  0  0
 13 12  2  0  0  0  0
 14 13  1  0  0  0  0
 15 14  1  0  0  0  0
 16 14  2  0  0  0  0
 16 18  1  0  0  0  0
 17 16  1  0  0  0  0
 18 19  2  0  0  0  0
 19 12  1  0  0  0  0
 20 22  1  0  0  0  0
 20 23  1  0  0  0  0
 21 20  1  0  0  0  0
M  END
>  <minimizedAffinity>
-4.85612059

$$$$

 OpenBabel03272507563D

 23 24  0  0  0  0  0  0  0  0999 V2000
   39.7700   27.0600   32.4600 C   0  0  0  0  0  0  0  0  0  0  0  0
   39.0520   26.2110   33.3510 C   0  0  0  0  0  0  0  0  0  0  0  0
   39.6970   25.8050   34.5000 C   0  0  0  0  0  0  0  0  0  0  0  0
   40.9870   26.2360   34.7280 N   0  0  0  0  0  0  0  0  0  0  0  0
   41.6270   27.0450   33.8470 C   0  0  0  0  0  0  0  0  0  0  0  0
   41.0180   27.4540   32.7160 N   0  0  0  0  0  0  0  0  0  0  0  0
   42.9470   27.3690   34.2720 N   0  0  0  0  0  0  0  0  0  0  0  0
   39.2920   27.4050   31.5260 H   0  0  0  0  0  0  0  0  0  0  0  0
   43.5540   26.5810   33.9340 H   0  0  0  0  0  0  0  0  0  0  0  0
   43.2740   28.1830   34.7930 H   0  0  0  0  0  0  0  0  0  0  0  0
   38.1110   26.8210   36.5150 F   0  0  0  0  0  0  0  0  0  0  0  0
   38.3760   25.4690   36.5930 C   0  0  0  0  0  0  0  0  0  0  0  0
   39.1350   24.9790   35.5230 C   0  0  0  0  0  0  0  0  0  0  0  0
   39.4230   23.6200   35.5200 C   0  0  0  0  0  0  0  0  0  0  0  0
   40.0240   23.0770   34.7690 H   0  0  0  0  0  0  0  0  0  0  0  0
   39.0010   22.7750   36.5070 C   0  0  0  0  0  0  0  0  0  0  0  0
   39.1760   21.7210   36.5910 H   0  0  0  0  0  0  0  0  0  0  0  0
   38.2450   23.3040   37.5570 C   0  0  0  0  0  3  0  0  0  0  0  0
   37.9260   24.6360   37.6160 C   0  0  0  0  0  3  0  0  0  0  0  0
   37.6530   25.8080   33.0340 C   0  0  0  0  0  0  0  0  0  0  0  0
   36.7600   26.3490   33.9270 F   0  0  0  0  0  0  0  0  0  0  0  0
   37.3570   26.2310   31.7670 F   0  0  0  0  0  0  0  0  0  0  0  0
   37.4990   24.4260   33.0500 F   0  0  0  0  0  0  0  0  0  0  0  0
  1  6  2  0  0  0  0
  1  2  1  0  0  0  0
  2  3  2  0  0  0  0
  3  4  1  0  0  0  0
  3 13  1  0  0  0  0
  5  7  1  0  0  0  0
  5  4  2  0  0  0  0
  6  5  1  0  0  0  0
  7 10  1  0  0  0  0
  8  1  1  0  0  0  0
  9  7  1  0  0  0  0
 11 12  1  0  0  0  0
 12 19  1  0  0  0  0
 13 12  2  0  0  0  0
 14 13  1  0  0  0  0
 14 16  2  0  0  0  0
 15 14  1  0  0  0  0
 16 17  1  0  0  0  0
 16 18  1  0  0  0  0
 18 19  2  0  0  0  0
 20 23  1  0  0  0  0
 20  2  1  0  0  0  0
 20 21  1  0  0  0  0
 22 20  1  0  0  0  0
M  END
>  <minimizedAffinity>
-4.84628105

$$$$
