
 OpenBabel03272509463D

 25 26  0  0  0  0  0  0  0  0999 V2000
   34.5980   30.0400   47.2030 C   0  0  0  0  0  0  0  0  0  0  0  0
   35.4550   30.6500   46.8330 H   0  0  0  0  0  0  0  0  0  0  0  0
   33.7930   30.7440   47.4980 H   0  0  0  0  0  0  0  0  0  0  0  0
   34.1890   29.1160   46.1040 C   0  0  0  0  0  0  0  0  0  0  0  0
   33.6280   29.6070   45.3090 H   0  0  0  0  0  0  0  0  0  0  0  0
   35.1400   28.6710   45.6940 H   0  0  0  0  0  0  0  0  0  0  0  0
   31.5330   29.6570   46.5200 F   0  0  0  0  0  0  0  0  0  0  0  0
   32.0340   28.4250   46.8540 C   0  0  0  0  0  0  0  0  0  0  0  0
   33.3600   28.0280   46.6940 C   0  0  0  0  0  0  0  0  0  0  0  0
   33.7230   26.7570   47.0760 C   0  0  0  0  0  0  0  0  0  0  0  0
   34.7750   26.5650   46.9030 H   0  0  0  0  0  0  0  0  0  0  0  0
   32.8130   25.8870   47.6060 C   0  0  0  0  0  0  0  0  0  0  0  0
   33.1580   24.9070   47.8850 H   0  0  0  0  0  0  0  0  0  0  0  0
   31.4850   26.2840   47.7660 C   0  0  0  0  0  3  0  0  0  0  0  0
   31.0930   27.5710   47.3840 C   0  0  0  0  0  3  0  0  0  0  0  0
   34.9570   29.3350   48.3640 O   0  0  0  0  0  0  0  0  0  0  0  0
   37.7910   29.7090   50.5890 C   0  0  0  0  0  0  0  0  0  0  0  0
   38.1830   31.0080   50.2850 C   0  0  0  0  0  0  0  0  0  0  0  0
   37.4550   31.7010   49.3270 C   0  0  0  0  0  0  0  0  0  0  0  0
   36.4050   31.0470   48.7540 N   0  0  0  0  0  0  0  0  0  0  0  0
   36.0530   29.7810   49.0760 C   0  0  0  0  0  0  0  0  0  0  0  0
   36.7590   29.1070   50.0080 N   0  0  0  0  0  0  0  0  0  0  0  0
   38.3970   29.2180   51.3450 H   0  0  0  0  0  0  0  0  0  0  0  0
   38.9970   31.5560   50.7060 H   0  0  0  0  0  0  0  0  0  0  0  0
   37.6800   32.7160   49.0180 H   0  0  0  0  0  0  0  0  0  0  0  0
  1  3  1  0  0  0  0
  1 16  1  0  0  0  0
  2  1  1  0  0  0  0
  4  9  1  0  0  0  0
  4  1  1  0  0  0  0
  5  4  1  0  0  0  0
  6  4  1  0  0  0  0
  7  8  1  0  0  0  0
  8 15  1  0  0  0  0
  9  8  2  0  0  0  0
  9 10  1  0  0  0  0
 10 12  2  0  0  0  0
 11 10  1  0  0  0  0
 12 14  1  0  0  0  0
 12 13  1  0  0  0  0
 15 14  2  0  0  0  0
 16 21  1  0  0  0  0
 17 23  1  0  0  0  0
 18 17  1  0  0  0  0
 18 24  1  0  0  0  0
 19 18  2  0  0  0  0
 20 21  2  0  0  0  0
 20 19  1  0  0  0  0
 21 22  1  0  0  0  0
 22 17  2  0  0  0  0
 25 19  1  0  0  0  0
M  END
>  <minimizedAffinity>
-3.94319153

>  <minimizedRMSD>
2.17729259

$$$$
