
 OpenBabel03272504083D

 33 35  0  0  0  0  0  0  0  0999 V2000
   37.4050   30.5880   50.2830 C   0  0  0  0  0  0  0  0  0  0  0  0
   37.0470   30.6580   48.9510 C   0  0  0  0  0  0  0  0  0  0  0  0
   35.7930   30.1570   48.5330 C   0  0  0  0  0  0  0  0  0  0  0  0
   34.9780   29.6200   49.4700 N   0  0  0  0  0  0  0  0  0  0  0  0
   35.3730   29.5680   50.7950 C   0  0  0  0  0  0  0  0  0  0  0  0
   36.5800   30.0530   51.1870 N   0  0  0  0  0  0  0  0  0  0  0  0
   34.4690   28.9920   51.7390 N   0  0  0  0  0  0  0  0  0  0  0  0
   38.3730   30.9820   50.5810 H   0  0  0  0  0  0  0  0  0  0  0  0
   34.1300   29.6020   52.5420 H   0  0  0  0  0  0  0  0  0  0  0  0
   34.1140   28.0120   51.6970 H   0  0  0  0  0  0  0  0  0  0  0  0
   38.0030   33.5200   49.3210 Cl  0  0  0  0  0  0  0  0  0  0  0  0
   38.5380   32.5330   48.0020 C   0  0  0  0  0  0  0  0  0  0  0  0
   38.0070   31.2700   48.0030 C   0  0  0  0  0  0  0  0  0  0  0  0
   38.3870   30.3960   46.9800 C   0  0  0  0  0  0  0  0  0  0  0  0
   39.2490   30.7540   46.0020 C   0  0  0  0  0  0  0  0  0  0  0  0
   39.7780   32.0420   46.0150 C   0  0  0  0  0  0  0  0  0  0  0  0
   40.8950   32.5630   44.7900 Cl  0  0  0  0  0  0  0  0  0  0  0  0
   39.4130   32.9040   47.0140 C   0  0  0  0  0  0  0  0  0  0  0  0
   38.0530   29.3730   46.8800 H   0  0  0  0  0  0  0  0  0  0  0  0
   39.5750   30.1100   45.1830 H   0  0  0  0  0  0  0  0  0  0  0  0
   39.7990   33.9120   47.0590 H   0  0  0  0  0  0  0  0  0  0  0  0
   35.4320   30.2380   47.1210 C   0  0  0  0  0  0  0  0  0  0  0  0
   35.5050   31.2980   46.8060 H   0  0  0  0  0  0  0  0  0  0  0  0
   36.1610   29.6900   46.4770 H   0  0  0  0  0  0  0  0  0  0  0  0
   34.7260   27.5790   47.3520 F   0  0  0  0  0  0  0  0  0  0  0  0
   33.7250   28.3930   46.9450 C   0  0  0  0  0  0  0  0  0  0  0  0
   34.0610   29.7260   46.8250 C   0  0  0  0  0  0  0  0  0  0  0  0
   33.1000   30.6290   46.4160 C   0  0  0  0  0  0  0  0  0  0  0  0
   33.3050   31.6980   46.2990 H   0  0  0  0  0  0  0  0  0  0  0  0
   31.8020   30.2530   46.1170 C   0  0  0  0  0  0  0  0  0  0  0  0
   31.0590   30.9670   45.7980 H   0  0  0  0  0  0  0  0  0  0  0  0
   31.5060   28.9170   46.2490 C   0  0  0  0  0  0  0  0  0  0  0  0
   32.4380   27.9740   46.6570 C   0  0  0  0  0  0  0  0  0  0  0  0
  1  8  1  0  0  0  0
  1  6  1  0  0  0  0
  2  1  2  0  0  0  0
  3  2  1  0  0  0  0
  3  4  2  0  0  0  0
  4  5  1  0  0  0  0
  5  6  2  0  0  0  0
  5  7  1  0  0  0  0
  7  9  1  0  0  0  0
 10  7  1  0  0  0  0
 12 13  1  0  0  0  0
 12 11  1  0  0  0  0
 13  2  1  0  0  0  0
 14 13  2  0  0  0  0
 15 16  2  0  0  0  0
 15 14  1  0  0  0  0
 16 18  1  0  0  0  0
 17 16  1  0  0  0  0
 18 21  1  0  0  0  0
 18 12  2  0  0  0  0
 19 14  1  0  0  0  0
 20 15  1  0  0  0  0
 22  3  1  0  0  0  0
 23 22  1  0  0  0  0
 24 22  1  0  0  0  0
 26 25  1  0  0  0  0
 27 26  1  0  0  0  0
 27 22  1  0  0  0  0
 28 27  2  0  0  0  0
 29 28  1  0  0  0  0
 30 32  2  0  0  0  0
 30 28  1  0  0  0  0
 31 30  1  0  0  0  0
 32 33  1  0  0  0  0
 33 26  2  0  0  0  0
M  END
>  <minimizedAffinity>
-6.0197382

>  <minimizedRMSD>
0.657745659

$$$$
