
 OpenBabel03272507543D

 23 24  0  0  0  0  0  0  0  0999 V2000
   35.1790   28.7070   49.9990 C   0  0  0  0  0  0  0  0  0  0  0  0
   36.2800   29.6030   49.8740 C   0  0  0  0  0  0  0  0  0  0  0  0
   36.2390   30.5210   48.8460 C   0  0  0  0  0  0  0  0  0  0  0  0
   35.1490   30.5260   48.0010 N   0  0  0  0  0  0  0  0  0  0  0  0
   34.1260   29.6510   48.1630 C   0  0  0  0  0  0  0  0  0  0  0  0
   34.1440   28.7440   49.1600 N   0  0  0  0  0  0  0  0  0  0  0  0
   33.1060   29.8260   47.1850 N   0  0  0  0  0  0  0  0  0  0  0  0
   35.1740   27.9530   50.8060 H   0  0  0  0  0  0  0  0  0  0  0  0
   33.4110   29.2600   46.3540 H   0  0  0  0  0  0  0  0  0  0  0  0
   32.2460   30.3740   47.2420 H   0  0  0  0  0  0  0  0  0  0  0  0
   37.9570   30.3540   46.6950 F   0  0  0  0  0  0  0  0  0  0  0  0
   38.1570   31.4340   47.5310 C   0  0  0  0  0  0  0  0  0  0  0  0
   37.2310   31.5150   48.5770 C   0  0  0  0  0  0  0  0  0  0  0  0
   37.3550   32.5890   49.4510 C   0  0  0  0  0  0  0  0  0  0  0  0
   36.7260   32.7920   50.3360 H   0  0  0  0  0  0  0  0  0  0  0  0
   38.3300   33.5380   49.3200 C   0  0  0  0  0  0  0  0  0  0  0  0
   38.5060   34.3920   49.9410 H   0  0  0  0  0  0  0  0  0  0  0  0
   39.2340   33.4180   48.2610 C   0  0  0  0  0  3  0  0  0  0  0  0
   39.1640   32.3820   47.3650 C   0  0  0  0  0  3  0  0  0  0  0  0
   37.4090   29.5380   50.8440 C   0  0  0  0  0  0  0  0  0  0  0  0
   38.6150   29.7760   50.2280 F   0  0  0  0  0  0  0  0  0  0  0  0
   37.1950   30.4700   51.8220 F   0  0  0  0  0  0  0  0  0  0  0  0
   37.4800   28.2970   51.4700 F   0  0  0  0  0  0  0  0  0  0  0  0
  1  8  1  0  0  0  0
  2  1  1  0  0  0  0
  2 20  1  0  0  0  0
  3  2  2  0  0  0  0
  4  5  2  0  0  0  0
  4  3  1  0  0  0  0
  5  6  1  0  0  0  0
  6  1  2  0  0  0  0
  7 10  1  0  0  0  0
  7  5  1  0  0  0  0
  9  7  1  0  0  0  0
 11 12  1  0  0  0  0
 12 13  1  0  0  0  0
 13  3  1  0  0  0  0
 13 14  2  0  0  0  0
 14 15  1  0  0  0  0
 16 14  1  0  0  0  0
 16 17  1  0  0  0  0
 18 16  2  0  0  0  0
 19 12  2  0  0  0  0
 19 18  1  0  0  0  0
 20 23  1  0  0  0  0
 20 22  1  0  0  0  0
 21 20  1  0  0  0  0
M  END
>  <minimizedAffinity>
-6.34758091

>  <minimizedRMSD>
1.48903751

$$$$
