
 OpenBabel03272509483D

 25 26  0  0  0  0  0  0  0  0999 V2000
   40.1780   25.0470   34.2890 C   0  0  0  0  0  0  0  0  0  0  0  0
   40.3020   25.0640   33.1810 H   0  0  0  0  0  0  0  0  0  0  0  0
   41.0730   24.5490   34.7150 H   0  0  0  0  0  0  0  0  0  0  0  0
   40.0200   26.4570   34.7520 C   0  0  0  0  0  0  0  0  0  0  0  0
   39.9030   26.5500   35.8310 H   0  0  0  0  0  0  0  0  0  0  0  0
   40.9430   27.0070   34.4110 H   0  0  0  0  0  0  0  0  0  0  0  0
   38.0240   27.4350   36.3580 F   0  0  0  0  0  0  0  0  0  0  0  0
   37.8910   27.5030   34.9950 C   0  0  0  0  0  0  0  0  0  0  0  0
   38.8300   27.0410   34.0730 C   0  0  0  0  0  0  0  0  0  0  0  0
   38.5620   27.1730   32.7310 C   0  0  0  0  0  0  0  0  0  0  0  0
   39.3630   26.7810   32.1160 H   0  0  0  0  0  0  0  0  0  0  0  0
   37.4000   27.7430   32.2900 C   0  0  0  0  0  0  0  0  0  0  0  0
   37.2500   27.8170   31.2280 H   0  0  0  0  0  0  0  0  0  0  0  0
   36.4610   28.2050   33.2120 C   0  0  0  0  0  3  0  0  0  0  0  0
   36.7120   28.0820   34.5820 C   0  0  0  0  0  3  0  0  0  0  0  0
   39.0730   24.2580   34.6500 O   0  0  0  0  0  0  0  0  0  0  0  0
   37.8580   23.9820   38.0510 C   0  0  0  0  0  0  0  0  0  0  0  0
   38.8760   23.2290   38.6240 C   0  0  0  0  0  0  0  0  0  0  0  0
   39.9380   22.8470   37.8160 C   0  0  0  0  0  0  0  0  0  0  0  0
   39.8980   23.2440   36.5130 N   0  0  0  0  0  0  0  0  0  0  0  0
   38.8890   23.9780   35.9890 C   0  0  0  0  0  0  0  0  0  0  0  0
   37.8570   24.3500   36.7750 N   0  0  0  0  0  0  0  0  0  0  0  0
   37.0560   24.2510   38.7320 H   0  0  0  0  0  0  0  0  0  0  0  0
   38.9470   22.8950   39.6360 H   0  0  0  0  0  0  0  0  0  0  0  0
   40.7800   22.2580   38.1660 H   0  0  0  0  0  0  0  0  0  0  0  0
  1 16  1  0  0  0  0
  1  3  1  0  0  0  0
  1  4  1  0  0  0  0
  2  1  1  0  0  0  0
  4  5  1  0  0  0  0
  6  4  1  0  0  0  0
  8  7  1  0  0  0  0
  9  4  1  0  0  0  0
  9  8  2  0  0  0  0
 10  9  1  0  0  0  0
 11 10  1  0  0  0  0
 12 10  2  0  0  0  0
 12 14  1  0  0  0  0
 13 12  1  0  0  0  0
 14 15  2  0  0  0  0
 15  8  1  0  0  0  0
 16 21  1  0  0  0  0
 17 18  1  0  0  0  0
 17 23  1  0  0  0  0
 18 24  1  0  0  0  0
 19 25  1  0  0  0  0
 19 18  2  0  0  0  0
 20 19  1  0  0  0  0
 21 20  2  0  0  0  0
 21 22  1  0  0  0  0
 22 17  2  0  0  0  0
M  END
>  <minimizedAffinity>
-4.62080193

$$$$

 OpenBabel03272509483D

 25 26  0  0  0  0  0  0  0  0999 V2000
   38.8410   22.3050   34.6200 C   0  0  0  0  0  0  0  0  0  0  0  0
   38.7940   23.0790   33.8190 H   0  0  0  0  0  0  0  0  0  0  0  0
   39.4840   21.4810   34.2480 H   0  0  0  0  0  0  0  0  0  0  0  0
   39.3820   22.9540   35.8510 C   0  0  0  0  0  0  0  0  0  0  0  0
   38.8010   22.7400   36.7470 H   0  0  0  0  0  0  0  0  0  0  0  0
   40.4370   22.5760   35.9700 H   0  0  0  0  0  0  0  0  0  0  0  0
   37.3400   24.4300   36.9340 F   0  0  0  0  0  0  0  0  0  0  0  0
   38.3300   25.0610   36.2240 C   0  0  0  0  0  0  0  0  0  0  0  0
   39.4170   24.4260   35.6240 C   0  0  0  0  0  0  0  0  0  0  0  0
   40.3350   25.1870   34.9400 C   0  0  0  0  0  0  0  0  0  0  0  0
   41.1320   24.5850   34.5210 H   0  0  0  0  0  0  0  0  0  0  0  0
   40.1990   26.5440   34.8370 C   0  0  0  0  0  0  0  0  0  0  0  0
   40.9500   27.0830   34.2890 H   0  0  0  0  0  0  0  0  0  0  0  0
   39.1110   27.1790   35.4370 C   0  0  0  0  0  3  0  0  0  0  0  0
   38.1660   26.4250   36.1390 C   0  0  0  0  0  3  0  0  0  0  0  0
   37.5710   21.7490   34.8450 O   0  0  0  0  0  0  0  0  0  0  0  0
   35.0460   20.5960   32.5180 C   0  0  0  0  0  0  0  0  0  0  0  0
   35.4060   21.3070   31.3790 C   0  0  0  0  0  0  0  0  0  0  0  0
   36.5040   22.1540   31.4600 C   0  0  0  0  0  0  0  0  0  0  0  0
   37.1460   22.2220   32.6600 N   0  0  0  0  0  0  0  0  0  0  0  0
   36.7660   21.5140   33.7490 C   0  0  0  0  0  0  0  0  0  0  0  0
   35.6990   20.6900   33.6710 N   0  0  0  0  0  0  0  0  0  0  0  0
   34.1810   19.9510   32.3940 H   0  0  0  0  0  0  0  0  0  0  0  0
   34.9330   21.2860   30.4220 H   0  0  0  0  0  0  0  0  0  0  0  0
   36.8650   22.7520   30.6300 H   0  0  0  0  0  0  0  0  0  0  0  0
  1 16  1  0  0  0  0
  1  4  1  0  0  0  0
  2  1  1  0  0  0  0
  3  1  1  0  0  0  0
  4  6  1  0  0  0  0
  4  5  1  0  0  0  0
  8  7  1  0  0  0  0
  9  4  1  0  0  0  0
  9  8  2  0  0  0  0
 10  9  1  0  0  0  0
 11 10  1  0  0  0  0
 12 10  2  0  0  0  0
 12 14  1  0  0  0  0
 13 12  1  0  0  0  0
 14 15  2  0  0  0  0
 15  8  1  0  0  0  0
 17 22  1  0  0  0  0
 18 19  1  0  0  0  0
 18 17  2  0  0  0  0
 19 20  2  0  0  0  0
 20 21  1  0  0  0  0
 21 16  1  0  0  0  0
 22 21  2  0  0  0  0
 23 17  1  0  0  0  0
 24 18  1  0  0  0  0
 25 19  1  0  0  0  0
M  END
>  <minimizedAffinity>
-4.43163395

$$$$

 OpenBabel03272509483D

 25 26  0  0  0  0  0  0  0  0999 V2000
   35.9020   29.2140   32.8550 C   0  0  0  0  0  0  0  0  0  0  0  0
   36.7530   29.7650   33.3210 H   0  0  0  0  0  0  0  0  0  0  0  0
   35.6790   29.7070   31.8860 H   0  0  0  0  0  0  0  0  0  0  0  0
   36.3110   27.7870   32.7010 C   0  0  0  0  0  0  0  0  0  0  0  0
   35.4970   27.0810   32.8640 H   0  0  0  0  0  0  0  0  0  0  0  0
   36.7130   27.6840   31.6530 H   0  0  0  0  0  0  0  0  0  0  0  0
   38.7700   27.1660   31.6570 F   0  0  0  0  0  0  0  0  0  0  0  0
   38.6030   27.2090   33.0170 C   0  0  0  0  0  0  0  0  0  0  0  0
   37.4070   27.5090   33.6700 C   0  0  0  0  0  0  0  0  0  0  0  0
   37.3860   27.5150   35.0450 C   0  0  0  0  0  0  0  0  0  0  0  0
   36.4060   27.7630   35.4350 H   0  0  0  0  0  0  0  0  0  0  0  0
   38.5060   27.2310   35.7760 C   0  0  0  0  0  0  0  0  0  0  0  0
   38.4250   27.2520   36.8470 H   0  0  0  0  0  0  0  0  0  0  0  0
   39.7020   26.9310   35.1220 C   0  0  0  0  0  3  0  0  0  0  0  0
   39.7480   26.9210   33.7250 C   0  0  0  0  0  3  0  0  0  0  0  0
   34.7450   29.3380   33.6410 O   0  0  0  0  0  0  0  0  0  0  0  0
   35.6650   31.7290   36.2020 C   0  0  0  0  0  0  0  0  0  0  0  0
   34.4370   31.9200   36.8240 C   0  0  0  0  0  0  0  0  0  0  0  0
   33.3420   31.2190   36.3360 C   0  0  0  0  0  0  0  0  0  0  0  0
   33.5610   30.3900   35.2760 N   0  0  0  0  0  0  0  0  0  0  0  0
   34.7730   30.2290   34.6950 C   0  0  0  0  0  0  0  0  0  0  0  0
   35.8370   30.9110   35.1690 N   0  0  0  0  0  0  0  0  0  0  0  0
   36.4820   32.3040   36.6280 H   0  0  0  0  0  0  0  0  0  0  0  0
   34.2200   32.5580   37.6530 H   0  0  0  0  0  0  0  0  0  0  0  0
   32.3430   31.2980   36.7500 H   0  0  0  0  0  0  0  0  0  0  0  0
  1  2  1  0  0  0  0
  1 16  1  0  0  0  0
  3  1  1  0  0  0  0
  4  1  1  0  0  0  0
  4  5  1  0  0  0  0
  4  9  1  0  0  0  0
  6  4  1  0  0  0  0
  7  8  1  0  0  0  0
  8  9  2  0  0  0  0
  8 15  1  0  0  0  0
  9 10  1  0  0  0  0
 10 11  1  0  0  0  0
 10 12  2  0  0  0  0
 12 13  1  0  0  0  0
 14 12  1  0  0  0  0
 15 14  2  0  0  0  0
 16 21  1  0  0  0  0
 17 23  1  0  0  0  0
 17 18  1  0  0  0  0
 18 24  1  0  0  0  0
 19 25  1  0  0  0  0
 19 18  2  0  0  0  0
 20 19  1  0  0  0  0
 21 22  1  0  0  0  0
 21 20  2  0  0  0  0
 22 17  2  0  0  0  0
M  END
>  <minimizedAffinity>
-4.42706347

$$$$

 OpenBabel03272509483D

 25 26  0  0  0  0  0  0  0  0999 V2000
   36.9280   27.4630   34.5930 C   0  0  0  0  0  0  0  0  0  0  0  0
   36.3710   26.5510   34.9140 H   0  0  0  0  0  0  0  0  0  0  0  0
   36.2320   28.3220   34.6760 H   0  0  0  0  0  0  0  0  0  0  0  0
   38.1260   27.5980   35.4740 C   0  0  0  0  0  0  0  0  0  0  0  0
   38.8420   28.3410   35.1230 H   0  0  0  0  0  0  0  0  0  0  0  0
   37.7390   27.8820   36.4940 H   0  0  0  0  0  0  0  0  0  0  0  0
   40.5950   27.3660   34.3030 F   0  0  0  0  0  0  0  0  0  0  0  0
   40.0380   26.2810   34.9310 C   0  0  0  0  0  0  0  0  0  0  0  0
   38.7930   26.2700   35.5600 C   0  0  0  0  0  0  0  0  0  0  0  0
   38.3600   25.1060   36.1500 C   0  0  0  0  0  0  0  0  0  0  0  0
   37.3840   25.2210   36.6060 H   0  0  0  0  0  0  0  0  0  0  0  0
   39.1200   23.9700   36.1290 C   0  0  0  0  0  0  0  0  0  0  0  0
   38.7250   23.0930   36.6070 H   0  0  0  0  0  0  0  0  0  0  0  0
   40.3660   23.9820   35.4990 C   0  0  0  0  0  3  0  0  0  0  0  0
   40.8280   25.1540   34.8930 C   0  0  0  0  0  3  0  0  0  0  0  0
   37.2900   27.3710   33.2390 O   0  0  0  0  0  0  0  0  0  0  0  0
   35.1640   25.5830   30.9140 C   0  0  0  0  0  0  0  0  0  0  0  0
   35.6180   24.2830   31.1030 C   0  0  0  0  0  0  0  0  0  0  0  0
   36.6380   24.0760   32.0220 C   0  0  0  0  0  0  0  0  0  0  0  0
   37.1170   25.1730   32.6730 N   0  0  0  0  0  0  0  0  0  0  0  0
   36.6490   26.4260   32.4630 C   0  0  0  0  0  0  0  0  0  0  0  0
   35.6580   26.6280   31.5700 N   0  0  0  0  0  0  0  0  0  0  0  0
   34.3660   25.6830   30.1830 H   0  0  0  0  0  0  0  0  0  0  0  0
   35.2740   23.3970   30.6150 H   0  0  0  0  0  0  0  0  0  0  0  0
   37.0620   23.1020   32.2410 H   0  0  0  0  0  0  0  0  0  0  0  0
  1  3  1  0  0  0  0
  1  2  1  0  0  0  0
  1  4  1  0  0  0  0
  4  9  1  0  0  0  0
  4  6  1  0  0  0  0
  5  4  1  0  0  0  0
  7  8  1  0  0  0  0
  8  9  1  0  0  0  0
  9 10  2  0  0  0  0
 10 11  1  0  0  0  0
 12 10  1  0  0  0  0
 12 13  1  0  0  0  0
 14 12  2  0  0  0  0
 15  8  2  0  0  0  0
 15 14  1  0  0  0  0
 16  1  1  0  0  0  0
 17 18  2  0  0  0  0
 17 22  1  0  0  0  0
 18 19  1  0  0  0  0
 19 25  1  0  0  0  0
 19 20  2  0  0  0  0
 21 20  1  0  0  0  0
 21 16  1  0  0  0  0
 22 21  2  0  0  0  0
 23 17  1  0  0  0  0
 24 18  1  0  0  0  0
M  END
>  <minimizedAffinity>
-4.4083209

$$$$

 OpenBabel03272509483D

 25 26  0  0  0  0  0  0  0  0999 V2000
   38.0630   23.1730   33.7360 C   0  0  0  0  0  0  0  0  0  0  0  0
   37.7670   24.0980   34.2840 H   0  0  0  0  0  0  0  0  0  0  0  0
   39.0960   23.3250   33.3630 H   0  0  0  0  0  0  0  0  0  0  0  0
   37.9510   22.0260   34.6860 C   0  0  0  0  0  0  0  0  0  0  0  0
   36.9710   21.5490   34.6770 H   0  0  0  0  0  0  0  0  0  0  0  0
   38.7470   21.2870   34.3850 H   0  0  0  0  0  0  0  0  0  0  0  0
   40.5310   21.7630   35.5780 F   0  0  0  0  0  0  0  0  0  0  0  0
   39.5880   22.3370   36.3910 C   0  0  0  0  0  0  0  0  0  0  0  0
   38.2470   22.5250   36.0570 C   0  0  0  0  0  0  0  0  0  0  0  0
   37.4110   23.1150   36.9760 C   0  0  0  0  0  0  0  0  0  0  0  0
   36.3980   23.2080   36.6030 H   0  0  0  0  0  0  0  0  0  0  0  0
   37.8670   23.5130   38.2010 C   0  0  0  0  0  0  0  0  0  0  0  0
   37.1650   23.9680   38.8750 H   0  0  0  0  0  0  0  0  0  0  0  0
   39.2090   23.3250   38.5360 C   0  0  0  0  0  3  0  0  0  0  0  0
   40.0780   22.7280   37.6160 C   0  0  0  0  0  3  0  0  0  0  0  0
   37.2520   22.9880   32.6040 O   0  0  0  0  0  0  0  0  0  0  0  0
   35.0540   25.2760   30.8580 C   0  0  0  0  0  0  0  0  0  0  0  0
   35.5680   26.4960   31.2820 C   0  0  0  0  0  0  0  0  0  0  0  0
   36.6510   26.4800   32.1520 C   0  0  0  0  0  0  0  0  0  0  0  0
   37.1270   25.2590   32.5240 N   0  0  0  0  0  0  0  0  0  0  0  0
   36.6000   24.0900   32.0910 C   0  0  0  0  0  0  0  0  0  0  0  0
   35.5480   24.1050   31.2450 N   0  0  0  0  0  0  0  0  0  0  0  0
   34.2090   25.3530   30.1800 H   0  0  0  0  0  0  0  0  0  0  0  0
   35.2260   27.4730   31.0180 H   0  0  0  0  0  0  0  0  0  0  0  0
   37.1240   27.3750   32.5410 H   0  0  0  0  0  0  0  0  0  0  0  0
  1  2  1  0  0  0  0
  1  4  1  0  0  0  0
  3  1  1  0  0  0  0
  4  9  1  0  0  0  0
  5  4  1  0  0  0  0
  6  4  1  0  0  0  0
  7  8  1  0  0  0  0
  8 15  1  0  0  0  0
  9  8  2  0  0  0  0
  9 10  1  0  0  0  0
 10 12  2  0  0  0  0
 11 10  1  0  0  0  0
 12 14  1  0  0  0  0
 12 13  1  0  0  0  0
 15 14  2  0  0  0  0
 16  1  1  0  0  0  0
 17 22  2  0  0  0  0
 17 18  1  0  0  0  0
 18 19  2  0  0  0  0
 19 20  1  0  0  0  0
 19 25  1  0  0  0  0
 21 20  2  0  0  0  0
 21 16  1  0  0  0  0
 22 21  1  0  0  0  0
 23 17  1  0  0  0  0
 24 18  1  0  0  0  0
M  END
>  <minimizedAffinity>
-4.39032364

$$$$

 OpenBabel03272509483D

 25 26  0  0  0  0  0  0  0  0999 V2000
   38.2880   26.4610   34.9080 C   0  0  0  0  0  0  0  0  0  0  0  0
   38.9090   26.6990   34.0120 H   0  0  0  0  0  0  0  0  0  0  0  0
   38.8980   26.6950   35.8050 H   0  0  0  0  0  0  0  0  0  0  0  0
   37.0390   27.2740   34.8260 C   0  0  0  0  0  0  0  0  0  0  0  0
   36.1340   26.7040   35.0380 H   0  0  0  0  0  0  0  0  0  0  0  0
   37.1560   28.1110   35.5720 H   0  0  0  0  0  0  0  0  0  0  0  0
   35.0620   29.1230   34.3830 F   0  0  0  0  0  0  0  0  0  0  0  0
   35.9090   28.7790   33.3610 C   0  0  0  0  0  0  0  0  0  0  0  0
   36.9490   27.8540   33.4570 C   0  0  0  0  0  0  0  0  0  0  0  0
   37.7200   27.6060   32.3460 C   0  0  0  0  0  0  0  0  0  0  0  0
   38.4940   26.8730   32.5440 H   0  0  0  0  0  0  0  0  0  0  0  0
   37.4850   28.2420   31.1590 C   0  0  0  0  0  0  0  0  0  0  0  0
   38.1230   28.0050   30.3280 H   0  0  0  0  0  0  0  0  0  0  0  0
   36.4450   29.1680   31.0630 C   0  0  0  0  0  3  0  0  0  0  0  0
   35.6480   29.4370   32.1800 C   0  0  0  0  0  3  0  0  0  0  0  0
   38.0070   25.0860   34.9640 O   0  0  0  0  0  0  0  0  0  0  0  0
   39.8400   22.9320   37.2270 C   0  0  0  0  0  0  0  0  0  0  0  0
   39.1230   23.1290   38.4020 C   0  0  0  0  0  0  0  0  0  0  0  0
   38.0390   23.9970   38.3660 C   0  0  0  0  0  0  0  0  0  0  0  0
   37.7610   24.5900   37.1710 N   0  0  0  0  0  0  0  0  0  0  0  0
   38.4820   24.3740   36.0470 C   0  0  0  0  0  0  0  0  0  0  0  0
   39.5360   23.5310   36.0810 N   0  0  0  0  0  0  0  0  0  0  0  0
   40.6760   22.2440   37.3170 H   0  0  0  0  0  0  0  0  0  0  0  0
   39.3070   22.6880   39.3570 H   0  0  0  0  0  0  0  0  0  0  0  0
   37.4180   24.2190   39.2270 H   0  0  0  0  0  0  0  0  0  0  0  0
  1 16  1  0  0  0  0
  1  3  1  0  0  0  0
  2  1  1  0  0  0  0
  4  1  1  0  0  0  0
  4  5  1  0  0  0  0
  4  6  1  0  0  0  0
  8  9  1  0  0  0  0
  8  7  1  0  0  0  0
  9  4  1  0  0  0  0
 10 11  1  0  0  0  0
 10  9  2  0  0  0  0
 12 10  1  0  0  0  0
 13 12  1  0  0  0  0
 14 12  2  0  0  0  0
 14 15  1  0  0  0  0
 15  8  2  0  0  0  0
 16 21  1  0  0  0  0
 17 23  1  0  0  0  0
 17 18  1  0  0  0  0
 18 24  1  0  0  0  0
 19 18  2  0  0  0  0
 19 25  1  0  0  0  0
 20 19  1  0  0  0  0
 21 22  1  0  0  0  0
 21 20  2  0  0  0  0
 22 17  2  0  0  0  0
M  END
>  <minimizedAffinity>
-4.36132622

$$$$

 OpenBabel03272509483D

 25 26  0  0  0  0  0  0  0  0999 V2000
   38.8490   23.0340   33.5790 C   0  0  0  0  0  0  0  0  0  0  0  0
   39.5600   22.8000   32.7520 H   0  0  0  0  0  0  0  0  0  0  0  0
   38.7180   22.1070   34.1740 H   0  0  0  0  0  0  0  0  0  0  0  0
   39.4260   24.1590   34.3720 C   0  0  0  0  0  0  0  0  0  0  0  0
   40.4650   24.3750   34.1270 H   0  0  0  0  0  0  0  0  0  0  0  0
   38.7800   25.0590   34.1610 H   0  0  0  0  0  0  0  0  0  0  0  0
   37.3980   25.3420   35.7890 F   0  0  0  0  0  0  0  0  0  0  0  0
   38.2510   24.4760   36.4230 C   0  0  0  0  0  0  0  0  0  0  0  0
   39.3190   23.8140   35.8170 C   0  0  0  0  0  0  0  0  0  0  0  0
   40.0960   22.9720   36.5780 C   0  0  0  0  0  0  0  0  0  0  0  0
   40.8890   22.5160   35.9990 H   0  0  0  0  0  0  0  0  0  0  0  0
   39.8420   22.7780   37.9070 C   0  0  0  0  0  0  0  0  0  0  0  0
   40.4850   22.1080   38.4480 H   0  0  0  0  0  0  0  0  0  0  0  0
   38.7740   23.4400   38.5140 C   0  0  0  0  0  3  0  0  0  0  0  0
   37.9700   24.3000   37.7590 C   0  0  0  0  0  3  0  0  0  0  0  0
   37.5830   23.3590   33.0640 O   0  0  0  0  0  0  0  0  0  0  0  0
   35.5170   21.0450   31.1950 C   0  0  0  0  0  0  0  0  0  0  0  0
   35.1700   20.1470   32.1980 C   0  0  0  0  0  0  0  0  0  0  0  0
   35.6620   20.3760   33.4760 C   0  0  0  0  0  0  0  0  0  0  0  0
   36.4540   21.4720   33.6480 N   0  0  0  0  0  0  0  0  0  0  0  0
   36.7700   22.3250   32.6460 C   0  0  0  0  0  0  0  0  0  0  0  0
   36.2920   22.1040   31.4030 N   0  0  0  0  0  0  0  0  0  0  0  0
   35.1030   20.8140   30.2170 H   0  0  0  0  0  0  0  0  0  0  0  0
   34.5570   19.2770   32.1080 H   0  0  0  0  0  0  0  0  0  0  0  0
   35.4510   19.7350   34.3250 H   0  0  0  0  0  0  0  0  0  0  0  0
  1  3  1  0  0  0  0
  1  4  1  0  0  0  0
  2  1  1  0  0  0  0
  4  9  1  0  0  0  0
  5  4  1  0  0  0  0
  6  4  1  0  0  0  0
  7  8  1  0  0  0  0
  8 15  1  0  0  0  0
  9  8  2  0  0  0  0
  9 10  1  0  0  0  0
 10 12  2  0  0  0  0
 11 10  1  0  0  0  0
 12 13  1  0  0  0  0
 12 14  1  0  0  0  0
 15 14  2  0  0  0  0
 16  1  1  0  0  0  0
 17 22  2  0  0  0  0
 17 18  1  0  0  0  0
 18 19  2  0  0  0  0
 19 20  1  0  0  0  0
 19 25  1  0  0  0  0
 21 16  1  0  0  0  0
 21 20  2  0  0  0  0
 22 21  1  0  0  0  0
 23 17  1  0  0  0  0
 24 18  1  0  0  0  0
M  END
>  <minimizedAffinity>
-4.36055899

$$$$

 OpenBabel03272509483D

 25 26  0  0  0  0  0  0  0  0999 V2000
   39.1030   24.8400   33.8270 C   0  0  0  0  0  0  0  0  0  0  0  0
   38.8400   24.8340   32.7430 H   0  0  0  0  0  0  0  0  0  0  0  0
   39.9580   24.1460   33.9640 H   0  0  0  0  0  0  0  0  0  0  0  0
   39.4280   26.2460   34.2090 C   0  0  0  0  0  0  0  0  0  0  0  0
   39.6960   26.3610   35.2590 H   0  0  0  0  0  0  0  0  0  0  0  0
   40.2870   26.5630   33.5510 H   0  0  0  0  0  0  0  0  0  0  0  0
   39.0990   27.0350   31.6040 F   0  0  0  0  0  0  0  0  0  0  0  0
   38.1880   27.4290   32.5510 C   0  0  0  0  0  0  0  0  0  0  0  0
   38.2450   27.0970   33.9050 C   0  0  0  0  0  0  0  0  0  0  0  0
   37.2600   27.5650   34.7430 C   0  0  0  0  0  0  0  0  0  0  0  0
   37.4100   27.2410   35.7660 H   0  0  0  0  0  0  0  0  0  0  0  0
   36.2380   28.3440   34.2770 C   0  0  0  0  0  0  0  0  0  0  0  0
   35.5000   28.6780   34.9820 H   0  0  0  0  0  0  0  0  0  0  0  0
   36.1820   28.6760   32.9220 C   0  0  0  0  0  3  0  0  0  0  0  0
   37.1720   28.2100   32.0510 C   0  0  0  0  0  3  0  0  0  0  0  0
   38.0450   24.3270   34.5950 O   0  0  0  0  0  0  0  0  0  0  0  0
   37.9980   24.1300   38.2110 C   0  0  0  0  0  0  0  0  0  0  0  0
   39.0710   23.2750   38.4330 C   0  0  0  0  0  0  0  0  0  0  0  0
   39.7660   22.8010   37.3280 C   0  0  0  0  0  0  0  0  0  0  0  0
   39.3370   23.2160   36.1030 N   0  0  0  0  0  0  0  0  0  0  0  0
   38.2870   24.0500   35.9250 C   0  0  0  0  0  0  0  0  0  0  0  0
   37.6110   24.5120   36.9980 N   0  0  0  0  0  0  0  0  0  0  0  0
   37.4940   24.4680   39.1120 H   0  0  0  0  0  0  0  0  0  0  0  0
   39.4390   22.9240   39.3720 H   0  0  0  0  0  0  0  0  0  0  0  0
   40.6150   22.1300   37.3940 H   0  0  0  0  0  0  0  0  0  0  0  0
  1  3  1  0  0  0  0
  1  4  1  0  0  0  0
  1 16  1  0  0  0  0
  2  1  1  0  0  0  0
  4  5  1  0  0  0  0
  6  4  1  0  0  0  0
  7  8  1  0  0  0  0
  8  9  1  0  0  0  0
  9  4  1  0  0  0  0
  9 10  2  0  0  0  0
 10 11  1  0  0  0  0
 12 10  1  0  0  0  0
 12 13  1  0  0  0  0
 14 12  2  0  0  0  0
 15  8  2  0  0  0  0
 15 14  1  0  0  0  0
 16 21  1  0  0  0  0
 17 18  1  0  0  0  0
 17 23  1  0  0  0  0
 18 24  1  0  0  0  0
 19 25  1  0  0  0  0
 19 18  2  0  0  0  0
 20 19  1  0  0  0  0
 21 20  2  0  0  0  0
 21 22  1  0  0  0  0
 22 17  2  0  0  0  0
M  END
>  <minimizedAffinity>
-4.30792952

$$$$

 OpenBabel03272509483D

 25 26  0  0  0  0  0  0  0  0999 V2000
   39.5090   23.7010   33.4610 C   0  0  0  0  0  0  0  0  0  0  0  0
   40.5530   23.3080   33.4720 H   0  0  0  0  0  0  0  0  0  0  0  0
   38.8340   22.8530   33.6960 H   0  0  0  0  0  0  0  0  0  0  0  0
   39.4270   24.8050   34.4630 C   0  0  0  0  0  0  0  0  0  0  0  0
   40.2790   25.4830   34.4330 H   0  0  0  0  0  0  0  0  0  0  0  0
   38.4750   25.3650   34.2400 H   0  0  0  0  0  0  0  0  0  0  0  0
   37.3790   25.6740   36.0670 F   0  0  0  0  0  0  0  0  0  0  0  0
   38.2470   24.7200   36.5330 C   0  0  0  0  0  0  0  0  0  0  0  0
   39.3250   24.1980   35.8190 C   0  0  0  0  0  0  0  0  0  0  0  0
   40.1150   23.2430   36.4150 C   0  0  0  0  0  0  0  0  0  0  0  0
   40.9160   22.9140   35.7640 H   0  0  0  0  0  0  0  0  0  0  0  0
   39.8640   22.8020   37.6840 C   0  0  0  0  0  0  0  0  0  0  0  0
   40.5170   22.0540   38.0940 H   0  0  0  0  0  0  0  0  0  0  0  0
   38.7850   23.3250   38.3990 C   0  0  0  0  0  3  0  0  0  0  0  0
   37.9680   24.2960   37.8120 C   0  0  0  0  0  3  0  0  0  0  0  0
   39.1620   24.1440   32.1740 O   0  0  0  0  0  0  0  0  0  0  0  0
   35.6810   23.4400   31.4640 C   0  0  0  0  0  0  0  0  0  0  0  0
   35.2190   24.7170   31.1660 C   0  0  0  0  0  0  0  0  0  0  0  0
   36.1250   25.7670   31.2230 C   0  0  0  0  0  0  0  0  0  0  0  0
   37.4070   25.4610   31.5690 N   0  0  0  0  0  0  0  0  0  0  0  0
   37.8210   24.2040   31.8520 C   0  0  0  0  0  0  0  0  0  0  0  0
   36.9410   23.1820   31.7970 N   0  0  0  0  0  0  0  0  0  0  0  0
   34.9270   22.6600   31.4020 H   0  0  0  0  0  0  0  0  0  0  0  0
   34.2260   25.0020   30.8930 H   0  0  0  0  0  0  0  0  0  0  0  0
   35.8650   26.7990   31.0110 H   0  0  0  0  0  0  0  0  0  0  0  0
  1  2  1  0  0  0  0
  1  3  1  0  0  0  0
  1  4  1  0  0  0  0
  4  9  1  0  0  0  0
  5  4  1  0  0  0  0
  6  4  1  0  0  0  0
  7  8  1  0  0  0  0
  8 15  1  0  0  0  0
  9 10  1  0  0  0  0
  9  8  2  0  0  0  0
 10 12  2  0  0  0  0
 11 10  1  0  0  0  0
 12 13  1  0  0  0  0
 12 14  1  0  0  0  0
 15 14  2  0  0  0  0
 16  1  1  0  0  0  0
 17 22  1  0  0  0  0
 18 19  1  0  0  0  0
 18 17  2  0  0  0  0
 19 20  2  0  0  0  0
 20 21  1  0  0  0  0
 21 16  1  0  0  0  0
 22 21  2  0  0  0  0
 23 17  1  0  0  0  0
 24 18  1  0  0  0  0
 25 19  1  0  0  0  0
M  END
>  <minimizedAffinity>
-4.259202

$$$$
