
 OpenBabel03272507553D

 23 24  0  0  0  0  0  0  0  0999 V2000
   35.0600   28.8540   50.0370 C   0  0  0  0  0  0  0  0  0  0  0  0
   36.2410   29.6350   49.8750 C   0  0  0  0  0  0  0  0  0  0  0  0
   36.3000   30.4790   48.7870 C   0  0  0  0  0  0  0  0  0  0  0  0
   35.2270   30.5260   47.9210 N   0  0  0  0  0  0  0  0  0  0  0  0
   34.1250   29.7610   48.1210 C   0  0  0  0  0  0  0  0  0  0  0  0
   34.0450   28.9280   49.1770 N   0  0  0  0  0  0  0  0  0  0  0  0
   33.1400   29.9610   47.1120 N   0  0  0  0  0  0  0  0  0  0  0  0
   34.9730   28.1610   50.8930 H   0  0  0  0  0  0  0  0  0  0  0  0
   33.4020   29.3140   46.3280 H   0  0  0  0  0  0  0  0  0  0  0  0
   32.3340   30.5880   47.1150 H   0  0  0  0  0  0  0  0  0  0  0  0
   36.7620   32.8150   50.1790 F   0  0  0  0  0  0  0  0  0  0  0  0
   37.6120   32.5790   49.1180 C   0  0  0  0  0  0  0  0  0  0  0  0
   37.3830   31.3580   48.4720 C   0  0  0  0  0  0  0  0  0  0  0  0
   38.2150   31.0390   47.4060 C   0  0  0  0  0  0  0  0  0  0  0  0
   38.1600   30.1330   46.7770 H   0  0  0  0  0  0  0  0  0  0  0  0
   39.2190   31.8640   46.9820 C   0  0  0  0  0  0  0  0  0  0  0  0
   39.9030   31.7060   46.1730 H   0  0  0  0  0  0  0  0  0  0  0  0
   39.4140   33.0740   47.6540 C   0  0  0  0  0  3  0  0  0  0  0  0
   38.6270   33.4440   48.7140 C   0  0  0  0  0  3  0  0  0  0  0  0
   37.3460   29.5330   50.8700 C   0  0  0  0  0  0  0  0  0  0  0  0
   38.5750   29.6810   50.2730 F   0  0  0  0  0  0  0  0  0  0  0  0
   37.1680   30.5070   51.8150 F   0  0  0  0  0  0  0  0  0  0  0  0
   37.3300   28.3110   51.5340 F   0  0  0  0  0  0  0  0  0  0  0  0
  1  8  1  0  0  0  0
  2  1  1  0  0  0  0
  2 20  1  0  0  0  0
  3  2  2  0  0  0  0
  4  5  2  0  0  0  0
  4  3  1  0  0  0  0
  5  6  1  0  0  0  0
  6  1  2  0  0  0  0
  7 10  1  0  0  0  0
  7  5  1  0  0  0  0
  9  7  1  0  0  0  0
 12 11  1  0  0  0  0
 13  3  1  0  0  0  0
 13 12  2  0  0  0  0
 14 13  1  0  0  0  0
 15 14  1  0  0  0  0
 16 14  2  0  0  0  0
 16 18  1  0  0  0  0
 17 16  1  0  0  0  0
 18 19  2  0  0  0  0
 19 12  1  0  0  0  0
 20 23  1  0  0  0  0
 20 22  1  0  0  0  0
 21 20  1  0  0  0  0
M  END
>  <minimizedAffinity>
-6.41116714

>  <minimizedRMSD>
1.57682252

$$$$
