
 OpenBabel03262521163D

 28 29  0  0  0  0  0  0  0  0999 V2000
   35.2310   29.2360   50.5810 C   0  0  0  0  0  0  0  0  0  0  0  0
   35.4810   30.1180   51.2210 H   0  0  0  0  0  0  0  0  0  0  0  0
   35.1790   28.4100   51.3570 H   0  0  0  0  0  0  0  0  0  0  0  0
   34.0420   29.4080   49.9600 C   0  0  0  0  0  0  0  0  0  0  0  0
   33.8310   30.4340   49.5720 H   0  0  0  0  0  0  0  0  0  0  0  0
   33.1300   29.2070   50.6030 H   0  0  0  0  0  0  0  0  0  0  0  0
   34.2350   28.5510   48.9120 O   0  0  0  0  0  0  0  0  0  0  0  0
   33.2030   27.7150   48.5600 C   0  0  0  0  0  0  0  0  0  0  0  0
   33.5730   26.6530   47.7390 C   0  0  0  0  0  0  0  0  0  0  0  0
   32.6310   25.7380   47.3120 C   0  0  0  0  0  0  0  0  0  0  0  0
   31.3430   25.9250   47.7290 N   0  0  0  0  0  0  0  0  0  0  0  0
   31.0000   26.9690   48.5310 C   0  0  0  0  0  0  0  0  0  0  0  0
   31.9140   27.8260   48.9240 N   0  0  0  0  0  0  0  0  0  0  0  0
   34.5860   26.4480   47.3710 H   0  0  0  0  0  0  0  0  0  0  0  0
   32.8840   24.9050   46.6800 H   0  0  0  0  0  0  0  0  0  0  0  0
   30.0080   27.1840   48.8980 H   0  0  0  0  0  0  0  0  0  0  0  0
   36.4740   28.9330   49.8260 C   0  0  0  0  0  0  0  0  0  0  0  0
   36.2450   28.2590   48.9340 H   0  0  0  0  0  0  0  0  0  0  0  0
   37.2320   28.3240   50.3950 H   0  0  0  0  0  0  0  0  0  0  0  0
   38.0160   30.6040   51.4940 F   0  0  0  0  0  0  0  0  0  0  0  0
   37.8950   30.8430   50.1450 C   0  0  0  0  0  0  0  0  0  0  0  0
   37.1660   30.0890   49.2120 C   0  0  0  0  0  0  0  0  0  0  0  0
   37.2020   30.5360   47.9110 C   0  0  0  0  0  0  0  0  0  0  0  0
   36.6220   29.9370   47.2210 H   0  0  0  0  0  0  0  0  0  0  0  0
   37.8960   31.6510   47.5070 C   0  0  0  0  0  0  0  0  0  0  0  0
   37.8520   31.9060   46.4640 H   0  0  0  0  0  0  0  0  0  0  0  0
   38.6090   32.3790   48.4580 C   0  0  0  0  0  0  0  0  0  0  0  0
   38.5950   31.9520   49.7840 C   0  0  0  0  0  0  0  0  0  0  0  0
  1  2  1  0  0  0  0
  1  3  1  0  0  0  0
  4  1  1  0  0  0  0
  4  6  1  0  0  0  0
  5  4  1  0  0  0  0
  7  4  1  0  0  0  0
  8  7  1  0  0  0  0
  8 13  1  0  0  0  0
  9  8  2  0  0  0  0
 10 11  2  0  0  0  0
 10  9  1  0  0  0  0
 11 12  1  0  0  0  0
 12 16  1  0  0  0  0
 12 13  2  0  0  0  0
 14  9  1  0  0  0  0
 15 10  1  0  0  0  0
 17 19  1  0  0  0  0
 17  1  1  0  0  0  0
 18 17  1  0  0  0  0
 21 20  1  0  0  0  0
 22 17  1  0  0  0  0
 22 21  2  0  0  0  0
 23 22  1  0  0  0  0
 24 23  1  0  0  0  0
 25 23  2  0  0  0  0
 25 27  1  0  0  0  0
 26 25  1  0  0  0  0
 27 28  2  0  0  0  0
 28 21  1  0  0  0  0
M  END
>  <minimizedAffinity>
-5.30664825

>  <minimizedRMSD>
5.83425665

$$$$
