
 OpenBabel03272509463D

 25 26  0  0  0  0  0  0  0  0999 V2000
   34.4190   30.1690   47.7050 C   0  0  0  0  0  0  0  0  0  0  0  0
   34.8110   30.7960   46.8700 H   0  0  0  0  0  0  0  0  0  0  0  0
   33.5150   30.6760   48.1030 H   0  0  0  0  0  0  0  0  0  0  0  0
   34.1310   28.8110   47.1570 C   0  0  0  0  0  0  0  0  0  0  0  0
   34.2130   28.7520   46.0720 H   0  0  0  0  0  0  0  0  0  0  0  0
   34.8690   28.1110   47.6430 H   0  0  0  0  0  0  0  0  0  0  0  0
   32.0930   29.4280   45.4290 F   0  0  0  0  0  0  0  0  0  0  0  0
   31.8100   28.7910   46.6090 C   0  0  0  0  0  0  0  0  0  0  0  0
   32.7530   28.4240   47.5700 C   0  0  0  0  0  0  0  0  0  0  0  0
   32.3250   27.7900   48.7130 C   0  0  0  0  0  0  0  0  0  0  0  0
   33.1450   27.5540   49.3800 H   0  0  0  0  0  0  0  0  0  0  0  0
   31.0020   27.5150   48.9210 C   0  0  0  0  0  0  0  0  0  0  0  0
   30.7300   27.0160   49.8330 H   0  0  0  0  0  0  0  0  0  0  0  0
   30.0580   27.8810   47.9590 C   0  0  0  0  0  3  0  0  0  0  0  0
   30.4710   28.5260   46.7890 C   0  0  0  0  0  3  0  0  0  0  0  0
   35.3440   30.1160   48.7600 O   0  0  0  0  0  0  0  0  0  0  0  0
   37.8970   32.5740   49.5110 C   0  0  0  0  0  0  0  0  0  0  0  0
   38.5650   32.6260   48.2920 C   0  0  0  0  0  0  0  0  0  0  0  0
   38.1090   31.8130   47.2640 C   0  0  0  0  0  0  0  0  0  0  0  0
   37.0330   31.0200   47.5320 N   0  0  0  0  0  0  0  0  0  0  0  0
   36.4070   30.9960   48.7310 C   0  0  0  0  0  0  0  0  0  0  0  0
   36.8500   31.7860   49.7320 N   0  0  0  0  0  0  0  0  0  0  0  0
   38.2990   33.2320   50.2760 H   0  0  0  0  0  0  0  0  0  0  0  0
   39.4100   33.2280   48.0400 H   0  0  0  0  0  0  0  0  0  0  0  0
   38.5610   31.7790   46.2780 H   0  0  0  0  0  0  0  0  0  0  0  0
  1  3  1  0  0  0  0
  1 16  1  0  0  0  0
  2  1  1  0  0  0  0
  4  9  1  0  0  0  0
  4  6  1  0  0  0  0
  4  1  1  0  0  0  0
  5  4  1  0  0  0  0
  7  8  1  0  0  0  0
  8 15  2  0  0  0  0
  8  9  1  0  0  0  0
  9 10  2  0  0  0  0
 10 12  1  0  0  0  0
 10 11  1  0  0  0  0
 12 13  1  0  0  0  0
 14 12  2  0  0  0  0
 15 14  1  0  0  0  0
 17 22  1  0  0  0  0
 17 23  1  0  0  0  0
 18 17  2  0  0  0  0
 19 20  2  0  0  0  0
 19 18  1  0  0  0  0
 20 21  1  0  0  0  0
 21 16  1  0  0  0  0
 21 22  2  0  0  0  0
 24 18  1  0  0  0  0
 25 19  1  0  0  0  0
M  END
>  <minimizedAffinity>
-4.09439373

>  <minimizedRMSD>
2.96151924

$$$$
