
 OpenBabel03272507583D

 32 34  0  0  0  0  0  0  0  0999 V2000
   36.9050   31.1350   48.2950 C   0  0  0  0  0  0  0  0  0  0  0  0
   37.2790   32.0470   49.2590 C   0  0  0  0  0  0  0  0  0  0  0  0
   38.2390   33.0000   48.9370 C   0  0  0  0  0  0  0  0  0  0  0  0
   38.7950   33.0150   47.6640 C   0  0  0  0  0  0  0  0  0  0  0  0
   38.3940   32.0870   46.7340 C   0  0  0  0  0  0  0  0  0  0  0  0
   37.4700   31.1890   47.0850 N   0  0  0  0  0  0  0  0  0  0  0  0
   36.9060   32.1170   50.2720 H   0  0  0  0  0  0  0  0  0  0  0  0
   38.5790   33.7550   49.6630 H   0  0  0  0  0  0  0  0  0  0  0  0
   39.5240   33.7550   47.4560 H   0  0  0  0  0  0  0  0  0  0  0  0
   35.1190   28.5710   50.3890 C   0  0  0  0  0  0  0  0  0  0  0  0
   36.1280   29.4680   49.9480 C   0  0  0  0  0  0  0  0  0  0  0  0
   35.8900   30.1990   48.7820 C   0  0  0  0  0  0  0  0  0  0  0  0
   34.7000   30.0110   48.1280 N   0  0  0  0  0  0  0  0  0  0  0  0
   33.7670   29.1350   48.5970 C   0  0  0  0  0  0  0  0  0  0  0  0
   33.9740   28.4240   49.7140 N   0  0  0  0  0  0  0  0  0  0  0  0
   32.6230   29.1170   47.7500 N   0  0  0  0  0  0  0  0  0  0  0  0
   35.2930   27.9990   51.2930 H   0  0  0  0  0  0  0  0  0  0  0  0
   32.5390   28.6910   46.7930 H   0  0  0  0  0  0  0  0  0  0  0  0
   31.8360   29.6010   48.2180 H   0  0  0  0  0  0  0  0  0  0  0  0
   37.3780   29.5890   50.7390 C   0  0  0  0  0  0  0  0  0  0  0  0
   38.4820   29.8020   49.9110 F   0  0  0  0  0  0  0  0  0  0  0  0
   37.2700   30.6500   51.5830 F   0  0  0  0  0  0  0  0  0  0  0  0
   37.6500   28.4620   51.4920 F   0  0  0  0  0  0  0  0  0  0  0  0
   40.7020   30.6910   46.1470 F   0  0  0  0  0  0  0  0  0  0  0  0
   40.1030   31.3570   45.1230 C   0  0  0  0  0  0  0  0  0  0  0  0
   38.9490   32.0620   45.3870 C   0  0  0  0  0  0  0  0  0  0  0  0
   38.4020   32.7090   44.3020 C   0  0  0  0  0  0  0  0  0  0  0  0
   37.5030   33.2770   44.4350 H   0  0  0  0  0  0  0  0  0  0  0  0
   38.9660   32.6570   43.0380 C   0  0  0  0  0  0  0  0  0  0  0  0
   38.4790   33.1950   42.2170 H   0  0  0  0  0  0  0  0  0  0  0  0
   40.1180   31.9390   42.8250 C   0  0  0  0  0  0  0  0  0  0  0  0
   40.6670   31.2970   43.8890 C   0  0  0  0  0  0  0  0  0  0  0  0
  1 12  1  0  0  0  0
  1  2  1  0  0  0  0
  2  7  1  0  0  0  0
  3  2  2  0  0  0  0
  3  8  1  0  0  0  0
  4  3  1  0  0  0  0
  5  6  1  0  0  0  0
  5  4  2  0  0  0  0
  6  1  2  0  0  0  0
  9  4  1  0  0  0  0
 10 17  1  0  0  0  0
 11 10  1  0  0  0  0
 11 20  1  0  0  0  0
 12 11  2  0  0  0  0
 13 14  2  0  0  0  0
 13 12  1  0  0  0  0
 14 15  1  0  0  0  0
 15 10  2  0  0  0  0
 16 19  1  0  0  0  0
 16 14  1  0  0  0  0
 18 16  1  0  0  0  0
 20 23  1  0  0  0  0
 20 22  1  0  0  0  0
 21 20  1  0  0  0  0
 25 26  1  0  0  0  0
 25 24  1  0  0  0  0
 26  5  1  0  0  0  0
 27 28  1  0  0  0  0
 27 26  2  0  0  0  0
 29 27  1  0  0  0  0
 30 29  1  0  0  0  0
 31 29  2  0  0  0  0
 31 32  1  0  0  0  0
 32 25  2  0  0  0  0
M  END
>  <minimizedAffinity>
-7.31181669

>  <minimizedRMSD>
1.31365526

$$$$
