
 OpenBabel03272510303D

 28 30  0  0  0  0  0  0  0  0999 V2000
   37.3430   31.3980   49.2990 C   0  0  0  0  0  0  0  0  0  0  0  0
   37.6190   32.7000   49.7260 C   0  0  0  0  0  0  0  0  0  0  0  0
   38.5000   33.4050   48.9510 C   0  0  0  0  0  0  0  0  0  0  0  0
   39.0560   32.8340   47.8300 N   0  0  0  0  0  0  0  0  0  0  0  0
   38.7550   31.5670   47.4580 C   0  0  0  0  0  0  0  0  0  0  0  0
   37.8770   30.8190   48.2040 N   0  0  0  0  0  0  0  0  0  0  0  0
   37.1540   33.0790   50.6010 H   0  0  0  0  0  0  0  0  0  0  0  0
   38.7710   34.4280   49.2140 H   0  0  0  0  0  0  0  0  0  0  0  0
   36.3570   30.5870   50.1000 C   0  0  0  0  0  0  0  0  0  0  0  0
   36.2900   29.1490   50.0480 C   0  0  0  0  0  0  0  0  0  0  0  0
   37.0350   29.7740   51.2130 C   0  0  0  0  0  0  0  0  0  0  0  0
   35.4980   31.2120   50.4310 H   0  0  0  0  0  0  0  0  0  0  0  0
   35.3130   28.6640   50.2490 H   0  0  0  0  0  0  0  0  0  0  0  0
   36.9390   28.5530   49.3810 H   0  0  0  0  0  0  0  0  0  0  0  0
   38.1310   29.7210   51.2410 H   0  0  0  0  0  0  0  0  0  0  0  0
   36.4730   29.7680   52.1510 H   0  0  0  0  0  0  0  0  0  0  0  0
   39.3180   30.9490   46.2640 C   0  0  0  0  0  0  0  0  0  0  0  0
   39.0150   29.8640   46.2040 H   0  0  0  0  0  0  0  0  0  0  0  0
   40.4320   30.9050   46.2670 H   0  0  0  0  0  0  0  0  0  0  0  0
   36.6720   30.8240   45.1800 F   0  0  0  0  0  0  0  0  0  0  0  0
   37.5910   31.5330   44.4820 C   0  0  0  0  0  0  0  0  0  0  0  0
   38.8620   31.5920   45.0040 C   0  0  0  0  0  0  0  0  0  0  0  0
   39.8050   32.3250   44.2760 C   0  0  0  0  0  0  0  0  0  0  0  0
   40.8330   32.3960   44.6590 H   0  0  0  0  0  0  0  0  0  0  0  0
   39.5370   32.9730   43.1010 C   0  0  0  0  0  0  0  0  0  0  0  0
   40.3130   33.5230   42.5890 H   0  0  0  0  0  0  0  0  0  0  0  0
   38.2460   32.9110   42.5760 C   0  0  0  0  0  3  0  0  0  0  0  0
   37.3260   32.1900   43.2930 C   0  0  0  0  0  3  0  0  0  0  0  0
  1  2  1  0  0  0  0
  1  9  1  0  0  0  0
  2  7  1  0  0  0  0
  3  8  1  0  0  0  0
  3  2  2  0  0  0  0
  4  3  1  0  0  0  0
  5  4  2  0  0  0  0
  5  6  1  0  0  0  0
  6  1  2  0  0  0  0
  9 12  1  0  0  0  0
  9 11  1  0  0  0  0
 10  9  1  0  0  0  0
 10 13  1  0  0  0  0
 10 11  1  0  0  0  0
 11 15  1  0  0  0  0
 11 16  1  0  0  0  0
 14 10  1  0  0  0  0
 17 19  1  0  0  0  0
 17  5  1  0  0  0  0
 18 17  1  0  0  0  0
 21 22  1  0  0  0  0
 21 20  1  0  0  0  0
 22 17  1  0  0  0  0
 23 24  1  0  0  0  0
 23 22  2  0  0  0  0
 25 23  1  0  0  0  0
 26 25  1  0  0  0  0
 27 25  2  0  0  0  0
 27 28  1  0  0  0  0
 28 21  2  0  0  0  0
M  END
>  <minimizedAffinity>
-5.53607368

>  <minimizedRMSD>
0.91142863

$$$$
