
 OpenBabel03272510303D

 28 30  0  0  0  0  0  0  0  0999 V2000
   37.2890   31.3650   49.2770 C   0  0  0  0  0  0  0  0  0  0  0  0
   37.5670   32.6660   49.7050 C   0  0  0  0  0  0  0  0  0  0  0  0
   38.4570   33.3670   48.9370 C   0  0  0  0  0  0  0  0  0  0  0  0
   39.0200   32.7930   47.8220 N   0  0  0  0  0  0  0  0  0  0  0  0
   38.7180   31.5270   47.4480 C   0  0  0  0  0  0  0  0  0  0  0  0
   37.8310   30.7830   48.1870 N   0  0  0  0  0  0  0  0  0  0  0  0
   37.0960   33.0480   50.5760 H   0  0  0  0  0  0  0  0  0  0  0  0
   38.7300   34.3890   49.2020 H   0  0  0  0  0  0  0  0  0  0  0  0
   36.2940   30.5580   50.0700 C   0  0  0  0  0  0  0  0  0  0  0  0
   36.2040   29.1230   49.9980 C   0  0  0  0  0  0  0  0  0  0  0  0
   36.9620   29.7200   51.1700 C   0  0  0  0  0  0  0  0  0  0  0  0
   35.4460   31.1920   50.4120 H   0  0  0  0  0  0  0  0  0  0  0  0
   35.2200   28.6500   50.1960 H   0  0  0  0  0  0  0  0  0  0  0  0
   36.8420   28.5260   49.3210 H   0  0  0  0  0  0  0  0  0  0  0  0
   38.0580   29.6490   51.1930 H   0  0  0  0  0  0  0  0  0  0  0  0
   36.4030   29.7100   52.1090 H   0  0  0  0  0  0  0  0  0  0  0  0
   39.2890   30.9050   46.2600 C   0  0  0  0  0  0  0  0  0  0  0  0
   38.8880   29.8580   46.1330 H   0  0  0  0  0  0  0  0  0  0  0  0
   40.3910   30.7520   46.3220 H   0  0  0  0  0  0  0  0  0  0  0  0
   41.1420   32.4140   44.6850 F   0  0  0  0  0  0  0  0  0  0  0  0
   39.8620   32.3650   44.2490 C   0  0  0  0  0  0  0  0  0  0  0  0
   38.9720   31.6400   45.0080 C   0  0  0  0  0  0  0  0  0  0  0  0
   37.6510   31.5940   44.5500 C   0  0  0  0  0  0  0  0  0  0  0  0
   36.9080   31.0250   45.1270 H   0  0  0  0  0  0  0  0  0  0  0  0
   37.2060   32.2180   43.4150 C   0  0  0  0  0  0  0  0  0  0  0  0
   36.1700   32.1430   43.1180 H   0  0  0  0  0  0  0  0  0  0  0  0
   38.1130   32.9520   42.6510 C   0  0  0  0  0  3  0  0  0  0  0  0
   39.4050   32.9920   43.1040 C   0  0  0  0  0  3  0  0  0  0  0  0
  1  2  1  0  0  0  0
  1  9  1  0  0  0  0
  2  7  1  0  0  0  0
  3  8  1  0  0  0  0
  3  2  2  0  0  0  0
  4  3  1  0  0  0  0
  5  4  2  0  0  0  0
  5  6  1  0  0  0  0
  6  1  2  0  0  0  0
  9 12  1  0  0  0  0
  9 11  1  0  0  0  0
 10  9  1  0  0  0  0
 10 13  1  0  0  0  0
 10 11  1  0  0  0  0
 11 15  1  0  0  0  0
 11 16  1  0  0  0  0
 14 10  1  0  0  0  0
 17 19  1  0  0  0  0
 17  5  1  0  0  0  0
 18 17  1  0  0  0  0
 21 20  1  0  0  0  0
 21 22  1  0  0  0  0
 22 17  1  0  0  0  0
 23 22  2  0  0  0  0
 23 24  1  0  0  0  0
 25 23  1  0  0  0  0
 26 25  1  0  0  0  0
 27 28  1  0  0  0  0
 27 25  2  0  0  0  0
 28 21  2  0  0  0  0
M  END
>  <minimizedAffinity>
-5.76551914

>  <minimizedRMSD>
1.24311185

$$$$
