
 OpenBabel03272500373D

 36 38  0  0  1  0  0  0  0  0999 V2000
   36.7340   31.1530   48.9150 C   0  0  0  0  0  0  0  0  0  0  0  0
   37.0570   32.2630   49.7160 C   0  0  0  0  0  0  0  0  0  0  0  0
   38.0090   33.1690   49.2160 C   0  0  0  0  0  0  0  0  0  0  0  0
   38.5460   32.9050   47.9950 N   0  0  0  0  0  0  0  0  0  0  0  0
   38.2060   31.8210   47.2540 C   0  0  0  0  0  0  0  0  0  0  0  0
   37.3030   30.9590   47.7240 N   0  0  0  0  0  0  0  0  0  0  0  0
   38.8430   31.6570   45.9890 N   0  0  0  0  0  0  0  0  0  0  0  0
   40.0730   30.9250   45.9180 C   0  0  0  0  0  0  0  0  0  0  0  0
   40.9760   31.7660   45.0050 C   0  0  0  0  0  0  0  0  0  0  0  0
   40.3580   31.6320   43.6280 C   0  0  0  0  0  0  0  0  0  0  0  0
   39.0670   32.3770   43.6280 C   0  0  0  0  0  0  0  0  0  0  0  0
   38.2280   32.2280   44.8430 C   0  0  1  0  0  0  0  0  0  0  0  0
   36.6180   32.4560   50.6840 H   0  0  0  0  0  0  0  0  0  0  0  0
   38.3090   34.0510   49.7790 H   0  0  0  0  0  0  0  0  0  0  0  0
   40.5820   30.9680   46.9240 H   0  0  0  0  0  0  0  0  0  0  0  0
   40.0030   29.8860   45.6060 H   0  0  0  0  0  0  0  0  0  0  0  0
   40.9830   32.7900   45.3700 H   0  0  0  0  0  0  0  0  0  0  0  0
   41.9510   31.2490   44.9940 H   0  0  0  0  0  0  0  0  0  0  0  0
   40.3080   30.5730   43.3490 H   0  0  0  0  0  0  0  0  0  0  0  0
   41.0760   32.1210   42.9200 H   0  0  0  0  0  0  0  0  0  0  0  0
   38.4750   32.0220   42.7380 H   0  0  0  0  0  0  0  0  0  0  0  0
   39.3100   33.4400   43.3950 H   0  0  0  0  0  0  0  0  0  0  0  0
   37.9170   33.2680   45.1600 H   0  0  0  0  0  0  0  0  0  0  0  0
   36.2210   33.2410   43.1020 F   0  0  0  0  0  0  0  0  0  0  0  0
   36.0020   32.0400   43.6950 C   0  0  0  0  0  0  0  0  0  0  0  0
   36.9540   31.5260   44.5400 C   0  0  0  0  0  0  0  0  0  0  0  0
   36.7030   30.3020   45.1270 C   0  0  0  0  0  0  0  0  0  0  0  0
   37.3700   29.8030   45.8020 H   0  0  0  0  0  0  0  0  0  0  0  0
   35.5340   29.6190   44.8720 C   0  0  0  0  0  0  0  0  0  0  0  0
   35.3020   28.6470   45.3200 H   0  0  0  0  0  0  0  0  0  0  0  0
   34.5590   30.1110   44.0260 C   0  0  0  0  0  0  0  0  0  0  0  0
   34.8180   31.3410   43.4400 C   0  0  0  0  0  0  0  0  0  0  0  0
   35.7210   30.1830   49.4380 C   0  0  0  0  0  0  0  0  0  0  0  0
   34.4570   30.7780   49.4290 F   0  0  0  0  0  0  0  0  0  0  0  0
   35.7990   29.0370   48.6990 F   0  0  0  0  0  0  0  0  0  0  0  0
   36.0190   29.9500   50.7720 F   0  0  0  0  0  0  0  0  0  0  0  0
  1 33  1  0  0  0  0
  1  2  1  0  0  0  0
  2 13  1  0  0  0  0
  3  2  2  0  0  0  0
  3 14  1  0  0  0  0
  4  3  1  0  0  0  0
  5  6  1  0  0  0  0
  5  4  2  0  0  0  0
  6  1  2  0  0  0  0
  7  5  1  0  0  0  0
  8  7  1  0  0  0  0
  8 15  1  0  0  0  0
  9 17  1  0  0  0  0
  9  8  1  0  0  0  0
 10 11  1  0  0  0  0
 10  9  1  0  0  0  0
 11 12  1  0  0  0  0
 12 23  1  1  0  0  0
 12  7  1  0  0  0  0
 16  8  1  0  0  0  0
 18  9  1  0  0  0  0
 19 10  1  0  0  0  0
 20 10  1  0  0  0  0
 21 11  1  0  0  0  0
 22 11  1  0  0  0  0
 24 25  1  0  0  0  0
 25 26  1  0  0  0  0
 26 12  1  0  0  0  0
 26 27  2  0  0  0  0
 27 28  1  0  0  0  0
 29 27  1  0  0  0  0
 29 30  1  0  0  0  0
 31 29  2  0  0  0  0
 32 25  2  0  0  0  0
 32 31  1  0  0  0  0
 33 36  1  0  0  0  0
 34 33  1  0  0  0  0
 35 33  1  0  0  0  0
M  END
>  <minimizedAffinity>
-6.25502491

>  <minimizedRMSD>
0.348353177

$$$$
