
 OpenBabel03272510303D

 28 30  0  0  0  0  0  0  0  0999 V2000
   37.3560   31.4320   49.3500 C   0  0  0  0  0  0  0  0  0  0  0  0
   37.6030   32.7360   49.7900 C   0  0  0  0  0  0  0  0  0  0  0  0
   38.4810   33.4630   49.0320 C   0  0  0  0  0  0  0  0  0  0  0  0
   39.0620   32.9100   47.9140 N   0  0  0  0  0  0  0  0  0  0  0  0
   38.7880   31.6410   47.5290 C   0  0  0  0  0  0  0  0  0  0  0  0
   37.9150   30.8720   48.2580 N   0  0  0  0  0  0  0  0  0  0  0  0
   37.1200   33.1000   50.6620 H   0  0  0  0  0  0  0  0  0  0  0  0
   38.7300   34.4880   49.3060 H   0  0  0  0  0  0  0  0  0  0  0  0
   36.3750   30.5980   50.1320 C   0  0  0  0  0  0  0  0  0  0  0  0
   36.3240   29.1610   50.0570 C   0  0  0  0  0  0  0  0  0  0  0  0
   37.0550   29.7760   51.2370 C   0  0  0  0  0  0  0  0  0  0  0  0
   35.5070   31.2080   50.4670 H   0  0  0  0  0  0  0  0  0  0  0  0
   35.3510   28.6610   50.2450 H   0  0  0  0  0  0  0  0  0  0  0  0
   36.9850   28.5830   49.3860 H   0  0  0  0  0  0  0  0  0  0  0  0
   38.1510   29.7350   51.2710 H   0  0  0  0  0  0  0  0  0  0  0  0
   36.4870   29.7490   52.1710 H   0  0  0  0  0  0  0  0  0  0  0  0
   39.3780   31.0410   46.3380 C   0  0  0  0  0  0  0  0  0  0  0  0
   39.1210   29.9450   46.2820 H   0  0  0  0  0  0  0  0  0  0  0  0
   40.4920   31.0440   46.3420 H   0  0  0  0  0  0  0  0  0  0  0  0
   36.7010   30.9330   45.3310 F   0  0  0  0  0  0  0  0  0  0  0  0
   37.6110   31.6080   44.5890 C   0  0  0  0  0  0  0  0  0  0  0  0
   38.8960   31.6590   45.0750 C   0  0  0  0  0  0  0  0  0  0  0  0
   39.8300   32.3590   44.3030 C   0  0  0  0  0  0  0  0  0  0  0  0
   40.8690   32.4240   44.6560 H   0  0  0  0  0  0  0  0  0  0  0  0
   39.5380   32.9800   43.1180 C   0  0  0  0  0  0  0  0  0  0  0  0
   40.3080   33.5050   42.5710 H   0  0  0  0  0  0  0  0  0  0  0  0
   38.2330   32.9250   42.6310 C   0  0  0  0  0  3  0  0  0  0  0  0
   37.3230   32.2390   43.3930 C   0  0  0  0  0  3  0  0  0  0  0  0
  1  2  1  0  0  0  0
  1  9  1  0  0  0  0
  2  7  1  0  0  0  0
  3  8  1  0  0  0  0
  3  2  2  0  0  0  0
  4  3  1  0  0  0  0
  5  4  2  0  0  0  0
  5  6  1  0  0  0  0
  6  1  2  0  0  0  0
  9 12  1  0  0  0  0
  9 11  1  0  0  0  0
 10  9  1  0  0  0  0
 10 13  1  0  0  0  0
 10 11  1  0  0  0  0
 11 15  1  0  0  0  0
 11 16  1  0  0  0  0
 14 10  1  0  0  0  0
 17 19  1  0  0  0  0
 17  5  1  0  0  0  0
 18 17  1  0  0  0  0
 21 22  1  0  0  0  0
 21 20  1  0  0  0  0
 22 17  1  0  0  0  0
 23 24  1  0  0  0  0
 23 22  2  0  0  0  0
 25 23  1  0  0  0  0
 26 25  1  0  0  0  0
 27 25  2  0  0  0  0
 27 28  1  0  0  0  0
 28 21  2  0  0  0  0
M  END
>  <minimizedAffinity>
-5.58084202

>  <minimizedRMSD>
1.15674579

$$$$
