
 OpenBabel03272501543D

 24 25  0  0  0  0  0  0  0  0999 V2000
   34.8520   28.2630   49.7250 C   0  0  0  0  0  0  0  0  0  0  0  0
   35.2530   27.2120   49.7300 H   0  0  0  0  0  0  0  0  0  0  0  0
   34.0880   28.3720   50.5070 H   0  0  0  0  0  0  0  0  0  0  0  0
   37.4640   30.3610   51.3370 C   0  0  0  0  0  0  0  0  0  0  0  0
   38.1620   30.8640   50.2380 C   0  0  0  0  0  0  0  0  0  0  0  0
   37.7350   30.4840   48.9530 C   0  0  0  0  0  0  0  0  0  0  0  0
   36.6590   29.6400   48.8580 N   0  0  0  0  0  0  0  0  0  0  0  0
   36.0170   29.1790   49.9630 C   0  0  0  0  0  0  0  0  0  0  0  0
   36.4280   29.5460   51.1760 N   0  0  0  0  0  0  0  0  0  0  0  0
   37.8400   30.6910   52.2840 H   0  0  0  0  0  0  0  0  0  0  0  0
   39.0110   31.5250   50.2300 H   0  0  0  0  0  0  0  0  0  0  0  0
   38.1620   30.7820   48.0060 H   0  0  0  0  0  0  0  0  0  0  0  0
   34.2650   28.5180   48.3640 C   0  0  0  0  0  0  0  0  0  0  0  0
   35.1000   28.8040   47.7020 H   0  0  0  0  0  0  0  0  0  0  0  0
   33.6130   29.4060   48.4690 H   0  0  0  0  0  0  0  0  0  0  0  0
   31.7130   28.1570   49.3020 F   0  0  0  0  0  0  0  0  0  0  0  0
   32.2430   27.2660   48.4340 C   0  0  0  0  0  0  0  0  0  0  0  0
   33.5270   27.3230   47.8760 C   0  0  0  0  0  0  0  0  0  0  0  0
   33.9420   26.3410   47.0000 C   0  0  0  0  0  0  0  0  0  0  0  0
   34.9320   26.4880   46.6410 H   0  0  0  0  0  0  0  0  0  0  0  0
   33.0610   25.3140   46.6950 C   0  0  0  0  0  0  0  0  0  0  0  0
   33.4460   24.5720   46.0010 H   0  0  0  0  0  0  0  0  0  0  0  0
   31.7940   25.2440   47.2360 C   0  0  0  0  0  0  0  0  0  0  0  0
   31.3760   26.2330   48.1190 C   0  0  0  0  0  0  0  0  0  0  0  0
  1  2  1  0  0  0  0
  1  8  1  0  0  0  0
  1  3  1  0  0  0  0
  4 10  1  0  0  0  0
  5  4  2  0  0  0  0
  6  5  1  0  0  0  0
  7  6  2  0  0  0  0
  7  8  1  0  0  0  0
  8  9  2  0  0  0  0
  9  4  1  0  0  0  0
 11  5  1  0  0  0  0
 12  6  1  0  0  0  0
 13 15  1  0  0  0  0
 13  1  1  0  0  0  0
 14 13  1  0  0  0  0
 17 16  1  0  0  0  0
 18 13  1  0  0  0  0
 18 17  2  0  0  0  0
 19 18  1  0  0  0  0
 20 19  1  0  0  0  0
 21 19  2  0  0  0  0
 21 23  1  0  0  0  0
 22 21  1  0  0  0  0
 23 24  2  0  0  0  0
 24 17  1  0  0  0  0
M  END
>  <minimizedAffinity>
-4.72701502

>  <minimizedRMSD>
0.762152553

$$$$
