
 OpenBabel03272510303D

 28 30  0  0  0  0  0  0  0  0999 V2000
   37.1800   31.3270   49.2130 C   0  0  0  0  0  0  0  0  0  0  0  0
   37.3300   32.5960   49.7800 C   0  0  0  0  0  0  0  0  0  0  0  0
   38.2780   33.3960   49.2040 C   0  0  0  0  0  0  0  0  0  0  0  0
   39.0160   32.9450   48.1340 N   0  0  0  0  0  0  0  0  0  0  0  0
   38.8320   31.7050   47.6200 C   0  0  0  0  0  0  0  0  0  0  0  0
   37.8920   30.8650   48.1660 N   0  0  0  0  0  0  0  0  0  0  0  0
   36.7270   32.8810   50.6060 H   0  0  0  0  0  0  0  0  0  0  0  0
   38.4600   34.4000   49.5860 H   0  0  0  0  0  0  0  0  0  0  0  0
   36.1280   30.4150   49.7930 C   0  0  0  0  0  0  0  0  0  0  0  0
   36.1380   28.9860   49.6160 C   0  0  0  0  0  0  0  0  0  0  0  0
   36.6760   29.5350   50.9250 C   0  0  0  0  0  0  0  0  0  0  0  0
   35.2020   30.9790   50.0420 H   0  0  0  0  0  0  0  0  0  0  0  0
   35.1660   28.4510   49.6310 H   0  0  0  0  0  0  0  0  0  0  0  0
   36.9040   28.4740   49.0070 H   0  0  0  0  0  0  0  0  0  0  0  0
   37.7580   29.5180   51.1100 H   0  0  0  0  0  0  0  0  0  0  0  0
   35.9860   29.4280   51.7660 H   0  0  0  0  0  0  0  0  0  0  0  0
   39.5880   31.2120   46.4760 C   0  0  0  0  0  0  0  0  0  0  0  0
   39.7350   30.0970   46.5520 H   0  0  0  0  0  0  0  0  0  0  0  0
   40.6300   31.6060   46.4270 H   0  0  0  0  0  0  0  0  0  0  0  0
   39.6510   33.6670   45.0050 F   0  0  0  0  0  0  0  0  0  0  0  0
   38.9420   32.6470   44.4680 C   0  0  0  0  0  0  0  0  0  0  0  0
   38.9130   31.4680   45.1770 C   0  0  0  0  0  0  0  0  0  0  0  0
   38.1780   30.4180   44.6150 C   0  0  0  0  0  0  0  0  0  0  0  0
   38.1290   29.4590   45.1490 H   0  0  0  0  0  0  0  0  0  0  0  0
   37.5030   30.4990   43.4270 C   0  0  0  0  0  0  0  0  0  0  0  0
   36.9540   29.6500   43.0500 H   0  0  0  0  0  0  0  0  0  0  0  0
   37.5360   31.6980   42.7130 C   0  0  0  0  0  3  0  0  0  0  0  0
   38.2570   32.7220   43.2690 C   0  0  0  0  0  3  0  0  0  0  0  0
  1  2  1  0  0  0  0
  1  9  1  0  0  0  0
  2  7  1  0  0  0  0
  3  8  1  0  0  0  0
  3  2  2  0  0  0  0
  4  3  1  0  0  0  0
  5  4  2  0  0  0  0
  5  6  1  0  0  0  0
  6  1  2  0  0  0  0
  9 12  1  0  0  0  0
  9 11  1  0  0  0  0
 10 13  1  0  0  0  0
 10  9  1  0  0  0  0
 10 11  1  0  0  0  0
 11 15  1  0  0  0  0
 11 16  1  0  0  0  0
 14 10  1  0  0  0  0
 17 18  1  0  0  0  0
 17  5  1  0  0  0  0
 19 17  1  0  0  0  0
 21 20  1  0  0  0  0
 21 22  1  0  0  0  0
 22 17  1  0  0  0  0
 23 24  1  0  0  0  0
 23 22  2  0  0  0  0
 25 23  1  0  0  0  0
 26 25  1  0  0  0  0
 27 28  1  0  0  0  0
 27 25  2  0  0  0  0
 28 21  2  0  0  0  0
M  END
>  <minimizedAffinity>
-5.57814789

>  <minimizedRMSD>
0.791839123

$$$$
