
 OpenBabel03272510303D

 28 30  0  0  0  0  0  0  0  0999 V2000
   37.2900   31.3670   49.2780 C   0  0  0  0  0  0  0  0  0  0  0  0
   37.5670   32.6690   49.7050 C   0  0  0  0  0  0  0  0  0  0  0  0
   38.4570   33.3700   48.9370 C   0  0  0  0  0  0  0  0  0  0  0  0
   39.0200   32.7950   47.8220 N   0  0  0  0  0  0  0  0  0  0  0  0
   38.7180   31.5290   47.4490 C   0  0  0  0  0  0  0  0  0  0  0  0
   37.8320   30.7850   48.1880 N   0  0  0  0  0  0  0  0  0  0  0  0
   37.0960   33.0510   50.5760 H   0  0  0  0  0  0  0  0  0  0  0  0
   38.7290   34.3920   49.2010 H   0  0  0  0  0  0  0  0  0  0  0  0
   36.2950   30.5610   50.0720 C   0  0  0  0  0  0  0  0  0  0  0  0
   36.2030   29.1250   49.9990 C   0  0  0  0  0  0  0  0  0  0  0  0
   36.9640   29.7210   51.1700 C   0  0  0  0  0  0  0  0  0  0  0  0
   35.4480   31.1950   50.4160 H   0  0  0  0  0  0  0  0  0  0  0  0
   35.2190   28.6530   50.1980 H   0  0  0  0  0  0  0  0  0  0  0  0
   36.8400   28.5290   49.3200 H   0  0  0  0  0  0  0  0  0  0  0  0
   38.0600   29.6490   51.1910 H   0  0  0  0  0  0  0  0  0  0  0  0
   36.4070   29.7100   52.1100 H   0  0  0  0  0  0  0  0  0  0  0  0
   39.2890   30.9060   46.2610 C   0  0  0  0  0  0  0  0  0  0  0  0
   38.8890   29.8590   46.1350 H   0  0  0  0  0  0  0  0  0  0  0  0
   40.3920   30.7530   46.3230 H   0  0  0  0  0  0  0  0  0  0  0  0
   41.1420   32.4140   44.6850 F   0  0  0  0  0  0  0  0  0  0  0  0
   39.8610   32.3650   44.2500 C   0  0  0  0  0  0  0  0  0  0  0  0
   38.9720   31.6400   45.0080 C   0  0  0  0  0  0  0  0  0  0  0  0
   37.6500   31.5940   44.5500 C   0  0  0  0  0  0  0  0  0  0  0  0
   36.9080   31.0250   45.1290 H   0  0  0  0  0  0  0  0  0  0  0  0
   37.2060   32.2180   43.4160 C   0  0  0  0  0  0  0  0  0  0  0  0
   36.1700   32.1420   43.1200 H   0  0  0  0  0  0  0  0  0  0  0  0
   38.1120   32.9510   42.6520 C   0  0  0  0  0  3  0  0  0  0  0  0
   39.4050   32.9920   43.1040 C   0  0  0  0  0  3  0  0  0  0  0  0
  1  2  1  0  0  0  0
  1  9  1  0  0  0  0
  2  7  1  0  0  0  0
  3  8  1  0  0  0  0
  3  2  2  0  0  0  0
  4  3  1  0  0  0  0
  5  4  2  0  0  0  0
  5  6  1  0  0  0  0
  6  1  2  0  0  0  0
  9 12  1  0  0  0  0
  9 11  1  0  0  0  0
 10  9  1  0  0  0  0
 10 13  1  0  0  0  0
 10 11  1  0  0  0  0
 11 15  1  0  0  0  0
 11 16  1  0  0  0  0
 14 10  1  0  0  0  0
 17 19  1  0  0  0  0
 17  5  1  0  0  0  0
 18 17  1  0  0  0  0
 21 20  1  0  0  0  0
 21 22  1  0  0  0  0
 22 17  1  0  0  0  0
 23 22  2  0  0  0  0
 23 24  1  0  0  0  0
 25 23  1  0  0  0  0
 26 25  1  0  0  0  0
 27 28  1  0  0  0  0
 27 25  2  0  0  0  0
 28 21  2  0  0  0  0
M  END
>  <minimizedAffinity>
-5.76795292

>  <minimizedRMSD>
1.10376835

$$$$
