
 OpenBabel03272500383D

 36 38  0  0  1  0  0  0  0  0999 V2000
   39.0690   23.1500   37.4000 C   0  0  0  0  0  0  0  0  0  0  0  0
   40.2470   22.3990   37.5620 C   0  0  0  0  0  0  0  0  0  0  0  0
   40.9010   21.9580   36.3970 C   0  0  0  0  0  0  0  0  0  0  0  0
   40.3440   22.2900   35.2010 N   0  0  0  0  0  0  0  0  0  0  0  0
   39.2040   23.0170   35.0900 C   0  0  0  0  0  0  0  0  0  0  0  0
   38.5810   23.4380   36.1920 N   0  0  0  0  0  0  0  0  0  0  0  0
   38.7230   23.2990   33.7780 N   0  0  0  0  0  0  0  0  0  0  0  0
   37.8210   22.3770   33.1550 C   0  0  0  0  0  0  0  0  0  0  0  0
   38.3430   22.2290   31.7180 C   0  0  0  0  0  0  0  0  0  0  0  0
   38.0520   23.5660   31.0670 C   0  0  0  0  0  0  0  0  0  0  0  0
   38.9620   24.5810   31.6710 C   0  0  0  0  0  0  0  0  0  0  0  0
   39.1600   24.4890   33.1380 C   0  0  1  0  0  0  0  0  0  0  0  0
   40.6740   22.1460   38.5210 H   0  0  0  0  0  0  0  0  0  0  0  0
   41.8170   21.3730   36.4430 H   0  0  0  0  0  0  0  0  0  0  0  0
   37.9720   21.3540   33.6080 H   0  0  0  0  0  0  0  0  0  0  0  0
   36.7640   22.6260   33.1990 H   0  0  0  0  0  0  0  0  0  0  0  0
   39.4040   21.9970   31.7560 H   0  0  0  0  0  0  0  0  0  0  0  0
   37.6970   21.4710   31.2440 H   0  0  0  0  0  0  0  0  0  0  0  0
   36.9780   23.7800   31.1300 H   0  0  0  0  0  0  0  0  0  0  0  0
   38.2950   23.4390   29.9800 H   0  0  0  0  0  0  0  0  0  0  0  0
   38.5410   25.5970   31.4270 H   0  0  0  0  0  0  0  0  0  0  0  0
   39.9190   24.5320   31.0990 H   0  0  0  0  0  0  0  0  0  0  0  0
   40.2730   24.5370   33.3260 H   0  0  0  0  0  0  0  0  0  0  0  0
   40.5660   25.9910   35.1010 F   0  0  0  0  0  0  0  0  0  0  0  0
   39.3080   26.3860   34.7800 C   0  0  0  0  0  0  0  0  0  0  0  0
   38.6050   25.6800   33.8350 C   0  0  0  0  0  0  0  0  0  0  0  0
   37.3280   26.1050   33.5290 C   0  0  0  0  0  0  0  0  0  0  0  0
   36.6860   25.6350   32.8100 H   0  0  0  0  0  0  0  0  0  0  0  0
   36.7780   27.2040   34.1520 C   0  0  0  0  0  0  0  0  0  0  0  0
   35.7690   27.5690   33.9340 H   0  0  0  0  0  0  0  0  0  0  0  0
   37.4620   27.9330   35.1050 C   0  0  0  0  0  3  0  0  0  0  0  0
   38.7440   27.5000   35.4080 C   0  0  0  0  0  3  0  0  0  0  0  0
   38.3670   23.6240   38.6340 C   0  0  0  0  0  0  0  0  0  0  0  0
   37.8300   24.8930   38.4070 F   0  0  0  0  0  0  0  0  0  0  0  0
   37.4390   22.6860   38.9900 F   0  0  0  0  0  0  0  0  0  0  0  0
   39.3260   23.7900   39.6210 F   0  0  0  0  0  0  0  0  0  0  0  0
  1  2  1  0  0  0  0
  1 33  1  0  0  0  0
  2 13  1  0  0  0  0
  3 14  1  0  0  0  0
  3  2  2  0  0  0  0
  4  3  1  0  0  0  0
  5  4  2  0  0  0  0
  5  6  1  0  0  0  0
  6  1  2  0  0  0  0
  7  5  1  0  0  0  0
  8 16  1  0  0  0  0
  8 15  1  0  0  0  0
  8  7  1  0  0  0  0
  9 17  1  0  0  0  0
  9  8  1  0  0  0  0
 10 19  1  0  0  0  0
 10 11  1  0  0  0  0
 10  9  1  0  0  0  0
 11 12  1  0  0  0  0
 12 23  1  1  0  0  0
 12  7  1  0  0  0  0
 12 26  1  0  0  0  0
 18  9  1  0  0  0  0
 20 10  1  0  0  0  0
 21 11  1  0  0  0  0
 22 11  1  0  0  0  0
 25 24  1  0  0  0  0
 25 32  1  0  0  0  0
 26 25  2  0  0  0  0
 27 26  1  0  0  0  0
 27 29  2  0  0  0  0
 28 27  1  0  0  0  0
 29 31  1  0  0  0  0
 30 29  1  0  0  0  0
 31 32  2  0  0  0  0
 33 35  1  0  0  0  0
 33 36  1  0  0  0  0
 34 33  1  0  0  0  0
M  END
>  <minimizedAffinity>
-6.33297348

$$$$

 OpenBabel03272500383D

 36 38  0  0  1  0  0  0  0  0999 V2000
   38.5960   24.2880   35.3930 C   0  0  0  0  0  0  0  0  0  0  0  0
   39.8070   23.6470   35.7110 C   0  0  0  0  0  0  0  0  0  0  0  0
   40.0320   22.3730   35.1610 C   0  0  0  0  0  0  0  0  0  0  0  0
   39.0610   21.8540   34.3620 N   0  0  0  0  0  0  0  0  0  0  0  0
   37.9060   22.5070   34.0800 C   0  0  0  0  0  0  0  0  0  0  0  0
   37.6890   23.7160   34.5990 N   0  0  0  0  0  0  0  0  0  0  0  0
   36.9670   21.8550   33.2270 N   0  0  0  0  0  0  0  0  0  0  0  0
   35.9730   21.0020   33.8090 C   0  0  0  0  0  0  0  0  0  0  0  0
   35.9570   19.7540   32.9150 C   0  0  0  0  0  0  0  0  0  0  0  0
   35.3530   20.2280   31.6080 C   0  0  0  0  0  0  0  0  0  0  0  0
   36.3400   21.1260   30.9430 C   0  0  0  0  0  0  0  0  0  0  0  0
   37.0560   22.0780   31.8270 C   0  0  1  0  0  0  0  0  0  0  0  0
   40.5660   24.0750   36.3490 H   0  0  0  0  0  0  0  0  0  0  0  0
   40.9450   21.8160   35.3630 H   0  0  0  0  0  0  0  0  0  0  0  0
   36.3530   20.6230   34.8020 H   0  0  0  0  0  0  0  0  0  0  0  0
   34.9870   21.4340   33.9540 H   0  0  0  0  0  0  0  0  0  0  0  0
   36.9760   19.3910   32.8050 H   0  0  0  0  0  0  0  0  0  0  0  0
   35.2430   19.0590   33.3880 H   0  0  0  0  0  0  0  0  0  0  0  0
   34.3600   20.6540   31.7960 H   0  0  0  0  0  0  0  0  0  0  0  0
   35.2000   19.3080   30.9880 H   0  0  0  0  0  0  0  0  0  0  0  0
   35.7850   21.7120   30.1570 H   0  0  0  0  0  0  0  0  0  0  0  0
   37.0300   20.4680   30.3640 H   0  0  0  0  0  0  0  0  0  0  0  0
   38.1560   21.9960   31.5810 H   0  0  0  0  0  0  0  0  0  0  0  0
   38.9570   24.1420   31.3650 F   0  0  0  0  0  0  0  0  0  0  0  0
   37.6400   24.4620   31.2900 C   0  0  0  0  0  0  0  0  0  0  0  0
   36.6990   23.4860   31.5090 C   0  0  0  0  0  0  0  0  0  0  0  0
   35.3690   23.8410   31.4260 C   0  0  0  0  0  0  0  0  0  0  0  0
   34.5480   23.1680   31.5770 H   0  0  0  0  0  0  0  0  0  0  0  0
   34.9970   25.1360   31.1330 C   0  0  0  0  0  0  0  0  0  0  0  0
   33.9510   25.4530   31.0600 H   0  0  0  0  0  0  0  0  0  0  0  0
   35.9210   26.1370   30.9080 C   0  0  0  0  0  3  0  0  0  0  0  0
   37.2550   25.7730   30.9930 C   0  0  0  0  0  3  0  0  0  0  0  0
   38.3480   25.6440   35.9740 C   0  0  0  0  0  0  0  0  0  0  0  0
   38.1720   25.5350   37.3550 F   0  0  0  0  0  0  0  0  0  0  0  0
   39.3790   26.4640   35.6110 F   0  0  0  0  0  0  0  0  0  0  0  0
   37.1380   26.0970   35.4730 F   0  0  0  0  0  0  0  0  0  0  0  0
  1  2  1  0  0  0  0
  1 33  1  0  0  0  0
  2 13  1  0  0  0  0
  3 14  1  0  0  0  0
  3  2  2  0  0  0  0
  4  3  1  0  0  0  0
  5  4  2  0  0  0  0
  5  6  1  0  0  0  0
  6  1  2  0  0  0  0
  7  8  1  0  0  0  0
  7  5  1  0  0  0  0
  8 16  1  0  0  0  0
  8 15  1  0  0  0  0
  9 18  1  0  0  0  0
  9  8  1  0  0  0  0
 10 19  1  0  0  0  0
 10  9  1  0  0  0  0
 11 10  1  0  0  0  0
 11 12  1  0  0  0  0
 12 23  1  6  0  0  0
 12  7  1  0  0  0  0
 17  9  1  0  0  0  0
 20 10  1  0  0  0  0
 21 11  1  0  0  0  0
 22 11  1  0  0  0  0
 25 24  1  0  0  0  0
 25 26  1  0  0  0  0
 26 12  1  0  0  0  0
 27 26  2  0  0  0  0
 27 28  1  0  0  0  0
 29 27  1  0  0  0  0
 30 29  1  0  0  0  0
 31 32  1  0  0  0  0
 31 29  2  0  0  0  0
 32 25  2  0  0  0  0
 33 34  1  0  0  0  0
 35 33  1  0  0  0  0
 36 33  1  0  0  0  0
M  END
>  <minimizedAffinity>
-5.93281412

$$$$

 OpenBabel03272500383D

 36 38  0  0  1  0  0  0  0  0999 V2000
   36.9100   23.3890   32.2050 C   0  0  0  0  0  0  0  0  0  0  0  0
   36.1720   22.1950   32.2820 C   0  0  0  0  0  0  0  0  0  0  0  0
   36.7160   21.1430   33.0390 C   0  0  0  0  0  0  0  0  0  0  0  0
   37.9170   21.3580   33.6410 N   0  0  0  0  0  0  0  0  0  0  0  0
   38.5970   22.5270   33.5400 C   0  0  0  0  0  0  0  0  0  0  0  0
   38.0850   23.5290   32.8230 N   0  0  0  0  0  0  0  0  0  0  0  0
   39.8470   22.6270   34.2190 N   0  0  0  0  0  0  0  0  0  0  0  0
   41.0440   22.2380   33.5340 C   0  0  0  0  0  0  0  0  0  0  0  0
   41.8280   21.4050   34.5590 C   0  0  0  0  0  0  0  0  0  0  0  0
   42.2790   22.4090   35.6010 C   0  0  0  0  0  0  0  0  0  0  0  0
   41.0760   22.8590   36.3580 C   0  0  0  0  0  0  0  0  0  0  0  0
   39.8560   23.1120   35.5540 C   0  0  1  0  0  0  0  0  0  0  0  0
   35.2190   22.0430   31.7970 H   0  0  0  0  0  0  0  0  0  0  0  0
   36.2020   20.1890   33.1450 H   0  0  0  0  0  0  0  0  0  0  0  0
   40.7780   21.4970   32.7260 H   0  0  0  0  0  0  0  0  0  0  0  0
   41.6350   23.0370   33.0950 H   0  0  0  0  0  0  0  0  0  0  0  0
   41.1690   20.6410   34.9630 H   0  0  0  0  0  0  0  0  0  0  0  0
   42.7220   21.0420   34.0260 H   0  0  0  0  0  0  0  0  0  0  0  0
   42.8730   23.1960   35.1210 H   0  0  0  0  0  0  0  0  0  0  0  0
   42.9700   21.8530   36.2860 H   0  0  0  0  0  0  0  0  0  0  0  0
   41.3550   23.8090   36.8970 H   0  0  0  0  0  0  0  0  0  0  0  0
   40.9140   22.1150   37.1730 H   0  0  0  0  0  0  0  0  0  0  0  0
   39.0030   22.5790   36.0700 H   0  0  0  0  0  0  0  0  0  0  0  0
   37.5520   24.1330   36.8720 F   0  0  0  0  0  0  0  0  0  0  0  0
   38.3570   25.0140   36.2250 C   0  0  0  0  0  0  0  0  0  0  0  0
   39.4770   24.5500   35.5800 C   0  0  0  0  0  0  0  0  0  0  0  0
   40.2760   25.4680   34.9320 C   0  0  0  0  0  0  0  0  0  0  0  0
   41.1720   25.2250   34.3960 H   0  0  0  0  0  0  0  0  0  0  0  0
   39.9600   26.8100   34.9330 C   0  0  0  0  0  0  0  0  0  0  0  0
   40.5710   27.5660   34.4290 H   0  0  0  0  0  0  0  0  0  0  0  0
   38.8410   27.3050   35.5740 C   0  0  0  0  0  3  0  0  0  0  0  0
   38.0420   26.3760   36.2220 C   0  0  0  0  0  3  0  0  0  0  0  0
   36.3390   24.5150   31.4010 C   0  0  0  0  0  0  0  0  0  0  0  0
   35.1530   24.0980   30.7910 F   0  0  0  0  0  0  0  0  0  0  0  0
   36.1890   25.5980   32.2200 F   0  0  0  0  0  0  0  0  0  0  0  0
   37.2230   24.7780   30.3660 F   0  0  0  0  0  0  0  0  0  0  0  0
  1  2  2  0  0  0  0
  1  6  1  0  0  0  0
  2  3  1  0  0  0  0
  3 14  1  0  0  0  0
  3  4  2  0  0  0  0
  5  4  1  0  0  0  0
  5  7  1  0  0  0  0
  6  5  2  0  0  0  0
  7 12  1  0  0  0  0
  8  7  1  0  0  0  0
  8  9  1  0  0  0  0
  9 17  1  0  0  0  0
  9 10  1  0  0  0  0
 10 20  1  0  0  0  0
 10 11  1  0  0  0  0
 11 21  1  0  0  0  0
 11 22  1  0  0  0  0
 12 26  1  0  0  0  0
 12 23  1  1  0  0  0
 12 11  1  0  0  0  0
 13  2  1  0  0  0  0
 15  8  1  0  0  0  0
 16  8  1  0  0  0  0
 18  9  1  0  0  0  0
 19 10  1  0  0  0  0
 25 24  1  0  0  0  0
 26 25  2  0  0  0  0
 27 29  2  0  0  0  0
 27 26  1  0  0  0  0
 28 27  1  0  0  0  0
 29 31  1  0  0  0  0
 30 29  1  0  0  0  0
 31 32  2  0  0  0  0
 32 25  1  0  0  0  0
 33  1  1  0  0  0  0
 33 35  1  0  0  0  0
 34 33  1  0  0  0  0
 36 33  1  0  0  0  0
M  END
>  <minimizedAffinity>
-5.7306509

$$$$

 OpenBabel03272500383D

 36 38  0  0  1  0  0  0  0  0999 V2000
   37.0680   21.4750   33.1320 C   0  0  0  0  0  0  0  0  0  0  0  0
   37.7020   20.8050   32.0710 C   0  0  0  0  0  0  0  0  0  0  0  0
   38.7830   21.4530   31.4470 C   0  0  0  0  0  0  0  0  0  0  0  0
   39.1360   22.6790   31.9170 N   0  0  0  0  0  0  0  0  0  0  0  0
   38.4960   23.2910   32.9450 C   0  0  0  0  0  0  0  0  0  0  0  0
   37.4710   22.6810   33.5400 N   0  0  0  0  0  0  0  0  0  0  0  0
   38.9630   24.5790   33.3440 N   0  0  0  0  0  0  0  0  0  0  0  0
   38.4080   25.7440   32.7210 C   0  0  0  0  0  0  0  0  0  0  0  0
   39.6190   26.6370   32.4140 C   0  0  0  0  0  0  0  0  0  0  0  0
   40.1000   27.1070   33.7710 C   0  0  0  0  0  0  0  0  0  0  0  0
   40.6950   25.9380   34.4800 C   0  0  0  0  0  0  0  0  0  0  0  0
   39.9640   24.6540   34.3480 C   0  0  1  0  0  0  0  0  0  0  0  0
   37.4080   19.8300   31.7120 H   0  0  0  0  0  0  0  0  0  0  0  0
   39.3220   20.9960   30.6190 H   0  0  0  0  0  0  0  0  0  0  0  0
   38.0110   25.4600   31.7030 H   0  0  0  0  0  0  0  0  0  0  0  0
   37.6260   26.2620   33.2690 H   0  0  0  0  0  0  0  0  0  0  0  0
   40.3600   26.0470   31.8810 H   0  0  0  0  0  0  0  0  0  0  0  0
   39.2140   27.5100   31.8740 H   0  0  0  0  0  0  0  0  0  0  0  0
   39.2850   27.6260   34.2910 H   0  0  0  0  0  0  0  0  0  0  0  0
   40.8950   27.8710   33.5690 H   0  0  0  0  0  0  0  0  0  0  0  0
   40.7600   26.2050   35.5730 H   0  0  0  0  0  0  0  0  0  0  0  0
   41.7580   25.8700   34.1470 H   0  0  0  0  0  0  0  0  0  0  0  0
   40.7260   23.8670   34.0690 H   0  0  0  0  0  0  0  0  0  0  0  0
   40.9550   22.4310   35.8180 F   0  0  0  0  0  0  0  0  0  0  0  0
   39.9150   23.1270   36.3420 C   0  0  0  0  0  0  0  0  0  0  0  0
   39.4160   24.2060   35.6550 C   0  0  0  0  0  0  0  0  0  0  0  0
   38.3580   24.8940   36.2120 C   0  0  0  0  0  0  0  0  0  0  0  0
   37.8870   25.7490   35.7690 H   0  0  0  0  0  0  0  0  0  0  0  0
   37.8210   24.5110   37.4230 C   0  0  0  0  0  0  0  0  0  0  0  0
   36.9820   25.0330   37.8940 H   0  0  0  0  0  0  0  0  0  0  0  0
   38.3030   23.4310   38.1360 C   0  0  0  0  0  3  0  0  0  0  0  0
   39.3650   22.7440   37.5700 C   0  0  0  0  0  3  0  0  0  0  0  0
   35.9170   20.7940   33.8020 C   0  0  0  0  0  0  0  0  0  0  0  0
   35.9220   19.4360   33.4730 F   0  0  0  0  0  0  0  0  0  0  0  0
   35.9920   21.0380   35.1440 F   0  0  0  0  0  0  0  0  0  0  0  0
   34.7520   21.3110   33.2560 F   0  0  0  0  0  0  0  0  0  0  0  0
  1  6  1  0  0  0  0
  1 33  1  0  0  0  0
  2  1  2  0  0  0  0
  3  4  2  0  0  0  0
  3  2  1  0  0  0  0
  4  5  1  0  0  0  0
  5  7  1  0  0  0  0
  5  6  2  0  0  0  0
  7 12  1  0  0  0  0
  8 16  1  0  0  0  0
  8  7  1  0  0  0  0
  9  8  1  0  0  0  0
  9 10  1  0  0  0  0
 10 19  1  0  0  0  0
 10 11  1  0  0  0  0
 11 21  1  0  0  0  0
 12 23  1  6  0  0  0
 12 11  1  0  0  0  0
 12 26  1  0  0  0  0
 13  2  1  0  0  0  0
 14  3  1  0  0  0  0
 15  8  1  0  0  0  0
 17  9  1  0  0  0  0
 18  9  1  0  0  0  0
 20 10  1  0  0  0  0
 22 11  1  0  0  0  0
 24 25  1  0  0  0  0
 25 32  1  0  0  0  0
 26 27  1  0  0  0  0
 26 25  2  0  0  0  0
 27 29  2  0  0  0  0
 28 27  1  0  0  0  0
 29 30  1  0  0  0  0
 29 31  1  0  0  0  0
 32 31  2  0  0  0  0
 33 35  1  0  0  0  0
 34 33  1  0  0  0  0
 36 33  1  0  0  0  0
M  END
>  <minimizedAffinity>
-5.68716669

$$$$

 OpenBabel03272500383D

 36 38  0  0  1  0  0  0  0  0999 V2000
   37.0720   22.1530   32.5090 C   0  0  0  0  0  0  0  0  0  0  0  0
   37.1070   22.4780   31.1420 C   0  0  0  0  0  0  0  0  0  0  0  0
   37.4760   23.7900   30.7950 C   0  0  0  0  0  0  0  0  0  0  0  0
   37.7720   24.6470   31.8090 N   0  0  0  0  0  0  0  0  0  0  0  0
   37.7260   24.2920   33.1170 C   0  0  0  0  0  0  0  0  0  0  0  0
   37.3770   23.0480   33.4510 N   0  0  0  0  0  0  0  0  0  0  0  0
   38.0600   25.2840   34.0860 N   0  0  0  0  0  0  0  0  0  0  0  0
   37.0240   26.1260   34.6050 C   0  0  0  0  0  0  0  0  0  0  0  0
   37.6260   27.5390   34.5940 C   0  0  0  0  0  0  0  0  0  0  0  0
   38.6880   27.5090   35.6740 C   0  0  0  0  0  0  0  0  0  0  0  0
   39.8060   26.6460   35.1980 C   0  0  0  0  0  0  0  0  0  0  0  0
   39.4140   25.3970   34.4990 C   0  0  1  0  0  0  0  0  0  0  0  0
   36.8680   21.7830   30.3500 H   0  0  0  0  0  0  0  0  0  0  0  0
   37.5250   24.1150   29.7570 H   0  0  0  0  0  0  0  0  0  0  0  0
   36.1850   26.1800   33.8510 H   0  0  0  0  0  0  0  0  0  0  0  0
   36.6090   25.8490   35.5700 H   0  0  0  0  0  0  0  0  0  0  0  0
   38.0310   27.7370   33.6050 H   0  0  0  0  0  0  0  0  0  0  0  0
   36.8160   28.2090   34.9290 H   0  0  0  0  0  0  0  0  0  0  0  0
   38.2310   27.2280   36.6310 H   0  0  0  0  0  0  0  0  0  0  0  0
   39.0460   28.5660   35.7840 H   0  0  0  0  0  0  0  0  0  0  0  0
   40.4270   26.3730   36.0980 H   0  0  0  0  0  0  0  0  0  0  0  0
   40.4740   27.2960   34.5860 H   0  0  0  0  0  0  0  0  0  0  0  0
   40.0210   25.3470   33.5470 H   0  0  0  0  0  0  0  0  0  0  0  0
   38.2440   24.6200   36.9710 F   0  0  0  0  0  0  0  0  0  0  0  0
   39.2340   23.8430   36.4640 C   0  0  0  0  0  0  0  0  0  0  0  0
   39.8170   24.1930   35.2710 C   0  0  0  0  0  0  0  0  0  0  0  0
   40.8210   23.3840   34.7800 C   0  0  0  0  0  0  0  0  0  0  0  0
   41.3480   23.5560   33.8630 H   0  0  0  0  0  0  0  0  0  0  0  0
   41.2240   22.2580   35.4660 C   0  0  0  0  0  0  0  0  0  0  0  0
   42.0170   21.5940   35.1070 H   0  0  0  0  0  0  0  0  0  0  0  0
   40.6550   21.8810   36.6670 C   0  0  0  0  0  3  0  0  0  0  0  0
   39.6480   22.6990   37.1550 C   0  0  0  0  0  3  0  0  0  0  0  0
   36.6810   20.7590   32.8870 C   0  0  0  0  0  0  0  0  0  0  0  0
   37.7400   19.8880   32.6200 F   0  0  0  0  0  0  0  0  0  0  0  0
   36.2840   20.7610   34.1950 F   0  0  0  0  0  0  0  0  0  0  0  0
   35.6510   20.3720   32.0440 F   0  0  0  0  0  0  0  0  0  0  0  0
  1 33  1  0  0  0  0
  1  6  1  0  0  0  0
  2  1  2  0  0  0  0
  3  2  1  0  0  0  0
  3  4  2  0  0  0  0
  4  5  1  0  0  0  0
  5  6  2  0  0  0  0
  5  7  1  0  0  0  0
  7 12  1  0  0  0  0
  7  8  1  0  0  0  0
  8 16  1  0  0  0  0
  9  8  1  0  0  0  0
  9 18  1  0  0  0  0
  9 10  1  0  0  0  0
 10 20  1  0  0  0  0
 10 19  1  0  0  0  0
 11 10  1  0  0  0  0
 11 21  1  0  0  0  0
 12 23  1  6  0  0  0
 12 11  1  0  0  0  0
 12 26  1  0  0  0  0
 13  2  1  0  0  0  0
 14  3  1  0  0  0  0
 15  8  1  0  0  0  0
 17  9  1  0  0  0  0
 22 11  1  0  0  0  0
 25 24  1  0  0  0  0
 25 32  1  0  0  0  0
 26 25  2  0  0  0  0
 27 26  1  0  0  0  0
 27 29  2  0  0  0  0
 28 27  1  0  0  0  0
 29 31  1  0  0  0  0
 30 29  1  0  0  0  0
 31 32  2  0  0  0  0
 33 35  1  0  0  0  0
 34 33  1  0  0  0  0
 36 33  1  0  0  0  0
M  END
>  <minimizedAffinity>
-5.5807085

$$$$

 OpenBabel03272500383D

 36 38  0  0  1  0  0  0  0  0999 V2000
   38.6710   26.3510   34.0320 C   0  0  0  0  0  0  0  0  0  0  0  0
   38.7300   26.2440   32.6310 C   0  0  0  0  0  0  0  0  0  0  0  0
   39.6490   25.3290   32.0870 C   0  0  0  0  0  0  0  0  0  0  0  0
   40.4130   24.6160   32.9570 N   0  0  0  0  0  0  0  0  0  0  0  0
   40.3250   24.7500   34.3030 C   0  0  0  0  0  0  0  0  0  0  0  0
   39.4540   25.6160   34.8240 N   0  0  0  0  0  0  0  0  0  0  0  0
   41.1830   23.9430   35.1080 N   0  0  0  0  0  0  0  0  0  0  0  0
   42.4790   24.4420   35.4600 C   0  0  0  0  0  0  0  0  0  0  0  0
   43.4280   23.2560   35.2370 C   0  0  0  0  0  0  0  0  0  0  0  0
   43.0740   22.2720   36.3330 C   0  0  0  0  0  0  0  0  0  0  0  0
   41.7280   21.7080   36.0290 C   0  0  0  0  0  0  0  0  0  0  0  0
   40.7150   22.6700   35.5290 C   0  0  1  0  0  0  0  0  0  0  0  0
   38.1140   26.8200   31.9560 H   0  0  0  0  0  0  0  0  0  0  0  0
   39.7500   25.1920   31.0120 H   0  0  0  0  0  0  0  0  0  0  0  0
   42.8010   25.2000   34.6880 H   0  0  0  0  0  0  0  0  0  0  0  0
   42.5770   24.8850   36.4480 H   0  0  0  0  0  0  0  0  0  0  0  0
   43.2610   22.8590   34.2390 H   0  0  0  0  0  0  0  0  0  0  0  0
   44.4410   23.6440   35.4410 H   0  0  0  0  0  0  0  0  0  0  0  0
   43.1870   22.7540   37.3120 H   0  0  0  0  0  0  0  0  0  0  0  0
   43.8450   21.4600   36.2800 H   0  0  0  0  0  0  0  0  0  0  0  0
   41.3390   21.2350   36.9750 H   0  0  0  0  0  0  0  0  0  0  0  0
   41.8900   20.8490   35.3360 H   0  0  0  0  0  0  0  0  0  0  0  0
   40.2420   22.2080   34.6120 H   0  0  0  0  0  0  0  0  0  0  0  0
   37.9700   22.3550   34.8580 F   0  0  0  0  0  0  0  0  0  0  0  0
   38.2780   22.6700   36.1410 C   0  0  0  0  0  0  0  0  0  0  0  0
   39.5950   22.8280   36.4950 C   0  0  0  0  0  0  0  0  0  0  0  0
   39.8780   23.1490   37.8060 C   0  0  0  0  0  0  0  0  0  0  0  0
   40.8650   23.2970   38.1980 H   0  0  0  0  0  0  0  0  0  0  0  0
   38.8690   23.3040   38.7320 C   0  0  0  0  0  0  0  0  0  0  0  0
   39.0560   23.5580   39.7810 H   0  0  0  0  0  0  0  0  0  0  0  0
   37.5350   23.1510   38.4050 C   0  0  0  0  0  3  0  0  0  0  0  0
   37.2590   22.8290   37.0860 C   0  0  0  0  0  3  0  0  0  0  0  0
   37.6960   27.3220   34.6190 C   0  0  0  0  0  0  0  0  0  0  0  0
   38.2900   27.9860   35.6950 F   0  0  0  0  0  0  0  0  0  0  0  0
   37.2630   28.1540   33.6260 F   0  0  0  0  0  0  0  0  0  0  0  0
   36.6510   26.5870   35.1590 F   0  0  0  0  0  0  0  0  0  0  0  0
  1 33  1  0  0  0  0
  1  6  1  0  0  0  0
  2  1  2  0  0  0  0
  3  2  1  0  0  0  0
  3  4  2  0  0  0  0
  4  5  1  0  0  0  0
  5  6  2  0  0  0  0
  5  7  1  0  0  0  0
  7  8  1  0  0  0  0
  7 12  1  0  0  0  0
  8 16  1  0  0  0  0
  9 18  1  0  0  0  0
  9  8  1  0  0  0  0
  9 10  1  0  0  0  0
 10 19  1  0  0  0  0
 11 10  1  0  0  0  0
 11 21  1  0  0  0  0
 12 23  1  6  0  0  0
 12 11  1  0  0  0  0
 12 26  1  0  0  0  0
 13  2  1  0  0  0  0
 14  3  1  0  0  0  0
 15  8  1  0  0  0  0
 17  9  1  0  0  0  0
 20 10  1  0  0  0  0
 22 11  1  0  0  0  0
 24 25  1  0  0  0  0
 25 26  2  0  0  0  0
 25 32  1  0  0  0  0
 26 27  1  0  0  0  0
 27 28  1  0  0  0  0
 27 29  2  0  0  0  0
 29 30  1  0  0  0  0
 31 29  1  0  0  0  0
 32 31  2  0  0  0  0
 33 36  1  0  0  0  0
 33 34  1  0  0  0  0
 35 33  1  0  0  0  0
M  END
>  <minimizedAffinity>
-5.56587648

$$$$

 OpenBabel03272500383D

 36 38  0  0  1  0  0  0  0  0999 V2000
   36.9660   22.2100   32.5080 C   0  0  0  0  0  0  0  0  0  0  0  0
   36.9750   22.5490   31.1430 C   0  0  0  0  0  0  0  0  0  0  0  0
   37.3560   23.8590   30.8010 C   0  0  0  0  0  0  0  0  0  0  0  0
   37.6870   24.7000   31.8170 N   0  0  0  0  0  0  0  0  0  0  0  0
   37.6650   24.3330   33.1220 C   0  0  0  0  0  0  0  0  0  0  0  0
   37.3040   23.0910   33.4510 N   0  0  0  0  0  0  0  0  0  0  0  0
   38.0350   25.3100   34.0930 N   0  0  0  0  0  0  0  0  0  0  0  0
   37.0230   26.1620   34.6430 C   0  0  0  0  0  0  0  0  0  0  0  0
   37.6460   27.5650   34.6330 C   0  0  0  0  0  0  0  0  0  0  0  0
   38.7310   27.5090   35.6890 C   0  0  0  0  0  0  0  0  0  0  0  0
   39.8250   26.6340   35.1800 C   0  0  0  0  0  0  0  0  0  0  0  0
   39.3990   25.3990   34.4770 C   0  0  1  0  0  0  0  0  0  0  0  0
   36.7080   21.8650   30.3500 H   0  0  0  0  0  0  0  0  0  0  0  0
   37.3870   24.1930   29.7660 H   0  0  0  0  0  0  0  0  0  0  0  0
   36.1690   26.2360   33.9090 H   0  0  0  0  0  0  0  0  0  0  0  0
   36.6260   25.8810   35.6140 H   0  0  0  0  0  0  0  0  0  0  0  0
   38.0330   27.7680   33.6370 H   0  0  0  0  0  0  0  0  0  0  0  0
   36.8550   28.2450   34.9920 H   0  0  0  0  0  0  0  0  0  0  0  0
   38.2920   27.2250   36.6530 H   0  0  0  0  0  0  0  0  0  0  0  0
   39.1080   28.5590   35.8010 H   0  0  0  0  0  0  0  0  0  0  0  0
   40.4620   26.3430   36.0630 H   0  0  0  0  0  0  0  0  0  0  0  0
   40.4890   27.2800   34.5600 H   0  0  0  0  0  0  0  0  0  0  0  0
   39.9850   25.3480   33.5110 H   0  0  0  0  0  0  0  0  0  0  0  0
   41.3720   23.5530   33.5900 F   0  0  0  0  0  0  0  0  0  0  0  0
   40.7580   23.3060   34.7750 C   0  0  0  0  0  0  0  0  0  0  0  0
   39.8010   24.1800   35.2290 C   0  0  0  0  0  0  0  0  0  0  0  0
   39.1940   23.9040   36.4360 C   0  0  0  0  0  0  0  0  0  0  0  0
   38.4360   24.5120   36.8900 H   0  0  0  0  0  0  0  0  0  0  0  0
   39.5390   22.7850   37.1640 C   0  0  0  0  0  0  0  0  0  0  0  0
   39.0780   22.5350   38.1250 H   0  0  0  0  0  0  0  0  0  0  0  0
   40.4980   21.8890   36.7320 C   0  0  0  0  0  3  0  0  0  0  0  0
   41.1020   22.1730   35.5180 C   0  0  0  0  0  3  0  0  0  0  0  0
   36.5610   20.8190   32.8810 C   0  0  0  0  0  0  0  0  0  0  0  0
   35.4140   20.4590   32.1690 F   0  0  0  0  0  0  0  0  0  0  0  0
   37.6260   19.9880   32.6700 F   0  0  0  0  0  0  0  0  0  0  0  0
   36.1880   20.8370   34.2150 F   0  0  0  0  0  0  0  0  0  0  0  0
  1 33  1  0  0  0  0
  1  6  1  0  0  0  0
  2  1  2  0  0  0  0
  3  2  1  0  0  0  0
  3  4  2  0  0  0  0
  4  5  1  0  0  0  0
  5  6  2  0  0  0  0
  5  7  1  0  0  0  0
  7 12  1  0  0  0  0
  7  8  1  0  0  0  0
  8 16  1  0  0  0  0
  9  8  1  0  0  0  0
  9 18  1  0  0  0  0
  9 10  1  0  0  0  0
 10 20  1  0  0  0  0
 10 19  1  0  0  0  0
 11 10  1  0  0  0  0
 11 21  1  0  0  0  0
 12 23  1  6  0  0  0
 12 11  1  0  0  0  0
 12 26  1  0  0  0  0
 13  2  1  0  0  0  0
 14  3  1  0  0  0  0
 15  8  1  0  0  0  0
 17  9  1  0  0  0  0
 22 11  1  0  0  0  0
 24 25  1  0  0  0  0
 25 26  2  0  0  0  0
 25 32  1  0  0  0  0
 26 27  1  0  0  0  0
 27 28  1  0  0  0  0
 27 29  2  0  0  0  0
 29 30  1  0  0  0  0
 31 29  1  0  0  0  0
 32 31  2  0  0  0  0
 33 36  1  0  0  0  0
 34 33  1  0  0  0  0
 35 33  1  0  0  0  0
M  END
>  <minimizedAffinity>
-5.43454218

$$$$

 OpenBabel03272500383D

 36 38  0  0  1  0  0  0  0  0999 V2000
   37.0810   22.5840   32.6910 C   0  0  0  0  0  0  0  0  0  0  0  0
   36.9010   21.7180   33.7850 C   0  0  0  0  0  0  0  0  0  0  0  0
   37.7410   21.8960   34.8980 C   0  0  0  0  0  0  0  0  0  0  0  0
   38.6660   22.8920   34.8340 N   0  0  0  0  0  0  0  0  0  0  0  0
   38.8060   23.7050   33.7580 C   0  0  0  0  0  0  0  0  0  0  0  0
   38.0110   23.5400   32.6990 N   0  0  0  0  0  0  0  0  0  0  0  0
   39.8140   24.7120   33.8150 N   0  0  0  0  0  0  0  0  0  0  0  0
   41.1350   24.4010   33.3550 C   0  0  0  0  0  0  0  0  0  0  0  0
   42.0690   24.9870   34.4240 C   0  0  0  0  0  0  0  0  0  0  0  0
   41.9390   26.4880   34.2630 C   0  0  0  0  0  0  0  0  0  0  0  0
   40.5790   26.8850   34.7270 C   0  0  0  0  0  0  0  0  0  0  0  0
   39.4660   25.9900   34.3280 C   0  0  1  0  0  0  0  0  0  0  0  0
   36.1600   20.9330   33.8170 H   0  0  0  0  0  0  0  0  0  0  0  0
   37.6610   21.2650   35.7810 H   0  0  0  0  0  0  0  0  0  0  0  0
   41.2960   23.2870   33.4310 H   0  0  0  0  0  0  0  0  0  0  0  0
   41.3880   24.7230   32.3480 H   0  0  0  0  0  0  0  0  0  0  0  0
   41.7450   24.6350   35.4000 H   0  0  0  0  0  0  0  0  0  0  0  0
   43.0890   24.6980   34.1180 H   0  0  0  0  0  0  0  0  0  0  0  0
   42.2040   26.7720   33.2370 H   0  0  0  0  0  0  0  0  0  0  0  0
   42.7140   26.9380   34.9350 H   0  0  0  0  0  0  0  0  0  0  0  0
   40.3740   27.9170   34.3230 H   0  0  0  0  0  0  0  0  0  0  0  0
   40.6470   27.0280   35.8310 H   0  0  0  0  0  0  0  0  0  0  0  0
   38.8570   25.7820   35.2570 H   0  0  0  0  0  0  0  0  0  0  0  0
   36.7670   26.6160   34.9700 F   0  0  0  0  0  0  0  0  0  0  0  0
   37.2250   26.9640   33.7410 C   0  0  0  0  0  0  0  0  0  0  0  0
   38.5240   26.6750   33.4030 C   0  0  0  0  0  0  0  0  0  0  0  0
   38.9620   27.0410   32.1470 C   0  0  0  0  0  0  0  0  0  0  0  0
   39.9510   26.8680   31.7720 H   0  0  0  0  0  0  0  0  0  0  0  0
   38.1200   27.6780   31.2600 C   0  0  0  0  0  0  0  0  0  0  0  0
   38.4330   27.9820   30.2560 H   0  0  0  0  0  0  0  0  0  0  0  0
   36.8090   27.9820   31.5730 C   0  0  0  0  0  3  0  0  0  0  0  0
   36.3770   27.6110   32.8370 C   0  0  0  0  0  3  0  0  0  0  0  0
   36.1910   22.4020   31.5020 C   0  0  0  0  0  0  0  0  0  0  0  0
   35.9330   23.6450   30.9180 F   0  0  0  0  0  0  0  0  0  0  0  0
   36.7780   21.5050   30.6560 F   0  0  0  0  0  0  0  0  0  0  0  0
   34.9680   21.9400   31.9630 F   0  0  0  0  0  0  0  0  0  0  0  0
  1  6  2  0  0  0  0
  1  2  1  0  0  0  0
  2 13  1  0  0  0  0
  2  3  2  0  0  0  0
  3 14  1  0  0  0  0
  4  3  1  0  0  0  0
  5  7  1  0  0  0  0
  5  4  2  0  0  0  0
  6  5  1  0  0  0  0
  7 12  1  0  0  0  0
  8 15  1  0  0  0  0
  8  7  1  0  0  0  0
  8  9  1  0  0  0  0
  9 17  1  0  0  0  0
 10  9  1  0  0  0  0
 10 11  1  0  0  0  0
 10 20  1  0  0  0  0
 11 22  1  0  0  0  0
 12 11  1  0  0  0  0
 12 23  1  1  0  0  0
 16  8  1  0  0  0  0
 18  9  1  0  0  0  0
 19 10  1  0  0  0  0
 21 11  1  0  0  0  0
 25 24  1  0  0  0  0
 26 25  1  0  0  0  0
 26 12  1  0  0  0  0
 27 26  2  0  0  0  0
 28 27  1  0  0  0  0
 29 31  2  0  0  0  0
 29 27  1  0  0  0  0
 30 29  1  0  0  0  0
 31 32  1  0  0  0  0
 32 25  2  0  0  0  0
 33 36  1  0  0  0  0
 33  1  1  0  0  0  0
 34 33  1  0  0  0  0
 35 33  1  0  0  0  0
M  END
>  <minimizedAffinity>
-5.40561295

$$$$

 OpenBabel03272500383D

 36 38  0  0  1  0  0  0  0  0999 V2000
   38.3930   24.8260   35.6620 C   0  0  0  0  0  0  0  0  0  0  0  0
   38.3260   26.0110   36.4160 C   0  0  0  0  0  0  0  0  0  0  0  0
   38.6710   27.2120   35.7710 C   0  0  0  0  0  0  0  0  0  0  0  0
   39.0440   27.1370   34.4650 N   0  0  0  0  0  0  0  0  0  0  0  0
   39.0950   25.9710   33.7740 C   0  0  0  0  0  0  0  0  0  0  0  0
   38.7680   24.8300   34.3820 N   0  0  0  0  0  0  0  0  0  0  0  0
   39.5020   26.0270   32.4080 N   0  0  0  0  0  0  0  0  0  0  0  0
   40.8950   25.9090   32.0910 C   0  0  0  0  0  0  0  0  0  0  0  0
   41.1530   27.0060   31.0480 C   0  0  0  0  0  0  0  0  0  0  0  0
   40.4250   26.5300   29.8070 C   0  0  0  0  0  0  0  0  0  0  0  0
   38.9600   26.6270   30.0650 C   0  0  0  0  0  0  0  0  0  0  0  0
   38.5050   26.1990   31.4110 C   0  0  1  0  0  0  0  0  0  0  0  0
   38.0270   26.0500   37.4530 H   0  0  0  0  0  0  0  0  0  0  0  0
   38.6430   28.1680   36.2900 H   0  0  0  0  0  0  0  0  0  0  0  0
   41.5010   26.2340   32.9860 H   0  0  0  0  0  0  0  0  0  0  0  0
   41.2390   24.9300   31.7720 H   0  0  0  0  0  0  0  0  0  0  0  0
   40.7690   27.9480   31.4300 H   0  0  0  0  0  0  0  0  0  0  0  0
   42.2360   26.9710   30.8420 H   0  0  0  0  0  0  0  0  0  0  0  0
   40.8010   25.5410   29.5160 H   0  0  0  0  0  0  0  0  0  0  0  0
   40.7130   27.2400   28.9890 H   0  0  0  0  0  0  0  0  0  0  0  0
   38.4390   25.9950   29.2920 H   0  0  0  0  0  0  0  0  0  0  0  0
   38.6600   27.6720   29.8170 H   0  0  0  0  0  0  0  0  0  0  0  0
   37.8260   27.0120   31.8060 H   0  0  0  0  0  0  0  0  0  0  0  0
   35.7030   26.1990   31.8960 F   0  0  0  0  0  0  0  0  0  0  0  0
   36.2930   25.0200   31.5730 C   0  0  0  0  0  0  0  0  0  0  0  0
   37.6440   24.9890   31.3330 C   0  0  0  0  0  0  0  0  0  0  0  0
   38.2150   23.7770   31.0070 C   0  0  0  0  0  0  0  0  0  0  0  0
   39.2570   23.6300   30.7990 H   0  0  0  0  0  0  0  0  0  0  0  0
   37.4510   22.6320   30.9240 C   0  0  0  0  0  0  0  0  0  0  0  0
   37.8710   21.6540   30.6680 H   0  0  0  0  0  0  0  0  0  0  0  0
   36.0900   22.6330   31.1590 C   0  0  0  0  0  3  0  0  0  0  0  0
   35.5240   23.8550   31.4870 C   0  0  0  0  0  3  0  0  0  0  0  0
   38.0270   23.5430   36.3410 C   0  0  0  0  0  0  0  0  0  0  0  0
   37.0480   23.7890   37.3060 F   0  0  0  0  0  0  0  0  0  0  0  0
   37.6500   22.6420   35.3860 F   0  0  0  0  0  0  0  0  0  0  0  0
   39.1440   23.1080   37.0380 F   0  0  0  0  0  0  0  0  0  0  0  0
  1 33  1  0  0  0  0
  1  2  1  0  0  0  0
  2 13  1  0  0  0  0
  3 14  1  0  0  0  0
  3  2  2  0  0  0  0
  4  3  1  0  0  0  0
  5  6  1  0  0  0  0
  5  4  2  0  0  0  0
  6  1  2  0  0  0  0
  7  5  1  0  0  0  0
  8  7  1  0  0  0  0
  8 15  1  0  0  0  0
  9 17  1  0  0  0  0
  9  8  1  0  0  0  0
 10 11  1  0  0  0  0
 10  9  1  0  0  0  0
 11 12  1  0  0  0  0
 12 23  1  1  0  0  0
 12  7  1  0  0  0  0
 16  8  1  0  0  0  0
 18  9  1  0  0  0  0
 19 10  1  0  0  0  0
 20 10  1  0  0  0  0
 21 11  1  0  0  0  0
 22 11  1  0  0  0  0
 25 24  1  0  0  0  0
 26 12  1  0  0  0  0
 26 25  2  0  0  0  0
 27 26  1  0  0  0  0
 28 27  1  0  0  0  0
 29 27  2  0  0  0  0
 29 31  1  0  0  0  0
 30 29  1  0  0  0  0
 31 32  2  0  0  0  0
 32 25  1  0  0  0  0
 33 36  1  0  0  0  0
 33 34  1  0  0  0  0
 35 33  1  0  0  0  0
M  END
>  <minimizedAffinity>
-5.34711361

$$$$
