
 OpenBabel03272501553D

 24 25  0  0  0  0  0  0  0  0999 V2000
   38.2000   26.7220   35.8110 C   0  0  0  0  0  0  0  0  0  0  0  0
   39.3160   26.6150   35.7110 H   0  0  0  0  0  0  0  0  0  0  0  0
   37.9650   27.3650   36.6710 H   0  0  0  0  0  0  0  0  0  0  0  0
   36.1760   28.5410   33.2790 C   0  0  0  0  0  0  0  0  0  0  0  0
   36.9050   28.3300   32.1070 C   0  0  0  0  0  0  0  0  0  0  0  0
   38.0830   27.5680   32.1910 C   0  0  0  0  0  0  0  0  0  0  0  0
   38.4450   27.0780   33.4180 N   0  0  0  0  0  0  0  0  0  0  0  0
   37.6970   27.3140   34.5270 C   0  0  0  0  0  0  0  0  0  0  0  0
   36.5820   28.0370   34.4390 N   0  0  0  0  0  0  0  0  0  0  0  0
   35.2890   29.1270   33.1450 H   0  0  0  0  0  0  0  0  0  0  0  0
   36.6890   28.6800   31.1130 H   0  0  0  0  0  0  0  0  0  0  0  0
   38.7570   27.3140   31.3840 H   0  0  0  0  0  0  0  0  0  0  0  0
   37.6270   25.3440   36.0030 C   0  0  0  0  0  0  0  0  0  0  0  0
   37.1410   25.0640   35.0530 H   0  0  0  0  0  0  0  0  0  0  0  0
   36.8290   25.4430   36.7620 H   0  0  0  0  0  0  0  0  0  0  0  0
   37.4700   24.3140   38.5390 F   0  0  0  0  0  0  0  0  0  0  0  0
   38.4820   23.9420   37.7240 C   0  0  0  0  0  0  0  0  0  0  0  0
   38.6870   24.3850   36.4110 C   0  0  0  0  0  0  0  0  0  0  0  0
   39.7680   23.9220   35.6870 C   0  0  0  0  0  0  0  0  0  0  0  0
   39.8220   24.3260   34.7060 H   0  0  0  0  0  0  0  0  0  0  0  0
   40.6290   23.0180   36.2940 C   0  0  0  0  0  0  0  0  0  0  0  0
   41.4590   22.6920   35.6750 H   0  0  0  0  0  0  0  0  0  0  0  0
   40.4390   22.5730   37.5860 C   0  0  0  0  0  3  0  0  0  0  0  0
   39.3510   23.0400   38.3150 C   0  0  0  0  0  3  0  0  0  0  0  0
  1 13  1  0  0  0  0
  1  3  1  0  0  0  0
  2  1  1  0  0  0  0
  4  9  1  0  0  0  0
  5  6  1  0  0  0  0
  5  4  2  0  0  0  0
  6  7  2  0  0  0  0
  7  8  1  0  0  0  0
  8  1  1  0  0  0  0
  9  8  2  0  0  0  0
 10  4  1  0  0  0  0
 11  5  1  0  0  0  0
 12  6  1  0  0  0  0
 13 18  1  0  0  0  0
 13 15  1  0  0  0  0
 14 13  1  0  0  0  0
 17 24  1  0  0  0  0
 17 16  1  0  0  0  0
 18 17  2  0  0  0  0
 19 21  2  0  0  0  0
 19 18  1  0  0  0  0
 20 19  1  0  0  0  0
 21 23  1  0  0  0  0
 22 21  1  0  0  0  0
 23 24  2  0  0  0  0
M  END
>  <minimizedAffinity>
-4.51989937

$$$$

 OpenBabel03272501553D

 24 25  0  0  0  0  0  0  0  0999 V2000
   38.7250   21.9560   34.2700 C   0  0  0  0  0  0  0  0  0  0  0  0
   39.5780   22.4160   33.6970 H   0  0  0  0  0  0  0  0  0  0  0  0
   38.7680   20.8610   34.1840 H   0  0  0  0  0  0  0  0  0  0  0  0
   40.0510   22.6680   37.6690 C   0  0  0  0  0  0  0  0  0  0  0  0
   38.9580   23.2670   38.2960 C   0  0  0  0  0  0  0  0  0  0  0  0
   37.7740   23.4220   37.5530 C   0  0  0  0  0  0  0  0  0  0  0  0
   37.7660   22.9770   36.2580 N   0  0  0  0  0  0  0  0  0  0  0  0
   38.8610   22.4020   35.6960 C   0  0  0  0  0  0  0  0  0  0  0  0
   39.9780   22.2580   36.4070 N   0  0  0  0  0  0  0  0  0  0  0  0
   40.9190   22.5790   38.2900 H   0  0  0  0  0  0  0  0  0  0  0  0
   38.8850   23.6410   39.3020 H   0  0  0  0  0  0  0  0  0  0  0  0
   36.8440   23.8610   37.8870 H   0  0  0  0  0  0  0  0  0  0  0  0
   37.4460   22.4870   33.6830 C   0  0  0  0  0  0  0  0  0  0  0  0
   37.7050   23.3980   33.1170 H   0  0  0  0  0  0  0  0  0  0  0  0
   36.8190   22.8030   34.5390 H   0  0  0  0  0  0  0  0  0  0  0  0
   35.7160   20.7700   34.9400 F   0  0  0  0  0  0  0  0  0  0  0  0
   35.9320   20.6530   33.6110 C   0  0  0  0  0  0  0  0  0  0  0  0
   36.7840   21.4560   32.8410 C   0  0  0  0  0  0  0  0  0  0  0  0
   36.9120   21.2250   31.4860 C   0  0  0  0  0  0  0  0  0  0  0  0
   37.5830   21.8950   31.0070 H   0  0  0  0  0  0  0  0  0  0  0  0
   36.1800   20.1890   30.9220 C   0  0  0  0  0  0  0  0  0  0  0  0
   36.3240   20.0570   29.8540 H   0  0  0  0  0  0  0  0  0  0  0  0
   35.3380   19.3910   31.6670 C   0  0  0  0  0  3  0  0  0  0  0  0
   35.2090   19.6230   33.0320 C   0  0  0  0  0  3  0  0  0  0  0  0
  1  8  1  0  0  0  0
  2  1  1  0  0  0  0
  3  1  1  0  0  0  0
  4 10  1  0  0  0  0
  4  5  1  0  0  0  0
  5 11  1  0  0  0  0
  6 12  1  0  0  0  0
  6  5  2  0  0  0  0
  7  6  1  0  0  0  0
  8  7  2  0  0  0  0
  8  9  1  0  0  0  0
  9  4  2  0  0  0  0
 13  1  1  0  0  0  0
 13 15  1  0  0  0  0
 14 13  1  0  0  0  0
 17 16  1  0  0  0  0
 18 17  2  0  0  0  0
 18 13  1  0  0  0  0
 19 18  1  0  0  0  0
 20 19  1  0  0  0  0
 21 19  2  0  0  0  0
 21 23  1  0  0  0  0
 22 21  1  0  0  0  0
 23 24  2  0  0  0  0
 24 17  1  0  0  0  0
M  END
>  <minimizedAffinity>
-4.50270414

$$$$

 OpenBabel03272501553D

 24 25  0  0  0  0  0  0  0  0999 V2000
   37.7300   25.8810   35.7430 C   0  0  0  0  0  0  0  0  0  0  0  0
   37.4080   25.4560   34.7520 H   0  0  0  0  0  0  0  0  0  0  0  0
   36.8540   26.2580   36.2880 H   0  0  0  0  0  0  0  0  0  0  0  0
   38.6820   23.4000   38.3420 C   0  0  0  0  0  0  0  0  0  0  0  0
   39.7590   22.7420   37.7470 C   0  0  0  0  0  0  0  0  0  0  0  0
   40.1540   23.1520   36.4610 C   0  0  0  0  0  0  0  0  0  0  0  0
   39.4550   24.1720   35.8700 N   0  0  0  0  0  0  0  0  0  0  0  0
   38.4130   24.7760   36.4960 C   0  0  0  0  0  0  0  0  0  0  0  0
   38.0460   24.3830   37.7140 N   0  0  0  0  0  0  0  0  0  0  0  0
   38.4350   23.0400   39.3210 H   0  0  0  0  0  0  0  0  0  0  0  0
   40.3540   21.9370   38.1420 H   0  0  0  0  0  0  0  0  0  0  0  0
   40.9620   22.7510   35.8640 H   0  0  0  0  0  0  0  0  0  0  0  0
   38.7040   26.9930   35.4640 C   0  0  0  0  0  0  0  0  0  0  0  0
   39.6130   26.7800   36.0520 H   0  0  0  0  0  0  0  0  0  0  0  0
   38.2540   27.9130   35.8830 H   0  0  0  0  0  0  0  0  0  0  0  0
   41.3320   26.9890   34.6800 F   0  0  0  0  0  0  0  0  0  0  0  0
   40.3530   27.0880   33.7520 C   0  0  0  0  0  0  0  0  0  0  0  0
   38.9760   27.1030   34.0070 C   0  0  0  0  0  0  0  0  0  0  0  0
   38.0820   27.2100   32.9600 C   0  0  0  0  0  0  0  0  0  0  0  0
   37.0660   27.2100   33.2720 H   0  0  0  0  0  0  0  0  0  0  0  0
   38.5850   27.3000   31.6700 C   0  0  0  0  0  0  0  0  0  0  0  0
   37.8340   27.3830   30.8910 H   0  0  0  0  0  0  0  0  0  0  0  0
   39.9380   27.2870   31.4040 C   0  0  0  0  0  3  0  0  0  0  0  0
   40.8390   27.1800   32.4580 C   0  0  0  0  0  3  0  0  0  0  0  0
  1  3  1  0  0  0  0
  1  8  1  0  0  0  0
  2  1  1  0  0  0  0
  4 10  1  0  0  0  0
  5 11  1  0  0  0  0
  5  4  1  0  0  0  0
  6  5  2  0  0  0  0
  7  6  1  0  0  0  0
  7  8  2  0  0  0  0
  8  9  1  0  0  0  0
  9  4  2  0  0  0  0
 12  6  1  0  0  0  0
 13  1  1  0  0  0  0
 13 15  1  0  0  0  0
 13 14  1  0  0  0  0
 17 18  1  0  0  0  0
 17 16  1  0  0  0  0
 18 13  1  0  0  0  0
 19 20  1  0  0  0  0
 19 18  2  0  0  0  0
 21 19  1  0  0  0  0
 22 21  1  0  0  0  0
 23 21  2  0  0  0  0
 23 24  1  0  0  0  0
 24 17  2  0  0  0  0
M  END
>  <minimizedAffinity>
-4.47113991

$$$$

 OpenBabel03272501553D

 24 25  0  0  0  0  0  0  0  0999 V2000
   39.2000   24.8490   34.6570 C   0  0  0  0  0  0  0  0  0  0  0  0
   40.0970   24.3350   34.2150 H   0  0  0  0  0  0  0  0  0  0  0  0
   38.3140   24.6440   34.0400 H   0  0  0  0  0  0  0  0  0  0  0  0
   37.9760   24.2430   38.1140 C   0  0  0  0  0  0  0  0  0  0  0  0
   38.8530   23.2610   38.5740 C   0  0  0  0  0  0  0  0  0  0  0  0
   39.8580   22.8120   37.6990 C   0  0  0  0  0  0  0  0  0  0  0  0
   39.9140   23.3660   36.4470 N   0  0  0  0  0  0  0  0  0  0  0  0
   39.0320   24.3200   36.0520 C   0  0  0  0  0  0  0  0  0  0  0  0
   38.0840   24.7410   36.8870 N   0  0  0  0  0  0  0  0  0  0  0  0
   37.2360   24.5410   38.8300 H   0  0  0  0  0  0  0  0  0  0  0  0
   38.8740   22.7780   39.5350 H   0  0  0  0  0  0  0  0  0  0  0  0
   40.6130   22.0620   37.8970 H   0  0  0  0  0  0  0  0  0  0  0  0
   39.4940   26.3230   34.6960 C   0  0  0  0  0  0  0  0  0  0  0  0
   40.3970   26.4870   34.0840 H   0  0  0  0  0  0  0  0  0  0  0  0
   39.7640   26.5590   35.7430 H   0  0  0  0  0  0  0  0  0  0  0  0
   39.3100   26.7670   31.9960 F   0  0  0  0  0  0  0  0  0  0  0  0
   38.3600   27.2560   32.8240 C   0  0  0  0  0  0  0  0  0  0  0  0
   38.3260   27.1070   34.2170 C   0  0  0  0  0  0  0  0  0  0  0  0
   37.2910   27.6610   34.9440 C   0  0  0  0  0  0  0  0  0  0  0  0
   37.3700   27.4850   35.9900 H   0  0  0  0  0  0  0  0  0  0  0  0
   36.3040   28.3570   34.2620 C   0  0  0  0  0  0  0  0  0  0  0  0
   35.5190   28.7700   34.8880 H   0  0  0  0  0  0  0  0  0  0  0  0
   36.3240   28.5110   32.8910 C   0  0  0  0  0  3  0  0  0  0  0  0
   37.3660   27.9540   32.1580 C   0  0  0  0  0  3  0  0  0  0  0  0
  1 13  1  0  0  0  0
  1  8  1  0  0  0  0
  2  1  1  0  0  0  0
  3  1  1  0  0  0  0
  4  5  1  0  0  0  0
  4 10  1  0  0  0  0
  5 11  1  0  0  0  0
  6 12  1  0  0  0  0
  6  5  2  0  0  0  0
  7  6  1  0  0  0  0
  8  7  2  0  0  0  0
  8  9  1  0  0  0  0
  9  4  2  0  0  0  0
 13 15  1  0  0  0  0
 14 13  1  0  0  0  0
 16 17  1  0  0  0  0
 17 18  1  0  0  0  0
 18 13  1  0  0  0  0
 18 19  2  0  0  0  0
 19 20  1  0  0  0  0
 21 22  1  0  0  0  0
 21 19  1  0  0  0  0
 23 21  2  0  0  0  0
 24 17  2  0  0  0  0
 24 23  1  0  0  0  0
M  END
>  <minimizedAffinity>
-4.47029924

$$$$

 OpenBabel03272501553D

 24 25  0  0  0  0  0  0  0  0999 V2000
   38.9700   22.2210   34.1870 C   0  0  0  0  0  0  0  0  0  0  0  0
   39.9200   22.6440   33.7570 H   0  0  0  0  0  0  0  0  0  0  0  0
   38.9570   21.1300   34.0580 H   0  0  0  0  0  0  0  0  0  0  0  0
   37.9000   23.5050   37.5070 C   0  0  0  0  0  0  0  0  0  0  0  0
   39.0180   23.2490   38.3010 C   0  0  0  0  0  0  0  0  0  0  0  0
   40.1310   22.6390   37.6960 C   0  0  0  0  0  0  0  0  0  0  0  0
   40.0500   22.3320   36.3630 N   0  0  0  0  0  0  0  0  0  0  0  0
   38.9340   22.6050   35.6370 C   0  0  0  0  0  0  0  0  0  0  0  0
   37.8840   23.1840   36.2180 N   0  0  0  0  0  0  0  0  0  0  0  0
   37.0890   23.9720   38.0290 H   0  0  0  0  0  0  0  0  0  0  0  0
   39.1580   23.4560   39.3470 H   0  0  0  0  0  0  0  0  0  0  0  0
   41.0690   22.3740   38.1650 H   0  0  0  0  0  0  0  0  0  0  0  0
   37.8190   22.8580   33.4570 C   0  0  0  0  0  0  0  0  0  0  0  0
   38.2440   23.3870   32.5860 H   0  0  0  0  0  0  0  0  0  0  0  0
   37.4080   23.6280   34.1360 H   0  0  0  0  0  0  0  0  0  0  0  0
   36.9650   22.8650   30.8510 F   0  0  0  0  0  0  0  0  0  0  0  0
   36.4660   21.9570   31.7190 C   0  0  0  0  0  0  0  0  0  0  0  0
   36.8090   21.8380   33.0730 C   0  0  0  0  0  0  0  0  0  0  0  0
   36.2190   20.8610   33.8500 C   0  0  0  0  0  0  0  0  0  0  0  0
   36.5550   20.8650   34.8580 H   0  0  0  0  0  0  0  0  0  0  0  0
   35.2920   20.0160   33.2550 C   0  0  0  0  0  0  0  0  0  0  0  0
   34.8630   19.2710   33.9180 H   0  0  0  0  0  0  0  0  0  0  0  0
   34.9450   20.1220   31.9250 C   0  0  0  0  0  3  0  0  0  0  0  0
   35.5380   21.1060   31.1420 C   0  0  0  0  0  3  0  0  0  0  0  0
  1  8  1  0  0  0  0
  2  1  1  0  0  0  0
  3  1  1  0  0  0  0
  4 10  1  0  0  0  0
  4  5  1  0  0  0  0
  5 11  1  0  0  0  0
  6 12  1  0  0  0  0
  6  5  2  0  0  0  0
  7  6  1  0  0  0  0
  8  9  1  0  0  0  0
  8  7  2  0  0  0  0
  9  4  2  0  0  0  0
 13 15  1  0  0  0  0
 13  1  1  0  0  0  0
 14 13  1  0  0  0  0
 16 17  1  0  0  0  0
 17 18  1  0  0  0  0
 18 13  1  0  0  0  0
 18 19  2  0  0  0  0
 19 20  1  0  0  0  0
 21 19  1  0  0  0  0
 21 22  1  0  0  0  0
 23 21  2  0  0  0  0
 24 17  2  0  0  0  0
 24 23  1  0  0  0  0
M  END
>  <minimizedAffinity>
-4.41530561

$$$$

 OpenBabel03272501553D

 24 25  0  0  0  0  0  0  0  0999 V2000
   38.5220   24.3700   34.5570 C   0  0  0  0  0  0  0  0  0  0  0  0
   39.1680   23.6370   33.9990 H   0  0  0  0  0  0  0  0  0  0  0  0
   37.4900   24.3140   34.1840 H   0  0  0  0  0  0  0  0  0  0  0  0
   37.7980   24.0230   38.1870 C   0  0  0  0  0  0  0  0  0  0  0  0
   38.8860   23.2750   38.6370 C   0  0  0  0  0  0  0  0  0  0  0  0
   39.8610   22.8950   37.6980 C   0  0  0  0  0  0  0  0  0  0  0  0
   39.6820   23.2810   36.3960 N   0  0  0  0  0  0  0  0  0  0  0  0
   38.6020   24.0090   36.0120 C   0  0  0  0  0  0  0  0  0  0  0  0
   37.6840   24.3660   36.9080 N   0  0  0  0  0  0  0  0  0  0  0  0
   37.0950   24.2810   38.9530 H   0  0  0  0  0  0  0  0  0  0  0  0
   39.0960   22.9340   39.6360 H   0  0  0  0  0  0  0  0  0  0  0  0
   40.7580   22.3190   37.8810 H   0  0  0  0  0  0  0  0  0  0  0  0
   39.0960   25.7420   34.3340 C   0  0  0  0  0  0  0  0  0  0  0  0
   39.9320   25.6290   33.6230 H   0  0  0  0  0  0  0  0  0  0  0  0
   39.5320   26.0570   35.3010 H   0  0  0  0  0  0  0  0  0  0  0  0
   37.9740   27.4310   36.1800 F   0  0  0  0  0  0  0  0  0  0  0  0
   37.5670   27.4770   34.8920 C   0  0  0  0  0  0  0  0  0  0  0  0
   38.0500   26.6780   33.8470 C   0  0  0  0  0  0  0  0  0  0  0  0
   37.5430   26.8310   32.5720 C   0  0  0  0  0  0  0  0  0  0  0  0
   37.9830   26.1730   31.8620 H   0  0  0  0  0  0  0  0  0  0  0  0
   36.5570   27.7860   32.3640 C   0  0  0  0  0  0  0  0  0  0  0  0
   36.1980   27.8580   31.3420 H   0  0  0  0  0  0  0  0  0  0  0  0
   36.0730   28.5790   33.3830 C   0  0  0  0  0  3  0  0  0  0  0  0
   36.5830   28.4250   34.6670 C   0  0  0  0  0  3  0  0  0  0  0  0
  1  8  1  0  0  0  0
  2  1  1  0  0  0  0
  3  1  1  0  0  0  0
  4  5  1  0  0  0  0
  4 10  1  0  0  0  0
  5 11  1  0  0  0  0
  6 12  1  0  0  0  0
  6  5  2  0  0  0  0
  7  6  1  0  0  0  0
  8  7  2  0  0  0  0
  8  9  1  0  0  0  0
  9  4  2  0  0  0  0
 13  1  1  0  0  0  0
 13 15  1  0  0  0  0
 14 13  1  0  0  0  0
 17 16  1  0  0  0  0
 18 13  1  0  0  0  0
 18 17  2  0  0  0  0
 19 18  1  0  0  0  0
 20 19  1  0  0  0  0
 21 19  2  0  0  0  0
 21 23  1  0  0  0  0
 22 21  1  0  0  0  0
 23 24  2  0  0  0  0
 24 17  1  0  0  0  0
M  END
>  <minimizedAffinity>
-4.40514708

$$$$

 OpenBabel03272501553D

 24 25  0  0  0  0  0  0  0  0999 V2000
   38.3570   24.7640   34.5360 C   0  0  0  0  0  0  0  0  0  0  0  0
   38.9030   24.1060   33.8050 H   0  0  0  0  0  0  0  0  0  0  0  0
   37.2850   24.7740   34.2980 H   0  0  0  0  0  0  0  0  0  0  0  0
   39.7900   22.8950   37.4130 C   0  0  0  0  0  0  0  0  0  0  0  0
   38.9480   23.2700   38.4610 C   0  0  0  0  0  0  0  0  0  0  0  0
   37.8960   24.1580   38.1770 C   0  0  0  0  0  0  0  0  0  0  0  0
   37.7610   24.6040   36.8890 N   0  0  0  0  0  0  0  0  0  0  0  0
   38.6110   24.2060   35.9060 C   0  0  0  0  0  0  0  0  0  0  0  0
   39.6050   23.3630   36.1830 N   0  0  0  0  0  0  0  0  0  0  0  0
   40.5680   22.2160   37.6960 H   0  0  0  0  0  0  0  0  0  0  0  0
   38.9890   22.9670   39.4930 H   0  0  0  0  0  0  0  0  0  0  0  0
   37.1600   24.5440   38.8700 H   0  0  0  0  0  0  0  0  0  0  0  0
   38.9400   26.1470   34.4270 C   0  0  0  0  0  0  0  0  0  0  0  0
   39.7950   26.0810   33.7320 H   0  0  0  0  0  0  0  0  0  0  0  0
   39.3500   26.3910   35.4250 H   0  0  0  0  0  0  0  0  0  0  0  0
   38.9260   26.8150   31.7670 F   0  0  0  0  0  0  0  0  0  0  0  0
   38.0190   27.3670   32.6040 C   0  0  0  0  0  0  0  0  0  0  0  0
   37.9090   27.1190   33.9790 C   0  0  0  0  0  0  0  0  0  0  0  0
   36.9320   27.7550   34.7180 C   0  0  0  0  0  0  0  0  0  0  0  0
   36.9440   27.4900   35.7470 H   0  0  0  0  0  0  0  0  0  0  0  0
   36.0760   28.6310   34.0650 C   0  0  0  0  0  0  0  0  0  0  0  0
   35.3310   29.1000   34.6990 H   0  0  0  0  0  0  0  0  0  0  0  0
   36.1730   28.8840   32.7120 C   0  0  0  0  0  3  0  0  0  0  0  0
   37.1570   28.2450   31.9680 C   0  0  0  0  0  3  0  0  0  0  0  0
  1  8  1  0  0  0  0
  2  1  1  0  0  0  0
  3  1  1  0  0  0  0
  4 10  1  0  0  0  0
  4  5  1  0  0  0  0
  5 11  1  0  0  0  0
  6  5  2  0  0  0  0
  6 12  1  0  0  0  0
  7  6  1  0  0  0  0
  8  9  1  0  0  0  0
  8  7  2  0  0  0  0
  9  4  2  0  0  0  0
 13  1  1  0  0  0  0
 13 15  1  0  0  0  0
 14 13  1  0  0  0  0
 16 17  1  0  0  0  0
 17 18  1  0  0  0  0
 18 13  1  0  0  0  0
 18 19  2  0  0  0  0
 19 20  1  0  0  0  0
 21 22  1  0  0  0  0
 21 19  1  0  0  0  0
 23 21  2  0  0  0  0
 24 17  2  0  0  0  0
 24 23  1  0  0  0  0
M  END
>  <minimizedAffinity>
-4.37933636

$$$$

 OpenBabel03272501553D

 24 25  0  0  0  0  0  0  0  0999 V2000
   36.2560   28.7850   34.5220 C   0  0  0  0  0  0  0  0  0  0  0  0
   35.5540   28.3050   35.2590 H   0  0  0  0  0  0  0  0  0  0  0  0
   37.2240   28.9770   35.0040 H   0  0  0  0  0  0  0  0  0  0  0  0
   36.0610   27.2240   31.1540 C   0  0  0  0  0  0  0  0  0  0  0  0
   36.7230   26.0120   31.3490 C   0  0  0  0  0  0  0  0  0  0  0  0
   37.2310   25.7350   32.6310 C   0  0  0  0  0  0  0  0  0  0  0  0
   37.0460   26.6740   33.6110 N   0  0  0  0  0  0  0  0  0  0  0  0
   36.3940   27.8400   33.3650 C   0  0  0  0  0  0  0  0  0  0  0  0
   35.9150   28.0940   32.1480 N   0  0  0  0  0  0  0  0  0  0  0  0
   35.6980   27.3710   30.1570 H   0  0  0  0  0  0  0  0  0  0  0  0
   36.9090   25.2280   30.6350 H   0  0  0  0  0  0  0  0  0  0  0  0
   37.7640   24.8490   32.9470 H   0  0  0  0  0  0  0  0  0  0  0  0
   35.6230   30.0710   34.0650 C   0  0  0  0  0  0  0  0  0  0  0  0
   35.1040   29.8540   33.1160 H   0  0  0  0  0  0  0  0  0  0  0  0
   36.4560   30.7610   33.8300 H   0  0  0  0  0  0  0  0  0  0  0  0
   36.6940   31.8440   35.8620 F   0  0  0  0  0  0  0  0  0  0  0  0
   35.3890   31.5000   35.9530 C   0  0  0  0  0  0  0  0  0  0  0  0
   34.7120   30.6110   35.1080 C   0  0  0  0  0  0  0  0  0  0  0  0
   33.3720   30.3480   35.3150 C   0  0  0  0  0  0  0  0  0  0  0  0
   32.9650   29.6610   34.6140 H   0  0  0  0  0  0  0  0  0  0  0  0
   32.7310   30.9830   36.3690 C   0  0  0  0  0  0  0  0  0  0  0  0
   31.6800   30.7350   36.4810 H   0  0  0  0  0  0  0  0  0  0  0  0
   33.3850   31.8600   37.2090 C   0  0  0  0  0  3  0  0  0  0  0  0
   34.7340   32.1240   37.0010 C   0  0  0  0  0  3  0  0  0  0  0  0
  1  3  1  0  0  0  0
  1  2  1  0  0  0  0
  4  5  2  0  0  0  0
  4  9  1  0  0  0  0
  5  6  1  0  0  0  0
  6 12  1  0  0  0  0
  6  7  2  0  0  0  0
  8  7  1  0  0  0  0
  8  1  1  0  0  0  0
  9  8  2  0  0  0  0
 10  4  1  0  0  0  0
 11  5  1  0  0  0  0
 13  1  1  0  0  0  0
 13 18  1  0  0  0  0
 14 13  1  0  0  0  0
 15 13  1  0  0  0  0
 16 17  1  0  0  0  0
 17 24  1  0  0  0  0
 18 19  1  0  0  0  0
 18 17  2  0  0  0  0
 19 21  2  0  0  0  0
 20 19  1  0  0  0  0
 21 22  1  0  0  0  0
 21 23  1  0  0  0  0
 24 23  2  0  0  0  0
M  END
>  <minimizedAffinity>
-4.32332802

$$$$

 OpenBabel03272501553D

 24 25  0  0  0  0  0  0  0  0999 V2000
   37.9130   24.2760   33.6690 C   0  0  0  0  0  0  0  0  0  0  0  0
   37.1770   23.7580   34.3440 H   0  0  0  0  0  0  0  0  0  0  0  0
   38.2030   23.6030   32.8500 H   0  0  0  0  0  0  0  0  0  0  0  0
   36.6460   27.7510   33.2940 C   0  0  0  0  0  0  0  0  0  0  0  0
   35.9630   27.6890   32.0790 C   0  0  0  0  0  0  0  0  0  0  0  0
   35.9390   26.4610   31.3960 C   0  0  0  0  0  0  0  0  0  0  0  0
   36.5900   25.3980   31.9640 N   0  0  0  0  0  0  0  0  0  0  0  0
   37.2410   25.5140   33.1510 C   0  0  0  0  0  0  0  0  0  0  0  0
   37.2570   26.6810   33.7920 N   0  0  0  0  0  0  0  0  0  0  0  0
   36.6240   28.7140   33.7630 H   0  0  0  0  0  0  0  0  0  0  0  0
   35.4330   28.4750   31.5690 H   0  0  0  0  0  0  0  0  0  0  0  0
   35.4590   26.2460   30.4510 H   0  0  0  0  0  0  0  0  0  0  0  0
   39.1090   24.6490   34.5020 C   0  0  0  0  0  0  0  0  0  0  0  0
   39.2810   25.7280   34.3520 H   0  0  0  0  0  0  0  0  0  0  0  0
   39.9730   24.1160   34.0620 H   0  0  0  0  0  0  0  0  0  0  0  0
   40.7500   22.7380   35.5850 F   0  0  0  0  0  0  0  0  0  0  0  0
   39.7930   23.3120   36.3470 C   0  0  0  0  0  0  0  0  0  0  0  0
   38.8870   24.2960   35.9290 C   0  0  0  0  0  0  0  0  0  0  0  0
   37.9560   24.7970   36.8160 C   0  0  0  0  0  0  0  0  0  0  0  0
   37.3230   25.5370   36.3890 H   0  0  0  0  0  0  0  0  0  0  0  0
   37.9460   24.3020   38.1120 C   0  0  0  0  0  0  0  0  0  0  0  0
   37.1910   24.7340   38.7610 H   0  0  0  0  0  0  0  0  0  0  0  0
   38.8310   23.3330   38.5380 C   0  0  0  0  0  3  0  0  0  0  0  0
   39.7690   22.8280   37.6450 C   0  0  0  0  0  3  0  0  0  0  0  0
  1  2  1  0  0  0  0
  1 13  1  0  0  0  0
  3  1  1  0  0  0  0
  4 10  1  0  0  0  0
  4  9  1  0  0  0  0
  5  4  2  0  0  0  0
  6  7  2  0  0  0  0
  6  5  1  0  0  0  0
  7  8  1  0  0  0  0
  8  1  1  0  0  0  0
  8  9  2  0  0  0  0
 11  5  1  0  0  0  0
 12  6  1  0  0  0  0
 13 18  1  0  0  0  0
 14 13  1  0  0  0  0
 15 13  1  0  0  0  0
 16 17  1  0  0  0  0
 17 24  1  0  0  0  0
 18 17  2  0  0  0  0
 18 19  1  0  0  0  0
 19 21  2  0  0  0  0
 20 19  1  0  0  0  0
 21 23  1  0  0  0  0
 21 22  1  0  0  0  0
 24 23  2  0  0  0  0
M  END
>  <minimizedAffinity>
-4.31415415

$$$$
