
 OpenBabel03272510013D

 21 22  0  0  0  0  0  0  0  0999 V2000
   38.3310   31.1800   50.3780 C   0  0  0  0  0  0  0  0  0  0  0  0
   38.4880   31.4740   49.0030 C   0  0  0  0  0  0  0  0  0  0  0  0
   37.4980   31.0550   48.1280 C   0  0  0  0  0  0  0  0  0  0  0  0
   36.4460   30.3880   48.6660 N   0  0  0  0  0  0  0  0  0  0  0  0
   36.3140   30.1190   49.9660 C   0  0  0  0  0  0  0  0  0  0  0  0
   37.2610   30.5190   50.8080 N   0  0  0  0  0  0  0  0  0  0  0  0
   39.0870   31.4950   51.0820 H   0  0  0  0  0  0  0  0  0  0  0  0
   39.3380   32.0040   48.6300 H   0  0  0  0  0  0  0  0  0  0  0  0
   39.1920   32.9880   46.9850 F   0  0  0  0  0  0  0  0  0  0  0  0
   38.3750   32.2420   46.1780 C   0  0  0  0  0  0  0  0  0  0  0  0
   37.5380   31.2940   46.6920 C   0  0  0  0  0  0  0  0  0  0  0  0
   36.7660   30.6080   45.7800 C   0  0  0  0  0  0  0  0  0  0  0  0
   36.0810   29.8450   46.1190 H   0  0  0  0  0  0  0  0  0  0  0  0
   36.7960   30.8270   44.4240 C   0  0  0  0  0  0  0  0  0  0  0  0
   36.1670   30.2590   43.7550 H   0  0  0  0  0  0  0  0  0  0  0  0
   37.6430   31.7860   43.9080 C   0  0  0  0  0  3  0  0  0  0  0  0
   38.4280   32.4840   44.8180 C   0  0  0  0  0  3  0  0  0  0  0  0
   35.1160   29.3740   50.4010 C   0  0  0  0  0  0  0  0  0  0  0  0
   35.1380   29.0750   51.7600 F   0  0  0  0  0  0  0  0  0  0  0  0
   33.9570   30.0940   50.1780 F   0  0  0  0  0  0  0  0  0  0  0  0
   34.9520   28.1640   49.7490 F   0  0  0  0  0  0  0  0  0  0  0  0
  1  6  1  0  0  0  0
  1  7  1  0  0  0  0
  2  1  2  0  0  0  0
  3  4  2  0  0  0  0
  3  2  1  0  0  0  0
  4  5  1  0  0  0  0
  5 18  1  0  0  0  0
  5  6  2  0  0  0  0
  8  2  1  0  0  0  0
 10 11  1  0  0  0  0
 10  9  1  0  0  0  0
 11  3  1  0  0  0  0
 12 13  1  0  0  0  0
 12 11  2  0  0  0  0
 14 12  1  0  0  0  0
 15 14  1  0  0  0  0
 16 14  2  0  0  0  0
 16 17  1  0  0  0  0
 17 10  2  0  0  0  0
 18 19  1  0  0  0  0
 20 18  1  0  0  0  0
 21 18  1  0  0  0  0
M  END
>  <minimizedAffinity>
-5.79124212

>  <minimizedRMSD>
0.492623329

$$$$
