
 OpenBabel03272507133D

 40 44  0  0  0  0  0  0  0  0999 V2000
   35.7970   29.1280   49.8540 C   0  0  0  0  0  0  0  0  0  0  0  0
   34.7600   29.6230   50.5630 C   0  0  0  0  0  0  0  0  0  0  0  0
   33.5980   29.0390   50.0500 C   0  0  0  0  0  0  0  0  0  0  0  0
   34.0220   28.1920   49.0190 C   0  0  0  0  0  0  0  0  0  0  0  0
   35.3190   28.2960   48.9620 O   0  0  0  0  0  0  0  0  0  0  0  0
   34.7850   30.3470   51.3920 H   0  0  0  0  0  0  0  0  0  0  0  0
   32.6220   29.2620   50.4390 H   0  0  0  0  0  0  0  0  0  0  0  0
   33.5140   26.4320   47.3390 C   0  0  0  0  0  0  0  0  0  0  0  0
   33.0940   27.3930   48.2270 C   0  0  0  0  0  0  0  0  0  0  0  0
   31.7610   27.6530   48.4230 C   0  0  0  0  0  0  0  0  0  0  0  0
   30.8230   26.9240   47.7020 C   0  0  0  0  0  0  0  0  0  0  0  0
   29.4890   26.9550   47.6840 N   0  0  0  0  0  0  0  0  0  0  0  0
   29.0770   26.0390   46.8060 N   0  0  0  0  0  0  0  0  0  0  0  0
   30.1570   25.4240   46.2680 C   0  0  0  0  0  0  0  0  0  0  0  0
   31.2970   25.9650   46.8170 C   0  0  0  0  0  0  0  0  0  0  0  0
   32.6320   25.6940   46.6110 C   0  0  0  0  0  0  0  0  0  0  0  0
   34.5800   26.2960   47.2500 H   0  0  0  0  0  0  0  0  0  0  0  0
   31.3400   28.4020   49.1130 H   0  0  0  0  0  0  0  0  0  0  0  0
   28.8550   27.5810   48.2490 H   0  0  0  0  0  0  0  0  0  0  0  0
   30.1770   24.6250   45.5170 H   0  0  0  0  0  0  0  0  0  0  0  0
   32.9630   24.9350   45.9090 H   0  0  0  0  0  0  0  0  0  0  0  0
   37.1730   29.5160   50.1120 C   0  0  0  0  0  0  0  0  0  0  0  0
   37.8340   28.8840   50.9810 O   0  0  0  0  0  0  0  0  0  0  0  0
   37.7130   30.6140   49.3530 C   0  0  0  0  0  0  0  0  0  0  0  0
   37.8070   31.8430   49.9830 C   0  0  0  0  0  0  0  0  0  0  0  0
   38.3250   32.9210   49.2710 C   0  0  0  0  0  0  0  0  0  0  0  0
   38.7110   32.7040   47.9910 N   0  0  0  0  0  0  0  0  0  0  0  0
   38.6130   31.5060   47.3950 C   0  0  0  0  0  0  0  0  0  0  0  0
   38.1160   30.4750   48.0780 N   0  0  0  0  0  0  0  0  0  0  0  0
   37.5100   32.0600   51.0010 H   0  0  0  0  0  0  0  0  0  0  0  0
   38.4240   33.9040   49.7030 H   0  0  0  0  0  0  0  0  0  0  0  0
   36.7990   31.1650   45.3820 F   0  0  0  0  0  0  0  0  0  0  0  0
   38.1090   31.1610   45.0140 C   0  0  0  0  0  0  0  0  0  0  0  0
   39.0460   31.3320   46.0120 C   0  0  0  0  0  0  0  0  0  0  0  0
   40.3840   31.3370   45.6810 C   0  0  0  0  0  0  0  0  0  0  0  0
   41.1600   31.4660   46.4210 H   0  0  0  0  0  0  0  0  0  0  0  0
   40.7750   31.1710   44.3680 C   0  0  0  0  0  0  0  0  0  0  0  0
   41.7800   31.1580   43.9980 H   0  0  0  0  0  0  0  0  0  0  0  0
   39.7870   31.0020   43.3950 C   0  0  0  0  0  3  0  0  0  0  0  0
   38.4190   30.9900   43.6740 C   0  0  0  0  0  3  0  0  0  0  0  0
  1 22  1  0  0  0  0
  1  2  2  0  0  0  0
  2  6  1  0  0  0  0
  3  7  1  0  0  0  0
  3  2  1  0  0  0  0
  4  3  2  0  0  0  0
  5  4  1  0  0  0  0
  5  1  1  0  0  0  0
  8  9  1  0  0  0  0
  9 10  2  0  0  0  0
  9  4  1  0  0  0  0
 10 18  1  0  0  0  0
 11 10  1  0  0  0  0
 12 11  1  0  0  0  0
 12 19  1  0  0  0  0
 13 12  1  0  0  0  0
 14 13  2  0  0  0  0
 14 15  1  0  0  0  0
 15 11  2  0  0  0  0
 16 15  1  0  0  0  0
 16  8  2  0  0  0  0
 17  8  1  0  0  0  0
 20 14  1  0  0  0  0
 21 16  1  0  0  0  0
 22 23  2  0  0  0  0
 24 25  1  0  0  0  0
 24 22  1  0  0  0  0
 25 30  1  0  0  0  0
 26 31  1  0  0  0  0
 26 25  2  0  0  0  0
 27 26  1  0  0  0  0
 28 27  2  0  0  0  0
 28 29  1  0  0  0  0
 29 24  2  0  0  0  0
 33 32  1  0  0  0  0
 33 34  1  0  0  0  0
 34 28  1  0  0  0  0
 35 34  2  0  0  0  0
 35 36  1  0  0  0  0
 37 35  1  0  0  0  0
 38 37  1  0  0  0  0
 39 40  1  0  0  0  0
 39 37  2  0  0  0  0
 40 33  2  0  0  0  0
M  END
>  <minimizedAffinity>
-7.29717588

>  <minimizedRMSD>
0.401283771

$$$$
