
 OpenBabel03272510013D

 21 22  0  0  0  0  0  0  0  0999 V2000
   37.3580   29.9880   51.6650 C   0  0  0  0  0  0  0  0  0  0  0  0
   38.1500   30.6450   50.6930 C   0  0  0  0  0  0  0  0  0  0  0  0
   37.6250   30.8000   49.4200 C   0  0  0  0  0  0  0  0  0  0  0  0
   36.3810   30.3040   49.2040 N   0  0  0  0  0  0  0  0  0  0  0  0
   35.6480   29.6870   50.1310 C   0  0  0  0  0  0  0  0  0  0  0  0
   36.1470   29.5360   51.3540 N   0  0  0  0  0  0  0  0  0  0  0  0
   37.7410   29.8530   52.6650 H   0  0  0  0  0  0  0  0  0  0  0  0
   39.1270   31.0170   50.9160 H   0  0  0  0  0  0  0  0  0  0  0  0
   38.5940   33.4320   49.6440 F   0  0  0  0  0  0  0  0  0  0  0  0
   38.7900   32.7350   48.4800 C   0  0  0  0  0  0  0  0  0  0  0  0
   38.3360   31.4560   48.3310 C   0  0  0  0  0  0  0  0  0  0  0  0
   38.5930   30.8600   47.1150 C   0  0  0  0  0  0  0  0  0  0  0  0
   38.2610   29.8490   46.9310 H   0  0  0  0  0  0  0  0  0  0  0  0
   39.2630   31.4700   46.0830 C   0  0  0  0  0  0  0  0  0  0  0  0
   39.4370   30.9530   45.1510 H   0  0  0  0  0  0  0  0  0  0  0  0
   39.7200   32.7620   46.2370 C   0  0  0  0  0  3  0  0  0  0  0  0
   39.4660   33.3750   47.4600 C   0  0  0  0  0  3  0  0  0  0  0  0
   34.3130   29.1900   49.7430 C   0  0  0  0  0  0  0  0  0  0  0  0
   33.3290   29.5300   50.6660 F   0  0  0  0  0  0  0  0  0  0  0  0
   33.9070   29.7120   48.5290 F   0  0  0  0  0  0  0  0  0  0  0  0
   34.2530   27.8140   49.6130 F   0  0  0  0  0  0  0  0  0  0  0  0
  1  7  1  0  0  0  0
  2  8  1  0  0  0  0
  2  1  2  0  0  0  0
  3  2  1  0  0  0  0
  4  3  2  0  0  0  0
  4  5  1  0  0  0  0
  5  6  2  0  0  0  0
  6  1  1  0  0  0  0
 10  9  1  0  0  0  0
 11 10  1  0  0  0  0
 11  3  1  0  0  0  0
 12 11  2  0  0  0  0
 13 12  1  0  0  0  0
 14 16  2  0  0  0  0
 14 12  1  0  0  0  0
 15 14  1  0  0  0  0
 16 17  1  0  0  0  0
 17 10  2  0  0  0  0
 18  5  1  0  0  0  0
 18 19  1  0  0  0  0
 20 18  1  0  0  0  0
 21 18  1  0  0  0  0
M  END
>  <minimizedAffinity>
-6.34674263

>  <minimizedRMSD>
2.34627414

$$$$
