
 OpenBabel03272502393D

 40 43  0  0  1  0  0  0  0  0999 V2000
   32.4770   27.9730   48.6890 N   0  0  0  0  0  0  0  0  0  0  0  0
   33.3180   27.4150   47.6480 C   0  0  0  0  0  0  0  0  0  0  0  0
   34.6160   28.1480   47.8280 C   0  0  0  0  0  0  0  0  0  0  0  0
   34.2960   29.2770   48.9110 C   0  0  1  0  0  0  0  0  0  0  0  0
   33.3430   28.5390   49.7440 C   0  0  0  0  0  0  0  0  0  0  0  0
   33.4220   26.3320   47.6900 H   0  0  0  0  0  0  0  0  0  0  0  0
   32.8960   27.7460   46.6610 H   0  0  0  0  0  0  0  0  0  0  0  0
   35.3250   27.4920   48.3780 H   0  0  0  0  0  0  0  0  0  0  0  0
   35.0320   28.6060   46.9360 H   0  0  0  0  0  0  0  0  0  0  0  0
   33.9100   30.0230   48.2110 H   0  0  0  0  0  0  0  0  0  0  0  0
   32.7390   29.1380   50.4370 H   0  0  0  0  0  0  0  0  0  0  0  0
   33.8550   27.6870   50.2370 H   0  0  0  0  0  0  0  0  0  0  0  0
   36.0520   31.1590   47.7110 F   0  0  0  0  0  0  0  0  0  0  0  0
   36.3040   30.6130   48.9210 C   0  0  0  0  0  0  0  0  0  0  0  0
   35.5590   29.6520   49.5560 C   0  0  0  0  0  0  0  0  0  0  0  0
   36.0010   29.1810   50.8090 C   0  0  0  0  0  0  0  0  0  0  0  0
   37.1540   29.6680   51.3950 C   0  0  0  0  0  0  0  0  0  0  0  0
   37.8930   30.6450   50.7290 C   0  0  0  0  0  0  0  0  0  0  0  0
   37.4540   31.1130   49.4820 C   0  0  0  0  0  0  0  0  0  0  0  0
   35.3340   28.4280   51.2060 H   0  0  0  0  0  0  0  0  0  0  0  0
   37.4030   29.2420   52.3560 H   0  0  0  0  0  0  0  0  0  0  0  0
   38.7890   31.0050   51.2140 H   0  0  0  0  0  0  0  0  0  0  0  0
   38.6730   30.5250   47.0990 F   0  0  0  0  0  0  0  0  0  0  0  0
   38.8660   31.7350   47.6770 C   0  0  0  0  0  0  0  0  0  0  0  0
   38.3000   32.1330   48.8740 C   0  0  0  0  0  0  0  0  0  0  0  0
   38.5410   33.3880   49.4040 C   0  0  0  0  0  0  0  0  0  0  0  0
   38.0570   33.5950   50.3310 H   0  0  0  0  0  0  0  0  0  0  0  0
   39.3710   34.2460   48.7040 C   0  0  0  0  0  0  0  0  0  0  0  0
   39.5260   35.2050   49.1570 H   0  0  0  0  0  0  0  0  0  0  0  0
   39.9330   33.8430   47.5090 C   0  0  0  0  0  0  0  0  0  0  0  0
   39.7050   32.5860   46.9570 C   0  0  0  0  0  0  0  0  0  0  0  0
   31.0630   27.9990   48.7240 C   0  0  0  0  0  0  0  0  0  0  0  0
   30.4220   28.1160   47.4810 C   0  0  0  0  0  0  0  0  0  0  0  0
   29.0220   28.1620   47.4560 C   0  0  0  0  0  0  0  0  0  0  0  0
   28.3720   28.0840   48.6750 N   0  0  0  0  0  0  0  0  0  0  0  0
   29.0200   27.9720   49.8340 C   0  0  0  0  0  0  0  0  0  0  0  0
   30.3800   27.9280   49.8720 N   0  0  0  0  0  0  0  0  0  0  0  0
   30.9770   28.1710   46.5760 H   0  0  0  0  0  0  0  0  0  0  0  0
   28.5320   28.2510   46.5160 H   0  0  0  0  0  0  0  0  0  0  0  0
   28.4130   27.9200   50.7180 H   0  0  0  0  0  0  0  0  0  0  0  0
  1 32  1  0  0  0  0
  1  5  1  0  0  0  0
  2  6  1  0  0  0  0
  2  3  1  0  0  0  0
  2  1  1  0  0  0  0
  3  8  1  0  0  0  0
  3  4  1  0  0  0  0
  4 10  1  6  0  0  0
  4 15  1  0  0  0  0
  4  5  1  0  0  0  0
  5 12  1  0  0  0  0
  5 11  1  0  0  0  0
  7  2  1  0  0  0  0
  9  3  1  0  0  0  0
 13 14  1  0  0  0  0
 14 19  2  0  0  0  0
 14 15  1  0  0  0  0
 15 16  2  0  0  0  0
 16 20  1  0  0  0  0
 16 17  1  0  0  0  0
 17 21  1  0  0  0  0
 18 22  1  0  0  0  0
 18 17  2  0  0  0  0
 19 18  1  0  0  0  0
 23 24  1  0  0  0  0
 24 25  1  0  0  0  0
 25 26  2  0  0  0  0
 25 19  1  0  0  0  0
 26 27  1  0  0  0  0
 28 29  1  0  0  0  0
 28 26  1  0  0  0  0
 30 28  2  0  0  0  0
 31 30  1  0  0  0  0
 31 24  2  0  0  0  0
 32 37  1  0  0  0  0
 33 32  2  0  0  0  0
 34 33  1  0  0  0  0
 34 35  2  0  0  0  0
 35 36  1  0  0  0  0
 36 37  2  0  0  0  0
 36 40  1  0  0  0  0
 38 33  1  0  0  0  0
 39 34  1  0  0  0  0
M  END
>  <minimizedAffinity>
-7.68848467

>  <minimizedRMSD>
2.94139791

$$$$
