
 OpenBabel03272510023D

 21 22  0  0  0  0  0  0  0  0999 V2000
   38.6700   32.9300   49.2300 C   0  0  0  0  0  0  0  0  0  0  0  0
   38.7060   32.5590   47.8650 C   0  0  0  0  0  0  0  0  0  0  0  0
   38.2330   31.3030   47.5180 C   0  0  0  0  0  0  0  0  0  0  0  0
   37.7700   30.5210   48.5250 N   0  0  0  0  0  0  0  0  0  0  0  0
   37.7430   30.8870   49.8070 C   0  0  0  0  0  0  0  0  0  0  0  0
   38.1950   32.0910   50.1450 N   0  0  0  0  0  0  0  0  0  0  0  0
   39.0300   33.9030   49.5300 H   0  0  0  0  0  0  0  0  0  0  0  0
   39.0820   33.2150   47.1100 H   0  0  0  0  0  0  0  0  0  0  0  0
   40.6000   30.7690   46.0930 F   0  0  0  0  0  0  0  0  0  0  0  0
   39.3860   30.5540   45.4950 C   0  0  0  0  0  0  0  0  0  0  0  0
   38.2150   30.8000   46.1510 C   0  0  0  0  0  0  0  0  0  0  0  0
   37.0600   30.5450   45.4450 C   0  0  0  0  0  0  0  0  0  0  0  0
   36.0980   30.7180   45.9050 H   0  0  0  0  0  0  0  0  0  0  0  0
   37.0320   30.0720   44.1560 C   0  0  0  0  0  0  0  0  0  0  0  0
   36.0940   29.8890   43.6510 H   0  0  0  0  0  0  0  0  0  0  0  0
   38.2170   29.8230   43.4960 C   0  0  0  0  0  3  0  0  0  0  0  0
   39.3900   30.0760   44.1980 C   0  0  0  0  0  3  0  0  0  0  0  0
   37.2190   29.9220   50.7930 C   0  0  0  0  0  0  0  0  0  0  0  0
   37.6160   30.2180   52.0930 F   0  0  0  0  0  0  0  0  0  0  0  0
   35.8360   29.9010   50.8020 F   0  0  0  0  0  0  0  0  0  0  0  0
   37.6240   28.6200   50.5590 F   0  0  0  0  0  0  0  0  0  0  0  0
  1  7  1  0  0  0  0
  1  6  1  0  0  0  0
  2  1  2  0  0  0  0
  3  2  1  0  0  0  0
  3  4  2  0  0  0  0
  4  5  1  0  0  0  0
  5  6  2  0  0  0  0
  5 18  1  0  0  0  0
  8  2  1  0  0  0  0
 10  9  1  0  0  0  0
 10 11  1  0  0  0  0
 11  3  1  0  0  0  0
 12 13  1  0  0  0  0
 12 11  2  0  0  0  0
 14 12  1  0  0  0  0
 15 14  1  0  0  0  0
 16 14  2  0  0  0  0
 16 17  1  0  0  0  0
 17 10  2  0  0  0  0
 18 20  1  0  0  0  0
 18 19  1  0  0  0  0
 21 18  1  0  0  0  0
M  END
>  <minimizedAffinity>
-5.85245419

>  <minimizedRMSD>
1.99797606

$$$$
