
 OpenBabel03272508343D

 31 33  0  0  0  0  0  0  0  0999 V2000
   37.7030   31.0660   48.0710 C   0  0  0  0  0  0  0  0  0  0  0  0
   37.0540   30.8710   46.8740 C   0  0  0  0  0  0  0  0  0  0  0  0
   37.7550   31.5230   45.8670 C   0  0  0  0  0  0  0  0  0  0  0  0
   38.8070   32.0950   46.4910 N   0  0  0  0  0  0  0  0  0  0  0  0
   38.7670   31.8190   47.7930 N   0  0  0  0  0  0  0  0  0  0  0  0
   36.1430   30.3090   46.6780 H   0  0  0  0  0  0  0  0  0  0  0  0
   37.4710   31.5380   44.8210 H   0  0  0  0  0  0  0  0  0  0  0  0
   37.3540   30.0750   51.6870 C   0  0  0  0  0  0  0  0  0  0  0  0
   37.8790   30.6360   50.5310 C   0  0  0  0  0  0  0  0  0  0  0  0
   37.2120   30.5070   49.3050 C   0  0  0  0  0  0  0  0  0  0  0  0
   36.0490   29.8110   49.3360 N   0  0  0  0  0  0  0  0  0  0  0  0
   35.5610   29.2760   50.4770 C   0  0  0  0  0  0  0  0  0  0  0  0
   36.1980   29.4020   51.6370 N   0  0  0  0  0  0  0  0  0  0  0  0
   37.8860   30.1930   52.6080 H   0  0  0  0  0  0  0  0  0  0  0  0
   38.8150   31.1960   50.5030 H   0  0  0  0  0  0  0  0  0  0  0  0
   34.6090   28.7430   50.3410 H   0  0  0  0  0  0  0  0  0  0  0  0
   39.8100   32.8870   45.7970 C   0  0  0  0  0  0  0  0  0  0  0  0
   39.2190   33.4330   45.0040 H   0  0  0  0  0  0  0  0  0  0  0  0
   40.3700   33.5720   46.4330 H   0  0  0  0  0  0  0  0  0  0  0  0
   40.7200   31.9610   44.9960 C   0  0  0  0  0  0  0  0  0  0  0  0
   40.7080   30.9390   45.3750 H   0  0  0  0  0  0  0  0  0  0  0  0
   41.7440   32.3710   44.9840 H   0  0  0  0  0  0  0  0  0  0  0  0
   41.1800   29.9400   43.0230 F   0  0  0  0  0  0  0  0  0  0  0  0
   40.4340   31.0230   42.6440 C   0  0  0  0  0  0  0  0  0  0  0  0
   40.2120   31.9990   43.5940 C   0  0  0  0  0  0  0  0  0  0  0  0
   39.4420   33.0770   43.1460 C   0  0  0  0  0  0  0  0  0  0  0  0
   39.2570   33.8610   43.8980 H   0  0  0  0  0  0  0  0  0  0  0  0
   38.9110   33.2410   41.8920 C   0  0  0  0  0  0  0  0  0  0  0  0
   38.3300   34.1460   41.7010 H   0  0  0  0  0  0  0  0  0  0  0  0
   39.1660   32.2310   40.9770 C   0  0  0  0  0  0  0  0  0  0  0  0
   39.9290   31.1290   41.3700 C   0  0  0  0  0  0  0  0  0  0  0  0
  1 10  1  0  0  0  0
  2  1  1  0  0  0  0
  3  4  1  0  0  0  0
  3  2  2  0  0  0  0
  4  5  1  0  0  0  0
  5  1  2  0  0  0  0
  6  2  1  0  0  0  0
  7  3  1  0  0  0  0
  8 14  1  0  0  0  0
  9  8  2  0  0  0  0
 10 11  2  0  0  0  0
 10  9  1  0  0  0  0
 11 12  1  0  0  0  0
 12 13  2  0  0  0  0
 13  8  1  0  0  0  0
 15  9  1  0  0  0  0
 16 12  1  0  0  0  0
 17 19  1  0  0  0  0
 17  4  1  0  0  0  0
 18 17  1  0  0  0  0
 20 21  1  0  0  0  0
 20 17  1  0  0  0  0
 22 20  1  0  0  0  0
 24 23  1  0  0  0  0
 24 25  1  0  0  0  0
 25 20  1  0  0  0  0
 26 25  2  0  0  0  0
 26 27  1  0  0  0  0
 28 26  1  0  0  0  0
 29 28  1  0  0  0  0
 30 31  1  0  0  0  0
 30 28  2  0  0  0  0
 31 24  2  0  0  0  0
M  END
>  <minimizedAffinity>
-5.74429035

>  <minimizedRMSD>
2.82116365

$$$$
