
 OpenBabel03272510013D

 21 22  0  0  0  0  0  0  0  0999 V2000
   38.6390   32.8970   49.2290 C   0  0  0  0  0  0  0  0  0  0  0  0
   38.6330   32.5260   47.8630 C   0  0  0  0  0  0  0  0  0  0  0  0
   38.1500   31.2700   47.5300 C   0  0  0  0  0  0  0  0  0  0  0  0
   37.7180   30.4870   48.5510 N   0  0  0  0  0  0  0  0  0  0  0  0
   37.7310   30.8530   49.8330 C   0  0  0  0  0  0  0  0  0  0  0  0
   38.1930   32.0570   50.1580 N   0  0  0  0  0  0  0  0  0  0  0  0
   39.0080   33.8690   49.5170 H   0  0  0  0  0  0  0  0  0  0  0  0
   38.9860   33.1810   47.0960 H   0  0  0  0  0  0  0  0  0  0  0  0
   40.4720   30.6810   46.0530 F   0  0  0  0  0  0  0  0  0  0  0  0
   39.2410   30.4940   45.4830 C   0  0  0  0  0  0  0  0  0  0  0  0
   38.0900   30.7660   46.1650 C   0  0  0  0  0  0  0  0  0  0  0  0
   36.9130   30.5370   45.4840 C   0  0  0  0  0  0  0  0  0  0  0  0
   35.9660   30.7320   45.9660 H   0  0  0  0  0  0  0  0  0  0  0  0
   36.8470   30.0640   44.1980 C   0  0  0  0  0  0  0  0  0  0  0  0
   35.8940   29.9030   43.7140 H   0  0  0  0  0  0  0  0  0  0  0  0
   38.0100   29.7890   43.5110 C   0  0  0  0  0  3  0  0  0  0  0  0
   39.2040   30.0160   44.1860 C   0  0  0  0  0  3  0  0  0  0  0  0
   37.2370   29.8880   50.8350 C   0  0  0  0  0  0  0  0  0  0  0  0
   37.6560   30.1970   52.1260 F   0  0  0  0  0  0  0  0  0  0  0  0
   35.8550   29.8500   50.8710 F   0  0  0  0  0  0  0  0  0  0  0  0
   37.6550   28.5890   50.6010 F   0  0  0  0  0  0  0  0  0  0  0  0
  1  7  1  0  0  0  0
  1  6  1  0  0  0  0
  2  1  2  0  0  0  0
  3  2  1  0  0  0  0
  3  4  2  0  0  0  0
  4  5  1  0  0  0  0
  5  6  2  0  0  0  0
  5 18  1  0  0  0  0
  8  2  1  0  0  0  0
 10  9  1  0  0  0  0
 10 11  1  0  0  0  0
 11  3  1  0  0  0  0
 12 13  1  0  0  0  0
 12 11  2  0  0  0  0
 14 12  1  0  0  0  0
 15 14  1  0  0  0  0
 16 17  1  0  0  0  0
 16 14  2  0  0  0  0
 17 10  2  0  0  0  0
 18 20  1  0  0  0  0
 18 19  1  0  0  0  0
 21 18  1  0  0  0  0
M  END
>  <minimizedAffinity>
-5.85324955

>  <minimizedRMSD>
1.9637233

$$$$
