
 OpenBabel03272510013D

 21 22  0  0  0  0  0  0  0  0999 V2000
   38.1220   31.5180   50.1380 C   0  0  0  0  0  0  0  0  0  0  0  0
   38.7410   31.9870   48.9540 C   0  0  0  0  0  0  0  0  0  0  0  0
   38.0640   31.8230   47.7560 C   0  0  0  0  0  0  0  0  0  0  0  0
   36.8500   31.2210   47.8130 N   0  0  0  0  0  0  0  0  0  0  0  0
   36.2810   30.7850   48.9370 C   0  0  0  0  0  0  0  0  0  0  0  0
   36.9250   30.9400   50.0900 N   0  0  0  0  0  0  0  0  0  0  0  0
   38.6250   31.6330   51.0860 H   0  0  0  0  0  0  0  0  0  0  0  0
   39.7010   32.4550   48.9640 H   0  0  0  0  0  0  0  0  0  0  0  0
   36.7270   31.2880   45.3370 F   0  0  0  0  0  0  0  0  0  0  0  0
   37.9100   31.9790   45.3190 C   0  0  0  0  0  0  0  0  0  0  0  0
   38.5890   32.2590   46.4690 C   0  0  0  0  0  0  0  0  0  0  0  0
   39.7670   32.9600   46.3220 C   0  0  0  0  0  0  0  0  0  0  0  0
   40.3540   33.2150   47.1920 H   0  0  0  0  0  0  0  0  0  0  0  0
   40.2720   33.3760   45.1140 C   0  0  0  0  0  0  0  0  0  0  0  0
   41.2010   33.9240   45.0590 H   0  0  0  0  0  0  0  0  0  0  0  0
   39.5820   33.0920   43.9540 C   0  0  0  0  0  3  0  0  0  0  0  0
   38.3930   32.3850   44.0890 C   0  0  0  0  0  3  0  0  0  0  0  0
   34.9580   30.1390   48.8400 C   0  0  0  0  0  0  0  0  0  0  0  0
   34.1770   30.3480   49.9730 F   0  0  0  0  0  0  0  0  0  0  0  0
   34.2290   30.6240   47.7680 F   0  0  0  0  0  0  0  0  0  0  0  0
   35.0250   28.7670   48.6730 F   0  0  0  0  0  0  0  0  0  0  0  0
  1  7  1  0  0  0  0
  2  8  1  0  0  0  0
  2  1  2  0  0  0  0
  3  4  2  0  0  0  0
  3  2  1  0  0  0  0
  4  5  1  0  0  0  0
  5  6  2  0  0  0  0
  6  1  1  0  0  0  0
 10  9  1  0  0  0  0
 10 11  1  0  0  0  0
 11  3  1  0  0  0  0
 12 11  2  0  0  0  0
 12 13  1  0  0  0  0
 14 12  1  0  0  0  0
 15 14  1  0  0  0  0
 16 17  1  0  0  0  0
 16 14  2  0  0  0  0
 17 10  2  0  0  0  0
 18  5  1  0  0  0  0
 18 19  1  0  0  0  0
 20 18  1  0  0  0  0
 21 18  1  0  0  0  0
M  END
>  <minimizedAffinity>
-5.75455284

>  <minimizedRMSD>
1.97640634

$$$$
