
 OpenBabel03272510013D

 21 22  0  0  0  0  0  0  0  0999 V2000
   38.3200   31.1840   50.3420 C   0  0  0  0  0  0  0  0  0  0  0  0
   38.4460   31.4820   48.9640 C   0  0  0  0  0  0  0  0  0  0  0  0
   37.4370   31.0640   48.1110 C   0  0  0  0  0  0  0  0  0  0  0  0
   36.3980   30.3940   48.6700 N   0  0  0  0  0  0  0  0  0  0  0  0
   36.2960   30.1210   49.9720 C   0  0  0  0  0  0  0  0  0  0  0  0
   37.2600   30.5210   50.7940 N   0  0  0  0  0  0  0  0  0  0  0  0
   39.0910   31.4980   51.0300 H   0  0  0  0  0  0  0  0  0  0  0  0
   39.2870   32.0140   48.5740 H   0  0  0  0  0  0  0  0  0  0  0  0
   35.6870   29.7250   46.3610 F   0  0  0  0  0  0  0  0  0  0  0  0
   36.5800   30.6350   45.8600 C   0  0  0  0  0  0  0  0  0  0  0  0
   37.4450   31.3060   46.6750 C   0  0  0  0  0  0  0  0  0  0  0  0
   38.2940   32.1970   46.0540 C   0  0  0  0  0  0  0  0  0  0  0  0
   39.0060   32.7610   46.6410 H   0  0  0  0  0  0  0  0  0  0  0  0
   38.3110   32.4330   44.7010 C   0  0  0  0  0  0  0  0  0  0  0  0
   39.0000   33.1430   44.2700 H   0  0  0  0  0  0  0  0  0  0  0  0
   37.4350   31.7530   43.8810 C   0  0  0  0  0  3  0  0  0  0  0  0
   36.5730   30.8520   44.4940 C   0  0  0  0  0  3  0  0  0  0  0  0
   35.1090   29.3730   50.4310 C   0  0  0  0  0  0  0  0  0  0  0  0
   35.1580   29.0800   51.7910 F   0  0  0  0  0  0  0  0  0  0  0  0
   33.9430   30.0890   50.2280 F   0  0  0  0  0  0  0  0  0  0  0  0
   34.9370   28.1610   49.7870 F   0  0  0  0  0  0  0  0  0  0  0  0
  1  6  1  0  0  0  0
  1  7  1  0  0  0  0
  2  1  2  0  0  0  0
  3  4  2  0  0  0  0
  3  2  1  0  0  0  0
  4  5  1  0  0  0  0
  5 18  1  0  0  0  0
  5  6  2  0  0  0  0
  8  2  1  0  0  0  0
 10  9  1  0  0  0  0
 10 11  1  0  0  0  0
 11  3  1  0  0  0  0
 12 13  1  0  0  0  0
 12 11  2  0  0  0  0
 14 12  1  0  0  0  0
 15 14  1  0  0  0  0
 16 17  1  0  0  0  0
 16 14  2  0  0  0  0
 17 10  2  0  0  0  0
 18 19  1  0  0  0  0
 20 18  1  0  0  0  0
 21 18  1  0  0  0  0
M  END
>  <minimizedAffinity>
-5.57393169

>  <minimizedRMSD>
0.534794271

$$$$
