
 OpenBabel03272508353D

 31 33  0  0  0  0  0  0  0  0999 V2000
   36.1870   23.5240   31.2570 C   0  0  0  0  0  0  0  0  0  0  0  0
   35.1170   24.3850   31.1800 C   0  0  0  0  0  0  0  0  0  0  0  0
   35.5910   25.6860   31.0630 C   0  0  0  0  0  0  0  0  0  0  0  0
   36.9360   25.5690   31.0750 N   0  0  0  0  0  0  0  0  0  0  0  0
   37.2780   24.2870   31.1900 N   0  0  0  0  0  0  0  0  0  0  0  0
   34.0540   24.1520   31.2000 H   0  0  0  0  0  0  0  0  0  0  0  0
   34.9670   26.5690   30.9840 H   0  0  0  0  0  0  0  0  0  0  0  0
   34.9080   20.1300   32.2670 C   0  0  0  0  0  0  0  0  0  0  0  0
   35.0260   21.5100   32.1870 C   0  0  0  0  0  0  0  0  0  0  0  0
   36.0130   22.0990   31.3850 C   0  0  0  0  0  0  0  0  0  0  0  0
   36.8190   21.2400   30.7140 N   0  0  0  0  0  0  0  0  0  0  0  0
   36.6810   19.9000   30.8120 C   0  0  0  0  0  0  0  0  0  0  0  0
   35.7430   19.3460   31.5740 N   0  0  0  0  0  0  0  0  0  0  0  0
   34.1430   19.7100   32.8870 H   0  0  0  0  0  0  0  0  0  0  0  0
   34.3780   22.2040   32.7250 H   0  0  0  0  0  0  0  0  0  0  0  0
   37.4080   19.3370   30.2080 H   0  0  0  0  0  0  0  0  0  0  0  0
   37.8350   26.7070   30.9740 C   0  0  0  0  0  0  0  0  0  0  0  0
   38.7850   26.3430   31.4640 H   0  0  0  0  0  0  0  0  0  0  0  0
   38.0090   27.0610   29.9580 H   0  0  0  0  0  0  0  0  0  0  0  0
   37.3520   27.8170   31.9020 C   0  0  0  0  0  0  0  0  0  0  0  0
   36.2650   27.8470   31.9810 H   0  0  0  0  0  0  0  0  0  0  0  0
   37.7560   28.7850   31.5610 H   0  0  0  0  0  0  0  0  0  0  0  0
   36.0050   28.0700   34.4150 F   0  0  0  0  0  0  0  0  0  0  0  0
   37.3070   27.6510   34.4450 C   0  0  0  0  0  0  0  0  0  0  0  0
   37.9580   27.5290   33.2340 C   0  0  0  0  0  0  0  0  0  0  0  0
   39.2850   27.0960   33.3330 C   0  0  0  0  0  0  0  0  0  0  0  0
   39.8140   26.9930   32.3710 H   0  0  0  0  0  0  0  0  0  0  0  0
   39.9660   26.7940   34.4850 C   0  0  0  0  0  0  0  0  0  0  0  0
   41.0050   26.4680   34.3900 H   0  0  0  0  0  0  0  0  0  0  0  0
   39.2640   26.9350   35.6720 C   0  0  0  0  0  3  0  0  0  0  0  0
   37.9360   27.3640   35.6340 C   0  0  0  0  0  3  0  0  0  0  0  0
  1 10  1  0  0  0  0
  2  6  1  0  0  0  0
  2  1  1  0  0  0  0
  3  4  1  0  0  0  0
  3  2  2  0  0  0  0
  4  5  1  0  0  0  0
  5  1  2  0  0  0  0
  7  3  1  0  0  0  0
  8 14  1  0  0  0  0
  9  8  1  0  0  0  0
  9 15  1  0  0  0  0
 10  9  2  0  0  0  0
 11 12  2  0  0  0  0
 11 10  1  0  0  0  0
 12 13  1  0  0  0  0
 13  8  2  0  0  0  0
 16 12  1  0  0  0  0
 17  4  1  0  0  0  0
 17 18  1  0  0  0  0
 17 20  1  0  0  0  0
 19 17  1  0  0  0  0
 20 21  1  0  0  0  0
 20 25  1  0  0  0  0
 22 20  1  0  0  0  0
 23 24  1  0  0  0  0
 24 31  1  0  0  0  0
 25 26  1  0  0  0  0
 25 24  2  0  0  0  0
 26 28  2  0  0  0  0
 27 26  1  0  0  0  0
 28 30  1  0  0  0  0
 29 28  1  0  0  0  0
 31 30  2  0  0  0  0
M  END
>  <minimizedAffinity>
-5.36096144

$$$$

 OpenBabel03272508353D

 31 33  0  0  0  0  0  0  0  0999 V2000
   38.2420   23.7950   34.6070 C   0  0  0  0  0  0  0  0  0  0  0  0
   38.6240   24.9050   33.8910 C   0  0  0  0  0  0  0  0  0  0  0  0
   38.2700   24.7300   32.5590 C   0  0  0  0  0  0  0  0  0  0  0  0
   37.6850   23.5150   32.5120 N   0  0  0  0  0  0  0  0  0  0  0  0
   37.6730   22.9690   33.7270 N   0  0  0  0  0  0  0  0  0  0  0  0
   39.1220   25.8050   34.2470 H   0  0  0  0  0  0  0  0  0  0  0  0
   38.4510   25.4500   31.7680 H   0  0  0  0  0  0  0  0  0  0  0  0
   37.9320   24.1260   38.3440 C   0  0  0  0  0  0  0  0  0  0  0  0
   37.6540   24.2730   36.9930 C   0  0  0  0  0  0  0  0  0  0  0  0
   38.4760   23.6810   36.0240 C   0  0  0  0  0  0  0  0  0  0  0  0
   39.5320   22.9760   36.4970 N   0  0  0  0  0  0  0  0  0  0  0  0
   39.7790   22.8500   37.8190 C   0  0  0  0  0  0  0  0  0  0  0  0
   38.9950   23.4130   38.7340 N   0  0  0  0  0  0  0  0  0  0  0  0
   37.2830   24.5880   39.0600 H   0  0  0  0  0  0  0  0  0  0  0  0
   36.8040   24.8400   36.6090 H   0  0  0  0  0  0  0  0  0  0  0  0
   40.6710   22.2480   38.0460 H   0  0  0  0  0  0  0  0  0  0  0  0
   37.1600   22.9310   31.2890 C   0  0  0  0  0  0  0  0  0  0  0  0
   37.0240   23.8180   30.6040 H   0  0  0  0  0  0  0  0  0  0  0  0
   37.7930   22.1640   30.8420 H   0  0  0  0  0  0  0  0  0  0  0  0
   35.7360   22.4400   31.5320 C   0  0  0  0  0  0  0  0  0  0  0  0
   35.0610   22.7130   30.7220 H   0  0  0  0  0  0  0  0  0  0  0  0
   35.3750   22.8230   32.5010 H   0  0  0  0  0  0  0  0  0  0  0  0
   35.0330   20.9260   33.8560 F   0  0  0  0  0  0  0  0  0  0  0  0
   35.4890   20.2270   32.7710 C   0  0  0  0  0  0  0  0  0  0  0  0
   35.8290   20.9560   31.6500 C   0  0  0  0  0  0  0  0  0  0  0  0
   36.2850   20.1850   30.5760 C   0  0  0  0  0  0  0  0  0  0  0  0
   36.5570   20.7570   29.6740 H   0  0  0  0  0  0  0  0  0  0  0  0
   36.4180   18.8200   30.5440 C   0  0  0  0  0  0  0  0  0  0  0  0
   36.7920   18.3670   29.6230 H   0  0  0  0  0  0  0  0  0  0  0  0
   36.0640   18.1380   31.6990 C   0  0  0  0  0  3  0  0  0  0  0  0
   35.6000   18.8570   32.8020 C   0  0  0  0  0  3  0  0  0  0  0  0
  1 10  1  0  0  0  0
  2  6  1  0  0  0  0
  2  1  1  0  0  0  0
  3  2  2  0  0  0  0
  4  3  1  0  0  0  0
  4  5  1  0  0  0  0
  5  1  2  0  0  0  0
  7  3  1  0  0  0  0
  8 13  1  0  0  0  0
  8 14  1  0  0  0  0
  9  8  2  0  0  0  0
 10 11  2  0  0  0  0
 10  9  1  0  0  0  0
 11 12  1  0  0  0  0
 12 16  1  0  0  0  0
 12 13  2  0  0  0  0
 15  9  1  0  0  0  0
 17 20  1  0  0  0  0
 17  4  1  0  0  0  0
 18 17  1  0  0  0  0
 19 17  1  0  0  0  0
 20 25  1  0  0  0  0
 20 22  1  0  0  0  0
 21 20  1  0  0  0  0
 24 31  1  0  0  0  0
 24 23  1  0  0  0  0
 25 24  2  0  0  0  0
 26 25  1  0  0  0  0
 27 26  1  0  0  0  0
 28 26  2  0  0  0  0
 28 30  1  0  0  0  0
 29 28  1  0  0  0  0
 30 31  2  0  0  0  0
M  END
>  <minimizedAffinity>
-5.29385281

$$$$

 OpenBabel03272508353D

 31 33  0  0  0  0  0  0  0  0999 V2000
   36.5990   26.2950   31.8910 C   0  0  0  0  0  0  0  0  0  0  0  0
   36.0700   25.2200   31.2150 C   0  0  0  0  0  0  0  0  0  0  0  0
   36.5410   24.0470   31.7920 C   0  0  0  0  0  0  0  0  0  0  0  0
   37.3440   24.4520   32.7990 N   0  0  0  0  0  0  0  0  0  0  0  0
   37.3710   25.7830   32.8490 N   0  0  0  0  0  0  0  0  0  0  0  0
   35.3890   25.2180   30.3660 H   0  0  0  0  0  0  0  0  0  0  0  0
   36.2860   23.0460   31.4610 H   0  0  0  0  0  0  0  0  0  0  0  0
   35.1270   29.7600   31.8170 C   0  0  0  0  0  0  0  0  0  0  0  0
   35.3790   28.4570   32.2210 C   0  0  0  0  0  0  0  0  0  0  0  0
   36.2920   27.6540   31.5230 C   0  0  0  0  0  0  0  0  0  0  0  0
   36.8900   28.2340   30.4530 N   0  0  0  0  0  0  0  0  0  0  0  0
   36.6250   29.5060   30.0830 C   0  0  0  0  0  0  0  0  0  0  0  0
   35.7590   30.2630   30.7490 N   0  0  0  0  0  0  0  0  0  0  0  0
   34.4260   30.3480   32.3730 H   0  0  0  0  0  0  0  0  0  0  0  0
   34.8990   27.9870   33.0810 H   0  0  0  0  0  0  0  0  0  0  0  0
   37.1900   29.8340   29.1980 H   0  0  0  0  0  0  0  0  0  0  0  0
   38.0520   23.5310   33.6720 C   0  0  0  0  0  0  0  0  0  0  0  0
   37.3180   23.3350   34.5080 H   0  0  0  0  0  0  0  0  0  0  0  0
   38.3800   22.6090   33.1930 H   0  0  0  0  0  0  0  0  0  0  0  0
   39.1970   24.2670   34.3620 C   0  0  0  0  0  0  0  0  0  0  0  0
   39.1800   25.3380   34.1620 H   0  0  0  0  0  0  0  0  0  0  0  0
   40.1590   23.8180   34.0600 H   0  0  0  0  0  0  0  0  0  0  0  0
   37.2610   25.5360   36.0430 F   0  0  0  0  0  0  0  0  0  0  0  0
   38.0940   24.6240   36.6310 C   0  0  0  0  0  0  0  0  0  0  0  0
   39.0280   24.0110   35.8210 C   0  0  0  0  0  0  0  0  0  0  0  0
   39.8470   23.0880   36.4800 C   0  0  0  0  0  0  0  0  0  0  0  0
   40.5960   22.5910   35.8420 H   0  0  0  0  0  0  0  0  0  0  0  0
   39.8010   22.7530   37.8100 C   0  0  0  0  0  0  0  0  0  0  0  0
   40.5150   22.0090   38.1720 H   0  0  0  0  0  0  0  0  0  0  0  0
   38.8430   23.4000   38.5770 C   0  0  0  0  0  3  0  0  0  0  0  0
   37.9980   24.3310   37.9710 C   0  0  0  0  0  3  0  0  0  0  0  0
  1  5  2  0  0  0  0
  2  3  2  0  0  0  0
  2  1  1  0  0  0  0
  3  4  1  0  0  0  0
  4  5  1  0  0  0  0
  4 17  1  0  0  0  0
  6  2  1  0  0  0  0
  7  3  1  0  0  0  0
  8  9  1  0  0  0  0
  8 14  1  0  0  0  0
  9 15  1  0  0  0  0
 10  1  1  0  0  0  0
 10  9  2  0  0  0  0
 11 10  1  0  0  0  0
 12 11  2  0  0  0  0
 12 13  1  0  0  0  0
 13  8  2  0  0  0  0
 16 12  1  0  0  0  0
 17 20  1  0  0  0  0
 17 18  1  0  0  0  0
 19 17  1  0  0  0  0
 20 25  1  0  0  0  0
 21 20  1  0  0  0  0
 22 20  1  0  0  0  0
 23 24  1  0  0  0  0
 24 31  1  0  0  0  0
 25 26  1  0  0  0  0
 25 24  2  0  0  0  0
 26 28  2  0  0  0  0
 27 26  1  0  0  0  0
 28 29  1  0  0  0  0
 28 30  1  0  0  0  0
 31 30  2  0  0  0  0
M  END
>  <minimizedAffinity>
-5.11855221

$$$$

 OpenBabel03272508353D

 31 33  0  0  0  0  0  0  0  0999 V2000
   37.9810   25.2070   35.1280 C   0  0  0  0  0  0  0  0  0  0  0  0
   37.5300   26.4930   35.3130 C   0  0  0  0  0  0  0  0  0  0  0  0
   37.0770   26.9940   34.0990 C   0  0  0  0  0  0  0  0  0  0  0  0
   37.2720   25.9920   33.2160 N   0  0  0  0  0  0  0  0  0  0  0  0
   37.8070   24.9400   33.8330 N   0  0  0  0  0  0  0  0  0  0  0  0
   37.5020   27.0780   36.2310 H   0  0  0  0  0  0  0  0  0  0  0  0
   36.6660   27.9860   33.9510 H   0  0  0  0  0  0  0  0  0  0  0  0
   38.5190   23.6210   38.5000 C   0  0  0  0  0  0  0  0  0  0  0  0
   37.9600   24.4010   37.4980 C   0  0  0  0  0  0  0  0  0  0  0  0
   38.5150   24.4200   36.2110 C   0  0  0  0  0  0  0  0  0  0  0  0
   39.6080   23.6410   36.0280 N   0  0  0  0  0  0  0  0  0  0  0  0
   40.1320   22.8920   37.0230 C   0  0  0  0  0  0  0  0  0  0  0  0
   39.6010   22.8770   38.2420 N   0  0  0  0  0  0  0  0  0  0  0  0
   38.0710   23.6260   39.4720 H   0  0  0  0  0  0  0  0  0  0  0  0
   37.0790   25.0290   37.6430 H   0  0  0  0  0  0  0  0  0  0  0  0
   41.0170   22.3140   36.7190 H   0  0  0  0  0  0  0  0  0  0  0  0
   36.9310   26.0960   31.8060 C   0  0  0  0  0  0  0  0  0  0  0  0
   36.3640   27.0710   31.7380 H   0  0  0  0  0  0  0  0  0  0  0  0
   37.7830   26.0710   31.1280 H   0  0  0  0  0  0  0  0  0  0  0  0
   35.8820   25.0430   31.4610 C   0  0  0  0  0  0  0  0  0  0  0  0
   35.2550   25.3440   30.6210 H   0  0  0  0  0  0  0  0  0  0  0  0
   35.2740   24.8200   32.3540 H   0  0  0  0  0  0  0  0  0  0  0  0
   35.0670   22.3800   32.1180 F   0  0  0  0  0  0  0  0  0  0  0  0
   36.2470   22.5210   31.4390 C   0  0  0  0  0  0  0  0  0  0  0  0
   36.6410   23.8050   31.1210 C   0  0  0  0  0  0  0  0  0  0  0  0
   37.8520   23.8820   30.4260 C   0  0  0  0  0  0  0  0  0  0  0  0
   38.1760   24.9030   30.1660 H   0  0  0  0  0  0  0  0  0  0  0  0
   38.6500   22.8310   30.0480 C   0  0  0  0  0  0  0  0  0  0  0  0
   39.5710   23.0610   29.5080 H   0  0  0  0  0  0  0  0  0  0  0  0
   38.2060   21.5630   30.3940 C   0  0  0  0  0  3  0  0  0  0  0  0
   37.0020   21.4270   31.0890 C   0  0  0  0  0  3  0  0  0  0  0  0
  1  2  1  0  0  0  0
  1 10  1  0  0  0  0
  2  6  1  0  0  0  0
  3  2  2  0  0  0  0
  4  5  1  0  0  0  0
  4  3  1  0  0  0  0
  5  1  2  0  0  0  0
  7  3  1  0  0  0  0
  8 14  1  0  0  0  0
  9 15  1  0  0  0  0
  9  8  2  0  0  0  0
 10  9  1  0  0  0  0
 11 10  2  0  0  0  0
 11 12  1  0  0  0  0
 12 13  2  0  0  0  0
 13  8  1  0  0  0  0
 16 12  1  0  0  0  0
 17  4  1  0  0  0  0
 18 17  1  0  0  0  0
 19 17  1  0  0  0  0
 20 17  1  0  0  0  0
 20 22  1  0  0  0  0
 21 20  1  0  0  0  0
 24 23  1  0  0  0  0
 25 24  1  0  0  0  0
 25 20  1  0  0  0  0
 26 25  2  0  0  0  0
 27 26  1  0  0  0  0
 28 30  2  0  0  0  0
 28 26  1  0  0  0  0
 29 28  1  0  0  0  0
 30 31  1  0  0  0  0
 31 24  2  0  0  0  0
M  END
>  <minimizedAffinity>
-5.10735655

$$$$

 OpenBabel03272508353D

 31 33  0  0  0  0  0  0  0  0999 V2000
   36.6080   22.9680   31.5470 C   0  0  0  0  0  0  0  0  0  0  0  0
   37.7190   23.1980   30.7690 C   0  0  0  0  0  0  0  0  0  0  0  0
   37.8660   24.5670   30.5820 C   0  0  0  0  0  0  0  0  0  0  0  0
   36.8340   25.1220   31.2540 N   0  0  0  0  0  0  0  0  0  0  0  0
   36.0970   24.1680   31.8210 N   0  0  0  0  0  0  0  0  0  0  0  0
   38.4110   22.4750   30.3400 H   0  0  0  0  0  0  0  0  0  0  0  0
   38.6580   25.0350   30.0080 H   0  0  0  0  0  0  0  0  0  0  0  0
   35.6440   19.3310   31.4080 C   0  0  0  0  0  0  0  0  0  0  0  0
   36.0430   20.5920   30.9920 C   0  0  0  0  0  0  0  0  0  0  0  0
   36.1960   21.6370   31.9140 C   0  0  0  0  0  0  0  0  0  0  0  0
   35.9300   21.3270   33.2070 N   0  0  0  0  0  0  0  0  0  0  0  0
   35.5430   20.0890   33.5840 C   0  0  0  0  0  0  0  0  0  0  0  0
   35.4000   19.1020   32.7050 N   0  0  0  0  0  0  0  0  0  0  0  0
   35.5380   18.5540   30.6800 H   0  0  0  0  0  0  0  0  0  0  0  0
   36.2580   20.8450   29.9520 H   0  0  0  0  0  0  0  0  0  0  0  0
   35.3660   19.9930   34.6650 H   0  0  0  0  0  0  0  0  0  0  0  0
   36.6060   26.5560   31.3190 C   0  0  0  0  0  0  0  0  0  0  0  0
   36.2650   26.8210   30.2760 H   0  0  0  0  0  0  0  0  0  0  0  0
   35.8870   26.8690   32.0760 H   0  0  0  0  0  0  0  0  0  0  0  0
   37.9450   27.2750   31.4560 C   0  0  0  0  0  0  0  0  0  0  0  0
   37.8990   28.3040   31.0990 H   0  0  0  0  0  0  0  0  0  0  0  0
   38.7270   26.7020   30.9300 H   0  0  0  0  0  0  0  0  0  0  0  0
   40.5120   26.6350   32.5450 F   0  0  0  0  0  0  0  0  0  0  0  0
   39.5160   26.9390   33.4330 C   0  0  0  0  0  0  0  0  0  0  0  0
   38.2780   27.2470   32.9100 C   0  0  0  0  0  0  0  0  0  0  0  0
   37.3050   27.5500   33.8680 C   0  0  0  0  0  0  0  0  0  0  0  0
   36.3110   27.8000   33.4600 H   0  0  0  0  0  0  0  0  0  0  0  0
   37.4710   27.5650   35.2300 C   0  0  0  0  0  0  0  0  0  0  0  0
   36.6050   27.8230   35.8440 H   0  0  0  0  0  0  0  0  0  0  0  0
   38.7350   27.2470   35.7010 C   0  0  0  0  0  3  0  0  0  0  0  0
   39.7460   26.9370   34.7890 C   0  0  0  0  0  3  0  0  0  0  0  0
  1  5  2  0  0  0  0
  1 10  1  0  0  0  0
  2  1  1  0  0  0  0
  3  2  2  0  0  0  0
  3  4  1  0  0  0  0
  4 17  1  0  0  0  0
  4  5  1  0  0  0  0
  6  2  1  0  0  0  0
  7  3  1  0  0  0  0
  8 13  1  0  0  0  0
  9  8  2  0  0  0  0
  9 10  1  0  0  0  0
 10 11  2  0  0  0  0
 11 12  1  0  0  0  0
 12 16  1  0  0  0  0
 13 12  2  0  0  0  0
 14  8  1  0  0  0  0
 15  9  1  0  0  0  0
 17 20  1  0  0  0  0
 17 19  1  0  0  0  0
 18 17  1  0  0  0  0
 20 25  1  0  0  0  0
 21 20  1  0  0  0  0
 22 20  1  0  0  0  0
 23 24  1  0  0  0  0
 24 31  1  0  0  0  0
 25 24  2  0  0  0  0
 25 26  1  0  0  0  0
 26 28  2  0  0  0  0
 27 26  1  0  0  0  0
 28 30  1  0  0  0  0
 28 29  1  0  0  0  0
 31 30  2  0  0  0  0
M  END
>  <minimizedAffinity>
-5.0984869

$$$$

 OpenBabel03272508353D

 31 33  0  0  0  0  0  0  0  0999 V2000
   37.6290   26.5480   34.3160 C   0  0  0  0  0  0  0  0  0  0  0  0
   37.9840   26.9100   33.0370 C   0  0  0  0  0  0  0  0  0  0  0  0
   37.1260   27.9100   32.5950 C   0  0  0  0  0  0  0  0  0  0  0  0
   36.2780   28.1190   33.6230 N   0  0  0  0  0  0  0  0  0  0  0  0
   36.5830   27.3100   34.6360 N   0  0  0  0  0  0  0  0  0  0  0  0
   38.7910   26.5200   32.4190 H   0  0  0  0  0  0  0  0  0  0  0  0
   37.1750   28.3830   31.6210 H   0  0  0  0  0  0  0  0  0  0  0  0
   38.5870   23.9650   36.8820 C   0  0  0  0  0  0  0  0  0  0  0  0
   37.8570   24.9440   36.2250 C   0  0  0  0  0  0  0  0  0  0  0  0
   38.3390   25.5280   35.0460 C   0  0  0  0  0  0  0  0  0  0  0  0
   39.5400   25.0750   34.6110 N   0  0  0  0  0  0  0  0  0  0  0  0
   40.2300   24.1190   35.2710 C   0  0  0  0  0  0  0  0  0  0  0  0
   39.7680   23.5680   36.3890 N   0  0  0  0  0  0  0  0  0  0  0  0
   38.1910   23.5360   37.7790 H   0  0  0  0  0  0  0  0  0  0  0  0
   36.8900   25.3110   36.5730 H   0  0  0  0  0  0  0  0  0  0  0  0
   41.1860   23.8570   34.7940 H   0  0  0  0  0  0  0  0  0  0  0  0
   35.2030   29.0980   33.5820 C   0  0  0  0  0  0  0  0  0  0  0  0
   34.9530   29.1760   32.4830 H   0  0  0  0  0  0  0  0  0  0  0  0
   34.3300   28.8420   34.1820 H   0  0  0  0  0  0  0  0  0  0  0  0
   35.7610   30.4760   33.9250 C   0  0  0  0  0  0  0  0  0  0  0  0
   35.6700   31.1770   33.0950 H   0  0  0  0  0  0  0  0  0  0  0  0
   36.8090   30.3780   34.2540 H   0  0  0  0  0  0  0  0  0  0  0  0
   36.7210   32.2800   35.9280 F   0  0  0  0  0  0  0  0  0  0  0  0
   35.4370   31.8260   36.0610 C   0  0  0  0  0  0  0  0  0  0  0  0
   34.9720   30.9560   35.0960 C   0  0  0  0  0  0  0  0  0  0  0  0
   33.6540   30.5320   35.2880 C   0  0  0  0  0  0  0  0  0  0  0  0
   33.2720   29.8370   34.5220 H   0  0  0  0  0  0  0  0  0  0  0  0
   32.8160   30.8920   36.3130 C   0  0  0  0  0  0  0  0  0  0  0  0
   31.8090   30.4690   36.3190 H   0  0  0  0  0  0  0  0  0  0  0  0
   33.3350   31.7680   37.2550 C   0  0  0  0  0  3  0  0  0  0  0  0
   34.6460   32.2260   37.1130 C   0  0  0  0  0  3  0  0  0  0  0  0
  1  5  2  0  0  0  0
  1 10  1  0  0  0  0
  2  1  1  0  0  0  0
  3  2  2  0  0  0  0
  3  4  1  0  0  0  0
  4  5  1  0  0  0  0
  6  2  1  0  0  0  0
  7  3  1  0  0  0  0
  8 14  1  0  0  0  0
  9 15  1  0  0  0  0
  9  8  2  0  0  0  0
 10  9  1  0  0  0  0
 11 10  2  0  0  0  0
 11 12  1  0  0  0  0
 12 13  2  0  0  0  0
 13  8  1  0  0  0  0
 16 12  1  0  0  0  0
 17  4  1  0  0  0  0
 17 20  1  0  0  0  0
 17 19  1  0  0  0  0
 18 17  1  0  0  0  0
 20 22  1  0  0  0  0
 20 25  1  0  0  0  0
 21 20  1  0  0  0  0
 23 24  1  0  0  0  0
 24 31  1  0  0  0  0
 25 26  1  0  0  0  0
 25 24  2  0  0  0  0
 26 28  2  0  0  0  0
 27 26  1  0  0  0  0
 28 29  1  0  0  0  0
 28 30  1  0  0  0  0
 31 30  2  0  0  0  0
M  END
>  <minimizedAffinity>
-5.08282042

$$$$

 OpenBabel03272508353D

 31 33  0  0  0  0  0  0  0  0999 V2000
   37.9950   25.5330   35.2590 C   0  0  0  0  0  0  0  0  0  0  0  0
   37.7930   26.8550   35.5850 C   0  0  0  0  0  0  0  0  0  0  0  0
   37.2250   27.5080   34.4980 C   0  0  0  0  0  0  0  0  0  0  0  0
   37.1030   26.5570   33.5470 N   0  0  0  0  0  0  0  0  0  0  0  0
   37.5610   25.3940   34.0060 N   0  0  0  0  0  0  0  0  0  0  0  0
   38.0160   27.3660   36.5190 H   0  0  0  0  0  0  0  0  0  0  0  0
   36.9580   28.5580   34.4740 H   0  0  0  0  0  0  0  0  0  0  0  0
   38.6550   23.4430   38.3200 C   0  0  0  0  0  0  0  0  0  0  0  0
   38.0530   24.3580   37.4700 C   0  0  0  0  0  0  0  0  0  0  0  0
   38.5730   24.5970   36.1900 C   0  0  0  0  0  0  0  0  0  0  0  0
   39.6770   23.8840   35.8580 N   0  0  0  0  0  0  0  0  0  0  0  0
   40.2420   22.9980   36.7070 C   0  0  0  0  0  0  0  0  0  0  0  0
   39.7450   22.7760   37.9200 N   0  0  0  0  0  0  0  0  0  0  0  0
   38.2340   23.2810   39.2910 H   0  0  0  0  0  0  0  0  0  0  0  0
   37.1640   24.9340   37.7340 H   0  0  0  0  0  0  0  0  0  0  0  0
   41.1300   22.4980   36.2950 H   0  0  0  0  0  0  0  0  0  0  0  0
   36.5470   26.8170   32.2290 C   0  0  0  0  0  0  0  0  0  0  0  0
   37.4550   27.0250   31.5900 H   0  0  0  0  0  0  0  0  0  0  0  0
   35.9400   26.0080   31.8230 H   0  0  0  0  0  0  0  0  0  0  0  0
   35.8040   28.1490   32.2470 C   0  0  0  0  0  0  0  0  0  0  0  0
   35.8870   28.6560   33.2080 H   0  0  0  0  0  0  0  0  0  0  0  0
   34.7490   27.9870   31.9690 H   0  0  0  0  0  0  0  0  0  0  0  0
   36.1250   30.9910   32.3360 F   0  0  0  0  0  0  0  0  0  0  0  0
   36.5770   30.3480   31.2160 C   0  0  0  0  0  0  0  0  0  0  0  0
   36.4220   28.9770   31.1710 C   0  0  0  0  0  0  0  0  0  0  0  0
   36.9050   28.3790   30.0030 C   0  0  0  0  0  0  0  0  0  0  0  0
   36.7880   27.2840   29.9580 H   0  0  0  0  0  0  0  0  0  0  0  0
   37.4960   29.0140   28.9400 C   0  0  0  0  0  0  0  0  0  0  0  0
   37.8200   28.3990   28.0970 H   0  0  0  0  0  0  0  0  0  0  0  0
   37.6250   30.3920   29.0370 C   0  0  0  0  0  3  0  0  0  0  0  0
   37.1610   31.0420   30.1820 C   0  0  0  0  0  3  0  0  0  0  0  0
  1  2  1  0  0  0  0
  1 10  1  0  0  0  0
  2  6  1  0  0  0  0
  3  2  2  0  0  0  0
  4  5  1  0  0  0  0
  4  3  1  0  0  0  0
  5  1  2  0  0  0  0
  7  3  1  0  0  0  0
  8 14  1  0  0  0  0
  9 15  1  0  0  0  0
  9  8  2  0  0  0  0
 10  9  1  0  0  0  0
 11 10  2  0  0  0  0
 11 12  1  0  0  0  0
 12 13  2  0  0  0  0
 13  8  1  0  0  0  0
 16 12  1  0  0  0  0
 17 20  1  0  0  0  0
 17  4  1  0  0  0  0
 18 17  1  0  0  0  0
 19 17  1  0  0  0  0
 20 21  1  0  0  0  0
 22 20  1  0  0  0  0
 24 23  1  0  0  0  0
 25 24  1  0  0  0  0
 25 20  1  0  0  0  0
 26 25  2  0  0  0  0
 27 26  1  0  0  0  0
 28 30  2  0  0  0  0
 28 26  1  0  0  0  0
 29 28  1  0  0  0  0
 30 31  1  0  0  0  0
 31 24  2  0  0  0  0
M  END
>  <minimizedAffinity>
-5.0666461

$$$$

 OpenBabel03272508353D

 31 33  0  0  0  0  0  0  0  0999 V2000
   35.5380   29.7600   34.2780 C   0  0  0  0  0  0  0  0  0  0  0  0
   35.6540   30.1170   32.9550 C   0  0  0  0  0  0  0  0  0  0  0  0
   36.2920   29.0940   32.2630 C   0  0  0  0  0  0  0  0  0  0  0  0
   36.5420   28.1490   33.1950 N   0  0  0  0  0  0  0  0  0  0  0  0
   36.0930   28.5520   34.3820 N   0  0  0  0  0  0  0  0  0  0  0  0
   35.3220   31.0310   32.4660 H   0  0  0  0  0  0  0  0  0  0  0  0
   36.5160   29.1070   31.2030 H   0  0  0  0  0  0  0  0  0  0  0  0
   34.9600   32.3740   36.9250 C   0  0  0  0  0  0  0  0  0  0  0  0
   35.6180   31.5720   36.0040 C   0  0  0  0  0  0  0  0  0  0  0  0
   34.9150   30.6220   35.2500 C   0  0  0  0  0  0  0  0  0  0  0  0
   33.5820   30.5510   35.4850 N   0  0  0  0  0  0  0  0  0  0  0  0
   32.9680   31.3460   36.3890 C   0  0  0  0  0  0  0  0  0  0  0  0
   33.6390   32.2450   37.1010 N   0  0  0  0  0  0  0  0  0  0  0  0
   35.5250   33.0920   37.4840 H   0  0  0  0  0  0  0  0  0  0  0  0
   36.6910   31.6260   35.8120 H   0  0  0  0  0  0  0  0  0  0  0  0
   31.8840   31.1710   36.4650 H   0  0  0  0  0  0  0  0  0  0  0  0
   37.2090   26.8930   32.8940 C   0  0  0  0  0  0  0  0  0  0  0  0
   36.5640   26.1180   33.4040 H   0  0  0  0  0  0  0  0  0  0  0  0
   37.3330   26.6860   31.8310 H   0  0  0  0  0  0  0  0  0  0  0  0
   38.5280   26.8250   33.6580 C   0  0  0  0  0  0  0  0  0  0  0  0
   38.7640   27.7620   34.1610 H   0  0  0  0  0  0  0  0  0  0  0  0
   39.3370   26.5250   32.9700 H   0  0  0  0  0  0  0  0  0  0  0  0
   38.2420   27.1970   36.4800 F   0  0  0  0  0  0  0  0  0  0  0  0
   38.2290   25.9100   36.0170 C   0  0  0  0  0  0  0  0  0  0  0  0
   38.3670   25.7290   34.6560 C   0  0  0  0  0  0  0  0  0  0  0  0
   38.3430   24.3920   34.2460 C   0  0  0  0  0  0  0  0  0  0  0  0
   38.4510   24.2350   33.1600 H   0  0  0  0  0  0  0  0  0  0  0  0
   38.2000   23.2890   35.0500 C   0  0  0  0  0  0  0  0  0  0  0  0
   38.2030   22.3070   34.5710 H   0  0  0  0  0  0  0  0  0  0  0  0
   38.0660   23.5300   36.4100 C   0  0  0  0  0  3  0  0  0  0  0  0
   38.0820   24.8460   36.8750 C   0  0  0  0  0  3  0  0  0  0  0  0
  1  5  2  0  0  0  0
  1 10  1  0  0  0  0
  2  1  1  0  0  0  0
  3  2  2  0  0  0  0
  3  4  1  0  0  0  0
  4  5  1  0  0  0  0
  6  2  1  0  0  0  0
  7  3  1  0  0  0  0
  8 13  1  0  0  0  0
  8 14  1  0  0  0  0
  9  8  2  0  0  0  0
 10 11  2  0  0  0  0
 10  9  1  0  0  0  0
 11 12  1  0  0  0  0
 12 16  1  0  0  0  0
 12 13  2  0  0  0  0
 15  9  1  0  0  0  0
 17  4  1  0  0  0  0
 17 18  1  0  0  0  0
 17 20  1  0  0  0  0
 19 17  1  0  0  0  0
 20 21  1  0  0  0  0
 20 25  1  0  0  0  0
 22 20  1  0  0  0  0
 24 23  1  0  0  0  0
 24 31  1  0  0  0  0
 25 24  2  0  0  0  0
 26 25  1  0  0  0  0
 26 28  2  0  0  0  0
 27 26  1  0  0  0  0
 28 30  1  0  0  0  0
 29 28  1  0  0  0  0
 30 31  2  0  0  0  0
M  END
>  <minimizedAffinity>
-5.05161619

$$$$

 OpenBabel03272508353D

 31 33  0  0  0  0  0  0  0  0999 V2000
   36.7640   22.5270   32.3510 C   0  0  0  0  0  0  0  0  0  0  0  0
   36.3370   23.5720   31.5640 C   0  0  0  0  0  0  0  0  0  0  0  0
   36.8220   24.7630   32.0920 C   0  0  0  0  0  0  0  0  0  0  0  0
   37.5270   24.3970   33.1840 N   0  0  0  0  0  0  0  0  0  0  0  0
   37.4870   23.0740   33.3280 N   0  0  0  0  0  0  0  0  0  0  0  0
   35.7230   23.5410   30.6660 H   0  0  0  0  0  0  0  0  0  0  0  0
   36.6410   25.7460   31.6740 H   0  0  0  0  0  0  0  0  0  0  0  0
   36.3070   19.2280   30.5940 C   0  0  0  0  0  0  0  0  0  0  0  0
   36.6620   20.5500   30.8170 C   0  0  0  0  0  0  0  0  0  0  0  0
   36.4190   21.1590   32.0550 C   0  0  0  0  0  0  0  0  0  0  0  0
   35.8270   20.3770   32.9910 N   0  0  0  0  0  0  0  0  0  0  0  0
   35.4930   19.0910   32.7470 C   0  0  0  0  0  0  0  0  0  0  0  0
   35.7260   18.5190   31.5690 N   0  0  0  0  0  0  0  0  0  0  0  0
   36.5080   18.7910   29.6380 H   0  0  0  0  0  0  0  0  0  0  0  0
   37.1380   21.1830   30.0650 H   0  0  0  0  0  0  0  0  0  0  0  0
   35.0220   18.5880   33.6040 H   0  0  0  0  0  0  0  0  0  0  0  0
   38.2120   25.3490   34.0440 C   0  0  0  0  0  0  0  0  0  0  0  0
   38.5320   26.1690   33.3360 H   0  0  0  0  0  0  0  0  0  0  0  0
   37.6110   25.7320   34.8680 H   0  0  0  0  0  0  0  0  0  0  0  0
   39.5310   24.7440   34.5170 C   0  0  0  0  0  0  0  0  0  0  0  0
   40.3400   25.4740   34.5240 H   0  0  0  0  0  0  0  0  0  0  0  0
   39.7820   23.8720   33.8910 H   0  0  0  0  0  0  0  0  0  0  0  0
   40.9840   22.6350   35.7910 F   0  0  0  0  0  0  0  0  0  0  0  0
   39.9790   23.2220   36.5110 C   0  0  0  0  0  0  0  0  0  0  0  0
   39.2770   24.2400   35.8980 C   0  0  0  0  0  0  0  0  0  0  0  0
   38.2660   24.8000   36.6850 C   0  0  0  0  0  0  0  0  0  0  0  0
   37.7000   25.6150   36.2050 H   0  0  0  0  0  0  0  0  0  0  0  0
   37.9270   24.4380   37.9640 C   0  0  0  0  0  0  0  0  0  0  0  0
   37.1060   24.9770   38.4440 H   0  0  0  0  0  0  0  0  0  0  0  0
   38.6640   23.4090   38.5310 C   0  0  0  0  0  3  0  0  0  0  0  0
   39.6870   22.8130   37.7910 C   0  0  0  0  0  3  0  0  0  0  0  0
  1  5  2  0  0  0  0
  2  3  2  0  0  0  0
  2  1  1  0  0  0  0
  3  4  1  0  0  0  0
  4  5  1  0  0  0  0
  4 17  1  0  0  0  0
  6  2  1  0  0  0  0
  7  3  1  0  0  0  0
  8  9  2  0  0  0  0
  8 13  1  0  0  0  0
  9 10  1  0  0  0  0
 10  1  1  0  0  0  0
 10 11  2  0  0  0  0
 12 11  1  0  0  0  0
 12 16  1  0  0  0  0
 13 12  2  0  0  0  0
 14  8  1  0  0  0  0
 15  9  1  0  0  0  0
 17 20  1  0  0  0  0
 17 19  1  0  0  0  0
 18 17  1  0  0  0  0
 20 21  1  0  0  0  0
 20 25  1  0  0  0  0
 22 20  1  0  0  0  0
 23 24  1  0  0  0  0
 24 31  1  0  0  0  0
 25 24  2  0  0  0  0
 25 26  1  0  0  0  0
 26 28  2  0  0  0  0
 27 26  1  0  0  0  0
 28 29  1  0  0  0  0
 28 30  1  0  0  0  0
 31 30  2  0  0  0  0
M  END
>  <minimizedAffinity>
-5.02132607

$$$$
