
 OpenBabel03272509133D

 40 43  0  0  1  0  0  0  0  0999 V2000
   37.1310   31.7090   48.1710 N   0  0  0  0  0  0  0  0  0  0  0  0
   38.2340   32.6390   48.5270 C   0  0  0  0  0  0  0  0  0  0  0  0
   38.8580   31.9200   49.7170 C   0  0  0  0  0  0  0  0  0  0  0  0
   37.6760   31.2920   50.4130 C   0  0  0  0  0  0  0  0  0  0  0  0
   36.5060   31.5010   49.4670 C   0  0  2  0  0  0  0  0  0  0  0  0
   37.7320   33.5750   48.8150 H   0  0  0  0  0  0  0  0  0  0  0  0
   38.9290   32.7250   47.6860 H   0  0  0  0  0  0  0  0  0  0  0  0
   39.5850   31.1820   49.3640 H   0  0  0  0  0  0  0  0  0  0  0  0
   39.2800   32.6940   50.3890 H   0  0  0  0  0  0  0  0  0  0  0  0
   37.8650   30.2060   50.5740 H   0  0  0  0  0  0  0  0  0  0  0  0
   37.4850   31.7470   51.4150 H   0  0  0  0  0  0  0  0  0  0  0  0
   36.0140   32.4520   49.7290 H   0  0  0  0  0  0  0  0  0  0  0  0
   37.5410   28.9400   49.3150 F   0  0  0  0  0  0  0  0  0  0  0  0
   36.1810   29.0890   49.4300 C   0  0  0  0  0  0  0  0  0  0  0  0
   35.5760   30.3500   49.5210 C   0  0  0  0  0  0  0  0  0  0  0  0
   34.2040   30.3560   49.6340 C   0  0  0  0  0  0  0  0  0  0  0  0
   33.7540   31.3350   49.6950 H   0  0  0  0  0  0  0  0  0  0  0  0
   33.4930   29.1750   49.6530 C   0  0  0  0  0  0  0  0  0  0  0  0
   32.4050   29.2490   49.7440 H   0  0  0  0  0  0  0  0  0  0  0  0
   34.0770   27.9400   49.5640 C   0  0  0  0  0  0  0  0  0  0  0  0
   35.4470   27.9280   49.4520 C   0  0  0  0  0  0  0  0  0  0  0  0
   35.3320   30.5400   47.1050 C   0  0  0  0  0  0  0  0  0  0  0  0
   36.6510   31.0810   46.9980 C   0  0  0  0  0  0  0  0  0  0  0  0
   37.3170   30.9110   45.7740 C   0  0  0  0  0  0  0  0  0  0  0  0
   36.6910   30.2490   44.7640 N   0  0  0  0  0  0  0  0  0  0  0  0
   35.4430   29.7540   44.9180 C   0  0  0  0  0  0  0  0  0  0  0  0
   34.7750   29.8960   46.0650 N   0  0  0  0  0  0  0  0  0  0  0  0
   34.7510   30.6320   48.0100 H   0  0  0  0  0  0  0  0  0  0  0  0
   34.9030   29.2170   44.1400 H   0  0  0  0  0  0  0  0  0  0  0  0
   38.6380   31.4280   45.5560 C   0  0  0  0  0  0  0  0  0  0  0  0
   38.7870   32.6940   45.0390 C   0  0  0  0  0  0  0  0  0  0  0  0
   40.0100   33.2830   44.7960 C   0  0  0  0  0  0  0  0  0  0  0  0
   41.1260   32.5220   45.1040 C   0  0  0  0  0  0  0  0  0  0  0  0
   41.0620   31.2380   45.6280 C   0  0  0  0  0  0  0  0  0  0  0  0
   39.7770   30.7180   45.8430 C   0  0  0  0  0  0  0  0  0  0  0  0
   37.8770   33.2680   44.8070 H   0  0  0  0  0  0  0  0  0  0  0  0
   40.0240   34.2660   44.3950 H   0  0  0  0  0  0  0  0  0  0  0  0
   42.0910   32.9860   44.9120 H   0  0  0  0  0  0  0  0  0  0  0  0
   41.9700   30.7070   45.8420 H   0  0  0  0  0  0  0  0  0  0  0  0
   39.7090   29.7200   46.2510 H   0  0  0  0  0  0  0  0  0  0  0  0
  1  2  1  0  0  0  0
  1  5  1  0  0  0  0
  2  6  1  0  0  0  0
  2  3  1  0  0  0  0
  3  9  1  0  0  0  0
  3  4  1  0  0  0  0
  4 10  1  0  0  0  0
  4 11  1  0  0  0  0
  5 15  1  0  0  0  0
  5 12  1  1  0  0  0
  5  4  1  0  0  0  0
  7  2  1  0  0  0  0
  8  3  1  0  0  0  0
 13 14  1  0  0  0  0
 14 21  2  0  0  0  0
 14 15  1  0  0  0  0
 15 16  2  0  0  0  0
 16 18  1  0  0  0  0
 16 17  1  0  0  0  0
 18 19  1  0  0  0  0
 20 18  2  0  0  0  0
 21 20  1  0  0  0  0
 22 28  1  0  0  0  0
 23 22  1  0  0  0  0
 23  1  1  0  0  0  0
 24 23  2  0  0  0  0
 25 26  2  0  0  0  0
 25 24  1  0  0  0  0
 26 27  1  0  0  0  0
 27 22  2  0  0  0  0
 29 26  1  0  0  0  0
 30 24  1  0  0  0  0
 30 35  1  0  0  0  0
 31 30  2  0  0  0  0
 32 31  1  0  0  0  0
 32 33  2  0  0  0  0
 33 34  1  0  0  0  0
 34 39  1  0  0  0  0
 34 35  2  0  0  0  0
 35 40  1  0  0  0  0
 36 31  1  0  0  0  0
 37 32  1  0  0  0  0
 38 33  1  0  0  0  0
M  END
>  <minimizedAffinity>
-5.77968454

>  <minimizedRMSD>
1.29868364

$$$$
