
 OpenBabel03272504133D

 21 22  0  0  0  0  0  0  0  0999 V2000
   38.6310   24.1250   36.9560 C   0  0  0  0  0  0  0  0  0  0  0  0
   37.8540   25.0090   36.1990 C   0  0  0  0  0  0  0  0  0  0  0  0
   38.2170   25.2470   34.8800 C   0  0  0  0  0  0  0  0  0  0  0  0
   39.3160   24.6020   34.3960 N   0  0  0  0  0  0  0  0  0  0  0  0
   40.0420   23.7600   35.1410 C   0  0  0  0  0  0  0  0  0  0  0  0
   39.6900   23.5290   36.4210 N   0  0  0  0  0  0  0  0  0  0  0  0
   36.9950   25.4850   36.6470 H   0  0  0  0  0  0  0  0  0  0  0  0
   40.9140   23.2720   34.6960 H   0  0  0  0  0  0  0  0  0  0  0  0
   37.6730   27.8700   35.6800 F   0  0  0  0  0  0  0  0  0  0  0  0
   37.2190   27.4370   34.4750 C   0  0  0  0  0  0  0  0  0  0  0  0
   37.4580   26.1540   34.0310 C   0  0  0  0  0  0  0  0  0  0  0  0
   36.9450   25.8370   32.7930 C   0  0  0  0  0  0  0  0  0  0  0  0
   37.1030   24.8620   32.4060 H   0  0  0  0  0  0  0  0  0  0  0  0
   36.2310   26.7280   32.0200 C   0  0  0  0  0  0  0  0  0  0  0  0
   35.8450   26.4330   31.0490 H   0  0  0  0  0  0  0  0  0  0  0  0
   35.9960   28.0170   32.4780 C   0  0  0  0  0  3  0  0  0  0  0  0
   36.5060   28.3440   33.7180 C   0  0  0  0  0  3  0  0  0  0  0  0
   38.2350   23.8730   38.3830 C   0  0  0  0  0  0  0  0  0  0  0  0
   37.8000   25.0370   38.9630 F   0  0  0  0  0  0  0  0  0  0  0  0
   37.2710   22.8860   38.3630 F   0  0  0  0  0  0  0  0  0  0  0  0
   39.3590   23.4300   39.0520 F   0  0  0  0  0  0  0  0  0  0  0  0
  1 18  1  0  0  0  0
  2  7  1  0  0  0  0
  2  1  2  0  0  0  0
  3  2  1  0  0  0  0
  4  3  2  0  0  0  0
  4  5  1  0  0  0  0
  5  6  2  0  0  0  0
  6  1  1  0  0  0  0
  8  5  1  0  0  0  0
 10  9  1  0  0  0  0
 11 10  1  0  0  0  0
 11  3  1  0  0  0  0
 12 11  2  0  0  0  0
 13 12  1  0  0  0  0
 14 16  2  0  0  0  0
 14 12  1  0  0  0  0
 15 14  1  0  0  0  0
 16 17  1  0  0  0  0
 17 10  2  0  0  0  0
 18 19  1  0  0  0  0
 18 21  1  0  0  0  0
 20 18  1  0  0  0  0
M  END
>  <minimizedAffinity>
-5.38319683

$$$$

 OpenBabel03272504133D

 21 22  0  0  0  0  0  0  0  0999 V2000
   38.7480   23.0450   36.8880 C   0  0  0  0  0  0  0  0  0  0  0  0
   37.7290   22.7190   35.9860 C   0  0  0  0  0  0  0  0  0  0  0  0
   38.0810   22.1830   34.7540 C   0  0  0  0  0  0  0  0  0  0  0  0
   39.4070   22.0050   34.4930 N   0  0  0  0  0  0  0  0  0  0  0  0
   40.3630   22.3250   35.3730 C   0  0  0  0  0  0  0  0  0  0  0  0
   40.0210   22.8450   36.5690 N   0  0  0  0  0  0  0  0  0  0  0  0
   36.6980   22.8860   36.2590 H   0  0  0  0  0  0  0  0  0  0  0  0
   41.4100   22.1590   35.1050 H   0  0  0  0  0  0  0  0  0  0  0  0
   37.8020   23.6220   32.3740 F   0  0  0  0  0  0  0  0  0  0  0  0
   36.9830   22.5640   32.6080 C   0  0  0  0  0  0  0  0  0  0  0  0
   37.0770   21.8200   33.7640 C   0  0  0  0  0  0  0  0  0  0  0  0
   36.1900   20.7740   33.8840 C   0  0  0  0  0  0  0  0  0  0  0  0
   36.2220   20.1700   34.7550 H   0  0  0  0  0  0  0  0  0  0  0  0
   35.2530   20.4630   32.9210 C   0  0  0  0  0  0  0  0  0  0  0  0
   34.5730   19.6270   33.0590 H   0  0  0  0  0  0  0  0  0  0  0  0
   35.1680   21.2200   31.7600 C   0  0  0  0  0  3  0  0  0  0  0  0
   36.0520   22.2720   31.6320 C   0  0  0  0  0  3  0  0  0  0  0  0
   38.3620   23.6270   38.2170 C   0  0  0  0  0  0  0  0  0  0  0  0
   38.0350   24.9510   38.0750 F   0  0  0  0  0  0  0  0  0  0  0  0
   37.3190   22.8630   38.7010 F   0  0  0  0  0  0  0  0  0  0  0  0
   39.4590   23.5220   39.0500 F   0  0  0  0  0  0  0  0  0  0  0  0
  1 18  1  0  0  0  0
  2  7  1  0  0  0  0
  2  1  2  0  0  0  0
  3  2  1  0  0  0  0
  4  3  2  0  0  0  0
  4  5  1  0  0  0  0
  5  6  2  0  0  0  0
  6  1  1  0  0  0  0
  8  5  1  0  0  0  0
  9 10  1  0  0  0  0
 10 11  1  0  0  0  0
 11 12  2  0  0  0  0
 11  3  1  0  0  0  0
 12 13  1  0  0  0  0
 14 15  1  0  0  0  0
 14 12  1  0  0  0  0
 16 14  2  0  0  0  0
 17 16  1  0  0  0  0
 17 10  2  0  0  0  0
 18 20  1  0  0  0  0
 18 21  1  0  0  0  0
 19 18  1  0  0  0  0
M  END
>  <minimizedAffinity>
-5.25654602

$$$$

 OpenBabel03272504133D

 21 22  0  0  0  0  0  0  0  0999 V2000
   38.6210   24.2170   36.8220 C   0  0  0  0  0  0  0  0  0  0  0  0
   37.8120   25.1360   36.1480 C   0  0  0  0  0  0  0  0  0  0  0  0
   38.1560   25.4960   34.8510 C   0  0  0  0  0  0  0  0  0  0  0  0
   39.2700   24.9280   34.3080 N   0  0  0  0  0  0  0  0  0  0  0  0
   40.0280   24.0490   34.9750 C   0  0  0  0  0  0  0  0  0  0  0  0
   39.6930   23.7000   36.2330 N   0  0  0  0  0  0  0  0  0  0  0  0
   36.9430   25.5470   36.6390 H   0  0  0  0  0  0  0  0  0  0  0  0
   40.9100   23.6280   34.4840 H   0  0  0  0  0  0  0  0  0  0  0  0
   37.2670   24.9010   32.2680 F   0  0  0  0  0  0  0  0  0  0  0  0
   36.9520   26.1030   32.8170 C   0  0  0  0  0  0  0  0  0  0  0  0
   37.3630   26.4480   34.0860 C   0  0  0  0  0  0  0  0  0  0  0  0
   36.9790   27.6940   34.5290 C   0  0  0  0  0  0  0  0  0  0  0  0
   37.2710   28.0070   35.5000 H   0  0  0  0  0  0  0  0  0  0  0  0
   36.2270   28.5660   33.7710 C   0  0  0  0  0  0  0  0  0  0  0  0
   35.9470   29.5400   34.1630 H   0  0  0  0  0  0  0  0  0  0  0  0
   35.8170   28.2070   32.4940 C   0  0  0  0  0  3  0  0  0  0  0  0
   36.1980   26.9600   32.0410 C   0  0  0  0  0  3  0  0  0  0  0  0
   38.2460   23.8330   38.2250 C   0  0  0  0  0  0  0  0  0  0  0  0
   37.8620   24.9450   38.9300 F   0  0  0  0  0  0  0  0  0  0  0  0
   37.2480   22.8850   38.1280 F   0  0  0  0  0  0  0  0  0  0  0  0
   39.3680   23.2890   38.8200 F   0  0  0  0  0  0  0  0  0  0  0  0
  1 18  1  0  0  0  0
  2  7  1  0  0  0  0
  2  1  2  0  0  0  0
  3  2  1  0  0  0  0
  4  3  2  0  0  0  0
  4  5  1  0  0  0  0
  5  6  2  0  0  0  0
  6  1  1  0  0  0  0
  8  5  1  0  0  0  0
  9 10  1  0  0  0  0
 10 11  1  0  0  0  0
 11 12  2  0  0  0  0
 11  3  1  0  0  0  0
 12 13  1  0  0  0  0
 14 15  1  0  0  0  0
 14 12  1  0  0  0  0
 16 14  2  0  0  0  0
 17 16  1  0  0  0  0
 17 10  2  0  0  0  0
 18 21  1  0  0  0  0
 18 19  1  0  0  0  0
 20 18  1  0  0  0  0
M  END
>  <minimizedAffinity>
-5.24719286

$$$$

 OpenBabel03272504133D

 21 22  0  0  0  0  0  0  0  0999 V2000
   40.1370   22.9580   37.1010 C   0  0  0  0  0  0  0  0  0  0  0  0
   39.7150   23.7760   36.0480 C   0  0  0  0  0  0  0  0  0  0  0  0
   38.5300   24.4870   36.1950 C   0  0  0  0  0  0  0  0  0  0  0  0
   37.8440   24.3450   37.3640 N   0  0  0  0  0  0  0  0  0  0  0  0
   38.2700   23.5560   38.3570 C   0  0  0  0  0  0  0  0  0  0  0  0
   39.4190   22.8660   38.2150 N   0  0  0  0  0  0  0  0  0  0  0  0
   40.3090   23.8410   35.1480 H   0  0  0  0  0  0  0  0  0  0  0  0
   37.6750   23.4840   39.2720 H   0  0  0  0  0  0  0  0  0  0  0  0
   38.1830   27.2280   36.6200 F   0  0  0  0  0  0  0  0  0  0  0  0
   37.8750   26.7020   35.4060 C   0  0  0  0  0  0  0  0  0  0  0  0
   38.0260   25.3570   35.1420 C   0  0  0  0  0  0  0  0  0  0  0  0
   37.6790   24.9470   33.8750 C   0  0  0  0  0  0  0  0  0  0  0  0
   37.7780   23.9220   33.6210 H   0  0  0  0  0  0  0  0  0  0  0  0
   37.2050   25.8060   32.9060 C   0  0  0  0  0  0  0  0  0  0  0  0
   36.9430   25.4360   31.9180 H   0  0  0  0  0  0  0  0  0  0  0  0
   37.0560   27.1580   33.1830 C   0  0  0  0  0  3  0  0  0  0  0  0
   37.4020   27.5790   34.4520 C   0  0  0  0  0  3  0  0  0  0  0  0
   41.4160   22.1890   36.9360 C   0  0  0  0  0  0  0  0  0  0  0  0
   42.4860   23.0470   36.9400 F   0  0  0  0  0  0  0  0  0  0  0  0
   41.4630   21.2650   37.9600 F   0  0  0  0  0  0  0  0  0  0  0  0
   41.3600   21.5470   35.7140 F   0  0  0  0  0  0  0  0  0  0  0  0
  1  6  1  0  0  0  0
  2  3  1  0  0  0  0
  2  1  2  0  0  0  0
  3  4  2  0  0  0  0
  4  5  1  0  0  0  0
  5  8  1  0  0  0  0
  6  5  2  0  0  0  0
  7  2  1  0  0  0  0
 10  9  1  0  0  0  0
 11 10  1  0  0  0  0
 11  3  1  0  0  0  0
 12 11  2  0  0  0  0
 13 12  1  0  0  0  0
 14 16  2  0  0  0  0
 14 12  1  0  0  0  0
 15 14  1  0  0  0  0
 16 17  1  0  0  0  0
 17 10  2  0  0  0  0
 18 19  1  0  0  0  0
 18  1  1  0  0  0  0
 18 20  1  0  0  0  0
 21 18  1  0  0  0  0
M  END
>  <minimizedAffinity>
-5.10292816

$$$$

 OpenBabel03272504133D

 21 22  0  0  0  0  0  0  0  0999 V2000
   40.0390   22.3450   36.8710 C   0  0  0  0  0  0  0  0  0  0  0  0
   39.3400   21.9480   35.7270 C   0  0  0  0  0  0  0  0  0  0  0  0
   37.9990   22.2940   35.6160 C   0  0  0  0  0  0  0  0  0  0  0  0
   37.4390   23.0050   36.6360 N   0  0  0  0  0  0  0  0  0  0  0  0
   38.1310   23.3730   37.7210 C   0  0  0  0  0  0  0  0  0  0  0  0
   39.4320   23.0380   37.8280 N   0  0  0  0  0  0  0  0  0  0  0  0
   39.8470   21.3860   34.9570 H   0  0  0  0  0  0  0  0  0  0  0  0
   37.6250   23.9430   38.5060 H   0  0  0  0  0  0  0  0  0  0  0  0
   35.8990   20.4610   35.8290 F   0  0  0  0  0  0  0  0  0  0  0  0
   36.1820   21.0060   34.6180 C   0  0  0  0  0  0  0  0  0  0  0  0
   37.2060   21.9150   34.4560 C   0  0  0  0  0  0  0  0  0  0  0  0
   37.3920   22.3950   33.1790 C   0  0  0  0  0  0  0  0  0  0  0  0
   38.1670   23.0980   33.0020 H   0  0  0  0  0  0  0  0  0  0  0  0
   36.6170   22.0100   32.1060 C   0  0  0  0  0  0  0  0  0  0  0  0
   36.8010   22.4160   31.1150 H   0  0  0  0  0  0  0  0  0  0  0  0
   35.5890   21.0940   32.2810 C   0  0  0  0  0  3  0  0  0  0  0  0
   35.3940   20.6060   33.5580 C   0  0  0  0  0  3  0  0  0  0  0  0
   41.4880   21.9660   36.9870 C   0  0  0  0  0  0  0  0  0  0  0  0
   41.6810   21.1760   38.0910 F   0  0  0  0  0  0  0  0  0  0  0  0
   41.8330   21.3380   35.8070 F   0  0  0  0  0  0  0  0  0  0  0  0
   42.2110   23.1330   37.1380 F   0  0  0  0  0  0  0  0  0  0  0  0
  1 18  1  0  0  0  0
  1  6  1  0  0  0  0
  2  1  2  0  0  0  0
  3  2  1  0  0  0  0
  3  4  2  0  0  0  0
  4  5  1  0  0  0  0
  5  6  2  0  0  0  0
  5  8  1  0  0  0  0
  7  2  1  0  0  0  0
 10  9  1  0  0  0  0
 11 10  1  0  0  0  0
 11  3  1  0  0  0  0
 12 11  2  0  0  0  0
 13 12  1  0  0  0  0
 14 16  2  0  0  0  0
 14 12  1  0  0  0  0
 15 14  1  0  0  0  0
 16 17  1  0  0  0  0
 17 10  2  0  0  0  0
 18 21  1  0  0  0  0
 18 19  1  0  0  0  0
 20 18  1  0  0  0  0
M  END
>  <minimizedAffinity>
-5.00947523

$$$$

 OpenBabel03272504133D

 21 22  0  0  0  0  0  0  0  0999 V2000
   36.6670   27.9970   33.5250 C   0  0  0  0  0  0  0  0  0  0  0  0
   35.9970   28.6940   34.5350 C   0  0  0  0  0  0  0  0  0  0  0  0
   35.3950   29.9050   34.2170 C   0  0  0  0  0  0  0  0  0  0  0  0
   35.4940   30.3470   32.9320 N   0  0  0  0  0  0  0  0  0  0  0  0
   36.1410   29.6600   31.9830 C   0  0  0  0  0  0  0  0  0  0  0  0
   36.7240   28.4850   32.2910 N   0  0  0  0  0  0  0  0  0  0  0  0
   35.9580   28.2850   35.5330 H   0  0  0  0  0  0  0  0  0  0  0  0
   36.1850   30.0670   30.9680 H   0  0  0  0  0  0  0  0  0  0  0  0
   36.7520   31.6170   35.9630 F   0  0  0  0  0  0  0  0  0  0  0  0
   35.4000   31.5160   36.0510 C   0  0  0  0  0  0  0  0  0  0  0  0
   34.6810   30.6880   35.2160 C   0  0  0  0  0  0  0  0  0  0  0  0
   33.3180   30.6740   35.4050 C   0  0  0  0  0  0  0  0  0  0  0  0
   32.7200   30.0540   34.7870 H   0  0  0  0  0  0  0  0  0  0  0  0
   32.6800   31.4330   36.3640 C   0  0  0  0  0  0  0  0  0  0  0  0
   31.6010   31.3890   36.4770 H   0  0  0  0  0  0  0  0  0  0  0  0
   33.4150   32.2630   37.2000 C   0  0  0  0  0  3  0  0  0  0  0  0
   34.7830   32.2830   37.0180 C   0  0  0  0  0  3  0  0  0  0  0  0
   37.3180   26.6890   33.8740 C   0  0  0  0  0  0  0  0  0  0  0  0
   36.9680   25.7300   32.9580 F   0  0  0  0  0  0  0  0  0  0  0  0
   38.6790   26.9190   33.9200 F   0  0  0  0  0  0  0  0  0  0  0  0
   36.8530   26.3140   35.1190 F   0  0  0  0  0  0  0  0  0  0  0  0
  1 18  1  0  0  0  0
  1  2  1  0  0  0  0
  2  7  1  0  0  0  0
  3  2  2  0  0  0  0
  3 11  1  0  0  0  0
  4  3  1  0  0  0  0
  5  6  1  0  0  0  0
  5  4  2  0  0  0  0
  6  1  2  0  0  0  0
  8  5  1  0  0  0  0
  9 10  1  0  0  0  0
 10 17  1  0  0  0  0
 11 12  1  0  0  0  0
 11 10  2  0  0  0  0
 12 14  2  0  0  0  0
 13 12  1  0  0  0  0
 14 15  1  0  0  0  0
 14 16  1  0  0  0  0
 17 16  2  0  0  0  0
 18 20  1  0  0  0  0
 18 21  1  0  0  0  0
 19 18  1  0  0  0  0
M  END
>  <minimizedAffinity>
-4.89322376

$$$$

 OpenBabel03272504133D

 21 22  0  0  0  0  0  0  0  0999 V2000
   36.9910   24.6920   32.4380 C   0  0  0  0  0  0  0  0  0  0  0  0
   37.7180   23.9760   33.3950 C   0  0  0  0  0  0  0  0  0  0  0  0
   38.2330   24.6640   34.4860 C   0  0  0  0  0  0  0  0  0  0  0  0
   37.9990   26.0040   34.5620 N   0  0  0  0  0  0  0  0  0  0  0  0
   37.2990   26.6660   33.6330 C   0  0  0  0  0  0  0  0  0  0  0  0
   36.7990   25.9990   32.5740 N   0  0  0  0  0  0  0  0  0  0  0  0
   37.8650   22.9140   33.2720 H   0  0  0  0  0  0  0  0  0  0  0  0
   37.1450   27.7430   33.7500 H   0  0  0  0  0  0  0  0  0  0  0  0
   37.1410   24.1670   37.0120 F   0  0  0  0  0  0  0  0  0  0  0  0
   38.4130   23.7680   36.7500 C   0  0  0  0  0  0  0  0  0  0  0  0
   39.0010   23.9870   35.5220 C   0  0  0  0  0  0  0  0  0  0  0  0
   40.2930   23.5360   35.3810 C   0  0  0  0  0  0  0  0  0  0  0  0
   40.7900   23.6790   34.4550 H   0  0  0  0  0  0  0  0  0  0  0  0
   40.9860   22.8980   36.3890 C   0  0  0  0  0  0  0  0  0  0  0  0
   42.0050   22.5590   36.2320 H   0  0  0  0  0  0  0  0  0  0  0  0
   40.3830   22.6830   37.6220 C   0  0  0  0  0  3  0  0  0  0  0  0
   39.0870   23.1330   37.7730 C   0  0  0  0  0  3  0  0  0  0  0  0
   36.4380   23.9450   31.2580 C   0  0  0  0  0  0  0  0  0  0  0  0
   37.4350   23.6940   30.3510 F   0  0  0  0  0  0  0  0  0  0  0  0
   35.8550   22.7940   31.7500 F   0  0  0  0  0  0  0  0  0  0  0  0
   35.4850   24.7500   30.6670 F   0  0  0  0  0  0  0  0  0  0  0  0
  1  6  2  0  0  0  0
  1  2  1  0  0  0  0
  2  3  2  0  0  0  0
  3  4  1  0  0  0  0
  3 11  1  0  0  0  0
  5  8  1  0  0  0  0
  5  4  2  0  0  0  0
  6  5  1  0  0  0  0
  7  2  1  0  0  0  0
 10  9  1  0  0  0  0
 10 17  1  0  0  0  0
 11 10  2  0  0  0  0
 12 11  1  0  0  0  0
 12 14  2  0  0  0  0
 13 12  1  0  0  0  0
 14 16  1  0  0  0  0
 15 14  1  0  0  0  0
 16 17  2  0  0  0  0
 18 20  1  0  0  0  0
 18  1  1  0  0  0  0
 19 18  1  0  0  0  0
 21 18  1  0  0  0  0
M  END
>  <minimizedAffinity>
-4.79955721

$$$$

 OpenBabel03272504133D

 21 22  0  0  0  0  0  0  0  0999 V2000
   38.4570   23.5300   36.9080 C   0  0  0  0  0  0  0  0  0  0  0  0
   39.4080   24.3650   36.3130 C   0  0  0  0  0  0  0  0  0  0  0  0
   39.5870   24.2900   34.9370 C   0  0  0  0  0  0  0  0  0  0  0  0
   38.8200   23.4020   34.2430 N   0  0  0  0  0  0  0  0  0  0  0  0
   37.9160   22.6140   34.8370 C   0  0  0  0  0  0  0  0  0  0  0  0
   37.7420   22.6860   36.1710 N   0  0  0  0  0  0  0  0  0  0  0  0
   39.9800   25.0460   36.9240 H   0  0  0  0  0  0  0  0  0  0  0  0
   37.3310   21.9210   34.2250 H   0  0  0  0  0  0  0  0  0  0  0  0
   39.5270   27.0760   35.1680 F   0  0  0  0  0  0  0  0  0  0  0  0
   40.4820   26.4950   34.3960 C   0  0  0  0  0  0  0  0  0  0  0  0
   40.5580   25.1270   34.2470 C   0  0  0  0  0  0  0  0  0  0  0  0
   41.5700   24.6620   33.4380 C   0  0  0  0  0  0  0  0  0  0  0  0
   41.6710   23.6160   33.2910 H   0  0  0  0  0  0  0  0  0  0  0  0
   42.4700   25.4900   32.8020 C   0  0  0  0  0  0  0  0  0  0  0  0
   43.2530   25.0770   32.1720 H   0  0  0  0  0  0  0  0  0  0  0  0
   42.3840   26.8670   32.9600 C   0  0  0  0  0  3  0  0  0  0  0  0
   41.3720   27.3430   33.7690 C   0  0  0  0  0  3  0  0  0  0  0  0
   38.2690   23.6120   38.3960 C   0  0  0  0  0  0  0  0  0  0  0  0
   37.2900   22.7390   38.7960 F   0  0  0  0  0  0  0  0  0  0  0  0
   39.4960   23.3450   38.9690 F   0  0  0  0  0  0  0  0  0  0  0  0
   37.8710   24.9000   38.6930 F   0  0  0  0  0  0  0  0  0  0  0  0
  1 18  1  0  0  0  0
  2  1  1  0  0  0  0
  2  7  1  0  0  0  0
  3  2  2  0  0  0  0
  4  5  2  0  0  0  0
  4  3  1  0  0  0  0
  5  6  1  0  0  0  0
  6  1  2  0  0  0  0
  8  5  1  0  0  0  0
 10  9  1  0  0  0  0
 11 10  1  0  0  0  0
 11  3  1  0  0  0  0
 12 11  2  0  0  0  0
 13 12  1  0  0  0  0
 14 16  2  0  0  0  0
 14 12  1  0  0  0  0
 15 14  1  0  0  0  0
 16 17  1  0  0  0  0
 17 10  2  0  0  0  0
 18 21  1  0  0  0  0
 18 19  1  0  0  0  0
 18 20  1  0  0  0  0
M  END
>  <minimizedAffinity>
-4.67494917

$$$$

 OpenBabel03272504133D

 21 22  0  0  0  0  0  0  0  0999 V2000
   40.5510   23.5210   36.0080 C   0  0  0  0  0  0  0  0  0  0  0  0
   39.4770   24.3240   35.6090 C   0  0  0  0  0  0  0  0  0  0  0  0
   39.7460   25.4780   34.8840 C   0  0  0  0  0  0  0  0  0  0  0  0
   41.0490   25.7630   34.6020 N   0  0  0  0  0  0  0  0  0  0  0  0
   42.0590   24.9770   34.9950 C   0  0  0  0  0  0  0  0  0  0  0  0
   41.7980   23.8570   35.6980 N   0  0  0  0  0  0  0  0  0  0  0  0
   38.4690   24.0370   35.8670 H   0  0  0  0  0  0  0  0  0  0  0  0
   43.0840   25.2600   34.7370 H   0  0  0  0  0  0  0  0  0  0  0  0
   38.4090   27.1610   36.6710 F   0  0  0  0  0  0  0  0  0  0  0  0
   38.0560   27.1730   35.3590 C   0  0  0  0  0  0  0  0  0  0  0  0
   38.6810   26.3640   34.4350 C   0  0  0  0  0  0  0  0  0  0  0  0
   38.2320   26.4670   33.1380 C   0  0  0  0  0  0  0  0  0  0  0  0
   38.6820   25.8660   32.3890 H   0  0  0  0  0  0  0  0  0  0  0  0
   37.2190   27.3200   32.7540 C   0  0  0  0  0  0  0  0  0  0  0  0
   36.8980   27.3680   31.7180 H   0  0  0  0  0  0  0  0  0  0  0  0
   36.5960   28.1300   33.6940 C   0  0  0  0  0  3  0  0  0  0  0  0
   37.0390   28.0330   34.9980 C   0  0  0  0  0  3  0  0  0  0  0  0
   40.2550   22.2760   36.7940 C   0  0  0  0  0  0  0  0  0  0  0  0
   41.3350   21.4320   36.7630 F   0  0  0  0  0  0  0  0  0  0  0  0
   39.9210   22.6790   38.0710 F   0  0  0  0  0  0  0  0  0  0  0  0
   39.1800   21.6520   36.1920 F   0  0  0  0  0  0  0  0  0  0  0  0
  1 18  1  0  0  0  0
  2  7  1  0  0  0  0
  2  1  2  0  0  0  0
  3  2  1  0  0  0  0
  4  3  2  0  0  0  0
  4  5  1  0  0  0  0
  5  6  2  0  0  0  0
  6  1  1  0  0  0  0
  8  5  1  0  0  0  0
 10  9  1  0  0  0  0
 11  3  1  0  0  0  0
 11 10  2  0  0  0  0
 12 11  1  0  0  0  0
 13 12  1  0  0  0  0
 14 12  2  0  0  0  0
 14 16  1  0  0  0  0
 15 14  1  0  0  0  0
 16 17  2  0  0  0  0
 17 10  1  0  0  0  0
 18 20  1  0  0  0  0
 19 18  1  0  0  0  0
 21 18  1  0  0  0  0
M  END
>  <minimizedAffinity>
-4.67327642

$$$$
