
 OpenBabel03272510273D

 45 49  0  0  1  0  0  0  0  0999 V2000
   39.4620   33.6070   43.3830 O   0  0  0  0  0  0  0  0  0  0  0  0
   36.1680   30.2040   46.9270 C   0  0  0  0  0  0  0  0  0  0  0  0
   37.0250   30.7090   47.8750 C   0  0  0  0  0  0  0  0  0  0  0  0
   38.0460   31.6040   47.5140 C   0  0  0  0  0  0  0  0  0  0  0  0
   38.1460   31.9480   46.1860 C   0  0  0  0  0  0  0  0  0  0  0  0
   39.0420   32.8010   45.6040 N   0  0  0  0  0  0  0  0  0  0  0  0
   38.7360   32.8210   44.2930 C   0  0  0  0  0  0  0  0  0  0  0  0
   37.7110   32.0330   44.0410 N   0  0  0  0  0  0  0  0  0  0  0  0
   37.3030   31.4610   45.2060 C   0  0  0  0  0  0  0  0  0  0  0  0
   36.2960   30.5710   45.5930 C   0  0  0  0  0  0  0  0  0  0  0  0
   35.3640   29.5130   47.1450 H   0  0  0  0  0  0  0  0  0  0  0  0
   38.7380   32.0180   48.2380 H   0  0  0  0  0  0  0  0  0  0  0  0
   39.8090   33.3310   46.0840 H   0  0  0  0  0  0  0  0  0  0  0  0
   35.6380   30.1910   44.8260 H   0  0  0  0  0  0  0  0  0  0  0  0
   37.4250   30.1230   51.5720 C   0  0  0  0  0  0  0  0  0  0  0  0
   37.7400   30.5550   50.2950 C   0  0  0  0  0  0  0  0  0  0  0  0
   36.8670   30.3240   49.2650 C   0  0  0  0  0  0  0  0  0  0  0  0
   35.6980   29.6590   49.5740 N   0  0  0  0  0  0  0  0  0  0  0  0
   35.3900   29.2400   50.8110 C   0  0  0  0  0  0  0  0  0  0  0  0
   36.2420   29.4700   51.7940 N   0  0  0  0  0  0  0  0  0  0  0  0
   38.1340   30.3190   52.3650 H   0  0  0  0  0  0  0  0  0  0  0  0
   38.6490   31.0770   50.0280 H   0  0  0  0  0  0  0  0  0  0  0  0
   34.4620   28.7330   50.9550 H   0  0  0  0  0  0  0  0  0  0  0  0
   39.5430   31.7530   42.0590 N   0  0  0  0  0  0  0  0  0  0  0  0
   39.3690   33.2220   42.0140 C   0  0  1  0  0  0  0  0  0  0  0  0
   38.0700   33.5260   41.4400 C   0  0  0  0  0  0  0  0  0  0  0  0
   38.0650   33.0950   40.1010 O   0  0  0  0  0  0  0  0  0  0  0  0
   38.3710   31.7820   39.9090 C   0  0  0  0  0  0  0  0  0  0  0  0
   39.5900   31.3280   40.6790 C   0  0  2  0  0  0  0  0  0  0  0  0
   40.5210   31.6950   42.4500 H   0  0  0  0  0  0  0  0  0  0  0  0
   40.1670   33.6790   41.4060 H   0  0  0  0  0  0  0  0  0  0  0  0
   38.0100   34.6530   41.3340 H   0  0  0  0  0  0  0  0  0  0  0  0
   37.1350   33.2160   41.8170 H   0  0  0  0  0  0  0  0  0  0  0  0
   37.5230   31.1540   40.2710 H   0  0  0  0  0  0  0  0  0  0  0  0
   38.5670   31.6610   38.8280 H   0  0  0  0  0  0  0  0  0  0  0  0
   40.4910   31.7490   40.1580 H   0  0  0  0  0  0  0  0  0  0  0  0
   41.9680   29.8230   41.0140 F   0  0  0  0  0  0  0  0  0  0  0  0
   40.8180   29.1810   40.7270 C   0  0  0  0  0  0  0  0  0  0  0  0
   39.6060   29.8480   40.5460 C   0  0  0  0  0  0  0  0  0  0  0  0
   38.4810   29.0940   40.2530 C   0  0  0  0  0  0  0  0  0  0  0  0
   37.5270   29.6110   40.1100 H   0  0  0  0  0  0  0  0  0  0  0  0
   38.5030   27.7180   40.1310 C   0  0  0  0  0  0  0  0  0  0  0  0
   37.6250   27.1340   39.9020 H   0  0  0  0  0  0  0  0  0  0  0  0
   39.7320   27.0830   40.3180 C   0  0  0  0  0  3  0  0  0  0  0  0
   40.8590   27.8030   40.6080 C   0  0  0  0  0  3  0  0  0  0  0  0
  1  7  1  0  0  0  0
  2 11  1  0  0  0  0
  2  3  1  0  0  0  0
  3 17  1  0  0  0  0
  4  3  2  0  0  0  0
  4 12  1  0  0  0  0
  5  4  1  0  0  0  0
  6 13  1  0  0  0  0
  6  5  1  0  0  0  0
  7  6  1  0  0  0  0
  8  7  2  0  0  0  0
  8  9  1  0  0  0  0
  9 10  1  0  0  0  0
  9  5  2  0  0  0  0
 10  2  2  0  0  0  0
 14 10  1  0  0  0  0
 15 20  1  0  0  0  0
 15 21  1  0  0  0  0
 16 15  2  0  0  0  0
 17 18  2  0  0  0  0
 17 16  1  0  0  0  0
 18 19  1  0  0  0  0
 19 23  1  0  0  0  0
 19 20  2  0  0  0  0
 22 16  1  0  0  0  0
 24 30  1  0  0  0  0
 25 31  1  6  0  0  0
 25 24  1  0  0  0  0
 25  1  1  0  0  0  0
 26 33  1  0  0  0  0
 26 25  1  0  0  0  0
 27 26  1  0  0  0  0
 28 27  1  0  0  0  0
 28 34  1  0  0  0  0
 28 29  1  0  0  0  0
 29 36  1  6  0  0  0
 29 24  1  0  0  0  0
 32 26  1  0  0  0  0
 35 28  1  0  0  0  0
 38 37  1  0  0  0  0
 39 29  1  0  0  0  0
 39 38  2  0  0  0  0
 40 39  1  0  0  0  0
 41 40  1  0  0  0  0
 42 40  2  0  0  0  0
 42 44  1  0  0  0  0
 43 42  1  0  0  0  0
 44 45  2  0  0  0  0
 45 38  1  0  0  0  0
M  END
>  <minimizedAffinity>
-6.07198715

>  <minimizedRMSD>
0.426185966

$$$$
