
 OpenBabel03272510273D

 45 49  0  0  1  0  0  0  0  0999 V2000
   39.4530   33.5810   43.4220 O   0  0  0  0  0  0  0  0  0  0  0  0
   36.1460   30.1850   46.9600 C   0  0  0  0  0  0  0  0  0  0  0  0
   37.0040   30.6850   47.9090 C   0  0  0  0  0  0  0  0  0  0  0  0
   38.0290   31.5770   47.5500 C   0  0  0  0  0  0  0  0  0  0  0  0
   38.1300   31.9220   46.2230 C   0  0  0  0  0  0  0  0  0  0  0  0
   39.0290   32.7740   45.6420 N   0  0  0  0  0  0  0  0  0  0  0  0
   38.7230   32.7970   44.3310 C   0  0  0  0  0  0  0  0  0  0  0  0
   37.6960   32.0130   44.0770 N   0  0  0  0  0  0  0  0  0  0  0  0
   37.2850   31.4400   45.2410 C   0  0  0  0  0  0  0  0  0  0  0  0
   36.2750   30.5540   45.6270 C   0  0  0  0  0  0  0  0  0  0  0  0
   35.3390   29.4960   47.1760 H   0  0  0  0  0  0  0  0  0  0  0  0
   38.7220   31.9870   48.2750 H   0  0  0  0  0  0  0  0  0  0  0  0
   39.7980   33.2990   46.1230 H   0  0  0  0  0  0  0  0  0  0  0  0
   35.6160   30.1770   44.8590 H   0  0  0  0  0  0  0  0  0  0  0  0
   37.4060   30.0840   51.6040 C   0  0  0  0  0  0  0  0  0  0  0  0
   37.7230   30.5150   50.3270 C   0  0  0  0  0  0  0  0  0  0  0  0
   36.8440   30.2980   49.2990 C   0  0  0  0  0  0  0  0  0  0  0  0
   35.6680   29.6460   49.6090 N   0  0  0  0  0  0  0  0  0  0  0  0
   35.3580   29.2270   50.8450 C   0  0  0  0  0  0  0  0  0  0  0  0
   36.2150   29.4440   51.8270 N   0  0  0  0  0  0  0  0  0  0  0  0
   38.1180   30.2690   52.3960 H   0  0  0  0  0  0  0  0  0  0  0  0
   38.6370   31.0270   50.0590 H   0  0  0  0  0  0  0  0  0  0  0  0
   34.4240   28.7320   50.9900 H   0  0  0  0  0  0  0  0  0  0  0  0
   39.7510   31.7320   42.1240 N   0  0  0  0  0  0  0  0  0  0  0  0
   39.4000   33.1690   42.0600 C   0  0  1  0  0  0  0  0  0  0  0  0
   38.0710   33.3050   41.4900 C   0  0  0  0  0  0  0  0  0  0  0  0
   38.1120   32.8570   40.1570 O   0  0  0  0  0  0  0  0  0  0  0  0
   38.5740   31.5880   39.9820 C   0  0  0  0  0  0  0  0  0  0  0  0
   39.8420   31.2960   40.7500 C   0  0  2  0  0  0  0  0  0  0  0  0
   40.7300   31.7980   42.5090 H   0  0  0  0  0  0  0  0  0  0  0  0
   40.1340   33.7100   41.4410 H   0  0  0  0  0  0  0  0  0  0  0  0
   37.8750   34.4150   41.3690 H   0  0  0  0  0  0  0  0  0  0  0  0
   37.1820   32.8900   41.8770 H   0  0  0  0  0  0  0  0  0  0  0  0
   37.8090   30.8680   40.3570 H   0  0  0  0  0  0  0  0  0  0  0  0
   38.7770   31.4770   38.9010 H   0  0  0  0  0  0  0  0  0  0  0  0
   40.6830   31.8150   40.2170 H   0  0  0  0  0  0  0  0  0  0  0  0
   38.1940   29.4610   42.1450 F   0  0  0  0  0  0  0  0  0  0  0  0
   39.1810   28.9910   41.3570 C   0  0  0  0  0  0  0  0  0  0  0  0
   40.0360   29.8270   40.6370 C   0  0  0  0  0  0  0  0  0  0  0  0
   41.0190   29.2420   39.8550 C   0  0  0  0  0  0  0  0  0  0  0  0
   41.6930   29.8930   39.2880 H   0  0  0  0  0  0  0  0  0  0  0  0
   41.1930   27.8760   39.7560 C   0  0  0  0  0  0  0  0  0  0  0  0
   41.9610   27.4240   39.1450 H   0  0  0  0  0  0  0  0  0  0  0  0
   40.3220   27.0680   40.4890 C   0  0  0  0  0  3  0  0  0  0  0  0
   39.3420   27.6190   41.2690 C   0  0  0  0  0  3  0  0  0  0  0  0
  1  7  1  0  0  0  0
  2 11  1  0  0  0  0
  2  3  1  0  0  0  0
  3 17  1  0  0  0  0
  4  3  2  0  0  0  0
  4 12  1  0  0  0  0
  5  4  1  0  0  0  0
  6 13  1  0  0  0  0
  6  5  1  0  0  0  0
  7  6  1  0  0  0  0
  8  7  2  0  0  0  0
  8  9  1  0  0  0  0
  9 10  1  0  0  0  0
  9  5  2  0  0  0  0
 10  2  2  0  0  0  0
 14 10  1  0  0  0  0
 15 20  1  0  0  0  0
 15 21  1  0  0  0  0
 16 15  2  0  0  0  0
 17 18  2  0  0  0  0
 17 16  1  0  0  0  0
 18 19  1  0  0  0  0
 19 23  1  0  0  0  0
 19 20  2  0  0  0  0
 22 16  1  0  0  0  0
 24 30  1  0  0  0  0
 25 31  1  6  0  0  0
 25 24  1  0  0  0  0
 25  1  1  0  0  0  0
 26 33  1  0  0  0  0
 26 25  1  0  0  0  0
 27 26  1  0  0  0  0
 28 27  1  0  0  0  0
 28 34  1  0  0  0  0
 28 29  1  0  0  0  0
 29 36  1  6  0  0  0
 29 24  1  0  0  0  0
 32 26  1  0  0  0  0
 35 28  1  0  0  0  0
 38 37  1  0  0  0  0
 39 29  1  0  0  0  0
 39 38  2  0  0  0  0
 40 39  1  0  0  0  0
 41 40  1  0  0  0  0
 42 40  2  0  0  0  0
 42 44  1  0  0  0  0
 43 42  1  0  0  0  0
 44 45  2  0  0  0  0
 45 38  1  0  0  0  0
M  END
>  <minimizedAffinity>
-6.13737297

>  <minimizedRMSD>
0.707614779

$$$$
