
 OpenBabel03262523163D

 39 42  0  0  0  0  0  0  0  0999 V2000
   34.7030   29.0040   48.2470 C   0  0  0  0  0  0  0  0  0  0  0  0
   34.3250   27.7580   48.7150 C   0  0  0  0  0  0  0  0  0  0  0  0
   33.1670   27.2880   48.1500 C   0  0  0  0  0  0  0  0  0  0  0  0
   32.4440   27.9840   47.2060 C   0  0  0  0  0  0  0  0  0  0  0  0
   32.8970   29.2100   46.8060 C   0  0  0  0  0  0  0  0  0  0  0  0
   34.0300   29.7130   47.3340 N   0  0  0  0  0  0  0  0  0  0  0  0
   34.9180   27.2410   49.4560 H   0  0  0  0  0  0  0  0  0  0  0  0
   32.8110   26.3020   48.4790 H   0  0  0  0  0  0  0  0  0  0  0  0
   31.5510   27.5070   46.8290 H   0  0  0  0  0  0  0  0  0  0  0  0
   29.8770   29.1080   46.9320 Cl  0  0  0  0  0  0  0  0  0  0  0  0
   30.8080   30.0180   45.7890 C   0  0  0  0  0  0  0  0  0  0  0  0
   32.1820   29.9940   45.8190 C   0  0  0  0  0  0  0  0  0  0  0  0
   32.7900   30.7740   44.8430 C   0  0  0  0  0  0  0  0  0  0  0  0
   32.1230   31.5170   43.9120 C   0  0  0  0  0  0  0  0  0  0  0  0
   30.7360   31.5140   43.9140 C   0  0  0  0  0  0  0  0  0  0  0  0
   29.8590   32.4530   42.7350 Cl  0  0  0  0  0  0  0  0  0  0  0  0
   30.0890   30.7590   44.8580 C   0  0  0  0  0  0  0  0  0  0  0  0
   33.8710   30.8010   44.8130 H   0  0  0  0  0  0  0  0  0  0  0  0
   32.6470   32.1040   43.1770 H   0  0  0  0  0  0  0  0  0  0  0  0
   29.0080   30.7740   44.8380 H   0  0  0  0  0  0  0  0  0  0  0  0
   37.3550   30.0820   50.5540 C   0  0  0  0  0  0  0  0  0  0  0  0
   38.2560   30.7300   49.7040 C   0  0  0  0  0  0  0  0  0  0  0  0
   37.9490   30.7930   48.3630 C   0  0  0  0  0  0  0  0  0  0  0  0
   36.7920   30.2210   47.9630 N   0  0  0  0  0  0  0  0  0  0  0  0
   35.9320   29.6000   48.7800 C   0  0  0  0  0  0  0  0  0  0  0  0
   36.2430   29.5470   50.0810 N   0  0  0  0  0  0  0  0  0  0  0  0
   39.1390   31.1550   50.0860 H   0  0  0  0  0  0  0  0  0  0  0  0
   39.0020   33.4840   48.3640 F   0  0  0  0  0  0  0  0  0  0  0  0
   39.2610   32.6850   47.3090 C   0  0  0  0  0  0  0  0  0  0  0  0
   38.7520   31.4180   47.3350 C   0  0  0  0  0  0  0  0  0  0  0  0
   39.0750   30.6880   46.2100 C   0  0  0  0  0  0  0  0  0  0  0  0
   38.7470   29.6570   46.0710 H   0  0  0  0  0  0  0  0  0  0  0  0
   39.8350   31.1890   45.1740 C   0  0  0  0  0  0  0  0  0  0  0  0
   40.0690   30.5870   44.3090 H   0  0  0  0  0  0  0  0  0  0  0  0
   40.3200   32.4770   45.2100 C   0  0  0  0  0  0  0  0  0  0  0  0
   40.0240   33.2470   46.3120 C   0  0  0  0  0  0  0  0  0  0  0  0
   37.5860   29.9630   51.9710 N   0  0  0  0  0  0  0  0  0  0  0  0
   37.3420   30.6510   52.7130 H   0  0  0  0  0  0  0  0  0  0  0  0
   38.0490   29.0500   52.1070 H   0  0  0  0  0  0  0  0  0  0  0  0
  1  2  1  0  0  0  0
  1 25  1  0  0  0  0
  2  7  1  0  0  0  0
  3  8  1  0  0  0  0
  3  2  2  0  0  0  0
  4  3  1  0  0  0  0
  5  4  2  0  0  0  0
  5  6  1  0  0  0  0
  6  1  2  0  0  0  0
  9  4  1  0  0  0  0
 11 12  1  0  0  0  0
 11 10  1  0  0  0  0
 12  5  1  0  0  0  0
 13 12  2  0  0  0  0
 14 15  2  0  0  0  0
 14 13  1  0  0  0  0
 15 17  1  0  0  0  0
 16 15  1  0  0  0  0
 17 11  2  0  0  0  0
 18 13  1  0  0  0  0
 19 14  1  0  0  0  0
 20 17  1  0  0  0  0
 21 37  1  0  0  0  0
 22 27  1  0  0  0  0
 22 21  2  0  0  0  0
 23 22  1  0  0  0  0
 24 23  2  0  0  0  0
 24 25  1  0  0  0  0
 25 26  2  0  0  0  0
 26 21  1  0  0  0  0
 29 30  1  0  0  0  0
 29 28  1  0  0  0  0
 30 23  1  0  0  0  0
 31 30  2  0  0  0  0
 32 31  1  0  0  0  0
 33 35  2  0  0  0  0
 33 31  1  0  0  0  0
 34 33  1  0  0  0  0
 35 36  1  0  0  0  0
 36 29  2  0  0  0  0
 37 39  1  0  0  0  0
 37 38  1  0  0  0  0
M  END
>  <minimizedAffinity>
-7.75212908

>  <minimizedRMSD>
1.18141711

$$$$
