
 OpenBabel03272503163D

 25 27  0  0  0  0  0  0  0  0999 V2000
   37.7630   31.2920   48.3540 C   0  0  0  0  0  0  0  0  0  0  0  0
   38.7150   32.2220   48.2360 C   0  0  0  0  0  0  0  0  0  0  0  0
   39.0550   32.7210   47.0380 C   0  0  0  0  0  0  0  0  0  0  0  0
   38.3720   32.2250   45.9340 C   0  0  0  0  0  0  0  0  0  0  0  0
   37.2210   31.0070   46.7070 S   0  0  0  0  0  0  0  0  0  0  0  0
   39.2170   32.5720   49.1560 H   0  0  0  0  0  0  0  0  0  0  0  0
   39.8010   33.4690   46.8140 H   0  0  0  0  0  0  0  0  0  0  0  0
   37.2990   29.9320   51.8250 C   0  0  0  0  0  0  0  0  0  0  0  0
   37.8890   30.6130   50.7540 C   0  0  0  0  0  0  0  0  0  0  0  0
   37.2290   30.6100   49.5270 C   0  0  0  0  0  0  0  0  0  0  0  0
   36.0580   29.9590   49.4120 N   0  0  0  0  0  0  0  0  0  0  0  0
   35.5080   29.3060   50.4620 C   0  0  0  0  0  0  0  0  0  0  0  0
   36.1330   29.2990   51.6550 N   0  0  0  0  0  0  0  0  0  0  0  0
   37.9160   30.0180   52.7090 H   0  0  0  0  0  0  0  0  0  0  0  0
   38.8210   31.1490   50.7930 H   0  0  0  0  0  0  0  0  0  0  0  0
   34.5550   28.7760   50.3640 H   0  0  0  0  0  0  0  0  0  0  0  0
   40.7490   32.9470   44.7070 F   0  0  0  0  0  0  0  0  0  0  0  0
   39.6290   32.8340   43.9580 C   0  0  0  0  0  0  0  0  0  0  0  0
   38.4260   32.4800   44.5160 C   0  0  0  0  0  0  0  0  0  0  0  0
   37.2350   32.3340   43.8740 C   0  0  0  0  0  0  0  0  0  0  0  0
   36.3140   32.0550   44.3430 H   0  0  0  0  0  0  0  0  0  0  0  0
   37.2140   32.5660   42.4920 C   0  0  0  0  0  0  0  0  0  0  0  0
   36.3200   32.4740   41.9060 H   0  0  0  0  0  0  0  0  0  0  0  0
   38.4070   32.9320   41.8590 C   0  0  0  0  0  0  0  0  0  0  0  0
   39.5880   33.0620   42.5820 C   0  0  0  0  0  0  0  0  0  0  0  0
  1 10  1  0  0  0  0
  2  1  2  0  0  0  0
  2  6  1  0  0  0  0
  3  2  1  0  0  0  0
  4  5  1  0  0  0  0
  4  3  2  0  0  0  0
  5  1  1  0  0  0  0
  7  3  1  0  0  0  0
  8 14  1  0  0  0  0
  9 15  1  0  0  0  0
  9  8  2  0  0  0  0
 10  9  1  0  0  0  0
 11 10  2  0  0  0  0
 11 12  1  0  0  0  0
 12 13  2  0  0  0  0
 13  8  1  0  0  0  0
 16 12  1  0  0  0  0
 18 19  1  0  0  0  0
 18 17  1  0  0  0  0
 19  4  1  0  0  0  0
 20 21  1  0  0  0  0
 20 19  2  0  0  0  0
 22 20  1  0  0  0  0
 23 22  1  0  0  0  0
 24 22  2  0  0  0  0
 24 25  1  0  0  0  0
 25 18  2  0  0  0  0
M  END
>  <minimizedAffinity>
-5.66322708

>  <minimizedRMSD>
0.876766443

$$$$
