
 OpenBabel03272510273D

 45 49  0  0  1  0  0  0  0  0999 V2000
   39.4700   33.5740   43.4550 O   0  0  0  0  0  0  0  0  0  0  0  0
   36.1460   30.1840   46.9840 C   0  0  0  0  0  0  0  0  0  0  0  0
   37.0050   30.6790   47.9340 C   0  0  0  0  0  0  0  0  0  0  0  0
   38.0340   31.5680   47.5780 C   0  0  0  0  0  0  0  0  0  0  0  0
   38.1370   31.9160   46.2510 C   0  0  0  0  0  0  0  0  0  0  0  0
   39.0410   32.7640   45.6730 N   0  0  0  0  0  0  0  0  0  0  0  0
   38.7360   32.7900   44.3610 C   0  0  0  0  0  0  0  0  0  0  0  0
   37.7060   32.0110   44.1050 N   0  0  0  0  0  0  0  0  0  0  0  0
   37.2920   31.4380   45.2680 C   0  0  0  0  0  0  0  0  0  0  0  0
   36.2780   30.5550   45.6510 C   0  0  0  0  0  0  0  0  0  0  0  0
   35.3370   29.4990   47.1980 H   0  0  0  0  0  0  0  0  0  0  0  0
   38.7280   31.9750   48.3040 H   0  0  0  0  0  0  0  0  0  0  0  0
   39.8110   33.2860   46.1550 H   0  0  0  0  0  0  0  0  0  0  0  0
   35.6180   30.1820   44.8820 H   0  0  0  0  0  0  0  0  0  0  0  0
   37.3990   30.0750   51.6290 C   0  0  0  0  0  0  0  0  0  0  0  0
   37.7190   30.5070   50.3540 C   0  0  0  0  0  0  0  0  0  0  0  0
   36.8420   30.2910   49.3230 C   0  0  0  0  0  0  0  0  0  0  0  0
   35.6650   29.6390   49.6300 N   0  0  0  0  0  0  0  0  0  0  0  0
   35.3520   29.2190   50.8650 C   0  0  0  0  0  0  0  0  0  0  0  0
   36.2070   29.4350   51.8490 N   0  0  0  0  0  0  0  0  0  0  0  0
   38.1100   30.2590   52.4230 H   0  0  0  0  0  0  0  0  0  0  0  0
   38.6330   31.0200   50.0890 H   0  0  0  0  0  0  0  0  0  0  0  0
   34.4190   28.7240   51.0070 H   0  0  0  0  0  0  0  0  0  0  0  0
   39.7660   31.7310   42.1460 N   0  0  0  0  0  0  0  0  0  0  0  0
   39.4110   33.1670   42.0910 C   0  0  1  0  0  0  0  0  0  0  0  0
   38.0790   33.3030   41.5280 C   0  0  0  0  0  0  0  0  0  0  0  0
   38.1160   32.8610   40.1920 O   0  0  0  0  0  0  0  0  0  0  0  0
   38.5790   31.5940   40.0090 C   0  0  0  0  0  0  0  0  0  0  0  0
   39.8520   31.3020   40.7700 C   0  0  2  0  0  0  0  0  0  0  0  0
   40.7470   31.7980   42.5280 H   0  0  0  0  0  0  0  0  0  0  0  0
   40.1420   33.7130   41.4700 H   0  0  0  0  0  0  0  0  0  0  0  0
   37.8810   34.4130   41.4130 H   0  0  0  0  0  0  0  0  0  0  0  0
   37.1940   32.8840   41.9170 H   0  0  0  0  0  0  0  0  0  0  0  0
   37.8180   30.8710   40.3850 H   0  0  0  0  0  0  0  0  0  0  0  0
   38.7780   31.4880   38.9270 H   0  0  0  0  0  0  0  0  0  0  0  0
   40.6890   31.8250   40.2360 H   0  0  0  0  0  0  0  0  0  0  0  0
   38.2320   29.4570   42.1850 F   0  0  0  0  0  0  0  0  0  0  0  0
   39.2080   28.9930   41.3800 C   0  0  0  0  0  0  0  0  0  0  0  0
   40.0480   29.8330   40.6490 C   0  0  0  0  0  0  0  0  0  0  0  0
   41.0220   29.2550   39.8510 C   0  0  0  0  0  0  0  0  0  0  0  0
   41.6840   29.9090   39.2750 H   0  0  0  0  0  0  0  0  0  0  0  0
   41.1990   27.8890   39.7440 C   0  0  0  0  0  0  0  0  0  0  0  0
   41.9580   27.4420   39.1210 H   0  0  0  0  0  0  0  0  0  0  0  0
   40.3410   27.0760   40.4880 C   0  0  0  0  0  3  0  0  0  0  0  0
   39.3710   27.6210   41.2850 C   0  0  0  0  0  3  0  0  0  0  0  0
  1  7  1  0  0  0  0
  2 11  1  0  0  0  0
  2  3  1  0  0  0  0
  3 17  1  0  0  0  0
  4  3  2  0  0  0  0
  4 12  1  0  0  0  0
  5  4  1  0  0  0  0
  6 13  1  0  0  0  0
  6  5  1  0  0  0  0
  7  6  1  0  0  0  0
  8  7  2  0  0  0  0
  8  9  1  0  0  0  0
  9 10  1  0  0  0  0
  9  5  2  0  0  0  0
 10  2  2  0  0  0  0
 14 10  1  0  0  0  0
 15 20  1  0  0  0  0
 15 21  1  0  0  0  0
 16 15  2  0  0  0  0
 17 18  2  0  0  0  0
 17 16  1  0  0  0  0
 18 19  1  0  0  0  0
 19 23  1  0  0  0  0
 19 20  2  0  0  0  0
 22 16  1  0  0  0  0
 24 30  1  0  0  0  0
 25 31  1  6  0  0  0
 25 24  1  0  0  0  0
 25  1  1  0  0  0  0
 26 33  1  0  0  0  0
 26 25  1  0  0  0  0
 27 26  1  0  0  0  0
 28 27  1  0  0  0  0
 28 34  1  0  0  0  0
 28 29  1  0  0  0  0
 29 36  1  6  0  0  0
 29 24  1  0  0  0  0
 32 26  1  0  0  0  0
 35 28  1  0  0  0  0
 38 37  1  0  0  0  0
 39 29  1  0  0  0  0
 39 38  2  0  0  0  0
 40 39  1  0  0  0  0
 41 40  1  0  0  0  0
 42 40  2  0  0  0  0
 42 44  1  0  0  0  0
 43 42  1  0  0  0  0
 44 45  2  0  0  0  0
 45 38  1  0  0  0  0
M  END
>  <minimizedAffinity>
-6.13082981

>  <minimizedRMSD>
0.947124839

$$$$
