
 OpenBabel03272510273D

 45 49  0  0  1  0  0  0  0  0999 V2000
   39.4470   33.6200   43.4210 O   0  0  0  0  0  0  0  0  0  0  0  0
   36.1930   30.1620   46.9480 C   0  0  0  0  0  0  0  0  0  0  0  0
   37.0300   30.6880   47.9020 C   0  0  0  0  0  0  0  0  0  0  0  0
   38.0350   31.6040   47.5470 C   0  0  0  0  0  0  0  0  0  0  0  0
   38.1400   31.9440   46.2180 C   0  0  0  0  0  0  0  0  0  0  0  0
   39.0230   32.8150   45.6410 N   0  0  0  0  0  0  0  0  0  0  0  0
   38.7290   32.8220   44.3270 C   0  0  0  0  0  0  0  0  0  0  0  0
   37.7240   32.0120   44.0690 N   0  0  0  0  0  0  0  0  0  0  0  0
   37.3170   31.4350   45.2320 C   0  0  0  0  0  0  0  0  0  0  0  0
   36.3260   30.5260   45.6140 C   0  0  0  0  0  0  0  0  0  0  0  0
   35.4020   29.4550   47.1610 H   0  0  0  0  0  0  0  0  0  0  0  0
   38.7110   32.0350   48.2760 H   0  0  0  0  0  0  0  0  0  0  0  0
   39.7740   33.3620   46.1260 H   0  0  0  0  0  0  0  0  0  0  0  0
   35.6830   30.1290   44.8420 H   0  0  0  0  0  0  0  0  0  0  0  0
   37.4230   30.0990   51.5990 C   0  0  0  0  0  0  0  0  0  0  0  0
   37.7430   30.5260   50.3220 C   0  0  0  0  0  0  0  0  0  0  0  0
   36.8670   30.3060   49.2920 C   0  0  0  0  0  0  0  0  0  0  0  0
   35.6900   29.6540   49.6010 N   0  0  0  0  0  0  0  0  0  0  0  0
   35.3770   29.2390   50.8380 C   0  0  0  0  0  0  0  0  0  0  0  0
   36.2310   29.4590   51.8210 N   0  0  0  0  0  0  0  0  0  0  0  0
   38.1330   30.2860   52.3930 H   0  0  0  0  0  0  0  0  0  0  0  0
   38.6570   31.0380   50.0550 H   0  0  0  0  0  0  0  0  0  0  0  0
   34.4430   28.7440   50.9820 H   0  0  0  0  0  0  0  0  0  0  0  0
   39.7640   31.8380   42.0350 N   0  0  0  0  0  0  0  0  0  0  0  0
   39.3370   33.2560   42.0480 C   0  0  1  0  0  0  0  0  0  0  0  0
   37.9730   33.3430   41.5580 C   0  0  0  0  0  0  0  0  0  0  0  0
   37.9600   32.9480   40.2080 O   0  0  0  0  0  0  0  0  0  0  0  0
   38.4750   31.7120   39.9570 C   0  0  0  0  0  0  0  0  0  0  0  0
   39.7980   31.4590   40.6420 C   0  0  2  0  0  0  0  0  0  0  0  0
   40.7590   31.9420   42.3680 H   0  0  0  0  0  0  0  0  0  0  0  0
   40.0070   33.8580   41.4110 H   0  0  0  0  0  0  0  0  0  0  0  0
   37.7150   34.4450   41.4930 H   0  0  0  0  0  0  0  0  0  0  0  0
   37.1300   32.8670   41.9760 H   0  0  0  0  0  0  0  0  0  0  0  0
   37.7710   30.9400   40.3440 H   0  0  0  0  0  0  0  0  0  0  0  0
   38.6220   31.6520   38.8630 H   0  0  0  0  0  0  0  0  0  0  0  0
   40.5800   32.0420   40.0840 H   0  0  0  0  0  0  0  0  0  0  0  0
   42.3500   30.4840   39.8870 F   0  0  0  0  0  0  0  0  0  0  0  0
   41.3450   29.6090   40.0870 C   0  0  0  0  0  0  0  0  0  0  0  0
   40.0600   30.0070   40.4590 C   0  0  0  0  0  0  0  0  0  0  0  0
   39.0970   29.0280   40.6400 C   0  0  0  0  0  0  0  0  0  0  0  0
   38.0860   29.3350   40.9320 H   0  0  0  0  0  0  0  0  0  0  0  0
   39.3460   27.6810   40.4690 C   0  0  0  0  0  0  0  0  0  0  0  0
   38.5930   26.9210   40.6100 H   0  0  0  0  0  0  0  0  0  0  0  0
   40.6420   27.3160   40.0970 C   0  0  0  0  0  0  0  0  0  0  0  0
   41.6130   28.2630   39.9110 C   0  0  0  0  0  0  0  0  0  0  0  0
  1  7  1  0  0  0  0
  2 11  1  0  0  0  0
  2  3  1  0  0  0  0
  3 17  1  0  0  0  0
  4  3  2  0  0  0  0
  4 12  1  0  0  0  0
  5  4  1  0  0  0  0
  6 13  1  0  0  0  0
  6  5  1  0  0  0  0
  7  6  1  0  0  0  0
  8  7  2  0  0  0  0
  8  9  1  0  0  0  0
  9 10  1  0  0  0  0
  9  5  2  0  0  0  0
 10  2  2  0  0  0  0
 14 10  1  0  0  0  0
 15 20  1  0  0  0  0
 15 21  1  0  0  0  0
 16 15  2  0  0  0  0
 17 18  2  0  0  0  0
 17 16  1  0  0  0  0
 18 19  1  0  0  0  0
 19 23  1  0  0  0  0
 19 20  2  0  0  0  0
 22 16  1  0  0  0  0
 24 25  1  0  0  0  0
 24 30  1  0  0  0  0
 25 31  1  6  0  0  0
 25  1  1  0  0  0  0
 26 33  1  0  0  0  0
 26 25  1  0  0  0  0
 27 26  1  0  0  0  0
 28 27  1  0  0  0  0
 28 34  1  0  0  0  0
 28 29  1  0  0  0  0
 29 36  1  6  0  0  0
 29 24  1  0  0  0  0
 32 26  1  0  0  0  0
 35 28  1  0  0  0  0
 37 38  1  0  0  0  0
 38 39  1  0  0  0  0
 39 40  2  0  0  0  0
 39 29  1  0  0  0  0
 40 41  1  0  0  0  0
 42 43  1  0  0  0  0
 42 40  1  0  0  0  0
 44 42  2  0  0  0  0
 45 38  2  0  0  0  0
 45 44  1  0  0  0  0
M  END
>  <minimizedAffinity>
-6.19426394

>  <minimizedRMSD>
0.51669383

$$$$
