
 OpenBabel03272503233D

 30 32  0  0  1  0  0  0  0  0999 V2000
   36.2960   29.7460   49.4920 N   0  0  0  0  0  0  0  0  0  0  0  0
   36.8680   31.0860   49.5440 C   0  0  1  0  0  0  0  0  0  0  0  0
   37.4470   31.1210   50.9350 C   0  0  0  0  0  0  0  0  0  0  0  0
   37.0910   29.7920   51.6050 C   0  0  0  0  0  0  0  0  0  0  0  0
   37.0330   28.8940   50.3970 C   0  0  0  0  0  0  0  0  0  0  0  0
   36.0560   31.8600   49.5460 H   0  0  0  0  0  0  0  0  0  0  0  0
   38.5430   31.2640   50.8950 H   0  0  0  0  0  0  0  0  0  0  0  0
   36.9910   31.8860   51.5970 H   0  0  0  0  0  0  0  0  0  0  0  0
   37.9360   29.4760   52.2210 H   0  0  0  0  0  0  0  0  0  0  0  0
   36.1200   29.8200   52.1040 H   0  0  0  0  0  0  0  0  0  0  0  0
   37.9700   28.4970   50.0440 H   0  0  0  0  0  0  0  0  0  0  0  0
   36.3950   28.0040   50.6640 H   0  0  0  0  0  0  0  0  0  0  0  0
   35.1820   29.3190   48.6940 C   0  0  0  0  0  0  0  0  0  0  0  0
   34.6420   30.2700   47.8100 C   0  0  0  0  0  0  0  0  0  0  0  0
   33.5550   29.8780   47.0360 C   0  0  0  0  0  0  0  0  0  0  0  0
   33.0930   28.5870   47.1970 N   0  0  0  0  0  0  0  0  0  0  0  0
   33.6400   27.7120   48.0510 C   0  0  0  0  0  0  0  0  0  0  0  0
   34.7000   28.0880   48.8100 N   0  0  0  0  0  0  0  0  0  0  0  0
   34.9890   31.2710   47.6760 H   0  0  0  0  0  0  0  0  0  0  0  0
   33.1070   30.5570   46.3500 H   0  0  0  0  0  0  0  0  0  0  0  0
   33.2090   26.7220   48.1080 H   0  0  0  0  0  0  0  0  0  0  0  0
   38.0370   33.5760   49.4200 F   0  0  0  0  0  0  0  0  0  0  0  0
   38.3560   32.6820   48.4350 C   0  0  0  0  0  0  0  0  0  0  0  0
   37.7840   31.4040   48.4620 C   0  0  0  0  0  0  0  0  0  0  0  0
   38.1880   30.6060   47.4130 C   0  0  0  0  0  0  0  0  0  0  0  0
   37.7730   29.6090   47.3880 H   0  0  0  0  0  0  0  0  0  0  0  0
   39.0630   30.9810   46.4170 C   0  0  0  0  0  0  0  0  0  0  0  0
   39.3230   30.2730   45.6250 H   0  0  0  0  0  0  0  0  0  0  0  0
   39.5890   32.2540   46.4500 C   0  0  0  0  0  0  0  0  0  0  0  0
   39.2360   33.1170   47.4660 C   0  0  0  0  0  0  0  0  0  0  0  0
  1  2  1  0  0  0  0
  1  5  1  0  0  0  0
  2  6  1  6  0  0  0
  2  3  1  0  0  0  0
  3  8  1  0  0  0  0
  3  4  1  0  0  0  0
  4 10  1  0  0  0  0
  4  9  1  0  0  0  0
  5 12  1  0  0  0  0
  5  4  1  0  0  0  0
  7  3  1  0  0  0  0
 11  5  1  0  0  0  0
 13 18  1  0  0  0  0
 13  1  1  0  0  0  0
 14 13  2  0  0  0  0
 15 16  2  0  0  0  0
 15 14  1  0  0  0  0
 16 17  1  0  0  0  0
 17 21  1  0  0  0  0
 17 18  2  0  0  0  0
 19 14  1  0  0  0  0
 20 15  1  0  0  0  0
 23 24  1  0  0  0  0
 23 22  1  0  0  0  0
 24  2  1  0  0  0  0
 25 24  2  0  0  0  0
 26 25  1  0  0  0  0
 27 29  2  0  0  0  0
 27 25  1  0  0  0  0
 28 27  1  0  0  0  0
 29 30  1  0  0  0  0
 30 23  2  0  0  0  0
M  END
>  <minimizedAffinity>
-6.16899157

>  <minimizedRMSD>
2.26701641

$$$$
