
 OpenBabel03272503233D

 30 32  0  0  1  0  0  0  0  0999 V2000
   38.5380   25.4240   33.7360 N   0  0  0  0  0  0  0  0  0  0  0  0
   39.6300   24.8820   34.5360 C   0  0  1  0  0  0  0  0  0  0  0  0
   40.6280   26.0100   34.5040 C   0  0  0  0  0  0  0  0  0  0  0  0
   40.0420   27.1040   33.6090 C   0  0  0  0  0  0  0  0  0  0  0  0
   38.5710   26.8660   33.8290 C   0  0  0  0  0  0  0  0  0  0  0  0
   40.1290   24.0330   33.9970 H   0  0  0  0  0  0  0  0  0  0  0  0
   40.8170   26.3910   35.5250 H   0  0  0  0  0  0  0  0  0  0  0  0
   41.5900   25.7500   34.0150 H   0  0  0  0  0  0  0  0  0  0  0  0
   40.2940   28.0760   34.0390 H   0  0  0  0  0  0  0  0  0  0  0  0
   40.2950   26.9680   32.5560 H   0  0  0  0  0  0  0  0  0  0  0  0
   38.1340   27.3110   34.7070 H   0  0  0  0  0  0  0  0  0  0  0  0
   38.0190   27.3030   32.9480 H   0  0  0  0  0  0  0  0  0  0  0  0
   37.5850   24.6770   32.9660 C   0  0  0  0  0  0  0  0  0  0  0  0
   36.6430   25.4240   32.2380 C   0  0  0  0  0  0  0  0  0  0  0  0
   35.7040   24.7190   31.4930 C   0  0  0  0  0  0  0  0  0  0  0  0
   35.7710   23.3400   31.5300 N   0  0  0  0  0  0  0  0  0  0  0  0
   36.6870   22.6670   32.2380 C   0  0  0  0  0  0  0  0  0  0  0  0
   37.6060   23.3500   32.9670 N   0  0  0  0  0  0  0  0  0  0  0  0
   36.5800   26.4910   32.2010 H   0  0  0  0  0  0  0  0  0  0  0  0
   34.9670   25.2340   30.9240 H   0  0  0  0  0  0  0  0  0  0  0  0
   36.6610   21.5870   32.2050 H   0  0  0  0  0  0  0  0  0  0  0  0
   41.0740   22.8740   35.7480 F   0  0  0  0  0  0  0  0  0  0  0  0
   40.0050   23.3820   36.4340 C   0  0  0  0  0  0  0  0  0  0  0  0
   39.2450   24.4060   35.8540 C   0  0  0  0  0  0  0  0  0  0  0  0
   38.2010   24.8240   36.6500 C   0  0  0  0  0  0  0  0  0  0  0  0
   37.5820   25.6130   36.2450 H   0  0  0  0  0  0  0  0  0  0  0  0
   37.8940   24.3200   37.8950 C   0  0  0  0  0  0  0  0  0  0  0  0
   37.0410   24.7200   38.4510 H   0  0  0  0  0  0  0  0  0  0  0  0
   38.6840   23.3130   38.4080 C   0  0  0  0  0  3  0  0  0  0  0  0
   39.7500   22.8360   37.6750 C   0  0  0  0  0  3  0  0  0  0  0  0
  1  5  1  0  0  0  0
  1  2  1  0  0  0  0
  2  6  1  6  0  0  0
  2 24  1  0  0  0  0
  3  2  1  0  0  0  0
  3  7  1  0  0  0  0
  4  5  1  0  0  0  0
  4  9  1  0  0  0  0
  4  3  1  0  0  0  0
  5 11  1  0  0  0  0
  8  3  1  0  0  0  0
 10  4  1  0  0  0  0
 12  5  1  0  0  0  0
 13 18  1  0  0  0  0
 13  1  1  0  0  0  0
 14 13  2  0  0  0  0
 15 16  2  0  0  0  0
 15 14  1  0  0  0  0
 16 17  1  0  0  0  0
 17 18  2  0  0  0  0
 19 14  1  0  0  0  0
 20 15  1  0  0  0  0
 21 17  1  0  0  0  0
 22 23  1  0  0  0  0
 23 30  1  0  0  0  0
 24 23  2  0  0  0  0
 24 25  1  0  0  0  0
 25 27  2  0  0  0  0
 26 25  1  0  0  0  0
 27 29  1  0  0  0  0
 27 28  1  0  0  0  0
 30 29  2  0  0  0  0
M  END
>  <minimizedAffinity>
-5.1797204

$$$$

 OpenBabel03272503233D

 30 32  0  0  1  0  0  0  0  0999 V2000
   38.5130   23.9490   35.9980 N   0  0  0  0  0  0  0  0  0  0  0  0
   38.8500   22.7030   35.3190 C   0  0  1  0  0  0  0  0  0  0  0  0
   39.7580   22.0390   36.3220 C   0  0  0  0  0  0  0  0  0  0  0  0
   39.9260   23.0130   37.4910 C   0  0  0  0  0  0  0  0  0  0  0  0
   38.6070   23.7360   37.4240 C   0  0  0  0  0  0  0  0  0  0  0  0
   39.4980   22.9050   34.4260 H   0  0  0  0  0  0  0  0  0  0  0  0
   39.3250   21.0810   36.6630 H   0  0  0  0  0  0  0  0  0  0  0  0
   40.7940   21.8760   35.9570 H   0  0  0  0  0  0  0  0  0  0  0  0
   39.9510   22.4390   38.4190 H   0  0  0  0  0  0  0  0  0  0  0  0
   40.7510   23.7130   37.3400 H   0  0  0  0  0  0  0  0  0  0  0  0
   37.7690   23.2590   37.9060 H   0  0  0  0  0  0  0  0  0  0  0  0
   38.7370   24.7320   37.9360 H   0  0  0  0  0  0  0  0  0  0  0  0
   38.1560   25.1940   35.3800 C   0  0  0  0  0  0  0  0  0  0  0  0
   38.3150   26.3510   36.1640 C   0  0  0  0  0  0  0  0  0  0  0  0
   37.9650   27.5670   35.5860 C   0  0  0  0  0  0  0  0  0  0  0  0
   37.4890   27.5410   34.2900 N   0  0  0  0  0  0  0  0  0  0  0  0
   37.3550   26.4130   33.5790 C   0  0  0  0  0  0  0  0  0  0  0  0
   37.6940   25.2240   34.1370 N   0  0  0  0  0  0  0  0  0  0  0  0
   38.6810   26.3850   37.1670 H   0  0  0  0  0  0  0  0  0  0  0  0
   38.0640   28.4740   36.1340 H   0  0  0  0  0  0  0  0  0  0  0  0
   36.9740   26.4920   32.5710 H   0  0  0  0  0  0  0  0  0  0  0  0
   38.5660   22.0850   32.6510 F   0  0  0  0  0  0  0  0  0  0  0  0
   37.6010   21.6300   33.5080 C   0  0  0  0  0  0  0  0  0  0  0  0
   37.7090   21.9210   34.8740 C   0  0  0  0  0  0  0  0  0  0  0  0
   36.6730   21.4050   35.6220 C   0  0  0  0  0  0  0  0  0  0  0  0
   36.7100   21.6040   36.6830 H   0  0  0  0  0  0  0  0  0  0  0  0
   35.6180   20.6710   35.1250 C   0  0  0  0  0  0  0  0  0  0  0  0
   34.8420   20.3040   35.8030 H   0  0  0  0  0  0  0  0  0  0  0  0
   35.5730   20.4210   33.7700 C   0  0  0  0  0  3  0  0  0  0  0  0
   36.5710   20.9020   32.9500 C   0  0  0  0  0  3  0  0  0  0  0  0
  1  5  1  0  0  0  0
  2  6  1  6  0  0  0
  2  1  1  0  0  0  0
  2  3  1  0  0  0  0
  3  7  1  0  0  0  0
  3  4  1  0  0  0  0
  4  9  1  0  0  0  0
  5  4  1  0  0  0  0
  5 11  1  0  0  0  0
  5 12  1  0  0  0  0
  8  3  1  0  0  0  0
 10  4  1  0  0  0  0
 13  1  1  0  0  0  0
 13 14  1  0  0  0  0
 14 19  1  0  0  0  0
 15 20  1  0  0  0  0
 15 14  2  0  0  0  0
 16 15  1  0  0  0  0
 17 18  1  0  0  0  0
 17 16  2  0  0  0  0
 18 13  2  0  0  0  0
 21 17  1  0  0  0  0
 22 23  1  0  0  0  0
 23 24  1  0  0  0  0
 24  2  1  0  0  0  0
 24 25  2  0  0  0  0
 25 26  1  0  0  0  0
 27 25  1  0  0  0  0
 27 28  1  0  0  0  0
 29 27  2  0  0  0  0
 30 23  2  0  0  0  0
 30 29  1  0  0  0  0
M  END
>  <minimizedAffinity>
-5.05041885

$$$$

 OpenBabel03272503233D

 30 32  0  0  1  0  0  0  0  0999 V2000
   39.3930   25.2420   34.6370 N   0  0  0  0  0  0  0  0  0  0  0  0
   38.3760   25.8900   33.8170 C   0  0  1  0  0  0  0  0  0  0  0  0
   39.1620   27.0000   33.1690 C   0  0  0  0  0  0  0  0  0  0  0  0
   40.5810   26.9390   33.7370 C   0  0  0  0  0  0  0  0  0  0  0  0
   40.6850   25.4650   34.0300 C   0  0  0  0  0  0  0  0  0  0  0  0
   37.6190   26.4060   34.4640 H   0  0  0  0  0  0  0  0  0  0  0  0
   39.1690   26.8800   32.0690 H   0  0  0  0  0  0  0  0  0  0  0  0
   38.8100   28.0190   33.4340 H   0  0  0  0  0  0  0  0  0  0  0  0
   41.2860   27.1750   32.9370 H   0  0  0  0  0  0  0  0  0  0  0  0
   40.6910   27.5170   34.6570 H   0  0  0  0  0  0  0  0  0  0  0  0
   40.9580   24.8260   33.2070 H   0  0  0  0  0  0  0  0  0  0  0  0
   41.4860   25.3280   34.8120 H   0  0  0  0  0  0  0  0  0  0  0  0
   39.1780   24.5110   35.8530 C   0  0  0  0  0  0  0  0  0  0  0  0
   38.1040   24.9330   36.6570 C   0  0  0  0  0  0  0  0  0  0  0  0
   37.8850   24.2430   37.8450 C   0  0  0  0  0  0  0  0  0  0  0  0
   38.7400   23.1990   38.1400 N   0  0  0  0  0  0  0  0  0  0  0  0
   39.7520   22.8300   37.3430 C   0  0  0  0  0  0  0  0  0  0  0  0
   39.9710   23.5000   36.1830 N   0  0  0  0  0  0  0  0  0  0  0  0
   37.4360   25.7380   36.4410 H   0  0  0  0  0  0  0  0  0  0  0  0
   37.0870   24.5200   38.4920 H   0  0  0  0  0  0  0  0  0  0  0  0
   40.3680   22.0000   37.6570 H   0  0  0  0  0  0  0  0  0  0  0  0
   36.1350   26.7900   32.4950 F   0  0  0  0  0  0  0  0  0  0  0  0
   36.5240   25.4990   32.2650 C   0  0  0  0  0  0  0  0  0  0  0  0
   37.6610   25.0020   32.9160 C   0  0  0  0  0  0  0  0  0  0  0  0
   37.9400   23.6920   32.5950 C   0  0  0  0  0  0  0  0  0  0  0  0
   38.8080   23.2610   33.0740 H   0  0  0  0  0  0  0  0  0  0  0  0
   37.2080   22.9080   31.7290 C   0  0  0  0  0  0  0  0  0  0  0  0
   37.5130   21.8750   31.5390 H   0  0  0  0  0  0  0  0  0  0  0  0
   36.1010   23.4600   31.1220 C   0  0  0  0  0  3  0  0  0  0  0  0
   35.7510   24.7670   31.3880 C   0  0  0  0  0  3  0  0  0  0  0  0
  1 13  1  0  0  0  0
  2  6  1  1  0  0  0
  2  1  1  0  0  0  0
  3  8  1  0  0  0  0
  3  4  1  0  0  0  0
  3  2  1  0  0  0  0
  4  5  1  0  0  0  0
  4 10  1  0  0  0  0
  5  1  1  0  0  0  0
  5 12  1  0  0  0  0
  7  3  1  0  0  0  0
  9  4  1  0  0  0  0
 11  5  1  0  0  0  0
 13 18  2  0  0  0  0
 13 14  1  0  0  0  0
 14 15  2  0  0  0  0
 15 16  1  0  0  0  0
 15 20  1  0  0  0  0
 17 21  1  0  0  0  0
 17 16  2  0  0  0  0
 18 17  1  0  0  0  0
 19 14  1  0  0  0  0
 23 22  1  0  0  0  0
 23 24  1  0  0  0  0
 24  2  1  0  0  0  0
 25 24  2  0  0  0  0
 25 26  1  0  0  0  0
 27 25  1  0  0  0  0
 28 27  1  0  0  0  0
 29 30  1  0  0  0  0
 29 27  2  0  0  0  0
 30 23  2  0  0  0  0
M  END
>  <minimizedAffinity>
-4.89176512

$$$$

 OpenBabel03272503233D

 30 32  0  0  1  0  0  0  0  0999 V2000
   37.3850   23.1890   32.6030 N   0  0  0  0  0  0  0  0  0  0  0  0
   36.0730   22.6550   32.2610 C   0  0  1  0  0  0  0  0  0  0  0  0
   35.6800   23.5230   31.0940 C   0  0  0  0  0  0  0  0  0  0  0  0
   36.7950   24.5530   30.9030 C   0  0  0  0  0  0  0  0  0  0  0  0
   37.9720   23.7660   31.4160 C   0  0  0  0  0  0  0  0  0  0  0  0
   35.3290   22.8920   33.0660 H   0  0  0  0  0  0  0  0  0  0  0  0
   35.5440   22.9110   30.1830 H   0  0  0  0  0  0  0  0  0  0  0  0
   34.7730   24.1390   31.2720 H   0  0  0  0  0  0  0  0  0  0  0  0
   36.9370   24.7170   29.8330 H   0  0  0  0  0  0  0  0  0  0  0  0
   36.6470   25.4510   31.5080 H   0  0  0  0  0  0  0  0  0  0  0  0
   38.4410   23.0890   30.7210 H   0  0  0  0  0  0  0  0  0  0  0  0
   38.7690   24.5030   31.7210 H   0  0  0  0  0  0  0  0  0  0  0  0
   38.0090   23.1700   33.8960 C   0  0  0  0  0  0  0  0  0  0  0  0
   38.1300   24.4070   34.5520 C   0  0  0  0  0  0  0  0  0  0  0  0
   38.7410   24.4110   35.8020 C   0  0  0  0  0  0  0  0  0  0  0  0
   39.1820   23.1990   36.2970 N   0  0  0  0  0  0  0  0  0  0  0  0
   39.0450   22.0420   35.6360 C   0  0  0  0  0  0  0  0  0  0  0  0
   38.4500   22.0320   34.4160 N   0  0  0  0  0  0  0  0  0  0  0  0
   37.7940   25.3510   34.1810 H   0  0  0  0  0  0  0  0  0  0  0  0
   38.8590   25.3190   36.3430 H   0  0  0  0  0  0  0  0  0  0  0  0
   39.4220   21.1440   36.1040 H   0  0  0  0  0  0  0  0  0  0  0  0
   35.2740   20.9590   34.2780 F   0  0  0  0  0  0  0  0  0  0  0  0
   35.6260   20.3930   33.0840 C   0  0  0  0  0  0  0  0  0  0  0  0
   36.0370   21.2200   32.0310 C   0  0  0  0  0  0  0  0  0  0  0  0
   36.3630   20.5220   30.8880 C   0  0  0  0  0  0  0  0  0  0  0  0
   36.6880   21.1160   30.0460 H   0  0  0  0  0  0  0  0  0  0  0  0
   36.3070   19.1530   30.7460 C   0  0  0  0  0  0  0  0  0  0  0  0
   36.5870   18.6920   29.7950 H   0  0  0  0  0  0  0  0  0  0  0  0
   35.8930   18.3980   31.8220 C   0  0  0  0  0  3  0  0  0  0  0  0
   35.5490   19.0180   33.0040 C   0  0  0  0  0  3  0  0  0  0  0  0
  1 13  1  0  0  0  0
  2  1  1  0  0  0  0
  2  6  1  1  0  0  0
  3  8  1  0  0  0  0
  3  2  1  0  0  0  0
  4  3  1  0  0  0  0
  4  5  1  0  0  0  0
  4 10  1  0  0  0  0
  5 12  1  0  0  0  0
  5  1  1  0  0  0  0
  7  3  1  0  0  0  0
  9  4  1  0  0  0  0
 11  5  1  0  0  0  0
 13 18  2  0  0  0  0
 13 14  1  0  0  0  0
 14 15  2  0  0  0  0
 15 16  1  0  0  0  0
 15 20  1  0  0  0  0
 17 21  1  0  0  0  0
 17 16  2  0  0  0  0
 18 17  1  0  0  0  0
 19 14  1  0  0  0  0
 23 22  1  0  0  0  0
 24  2  1  0  0  0  0
 24 23  2  0  0  0  0
 25 24  1  0  0  0  0
 26 25  1  0  0  0  0
 27 25  2  0  0  0  0
 27 29  1  0  0  0  0
 28 27  1  0  0  0  0
 29 30  2  0  0  0  0
 30 23  1  0  0  0  0
M  END
>  <minimizedAffinity>
-4.85629416

$$$$

 OpenBabel03272503233D

 30 32  0  0  1  0  0  0  0  0999 V2000
   39.7860   24.9960   34.7550 N   0  0  0  0  0  0  0  0  0  0  0  0
   39.7410   26.4520   34.6980 C   0  0  1  0  0  0  0  0  0  0  0  0
   41.1910   26.7990   34.4800 C   0  0  0  0  0  0  0  0  0  0  0  0
   41.9760   25.4850   34.5000 C   0  0  0  0  0  0  0  0  0  0  0  0
   40.9220   24.5400   33.9870 C   0  0  0  0  0  0  0  0  0  0  0  0
   39.4860   26.8770   35.7050 H   0  0  0  0  0  0  0  0  0  0  0  0
   41.3230   27.3260   33.5170 H   0  0  0  0  0  0  0  0  0  0  0  0
   41.6430   27.3940   35.3010 H   0  0  0  0  0  0  0  0  0  0  0  0
   42.7700   25.5450   33.7520 H   0  0  0  0  0  0  0  0  0  0  0  0
   42.2880   25.1960   35.5060 H   0  0  0  0  0  0  0  0  0  0  0  0
   40.8010   24.4840   32.9180 H   0  0  0  0  0  0  0  0  0  0  0  0
   41.2010   23.5010   34.3260 H   0  0  0  0  0  0  0  0  0  0  0  0
   38.8770   24.1350   35.4570 C   0  0  0  0  0  0  0  0  0  0  0  0
   38.4130   24.5940   36.7020 C   0  0  0  0  0  0  0  0  0  0  0  0
   37.5390   23.7700   37.4030 C   0  0  0  0  0  0  0  0  0  0  0  0
   37.1980   22.5650   36.8200 N   0  0  0  0  0  0  0  0  0  0  0  0
   37.6640   22.1670   35.6290 C   0  0  0  0  0  0  0  0  0  0  0  0
   38.5170   22.9670   34.9410 N   0  0  0  0  0  0  0  0  0  0  0  0
   38.6700   25.5230   37.1640 H   0  0  0  0  0  0  0  0  0  0  0  0
   37.1570   24.0680   38.3500 H   0  0  0  0  0  0  0  0  0  0  0  0
   37.3400   21.2070   35.2530 H   0  0  0  0  0  0  0  0  0  0  0  0
   37.2940   27.3890   35.5440 F   0  0  0  0  0  0  0  0  0  0  0  0
   37.5660   27.4620   34.2060 C   0  0  0  0  0  0  0  0  0  0  0  0
   38.8010   26.9970   33.7340 C   0  0  0  0  0  0  0  0  0  0  0  0
   38.9440   27.1290   32.3700 C   0  0  0  0  0  0  0  0  0  0  0  0
   39.8810   26.7820   31.9560 H   0  0  0  0  0  0  0  0  0  0  0  0
   38.0020   27.6560   31.5150 C   0  0  0  0  0  0  0  0  0  0  0  0
   38.2110   27.7180   30.4430 H   0  0  0  0  0  0  0  0  0  0  0  0
   36.8070   28.0950   32.0460 C   0  0  0  0  0  3  0  0  0  0  0  0
   36.5830   28.0000   33.4020 C   0  0  0  0  0  3  0  0  0  0  0  0
  1 13  1  0  0  0  0
  2  1  1  0  0  0  0
  2  6  1  1  0  0  0
  3  4  1  0  0  0  0
  3  2  1  0  0  0  0
  3  8  1  0  0  0  0
  4 10  1  0  0  0  0
  5 12  1  0  0  0  0
  5  4  1  0  0  0  0
  5  1  1  0  0  0  0
  7  3  1  0  0  0  0
  9  4  1  0  0  0  0
 11  5  1  0  0  0  0
 13 14  1  0  0  0  0
 14 19  1  0  0  0  0
 14 15  2  0  0  0  0
 15 20  1  0  0  0  0
 16 15  1  0  0  0  0
 17 16  2  0  0  0  0
 18 13  2  0  0  0  0
 18 17  1  0  0  0  0
 21 17  1  0  0  0  0
 23 22  1  0  0  0  0
 24 23  1  0  0  0  0
 24  2  1  0  0  0  0
 25 24  2  0  0  0  0
 26 25  1  0  0  0  0
 27 29  2  0  0  0  0
 27 25  1  0  0  0  0
 28 27  1  0  0  0  0
 29 30  1  0  0  0  0
 30 23  2  0  0  0  0
M  END
>  <minimizedAffinity>
-4.80494738

$$$$

 OpenBabel03272503233D

 30 32  0  0  1  0  0  0  0  0999 V2000
   35.6940   29.8220   33.1010 N   0  0  0  0  0  0  0  0  0  0  0  0
   35.6780   30.9230   34.0560 C   0  0  1  0  0  0  0  0  0  0  0  0
   35.7280   32.1230   33.1460 C   0  0  0  0  0  0  0  0  0  0  0  0
   35.8420   31.5980   31.7140 C   0  0  0  0  0  0  0  0  0  0  0  0
   35.1210   30.2830   31.8570 C   0  0  0  0  0  0  0  0  0  0  0  0
   36.6390   30.9540   34.6360 H   0  0  0  0  0  0  0  0  0  0  0  0
   34.8210   32.7430   33.2720 H   0  0  0  0  0  0  0  0  0  0  0  0
   36.6350   32.7510   33.2750 H   0  0  0  0  0  0  0  0  0  0  0  0
   35.2470   32.2400   31.0610 H   0  0  0  0  0  0  0  0  0  0  0  0
   36.8760   31.4320   31.4070 H   0  0  0  0  0  0  0  0  0  0  0  0
   34.0470   30.3100   31.7920 H   0  0  0  0  0  0  0  0  0  0  0  0
   35.4690   29.6110   31.0210 H   0  0  0  0  0  0  0  0  0  0  0  0
   36.1980   28.4970   33.3260 C   0  0  0  0  0  0  0  0  0  0  0  0
   36.6410   28.2070   34.6280 C   0  0  0  0  0  0  0  0  0  0  0  0
   37.1420   26.9320   34.8640 C   0  0  0  0  0  0  0  0  0  0  0  0
   37.1650   26.0510   33.8000 N   0  0  0  0  0  0  0  0  0  0  0  0
   36.7310   26.3700   32.5740 C   0  0  0  0  0  0  0  0  0  0  0  0
   36.2410   27.6130   32.3370 N   0  0  0  0  0  0  0  0  0  0  0  0
   36.6290   28.8790   35.4600 H   0  0  0  0  0  0  0  0  0  0  0  0
   37.4920   26.6580   35.8310 H   0  0  0  0  0  0  0  0  0  0  0  0
   36.7880   25.6140   31.8040 H   0  0  0  0  0  0  0  0  0  0  0  0
   35.8470   32.3720   36.3920 F   0  0  0  0  0  0  0  0  0  0  0  0
   34.7100   31.6400   36.1870 C   0  0  0  0  0  0  0  0  0  0  0  0
   34.5830   30.8890   35.0110 C   0  0  0  0  0  0  0  0  0  0  0  0
   33.3920   30.2010   34.9320 C   0  0  0  0  0  0  0  0  0  0  0  0
   33.2470   29.6050   34.0420 H   0  0  0  0  0  0  0  0  0  0  0  0
   32.3970   30.2160   35.8850 C   0  0  0  0  0  0  0  0  0  0  0  0
   31.4840   29.6330   35.7290 H   0  0  0  0  0  0  0  0  0  0  0  0
   32.5860   30.9750   37.0190 C   0  0  0  0  0  3  0  0  0  0  0  0
   33.7510   31.6950   37.1770 C   0  0  0  0  0  3  0  0  0  0  0  0
  1 13  1  0  0  0  0
  1  2  1  0  0  0  0
  2  6  1  1  0  0  0
  2 24  1  0  0  0  0
  3  7  1  0  0  0  0
  3  8  1  0  0  0  0
  3  2  1  0  0  0  0
  4  5  1  0  0  0  0
  4  3  1  0  0  0  0
  5  1  1  0  0  0  0
  9  4  1  0  0  0  0
 10  4  1  0  0  0  0
 11  5  1  0  0  0  0
 12  5  1  0  0  0  0
 13 14  1  0  0  0  0
 14 15  2  0  0  0  0
 14 19  1  0  0  0  0
 15 20  1  0  0  0  0
 16 15  1  0  0  0  0
 17 16  2  0  0  0  0
 18 17  1  0  0  0  0
 18 13  2  0  0  0  0
 21 17  1  0  0  0  0
 23 22  1  0  0  0  0
 23 30  1  0  0  0  0
 24 23  2  0  0  0  0
 25 24  1  0  0  0  0
 25 27  2  0  0  0  0
 26 25  1  0  0  0  0
 27 29  1  0  0  0  0
 28 27  1  0  0  0  0
 29 30  2  0  0  0  0
M  END
>  <minimizedAffinity>
-4.7890954

$$$$

 OpenBabel03272503233D

 30 32  0  0  1  0  0  0  0  0999 V2000
   38.1280   24.0720   34.0100 N   0  0  0  0  0  0  0  0  0  0  0  0
   38.1130   22.8670   34.8310 C   0  0  1  0  0  0  0  0  0  0  0  0
   37.6070   21.8350   33.8570 C   0  0  0  0  0  0  0  0  0  0  0  0
   37.3020   22.5630   32.5470 C   0  0  0  0  0  0  0  0  0  0  0  0
   38.3030   23.6850   32.6290 C   0  0  0  0  0  0  0  0  0  0  0  0
   37.3180   22.9390   35.6200 H   0  0  0  0  0  0  0  0  0  0  0  0
   38.3640   21.0420   33.7040 H   0  0  0  0  0  0  0  0  0  0  0  0
   36.6360   21.3780   34.1430 H   0  0  0  0  0  0  0  0  0  0  0  0
   37.5870   21.9160   31.7150 H   0  0  0  0  0  0  0  0  0  0  0  0
   36.2860   22.9630   32.5140 H   0  0  0  0  0  0  0  0  0  0  0  0
   39.3050   23.4640   32.3040 H   0  0  0  0  0  0  0  0  0  0  0  0
   37.9350   24.5200   31.9650 H   0  0  0  0  0  0  0  0  0  0  0  0
   37.9840   25.4250   34.4680 C   0  0  0  0  0  0  0  0  0  0  0  0
   38.8780   25.8470   35.4670 C   0  0  0  0  0  0  0  0  0  0  0  0
   38.7490   27.1520   35.9310 C   0  0  0  0  0  0  0  0  0  0  0  0
   37.7520   27.9280   35.3740 N   0  0  0  0  0  0  0  0  0  0  0  0
   36.9210   27.4840   34.4210 C   0  0  0  0  0  0  0  0  0  0  0  0
   37.0420   26.2120   33.9640 N   0  0  0  0  0  0  0  0  0  0  0  0
   39.6530   25.2570   35.9070 H   0  0  0  0  0  0  0  0  0  0  0  0
   39.3990   27.5240   36.6870 H   0  0  0  0  0  0  0  0  0  0  0  0
   36.1710   28.1650   34.0450 H   0  0  0  0  0  0  0  0  0  0  0  0
   38.3000   23.0380   37.5730 F   0  0  0  0  0  0  0  0  0  0  0  0
   39.4230   22.6620   36.8890 C   0  0  0  0  0  0  0  0  0  0  0  0
   39.3700   22.5610   35.4920 C   0  0  0  0  0  0  0  0  0  0  0  0
   40.5670   22.1750   34.9310 C   0  0  0  0  0  0  0  0  0  0  0  0
   40.5790   22.0840   33.8540 H   0  0  0  0  0  0  0  0  0  0  0  0
   41.7250   21.9030   35.6260 C   0  0  0  0  0  0  0  0  0  0  0  0
   42.6280   21.6020   35.0870 H   0  0  0  0  0  0  0  0  0  0  0  0
   41.7080   22.0220   37.0000 C   0  0  0  0  0  3  0  0  0  0  0  0
   40.5500   22.4050   37.6420 C   0  0  0  0  0  3  0  0  0  0  0  0
  1 13  1  0  0  0  0
  1  2  1  0  0  0  0
  2 24  1  0  0  0  0
  2  6  1  1  0  0  0
  3  8  1  0  0  0  0
  3  2  1  0  0  0  0
  4  5  1  0  0  0  0
  4  3  1  0  0  0  0
  5  1  1  0  0  0  0
  7  3  1  0  0  0  0
  9  4  1  0  0  0  0
 10  4  1  0  0  0  0
 11  5  1  0  0  0  0
 12  5  1  0  0  0  0
 13 14  1  0  0  0  0
 14 19  1  0  0  0  0
 14 15  2  0  0  0  0
 15 20  1  0  0  0  0
 16 15  1  0  0  0  0
 17 16  2  0  0  0  0
 18 17  1  0  0  0  0
 18 13  2  0  0  0  0
 21 17  1  0  0  0  0
 23 22  1  0  0  0  0
 23 30  1  0  0  0  0
 24 23  2  0  0  0  0
 25 24  1  0  0  0  0
 25 27  2  0  0  0  0
 26 25  1  0  0  0  0
 27 29  1  0  0  0  0
 28 27  1  0  0  0  0
 29 30  2  0  0  0  0
M  END
>  <minimizedAffinity>
-4.75842762

$$$$

 OpenBabel03272503233D

 30 32  0  0  1  0  0  0  0  0999 V2000
   37.7300   26.0150   33.5230 N   0  0  0  0  0  0  0  0  0  0  0  0
   36.9890   27.1530   34.0540 C   0  0  1  0  0  0  0  0  0  0  0  0
   37.8730   27.5940   35.1920 C   0  0  0  0  0  0  0  0  0  0  0  0
   39.0400   26.6080   35.2640 C   0  0  0  0  0  0  0  0  0  0  0  0
   39.1320   26.2010   33.8170 C   0  0  0  0  0  0  0  0  0  0  0  0
   36.0370   26.8100   34.5390 H   0  0  0  0  0  0  0  0  0  0  0  0
   38.2350   28.6260   35.0250 H   0  0  0  0  0  0  0  0  0  0  0  0
   37.3960   27.5200   36.1920 H   0  0  0  0  0  0  0  0  0  0  0  0
   39.9470   27.1610   35.5180 H   0  0  0  0  0  0  0  0  0  0  0  0
   38.8200   25.7390   35.8890 H   0  0  0  0  0  0  0  0  0  0  0  0
   39.6880   26.8540   33.1650 H   0  0  0  0  0  0  0  0  0  0  0  0
   39.6510   25.2010   33.7760 H   0  0  0  0  0  0  0  0  0  0  0  0
   37.1840   24.8830   32.8310 C   0  0  0  0  0  0  0  0  0  0  0  0
   37.7570   23.6330   33.1230 C   0  0  0  0  0  0  0  0  0  0  0  0
   37.2480   22.5240   32.4550 C   0  0  0  0  0  0  0  0  0  0  0  0
   36.2210   22.7390   31.5570 N   0  0  0  0  0  0  0  0  0  0  0  0
   35.7040   23.9500   31.3100 C   0  0  0  0  0  0  0  0  0  0  0  0
   36.1960   25.0360   31.9580 N   0  0  0  0  0  0  0  0  0  0  0  0
   38.5510   23.4520   33.8150 H   0  0  0  0  0  0  0  0  0  0  0  0
   37.6450   21.5540   32.6380 H   0  0  0  0  0  0  0  0  0  0  0  0
   34.9010   24.0200   30.5900 H   0  0  0  0  0  0  0  0  0  0  0  0
   34.9420   28.9220   34.5690 F   0  0  0  0  0  0  0  0  0  0  0  0
   35.6000   29.0510   33.3770 C   0  0  0  0  0  0  0  0  0  0  0  0
   36.6490   28.1730   33.0760 C   0  0  0  0  0  0  0  0  0  0  0  0
   37.2220   28.4130   31.8470 C   0  0  0  0  0  0  0  0  0  0  0  0
   38.0360   27.7590   31.5670 H   0  0  0  0  0  0  0  0  0  0  0  0
   36.8410   29.4020   30.9670 C   0  0  0  0  0  0  0  0  0  0  0  0
   37.3610   29.5130   30.0120 H   0  0  0  0  0  0  0  0  0  0  0  0
   35.8000   30.2330   31.3260 C   0  0  0  0  0  3  0  0  0  0  0  0
   35.1710   30.0600   32.5400 C   0  0  0  0  0  3  0  0  0  0  0  0
  1  5  1  0  0  0  0
  1  2  1  0  0  0  0
  2  6  1  1  0  0  0
  2  3  1  0  0  0  0
  3  4  1  0  0  0  0
  3  8  1  0  0  0  0
  4  9  1  0  0  0  0
  4 10  1  0  0  0  0
  5  4  1  0  0  0  0
  7  3  1  0  0  0  0
 11  5  1  0  0  0  0
 12  5  1  0  0  0  0
 13 14  1  0  0  0  0
 13  1  1  0  0  0  0
 14 19  1  0  0  0  0
 15 20  1  0  0  0  0
 15 14  2  0  0  0  0
 16 15  1  0  0  0  0
 17 16  2  0  0  0  0
 17 18  1  0  0  0  0
 18 13  2  0  0  0  0
 21 17  1  0  0  0  0
 23 22  1  0  0  0  0
 24 23  1  0  0  0  0
 24  2  1  0  0  0  0
 25 24  2  0  0  0  0
 26 25  1  0  0  0  0
 27 29  2  0  0  0  0
 27 25  1  0  0  0  0
 28 27  1  0  0  0  0
 29 30  1  0  0  0  0
 30 23  2  0  0  0  0
M  END
>  <minimizedAffinity>
-4.72402334

$$$$

 OpenBabel03272503233D

 30 32  0  0  1  0  0  0  0  0999 V2000
   38.0490   25.8130   34.0640 N   0  0  0  0  0  0  0  0  0  0  0  0
   39.2550   25.8810   34.8810 C   0  0  1  0  0  0  0  0  0  0  0  0
   39.0290   27.1490   35.6620 C   0  0  0  0  0  0  0  0  0  0  0  0
   37.7140   27.7550   35.1680 C   0  0  0  0  0  0  0  0  0  0  0  0
   36.9850   26.5030   34.7570 C   0  0  0  0  0  0  0  0  0  0  0  0
   40.1530   26.0870   34.2400 H   0  0  0  0  0  0  0  0  0  0  0  0
   38.9850   26.9340   36.7460 H   0  0  0  0  0  0  0  0  0  0  0  0
   39.7810   27.9420   35.4660 H   0  0  0  0  0  0  0  0  0  0  0  0
   37.1890   28.1880   36.0220 H   0  0  0  0  0  0  0  0  0  0  0  0
   37.8510   28.4140   34.3080 H   0  0  0  0  0  0  0  0  0  0  0  0
   36.4750   25.9620   35.5360 H   0  0  0  0  0  0  0  0  0  0  0  0
   36.1930   26.7990   34.0110 H   0  0  0  0  0  0  0  0  0  0  0  0
   37.9150   25.1850   32.7810 C   0  0  0  0  0  0  0  0  0  0  0  0
   39.1030   24.9740   32.0590 C   0  0  0  0  0  0  0  0  0  0  0  0
   38.9930   24.3750   30.8080 C   0  0  0  0  0  0  0  0  0  0  0  0
   37.7260   24.0370   30.3750 N   0  0  0  0  0  0  0  0  0  0  0  0
   36.6190   24.2560   31.0980 C   0  0  0  0  0  0  0  0  0  0  0  0
   36.7200   24.8400   32.3190 N   0  0  0  0  0  0  0  0  0  0  0  0
   40.0880   25.2310   32.3820 H   0  0  0  0  0  0  0  0  0  0  0  0
   39.8590   24.1920   30.2180 H   0  0  0  0  0  0  0  0  0  0  0  0
   35.6710   23.9560   30.6760 H   0  0  0  0  0  0  0  0  0  0  0  0
   41.5500   24.4320   34.4120 F   0  0  0  0  0  0  0  0  0  0  0  0
   40.7100   23.9790   35.3920 C   0  0  0  0  0  0  0  0  0  0  0  0
   39.5320   24.6880   35.6630 C   0  0  0  0  0  0  0  0  0  0  0  0
   38.7800   24.1240   36.6700 C   0  0  0  0  0  0  0  0  0  0  0  0
   37.8590   24.6330   36.9160 H   0  0  0  0  0  0  0  0  0  0  0  0
   39.1070   22.9820   37.3690 C   0  0  0  0  0  0  0  0  0  0  0  0
   38.4410   22.6130   38.1530 H   0  0  0  0  0  0  0  0  0  0  0  0
   40.2820   22.3340   37.0510 C   0  0  0  0  0  3  0  0  0  0  0  0
   41.0930   22.8320   36.0540 C   0  0  0  0  0  3  0  0  0  0  0  0
  1  5  1  0  0  0  0
  1  2  1  0  0  0  0
  2  6  1  6  0  0  0
  2  3  1  0  0  0  0
  2 24  1  0  0  0  0
  3  7  1  0  0  0  0
  4  3  1  0  0  0  0
  4  9  1  0  0  0  0
  5  4  1  0  0  0  0
  5 11  1  0  0  0  0
  8  3  1  0  0  0  0
 10  4  1  0  0  0  0
 12  5  1  0  0  0  0
 13  1  1  0  0  0  0
 14 19  1  0  0  0  0
 14 13  2  0  0  0  0
 15 14  1  0  0  0  0
 16 15  2  0  0  0  0
 16 17  1  0  0  0  0
 17 18  2  0  0  0  0
 18 13  1  0  0  0  0
 20 15  1  0  0  0  0
 21 17  1  0  0  0  0
 22 23  1  0  0  0  0
 23 24  2  0  0  0  0
 23 30  1  0  0  0  0
 24 25  1  0  0  0  0
 25 26  1  0  0  0  0
 25 27  2  0  0  0  0
 27 28  1  0  0  0  0
 29 27  1  0  0  0  0
 30 29  2  0  0  0  0
M  END
>  <minimizedAffinity>
-4.67033148

$$$$
