
 OpenBabel03272502553D

 42 45  0  0  0  0  0  0  0  0999 V2000
   36.8730   30.8210   49.4100 C   0  0  0  0  0  0  0  0  0  0  0  0
   36.9580   30.4840   50.7650 C   0  0  0  0  0  0  0  0  0  0  0  0
   36.0900   29.5770   51.3330 C   0  0  0  0  0  0  0  0  0  0  0  0
   35.1440   29.0340   50.4750 C   0  0  0  0  0  0  0  0  0  0  0  0
   35.0460   29.3550   49.1410 C   0  0  0  0  0  0  0  0  0  0  0  0
   35.9330   30.2570   48.6420 N   0  0  0  0  0  0  0  0  0  0  0  0
   34.0450   28.7440   48.3590 N   0  0  0  0  0  0  0  0  0  0  0  0
   32.9660   28.0720   49.0440 C   0  0  0  0  0  0  0  0  0  0  0  0
   32.1130   27.4030   47.9770 C   0  0  0  0  0  0  0  0  0  0  0  0
   31.5960   28.4360   47.0060 C   0  0  0  0  0  0  0  0  0  0  0  0
   32.6910   29.2940   46.4580 C   0  0  0  0  0  0  0  0  0  0  0  0
   34.0330   28.7470   46.9140 C   0  0  0  0  0  0  0  0  0  0  0  0
   37.7100   30.9410   51.3590 H   0  0  0  0  0  0  0  0  0  0  0  0
   36.1630   29.3260   52.3700 H   0  0  0  0  0  0  0  0  0  0  0  0
   34.4630   28.3190   50.9330 H   0  0  0  0  0  0  0  0  0  0  0  0
   32.3140   28.7710   49.5860 H   0  0  0  0  0  0  0  0  0  0  0  0
   33.3140   27.2030   49.6700 H   0  0  0  0  0  0  0  0  0  0  0  0
   31.2230   26.9970   48.5090 H   0  0  0  0  0  0  0  0  0  0  0  0
   32.6270   26.5880   47.4710 H   0  0  0  0  0  0  0  0  0  0  0  0
   31.1660   27.8610   46.1520 H   0  0  0  0  0  0  0  0  0  0  0  0
   30.7430   29.0160   47.4240 H   0  0  0  0  0  0  0  0  0  0  0  0
   32.5460   30.3230   46.8870 H   0  0  0  0  0  0  0  0  0  0  0  0
   32.6540   29.4190   45.3560 H   0  0  0  0  0  0  0  0  0  0  0  0
   34.0920   27.6990   46.5810 H   0  0  0  0  0  0  0  0  0  0  0  0
   34.8560   29.3660   46.4990 H   0  0  0  0  0  0  0  0  0  0  0  0
   39.1340   33.6860   49.0580 C   0  0  0  0  0  0  0  0  0  0  0  0
   39.6000   33.5270   47.7350 C   0  0  0  0  0  0  0  0  0  0  0  0
   39.1480   32.4660   46.9940 C   0  0  0  0  0  0  0  0  0  0  0  0
   38.2650   31.6400   47.6180 N   0  0  0  0  0  0  0  0  0  0  0  0
   37.8220   31.7890   48.8720 C   0  0  0  0  0  0  0  0  0  0  0  0
   38.2610   32.8120   49.5790 N   0  0  0  0  0  0  0  0  0  0  0  0
   39.4920   34.5300   49.6510 H   0  0  0  0  0  0  0  0  0  0  0  0
   40.2860   34.2060   47.3110 H   0  0  0  0  0  0  0  0  0  0  0  0
   39.9300   34.2860   44.8940 F   0  0  0  0  0  0  0  0  0  0  0  0
   39.8640   32.9650   44.6400 C   0  0  0  0  0  0  0  0  0  0  0  0
   39.4920   32.1270   45.6470 C   0  0  0  0  0  0  0  0  0  0  0  0
   39.4670   30.8020   45.2500 C   0  0  0  0  0  0  0  0  0  0  0  0
   39.1880   29.9970   45.9390 H   0  0  0  0  0  0  0  0  0  0  0  0
   39.7820   30.3750   43.9770 C   0  0  0  0  0  0  0  0  0  0  0  0
   39.7490   29.3300   43.7110 H   0  0  0  0  0  0  0  0  0  0  0  0
   40.1500   31.2790   43.0060 C   0  0  0  0  0  0  0  0  0  0  0  0
   40.1920   32.6140   43.3490 C   0  0  0  0  0  0  0  0  0  0  0  0
  1  2  1  0  0  0  0
  2  3  2  0  0  0  0
  2 13  1  0  0  0  0
  3 14  1  0  0  0  0
  4 15  1  0  0  0  0
  4  3  1  0  0  0  0
  5  4  2  0  0  0  0
  6  5  1  0  0  0  0
  6  1  2  0  0  0  0
  7  8  1  0  0  0  0
  7  5  1  0  0  0  0
  8 16  1  0  0  0  0
  8 17  1  0  0  0  0
  9 18  1  0  0  0  0
  9  8  1  0  0  0  0
 10 21  1  0  0  0  0
 10  9  1  0  0  0  0
 11 22  1  0  0  0  0
 11 12  1  0  0  0  0
 11 10  1  0  0  0  0
 12  7  1  0  0  0  0
 19  9  1  0  0  0  0
 20 10  1  0  0  0  0
 23 11  1  0  0  0  0
 24 12  1  0  0  0  0
 25 12  1  0  0  0  0
 26 31  1  0  0  0  0
 26 32  1  0  0  0  0
 27 26  2  0  0  0  0
 28 29  2  0  0  0  0
 28 27  1  0  0  0  0
 29 30  1  0  0  0  0
 30  1  1  0  0  0  0
 30 31  2  0  0  0  0
 33 27  1  0  0  0  0
 35 34  1  0  0  0  0
 35 36  1  0  0  0  0
 36 28  1  0  0  0  0
 37 36  2  0  0  0  0
 37 38  1  0  0  0  0
 39 37  1  0  0  0  0
 40 39  1  0  0  0  0
 41 42  1  0  0  0  0
 41 39  2  0  0  0  0
 42 35  2  0  0  0  0
M  END
>  <minimizedAffinity>
-7.46684504

>  <minimizedRMSD>
1.6055088

$$$$
