
 OpenBabel03272506063D

 30 32  0  0  0  0  0  0  0  0999 V2000
   34.0800   28.0790   48.7120 C   0  0  0  0  0  0  0  0  0  0  0  0
   34.7660   27.2090   48.7380 H   0  0  0  0  0  0  0  0  0  0  0  0
   34.4290   28.6810   47.8260 H   0  0  0  0  0  0  0  0  0  0  0  0
   32.6700   27.6440   48.4240 C   0  0  0  0  0  0  0  0  0  0  0  0
   32.4170   26.9040   47.2050 C   0  0  0  0  0  0  0  0  0  0  0  0
   30.6580   26.6450   47.3410 S   0  0  0  0  0  0  0  0  0  0  0  0
   30.5240   27.5450   48.9750 C   0  0  0  0  0  0  0  0  0  0  0  0
   31.6470   27.8860   49.1950 N   0  0  0  0  0  0  0  0  0  0  0  0
   33.1160   26.6250   46.4770 H   0  0  0  0  0  0  0  0  0  0  0  0
   28.7890   29.4760   48.1850 F   0  0  0  0  0  0  0  0  0  0  0  0
   28.4090   28.7370   49.2520 C   0  0  0  0  0  0  0  0  0  0  0  0
   29.2110   27.7290   49.7410 C   0  0  0  0  0  0  0  0  0  0  0  0
   28.9890   26.8910   50.7990 C   0  0  0  0  0  0  0  0  0  0  0  0
   29.6830   26.1400   51.0910 H   0  0  0  0  0  0  0  0  0  0  0  0
   27.7860   27.1240   51.4320 C   0  0  0  0  0  0  0  0  0  0  0  0
   27.5020   26.5080   52.2980 H   0  0  0  0  0  0  0  0  0  0  0  0
   26.9000   28.1010   51.0380 C   0  0  0  0  0  0  0  0  0  0  0  0
   27.2350   28.8790   49.9610 C   0  0  0  0  0  0  0  0  0  0  0  0
   34.1910   28.8380   49.9840 C   0  0  0  0  0  0  0  0  0  0  0  0
   33.9760   28.2240   50.8760 H   0  0  0  0  0  0  0  0  0  0  0  0
   33.5060   29.7290   49.9730 H   0  0  0  0  0  0  0  0  0  0  0  0
   37.3800   30.1130   51.4010 C   0  0  0  0  0  0  0  0  0  0  0  0
   38.0820   30.5210   50.2480 C   0  0  0  0  0  0  0  0  0  0  0  0
   37.4480   30.3490   49.0110 C   0  0  0  0  0  0  0  0  0  0  0  0
   36.2030   29.8050   48.9970 N   0  0  0  0  0  0  0  0  0  0  0  0
   35.5780   29.4340   50.1270 C   0  0  0  0  0  0  0  0  0  0  0  0
   36.1560   29.5850   51.3070 N   0  0  0  0  0  0  0  0  0  0  0  0
   37.8880   30.2550   52.3430 H   0  0  0  0  0  0  0  0  0  0  0  0
   39.0710   30.9540   50.2540 H   0  0  0  0  0  0  0  0  0  0  0  0
   37.8970   30.6280   48.0600 H   0  0  0  0  0  0  0  0  0  0  0  0
  1  2  1  0  0  0  0
  1 19  1  0  0  0  0
  3  1  1  0  0  0  0
  4  1  1  0  0  0  0
  4  8  1  0  0  0  0
  5  6  1  0  0  0  0
  5  4  2  0  0  0  0
  6  7  1  0  0  0  0
  7  8  2  0  0  0  0
  7 12  1  0  0  0  0
  9  5  1  0  0  0  0
 10 11  1  0  0  0  0
 11 12  2  0  0  0  0
 11 18  1  0  0  0  0
 12 13  1  0  0  0  0
 13 14  1  0  0  0  0
 13 15  2  0  0  0  0
 15 16  1  0  0  0  0
 17 15  1  0  0  0  0
 18 17  2  0  0  0  0
 19 26  1  0  0  0  0
 19 20  1  0  0  0  0
 21 19  1  0  0  0  0
 22 28  1  0  0  0  0
 23 29  1  0  0  0  0
 23 22  2  0  0  0  0
 24 23  1  0  0  0  0
 25 24  2  0  0  0  0
 25 26  1  0  0  0  0
 26 27  2  0  0  0  0
 27 22  1  0  0  0  0
 30 24  1  0  0  0  0
M  END
>  <minimizedAffinity>
-6.37259293

>  <minimizedRMSD>
2.92363453

$$$$
