
 OpenBabel03272506073D

 30 32  0  0  0  0  0  0  0  0999 V2000
   37.4030   27.0420   33.7080 C   0  0  0  0  0  0  0  0  0  0  0  0
   36.8280   26.1180   33.4990 H   0  0  0  0  0  0  0  0  0  0  0  0
   38.1750   27.0810   32.8880 H   0  0  0  0  0  0  0  0  0  0  0  0
   36.5350   28.2610   33.5570 C   0  0  0  0  0  0  0  0  0  0  0  0
   36.3030   28.7760   32.2230 C   0  0  0  0  0  0  0  0  0  0  0  0
   35.2550   30.1700   32.5920 S   0  0  0  0  0  0  0  0  0  0  0  0
   35.2810   29.8650   34.4370 C   0  0  0  0  0  0  0  0  0  0  0  0
   35.9720   28.8960   34.5460 N   0  0  0  0  0  0  0  0  0  0  0  0
   36.6760   28.3930   31.3230 H   0  0  0  0  0  0  0  0  0  0  0  0
   36.6940   31.6240   35.9430 F   0  0  0  0  0  0  0  0  0  0  0  0
   35.3590   31.5920   36.1630 C   0  0  0  0  0  0  0  0  0  0  0  0
   34.5430   30.7370   35.4550 C   0  0  0  0  0  0  0  0  0  0  0  0
   33.1880   30.5720   35.5450 C   0  0  0  0  0  0  0  0  0  0  0  0
   32.6540   29.8760   34.9440 H   0  0  0  0  0  0  0  0  0  0  0  0
   32.6030   31.3950   36.4840 C   0  0  0  0  0  0  0  0  0  0  0  0
   31.5150   31.3490   36.6420 H   0  0  0  0  0  0  0  0  0  0  0  0
   33.3110   32.2910   37.2530 C   0  0  0  0  0  3  0  0  0  0  0  0
   34.6670   32.3640   37.0710 C   0  0  0  0  0  3  0  0  0  0  0  0
   38.0210   26.9480   35.0550 C   0  0  0  0  0  0  0  0  0  0  0  0
   37.4960   27.5510   35.8160 H   0  0  0  0  0  0  0  0  0  0  0  0
   39.1010   27.2590   35.0160 H   0  0  0  0  0  0  0  0  0  0  0  0
   38.0740   23.9030   37.1820 C   0  0  0  0  0  0  0  0  0  0  0  0
   38.1430   22.8680   36.2280 C   0  0  0  0  0  0  0  0  0  0  0  0
   38.1680   23.2360   34.8770 C   0  0  0  0  0  0  0  0  0  0  0  0
   38.1270   24.5590   34.5700 N   0  0  0  0  0  0  0  0  0  0  0  0
   38.0630   25.5060   35.5210 C   0  0  0  0  0  0  0  0  0  0  0  0
   38.0370   25.1840   36.8040 N   0  0  0  0  0  0  0  0  0  0  0  0
   38.0550   23.5960   38.2170 H   0  0  0  0  0  0  0  0  0  0  0  0
   38.1760   21.8150   36.4660 H   0  0  0  0  0  0  0  0  0  0  0  0
   38.2200   22.5210   34.0580 H   0  0  0  0  0  0  0  0  0  0  0  0
  1 19  1  0  0  0  0
  2  1  1  0  0  0  0
  3  1  1  0  0  0  0
  4  1  1  0  0  0  0
  4  8  1  0  0  0  0
  5  6  1  0  0  0  0
  5  4  2  0  0  0  0
  6  7  1  0  0  0  0
  7  8  2  0  0  0  0
  7 12  1  0  0  0  0
  9  5  1  0  0  0  0
 10 11  1  0  0  0  0
 11 18  1  0  0  0  0
 12 13  1  0  0  0  0
 12 11  2  0  0  0  0
 13 15  2  0  0  0  0
 14 13  1  0  0  0  0
 15 16  1  0  0  0  0
 15 17  1  0  0  0  0
 18 17  2  0  0  0  0
 19 26  1  0  0  0  0
 19 20  1  0  0  0  0
 21 19  1  0  0  0  0
 22 28  1  0  0  0  0
 23 29  1  0  0  0  0
 23 22  2  0  0  0  0
 24 23  1  0  0  0  0
 25 24  2  0  0  0  0
 25 26  1  0  0  0  0
 26 27  2  0  0  0  0
 27 22  1  0  0  0  0
 30 24  1  0  0  0  0
M  END
>  <minimizedAffinity>
-5.28277397

$$$$

 OpenBabel03272506073D

 30 32  0  0  0  0  0  0  0  0999 V2000
   37.1300   23.5610   31.2980 C   0  0  0  0  0  0  0  0  0  0  0  0
   37.1590   24.1820   30.3800 H   0  0  0  0  0  0  0  0  0  0  0  0
   37.8210   22.7010   31.0740 H   0  0  0  0  0  0  0  0  0  0  0  0
   37.7140   24.3050   32.4670 C   0  0  0  0  0  0  0  0  0  0  0  0
   38.1580   25.6680   32.2610 C   0  0  0  0  0  0  0  0  0  0  0  0
   38.7440   26.0690   33.8960 S   0  0  0  0  0  0  0  0  0  0  0  0
   38.3170   24.3900   34.6000 C   0  0  0  0  0  0  0  0  0  0  0  0
   37.8540   23.8090   33.6650 N   0  0  0  0  0  0  0  0  0  0  0  0
   38.1210   26.2180   31.3710 H   0  0  0  0  0  0  0  0  0  0  0  0
   40.4390   22.8080   35.1990 F   0  0  0  0  0  0  0  0  0  0  0  0
   39.6670   23.1870   36.2440 C   0  0  0  0  0  0  0  0  0  0  0  0
   38.5630   23.9900   36.0570 C   0  0  0  0  0  0  0  0  0  0  0  0
   37.6780   24.4650   36.9870 C   0  0  0  0  0  0  0  0  0  0  0  0
   36.8530   25.0840   36.7290 H   0  0  0  0  0  0  0  0  0  0  0  0
   37.9720   24.0590   38.2710 C   0  0  0  0  0  0  0  0  0  0  0  0
   37.3270   24.3810   39.1020 H   0  0  0  0  0  0  0  0  0  0  0  0
   39.0460   23.2560   38.5850 C   0  0  0  0  0  3  0  0  0  0  0  0
   39.8620   22.8440   37.5650 C   0  0  0  0  0  3  0  0  0  0  0  0
   35.7370   23.1110   31.5490 C   0  0  0  0  0  0  0  0  0  0  0  0
   35.0630   23.2870   30.6930 H   0  0  0  0  0  0  0  0  0  0  0  0
   35.3190   23.6170   32.4620 H   0  0  0  0  0  0  0  0  0  0  0  0
   35.4560   19.8990   33.3950 C   0  0  0  0  0  0  0  0  0  0  0  0
   35.6920   18.9460   32.3830 C   0  0  0  0  0  0  0  0  0  0  0  0
   35.9410   19.4250   31.0900 C   0  0  0  0  0  0  0  0  0  0  0  0
   35.9420   20.7700   30.8910 N   0  0  0  0  0  0  0  0  0  0  0  0
   35.7110   21.6350   31.8940 C   0  0  0  0  0  0  0  0  0  0  0  0
   35.4730   21.2070   33.1220 N   0  0  0  0  0  0  0  0  0  0  0  0
   35.2650   19.5070   34.3820 H   0  0  0  0  0  0  0  0  0  0  0  0
   35.6920   17.8770   32.5350 H   0  0  0  0  0  0  0  0  0  0  0  0
   36.1350   18.7810   30.2350 H   0  0  0  0  0  0  0  0  0  0  0  0
  1 19  1  0  0  0  0
  1  4  1  0  0  0  0
  2  1  1  0  0  0  0
  3  1  1  0  0  0  0
  4  8  1  0  0  0  0
  5  4  2  0  0  0  0
  5  6  1  0  0  0  0
  6  7  1  0  0  0  0
  7 12  1  0  0  0  0
  8  7  2  0  0  0  0
  9  5  1  0  0  0  0
 10 11  1  0  0  0  0
 11 18  1  0  0  0  0
 12 11  2  0  0  0  0
 12 13  1  0  0  0  0
 13 15  2  0  0  0  0
 14 13  1  0  0  0  0
 15 17  1  0  0  0  0
 15 16  1  0  0  0  0
 18 17  2  0  0  0  0
 19 26  1  0  0  0  0
 19 21  1  0  0  0  0
 20 19  1  0  0  0  0
 22 28  1  0  0  0  0
 23 29  1  0  0  0  0
 23 22  2  0  0  0  0
 24 23  1  0  0  0  0
 25 24  2  0  0  0  0
 25 26  1  0  0  0  0
 26 27  2  0  0  0  0
 27 22  1  0  0  0  0
 30 24  1  0  0  0  0
M  END
>  <minimizedAffinity>
-5.2646904

$$$$

 OpenBabel03272506073D

 30 32  0  0  0  0  0  0  0  0999 V2000
   36.7710   23.7940   31.2790 C   0  0  0  0  0  0  0  0  0  0  0  0
   36.7220   24.5430   30.4630 H   0  0  0  0  0  0  0  0  0  0  0  0
   37.5420   23.0510   30.9290 H   0  0  0  0  0  0  0  0  0  0  0  0
   37.2970   24.4130   32.5450 C   0  0  0  0  0  0  0  0  0  0  0  0
   37.0710   25.8270   32.7620 C   0  0  0  0  0  0  0  0  0  0  0  0
   37.8650   26.0440   34.3430 S   0  0  0  0  0  0  0  0  0  0  0  0
   38.3710   24.2490   34.4780 C   0  0  0  0  0  0  0  0  0  0  0  0
   37.9490   23.7660   33.4700 N   0  0  0  0  0  0  0  0  0  0  0  0
   36.5700   26.4930   32.1280 H   0  0  0  0  0  0  0  0  0  0  0  0
   37.1570   24.0780   36.8990 F   0  0  0  0  0  0  0  0  0  0  0  0
   38.4330   23.6310   36.8420 C   0  0  0  0  0  0  0  0  0  0  0  0
   39.1470   23.6690   35.6640 C   0  0  0  0  0  0  0  0  0  0  0  0
   40.4320   23.2640   35.4240 C   0  0  0  0  0  0  0  0  0  0  0  0
   40.8880   23.3400   34.4670 H   0  0  0  0  0  0  0  0  0  0  0  0
   41.0570   22.7550   36.5430 C   0  0  0  0  0  0  0  0  0  0  0  0
   42.0950   22.3980   36.4680 H   0  0  0  0  0  0  0  0  0  0  0  0
   40.4500   22.6650   37.7760 C   0  0  0  0  0  3  0  0  0  0  0  0
   39.1570   23.1040   37.8900 C   0  0  0  0  0  3  0  0  0  0  0  0
   35.4350   23.1720   31.4630 C   0  0  0  0  0  0  0  0  0  0  0  0
   34.7820   23.2780   30.5800 H   0  0  0  0  0  0  0  0  0  0  0  0
   34.9190   23.6070   32.3610 H   0  0  0  0  0  0  0  0  0  0  0  0
   35.4840   19.9210   33.2600 C   0  0  0  0  0  0  0  0  0  0  0  0
   35.8670   19.0190   32.2460 C   0  0  0  0  0  0  0  0  0  0  0  0
   36.1000   19.5460   30.9690 C   0  0  0  0  0  0  0  0  0  0  0  0
   35.9440   20.8830   30.7860 N   0  0  0  0  0  0  0  0  0  0  0  0
   35.5770   21.6980   31.7890 C   0  0  0  0  0  0  0  0  0  0  0  0
   35.3510   21.2260   33.0040 N   0  0  0  0  0  0  0  0  0  0  0  0
   35.3090   19.4930   34.2360 H   0  0  0  0  0  0  0  0  0  0  0  0
   35.9930   17.9560   32.3860 H   0  0  0  0  0  0  0  0  0  0  0  0
   36.3990   18.9430   30.1140 H   0  0  0  0  0  0  0  0  0  0  0  0
  1 19  1  0  0  0  0
  1  4  1  0  0  0  0
  2  1  1  0  0  0  0
  3  1  1  0  0  0  0
  4  5  2  0  0  0  0
  4  8  1  0  0  0  0
  5  6  1  0  0  0  0
  6  7  1  0  0  0  0
  7 12  1  0  0  0  0
  8  7  2  0  0  0  0
  9  5  1  0  0  0  0
 11 10  1  0  0  0  0
 11 18  1  0  0  0  0
 12 11  2  0  0  0  0
 13 12  1  0  0  0  0
 13 15  2  0  0  0  0
 14 13  1  0  0  0  0
 15 17  1  0  0  0  0
 16 15  1  0  0  0  0
 17 18  2  0  0  0  0
 19 26  1  0  0  0  0
 19 21  1  0  0  0  0
 20 19  1  0  0  0  0
 22 28  1  0  0  0  0
 23 29  1  0  0  0  0
 23 22  2  0  0  0  0
 24 23  1  0  0  0  0
 25 24  2  0  0  0  0
 25 26  1  0  0  0  0
 26 27  2  0  0  0  0
 27 22  1  0  0  0  0
 30 24  1  0  0  0  0
M  END
>  <minimizedAffinity>
-5.23859692

$$$$

 OpenBabel03272506073D

 30 32  0  0  0  0  0  0  0  0999 V2000
   38.3630   25.9020   33.7910 C   0  0  0  0  0  0  0  0  0  0  0  0
   39.3500   25.3980   33.7650 H   0  0  0  0  0  0  0  0  0  0  0  0
   38.5610   26.9230   33.3580 H   0  0  0  0  0  0  0  0  0  0  0  0
   37.3860   25.2170   32.8760 C   0  0  0  0  0  0  0  0  0  0  0  0
   36.5090   26.0390   32.0690 C   0  0  0  0  0  0  0  0  0  0  0  0
   35.5880   24.7810   31.2050 S   0  0  0  0  0  0  0  0  0  0  0  0
   36.4940   23.3690   32.0320 C   0  0  0  0  0  0  0  0  0  0  0  0
   37.2670   23.9240   32.7550 N   0  0  0  0  0  0  0  0  0  0  0  0
   36.4700   27.0850   32.0420 H   0  0  0  0  0  0  0  0  0  0  0  0
   38.1280   21.9950   30.3580 F   0  0  0  0  0  0  0  0  0  0  0  0
   37.0990   21.2960   30.8900 C   0  0  0  0  0  0  0  0  0  0  0  0
   36.2060   21.8920   31.7530 C   0  0  0  0  0  0  0  0  0  0  0  0
   35.1200   21.3450   32.3790 C   0  0  0  0  0  0  0  0  0  0  0  0
   34.4930   21.9020   33.0320 H   0  0  0  0  0  0  0  0  0  0  0  0
   34.9330   20.0120   32.0740 C   0  0  0  0  0  0  0  0  0  0  0  0
   34.0880   19.4680   32.5210 H   0  0  0  0  0  0  0  0  0  0  0  0
   35.7560   19.3070   31.2260 C   0  0  0  0  0  3  0  0  0  0  0  0
   36.8150   19.9670   30.6590 C   0  0  0  0  0  3  0  0  0  0  0  0
   37.8770   25.9720   35.1930 C   0  0  0  0  0  0  0  0  0  0  0  0
   36.7780   25.8970   35.2750 H   0  0  0  0  0  0  0  0  0  0  0  0
   38.2210   26.9230   35.6820 H   0  0  0  0  0  0  0  0  0  0  0  0
   40.0940   23.2350   36.3730 C   0  0  0  0  0  0  0  0  0  0  0  0
   39.5370   22.9130   37.6270 C   0  0  0  0  0  0  0  0  0  0  0  0
   38.4140   23.6420   38.0410 C   0  0  0  0  0  0  0  0  0  0  0  0
   37.9330   24.6070   37.2140 N   0  0  0  0  0  0  0  0  0  0  0  0
   38.5030   24.8720   36.0270 C   0  0  0  0  0  0  0  0  0  0  0  0
   39.5640   24.1990   35.6140 N   0  0  0  0  0  0  0  0  0  0  0  0
   40.9590   22.6620   36.0750 H   0  0  0  0  0  0  0  0  0  0  0  0
   39.9150   22.1470   38.2880 H   0  0  0  0  0  0  0  0  0  0  0  0
   37.9050   23.4780   38.9890 H   0  0  0  0  0  0  0  0  0  0  0  0
  1 19  1  0  0  0  0
  2  1  1  0  0  0  0
  3  1  1  0  0  0  0
  4  1  1  0  0  0  0
  5  4  2  0  0  0  0
  6  7  1  0  0  0  0
  6  5  1  0  0  0  0
  7  8  2  0  0  0  0
  8  4  1  0  0  0  0
  9  5  1  0  0  0  0
 10 11  1  0  0  0  0
 11 12  1  0  0  0  0
 12  7  1  0  0  0  0
 12 13  2  0  0  0  0
 13 14  1  0  0  0  0
 15 13  1  0  0  0  0
 15 16  1  0  0  0  0
 17 15  2  0  0  0  0
 18 11  2  0  0  0  0
 18 17  1  0  0  0  0
 19 20  1  0  0  0  0
 19 21  1  0  0  0  0
 19 26  1  0  0  0  0
 22 23  1  0  0  0  0
 23 24  2  0  0  0  0
 23 29  1  0  0  0  0
 24 30  1  0  0  0  0
 25 24  1  0  0  0  0
 26 25  2  0  0  0  0
 27 26  1  0  0  0  0
 27 22  2  0  0  0  0
 28 22  1  0  0  0  0
M  END
>  <minimizedAffinity>
-5.22350168

$$$$

 OpenBabel03272506073D

 30 32  0  0  0  0  0  0  0  0999 V2000
   37.4840   26.7460   33.7530 C   0  0  0  0  0  0  0  0  0  0  0  0
   36.8580   25.8320   33.7030 H   0  0  0  0  0  0  0  0  0  0  0  0
   38.1680   26.6630   32.8620 H   0  0  0  0  0  0  0  0  0  0  0  0
   36.6480   27.9800   33.5560 C   0  0  0  0  0  0  0  0  0  0  0  0
   36.3240   28.3800   32.2030 C   0  0  0  0  0  0  0  0  0  0  0  0
   35.3580   29.8450   32.5200 S   0  0  0  0  0  0  0  0  0  0  0  0
   35.5260   29.7090   34.3770 C   0  0  0  0  0  0  0  0  0  0  0  0
   36.1900   28.7260   34.5230 N   0  0  0  0  0  0  0  0  0  0  0  0
   36.6080   27.9010   31.3160 H   0  0  0  0  0  0  0  0  0  0  0  0
   32.8750   29.5410   34.9300 F   0  0  0  0  0  0  0  0  0  0  0  0
   33.5540   30.5220   35.5680 C   0  0  0  0  0  0  0  0  0  0  0  0
   34.9050   30.7010   35.3640 C   0  0  0  0  0  0  0  0  0  0  0  0
   35.7430   31.6300   35.9170 C   0  0  0  0  0  0  0  0  0  0  0  0
   36.7790   31.6770   35.6860 H   0  0  0  0  0  0  0  0  0  0  0  0
   35.1030   32.4820   36.7940 C   0  0  0  0  0  0  0  0  0  0  0  0
   35.6800   33.2710   37.2990 H   0  0  0  0  0  0  0  0  0  0  0  0
   33.7590   32.4050   37.0810 C   0  0  0  0  0  3  0  0  0  0  0  0
   33.0240   31.4290   36.4610 C   0  0  0  0  0  3  0  0  0  0  0  0
   38.2340   26.7650   35.0350 C   0  0  0  0  0  0  0  0  0  0  0  0
   37.8540   27.5180   35.7480 H   0  0  0  0  0  0  0  0  0  0  0  0
   39.3270   26.9490   34.8490 H   0  0  0  0  0  0  0  0  0  0  0  0
   38.1510   23.0960   35.6060 C   0  0  0  0  0  0  0  0  0  0  0  0
   38.1070   23.0080   37.0120 C   0  0  0  0  0  0  0  0  0  0  0  0
   38.1090   24.2090   37.7340 C   0  0  0  0  0  0  0  0  0  0  0  0
   38.1500   25.3760   37.0400 N   0  0  0  0  0  0  0  0  0  0  0  0
   38.1890   25.4020   35.6970 C   0  0  0  0  0  0  0  0  0  0  0  0
   38.1900   24.2820   34.9930 N   0  0  0  0  0  0  0  0  0  0  0  0
   38.1490   22.1580   35.0700 H   0  0  0  0  0  0  0  0  0  0  0  0
   38.0750   22.0830   37.5690 H   0  0  0  0  0  0  0  0  0  0  0  0
   38.0780   24.2590   38.8200 H   0  0  0  0  0  0  0  0  0  0  0  0
  1 19  1  0  0  0  0
  2  1  1  0  0  0  0
  3  1  1  0  0  0  0
  4  1  1  0  0  0  0
  4  8  1  0  0  0  0
  5  6  1  0  0  0  0
  5  4  2  0  0  0  0
  6  7  1  0  0  0  0
  7  8  2  0  0  0  0
  7 12  1  0  0  0  0
  9  5  1  0  0  0  0
 10 11  1  0  0  0  0
 11 18  1  0  0  0  0
 12 11  2  0  0  0  0
 12 13  1  0  0  0  0
 13 15  2  0  0  0  0
 14 13  1  0  0  0  0
 15 17  1  0  0  0  0
 15 16  1  0  0  0  0
 18 17  2  0  0  0  0
 19 26  1  0  0  0  0
 19 20  1  0  0  0  0
 21 19  1  0  0  0  0
 22 23  1  0  0  0  0
 23 29  1  0  0  0  0
 23 24  2  0  0  0  0
 24 30  1  0  0  0  0
 25 24  1  0  0  0  0
 26 25  2  0  0  0  0
 27 22  2  0  0  0  0
 27 26  1  0  0  0  0
 28 22  1  0  0  0  0
M  END
>  <minimizedAffinity>
-5.18434715

$$$$

 OpenBabel03272506073D

 30 32  0  0  0  0  0  0  0  0999 V2000
   36.5290   27.4480   32.2630 C   0  0  0  0  0  0  0  0  0  0  0  0
   35.8940   26.7050   32.7860 H   0  0  0  0  0  0  0  0  0  0  0  0
   36.3080   27.2840   31.1710 H   0  0  0  0  0  0  0  0  0  0  0  0
   36.0980   28.8500   32.5960 C   0  0  0  0  0  0  0  0  0  0  0  0
   36.3690   29.8970   31.6330 C   0  0  0  0  0  0  0  0  0  0  0  0
   35.6860   31.3060   32.4850 S   0  0  0  0  0  0  0  0  0  0  0  0
   35.1500   30.3080   33.9730 C   0  0  0  0  0  0  0  0  0  0  0  0
   35.4950   29.1970   33.6990 N   0  0  0  0  0  0  0  0  0  0  0  0
   36.8410   29.7970   30.7040 H   0  0  0  0  0  0  0  0  0  0  0  0
   36.6100   31.6570   35.8200 F   0  0  0  0  0  0  0  0  0  0  0  0
   35.2820   31.5690   36.0610 C   0  0  0  0  0  0  0  0  0  0  0  0
   34.4430   30.9070   35.1920 C   0  0  0  0  0  0  0  0  0  0  0  0
   33.0900   30.7200   35.2760 C   0  0  0  0  0  0  0  0  0  0  0  0
   32.5380   30.1880   34.5400 H   0  0  0  0  0  0  0  0  0  0  0  0
   32.5340   31.2920   36.4010 C   0  0  0  0  0  0  0  0  0  0  0  0
   31.4510   31.2050   36.5730 H   0  0  0  0  0  0  0  0  0  0  0  0
   33.2660   31.9780   37.3440 C   0  0  0  0  0  3  0  0  0  0  0  0
   34.6170   32.0970   37.1480 C   0  0  0  0  0  3  0  0  0  0  0  0
   37.9560   27.2000   32.5890 C   0  0  0  0  0  0  0  0  0  0  0  0
   38.5790   28.1090   32.5310 H   0  0  0  0  0  0  0  0  0  0  0  0
   38.3840   26.4120   31.9110 H   0  0  0  0  0  0  0  0  0  0  0  0
   38.3940   26.8140   36.2580 C   0  0  0  0  0  0  0  0  0  0  0  0
   38.3080   25.4180   36.4290 C   0  0  0  0  0  0  0  0  0  0  0  0
   38.1020   24.6390   35.2830 C   0  0  0  0  0  0  0  0  0  0  0  0
   37.9980   25.2720   34.0850 N   0  0  0  0  0  0  0  0  0  0  0  0
   38.0880   26.6090   33.9790 C   0  0  0  0  0  0  0  0  0  0  0  0
   38.2820   27.3660   35.0460 N   0  0  0  0  0  0  0  0  0  0  0  0
   38.5530   27.3950   37.1550 H   0  0  0  0  0  0  0  0  0  0  0  0
   38.3900   24.9090   37.3780 H   0  0  0  0  0  0  0  0  0  0  0  0
   38.0200   23.5540   35.2980 H   0  0  0  0  0  0  0  0  0  0  0  0
  1 19  1  0  0  0  0
  1  4  1  0  0  0  0
  1  2  1  0  0  0  0
  3  1  1  0  0  0  0
  4  8  1  0  0  0  0
  5  6  1  0  0  0  0
  5  4  2  0  0  0  0
  6  7  1  0  0  0  0
  7 12  1  0  0  0  0
  8  7  2  0  0  0  0
  9  5  1  0  0  0  0
 10 11  1  0  0  0  0
 11 18  1  0  0  0  0
 12 13  1  0  0  0  0
 12 11  2  0  0  0  0
 13 15  2  0  0  0  0
 14 13  1  0  0  0  0
 15 16  1  0  0  0  0
 15 17  1  0  0  0  0
 18 17  2  0  0  0  0
 19 26  1  0  0  0  0
 20 19  1  0  0  0  0
 21 19  1  0  0  0  0
 22 23  1  0  0  0  0
 22 28  1  0  0  0  0
 23 29  1  0  0  0  0
 24 30  1  0  0  0  0
 24 23  2  0  0  0  0
 25 24  1  0  0  0  0
 26 25  2  0  0  0  0
 26 27  1  0  0  0  0
 27 22  2  0  0  0  0
M  END
>  <minimizedAffinity>
-5.02589464

$$$$

 OpenBabel03272506073D

 30 32  0  0  0  0  0  0  0  0999 V2000
   37.1180   27.3070   33.7910 C   0  0  0  0  0  0  0  0  0  0  0  0
   37.9640   27.4290   34.4970 H   0  0  0  0  0  0  0  0  0  0  0  0
   36.4380   26.5650   34.2960 H   0  0  0  0  0  0  0  0  0  0  0  0
   36.3450   28.5900   33.6530 C   0  0  0  0  0  0  0  0  0  0  0  0
   36.1800   29.1520   32.3290 C   0  0  0  0  0  0  0  0  0  0  0  0
   35.2300   30.6110   32.7110 S   0  0  0  0  0  0  0  0  0  0  0  0
   35.1940   30.2620   34.5480 C   0  0  0  0  0  0  0  0  0  0  0  0
   35.8090   29.2430   34.6470 N   0  0  0  0  0  0  0  0  0  0  0  0
   36.5410   28.7630   31.4260 H   0  0  0  0  0  0  0  0  0  0  0  0
   36.6520   32.1340   35.8640 F   0  0  0  0  0  0  0  0  0  0  0  0
   35.3380   32.0760   36.1790 C   0  0  0  0  0  0  0  0  0  0  0  0
   34.5020   31.1640   35.5740 C   0  0  0  0  0  0  0  0  0  0  0  0
   33.1620   30.9650   35.7670 C   0  0  0  0  0  0  0  0  0  0  0  0
   32.6100   30.2250   35.2400 H   0  0  0  0  0  0  0  0  0  0  0  0
   32.6180   31.8170   36.7050 C   0  0  0  0  0  0  0  0  0  0  0  0
   31.5460   31.7480   36.9420 H   0  0  0  0  0  0  0  0  0  0  0  0
   33.3490   32.7700   37.3780 C   0  0  0  0  0  3  0  0  0  0  0  0
   34.6860   32.8730   37.0960 C   0  0  0  0  0  3  0  0  0  0  0  0
   37.6260   26.8070   32.4880 C   0  0  0  0  0  0  0  0  0  0  0  0
   38.7220   26.6760   32.4720 H   0  0  0  0  0  0  0  0  0  0  0  0
   37.3220   27.4990   31.6560 H   0  0  0  0  0  0  0  0  0  0  0  0
   36.8880   23.1790   32.1840 C   0  0  0  0  0  0  0  0  0  0  0  0
   35.6940   23.1740   31.4340 C   0  0  0  0  0  0  0  0  0  0  0  0
   35.1680   24.4150   31.0500 C   0  0  0  0  0  0  0  0  0  0  0  0
   35.8360   25.5390   31.4200 N   0  0  0  0  0  0  0  0  0  0  0  0
   36.9720   25.4860   32.1350 C   0  0  0  0  0  0  0  0  0  0  0  0
   37.4880   24.3280   32.5110 N   0  0  0  0  0  0  0  0  0  0  0  0
   37.2750   22.2130   32.4700 H   0  0  0  0  0  0  0  0  0  0  0  0
   35.1600   22.2840   31.1380 H   0  0  0  0  0  0  0  0  0  0  0  0
   34.2540   24.5280   30.4710 H   0  0  0  0  0  0  0  0  0  0  0  0
  1  3  1  0  0  0  0
  1  2  1  0  0  0  0
  4  1  1  0  0  0  0
  4  8  1  0  0  0  0
  5  6  1  0  0  0  0
  5  4  2  0  0  0  0
  6  7  1  0  0  0  0
  7  8  2  0  0  0  0
  7 12  1  0  0  0  0
  9  5  1  0  0  0  0
 10 11  1  0  0  0  0
 11 18  1  0  0  0  0
 12 13  1  0  0  0  0
 12 11  2  0  0  0  0
 13 15  2  0  0  0  0
 14 13  1  0  0  0  0
 15 16  1  0  0  0  0
 15 17  1  0  0  0  0
 18 17  2  0  0  0  0
 19  1  1  0  0  0  0
 20 19  1  0  0  0  0
 21 19  1  0  0  0  0
 22 28  1  0  0  0  0
 22 27  1  0  0  0  0
 23 22  2  0  0  0  0
 24 25  2  0  0  0  0
 24 23  1  0  0  0  0
 25 26  1  0  0  0  0
 26 19  1  0  0  0  0
 26 27  2  0  0  0  0
 29 23  1  0  0  0  0
 30 24  1  0  0  0  0
M  END
>  <minimizedAffinity>
-5.01564932

$$$$

 OpenBabel03272506073D

 30 32  0  0  0  0  0  0  0  0999 V2000
   36.3010   28.9220   34.5510 C   0  0  0  0  0  0  0  0  0  0  0  0
   35.6790   28.9500   35.4690 H   0  0  0  0  0  0  0  0  0  0  0  0
   37.1800   29.5830   34.7900 H   0  0  0  0  0  0  0  0  0  0  0  0
   36.8400   27.5390   34.3100 C   0  0  0  0  0  0  0  0  0  0  0  0
   36.7520   26.9920   32.9720 C   0  0  0  0  0  0  0  0  0  0  0  0
   37.5010   25.3940   33.2250 S   0  0  0  0  0  0  0  0  0  0  0  0
   37.8160   25.6870   35.0450 C   0  0  0  0  0  0  0  0  0  0  0  0
   37.3850   26.7870   35.2260 N   0  0  0  0  0  0  0  0  0  0  0  0
   36.3480   27.4540   32.1240 H   0  0  0  0  0  0  0  0  0  0  0  0
   40.2780   24.7360   34.4190 F   0  0  0  0  0  0  0  0  0  0  0  0
   39.7260   24.2520   35.5550 C   0  0  0  0  0  0  0  0  0  0  0  0
   38.4790   24.6640   35.9710 C   0  0  0  0  0  0  0  0  0  0  0  0
   37.7740   24.2850   37.0800 C   0  0  0  0  0  0  0  0  0  0  0  0
   36.8100   24.6710   37.3070 H   0  0  0  0  0  0  0  0  0  0  0  0
   38.4430   23.3640   37.8590 C   0  0  0  0  0  0  0  0  0  0  0  0
   37.9700   22.9870   38.7780 H   0  0  0  0  0  0  0  0  0  0  0  0
   39.6920   22.8750   37.5500 C   0  0  0  0  0  3  0  0  0  0  0  0
   40.2980   23.3320   36.4090 C   0  0  0  0  0  3  0  0  0  0  0  0
   35.5120   29.4320   33.4010 C   0  0  0  0  0  0  0  0  0  0  0  0
   35.6680   28.8510   32.4750 H   0  0  0  0  0  0  0  0  0  0  0  0
   35.7530   30.5120   33.2060 H   0  0  0  0  0  0  0  0  0  0  0  0
   31.8190   29.1110   33.1580 C   0  0  0  0  0  0  0  0  0  0  0  0
   31.3970   29.4730   34.4530 C   0  0  0  0  0  0  0  0  0  0  0  0
   32.3880   29.8180   35.3820 C   0  0  0  0  0  0  0  0  0  0  0  0
   33.6850   29.7840   34.9800 N   0  0  0  0  0  0  0  0  0  0  0  0
   34.0320   29.4320   33.7310 C   0  0  0  0  0  0  0  0  0  0  0  0
   33.1160   29.1020   32.8360 N   0  0  0  0  0  0  0  0  0  0  0  0
   31.0380   28.8490   32.4590 H   0  0  0  0  0  0  0  0  0  0  0  0
   30.3670   29.5020   34.7780 H   0  0  0  0  0  0  0  0  0  0  0  0
   32.1760   30.1120   36.4080 H   0  0  0  0  0  0  0  0  0  0  0  0
  1  3  1  0  0  0  0
  1  2  1  0  0  0  0
  4  1  1  0  0  0  0
  4  8  1  0  0  0  0
  5  6  1  0  0  0  0
  5  4  2  0  0  0  0
  6  7  1  0  0  0  0
  7  8  2  0  0  0  0
  7 12  1  0  0  0  0
  9  5  1  0  0  0  0
 10 11  1  0  0  0  0
 11 12  2  0  0  0  0
 11 18  1  0  0  0  0
 12 13  1  0  0  0  0
 13 14  1  0  0  0  0
 13 15  2  0  0  0  0
 15 16  1  0  0  0  0
 17 15  1  0  0  0  0
 18 17  2  0  0  0  0
 19 26  1  0  0  0  0
 19  1  1  0  0  0  0
 20 19  1  0  0  0  0
 21 19  1  0  0  0  0
 22 23  1  0  0  0  0
 23 29  1  0  0  0  0
 23 24  2  0  0  0  0
 24 30  1  0  0  0  0
 25 24  1  0  0  0  0
 26 25  2  0  0  0  0
 27 22  2  0  0  0  0
 27 26  1  0  0  0  0
 28 22  1  0  0  0  0
M  END
>  <minimizedAffinity>
-4.97445631

$$$$

 OpenBabel03272506073D

 30 32  0  0  0  0  0  0  0  0999 V2000
   37.6170   27.4170   32.5250 C   0  0  0  0  0  0  0  0  0  0  0  0
   37.7020   27.0540   31.4800 H   0  0  0  0  0  0  0  0  0  0  0  0
   38.6130   27.8990   32.7330 H   0  0  0  0  0  0  0  0  0  0  0  0
   36.5720   28.4930   32.6360 C   0  0  0  0  0  0  0  0  0  0  0  0
   36.0000   29.0220   31.4160 C   0  0  0  0  0  0  0  0  0  0  0  0
   34.8630   30.2220   32.0840 S   0  0  0  0  0  0  0  0  0  0  0  0
   35.3120   29.8470   33.8600 C   0  0  0  0  0  0  0  0  0  0  0  0
   36.1400   28.9920   33.7610 N   0  0  0  0  0  0  0  0  0  0  0  0
   36.2290   28.7380   30.4340 H   0  0  0  0  0  0  0  0  0  0  0  0
   32.7350   29.3050   34.5150 F   0  0  0  0  0  0  0  0  0  0  0  0
   33.3730   30.2010   35.3040 C   0  0  0  0  0  0  0  0  0  0  0  0
   34.6830   30.5520   35.0650 C   0  0  0  0  0  0  0  0  0  0  0  0
   35.4770   31.4300   35.7510 C   0  0  0  0  0  0  0  0  0  0  0  0
   36.4850   31.6270   35.4760 H   0  0  0  0  0  0  0  0  0  0  0  0
   34.8340   32.0200   36.8200 C   0  0  0  0  0  0  0  0  0  0  0  0
   35.3770   32.7450   37.4440 H   0  0  0  0  0  0  0  0  0  0  0  0
   33.5280   31.7510   37.1600 C   0  0  0  0  0  3  0  0  0  0  0  0
   32.8350   30.8510   36.3940 C   0  0  0  0  0  3  0  0  0  0  0  0
   37.3490   26.2690   33.4290 C   0  0  0  0  0  0  0  0  0  0  0  0
   36.5690   26.4820   34.1800 H   0  0  0  0  0  0  0  0  0  0  0  0
   38.2920   25.9520   33.9520 H   0  0  0  0  0  0  0  0  0  0  0  0
   35.5650   23.9800   31.1090 C   0  0  0  0  0  0  0  0  0  0  0  0
   36.2930   22.7810   31.2480 C   0  0  0  0  0  0  0  0  0  0  0  0
   37.3800   22.7830   32.1320 C   0  0  0  0  0  0  0  0  0  0  0  0
   37.6640   23.9320   32.7990 N   0  0  0  0  0  0  0  0  0  0  0  0
   36.9350   25.0490   32.6300 C   0  0  0  0  0  0  0  0  0  0  0  0
   35.9050   25.0720   31.8000 N   0  0  0  0  0  0  0  0  0  0  0  0
   34.7330   23.9550   30.4220 H   0  0  0  0  0  0  0  0  0  0  0  0
   36.0720   21.8650   30.7200 H   0  0  0  0  0  0  0  0  0  0  0  0
   38.0100   21.9150   32.3150 H   0  0  0  0  0  0  0  0  0  0  0  0
  1  4  1  0  0  0  0
  1  3  1  0  0  0  0
  1 19  1  0  0  0  0
  2  1  1  0  0  0  0
  4  8  1  0  0  0  0
  5  6  1  0  0  0  0
  5  4  2  0  0  0  0
  6  7  1  0  0  0  0
  7 12  1  0  0  0  0
  8  7  2  0  0  0  0
  9  5  1  0  0  0  0
 10 11  1  0  0  0  0
 11 18  1  0  0  0  0
 12 11  2  0  0  0  0
 12 13  1  0  0  0  0
 13 15  2  0  0  0  0
 14 13  1  0  0  0  0
 15 17  1  0  0  0  0
 15 16  1  0  0  0  0
 18 17  2  0  0  0  0
 19 21  1  0  0  0  0
 19 20  1  0  0  0  0
 22 23  2  0  0  0  0
 22 27  1  0  0  0  0
 23 24  1  0  0  0  0
 24 30  1  0  0  0  0
 24 25  2  0  0  0  0
 26 25  1  0  0  0  0
 26 19  1  0  0  0  0
 27 26  2  0  0  0  0
 28 22  1  0  0  0  0
 29 23  1  0  0  0  0
M  END
>  <minimizedAffinity>
-4.96471071

$$$$
