
 OpenBabel03272510333D

 28 30  0  0  0  0  0  0  0  0999 V2000
   36.9900   30.7430   45.6170 C   0  0  0  0  0  0  0  0  0  0  0  0
   36.3070   30.4060   44.4600 C   0  0  0  0  0  0  0  0  0  0  0  0
   35.0210   29.8950   44.5340 C   0  0  0  0  0  0  0  0  0  0  0  0
   34.4420   29.7330   45.7870 C   0  0  0  0  0  0  0  0  0  0  0  0
   35.1100   30.0650   46.9450 C   0  0  0  0  0  0  0  0  0  0  0  0
   36.3940   30.5750   46.8620 C   0  0  0  0  0  0  0  0  0  0  0  0
   36.7750   30.5410   43.5100 H   0  0  0  0  0  0  0  0  0  0  0  0
   34.5050   29.6380   43.6320 H   0  0  0  0  0  0  0  0  0  0  0  0
   33.4370   29.3360   45.8890 H   0  0  0  0  0  0  0  0  0  0  0  0
   34.6930   29.9530   47.9350 H   0  0  0  0  0  0  0  0  0  0  0  0
   39.6510   33.1170   44.8940 C   0  0  0  0  0  0  0  0  0  0  0  0
   40.8300   32.3950   45.1210 C   0  0  0  0  0  0  0  0  0  0  0  0
   40.6840   31.0600   45.5320 C   0  0  0  0  0  0  0  0  0  0  0  0
   39.4400   30.5620   45.6820 N   0  0  0  0  0  0  0  0  0  0  0  0
   38.3300   31.2740   45.4590 C   0  0  0  0  0  0  0  0  0  0  0  0
   38.4470   32.5590   45.0630 N   0  0  0  0  0  0  0  0  0  0  0  0
   39.6640   34.1480   44.5770 H   0  0  0  0  0  0  0  0  0  0  0  0
   41.7410   32.9150   44.9640 H   0  0  0  0  0  0  0  0  0  0  0  0
   41.5980   30.5100   45.7040 H   0  0  0  0  0  0  0  0  0  0  0  0
   36.4520   28.7130   48.9380 F   0  0  0  0  0  0  0  0  0  0  0  0
   37.0790   29.9200   49.0440 C   0  0  0  0  0  0  0  0  0  0  0  0
   37.1220   30.9310   48.0780 C   0  0  0  0  0  0  0  0  0  0  0  0
   37.8220   32.0960   48.3850 C   0  0  0  0  0  0  0  0  0  0  0  0
   37.7950   32.8030   47.5860 H   0  0  0  0  0  0  0  0  0  0  0  0
   38.4330   32.2170   49.5920 C   0  0  0  0  0  0  0  0  0  0  0  0
   38.9470   33.1570   49.7310 H   0  0  0  0  0  0  0  0  0  0  0  0
   38.3990   31.2290   50.5550 C   0  0  0  0  0  3  0  0  0  0  0  0
   37.7050   30.0610   50.2650 C   0  0  0  0  0  3  0  0  0  0  0  0
  1  6  1  0  0  0  0
  2  3  1  0  0  0  0
  2  1  2  0  0  0  0
  3  4  2  0  0  0  0
  4  9  1  0  0  0  0
  4  5  1  0  0  0  0
  5 10  1  0  0  0  0
  6  5  2  0  0  0  0
  6 22  1  0  0  0  0
  7  2  1  0  0  0  0
  8  3  1  0  0  0  0
 11 16  2  0  0  0  0
 11 12  1  0  0  0  0
 12 13  2  0  0  0  0
 13 14  1  0  0  0  0
 13 19  1  0  0  0  0
 15  1  1  0  0  0  0
 15 14  2  0  0  0  0
 16 15  1  0  0  0  0
 17 11  1  0  0  0  0
 18 12  1  0  0  0  0
 20 21  1  0  0  0  0
 21 28  1  0  0  0  0
 22 23  1  0  0  0  0
 22 21  2  0  0  0  0
 23 25  2  0  0  0  0
 24 23  1  0  0  0  0
 25 26  1  0  0  0  0
 25 27  1  0  0  0  0
 28 27  2  0  0  0  0
M  END
>  <minimizedAffinity>
-6.55819368

>  <minimizedRMSD>
3.43962884

$$$$
