
 OpenBabel03272508183D

 25 27  0  0  0  0  0  0  0  0999 V2000
   39.1440   24.9270   33.9170 C   0  0  0  0  0  0  0  0  0  0  0  0
   38.5020   23.8650   34.6060 C   0  0  0  0  0  0  0  0  0  0  0  0
   37.7750   23.0000   33.7950 C   0  0  0  0  0  0  0  0  0  0  0  0
   37.7200   23.2050   32.4480 N   0  0  0  0  0  0  0  0  0  0  0  0
   38.3570   24.2440   31.8330 C   0  0  0  0  0  0  0  0  0  0  0  0
   39.0740   25.1130   32.5750 N   0  0  0  0  0  0  0  0  0  0  0  0
   37.2580   22.1660   34.2500 H   0  0  0  0  0  0  0  0  0  0  0  0
   38.2970   24.3840   30.7650 H   0  0  0  0  0  0  0  0  0  0  0  0
   40.5720   22.3820   35.7780 F   0  0  0  0  0  0  0  0  0  0  0  0
   39.6490   22.9790   36.5620 C   0  0  0  0  0  0  0  0  0  0  0  0
   38.6130   23.7190   36.0300 C   0  0  0  0  0  0  0  0  0  0  0  0
   37.7100   24.2970   36.9050 C   0  0  0  0  0  0  0  0  0  0  0  0
   36.8820   24.8850   36.5250 H   0  0  0  0  0  0  0  0  0  0  0  0
   37.8440   24.1350   38.2800 C   0  0  0  0  0  0  0  0  0  0  0  0
   37.1270   24.5960   38.9300 H   0  0  0  0  0  0  0  0  0  0  0  0
   38.8990   23.3840   38.8040 C   0  0  0  0  0  3  0  0  0  0  0  0
   39.8030   22.8050   37.9200 C   0  0  0  0  0  3  0  0  0  0  0  0
   39.9980   25.8100   34.8080 C   0  0  0  0  0  0  0  0  0  0  0  0
   40.5440   27.0430   34.3020 C   0  0  0  0  0  0  0  0  0  0  0  0
   39.2730   27.1340   35.1140 C   0  0  0  0  0  0  0  0  0  0  0  0
   40.2830   25.3300   35.7790 H   0  0  0  0  0  0  0  0  0  0  0  0
   40.4700   27.2730   33.2080 H   0  0  0  0  0  0  0  0  0  0  0  0
   41.4580   27.5020   34.7400 H   0  0  0  0  0  0  0  0  0  0  0  0
   38.3170   27.3120   34.6100 H   0  0  0  0  0  0  0  0  0  0  0  0
   39.3640   27.5080   36.1400 H   0  0  0  0  0  0  0  0  0  0  0  0
  1  2  1  0  0  0  0
  1 18  1  0  0  0  0
  2 11  1  0  0  0  0
  3  7  1  0  0  0  0
  3  2  2  0  0  0  0
  4  3  1  0  0  0  0
  5  4  2  0  0  0  0
  5  6  1  0  0  0  0
  6  1  2  0  0  0  0
  8  5  1  0  0  0  0
  9 10  1  0  0  0  0
 10 17  1  0  0  0  0
 11 10  2  0  0  0  0
 11 12  1  0  0  0  0
 12 14  2  0  0  0  0
 13 12  1  0  0  0  0
 14 16  1  0  0  0  0
 14 15  1  0  0  0  0
 17 16  2  0  0  0  0
 18 20  1  0  0  0  0
 18 21  1  0  0  0  0
 19 23  1  0  0  0  0
 19 18  1  0  0  0  0
 19 20  1  0  0  0  0
 20 25  1  0  0  0  0
 22 19  1  0  0  0  0
 24 20  1  0  0  0  0
M  END
>  <minimizedAffinity>
-4.73165512

$$$$

 OpenBabel03272508183D

 25 27  0  0  0  0  0  0  0  0999 V2000
   39.3300   23.6030   36.6400 C   0  0  0  0  0  0  0  0  0  0  0  0
   39.6700   24.4880   35.5850 C   0  0  0  0  0  0  0  0  0  0  0  0
   40.9030   24.2400   34.9900 C   0  0  0  0  0  0  0  0  0  0  0  0
   41.6820   23.2110   35.4290 N   0  0  0  0  0  0  0  0  0  0  0  0
   41.3080   22.3870   36.4510 C   0  0  0  0  0  0  0  0  0  0  0  0
   40.1220   22.5850   37.0620 N   0  0  0  0  0  0  0  0  0  0  0  0
   41.2300   24.8760   34.1780 H   0  0  0  0  0  0  0  0  0  0  0  0
   41.9440   21.5790   36.7790 H   0  0  0  0  0  0  0  0  0  0  0  0
   37.9220   24.2050   33.4120 F   0  0  0  0  0  0  0  0  0  0  0  0
   37.9470   25.3630   34.1050 C   0  0  0  0  0  0  0  0  0  0  0  0
   38.7890   25.5490   35.1820 C   0  0  0  0  0  0  0  0  0  0  0  0
   38.7500   26.7670   35.8360 C   0  0  0  0  0  0  0  0  0  0  0  0
   39.3990   26.9500   36.6860 H   0  0  0  0  0  0  0  0  0  0  0  0
   37.8860   27.7740   35.4200 C   0  0  0  0  0  0  0  0  0  0  0  0
   37.8810   28.7060   35.9490 H   0  0  0  0  0  0  0  0  0  0  0  0
   37.0380   27.5720   34.3290 C   0  0  0  0  0  3  0  0  0  0  0  0
   37.0810   26.3460   33.6740 C   0  0  0  0  0  3  0  0  0  0  0  0
   37.9470   23.8380   37.2190 C   0  0  0  0  0  0  0  0  0  0  0  0
   37.4970   23.0820   38.3590 C   0  0  0  0  0  0  0  0  0  0  0  0
   38.0460   24.4640   38.6230 C   0  0  0  0  0  0  0  0  0  0  0  0
   37.2980   24.4940   36.5850 H   0  0  0  0  0  0  0  0  0  0  0  0
   38.1040   22.2120   38.7210 H   0  0  0  0  0  0  0  0  0  0  0  0
   36.4160   22.9200   38.5640 H   0  0  0  0  0  0  0  0  0  0  0  0
   39.0480   24.5790   39.0530 H   0  0  0  0  0  0  0  0  0  0  0  0
   37.3210   25.2520   38.8520 H   0  0  0  0  0  0  0  0  0  0  0  0
  1  6  1  0  0  0  0
  1 18  1  0  0  0  0
  2  1  2  0  0  0  0
  3  4  2  0  0  0  0
  3  2  1  0  0  0  0
  4  5  1  0  0  0  0
  5  8  1  0  0  0  0
  5  6  2  0  0  0  0
  7  3  1  0  0  0  0
  9 10  1  0  0  0  0
 10 11  1  0  0  0  0
 11  2  1  0  0  0  0
 11 12  2  0  0  0  0
 12 13  1  0  0  0  0
 14 12  1  0  0  0  0
 14 15  1  0  0  0  0
 16 14  2  0  0  0  0
 17 10  2  0  0  0  0
 17 16  1  0  0  0  0
 18 19  1  0  0  0  0
 18 20  1  0  0  0  0
 19 23  1  0  0  0  0
 19 20  1  0  0  0  0
 19 22  1  0  0  0  0
 20 25  1  0  0  0  0
 20 24  1  0  0  0  0
 21 18  1  0  0  0  0
M  END
>  <minimizedAffinity>
-4.7227354

$$$$

 OpenBabel03272508183D

 25 27  0  0  0  0  0  0  0  0999 V2000
   39.9800   24.5480   35.2130 C   0  0  0  0  0  0  0  0  0  0  0  0
   40.0680   25.8670   34.6980 C   0  0  0  0  0  0  0  0  0  0  0  0
   41.3630   26.3570   34.5660 C   0  0  0  0  0  0  0  0  0  0  0  0
   42.4290   25.5840   34.9200 N   0  0  0  0  0  0  0  0  0  0  0  0
   42.2900   24.3180   35.4120 C   0  0  0  0  0  0  0  0  0  0  0  0
   41.0550   23.7960   35.5600 N   0  0  0  0  0  0  0  0  0  0  0  0
   41.5080   27.3570   34.1810 H   0  0  0  0  0  0  0  0  0  0  0  0
   43.1500   23.7260   35.6850 H   0  0  0  0  0  0  0  0  0  0  0  0
   38.5960   27.2840   36.6180 F   0  0  0  0  0  0  0  0  0  0  0  0
   38.2010   27.2970   35.3270 C   0  0  0  0  0  0  0  0  0  0  0  0
   38.8920   26.6150   34.3470 C   0  0  0  0  0  0  0  0  0  0  0  0
   38.4180   26.6810   33.0490 C   0  0  0  0  0  0  0  0  0  0  0  0
   38.9350   26.1580   32.2520 H   0  0  0  0  0  0  0  0  0  0  0  0
   37.2760   27.4140   32.7420 C   0  0  0  0  0  0  0  0  0  0  0  0
   36.9350   27.4450   31.7270 H   0  0  0  0  0  0  0  0  0  0  0  0
   36.5860   28.1000   33.7450 C   0  0  0  0  0  3  0  0  0  0  0  0
   37.0670   28.0300   35.0480 C   0  0  0  0  0  3  0  0  0  0  0  0
   38.5650   24.0030   35.2700 C   0  0  0  0  0  0  0  0  0  0  0  0
   38.3100   22.6970   35.8230 C   0  0  0  0  0  0  0  0  0  0  0  0
   38.0890   23.8850   36.7310 C   0  0  0  0  0  0  0  0  0  0  0  0
   37.8200   24.6190   34.7040 H   0  0  0  0  0  0  0  0  0  0  0  0
   39.1700   22.0210   36.0650 H   0  0  0  0  0  0  0  0  0  0  0  0
   37.4120   22.1050   35.5360 H   0  0  0  0  0  0  0  0  0  0  0  0
   38.8170   24.1120   37.5170 H   0  0  0  0  0  0  0  0  0  0  0  0
   37.0500   24.1760   36.9240 H   0  0  0  0  0  0  0  0  0  0  0  0
  1 18  1  0  0  0  0
  1  6  1  0  0  0  0
  2  1  2  0  0  0  0
  3  2  1  0  0  0  0
  3  4  2  0  0  0  0
  4  5  1  0  0  0  0
  5  6  2  0  0  0  0
  5  8  1  0  0  0  0
  7  3  1  0  0  0  0
 10  9  1  0  0  0  0
 11  2  1  0  0  0  0
 11 10  2  0  0  0  0
 12 11  1  0  0  0  0
 13 12  1  0  0  0  0
 14 12  2  0  0  0  0
 14 16  1  0  0  0  0
 15 14  1  0  0  0  0
 16 17  2  0  0  0  0
 17 10  1  0  0  0  0
 18 19  1  0  0  0  0
 18 20  1  0  0  0  0
 19 22  1  0  0  0  0
 19 20  1  0  0  0  0
 20 25  1  0  0  0  0
 20 24  1  0  0  0  0
 21 18  1  0  0  0  0
 23 19  1  0  0  0  0
M  END
>  <minimizedAffinity>
-4.45782757

$$$$

 OpenBabel03272508183D

 25 27  0  0  0  0  0  0  0  0999 V2000
   36.2850   26.7760   31.8360 C   0  0  0  0  0  0  0  0  0  0  0  0
   37.1250   25.8030   32.4370 C   0  0  0  0  0  0  0  0  0  0  0  0
   36.7550   24.4840   32.1950 C   0  0  0  0  0  0  0  0  0  0  0  0
   35.6600   24.2080   31.4300 N   0  0  0  0  0  0  0  0  0  0  0  0
   34.8840   25.1840   30.8730 C   0  0  0  0  0  0  0  0  0  0  0  0
   35.1990   26.4790   31.0790 N   0  0  0  0  0  0  0  0  0  0  0  0
   37.3480   23.6870   32.6220 H   0  0  0  0  0  0  0  0  0  0  0  0
   34.0230   24.9380   30.2720 H   0  0  0  0  0  0  0  0  0  0  0  0
   36.8950   26.3570   35.1750 F   0  0  0  0  0  0  0  0  0  0  0  0
   38.1010   26.4430   34.5730 C   0  0  0  0  0  0  0  0  0  0  0  0
   38.2630   26.1790   33.2290 C   0  0  0  0  0  0  0  0  0  0  0  0
   39.5330   26.2920   32.6920 C   0  0  0  0  0  0  0  0  0  0  0  0
   39.7000   26.0930   31.6390 H   0  0  0  0  0  0  0  0  0  0  0  0
   40.6140   26.6590   33.4870 C   0  0  0  0  0  0  0  0  0  0  0  0
   41.5850   26.7370   33.0390 H   0  0  0  0  0  0  0  0  0  0  0  0
   40.4350   26.9220   34.8470 C   0  0  0  0  0  3  0  0  0  0  0  0
   39.1560   26.8080   35.3810 C   0  0  0  0  0  3  0  0  0  0  0  0
   36.7540   28.2050   32.0440 C   0  0  0  0  0  0  0  0  0  0  0  0
   35.9670   29.3080   31.5550 C   0  0  0  0  0  0  0  0  0  0  0  0
   35.8150   28.9470   33.0140 C   0  0  0  0  0  0  0  0  0  0  0  0
   37.8000   28.2850   32.4340 H   0  0  0  0  0  0  0  0  0  0  0  0
   35.0900   29.1080   30.8850 H   0  0  0  0  0  0  0  0  0  0  0  0
   36.4220   30.2950   31.3220 H   0  0  0  0  0  0  0  0  0  0  0  0
   34.9200   28.4150   33.3540 H   0  0  0  0  0  0  0  0  0  0  0  0
   36.2990   29.6080   33.7420 H   0  0  0  0  0  0  0  0  0  0  0  0
  1 18  1  0  0  0  0
  1  2  1  0  0  0  0
  2 11  1  0  0  0  0
  3  2  2  0  0  0  0
  3  7  1  0  0  0  0
  4  3  1  0  0  0  0
  5  6  1  0  0  0  0
  5  4  2  0  0  0  0
  6  1  2  0  0  0  0
  8  5  1  0  0  0  0
 10  9  1  0  0  0  0
 10 17  1  0  0  0  0
 11 10  2  0  0  0  0
 12 11  1  0  0  0  0
 12 14  2  0  0  0  0
 13 12  1  0  0  0  0
 14 16  1  0  0  0  0
 15 14  1  0  0  0  0
 16 17  2  0  0  0  0
 18 21  1  0  0  0  0
 18 20  1  0  0  0  0
 19 18  1  0  0  0  0
 19 20  1  0  0  0  0
 20 24  1  0  0  0  0
 20 25  1  0  0  0  0
 22 19  1  0  0  0  0
 23 19  1  0  0  0  0
M  END
>  <minimizedAffinity>
-4.41526461

$$$$

 OpenBabel03272508183D

 25 27  0  0  0  0  0  0  0  0999 V2000
   38.8140   24.9880   33.8270 C   0  0  0  0  0  0  0  0  0  0  0  0
   38.5140   23.7290   34.4070 C   0  0  0  0  0  0  0  0  0  0  0  0
   37.6770   22.9210   33.6440 C   0  0  0  0  0  0  0  0  0  0  0  0
   37.2130   23.3570   32.4390 N   0  0  0  0  0  0  0  0  0  0  0  0
   37.5320   24.5810   31.9250 C   0  0  0  0  0  0  0  0  0  0  0  0
   38.3390   25.4040   32.6260 N   0  0  0  0  0  0  0  0  0  0  0  0
   37.4040   21.9450   34.0240 H   0  0  0  0  0  0  0  0  0  0  0  0
   37.1510   24.9030   30.9680 H   0  0  0  0  0  0  0  0  0  0  0  0
   37.2560   24.4520   36.8060 F   0  0  0  0  0  0  0  0  0  0  0  0
   38.3930   23.7240   36.8380 C   0  0  0  0  0  0  0  0  0  0  0  0
   39.0470   23.3440   35.6840 C   0  0  0  0  0  0  0  0  0  0  0  0
   40.2060   22.6000   35.8080 C   0  0  0  0  0  0  0  0  0  0  0  0
   40.7490   22.2830   34.9230 H   0  0  0  0  0  0  0  0  0  0  0  0
   40.6970   22.2440   37.0600 C   0  0  0  0  0  0  0  0  0  0  0  0
   41.5980   21.6670   37.1200 H   0  0  0  0  0  0  0  0  0  0  0  0
   40.0240   22.6350   38.2200 C   0  0  0  0  0  3  0  0  0  0  0  0
   38.8590   23.3840   38.0900 C   0  0  0  0  0  3  0  0  0  0  0  0
   39.7930   25.8200   34.6350 C   0  0  0  0  0  0  0  0  0  0  0  0
   40.1760   27.1340   34.1870 C   0  0  0  0  0  0  0  0  0  0  0  0
   39.0910   27.0530   35.2350 C   0  0  0  0  0  0  0  0  0  0  0  0
   40.2860   25.2550   35.4670 H   0  0  0  0  0  0  0  0  0  0  0  0
   39.8740   27.4790   33.1640 H   0  0  0  0  0  0  0  0  0  0  0  0
   41.1390   27.5990   34.4910 H   0  0  0  0  0  0  0  0  0  0  0  0
   38.0470   27.2240   34.9520 H   0  0  0  0  0  0  0  0  0  0  0  0
   39.3710   27.3160   36.2610 H   0  0  0  0  0  0  0  0  0  0  0  0
  1  2  1  0  0  0  0
  1 18  1  0  0  0  0
  2 11  1  0  0  0  0
  3  7  1  0  0  0  0
  3  2  2  0  0  0  0
  4  3  1  0  0  0  0
  5  4  2  0  0  0  0
  5  6  1  0  0  0  0
  6  1  2  0  0  0  0
  8  5  1  0  0  0  0
  9 10  1  0  0  0  0
 10 17  1  0  0  0  0
 11 12  1  0  0  0  0
 11 10  2  0  0  0  0
 12 14  2  0  0  0  0
 13 12  1  0  0  0  0
 14 15  1  0  0  0  0
 14 16  1  0  0  0  0
 17 16  2  0  0  0  0
 18 20  1  0  0  0  0
 18 21  1  0  0  0  0
 19 23  1  0  0  0  0
 19 18  1  0  0  0  0
 19 20  1  0  0  0  0
 20 25  1  0  0  0  0
 22 19  1  0  0  0  0
 24 20  1  0  0  0  0
M  END
>  <minimizedAffinity>
-4.38305902

$$$$

 OpenBabel03272508183D

 25 27  0  0  0  0  0  0  0  0999 V2000
   33.5730   30.5080   35.3760 C   0  0  0  0  0  0  0  0  0  0  0  0
   34.9650   30.6210   35.1250 C   0  0  0  0  0  0  0  0  0  0  0  0
   35.6420   31.4890   35.9750 C   0  0  0  0  0  0  0  0  0  0  0  0
   34.9680   32.1530   36.9570 N   0  0  0  0  0  0  0  0  0  0  0  0
   33.6250   32.0090   37.1570 C   0  0  0  0  0  0  0  0  0  0  0  0
   32.9220   31.1790   36.3580 N   0  0  0  0  0  0  0  0  0  0  0  0
   36.7070   31.6270   35.8430 H   0  0  0  0  0  0  0  0  0  0  0  0
   33.1150   32.5460   37.9410 H   0  0  0  0  0  0  0  0  0  0  0  0
   35.1830   31.6580   32.5300 F   0  0  0  0  0  0  0  0  0  0  0  0
   35.6830   30.4340   32.8070 C   0  0  0  0  0  0  0  0  0  0  0  0
   35.6000   29.8830   34.0680 C   0  0  0  0  0  0  0  0  0  0  0  0
   36.1370   28.6240   34.2650 C   0  0  0  0  0  0  0  0  0  0  0  0
   36.0900   28.1570   35.2430 H   0  0  0  0  0  0  0  0  0  0  0  0
   36.7450   27.9350   33.2200 C   0  0  0  0  0  0  0  0  0  0  0  0
   37.1520   26.9610   33.4070 H   0  0  0  0  0  0  0  0  0  0  0  0
   36.8230   28.5060   31.9480 C   0  0  0  0  0  3  0  0  0  0  0  0
   36.2800   29.7720   31.7550 C   0  0  0  0  0  3  0  0  0  0  0  0
   32.8700   29.4940   34.4920 C   0  0  0  0  0  0  0  0  0  0  0  0
   31.4410   29.3290   34.5690 C   0  0  0  0  0  0  0  0  0  0  0  0
   31.9740   30.2040   33.4590 C   0  0  0  0  0  0  0  0  0  0  0  0
   33.5680   28.8110   33.9440 H   0  0  0  0  0  0  0  0  0  0  0  0
   30.8690   29.8340   35.3900 H   0  0  0  0  0  0  0  0  0  0  0  0
   30.9440   28.3790   34.2700 H   0  0  0  0  0  0  0  0  0  0  0  0
   31.8860   31.2930   33.5350 H   0  0  0  0  0  0  0  0  0  0  0  0
   31.9740   29.7810   32.4490 H   0  0  0  0  0  0  0  0  0  0  0  0
  1  6  1  0  0  0  0
  2  1  2  0  0  0  0
  2  3  1  0  0  0  0
  3  4  2  0  0  0  0
  4  5  1  0  0  0  0
  5  8  1  0  0  0  0
  6  5  2  0  0  0  0
  7  3  1  0  0  0  0
  9 10  1  0  0  0  0
 10 11  1  0  0  0  0
 11 12  2  0  0  0  0
 11  2  1  0  0  0  0
 12 13  1  0  0  0  0
 14 15  1  0  0  0  0
 14 12  1  0  0  0  0
 16 14  2  0  0  0  0
 17 16  1  0  0  0  0
 17 10  2  0  0  0  0
 18 19  1  0  0  0  0
 18  1  1  0  0  0  0
 19 22  1  0  0  0  0
 20 24  1  0  0  0  0
 20 18  1  0  0  0  0
 20 19  1  0  0  0  0
 21 18  1  0  0  0  0
 23 19  1  0  0  0  0
 25 20  1  0  0  0  0
M  END
>  <minimizedAffinity>
-4.35808897

$$$$

 OpenBabel03272508183D

 25 27  0  0  0  0  0  0  0  0999 V2000
   37.4270   23.0050   32.8330 C   0  0  0  0  0  0  0  0  0  0  0  0
   36.3760   22.4330   32.0710 C   0  0  0  0  0  0  0  0  0  0  0  0
   35.5410   23.3530   31.4470 C   0  0  0  0  0  0  0  0  0  0  0  0
   35.7640   24.6910   31.5900 N   0  0  0  0  0  0  0  0  0  0  0  0
   36.7920   25.1910   32.3360 C   0  0  0  0  0  0  0  0  0  0  0  0
   37.6300   24.3400   32.9640 N   0  0  0  0  0  0  0  0  0  0  0  0
   34.7160   22.9900   30.8480 H   0  0  0  0  0  0  0  0  0  0  0  0
   36.9470   26.2540   32.4340 H   0  0  0  0  0  0  0  0  0  0  0  0
   35.1980   20.9360   34.1290 F   0  0  0  0  0  0  0  0  0  0  0  0
   35.6260   20.3150   33.0090 C   0  0  0  0  0  0  0  0  0  0  0  0
   36.2110   21.0090   31.9700 C   0  0  0  0  0  0  0  0  0  0  0  0
   36.6210   20.2950   30.8590 C   0  0  0  0  0  0  0  0  0  0  0  0
   37.0860   20.8060   30.0220 H   0  0  0  0  0  0  0  0  0  0  0  0
   36.4480   18.9160   30.7920 C   0  0  0  0  0  0  0  0  0  0  0  0
   36.7770   18.3930   29.9170 H   0  0  0  0  0  0  0  0  0  0  0  0
   35.8530   18.2260   31.8510 C   0  0  0  0  0  3  0  0  0  0  0  0
   35.4430   18.9500   32.9660 C   0  0  0  0  0  3  0  0  0  0  0  0
   38.3730   21.9850   33.4380 C   0  0  0  0  0  0  0  0  0  0  0  0
   39.5270   22.4150   34.1870 C   0  0  0  0  0  0  0  0  0  0  0  0
   38.3000   22.0220   34.9770 C   0  0  0  0  0  0  0  0  0  0  0  0
   38.1810   20.9340   33.1010 H   0  0  0  0  0  0  0  0  0  0  0  0
   39.8110   23.5000   34.1900 H   0  0  0  0  0  0  0  0  0  0  0  0
   40.4270   21.7720   34.2970 H   0  0  0  0  0  0  0  0  0  0  0  0
   37.6740   22.7970   35.4320 H   0  0  0  0  0  0  0  0  0  0  0  0
   38.3260   21.0510   35.4850 H   0  0  0  0  0  0  0  0  0  0  0  0
  1  6  1  0  0  0  0
  1 18  1  0  0  0  0
  2  1  2  0  0  0  0
  3  4  2  0  0  0  0
  3  2  1  0  0  0  0
  4  5  1  0  0  0  0
  5  8  1  0  0  0  0
  5  6  2  0  0  0  0
  7  3  1  0  0  0  0
 10  9  1  0  0  0  0
 11  2  1  0  0  0  0
 11 10  2  0  0  0  0
 12 11  1  0  0  0  0
 13 12  1  0  0  0  0
 14 12  2  0  0  0  0
 14 16  1  0  0  0  0
 15 14  1  0  0  0  0
 16 17  2  0  0  0  0
 17 10  1  0  0  0  0
 18 19  1  0  0  0  0
 18 20  1  0  0  0  0
 19 22  1  0  0  0  0
 19 23  1  0  0  0  0
 19 20  1  0  0  0  0
 20 24  1  0  0  0  0
 20 25  1  0  0  0  0
 21 18  1  0  0  0  0
M  END
>  <minimizedAffinity>
-4.34780788

$$$$

 OpenBabel03272508183D

 25 27  0  0  0  0  0  0  0  0999 V2000
   37.7930   25.1460   34.0580 C   0  0  0  0  0  0  0  0  0  0  0  0
   38.4420   25.4430   35.2840 C   0  0  0  0  0  0  0  0  0  0  0  0
   38.2960   26.7570   35.7180 C   0  0  0  0  0  0  0  0  0  0  0  0
   37.5720   27.6470   34.9810 N   0  0  0  0  0  0  0  0  0  0  0  0
   36.9650   27.3090   33.8060 C   0  0  0  0  0  0  0  0  0  0  0  0
   37.0780   26.0480   33.3400 N   0  0  0  0  0  0  0  0  0  0  0  0
   38.7660   27.0570   36.6450 H   0  0  0  0  0  0  0  0  0  0  0  0
   36.3970   28.0330   33.2410 H   0  0  0  0  0  0  0  0  0  0  0  0
   37.4140   24.2060   37.5800 F   0  0  0  0  0  0  0  0  0  0  0  0
   38.6390   23.8640   37.1260 C   0  0  0  0  0  0  0  0  0  0  0  0
   39.1860   24.4450   36.0000 C   0  0  0  0  0  0  0  0  0  0  0  0
   40.4470   24.0370   35.6050 C   0  0  0  0  0  0  0  0  0  0  0  0
   40.9110   24.4710   34.7250 H   0  0  0  0  0  0  0  0  0  0  0  0
   41.1430   23.0680   36.3210 C   0  0  0  0  0  0  0  0  0  0  0  0
   42.1170   22.7740   35.9880 H   0  0  0  0  0  0  0  0  0  0  0  0
   40.5750   22.4880   37.4580 C   0  0  0  0  0  3  0  0  0  0  0  0
   39.3080   22.9020   37.8520 C   0  0  0  0  0  3  0  0  0  0  0  0
   37.8950   23.6900   33.6460 C   0  0  0  0  0  0  0  0  0  0  0  0
   37.2530   23.2270   32.4420 C   0  0  0  0  0  0  0  0  0  0  0  0
   38.7270   23.5480   32.3560 C   0  0  0  0  0  0  0  0  0  0  0  0
   38.3450   23.0280   34.4300 H   0  0  0  0  0  0  0  0  0  0  0  0
   36.5480   23.9060   31.8950 H   0  0  0  0  0  0  0  0  0  0  0  0
   36.9590   22.1630   32.3070 H   0  0  0  0  0  0  0  0  0  0  0  0
   39.0550   24.4710   31.8660 H   0  0  0  0  0  0  0  0  0  0  0  0
   39.4190   22.7000   32.3190 H   0  0  0  0  0  0  0  0  0  0  0  0
  1  2  1  0  0  0  0
  2  3  2  0  0  0  0
  2 11  1  0  0  0  0
  3  7  1  0  0  0  0
  4  3  1  0  0  0  0
  5  4  2  0  0  0  0
  6  5  1  0  0  0  0
  6  1  2  0  0  0  0
  8  5  1  0  0  0  0
 10  9  1  0  0  0  0
 10 17  1  0  0  0  0
 11 10  2  0  0  0  0
 12 11  1  0  0  0  0
 12 14  2  0  0  0  0
 13 12  1  0  0  0  0
 14 16  1  0  0  0  0
 15 14  1  0  0  0  0
 16 17  2  0  0  0  0
 18  1  1  0  0  0  0
 18 21  1  0  0  0  0
 19 18  1  0  0  0  0
 20 19  1  0  0  0  0
 20 18  1  0  0  0  0
 22 19  1  0  0  0  0
 23 19  1  0  0  0  0
 24 20  1  0  0  0  0
 25 20  1  0  0  0  0
M  END
>  <minimizedAffinity>
-4.34504032

$$$$

 OpenBabel03272508183D

 25 27  0  0  0  0  0  0  0  0999 V2000
   40.2020   24.1030   35.7120 C   0  0  0  0  0  0  0  0  0  0  0  0
   38.8580   24.4830   35.9580 C   0  0  0  0  0  0  0  0  0  0  0  0
   38.2590   23.8400   37.0370 C   0  0  0  0  0  0  0  0  0  0  0  0
   38.9600   22.9260   37.7670 N   0  0  0  0  0  0  0  0  0  0  0  0
   40.2550   22.5960   37.4880 C   0  0  0  0  0  0  0  0  0  0  0  0
   40.8810   23.1890   36.4500 N   0  0  0  0  0  0  0  0  0  0  0  0
   37.2330   24.0780   37.2850 H   0  0  0  0  0  0  0  0  0  0  0  0
   40.7870   21.8690   38.0810 H   0  0  0  0  0  0  0  0  0  0  0  0
   38.4370   27.1080   36.8460 F   0  0  0  0  0  0  0  0  0  0  0  0
   38.0060   26.7380   35.6210 C   0  0  0  0  0  0  0  0  0  0  0  0
   38.1910   25.4580   35.1410 C   0  0  0  0  0  0  0  0  0  0  0  0
   37.7180   25.1620   33.8750 C   0  0  0  0  0  0  0  0  0  0  0  0
   37.8440   24.1660   33.4640 H   0  0  0  0  0  0  0  0  0  0  0  0
   37.0750   26.1300   33.1090 C   0  0  0  0  0  0  0  0  0  0  0  0
   36.7210   25.8680   32.1320 H   0  0  0  0  0  0  0  0  0  0  0  0
   36.8960   27.4220   33.6080 C   0  0  0  0  0  3  0  0  0  0  0  0
   37.3730   27.7130   34.8810 C   0  0  0  0  0  3  0  0  0  0  0  0
   40.8620   24.8750   34.5840 C   0  0  0  0  0  0  0  0  0  0  0  0
   42.2390   24.6280   34.2400 C   0  0  0  0  0  0  0  0  0  0  0  0
   41.1860   23.9390   33.4040 C   0  0  0  0  0  0  0  0  0  0  0  0
   40.2460   25.7270   34.1990 H   0  0  0  0  0  0  0  0  0  0  0  0
   42.8680   23.9810   34.9060 H   0  0  0  0  0  0  0  0  0  0  0  0
   42.8630   25.3970   33.7350 H   0  0  0  0  0  0  0  0  0  0  0  0
   40.9940   22.8690   33.5430 H   0  0  0  0  0  0  0  0  0  0  0  0
   41.0030   24.3440   32.4020 H   0  0  0  0  0  0  0  0  0  0  0  0
  1  2  2  0  0  0  0
  1  6  1  0  0  0  0
  2  3  1  0  0  0  0
  3  7  1  0  0  0  0
  3  4  2  0  0  0  0
  5  4  1  0  0  0  0
  5  8  1  0  0  0  0
  6  5  2  0  0  0  0
 10  9  1  0  0  0  0
 11 10  1  0  0  0  0
 11  2  1  0  0  0  0
 12 11  2  0  0  0  0
 13 12  1  0  0  0  0
 14 16  2  0  0  0  0
 14 12  1  0  0  0  0
 15 14  1  0  0  0  0
 16 17  1  0  0  0  0
 17 10  2  0  0  0  0
 18  1  1  0  0  0  0
 19 18  1  0  0  0  0
 19 22  1  0  0  0  0
 20 24  1  0  0  0  0
 20 19  1  0  0  0  0
 20 18  1  0  0  0  0
 21 18  1  0  0  0  0
 23 19  1  0  0  0  0
 25 20  1  0  0  0  0
M  END
>  <minimizedAffinity>
-4.33863115

$$$$
