
 OpenBabel03272502113D

 26 28  0  0  0  0  0  0  0  0999 V2000
   37.9960   31.8970   48.9340 C   0  0  0  0  0  0  0  0  0  0  0  0
   38.5840   33.0220   49.4950 C   0  0  0  0  0  0  0  0  0  0  0  0
   39.4120   33.8980   48.7780 C   0  0  0  0  0  0  0  0  0  0  0  0
   39.6390   33.6210   47.4730 N   0  0  0  0  0  0  0  0  0  0  0  0
   39.0650   32.5210   46.9240 C   0  0  0  0  0  0  0  0  0  0  0  0
   38.2820   31.7120   47.6420 N   0  0  0  0  0  0  0  0  0  0  0  0
   38.3980   33.2400   50.5410 H   0  0  0  0  0  0  0  0  0  0  0  0
   39.8290   34.7430   49.2720 H   0  0  0  0  0  0  0  0  0  0  0  0
   37.5120   30.4220   50.9070 C   0  0  0  0  0  0  0  0  0  0  0  0
   37.1570   31.0190   49.6810 C   0  0  0  0  0  0  0  0  0  0  0  0
   35.8880   30.7280   49.1580 C   0  0  0  0  0  0  0  0  0  0  0  0
   35.0790   29.8860   49.8680 N   0  0  0  0  0  0  0  0  0  0  0  0
   35.4560   29.3310   51.0450 C   0  0  0  0  0  0  0  0  0  0  0  0
   36.6680   29.6010   51.5580 N   0  0  0  0  0  0  0  0  0  0  0  0
   38.5120   30.7220   51.2060 H   0  0  0  0  0  0  0  0  0  0  0  0
   35.5460   31.1480   48.2220 H   0  0  0  0  0  0  0  0  0  0  0  0
   34.8420   28.6730   51.6150 H   0  0  0  0  0  0  0  0  0  0  0  0
   41.2270   30.8890   46.0900 F   0  0  0  0  0  0  0  0  0  0  0  0
   40.3950   31.4380   45.1650 C   0  0  0  0  0  0  0  0  0  0  0  0
   39.3250   32.2420   45.5150 C   0  0  0  0  0  0  0  0  0  0  0  0
   38.5340   32.7550   44.5080 C   0  0  0  0  0  0  0  0  0  0  0  0
   37.6870   33.3930   44.8040 H   0  0  0  0  0  0  0  0  0  0  0  0
   38.7290   32.5270   43.1630 C   0  0  0  0  0  0  0  0  0  0  0  0
   38.1040   32.9350   42.3920 H   0  0  0  0  0  0  0  0  0  0  0  0
   39.8060   31.7230   42.8620 C   0  0  0  0  0  0  0  0  0  0  0  0
   40.6480   31.1680   43.8270 C   0  0  0  0  0  0  0  0  0  0  0  0
  1  2  1  0  0  0  0
  1 10  1  0  0  0  0
  2  7  1  0  0  0  0
  3  8  1  0  0  0  0
  3  2  2  0  0  0  0
  4  3  1  0  0  0  0
  5  4  2  0  0  0  0
  5  6  1  0  0  0  0
  6  1  2  0  0  0  0
  9 15  1  0  0  0  0
  9 14  1  0  0  0  0
 10  9  2  0  0  0  0
 11 10  1  0  0  0  0
 11 12  2  0  0  0  0
 12 13  1  0  0  0  0
 13 14  2  0  0  0  0
 13 17  1  0  0  0  0
 16 11  1  0  0  0  0
 19 20  1  0  0  0  0
 19 18  1  0  0  0  0
 20  5  1  0  0  0  0
 21 22  1  0  0  0  0
 21 20  2  0  0  0  0
 23 21  1  0  0  0  0
 24 23  1  0  0  0  0
 25 23  2  0  0  0  0
 25 26  1  0  0  0  0
 26 19  2  0  0  0  0
M  END
>  <minimizedAffinity>
-6.22562838

>  <minimizedRMSD>
0.654566944

$$$$
