
 OpenBabel03272510333D

 28 30  0  0  0  0  0  0  0  0999 V2000
   34.7760   28.7860   48.7630 C   0  0  0  0  0  0  0  0  0  0  0  0
   35.4550   28.5410   49.9460 C   0  0  0  0  0  0  0  0  0  0  0  0
   36.4310   29.4220   50.3850 C   0  0  0  0  0  0  0  0  0  0  0  0
   36.7060   30.5450   49.6140 C   0  0  0  0  0  0  0  0  0  0  0  0
   36.0380   30.8000   48.4360 C   0  0  0  0  0  0  0  0  0  0  0  0
   35.0650   29.9160   48.0060 C   0  0  0  0  0  0  0  0  0  0  0  0
   35.2230   27.6710   50.5190 H   0  0  0  0  0  0  0  0  0  0  0  0
   36.9470   29.2210   51.3000 H   0  0  0  0  0  0  0  0  0  0  0  0
   37.4620   31.2600   49.9220 H   0  0  0  0  0  0  0  0  0  0  0  0
   36.2250   31.6620   47.8110 H   0  0  0  0  0  0  0  0  0  0  0  0
   31.5440   27.1280   48.5600 C   0  0  0  0  0  0  0  0  0  0  0  0
   31.7640   26.0440   47.7000 C   0  0  0  0  0  0  0  0  0  0  0  0
   33.0640   25.8980   47.1880 C   0  0  0  0  0  0  0  0  0  0  0  0
   34.0050   26.7940   47.5480 N   0  0  0  0  0  0  0  0  0  0  0  0
   33.7680   27.8210   48.3710 C   0  0  0  0  0  0  0  0  0  0  0  0
   32.5260   27.9790   48.8750 N   0  0  0  0  0  0  0  0  0  0  0  0
   30.5790   27.3200   49.0010 H   0  0  0  0  0  0  0  0  0  0  0  0
   30.9310   25.4180   47.5020 H   0  0  0  0  0  0  0  0  0  0  0  0
   33.2270   25.0590   46.5260 H   0  0  0  0  0  0  0  0  0  0  0  0
   36.4820   29.6800   45.6140 F   0  0  0  0  0  0  0  0  0  0  0  0
   35.1590   30.0180   45.6310 C   0  0  0  0  0  0  0  0  0  0  0  0
   34.3460   30.1660   46.7580 C   0  0  0  0  0  0  0  0  0  0  0  0
   33.0120   30.5180   46.5570 C   0  0  0  0  0  0  0  0  0  0  0  0
   32.4770   30.6050   47.4770 H   0  0  0  0  0  0  0  0  0  0  0  0
   32.5470   30.7040   45.2950 C   0  0  0  0  0  0  0  0  0  0  0  0
   31.5020   30.9730   45.2470 H   0  0  0  0  0  0  0  0  0  0  0  0
   33.3390   30.5610   44.1730 C   0  0  0  0  0  3  0  0  0  0  0  0
   34.6710   30.2100   44.3570 C   0  0  0  0  0  3  0  0  0  0  0  0
  1  2  1  0  0  0  0
  2  3  2  0  0  0  0
  2  7  1  0  0  0  0
  3  8  1  0  0  0  0
  4  9  1  0  0  0  0
  4  3  1  0  0  0  0
  5  4  2  0  0  0  0
  6  5  1  0  0  0  0
  6  1  2  0  0  0  0
 10  5  1  0  0  0  0
 11 16  1  0  0  0  0
 11 17  1  0  0  0  0
 12 11  2  0  0  0  0
 13 14  2  0  0  0  0
 13 12  1  0  0  0  0
 14 15  1  0  0  0  0
 15  1  1  0  0  0  0
 15 16  2  0  0  0  0
 18 12  1  0  0  0  0
 19 13  1  0  0  0  0
 20 21  1  0  0  0  0
 21 22  1  0  0  0  0
 22  6  1  0  0  0  0
 23 22  2  0  0  0  0
 23 24  1  0  0  0  0
 25 23  1  0  0  0  0
 26 25  1  0  0  0  0
 27 28  1  0  0  0  0
 27 25  2  0  0  0  0
 28 21  2  0  0  0  0
M  END
>  <minimizedAffinity>
-4.95030117

>  <minimizedRMSD>
6.5149107

$$$$
