
 OpenBabel03272508183D

 25 27  0  0  0  0  0  0  0  0999 V2000
   37.3170   31.1660   49.6350 C   0  0  0  0  0  0  0  0  0  0  0  0
   36.6660   30.0980   48.9660 C   0  0  0  0  0  0  0  0  0  0  0  0
   36.4250   28.9770   49.7530 C   0  0  0  0  0  0  0  0  0  0  0  0
   36.8050   28.9630   51.0620 N   0  0  0  0  0  0  0  0  0  0  0  0
   37.4290   30.0190   51.6600 C   0  0  0  0  0  0  0  0  0  0  0  0
   37.6880   31.1300   50.9400 N   0  0  0  0  0  0  0  0  0  0  0  0
   35.9330   28.1210   49.3090 H   0  0  0  0  0  0  0  0  0  0  0  0
   37.7200   29.9830   52.6990 H   0  0  0  0  0  0  0  0  0  0  0  0
   33.9950   29.9080   48.1380 F   0  0  0  0  0  0  0  0  0  0  0  0
   34.9690   30.0940   47.2210 C   0  0  0  0  0  0  0  0  0  0  0  0
   36.2970   30.1940   47.5810 C   0  0  0  0  0  0  0  0  0  0  0  0
   37.2300   30.3840   46.5780 C   0  0  0  0  0  0  0  0  0  0  0  0
   38.2840   30.4660   46.8210 H   0  0  0  0  0  0  0  0  0  0  0  0
   36.8390   30.4720   45.2450 C   0  0  0  0  0  0  0  0  0  0  0  0
   37.5880   30.6190   44.4930 H   0  0  0  0  0  0  0  0  0  0  0  0
   35.4910   30.3700   44.8960 C   0  0  0  0  0  0  0  0  0  0  0  0
   34.5570   30.1780   45.9090 C   0  0  0  0  0  0  0  0  0  0  0  0
   37.4960   32.4080   48.7820 C   0  0  0  0  0  0  0  0  0  0  0  0
   38.1910   33.5570   49.3050 C   0  0  0  0  0  0  0  0  0  0  0  0
   38.9810   32.6130   48.4290 C   0  0  0  0  0  0  0  0  0  0  0  0
   36.9050   32.3920   47.8310 H   0  0  0  0  0  0  0  0  0  0  0  0
   38.4600   33.5920   50.3930 H   0  0  0  0  0  0  0  0  0  0  0  0
   38.0090   34.5810   48.9110 H   0  0  0  0  0  0  0  0  0  0  0  0
   39.7050   31.9270   48.8810 H   0  0  0  0  0  0  0  0  0  0  0  0
   39.1930   32.9440   47.4060 H   0  0  0  0  0  0  0  0  0  0  0  0
  1  6  1  0  0  0  0
  2  1  2  0  0  0  0
  2  3  1  0  0  0  0
  3  4  2  0  0  0  0
  4  5  1  0  0  0  0
  5  8  1  0  0  0  0
  6  5  2  0  0  0  0
  7  3  1  0  0  0  0
 10 11  1  0  0  0  0
 10  9  1  0  0  0  0
 11  2  1  0  0  0  0
 12 13  1  0  0  0  0
 12 11  2  0  0  0  0
 14 12  1  0  0  0  0
 15 14  1  0  0  0  0
 16 14  2  0  0  0  0
 16 17  1  0  0  0  0
 17 10  2  0  0  0  0
 18 19  1  0  0  0  0
 18  1  1  0  0  0  0
 19 22  1  0  0  0  0
 20 18  1  0  0  0  0
 20 24  1  0  0  0  0
 20 19  1  0  0  0  0
 21 18  1  0  0  0  0
 23 19  1  0  0  0  0
 25 20  1  0  0  0  0
M  END
>  <minimizedAffinity>
-4.84028196

>  <minimizedRMSD>
5.29319286

$$$$
