
 OpenBabel03272510333D

 28 30  0  0  0  0  0  0  0  0999 V2000
   35.9200   30.0760   46.2290 C   0  0  0  0  0  0  0  0  0  0  0  0
   35.2100   29.8060   45.0710 C   0  0  0  0  0  0  0  0  0  0  0  0
   34.0290   29.0830   45.1300 C   0  0  0  0  0  0  0  0  0  0  0  0
   33.5820   28.6430   46.3700 C   0  0  0  0  0  0  0  0  0  0  0  0
   34.2780   28.9040   47.5290 C   0  0  0  0  0  0  0  0  0  0  0  0
   35.4560   29.6280   47.4610 C   0  0  0  0  0  0  0  0  0  0  0  0
   35.5760   30.1570   44.1320 H   0  0  0  0  0  0  0  0  0  0  0  0
   33.4910   28.8820   44.2270 H   0  0  0  0  0  0  0  0  0  0  0  0
   32.6620   28.0740   46.4600 H   0  0  0  0  0  0  0  0  0  0  0  0
   33.9620   28.5780   48.5100 H   0  0  0  0  0  0  0  0  0  0  0  0
   38.2630   32.5520   44.9570 C   0  0  0  0  0  0  0  0  0  0  0  0
   39.4210   32.3590   45.7230 C   0  0  0  0  0  0  0  0  0  0  0  0
   39.3720   31.3470   46.6960 C   0  0  0  0  0  0  0  0  0  0  0  0
   38.2360   30.6350   46.8330 N   0  0  0  0  0  0  0  0  0  0  0  0
   37.1440   30.8400   46.0880 C   0  0  0  0  0  0  0  0  0  0  0  0
   37.1690   31.8070   45.1470 N   0  0  0  0  0  0  0  0  0  0  0  0
   38.2070   33.3050   44.1870 H   0  0  0  0  0  0  0  0  0  0  0  0
   40.2430   32.9930   45.5080 H   0  0  0  0  0  0  0  0  0  0  0  0
   40.2690   31.2040   47.2820 H   0  0  0  0  0  0  0  0  0  0  0  0
   34.4730   31.6000   49.1700 F   0  0  0  0  0  0  0  0  0  0  0  0
   35.6220   30.9190   49.4510 C   0  0  0  0  0  0  0  0  0  0  0  0
   36.2120   29.9150   48.6790 C   0  0  0  0  0  0  0  0  0  0  0  0
   37.3930   29.3420   49.1470 C   0  0  0  0  0  0  0  0  0  0  0  0
   37.7620   28.5890   48.4880 H   0  0  0  0  0  0  0  0  0  0  0  0
   37.9290   29.7670   50.3210 C   0  0  0  0  0  0  0  0  0  0  0  0
   38.8430   29.2600   50.5950 H   0  0  0  0  0  0  0  0  0  0  0  0
   37.3570   30.7570   51.0940 C   0  0  0  0  0  3  0  0  0  0  0  0
   36.1790   31.3390   50.6410 C   0  0  0  0  0  3  0  0  0  0  0  0
  1  6  1  0  0  0  0
  2  3  1  0  0  0  0
  2  1  2  0  0  0  0
  3  4  2  0  0  0  0
  4  9  1  0  0  0  0
  4  5  1  0  0  0  0
  5 10  1  0  0  0  0
  6  5  2  0  0  0  0
  6 22  1  0  0  0  0
  7  2  1  0  0  0  0
  8  3  1  0  0  0  0
 11 16  2  0  0  0  0
 11 12  1  0  0  0  0
 12 13  2  0  0  0  0
 13 14  1  0  0  0  0
 13 19  1  0  0  0  0
 15  1  1  0  0  0  0
 15 14  2  0  0  0  0
 16 15  1  0  0  0  0
 17 11  1  0  0  0  0
 18 12  1  0  0  0  0
 20 21  1  0  0  0  0
 21 28  1  0  0  0  0
 22 23  1  0  0  0  0
 22 21  2  0  0  0  0
 23 25  2  0  0  0  0
 24 23  1  0  0  0  0
 25 26  1  0  0  0  0
 25 27  1  0  0  0  0
 28 27  2  0  0  0  0
M  END
>  <minimizedAffinity>
-4.53116274

>  <minimizedRMSD>
3.04621148

$$$$
