
 OpenBabel03272507393D

 34 36  0  0  0  0  0  0  0  0999 V2000
   38.2680   32.3110   47.2380 C   0  0  0  0  0  0  0  0  0  0  0  0
   37.9020   32.6610   48.5120 C   0  0  0  0  0  0  0  0  0  0  0  0
   38.6520   33.5790   49.2290 C   0  0  0  0  0  0  0  0  0  0  0  0
   39.7800   34.1480   48.6520 C   0  0  0  0  0  0  0  0  0  0  0  0
   40.1430   33.7880   47.3580 C   0  0  0  0  0  0  0  0  0  0  0  0
   39.3750   32.8710   46.6710 C   0  0  0  0  0  0  0  0  0  0  0  0
   38.4210   33.8990   50.2370 H   0  0  0  0  0  0  0  0  0  0  0  0
   40.3860   34.8710   49.1910 H   0  0  0  0  0  0  0  0  0  0  0  0
   41.0070   34.1910   46.8490 H   0  0  0  0  0  0  0  0  0  0  0  0
   40.9840   30.6470   46.1660 F   0  0  0  0  0  0  0  0  0  0  0  0
   40.4600   31.3010   45.0970 C   0  0  0  0  0  0  0  0  0  0  0  0
   39.6550   32.4120   45.3030 C   0  0  0  0  0  0  0  0  0  0  0  0
   39.1490   33.0380   44.1840 C   0  0  0  0  0  0  0  0  0  0  0  0
   38.5240   33.9010   44.3570 H   0  0  0  0  0  0  0  0  0  0  0  0
   39.3920   32.6340   42.9030 C   0  0  0  0  0  0  0  0  0  0  0  0
   38.9900   33.1310   42.0240 H   0  0  0  0  0  0  0  0  0  0  0  0
   40.2010   31.5200   42.7630 C   0  0  0  0  0  0  0  0  0  0  0  0
   40.7570   30.8220   43.8330 C   0  0  0  0  0  0  0  0  0  0  0  0
   36.7710   30.6000   46.0200 N   0  0  0  0  0  0  0  0  0  0  0  0
   37.4320   31.3550   46.5710 C   0  0  0  0  0  0  0  0  0  0  0  0
   36.8150   32.1820   49.2110 O   0  0  0  0  0  0  0  0  0  0  0  0
   36.8580   31.1570   50.1050 C   0  0  0  0  0  0  0  0  0  0  0  0
   35.6750   30.4190   50.1060 C   0  0  0  0  0  0  0  0  0  0  0  0
   35.5230   29.3370   50.9460 C   0  0  0  0  0  0  0  0  0  0  0  0
   36.5830   29.0290   51.7700 N   0  0  0  0  0  0  0  0  0  0  0  0
   37.7190   29.7540   51.7540 C   0  0  0  0  0  0  0  0  0  0  0  0
   37.8380   30.7830   50.9420 N   0  0  0  0  0  0  0  0  0  0  0  0
   34.6450   28.7100   51.0150 H   0  0  0  0  0  0  0  0  0  0  0  0
   38.4510   29.4030   52.4380 H   0  0  0  0  0  0  0  0  0  0  0  0
   34.1880   29.6580   48.3200 C   0  0  0  0  0  0  0  0  0  0  0  0
   34.7430   28.5860   47.8520 O   0  0  0  0  0  0  0  0  0  0  0  0
   34.5600   30.6360   49.2940 N   0  0  0  0  0  0  0  0  0  0  0  0
   33.5710   29.1760   47.5720 H   0  0  0  0  0  0  0  0  0  0  0  0
   33.7890   31.2560   49.0270 H   0  0  0  0  0  0  0  0  0  0  0  0
  1  2  1  0  0  0  0
  2 21  1  0  0  0  0
  2  3  2  0  0  0  0
  3  7  1  0  0  0  0
  4  8  1  0  0  0  0
  4  3  1  0  0  0  0
  5  4  2  0  0  0  0
  6  1  2  0  0  0  0
  6  5  1  0  0  0  0
  9  5  1  0  0  0  0
 11 12  1  0  0  0  0
 11 10  1  0  0  0  0
 12  6  1  0  0  0  0
 13 14  1  0  0  0  0
 13 12  2  0  0  0  0
 15 13  1  0  0  0  0
 16 15  1  0  0  0  0
 17 15  2  0  0  0  0
 17 18  1  0  0  0  0
 18 11  2  0  0  0  0
 19 20  3  0  0  0  0
 20  1  1  0  0  0  0
 21 22  1  0  0  0  0
 22 23  2  0  0  0  0
 22 27  1  0  0  0  0
 23 24  1  0  0  0  0
 24 28  1  0  0  0  0
 24 25  2  0  0  0  0
 26 25  1  0  0  0  0
 26 29  1  0  0  0  0
 27 26  2  0  0  0  0
 30 32  1  0  0  0  0
 31 30  2  0  0  0  0
 32 23  1  0  0  0  0
 33 30  1  0  0  0  0
 34 32  1  0  0  0  0
M  END
>  <minimizedAffinity>
-6.1310811

>  <minimizedRMSD>
1.24134338

$$$$
