
 OpenBabel03272510233D

 31 34  0  0  0  0  0  0  0  0999 V2000
   35.6620   29.8190   46.9990 C   0  0  0  0  0  0  0  0  0  0  0  0
   36.6670   30.5720   47.5900 C   0  0  0  0  0  0  0  0  0  0  0  0
   37.3700   31.4690   46.8320 C   0  0  0  0  0  0  0  0  0  0  0  0
   37.0490   31.5920   45.4820 C   0  0  0  0  0  0  0  0  0  0  0  0
   37.6050   32.4070   44.5510 N   0  0  0  0  0  0  0  0  0  0  0  0
   36.9820   32.1920   43.3860 C   0  0  0  0  0  0  0  0  0  0  0  0
   36.0440   31.2580   43.5610 N   0  0  0  0  0  0  0  0  0  0  0  0
   36.0530   30.8610   44.8520 C   0  0  0  0  0  0  0  0  0  0  0  0
   35.3510   29.9560   45.6420 C   0  0  0  0  0  0  0  0  0  0  0  0
   35.0590   29.0880   47.5300 H   0  0  0  0  0  0  0  0  0  0  0  0
   38.1550   32.0630   47.2770 H   0  0  0  0  0  0  0  0  0  0  0  0
   38.3750   33.0780   44.7040 H   0  0  0  0  0  0  0  0  0  0  0  0
   34.5800   29.3810   45.1800 H   0  0  0  0  0  0  0  0  0  0  0  0
   38.1680   30.5660   51.0380 C   0  0  0  0  0  0  0  0  0  0  0  0
   38.0200   30.8260   49.6710 C   0  0  0  0  0  0  0  0  0  0  0  0
   36.9060   30.3530   49.0000 C   0  0  0  0  0  0  0  0  0  0  0  0
   35.9770   29.6390   49.6980 N   0  0  0  0  0  0  0  0  0  0  0  0
   36.1460   29.3960   51.0380 C   0  0  0  0  0  0  0  0  0  0  0  0
   37.2170   29.8490   51.6890 N   0  0  0  0  0  0  0  0  0  0  0  0
   39.0260   30.9250   51.5700 H   0  0  0  0  0  0  0  0  0  0  0  0
   38.7580   31.3860   49.1430 H   0  0  0  0  0  0  0  0  0  0  0  0
   35.3660   28.8230   51.5210 H   0  0  0  0  0  0  0  0  0  0  0  0
   39.5130   32.0650   42.1430 F   0  0  0  0  0  0  0  0  0  0  0  0
   38.5240   32.7760   41.5330 C   0  0  0  0  0  0  0  0  0  0  0  0
   37.2710   32.8650   42.1060 C   0  0  0  0  0  0  0  0  0  0  0  0
   36.2530   33.5930   41.4850 C   0  0  0  0  0  0  0  0  0  0  0  0
   35.2570   33.6870   41.9010 H   0  0  0  0  0  0  0  0  0  0  0  0
   36.4930   34.2440   40.2700 C   0  0  0  0  0  0  0  0  0  0  0  0
   35.7660   34.8240   39.7280 H   0  0  0  0  0  0  0  0  0  0  0  0
   37.7750   34.0950   39.7820 C   0  0  0  0  0  3  0  0  0  0  0  0
   38.8230   33.3950   40.3380 C   0  0  0  0  0  3  0  0  0  0  0  0
  1 10  1  0  0  0  0
  1  2  1  0  0  0  0
  2 16  1  0  0  0  0
  3 11  1  0  0  0  0
  3  2  2  0  0  0  0
  4  3  1  0  0  0  0
  5 12  1  0  0  0  0
  5  4  1  0  0  0  0
  6  7  2  0  0  0  0
  6  5  1  0  0  0  0
  7  8  1  0  0  0  0
  8  4  2  0  0  0  0
  8  9  1  0  0  0  0
  9  1  2  0  0  0  0
 13  9  1  0  0  0  0
 14 20  1  0  0  0  0
 14 19  1  0  0  0  0
 15 14  2  0  0  0  0
 16 15  1  0  0  0  0
 16 17  2  0  0  0  0
 17 18  1  0  0  0  0
 18 22  1  0  0  0  0
 18 19  2  0  0  0  0
 21 15  1  0  0  0  0
 24 25  1  0  0  0  0
 24 23  1  0  0  0  0
 25  6  1  0  0  0  0
 26 27  1  0  0  0  0
 26 25  2  0  0  0  0
 28 26  1  0  0  0  0
 29 28  1  0  0  0  0
 30 28  2  0  0  0  0
 30 31  1  0  0  0  0
 31 24  2  0  0  0  0
M  END
>  <minimizedAffinity>
-4.94202471

>  <minimizedRMSD>
3.39700079

$$$$
