
 OpenBabel03262522533D

 33 36  0  0  0  0  0  0  0  0999 V2000
   36.5610   28.1700   33.5360 C   0  0  0  0  0  0  0  0  0  0  0  0
   36.5970   28.5900   32.2580 C   0  0  0  0  0  0  0  0  0  0  0  0
   35.9450   29.7720   31.9650 C   0  0  0  0  0  0  0  0  0  0  0  0
   35.2940   30.4890   32.9090 N   0  0  0  0  0  0  0  0  0  0  0  0
   35.3150   29.9770   34.1820 C   0  0  0  0  0  0  0  0  0  0  0  0
   35.9290   28.8330   34.5410 N   0  0  0  0  0  0  0  0  0  0  0  0
   37.1010   28.0600   31.4600 H   0  0  0  0  0  0  0  0  0  0  0  0
   35.8960   30.2220   30.9830 H   0  0  0  0  0  0  0  0  0  0  0  0
   36.6380   31.7280   35.8590 F   0  0  0  0  0  0  0  0  0  0  0  0
   35.2870   31.5920   36.0550 C   0  0  0  0  0  0  0  0  0  0  0  0
   34.6230   30.7240   35.2270 C   0  0  0  0  0  0  0  0  0  0  0  0
   33.2630   30.6040   35.4460 C   0  0  0  0  0  0  0  0  0  0  0  0
   32.6800   29.9360   34.8270 H   0  0  0  0  0  0  0  0  0  0  0  0
   32.6640   31.3360   36.4480 C   0  0  0  0  0  0  0  0  0  0  0  0
   31.5890   31.2590   36.6420 H   0  0  0  0  0  0  0  0  0  0  0  0
   33.3820   32.1940   37.2510 C   0  0  0  0  0  3  0  0  0  0  0  0
   34.7590   32.3530   37.0740 C   0  0  0  0  0  3  0  0  0  0  0  0
   38.5520   24.9520   35.0480 C   0  0  0  0  0  0  0  0  0  0  0  0
   38.0290   24.7390   33.8420 C   0  0  0  0  0  0  0  0  0  0  0  0
   37.3310   25.7560   33.2260 C   0  0  0  0  0  0  0  0  0  0  0  0
   37.2310   26.9250   33.9180 C   0  0  0  0  0  0  0  0  0  0  0  0
   38.1380   26.5680   35.4550 S   0  0  0  0  0  0  0  0  0  0  0  0
   38.1540   23.7600   33.3450 H   0  0  0  0  0  0  0  0  0  0  0  0
   36.8630   25.6880   32.2430 H   0  0  0  0  0  0  0  0  0  0  0  0
   39.5650   22.8540   37.8500 C   0  0  0  0  0  0  0  0  0  0  0  0
   40.7700   22.2980   37.4350 C   0  0  0  0  0  0  0  0  0  0  0  0
   41.2450   22.6520   36.1660 C   0  0  0  0  0  0  0  0  0  0  0  0
   40.5070   23.5190   35.4070 N   0  0  0  0  0  0  0  0  0  0  0  0
   39.3310   24.0250   35.8840 C   0  0  0  0  0  0  0  0  0  0  0  0
   38.8510   23.7130   37.0770 N   0  0  0  0  0  0  0  0  0  0  0  0
   39.1590   22.6160   38.8100 H   0  0  0  0  0  0  0  0  0  0  0  0
   41.3130   21.6170   38.0760 H   0  0  0  0  0  0  0  0  0  0  0  0
   42.1790   22.2460   35.7940 H   0  0  0  0  0  0  0  0  0  0  0  0
  1 21  1  0  0  0  0
  1  6  1  0  0  0  0
  2  1  2  0  0  0  0
  3  2  1  0  0  0  0
  3  4  2  0  0  0  0
  4  5  1  0  0  0  0
  5  6  2  0  0  0  0
  5 11  1  0  0  0  0
  7  2  1  0  0  0  0
  8  3  1  0  0  0  0
  9 10  1  0  0  0  0
 10 17  1  0  0  0  0
 11 12  1  0  0  0  0
 11 10  2  0  0  0  0
 12 14  2  0  0  0  0
 13 12  1  0  0  0  0
 14 15  1  0  0  0  0
 14 16  1  0  0  0  0
 17 16  2  0  0  0  0
 18 22  1  0  0  0  0
 18 29  1  0  0  0  0
 19 18  2  0  0  0  0
 20 19  1  0  0  0  0
 20 21  2  0  0  0  0
 21 22  1  0  0  0  0
 23 19  1  0  0  0  0
 24 20  1  0  0  0  0
 25 31  1  0  0  0  0
 26 25  1  0  0  0  0
 26 32  1  0  0  0  0
 27 26  2  0  0  0  0
 28 29  2  0  0  0  0
 28 27  1  0  0  0  0
 29 30  1  0  0  0  0
 30 25  2  0  0  0  0
 33 27  1  0  0  0  0
M  END
>  <minimizedAffinity>
-6.43186188

$$$$

 OpenBabel03262522533D

 33 36  0  0  0  0  0  0  0  0999 V2000
   36.6290   27.9840   33.4280 C   0  0  0  0  0  0  0  0  0  0  0  0
   36.5790   28.3400   32.1310 C   0  0  0  0  0  0  0  0  0  0  0  0
   35.9420   29.5280   31.8290 C   0  0  0  0  0  0  0  0  0  0  0  0
   35.3890   30.3120   32.7830 N   0  0  0  0  0  0  0  0  0  0  0  0
   35.4930   29.8610   34.0750 C   0  0  0  0  0  0  0  0  0  0  0  0
   36.0980   28.7150   34.4440 N   0  0  0  0  0  0  0  0  0  0  0  0
   37.0020   27.7550   31.3250 H   0  0  0  0  0  0  0  0  0  0  0  0
   35.8300   29.9320   30.8320 H   0  0  0  0  0  0  0  0  0  0  0  0
   32.8320   29.6590   34.7860 F   0  0  0  0  0  0  0  0  0  0  0  0
   33.5850   30.5740   35.4770 C   0  0  0  0  0  0  0  0  0  0  0  0
   34.9070   30.6810   35.1300 C   0  0  0  0  0  0  0  0  0  0  0  0
   35.6430   31.6100   35.8420 C   0  0  0  0  0  0  0  0  0  0  0  0
   36.6920   31.7430   35.6180 H   0  0  0  0  0  0  0  0  0  0  0  0
   35.0340   32.3550   36.8280 C   0  0  0  0  0  0  0  0  0  0  0  0
   35.5950   33.0980   37.4060 H   0  0  0  0  0  0  0  0  0  0  0  0
   33.7000   32.2050   37.1340 C   0  0  0  0  0  3  0  0  0  0  0  0
   32.9090   31.2810   36.4460 C   0  0  0  0  0  3  0  0  0  0  0  0
   38.5940   24.7620   34.9660 C   0  0  0  0  0  0  0  0  0  0  0  0
   38.0630   24.5410   33.7640 C   0  0  0  0  0  0  0  0  0  0  0  0
   37.3720   25.5590   33.1410 C   0  0  0  0  0  0  0  0  0  0  0  0
   37.2880   26.7360   33.8210 C   0  0  0  0  0  0  0  0  0  0  0  0
   38.1990   26.3870   35.3570 S   0  0  0  0  0  0  0  0  0  0  0  0
   38.1760   23.5550   33.2780 H   0  0  0  0  0  0  0  0  0  0  0  0
   36.9000   25.4850   32.1610 H   0  0  0  0  0  0  0  0  0  0  0  0
   39.6790   22.7980   37.8370 C   0  0  0  0  0  0  0  0  0  0  0  0
   40.7950   22.1120   37.3720 C   0  0  0  0  0  0  0  0  0  0  0  0
   41.1850   22.3300   36.0450 C   0  0  0  0  0  0  0  0  0  0  0  0
   40.4540   23.1980   35.2810 N   0  0  0  0  0  0  0  0  0  0  0  0
   39.3670   23.8360   35.8080 C   0  0  0  0  0  0  0  0  0  0  0  0
   38.9700   23.6540   37.0580 N   0  0  0  0  0  0  0  0  0  0  0  0
   39.3410   22.6660   38.8430 H   0  0  0  0  0  0  0  0  0  0  0  0
   41.3380   21.4360   38.0200 H   0  0  0  0  0  0  0  0  0  0  0  0
   42.0480   21.8190   35.6330 H   0  0  0  0  0  0  0  0  0  0  0  0
  1 21  1  0  0  0  0
  1  6  1  0  0  0  0
  2  1  2  0  0  0  0
  3  2  1  0  0  0  0
  3  4  2  0  0  0  0
  4  5  1  0  0  0  0
  5  6  2  0  0  0  0
  5 11  1  0  0  0  0
  7  2  1  0  0  0  0
  8  3  1  0  0  0  0
  9 10  1  0  0  0  0
 10 17  1  0  0  0  0
 11 10  2  0  0  0  0
 11 12  1  0  0  0  0
 12 14  2  0  0  0  0
 13 12  1  0  0  0  0
 14 16  1  0  0  0  0
 14 15  1  0  0  0  0
 17 16  2  0  0  0  0
 18 22  1  0  0  0  0
 18 29  1  0  0  0  0
 19 18  2  0  0  0  0
 20 19  1  0  0  0  0
 20 21  2  0  0  0  0
 21 22  1  0  0  0  0
 23 19  1  0  0  0  0
 24 20  1  0  0  0  0
 25 31  1  0  0  0  0
 26 25  1  0  0  0  0
 26 32  1  0  0  0  0
 27 26  2  0  0  0  0
 28 29  2  0  0  0  0
 28 27  1  0  0  0  0
 29 30  1  0  0  0  0
 30 25  2  0  0  0  0
 33 27  1  0  0  0  0
M  END
>  <minimizedAffinity>
-6.32543898

$$$$

 OpenBabel03262522533D

 33 36  0  0  0  0  0  0  0  0999 V2000
   36.3250   28.3820   32.4400 C   0  0  0  0  0  0  0  0  0  0  0  0
   36.6020   29.1270   31.3550 C   0  0  0  0  0  0  0  0  0  0  0  0
   36.3150   30.4760   31.4270 C   0  0  0  0  0  0  0  0  0  0  0  0
   35.7800   31.0410   32.5330 N   0  0  0  0  0  0  0  0  0  0  0  0
   35.5350   30.1970   33.5870 C   0  0  0  0  0  0  0  0  0  0  0  0
   35.7880   28.8740   33.5890 N   0  0  0  0  0  0  0  0  0  0  0  0
   37.0290   28.7320   30.4420 H   0  0  0  0  0  0  0  0  0  0  0  0
   36.4870   31.1870   30.6300 H   0  0  0  0  0  0  0  0  0  0  0  0
   32.8870   29.8180   34.2750 F   0  0  0  0  0  0  0  0  0  0  0  0
   33.6420   30.5780   35.1320 C   0  0  0  0  0  0  0  0  0  0  0  0
   34.9580   30.7720   34.7980 C   0  0  0  0  0  0  0  0  0  0  0  0
   35.6960   31.5410   35.6780 C   0  0  0  0  0  0  0  0  0  0  0  0
   36.7400   31.7310   35.4730 H   0  0  0  0  0  0  0  0  0  0  0  0
   35.0950   32.0570   36.8060 C   0  0  0  0  0  0  0  0  0  0  0  0
   35.6580   32.6690   37.5190 H   0  0  0  0  0  0  0  0  0  0  0  0
   33.7680   31.8300   37.0910 C   0  0  0  0  0  3  0  0  0  0  0  0
   32.9750   31.0600   36.2360 C   0  0  0  0  0  3  0  0  0  0  0  0
   36.7470   24.3500   32.0310 C   0  0  0  0  0  0  0  0  0  0  0  0
   37.5210   24.8750   32.9790 C   0  0  0  0  0  0  0  0  0  0  0  0
   37.4660   26.2330   33.2110 C   0  0  0  0  0  0  0  0  0  0  0  0
   36.6030   26.9440   32.4340 C   0  0  0  0  0  0  0  0  0  0  0  0
   35.8680   25.6670   31.3660 S   0  0  0  0  0  0  0  0  0  0  0  0
   38.1960   24.2290   33.5690 H   0  0  0  0  0  0  0  0  0  0  0  0
   38.0540   26.7640   33.9610 H   0  0  0  0  0  0  0  0  0  0  0  0
   37.5830   21.0880   30.6370 C   0  0  0  0  0  0  0  0  0  0  0  0
   36.4380   20.3290   30.8500 C   0  0  0  0  0  0  0  0  0  0  0  0
   35.3560   20.9500   31.4840 C   0  0  0  0  0  0  0  0  0  0  0  0
   35.4780   22.2600   31.8580 N   0  0  0  0  0  0  0  0  0  0  0  0
   36.6370   22.9430   31.6150 C   0  0  0  0  0  0  0  0  0  0  0  0
   37.6790   22.3880   31.0190 N   0  0  0  0  0  0  0  0  0  0  0  0
   38.4370   20.6610   30.1570 H   0  0  0  0  0  0  0  0  0  0  0  0
   36.3950   19.2950   30.5330 H   0  0  0  0  0  0  0  0  0  0  0  0
   34.4400   20.4020   31.6750 H   0  0  0  0  0  0  0  0  0  0  0  0
  1  6  1  0  0  0  0
  2  3  1  0  0  0  0
  2  1  2  0  0  0  0
  3  4  2  0  0  0  0
  4  5  1  0  0  0  0
  5  6  2  0  0  0  0
  5 11  1  0  0  0  0
  7  2  1  0  0  0  0
  8  3  1  0  0  0  0
  9 10  1  0  0  0  0
 10 17  1  0  0  0  0
 11 10  2  0  0  0  0
 11 12  1  0  0  0  0
 12 14  2  0  0  0  0
 13 12  1  0  0  0  0
 14 16  1  0  0  0  0
 14 15  1  0  0  0  0
 17 16  2  0  0  0  0
 18 19  2  0  0  0  0
 19 20  1  0  0  0  0
 19 23  1  0  0  0  0
 20 24  1  0  0  0  0
 21  1  1  0  0  0  0
 21 20  2  0  0  0  0
 22 18  1  0  0  0  0
 22 21  1  0  0  0  0
 25 26  2  0  0  0  0
 25 30  1  0  0  0  0
 26 27  1  0  0  0  0
 27 33  1  0  0  0  0
 27 28  2  0  0  0  0
 29 28  1  0  0  0  0
 29 18  1  0  0  0  0
 30 29  2  0  0  0  0
 31 25  1  0  0  0  0
 32 26  1  0  0  0  0
M  END
>  <minimizedAffinity>
-5.99703741

$$$$

 OpenBabel03262522533D

 33 36  0  0  0  0  0  0  0  0999 V2000
   36.2690   28.6280   32.5640 C   0  0  0  0  0  0  0  0  0  0  0  0
   36.6080   29.4330   31.5400 C   0  0  0  0  0  0  0  0  0  0  0  0
   36.2720   30.7680   31.6520 C   0  0  0  0  0  0  0  0  0  0  0  0
   35.6310   31.2620   32.7350 N   0  0  0  0  0  0  0  0  0  0  0  0
   35.3300   30.3600   33.7250 C   0  0  0  0  0  0  0  0  0  0  0  0
   35.6250   29.0470   33.6860 N   0  0  0  0  0  0  0  0  0  0  0  0
   37.1210   29.0960   30.6480 H   0  0  0  0  0  0  0  0  0  0  0  0
   36.4850   31.5220   30.9050 H   0  0  0  0  0  0  0  0  0  0  0  0
   36.6570   31.6800   35.7570 F   0  0  0  0  0  0  0  0  0  0  0  0
   35.3040   31.5120   35.9130 C   0  0  0  0  0  0  0  0  0  0  0  0
   34.6370   30.8580   34.9100 C   0  0  0  0  0  0  0  0  0  0  0  0
   33.2760   30.7020   35.0920 C   0  0  0  0  0  0  0  0  0  0  0  0
   32.6920   30.1950   34.3370 H   0  0  0  0  0  0  0  0  0  0  0  0
   32.6780   31.1930   36.2320 C   0  0  0  0  0  0  0  0  0  0  0  0
   31.6010   31.0830   36.4010 H   0  0  0  0  0  0  0  0  0  0  0  0
   33.3980   31.8430   37.2090 C   0  0  0  0  0  3  0  0  0  0  0  0
   34.7770   32.0280   37.0760 C   0  0  0  0  0  3  0  0  0  0  0  0
   36.8220   24.6260   32.0310 C   0  0  0  0  0  0  0  0  0  0  0  0
   37.5800   25.1470   32.9940 C   0  0  0  0  0  0  0  0  0  0  0  0
   37.4810   26.4950   33.2670 C   0  0  0  0  0  0  0  0  0  0  0  0
   36.5940   27.2010   32.5130 C   0  0  0  0  0  0  0  0  0  0  0  0
   35.8990   25.9330   31.4070 S   0  0  0  0  0  0  0  0  0  0  0  0
   38.2770   24.5060   33.5630 H   0  0  0  0  0  0  0  0  0  0  0  0
   38.0530   27.0210   34.0320 H   0  0  0  0  0  0  0  0  0  0  0  0
   35.5090   21.3520   31.1150 C   0  0  0  0  0  0  0  0  0  0  0  0
   36.6330   20.6390   30.7160 C   0  0  0  0  0  0  0  0  0  0  0  0
   37.8690   21.2960   30.7630 C   0  0  0  0  0  0  0  0  0  0  0  0
   37.9060   22.5930   31.1960 N   0  0  0  0  0  0  0  0  0  0  0  0
   36.7570   23.2290   31.5730 C   0  0  0  0  0  0  0  0  0  0  0  0
   35.5730   22.6400   31.5410 N   0  0  0  0  0  0  0  0  0  0  0  0
   34.5420   20.8960   31.0980 H   0  0  0  0  0  0  0  0  0  0  0  0
   36.5470   19.6140   30.3810 H   0  0  0  0  0  0  0  0  0  0  0  0
   38.7770   20.7860   30.4610 H   0  0  0  0  0  0  0  0  0  0  0  0
  1  6  1  0  0  0  0
  2  3  1  0  0  0  0
  2  1  2  0  0  0  0
  3  4  2  0  0  0  0
  4  5  1  0  0  0  0
  5 11  1  0  0  0  0
  6  5  2  0  0  0  0
  7  2  1  0  0  0  0
  8  3  1  0  0  0  0
  9 10  1  0  0  0  0
 10 17  1  0  0  0  0
 11 12  1  0  0  0  0
 11 10  2  0  0  0  0
 12 14  2  0  0  0  0
 13 12  1  0  0  0  0
 14 15  1  0  0  0  0
 14 16  1  0  0  0  0
 17 16  2  0  0  0  0
 18 19  2  0  0  0  0
 19 20  1  0  0  0  0
 19 23  1  0  0  0  0
 20 24  1  0  0  0  0
 21  1  1  0  0  0  0
 21 20  2  0  0  0  0
 22 18  1  0  0  0  0
 22 21  1  0  0  0  0
 25 30  1  0  0  0  0
 26 27  1  0  0  0  0
 26 25  2  0  0  0  0
 27 28  2  0  0  0  0
 28 29  1  0  0  0  0
 29 18  1  0  0  0  0
 30 29  2  0  0  0  0
 31 25  1  0  0  0  0
 32 26  1  0  0  0  0
 33 27  1  0  0  0  0
M  END
>  <minimizedAffinity>
-5.99258137

$$$$

 OpenBabel03262522533D

 33 36  0  0  0  0  0  0  0  0999 V2000
   38.5270   24.4440   36.0300 C   0  0  0  0  0  0  0  0  0  0  0  0
   37.8310   24.3490   37.1780 C   0  0  0  0  0  0  0  0  0  0  0  0
   38.3910   23.5970   38.1920 C   0  0  0  0  0  0  0  0  0  0  0  0
   39.5850   22.9770   38.0550 N   0  0  0  0  0  0  0  0  0  0  0  0
   40.2160   23.1360   36.8470 C   0  0  0  0  0  0  0  0  0  0  0  0
   39.7320   23.8520   35.8140 N   0  0  0  0  0  0  0  0  0  0  0  0
   36.8720   24.8210   37.3460 H   0  0  0  0  0  0  0  0  0  0  0  0
   37.9400   23.4380   39.1630 H   0  0  0  0  0  0  0  0  0  0  0  0
   42.4410   24.5010   35.9430 F   0  0  0  0  0  0  0  0  0  0  0  0
   42.6070   23.1670   36.2140 C   0  0  0  0  0  0  0  0  0  0  0  0
   41.5070   22.4810   36.6630 C   0  0  0  0  0  0  0  0  0  0  0  0
   41.7010   21.1380   36.9290 C   0  0  0  0  0  0  0  0  0  0  0  0
   40.8740   20.5410   37.2870 H   0  0  0  0  0  0  0  0  0  0  0  0
   42.9450   20.5760   36.7370 C   0  0  0  0  0  0  0  0  0  0  0  0
   43.1240   19.5150   36.9400 H   0  0  0  0  0  0  0  0  0  0  0  0
   44.0140   21.3140   36.2830 C   0  0  0  0  0  3  0  0  0  0  0  0
   43.8740   22.6740   35.9980 C   0  0  0  0  0  3  0  0  0  0  0  0
   36.9740   27.0060   33.2680 C   0  0  0  0  0  0  0  0  0  0  0  0
   37.3150   25.8210   32.7660 C   0  0  0  0  0  0  0  0  0  0  0  0
   37.8530   24.8690   33.6050 C   0  0  0  0  0  0  0  0  0  0  0  0
   37.9930   25.2250   34.9120 C   0  0  0  0  0  0  0  0  0  0  0  0
   37.3550   26.9300   34.9400 S   0  0  0  0  0  0  0  0  0  0  0  0
   37.1690   25.6080   31.6910 H   0  0  0  0  0  0  0  0  0  0  0  0
   38.1660   23.8700   33.2980 H   0  0  0  0  0  0  0  0  0  0  0  0
   34.8260   29.8500   32.5050 C   0  0  0  0  0  0  0  0  0  0  0  0
   35.2980   30.3080   31.2800 C   0  0  0  0  0  0  0  0  0  0  0  0
   36.3740   29.6240   30.7030 C   0  0  0  0  0  0  0  0  0  0  0  0
   36.9030   28.5510   31.3670 N   0  0  0  0  0  0  0  0  0  0  0  0
   36.3860   28.1600   32.5700 C   0  0  0  0  0  0  0  0  0  0  0  0
   35.3690   28.7820   33.1450 N   0  0  0  0  0  0  0  0  0  0  0  0
   34.0060   30.3370   32.9880 H   0  0  0  0  0  0  0  0  0  0  0  0
   34.8420   31.1620   30.7970 H   0  0  0  0  0  0  0  0  0  0  0  0
   36.7810   29.9410   29.7490 H   0  0  0  0  0  0  0  0  0  0  0  0
  1  2  1  0  0  0  0
  2  7  1  0  0  0  0
  2  3  2  0  0  0  0
  3  8  1  0  0  0  0
  4  3  1  0  0  0  0
  5  4  2  0  0  0  0
  6  1  2  0  0  0  0
  6  5  1  0  0  0  0
  9 10  1  0  0  0  0
 10 11  1  0  0  0  0
 11  5  1  0  0  0  0
 11 12  2  0  0  0  0
 12 13  1  0  0  0  0
 14 12  1  0  0  0  0
 14 15  1  0  0  0  0
 16 14  2  0  0  0  0
 17 10  2  0  0  0  0
 17 16  1  0  0  0  0
 18 22  1  0  0  0  0
 19 18  2  0  0  0  0
 19 20  1  0  0  0  0
 20 21  2  0  0  0  0
 21 22  1  0  0  0  0
 21  1  1  0  0  0  0
 23 19  1  0  0  0  0
 24 20  1  0  0  0  0
 25 31  1  0  0  0  0
 25 30  1  0  0  0  0
 26 25  2  0  0  0  0
 27 26  1  0  0  0  0
 27 28  2  0  0  0  0
 28 29  1  0  0  0  0
 29 30  2  0  0  0  0
 29 18  1  0  0  0  0
 32 26  1  0  0  0  0
 33 27  1  0  0  0  0
M  END
>  <minimizedAffinity>
-5.8990016

$$$$

 OpenBabel03262522533D

 33 36  0  0  0  0  0  0  0  0999 V2000
   37.3590   27.2980   33.9030 C   0  0  0  0  0  0  0  0  0  0  0  0
   37.6800   27.4990   32.6120 C   0  0  0  0  0  0  0  0  0  0  0  0
   37.0330   28.5270   31.9550 C   0  0  0  0  0  0  0  0  0  0  0  0
   36.1150   29.3090   32.5680 N   0  0  0  0  0  0  0  0  0  0  0  0
   35.8580   29.0240   33.8860 C   0  0  0  0  0  0  0  0  0  0  0  0
   36.4490   28.0390   34.5890 N   0  0  0  0  0  0  0  0  0  0  0  0
   38.4050   26.9060   32.0680 H   0  0  0  0  0  0  0  0  0  0  0  0
   37.1950   28.7970   30.9200 H   0  0  0  0  0  0  0  0  0  0  0  0
   36.5880   30.9620   35.7140 F   0  0  0  0  0  0  0  0  0  0  0  0
   35.2440   30.8070   35.4860 C   0  0  0  0  0  0  0  0  0  0  0  0
   34.8730   29.8470   34.5800 C   0  0  0  0  0  0  0  0  0  0  0  0
   33.5130   29.7120   34.3680 C   0  0  0  0  0  0  0  0  0  0  0  0
   33.1550   28.9730   33.6650 H   0  0  0  0  0  0  0  0  0  0  0  0
   32.6310   30.5190   35.0530 C   0  0  0  0  0  0  0  0  0  0  0  0
   31.5490   30.4310   34.9030 H   0  0  0  0  0  0  0  0  0  0  0  0
   33.0610   31.4670   35.9530 C   0  0  0  0  0  3  0  0  0  0  0  0
   34.4240   31.6470   36.2060 C   0  0  0  0  0  3  0  0  0  0  0  0
   39.4970   24.2780   35.6100 C   0  0  0  0  0  0  0  0  0  0  0  0
   38.4780   24.6990   36.3560 C   0  0  0  0  0  0  0  0  0  0  0  0
   37.6800   25.7190   35.8830 C   0  0  0  0  0  0  0  0  0  0  0  0
   38.0060   26.2250   34.6610 C   0  0  0  0  0  0  0  0  0  0  0  0
   39.4600   25.2380   34.1870 S   0  0  0  0  0  0  0  0  0  0  0  0
   38.2780   24.2360   37.3390 H   0  0  0  0  0  0  0  0  0  0  0  0
   36.8230   26.1390   36.4110 H   0  0  0  0  0  0  0  0  0  0  0  0
   42.2600   21.9290   35.2470 C   0  0  0  0  0  0  0  0  0  0  0  0
   42.2780   21.2430   36.4560 C   0  0  0  0  0  0  0  0  0  0  0  0
   41.3190   21.5920   37.4150 C   0  0  0  0  0  0  0  0  0  0  0  0
   40.4230   22.5820   37.1170 N   0  0  0  0  0  0  0  0  0  0  0  0
   40.4690   23.2130   35.9060 C   0  0  0  0  0  0  0  0  0  0  0  0
   41.3600   22.9090   34.9760 N   0  0  0  0  0  0  0  0  0  0  0  0
   42.9710   21.7000   34.4820 H   0  0  0  0  0  0  0  0  0  0  0  0
   43.0090   20.4670   36.6400 H   0  0  0  0  0  0  0  0  0  0  0  0
   41.2900   21.0880   38.3750 H   0  0  0  0  0  0  0  0  0  0  0  0
  1  6  1  0  0  0  0
  1 21  1  0  0  0  0
  2  1  2  0  0  0  0
  3  4  2  0  0  0  0
  3  2  1  0  0  0  0
  4  5  1  0  0  0  0
  5 11  1  0  0  0  0
  5  6  2  0  0  0  0
  7  2  1  0  0  0  0
  8  3  1  0  0  0  0
 10  9  1  0  0  0  0
 10 17  1  0  0  0  0
 11 10  2  0  0  0  0
 12 11  1  0  0  0  0
 12 14  2  0  0  0  0
 13 12  1  0  0  0  0
 14 16  1  0  0  0  0
 15 14  1  0  0  0  0
 16 17  2  0  0  0  0
 18 29  1  0  0  0  0
 18 19  2  0  0  0  0
 19 23  1  0  0  0  0
 20 19  1  0  0  0  0
 20 24  1  0  0  0  0
 21 20  2  0  0  0  0
 22 21  1  0  0  0  0
 22 18  1  0  0  0  0
 25 26  1  0  0  0  0
 26 32  1  0  0  0  0
 26 27  2  0  0  0  0
 27 33  1  0  0  0  0
 28 27  1  0  0  0  0
 29 28  2  0  0  0  0
 30 25  2  0  0  0  0
 30 29  1  0  0  0  0
 31 25  1  0  0  0  0
M  END
>  <minimizedAffinity>
-5.75947952

$$$$

 OpenBabel03262522533D

 33 36  0  0  0  0  0  0  0  0999 V2000
   37.1270   26.5560   31.7870 C   0  0  0  0  0  0  0  0  0  0  0  0
   38.1610   26.6870   30.9360 C   0  0  0  0  0  0  0  0  0  0  0  0
   38.7000   25.5260   30.4170 C   0  0  0  0  0  0  0  0  0  0  0  0
   38.2220   24.3030   30.7380 N   0  0  0  0  0  0  0  0  0  0  0  0
   37.1650   24.2750   31.6140 C   0  0  0  0  0  0  0  0  0  0  0  0
   36.5890   25.3630   32.1590 N   0  0  0  0  0  0  0  0  0  0  0  0
   38.5860   27.6380   30.6420 H   0  0  0  0  0  0  0  0  0  0  0  0
   39.5310   25.4880   29.7240 H   0  0  0  0  0  0  0  0  0  0  0  0
   38.0110   22.9170   33.8660 F   0  0  0  0  0  0  0  0  0  0  0  0
   37.0480   22.3050   33.1040 C   0  0  0  0  0  0  0  0  0  0  0  0
   36.6230   22.9720   31.9840 C   0  0  0  0  0  0  0  0  0  0  0  0
   35.6540   22.3320   31.2340 C   0  0  0  0  0  0  0  0  0  0  0  0
   35.2750   22.8050   30.3380 H   0  0  0  0  0  0  0  0  0  0  0  0
   35.1800   21.1020   31.6340 C   0  0  0  0  0  0  0  0  0  0  0  0
   34.4120   20.5750   31.0570 H   0  0  0  0  0  0  0  0  0  0  0  0
   35.6440   20.4780   32.7700 C   0  0  0  0  0  3  0  0  0  0  0  0
   36.6240   21.0790   33.5650 C   0  0  0  0  0  3  0  0  0  0  0  0
   35.5170   29.6500   33.8930 C   0  0  0  0  0  0  0  0  0  0  0  0
   35.4310   29.8000   32.5720 C   0  0  0  0  0  0  0  0  0  0  0  0
   35.9420   28.8160   31.7530 C   0  0  0  0  0  0  0  0  0  0  0  0
   36.5060   27.7440   32.3760 C   0  0  0  0  0  0  0  0  0  0  0  0
   36.3050   28.1450   34.1400 S   0  0  0  0  0  0  0  0  0  0  0  0
   34.9560   30.7020   32.1430 H   0  0  0  0  0  0  0  0  0  0  0  0
   35.9240   28.8390   30.6630 H   0  0  0  0  0  0  0  0  0  0  0  0
   33.3420   31.2890   36.3150 C   0  0  0  0  0  0  0  0  0  0  0  0
   34.1620   32.2380   36.9140 C   0  0  0  0  0  0  0  0  0  0  0  0
   35.4890   32.3190   36.4760 C   0  0  0  0  0  0  0  0  0  0  0  0
   35.9080   31.4670   35.4910 N   0  0  0  0  0  0  0  0  0  0  0  0
   35.0420   30.5590   34.9490 C   0  0  0  0  0  0  0  0  0  0  0  0
   33.7820   30.4550   35.3380 N   0  0  0  0  0  0  0  0  0  0  0  0
   32.3200   31.1870   36.6130 H   0  0  0  0  0  0  0  0  0  0  0  0
   33.7790   32.8880   37.6910 H   0  0  0  0  0  0  0  0  0  0  0  0
   36.1710   33.0410   36.9110 H   0  0  0  0  0  0  0  0  0  0  0  0
  1  6  1  0  0  0  0
  1 21  1  0  0  0  0
  2  1  2  0  0  0  0
  3  4  2  0  0  0  0
  3  2  1  0  0  0  0
  4  5  1  0  0  0  0
  5 11  1  0  0  0  0
  5  6  2  0  0  0  0
  7  2  1  0  0  0  0
  8  3  1  0  0  0  0
 10 17  1  0  0  0  0
 10  9  1  0  0  0  0
 11 10  2  0  0  0  0
 12 14  2  0  0  0  0
 12 11  1  0  0  0  0
 13 12  1  0  0  0  0
 14 16  1  0  0  0  0
 15 14  1  0  0  0  0
 16 17  2  0  0  0  0
 18 22  1  0  0  0  0
 18 29  1  0  0  0  0
 19 18  2  0  0  0  0
 20 21  2  0  0  0  0
 20 19  1  0  0  0  0
 21 22  1  0  0  0  0
 23 19  1  0  0  0  0
 24 20  1  0  0  0  0
 25 31  1  0  0  0  0
 25 26  1  0  0  0  0
 26 32  1  0  0  0  0
 27 33  1  0  0  0  0
 27 26  2  0  0  0  0
 28 27  1  0  0  0  0
 29 30  1  0  0  0  0
 29 28  2  0  0  0  0
 30 25  2  0  0  0  0
M  END
>  <minimizedAffinity>
-5.61756659

$$$$

 OpenBabel03262522533D

 33 36  0  0  0  0  0  0  0  0999 V2000
   36.5240   28.2570   33.1510 C   0  0  0  0  0  0  0  0  0  0  0  0
   37.0060   28.4050   31.9030 C   0  0  0  0  0  0  0  0  0  0  0  0
   36.2810   29.2020   31.0390 C   0  0  0  0  0  0  0  0  0  0  0  0
   35.1350   29.8150   31.4150 N   0  0  0  0  0  0  0  0  0  0  0  0
   34.7280   29.6020   32.7080 C   0  0  0  0  0  0  0  0  0  0  0  0
   35.3820   28.8390   33.6040 N   0  0  0  0  0  0  0  0  0  0  0  0
   37.9160   27.9400   31.5460 H   0  0  0  0  0  0  0  0  0  0  0  0
   36.5530   29.4060   30.0120 H   0  0  0  0  0  0  0  0  0  0  0  0
   32.2830   28.3210   32.6110 F   0  0  0  0  0  0  0  0  0  0  0  0
   32.2860   29.6040   33.0970 C   0  0  0  0  0  0  0  0  0  0  0  0
   33.4950   30.2470   33.1480 C   0  0  0  0  0  0  0  0  0  0  0  0
   33.4710   31.5390   33.6410 C   0  0  0  0  0  0  0  0  0  0  0  0
   34.3920   32.1010   33.7080 H   0  0  0  0  0  0  0  0  0  0  0  0
   32.2750   32.0950   34.0410 C   0  0  0  0  0  0  0  0  0  0  0  0
   32.2290   33.1160   34.4350 H   0  0  0  0  0  0  0  0  0  0  0  0
   31.0890   31.4010   33.9670 C   0  0  0  0  0  3  0  0  0  0  0  0
   31.0560   30.0930   33.4770 C   0  0  0  0  0  3  0  0  0  0  0  0
   38.5150   25.5680   35.4780 C   0  0  0  0  0  0  0  0  0  0  0  0
   38.3110   26.7420   36.0720 C   0  0  0  0  0  0  0  0  0  0  0  0
   37.6470   27.7340   35.3830 C   0  0  0  0  0  0  0  0  0  0  0  0
   37.2420   27.4250   34.1200 C   0  0  0  0  0  0  0  0  0  0  0  0
   37.8140   25.7100   33.9160 S   0  0  0  0  0  0  0  0  0  0  0  0
   38.6710   26.9150   37.1030 H   0  0  0  0  0  0  0  0  0  0  0  0
   37.4280   28.7280   35.7750 H   0  0  0  0  0  0  0  0  0  0  0  0
   39.4570   22.8520   37.7170 C   0  0  0  0  0  0  0  0  0  0  0  0
   40.4340   22.1590   37.0120 C   0  0  0  0  0  0  0  0  0  0  0  0
   40.7780   22.6350   35.7410 C   0  0  0  0  0  0  0  0  0  0  0  0
   40.1410   23.7470   35.2620 N   0  0  0  0  0  0  0  0  0  0  0  0
   39.1900   24.3760   36.0150 C   0  0  0  0  0  0  0  0  0  0  0  0
   38.8400   23.9540   37.2200 N   0  0  0  0  0  0  0  0  0  0  0  0
   39.1590   22.5290   38.6920 H   0  0  0  0  0  0  0  0  0  0  0  0
   40.9070   21.2830   37.4380 H   0  0  0  0  0  0  0  0  0  0  0  0
   41.5330   22.1310   35.1480 H   0  0  0  0  0  0  0  0  0  0  0  0
  1  6  1  0  0  0  0
  1 21  1  0  0  0  0
  2  1  2  0  0  0  0
  3  4  2  0  0  0  0
  3  2  1  0  0  0  0
  4  5  1  0  0  0  0
  5 11  1  0  0  0  0
  5  6  2  0  0  0  0
  7  2  1  0  0  0  0
  8  3  1  0  0  0  0
  9 10  1  0  0  0  0
 10 11  2  0  0  0  0
 10 17  1  0  0  0  0
 11 12  1  0  0  0  0
 12 13  1  0  0  0  0
 12 14  2  0  0  0  0
 14 15  1  0  0  0  0
 16 14  1  0  0  0  0
 17 16  2  0  0  0  0
 18 29  1  0  0  0  0
 18 19  2  0  0  0  0
 19 23  1  0  0  0  0
 20 24  1  0  0  0  0
 20 19  1  0  0  0  0
 21 20  2  0  0  0  0
 22 21  1  0  0  0  0
 22 18  1  0  0  0  0
 25 31  1  0  0  0  0
 26 32  1  0  0  0  0
 26 25  2  0  0  0  0
 27 26  1  0  0  0  0
 28 27  2  0  0  0  0
 28 29  1  0  0  0  0
 29 30  2  0  0  0  0
 30 25  1  0  0  0  0
 33 27  1  0  0  0  0
M  END
>  <minimizedAffinity>
-5.60369158

$$$$

 OpenBabel03262522533D

 33 36  0  0  0  0  0  0  0  0999 V2000
   37.2610   25.5450   33.1890 C   0  0  0  0  0  0  0  0  0  0  0  0
   37.0300   24.7580   32.1230 C   0  0  0  0  0  0  0  0  0  0  0  0
   37.5680   23.4860   32.1510 C   0  0  0  0  0  0  0  0  0  0  0  0
   38.2980   23.0360   33.1970 N   0  0  0  0  0  0  0  0  0  0  0  0
   38.4760   23.9150   34.2360 C   0  0  0  0  0  0  0  0  0  0  0  0
   37.9830   25.1670   34.2780 N   0  0  0  0  0  0  0  0  0  0  0  0
   36.4560   25.0630   31.2570 H   0  0  0  0  0  0  0  0  0  0  0  0
   37.4600   22.7530   31.3630 H   0  0  0  0  0  0  0  0  0  0  0  0
   37.3810   23.6790   36.7610 F   0  0  0  0  0  0  0  0  0  0  0  0
   38.7060   23.3480   36.6320 C   0  0  0  0  0  0  0  0  0  0  0  0
   39.2580   23.4620   35.3820 C   0  0  0  0  0  0  0  0  0  0  0  0
   40.5950   23.1230   35.2800 C   0  0  0  0  0  0  0  0  0  0  0  0
   41.0890   23.1910   34.3210 H   0  0  0  0  0  0  0  0  0  0  0  0
   41.2810   22.7020   36.3980 C   0  0  0  0  0  0  0  0  0  0  0  0
   42.3400   22.4280   36.3440 H   0  0  0  0  0  0  0  0  0  0  0  0
   40.6750   22.6060   37.6300 C   0  0  0  0  0  3  0  0  0  0  0  0
   39.3270   22.9370   37.7910 C   0  0  0  0  0  3  0  0  0  0  0  0
   35.9040   29.3390   33.7990 C   0  0  0  0  0  0  0  0  0  0  0  0
   35.7250   28.9010   32.5550 C   0  0  0  0  0  0  0  0  0  0  0  0
   36.1440   27.6290   32.2270 C   0  0  0  0  0  0  0  0  0  0  0  0
   36.7210   26.9070   33.2260 C   0  0  0  0  0  0  0  0  0  0  0  0
   36.6650   28.0500   34.6410 S   0  0  0  0  0  0  0  0  0  0  0  0
   35.2460   29.5500   31.7990 H   0  0  0  0  0  0  0  0  0  0  0  0
   36.0450   27.1730   31.2410 H   0  0  0  0  0  0  0  0  0  0  0  0
   35.6190   32.1300   36.1260 C   0  0  0  0  0  0  0  0  0  0  0  0
   34.8640   33.0690   35.4320 C   0  0  0  0  0  0  0  0  0  0  0  0
   34.4430   32.7370   34.1390 C   0  0  0  0  0  0  0  0  0  0  0  0
   34.7920   31.5160   33.6290 N   0  0  0  0  0  0  0  0  0  0  0  0
   35.5370   30.6440   34.3710 C   0  0  0  0  0  0  0  0  0  0  0  0
   35.9520   30.9250   35.5960 N   0  0  0  0  0  0  0  0  0  0  0  0
   35.9650   32.3350   37.1170 H   0  0  0  0  0  0  0  0  0  0  0  0
   34.6160   34.0200   35.8840 H   0  0  0  0  0  0  0  0  0  0  0  0
   33.8530   33.4340   33.5550 H   0  0  0  0  0  0  0  0  0  0  0  0
  1 21  1  0  0  0  0
  1  6  1  0  0  0  0
  2  3  1  0  0  0  0
  2  1  2  0  0  0  0
  3  4  2  0  0  0  0
  4  5  1  0  0  0  0
  5  6  2  0  0  0  0
  5 11  1  0  0  0  0
  7  2  1  0  0  0  0
  8  3  1  0  0  0  0
 10  9  1  0  0  0  0
 10 17  1  0  0  0  0
 11 10  2  0  0  0  0
 12 11  1  0  0  0  0
 12 14  2  0  0  0  0
 13 12  1  0  0  0  0
 14 16  1  0  0  0  0
 15 14  1  0  0  0  0
 16 17  2  0  0  0  0
 18 29  1  0  0  0  0
 18 22  1  0  0  0  0
 19 18  2  0  0  0  0
 20 19  1  0  0  0  0
 20 21  2  0  0  0  0
 21 22  1  0  0  0  0
 23 19  1  0  0  0  0
 24 20  1  0  0  0  0
 25 31  1  0  0  0  0
 26 32  1  0  0  0  0
 26 25  2  0  0  0  0
 27 26  1  0  0  0  0
 28 27  2  0  0  0  0
 28 29  1  0  0  0  0
 29 30  2  0  0  0  0
 30 25  1  0  0  0  0
 33 27  1  0  0  0  0
M  END
>  <minimizedAffinity>
-5.53903246

$$$$
