
 OpenBabel03272510333D

 28 30  0  0  0  0  0  0  0  0999 V2000
   35.9060   30.1660   46.8230 C   0  0  0  0  0  0  0  0  0  0  0  0
   35.2320   30.1930   45.6120 C   0  0  0  0  0  0  0  0  0  0  0  0
   34.0100   29.5540   45.4810 C   0  0  0  0  0  0  0  0  0  0  0  0
   33.4840   28.8940   46.5850 C   0  0  0  0  0  0  0  0  0  0  0  0
   34.1430   28.8590   47.7940 C   0  0  0  0  0  0  0  0  0  0  0  0
   35.3630   29.5000   47.9170 C   0  0  0  0  0  0  0  0  0  0  0  0
   35.6590   30.7080   44.7810 H   0  0  0  0  0  0  0  0  0  0  0  0
   33.5000   29.5830   44.5400 H   0  0  0  0  0  0  0  0  0  0  0  0
   32.5290   28.3810   46.5250 H   0  0  0  0  0  0  0  0  0  0  0  0
   33.7650   28.3560   48.6730 H   0  0  0  0  0  0  0  0  0  0  0  0
   38.4200   32.5880   47.8470 C   0  0  0  0  0  0  0  0  0  0  0  0
   39.5490   32.2580   47.0860 C   0  0  0  0  0  0  0  0  0  0  0  0
   39.4210   31.1720   46.2040 C   0  0  0  0  0  0  0  0  0  0  0  0
   38.2410   30.5230   46.1450 N   0  0  0  0  0  0  0  0  0  0  0  0
   37.1780   30.8590   46.8840 C   0  0  0  0  0  0  0  0  0  0  0  0
   37.2790   31.8990   47.7370 N   0  0  0  0  0  0  0  0  0  0  0  0
   38.4250   33.4060   48.5500 H   0  0  0  0  0  0  0  0  0  0  0  0
   40.4130   32.8550   47.2360 H   0  0  0  0  0  0  0  0  0  0  0  0
   40.2960   30.9240   45.6200 H   0  0  0  0  0  0  0  0  0  0  0  0
   33.8840   29.8740   50.2520 F   0  0  0  0  0  0  0  0  0  0  0  0
   35.2350   29.6730   50.2850 C   0  0  0  0  0  0  0  0  0  0  0  0
   36.0810   29.4750   49.1900 C   0  0  0  0  0  0  0  0  0  0  0  0
   37.4380   29.2880   49.4410 C   0  0  0  0  0  0  0  0  0  0  0  0
   37.9960   29.1460   48.5420 H   0  0  0  0  0  0  0  0  0  0  0  0
   37.8960   29.3020   50.7200 C   0  0  0  0  0  0  0  0  0  0  0  0
   38.9610   29.1470   50.8070 H   0  0  0  0  0  0  0  0  0  0  0  0
   37.0720   29.4960   51.8120 C   0  0  0  0  0  3  0  0  0  0  0  0
   35.7160   29.6840   51.5780 C   0  0  0  0  0  3  0  0  0  0  0  0
  1 15  1  0  0  0  0
  1  6  1  0  0  0  0
  2  1  2  0  0  0  0
  3  2  1  0  0  0  0
  3  4  2  0  0  0  0
  4  5  1  0  0  0  0
  5  6  2  0  0  0  0
  5 10  1  0  0  0  0
  6 22  1  0  0  0  0
  7  2  1  0  0  0  0
  8  3  1  0  0  0  0
  9  4  1  0  0  0  0
 11 17  1  0  0  0  0
 12 18  1  0  0  0  0
 12 11  2  0  0  0  0
 13 12  1  0  0  0  0
 14 13  2  0  0  0  0
 14 15  1  0  0  0  0
 15 16  2  0  0  0  0
 16 11  1  0  0  0  0
 19 13  1  0  0  0  0
 20 21  1  0  0  0  0
 21 28  1  0  0  0  0
 22 23  1  0  0  0  0
 22 21  2  0  0  0  0
 23 25  2  0  0  0  0
 24 23  1  0  0  0  0
 25 26  1  0  0  0  0
 25 27  1  0  0  0  0
 28 27  2  0  0  0  0
M  END
>  <minimizedAffinity>
-5.24279737

>  <minimizedRMSD>
1.92978466

$$$$
