
 OpenBabel03262522103D

 29 31  0  0  0  0  0  0  0  0999 V2000
   38.4040   31.4140   46.1890 C   0  0  0  0  0  0  0  0  0  0  0  0
   39.0050   32.4840   46.8010 C   0  0  0  0  0  0  0  0  0  0  0  0
   40.0780   33.0960   46.1870 C   0  0  0  0  0  0  0  0  0  0  0  0
   40.4700   32.5550   44.9580 C   0  0  0  0  0  0  0  0  0  0  0  0
   39.8520   31.4840   44.3690 C   0  0  0  0  0  0  0  0  0  0  0  0
   38.8030   30.9100   45.0010 N   0  0  0  0  0  0  0  0  0  0  0  0
   38.6650   32.8700   47.7580 H   0  0  0  0  0  0  0  0  0  0  0  0
   40.5880   33.9430   46.6270 H   0  0  0  0  0  0  0  0  0  0  0  0
   41.3120   33.0510   44.4970 H   0  0  0  0  0  0  0  0  0  0  0  0
   39.1590   32.6820   41.9790 F   0  0  0  0  0  0  0  0  0  0  0  0
   39.9220   31.5570   41.9050 C   0  0  0  0  0  0  0  0  0  0  0  0
   40.2810   30.9410   43.0860 C   0  0  0  0  0  0  0  0  0  0  0  0
   41.0510   29.8100   42.9280 C   0  0  0  0  0  0  0  0  0  0  0  0
   41.3700   29.2730   43.8100 H   0  0  0  0  0  0  0  0  0  0  0  0
   41.4380   29.3250   41.6970 C   0  0  0  0  0  0  0  0  0  0  0  0
   42.0400   28.4390   41.5950 H   0  0  0  0  0  0  0  0  0  0  0  0
   41.0510   29.9820   40.5420 C   0  0  0  0  0  0  0  0  0  0  0  0
   40.2780   31.1190   40.6440 C   0  0  0  0  0  0  0  0  0  0  0  0
   37.2650   30.7970   46.8850 C   0  0  0  0  0  0  0  0  0  0  0  0
   36.2260   30.4860   46.3040 O   0  0  0  0  0  0  0  0  0  0  0  0
   38.1920   31.2380   49.1550 C   0  0  0  0  0  0  0  0  0  0  0  0
   37.3120   30.5180   48.3260 C   0  0  0  0  0  0  0  0  0  0  0  0
   36.5160   29.5580   48.9300 C   0  0  0  0  0  0  0  0  0  0  0  0
   36.6170   29.3560   50.2790 N   0  0  0  0  0  0  0  0  0  0  0  0
   37.4760   30.0700   51.0330 C   0  0  0  0  0  0  0  0  0  0  0  0
   38.2490   30.9930   50.4850 N   0  0  0  0  0  0  0  0  0  0  0  0
   38.8450   32.0080   48.7300 H   0  0  0  0  0  0  0  0  0  0  0  0
   35.8470   29.0120   48.2950 H   0  0  0  0  0  0  0  0  0  0  0  0
   37.4860   29.8400   52.0890 H   0  0  0  0  0  0  0  0  0  0  0  0
  1  2  1  0  0  0  0
  1 19  1  0  0  0  0
  2  7  1  0  0  0  0
  3  8  1  0  0  0  0
  3  2  2  0  0  0  0
  4  3  1  0  0  0  0
  5  4  2  0  0  0  0
  5  6  1  0  0  0  0
  6  1  2  0  0  0  0
  9  4  1  0  0  0  0
 11 10  1  0  0  0  0
 11 12  1  0  0  0  0
 12  5  1  0  0  0  0
 13 12  2  0  0  0  0
 13 14  1  0  0  0  0
 15 13  1  0  0  0  0
 16 15  1  0  0  0  0
 17 18  1  0  0  0  0
 17 15  2  0  0  0  0
 18 11  2  0  0  0  0
 19 22  1  0  0  0  0
 20 19  2  0  0  0  0
 21 26  1  0  0  0  0
 22 23  1  0  0  0  0
 22 21  2  0  0  0  0
 23 24  2  0  0  0  0
 24 25  1  0  0  0  0
 25 29  1  0  0  0  0
 26 25  2  0  0  0  0
 27 21  1  0  0  0  0
 28 23  1  0  0  0  0
M  END
>  <minimizedAffinity>
-5.96724701

>  <minimizedRMSD>
3.70615029

$$$$
