
 OpenBabel03272510073D

 30 32  0  0  0  0  0  0  0  0999 V2000
   38.3030   26.7700   35.9110 C   0  0  0  0  0  0  0  0  0  0  0  0
   38.3810   25.4400   35.4160 C   0  0  0  0  0  0  0  0  0  0  0  0
   37.7650   25.1460   34.1990 C   0  0  0  0  0  0  0  0  0  0  0  0
   37.1180   26.1520   33.5440 N   0  0  0  0  0  0  0  0  0  0  0  0
   37.0600   27.3990   34.0350 C   0  0  0  0  0  0  0  0  0  0  0  0
   37.6410   27.7350   35.2110 N   0  0  0  0  0  0  0  0  0  0  0  0
   36.3570   28.4100   33.2820 N   0  0  0  0  0  0  0  0  0  0  0  0
   36.7600   28.7790   31.9230 C   0  0  0  0  0  0  0  0  0  0  0  0
   35.6720   29.6700   31.4360 C   0  0  0  0  0  0  0  0  0  0  0  0
   34.5510   29.5420   32.4430 C   0  0  0  0  0  0  0  0  0  0  0  0
   35.2170   29.1700   33.7290 C   0  0  0  0  0  0  0  0  0  0  0  0
   38.7710   27.0100   36.8450 H   0  0  0  0  0  0  0  0  0  0  0  0
   37.8100   24.1440   33.8010 H   0  0  0  0  0  0  0  0  0  0  0  0
   37.7650   29.2680   31.9810 H   0  0  0  0  0  0  0  0  0  0  0  0
   36.9110   27.8740   31.2960 H   0  0  0  0  0  0  0  0  0  0  0  0
   36.0030   30.7230   31.3210 H   0  0  0  0  0  0  0  0  0  0  0  0
   35.3820   29.3140   30.4240 H   0  0  0  0  0  0  0  0  0  0  0  0
   33.8340   28.7300   32.1680 H   0  0  0  0  0  0  0  0  0  0  0  0
   34.0740   30.5400   32.5150 H   0  0  0  0  0  0  0  0  0  0  0  0
   35.5150   30.0640   34.2980 H   0  0  0  0  0  0  0  0  0  0  0  0
   34.5230   28.5660   34.3550 H   0  0  0  0  0  0  0  0  0  0  0  0
   37.4350   24.3170   37.8300 F   0  0  0  0  0  0  0  0  0  0  0  0
   38.6160   23.8730   37.3360 C   0  0  0  0  0  0  0  0  0  0  0  0
   39.0900   24.4080   36.1650 C   0  0  0  0  0  0  0  0  0  0  0  0
   40.2950   23.9870   35.6160 C   0  0  0  0  0  0  0  0  0  0  0  0
   40.6930   24.3930   34.6900 H   0  0  0  0  0  0  0  0  0  0  0  0
   41.0650   23.0060   36.2370 C   0  0  0  0  0  0  0  0  0  0  0  0
   42.0110   22.6550   35.8330 H   0  0  0  0  0  0  0  0  0  0  0  0
   40.5800   22.4720   37.4190 C   0  0  0  0  0  3  0  0  0  0  0  0
   39.3830   22.8870   37.9660 C   0  0  0  0  0  3  0  0  0  0  0  0
  1 12  1  0  0  0  0
  2  1  1  0  0  0  0
  2 24  1  0  0  0  0
  3  2  2  0  0  0  0
  4  5  2  0  0  0  0
  4  3  1  0  0  0  0
  5  6  1  0  0  0  0
  6  1  2  0  0  0  0
  7 11  1  0  0  0  0
  7  5  1  0  0  0  0
  8 14  1  0  0  0  0
  8  7  1  0  0  0  0
  9  8  1  0  0  0  0
  9 10  1  0  0  0  0
 10 19  1  0  0  0  0
 10 11  1  0  0  0  0
 11 20  1  0  0  0  0
 11 21  1  0  0  0  0
 13  3  1  0  0  0  0
 15  8  1  0  0  0  0
 16  9  1  0  0  0  0
 17  9  1  0  0  0  0
 18 10  1  0  0  0  0
 23 22  1  0  0  0  0
 23 30  1  0  0  0  0
 24 23  2  0  0  0  0
 25 24  1  0  0  0  0
 25 27  2  0  0  0  0
 26 25  1  0  0  0  0
 27 29  1  0  0  0  0
 28 27  1  0  0  0  0
 29 30  2  0  0  0  0
M  END
>  <minimizedAffinity>
-5.39193535

$$$$

 OpenBabel03272510073D

 30 32  0  0  0  0  0  0  0  0999 V2000
   37.7770   25.1270   34.1600 C   0  0  0  0  0  0  0  0  0  0  0  0
   38.3940   25.4430   35.4000 C   0  0  0  0  0  0  0  0  0  0  0  0
   38.3200   26.7570   35.8640 C   0  0  0  0  0  0  0  0  0  0  0  0
   37.6570   27.6740   35.1020 N   0  0  0  0  0  0  0  0  0  0  0  0
   37.0840   27.3470   33.9340 C   0  0  0  0  0  0  0  0  0  0  0  0
   37.1280   26.0870   33.4410 N   0  0  0  0  0  0  0  0  0  0  0  0
   36.3990   28.3730   33.1860 N   0  0  0  0  0  0  0  0  0  0  0  0
   35.2560   29.1000   33.7420 C   0  0  0  0  0  0  0  0  0  0  0  0
   34.9920   30.1920   32.7650 C   0  0  0  0  0  0  0  0  0  0  0  0
   36.1820   30.2090   31.8330 C   0  0  0  0  0  0  0  0  0  0  0  0
   36.7170   28.8140   31.8510 C   0  0  0  0  0  0  0  0  0  0  0  0
   37.8260   24.1210   33.7910 H   0  0  0  0  0  0  0  0  0  0  0  0
   38.7810   27.0230   36.8030 H   0  0  0  0  0  0  0  0  0  0  0  0
   34.4110   28.3760   33.8630 H   0  0  0  0  0  0  0  0  0  0  0  0
   35.4790   29.4630   34.7680 H   0  0  0  0  0  0  0  0  0  0  0  0
   34.0400   30.0490   32.2130 H   0  0  0  0  0  0  0  0  0  0  0  0
   34.8870   31.1350   33.3440 H   0  0  0  0  0  0  0  0  0  0  0  0
   36.9840   30.9000   32.1940 H   0  0  0  0  0  0  0  0  0  0  0  0
   35.7950   30.4760   30.8290 H   0  0  0  0  0  0  0  0  0  0  0  0
   36.2320   28.1890   31.0840 H   0  0  0  0  0  0  0  0  0  0  0  0
   37.8130   28.8240   31.6560 H   0  0  0  0  0  0  0  0  0  0  0  0
   37.3770   24.2950   37.7730 F   0  0  0  0  0  0  0  0  0  0  0  0
   38.5800   23.8690   37.3200 C   0  0  0  0  0  0  0  0  0  0  0  0
   39.0890   24.4160   36.1690 C   0  0  0  0  0  0  0  0  0  0  0  0
   40.3190   24.0140   35.6630 C   0  0  0  0  0  0  0  0  0  0  0  0
   40.7440   24.4310   34.7530 H   0  0  0  0  0  0  0  0  0  0  0  0
   41.0800   23.0410   36.3070 C   0  0  0  0  0  0  0  0  0  0  0  0
   42.0440   22.7050   35.9360 H   0  0  0  0  0  0  0  0  0  0  0  0
   40.5590   22.4940   37.4680 C   0  0  0  0  0  3  0  0  0  0  0  0
   39.3380   22.8910   37.9730 C   0  0  0  0  0  3  0  0  0  0  0  0
  1  2  1  0  0  0  0
  2  3  2  0  0  0  0
  2 24  1  0  0  0  0
  3 13  1  0  0  0  0
  4  3  1  0  0  0  0
  5  4  2  0  0  0  0
  6  5  1  0  0  0  0
  6  1  2  0  0  0  0
  7  8  1  0  0  0  0
  7  5  1  0  0  0  0
  8 14  1  0  0  0  0
  8 15  1  0  0  0  0
  9 17  1  0  0  0  0
  9  8  1  0  0  0  0
 10 11  1  0  0  0  0
 10 18  1  0  0  0  0
 10  9  1  0  0  0  0
 11  7  1  0  0  0  0
 12  1  1  0  0  0  0
 16  9  1  0  0  0  0
 19 10  1  0  0  0  0
 20 11  1  0  0  0  0
 21 11  1  0  0  0  0
 23 22  1  0  0  0  0
 23 30  1  0  0  0  0
 24 23  2  0  0  0  0
 25 24  1  0  0  0  0
 25 27  2  0  0  0  0
 26 25  1  0  0  0  0
 27 29  1  0  0  0  0
 28 27  1  0  0  0  0
 29 30  2  0  0  0  0
M  END
>  <minimizedAffinity>
-5.30955219

$$$$

 OpenBabel03272510073D

 30 32  0  0  0  0  0  0  0  0999 V2000
   37.3620   23.0410   32.7930 C   0  0  0  0  0  0  0  0  0  0  0  0
   36.2900   22.4540   32.0690 C   0  0  0  0  0  0  0  0  0  0  0  0
   35.3970   23.2960   31.4040 C   0  0  0  0  0  0  0  0  0  0  0  0
   35.5990   24.6420   31.4820 N   0  0  0  0  0  0  0  0  0  0  0  0
   36.6200   25.1690   32.1740 C   0  0  0  0  0  0  0  0  0  0  0  0
   37.5130   24.3960   32.8350 N   0  0  0  0  0  0  0  0  0  0  0  0
   36.7690   26.6040   32.2080 N   0  0  0  0  0  0  0  0  0  0  0  0
   36.9640   27.3890   30.9860 C   0  0  0  0  0  0  0  0  0  0  0  0
   36.8510   28.8060   31.4270 C   0  0  0  0  0  0  0  0  0  0  0  0
   36.3110   28.7580   32.8380 C   0  0  0  0  0  0  0  0  0  0  0  0
   36.7500   27.4370   33.3840 C   0  0  0  0  0  0  0  0  0  0  0  0
   38.0560   22.4080   33.3090 H   0  0  0  0  0  0  0  0  0  0  0  0
   34.5730   22.8750   30.8480 H   0  0  0  0  0  0  0  0  0  0  0  0
   37.9610   27.1180   30.5570 H   0  0  0  0  0  0  0  0  0  0  0  0
   36.2240   27.1020   30.2100 H   0  0  0  0  0  0  0  0  0  0  0  0
   37.8180   29.3470   31.3750 H   0  0  0  0  0  0  0  0  0  0  0  0
   36.1600   29.3170   30.7210 H   0  0  0  0  0  0  0  0  0  0  0  0
   35.1950   28.7970   32.8600 H   0  0  0  0  0  0  0  0  0  0  0  0
   36.7880   29.5950   33.3880 H   0  0  0  0  0  0  0  0  0  0  0  0
   37.7430   27.5080   33.8540 H   0  0  0  0  0  0  0  0  0  0  0  0
   36.0230   27.0800   34.1470 H   0  0  0  0  0  0  0  0  0  0  0  0
   35.2760   20.9150   34.2110 F   0  0  0  0  0  0  0  0  0  0  0  0
   35.6330   20.2730   33.0730 C   0  0  0  0  0  0  0  0  0  0  0  0
   36.1270   21.0050   32.0240 C   0  0  0  0  0  0  0  0  0  0  0  0
   36.5090   20.3940   30.8350 C   0  0  0  0  0  0  0  0  0  0  0  0
   36.9020   20.9500   29.9890 H   0  0  0  0  0  0  0  0  0  0  0  0
   36.4020   19.0160   30.6680 C   0  0  0  0  0  0  0  0  0  0  0  0
   36.6910   18.5080   29.7510 H   0  0  0  0  0  0  0  0  0  0  0  0
   35.9030   18.2840   31.7320 C   0  0  0  0  0  3  0  0  0  0  0  0
   35.5230   18.8870   32.9140 C   0  0  0  0  0  3  0  0  0  0  0  0
  1  6  1  0  0  0  0
  1 12  1  0  0  0  0
  2  1  2  0  0  0  0
  3  4  2  0  0  0  0
  3  2  1  0  0  0  0
  4  5  1  0  0  0  0
  5  7  1  0  0  0  0
  5  6  2  0  0  0  0
  7 11  1  0  0  0  0
  8  9  1  0  0  0  0
  8  7  1  0  0  0  0
  9 10  1  0  0  0  0
 10 18  1  0  0  0  0
 10 11  1  0  0  0  0
 10 19  1  0  0  0  0
 11 20  1  0  0  0  0
 11 21  1  0  0  0  0
 13  3  1  0  0  0  0
 14  8  1  0  0  0  0
 15  8  1  0  0  0  0
 16  9  1  0  0  0  0
 17  9  1  0  0  0  0
 23 22  1  0  0  0  0
 24  2  1  0  0  0  0
 24 23  2  0  0  0  0
 25 24  1  0  0  0  0
 26 25  1  0  0  0  0
 27 25  2  0  0  0  0
 27 29  1  0  0  0  0
 28 27  1  0  0  0  0
 29 30  2  0  0  0  0
 30 23  1  0  0  0  0
M  END
>  <minimizedAffinity>
-5.28872824

$$$$

 OpenBabel03272510073D

 30 32  0  0  0  0  0  0  0  0999 V2000
   38.3260   26.8200   35.8700 C   0  0  0  0  0  0  0  0  0  0  0  0
   38.3770   25.4860   35.3850 C   0  0  0  0  0  0  0  0  0  0  0  0
   37.7250   25.1880   34.1870 C   0  0  0  0  0  0  0  0  0  0  0  0
   37.0700   26.1950   33.5410 N   0  0  0  0  0  0  0  0  0  0  0  0
   37.0380   27.4460   34.0230 C   0  0  0  0  0  0  0  0  0  0  0  0
   37.6540   27.7860   35.1790 N   0  0  0  0  0  0  0  0  0  0  0  0
   36.3250   28.4580   33.2810 N   0  0  0  0  0  0  0  0  0  0  0  0
   36.6940   28.8110   31.9080 C   0  0  0  0  0  0  0  0  0  0  0  0
   35.6020   29.7090   31.4430 C   0  0  0  0  0  0  0  0  0  0  0  0
   34.5080   29.6010   32.4810 C   0  0  0  0  0  0  0  0  0  0  0  0
   35.2050   29.2330   33.7520 C   0  0  0  0  0  0  0  0  0  0  0  0
   38.8210   27.0640   36.7880 H   0  0  0  0  0  0  0  0  0  0  0  0
   37.7480   24.1820   33.7970 H   0  0  0  0  0  0  0  0  0  0  0  0
   37.7050   29.2900   31.9340 H   0  0  0  0  0  0  0  0  0  0  0  0
   36.8190   27.9000   31.2850 H   0  0  0  0  0  0  0  0  0  0  0  0
   35.9400   30.7580   31.3110 H   0  0  0  0  0  0  0  0  0  0  0  0
   35.2810   29.3480   30.4420 H   0  0  0  0  0  0  0  0  0  0  0  0
   33.7760   28.7940   32.2330 H   0  0  0  0  0  0  0  0  0  0  0  0
   34.0430   30.6050   32.5570 H   0  0  0  0  0  0  0  0  0  0  0  0
   35.5270   30.1290   34.3050 H   0  0  0  0  0  0  0  0  0  0  0  0
   34.5220   28.6420   34.4020 H   0  0  0  0  0  0  0  0  0  0  0  0
   40.8120   24.3410   34.5240 F   0  0  0  0  0  0  0  0  0  0  0  0
   40.2770   23.9070   35.6900 C   0  0  0  0  0  0  0  0  0  0  0  0
   39.0950   24.4520   36.1230 C   0  0  0  0  0  0  0  0  0  0  0  0
   38.5040   24.0410   37.3110 C   0  0  0  0  0  0  0  0  0  0  0  0
   37.5690   24.4570   37.6770 H   0  0  0  0  0  0  0  0  0  0  0  0
   39.0920   23.0600   38.1060 C   0  0  0  0  0  0  0  0  0  0  0  0
   38.6550   22.7180   39.0410 H   0  0  0  0  0  0  0  0  0  0  0  0
   40.2850   22.5150   37.6620 C   0  0  0  0  0  3  0  0  0  0  0  0
   40.8740   22.9210   36.4830 C   0  0  0  0  0  3  0  0  0  0  0  0
  1 12  1  0  0  0  0
  2  1  1  0  0  0  0
  2 24  1  0  0  0  0
  3  2  2  0  0  0  0
  4  5  2  0  0  0  0
  4  3  1  0  0  0  0
  5  6  1  0  0  0  0
  6  1  2  0  0  0  0
  7 11  1  0  0  0  0
  7  5  1  0  0  0  0
  8 14  1  0  0  0  0
  8  7  1  0  0  0  0
  9  8  1  0  0  0  0
  9 10  1  0  0  0  0
 10 19  1  0  0  0  0
 10 11  1  0  0  0  0
 11 20  1  0  0  0  0
 11 21  1  0  0  0  0
 13  3  1  0  0  0  0
 15  8  1  0  0  0  0
 16  9  1  0  0  0  0
 17  9  1  0  0  0  0
 18 10  1  0  0  0  0
 22 23  1  0  0  0  0
 23 24  2  0  0  0  0
 23 30  1  0  0  0  0
 24 25  1  0  0  0  0
 25 26  1  0  0  0  0
 25 27  2  0  0  0  0
 27 28  1  0  0  0  0
 29 27  1  0  0  0  0
 30 29  2  0  0  0  0
M  END
>  <minimizedAffinity>
-5.27220678

$$$$

 OpenBabel03272510073D

 30 32  0  0  0  0  0  0  0  0999 V2000
   37.7300   25.1110   33.9120 C   0  0  0  0  0  0  0  0  0  0  0  0
   38.1900   25.5020   35.1970 C   0  0  0  0  0  0  0  0  0  0  0  0
   38.0270   26.8320   35.5860 C   0  0  0  0  0  0  0  0  0  0  0  0
   37.4330   27.6920   34.7100 N   0  0  0  0  0  0  0  0  0  0  0  0
   37.0080   27.2950   33.5010 C   0  0  0  0  0  0  0  0  0  0  0  0
   37.1430   26.0160   33.0780 N   0  0  0  0  0  0  0  0  0  0  0  0
   36.3870   28.2640   32.6300 N   0  0  0  0  0  0  0  0  0  0  0  0
   35.1670   28.9780   33.0160 C   0  0  0  0  0  0  0  0  0  0  0  0
   34.9890   30.0150   31.9640 C   0  0  0  0  0  0  0  0  0  0  0  0
   36.2780   30.0290   31.1750 C   0  0  0  0  0  0  0  0  0  0  0  0
   36.8460   28.6540   31.3210 C   0  0  0  0  0  0  0  0  0  0  0  0
   37.8490   24.0920   33.5990 H   0  0  0  0  0  0  0  0  0  0  0  0
   38.3690   27.1550   36.5570 H   0  0  0  0  0  0  0  0  0  0  0  0
   34.3340   28.2320   33.0740 H   0  0  0  0  0  0  0  0  0  0  0  0
   35.2600   29.3930   34.0420 H   0  0  0  0  0  0  0  0  0  0  0  0
   34.1120   29.8160   31.3140 H   0  0  0  0  0  0  0  0  0  0  0  0
   34.7920   30.9790   32.4810 H   0  0  0  0  0  0  0  0  0  0  0  0
   37.0140   30.7610   31.5910 H   0  0  0  0  0  0  0  0  0  0  0  0
   36.0030   30.2380   30.1210 H   0  0  0  0  0  0  0  0  0  0  0  0
   36.4690   27.9810   30.5350 H   0  0  0  0  0  0  0  0  0  0  0  0
   37.9560   28.6910   31.2520 H   0  0  0  0  0  0  0  0  0  0  0  0
   40.6030   24.1540   34.6100 F   0  0  0  0  0  0  0  0  0  0  0  0
   39.9910   23.8880   35.7890 C   0  0  0  0  0  0  0  0  0  0  0  0
   38.8190   24.5340   36.0900 C   0  0  0  0  0  0  0  0  0  0  0  0
   38.1510   24.2960   37.2850 C   0  0  0  0  0  0  0  0  0  0  0  0
   37.2220   24.7940   37.5480 H   0  0  0  0  0  0  0  0  0  0  0  0
   38.6500   23.3930   38.2210 C   0  0  0  0  0  0  0  0  0  0  0  0
   38.1520   23.1860   39.1640 H   0  0  0  0  0  0  0  0  0  0  0  0
   39.8340   22.7450   37.9090 C   0  0  0  0  0  3  0  0  0  0  0  0
   40.4990   22.9790   36.7230 C   0  0  0  0  0  3  0  0  0  0  0  0
  1  2  1  0  0  0  0
  2  3  2  0  0  0  0
  2 24  1  0  0  0  0
  3 13  1  0  0  0  0
  4  3  1  0  0  0  0
  5  4  2  0  0  0  0
  6  5  1  0  0  0  0
  6  1  2  0  0  0  0
  7  8  1  0  0  0  0
  7  5  1  0  0  0  0
  8 14  1  0  0  0  0
  8 15  1  0  0  0  0
  9 17  1  0  0  0  0
  9  8  1  0  0  0  0
 10 11  1  0  0  0  0
 10 18  1  0  0  0  0
 10  9  1  0  0  0  0
 11  7  1  0  0  0  0
 12  1  1  0  0  0  0
 16  9  1  0  0  0  0
 19 10  1  0  0  0  0
 20 11  1  0  0  0  0
 21 11  1  0  0  0  0
 22 23  1  0  0  0  0
 23 24  2  0  0  0  0
 23 30  1  0  0  0  0
 24 25  1  0  0  0  0
 25 26  1  0  0  0  0
 25 27  2  0  0  0  0
 27 28  1  0  0  0  0
 29 27  1  0  0  0  0
 30 29  2  0  0  0  0
M  END
>  <minimizedAffinity>
-5.25773096

$$$$

 OpenBabel03272510073D

 30 32  0  0  0  0  0  0  0  0999 V2000
   37.1520   24.2550   32.4580 C   0  0  0  0  0  0  0  0  0  0  0  0
   36.1620   23.6120   31.6690 C   0  0  0  0  0  0  0  0  0  0  0  0
   35.2490   24.4040   30.9700 C   0  0  0  0  0  0  0  0  0  0  0  0
   35.3540   25.7590   31.0810 N   0  0  0  0  0  0  0  0  0  0  0  0
   36.3000   26.3400   31.8360 C   0  0  0  0  0  0  0  0  0  0  0  0
   37.2070   25.6160   32.5310 N   0  0  0  0  0  0  0  0  0  0  0  0
   36.3480   27.7810   31.9010 N   0  0  0  0  0  0  0  0  0  0  0  0
   36.5530   28.6010   30.7050 C   0  0  0  0  0  0  0  0  0  0  0  0
   36.3200   29.9980   31.1620 C   0  0  0  0  0  0  0  0  0  0  0  0
   35.7120   29.8860   32.5410 C   0  0  0  0  0  0  0  0  0  0  0  0
   36.2100   28.5870   33.0880 C   0  0  0  0  0  0  0  0  0  0  0  0
   37.8590   23.6590   33.0010 H   0  0  0  0  0  0  0  0  0  0  0  0
   34.4870   23.9400   30.3640 H   0  0  0  0  0  0  0  0  0  0  0  0
   37.5880   28.4070   30.3250 H   0  0  0  0  0  0  0  0  0  0  0  0
   35.8760   28.2800   29.8850 H   0  0  0  0  0  0  0  0  0  0  0  0
   37.2490   30.6040   31.1700 H   0  0  0  0  0  0  0  0  0  0  0  0
   35.6340   30.4750   30.4280 H   0  0  0  0  0  0  0  0  0  0  0  0
   34.5950   29.8480   32.5030 H   0  0  0  0  0  0  0  0  0  0  0  0
   36.1000   30.7420   33.1290 H   0  0  0  0  0  0  0  0  0  0  0  0
   37.1700   28.7150   33.6120 H   0  0  0  0  0  0  0  0  0  0  0  0
   35.4700   28.1660   33.8040 H   0  0  0  0  0  0  0  0  0  0  0  0
   38.0220   22.0330   30.2440 F   0  0  0  0  0  0  0  0  0  0  0  0
   37.0130   21.4040   30.8940 C   0  0  0  0  0  0  0  0  0  0  0  0
   36.1010   22.1560   31.5910 C   0  0  0  0  0  0  0  0  0  0  0  0
   35.0470   21.5600   32.2730 C   0  0  0  0  0  0  0  0  0  0  0  0
   34.3120   22.1320   32.8330 H   0  0  0  0  0  0  0  0  0  0  0  0
   34.8810   20.1770   32.2750 C   0  0  0  0  0  0  0  0  0  0  0  0
   34.0680   19.6810   32.7990 H   0  0  0  0  0  0  0  0  0  0  0  0
   35.8060   19.4260   31.5690 C   0  0  0  0  0  3  0  0  0  0  0  0
   36.8530   20.0140   30.8900 C   0  0  0  0  0  3  0  0  0  0  0  0
  1  6  1  0  0  0  0
  1 12  1  0  0  0  0
  2  1  2  0  0  0  0
  3  4  2  0  0  0  0
  3  2  1  0  0  0  0
  4  5  1  0  0  0  0
  5  7  1  0  0  0  0
  5  6  2  0  0  0  0
  7 11  1  0  0  0  0
  8  9  1  0  0  0  0
  8  7  1  0  0  0  0
  9 16  1  0  0  0  0
  9 10  1  0  0  0  0
 10 11  1  0  0  0  0
 10 19  1  0  0  0  0
 11 20  1  0  0  0  0
 11 21  1  0  0  0  0
 13  3  1  0  0  0  0
 14  8  1  0  0  0  0
 15  8  1  0  0  0  0
 17  9  1  0  0  0  0
 18 10  1  0  0  0  0
 22 23  1  0  0  0  0
 23 24  1  0  0  0  0
 24  2  1  0  0  0  0
 24 25  2  0  0  0  0
 25 27  1  0  0  0  0
 25 26  1  0  0  0  0
 27 28  1  0  0  0  0
 29 27  2  0  0  0  0
 30 23  2  0  0  0  0
 30 29  1  0  0  0  0
M  END
>  <minimizedAffinity>
-5.23602009

$$$$

 OpenBabel03272510073D

 30 32  0  0  0  0  0  0  0  0999 V2000
   35.0220   28.9940   32.7310 C   0  0  0  0  0  0  0  0  0  0  0  0
   35.5190   29.1310   34.0540 C   0  0  0  0  0  0  0  0  0  0  0  0
   36.4730   28.2170   34.5040 C   0  0  0  0  0  0  0  0  0  0  0  0
   36.8800   27.2350   33.6500 N   0  0  0  0  0  0  0  0  0  0  0  0
   36.3920   27.1290   32.4040 C   0  0  0  0  0  0  0  0  0  0  0  0
   35.4670   27.9910   31.9210 N   0  0  0  0  0  0  0  0  0  0  0  0
   36.8740   26.0640   31.5580 N   0  0  0  0  0  0  0  0  0  0  0  0
   38.2900   25.9440   31.2010 C   0  0  0  0  0  0  0  0  0  0  0  0
   38.3950   24.6240   30.5200 C   0  0  0  0  0  0  0  0  0  0  0  0
   37.0810   23.9220   30.7730 C   0  0  0  0  0  0  0  0  0  0  0  0
   36.0800   25.0160   30.9680 C   0  0  0  0  0  0  0  0  0  0  0  0
   34.2890   29.6880   32.3710 H   0  0  0  0  0  0  0  0  0  0  0  0
   36.8660   28.2980   35.5060 H   0  0  0  0  0  0  0  0  0  0  0  0
   38.5590   26.8180   30.5550 H   0  0  0  0  0  0  0  0  0  0  0  0
   38.9340   26.0350   32.1000 H   0  0  0  0  0  0  0  0  0  0  0  0
   38.6080   24.7200   29.4350 H   0  0  0  0  0  0  0  0  0  0  0  0
   39.2610   24.0900   30.9690 H   0  0  0  0  0  0  0  0  0  0  0  0
   37.1110   23.3010   31.7020 H   0  0  0  0  0  0  0  0  0  0  0  0
   36.8550   23.3330   29.8620 H   0  0  0  0  0  0  0  0  0  0  0  0
   35.6350   25.3260   30.0100 H   0  0  0  0  0  0  0  0  0  0  0  0
   35.2650   24.6700   31.6410 H   0  0  0  0  0  0  0  0  0  0  0  0
   32.8250   29.4330   34.8500 F   0  0  0  0  0  0  0  0  0  0  0  0
   33.7310   30.3360   35.2980 C   0  0  0  0  0  0  0  0  0  0  0  0
   35.0430   30.2030   34.9210 C   0  0  0  0  0  0  0  0  0  0  0  0
   36.0110   31.1030   35.3520 C   0  0  0  0  0  0  0  0  0  0  0  0
   37.0570   31.0200   35.0690 H   0  0  0  0  0  0  0  0  0  0  0  0
   35.6820   32.1700   36.1840 C   0  0  0  0  0  0  0  0  0  0  0  0
   36.4150   32.8900   36.5390 H   0  0  0  0  0  0  0  0  0  0  0  0
   34.3550   32.2970   36.5600 C   0  0  0  0  0  3  0  0  0  0  0  0
   33.3910   31.4060   36.1330 C   0  0  0  0  0  3  0  0  0  0  0  0
  1  2  1  0  0  0  0
  2  3  2  0  0  0  0
  2 24  1  0  0  0  0
  3 13  1  0  0  0  0
  4  3  1  0  0  0  0
  5  4  2  0  0  0  0
  6  5  1  0  0  0  0
  6  1  2  0  0  0  0
  7  5  1  0  0  0  0
  8  7  1  0  0  0  0
  8 15  1  0  0  0  0
  9 10  1  0  0  0  0
  9 17  1  0  0  0  0
  9  8  1  0  0  0  0
 10 11  1  0  0  0  0
 10 18  1  0  0  0  0
 11  7  1  0  0  0  0
 11 21  1  0  0  0  0
 12  1  1  0  0  0  0
 14  8  1  0  0  0  0
 16  9  1  0  0  0  0
 19 10  1  0  0  0  0
 20 11  1  0  0  0  0
 22 23  1  0  0  0  0
 23 30  1  0  0  0  0
 24 23  2  0  0  0  0
 24 25  1  0  0  0  0
 25 27  2  0  0  0  0
 26 25  1  0  0  0  0
 27 28  1  0  0  0  0
 27 29  1  0  0  0  0
 30 29  2  0  0  0  0
M  END
>  <minimizedAffinity>
-5.14340591

$$$$

 OpenBabel03272510073D

 30 32  0  0  0  0  0  0  0  0999 V2000
   37.5580   25.3780   33.4650 C   0  0  0  0  0  0  0  0  0  0  0  0
   37.9270   26.7440   33.5920 C   0  0  0  0  0  0  0  0  0  0  0  0
   38.9540   27.0770   34.4760 C   0  0  0  0  0  0  0  0  0  0  0  0
   39.5540   26.0710   35.1760 N   0  0  0  0  0  0  0  0  0  0  0  0
   39.1850   24.7890   35.0360 C   0  0  0  0  0  0  0  0  0  0  0  0
   38.1950   24.4160   34.1930 N   0  0  0  0  0  0  0  0  0  0  0  0
   39.8690   23.7820   35.8110 N   0  0  0  0  0  0  0  0  0  0  0  0
   41.3120   23.5610   35.6860 C   0  0  0  0  0  0  0  0  0  0  0  0
   41.6440   22.6160   36.7870 C   0  0  0  0  0  0  0  0  0  0  0  0
   40.4190   22.5610   37.6700 C   0  0  0  0  0  0  0  0  0  0  0  0
   39.2700   22.8890   36.7700 C   0  0  0  0  0  0  0  0  0  0  0  0
   36.7710   25.1070   32.7910 H   0  0  0  0  0  0  0  0  0  0  0  0
   39.2530   28.1070   34.5910 H   0  0  0  0  0  0  0  0  0  0  0  0
   41.5130   23.1620   34.6600 H   0  0  0  0  0  0  0  0  0  0  0  0
   41.8650   24.5220   35.7400 H   0  0  0  0  0  0  0  0  0  0  0  0
   41.9270   21.6100   36.4140 H   0  0  0  0  0  0  0  0  0  0  0  0
   42.5350   23.0230   37.3140 H   0  0  0  0  0  0  0  0  0  0  0  0
   40.4580   23.3240   38.4850 H   0  0  0  0  0  0  0  0  0  0  0  0
   40.3460   21.5210   38.0470 H   0  0  0  0  0  0  0  0  0  0  0  0
   38.8650   21.9830   36.2930 H   0  0  0  0  0  0  0  0  0  0  0  0
   38.4570   23.3750   37.3540 H   0  0  0  0  0  0  0  0  0  0  0  0
   35.8170   28.3340   34.5930 F   0  0  0  0  0  0  0  0  0  0  0  0
   36.2230   28.5380   33.3160 C   0  0  0  0  0  0  0  0  0  0  0  0
   37.2460   27.7740   32.8150 C   0  0  0  0  0  0  0  0  0  0  0  0
   37.6990   27.9420   31.5120 C   0  0  0  0  0  0  0  0  0  0  0  0
   38.5080   27.3510   31.0900 H   0  0  0  0  0  0  0  0  0  0  0  0
   37.1300   28.8940   30.6690 C   0  0  0  0  0  0  0  0  0  0  0  0
   37.4620   29.0500   29.6460 H   0  0  0  0  0  0  0  0  0  0  0  0
   36.0970   29.6610   31.1830 C   0  0  0  0  0  3  0  0  0  0  0  0
   35.6450   29.4960   32.4760 C   0  0  0  0  0  3  0  0  0  0  0  0
  1  2  2  0  0  0  0
  1  6  1  0  0  0  0
  2  3  1  0  0  0  0
  3 13  1  0  0  0  0
  3  4  2  0  0  0  0
  5  4  1  0  0  0  0
  5  7  1  0  0  0  0
  6  5  2  0  0  0  0
  7 11  1  0  0  0  0
  8 15  1  0  0  0  0
  8  7  1  0  0  0  0
  8  9  1  0  0  0  0
  9 17  1  0  0  0  0
  9 10  1  0  0  0  0
 10 19  1  0  0  0  0
 10 18  1  0  0  0  0
 11 21  1  0  0  0  0
 11 10  1  0  0  0  0
 12  1  1  0  0  0  0
 14  8  1  0  0  0  0
 16  9  1  0  0  0  0
 20 11  1  0  0  0  0
 23 22  1  0  0  0  0
 24 23  1  0  0  0  0
 24  2  1  0  0  0  0
 25 24  2  0  0  0  0
 26 25  1  0  0  0  0
 27 29  2  0  0  0  0
 27 25  1  0  0  0  0
 28 27  1  0  0  0  0
 29 30  1  0  0  0  0
 30 23  2  0  0  0  0
M  END
>  <minimizedAffinity>
-5.12020779

$$$$

 OpenBabel03272510073D

 30 32  0  0  0  0  0  0  0  0999 V2000
   37.1600   25.7990   32.3380 C   0  0  0  0  0  0  0  0  0  0  0  0
   36.1240   26.5250   31.6920 C   0  0  0  0  0  0  0  0  0  0  0  0
   35.1210   25.8110   31.0350 C   0  0  0  0  0  0  0  0  0  0  0  0
   35.1850   24.4490   31.0470 N   0  0  0  0  0  0  0  0  0  0  0  0
   36.1770   23.7890   31.6650 C   0  0  0  0  0  0  0  0  0  0  0  0
   37.1720   24.4360   32.3160 N   0  0  0  0  0  0  0  0  0  0  0  0
   36.1750   22.3460   31.6350 N   0  0  0  0  0  0  0  0  0  0  0  0
   35.0700   21.5650   32.1960 C   0  0  0  0  0  0  0  0  0  0  0  0
   35.3470   20.1650   31.7720 C   0  0  0  0  0  0  0  0  0  0  0  0
   36.4510   20.2540   30.7440 C   0  0  0  0  0  0  0  0  0  0  0  0
   37.2030   21.5020   31.0800 C   0  0  0  0  0  0  0  0  0  0  0  0
   37.9380   26.3340   32.8460 H   0  0  0  0  0  0  0  0  0  0  0  0
   34.3230   26.3390   30.5360 H   0  0  0  0  0  0  0  0  0  0  0  0
   35.0660   21.7180   33.3050 H   0  0  0  0  0  0  0  0  0  0  0  0
   34.0920   21.9530   31.8430 H   0  0  0  0  0  0  0  0  0  0  0  0
   35.6290   19.5100   32.6220 H   0  0  0  0  0  0  0  0  0  0  0  0
   34.4020   19.7540   31.3530 H   0  0  0  0  0  0  0  0  0  0  0  0
   36.0480   20.3530   29.7060 H   0  0  0  0  0  0  0  0  0  0  0  0
   37.0870   19.3570   30.8830 H   0  0  0  0  0  0  0  0  0  0  0  0
   38.0070   21.3020   31.8060 H   0  0  0  0  0  0  0  0  0  0  0  0
   37.6560   21.9330   30.1600 H   0  0  0  0  0  0  0  0  0  0  0  0
   36.7870   28.1420   29.4710 F   0  0  0  0  0  0  0  0  0  0  0  0
   36.4360   28.7540   30.6280 C   0  0  0  0  0  0  0  0  0  0  0  0
   36.1110   27.9840   31.7150 C   0  0  0  0  0  0  0  0  0  0  0  0
   35.7450   28.5630   32.9250 C   0  0  0  0  0  0  0  0  0  0  0  0
   35.4830   27.9770   33.8010 H   0  0  0  0  0  0  0  0  0  0  0  0
   35.6950   29.9470   33.0740 C   0  0  0  0  0  0  0  0  0  0  0  0
   35.4120   30.4300   34.0060 H   0  0  0  0  0  0  0  0  0  0  0  0
   36.0240   30.7170   31.9710 C   0  0  0  0  0  3  0  0  0  0  0  0
   36.3880   30.1450   30.7690 C   0  0  0  0  0  3  0  0  0  0  0  0
  1 12  1  0  0  0  0
  2 24  1  0  0  0  0
  2  1  2  0  0  0  0
  3  4  2  0  0  0  0
  3  2  1  0  0  0  0
  4  5  1  0  0  0  0
  5  6  2  0  0  0  0
  6  1  1  0  0  0  0
  7  5  1  0  0  0  0
  7  8  1  0  0  0  0
  8 14  1  0  0  0  0
  9  8  1  0  0  0  0
  9 16  1  0  0  0  0
 10 19  1  0  0  0  0
 10 11  1  0  0  0  0
 10  9  1  0  0  0  0
 11  7  1  0  0  0  0
 11 20  1  0  0  0  0
 13  3  1  0  0  0  0
 15  8  1  0  0  0  0
 17  9  1  0  0  0  0
 18 10  1  0  0  0  0
 21 11  1  0  0  0  0
 22 23  1  0  0  0  0
 23 30  2  0  0  0  0
 23 24  1  0  0  0  0
 24 25  2  0  0  0  0
 25 27  1  0  0  0  0
 25 26  1  0  0  0  0
 27 28  1  0  0  0  0
 29 27  2  0  0  0  0
 30 29  1  0  0  0  0
M  END
>  <minimizedAffinity>
-5.11057901

$$$$
