
 OpenBabel03262523493D

 38 41  0  0  0  0  0  0  0  0999 V2000
   35.5590   32.2850   32.4380 Cl  0  0  0  0  0  0  0  0  0  0  0  0
   35.9850   30.5910   32.5340 C   0  0  0  0  0  0  0  0  0  0  0  0
   35.7100   29.8560   33.6750 C   0  0  0  0  0  0  0  0  0  0  0  0
   36.0720   28.5390   33.6770 C   0  0  0  0  0  0  0  0  0  0  0  0
   36.6840   27.9250   32.6140 C   0  0  0  0  0  0  0  0  0  0  0  0
   36.9480   28.6920   31.4760 C   0  0  0  0  0  0  0  0  0  0  0  0
   37.7260   27.8720   30.1500 Cl  0  0  0  0  0  0  0  0  0  0  0  0
   36.5980   30.0250   31.4380 C   0  0  0  0  0  0  0  0  0  0  0  0
   35.8310   28.0070   34.6060 H   0  0  0  0  0  0  0  0  0  0  0  0
   36.8180   30.5880   30.5360 H   0  0  0  0  0  0  0  0  0  0  0  0
   38.8050   27.1300   34.6240 Cl  0  0  0  0  0  0  0  0  0  0  0  0
   37.9410   25.9680   33.6180 C   0  0  0  0  0  0  0  0  0  0  0  0
   37.0130   26.5050   32.7630 C   0  0  0  0  0  0  0  0  0  0  0  0
   36.2720   25.6650   31.9200 C   0  0  0  0  0  0  0  0  0  0  0  0
   36.4650   24.2930   31.9410 C   0  0  0  0  0  0  0  0  0  0  0  0
   37.4080   23.7930   32.8140 C   0  0  0  0  0  0  0  0  0  0  0  0
   38.1530   24.6050   33.6580 C   0  0  0  0  0  0  0  0  0  0  0  0
   35.5280   26.0400   31.2270 H   0  0  0  0  0  0  0  0  0  0  0  0
   35.9140   23.6240   31.3080 H   0  0  0  0  0  0  0  0  0  0  0  0
   37.6330   22.7380   32.9060 H   0  0  0  0  0  0  0  0  0  0  0  0
   37.4280   23.8710   36.2800 F   0  0  0  0  0  0  0  0  0  0  0  0
   38.7040   23.7670   35.8580 C   0  0  0  0  0  0  0  0  0  0  0  0
   39.1550   24.1030   34.5910 C   0  0  0  0  0  0  0  0  0  0  0  0
   40.4890   23.9580   34.2690 C   0  0  0  0  0  0  0  0  0  0  0  0
   40.8280   24.2210   33.2810 H   0  0  0  0  0  0  0  0  0  0  0  0
   41.4390   23.4830   35.1580 C   0  0  0  0  0  0  0  0  0  0  0  0
   42.4670   23.3650   34.9220 H   0  0  0  0  0  0  0  0  0  0  0  0
   40.9280   23.1610   36.4170 C   0  0  0  0  0  3  0  0  0  0  0  0
   39.6050   23.2890   36.7840 C   0  0  0  0  0  3  0  0  0  0  0  0
   35.1170   32.0070   36.7400 C   0  0  0  0  0  0  0  0  0  0  0  0
   35.7740   31.3430   35.6970 C   0  0  0  0  0  0  0  0  0  0  0  0
   35.0510   30.5700   34.7850 C   0  0  0  0  0  0  0  0  0  0  0  0
   33.7030   30.4980   34.9620 N   0  0  0  0  0  0  0  0  0  0  0  0
   33.1090   31.1550   35.9820 C   0  0  0  0  0  0  0  0  0  0  0  0
   33.7850   31.8890   36.8490 N   0  0  0  0  0  0  0  0  0  0  0  0
   35.7210   32.5830   37.4060 H   0  0  0  0  0  0  0  0  0  0  0  0
   36.8490   31.4000   35.5570 H   0  0  0  0  0  0  0  0  0  0  0  0
   32.0320   31.0160   36.0090 H   0  0  0  0  0  0  0  0  0  0  0  0
  1  2  1  0  0  0  0
  2  3  1  0  0  0  0
  3  4  2  0  0  0  0
  3 32  1  0  0  0  0
  4  9  1  0  0  0  0
  5 13  1  0  0  0  0
  5  4  1  0  0  0  0
  6  5  2  0  0  0  0
  7  6  1  0  0  0  0
  8  6  1  0  0  0  0
  8  2  2  0  0  0  0
 10  8  1  0  0  0  0
 12 17  1  0  0  0  0
 12 11  1  0  0  0  0
 13 12  2  0  0  0  0
 14 15  2  0  0  0  0
 14 13  1  0  0  0  0
 15 16  1  0  0  0  0
 16 20  1  0  0  0  0
 16 17  2  0  0  0  0
 17 23  1  0  0  0  0
 18 14  1  0  0  0  0
 19 15  1  0  0  0  0
 22 21  1  0  0  0  0
 22 29  1  0  0  0  0
 23 22  2  0  0  0  0
 24 23  1  0  0  0  0
 24 26  2  0  0  0  0
 25 24  1  0  0  0  0
 26 28  1  0  0  0  0
 27 26  1  0  0  0  0
 28 29  2  0  0  0  0
 30 35  1  0  0  0  0
 30 36  1  0  0  0  0
 31 30  2  0  0  0  0
 32 33  2  0  0  0  0
 32 31  1  0  0  0  0
 33 34  1  0  0  0  0
 34 38  1  0  0  0  0
 34 35  2  0  0  0  0
 37 31  1  0  0  0  0
M  END
>  <minimizedAffinity>
-6.59253263

$$$$

 OpenBabel03262523493D

 38 41  0  0  0  0  0  0  0  0999 V2000
   35.8630   31.6000   32.1170 Cl  0  0  0  0  0  0  0  0  0  0  0  0
   36.2770   29.9200   32.3800 C   0  0  0  0  0  0  0  0  0  0  0  0
   35.9320   29.2850   33.5620 C   0  0  0  0  0  0  0  0  0  0  0  0
   36.2880   27.9730   33.6960 C   0  0  0  0  0  0  0  0  0  0  0  0
   36.9610   27.2720   32.7270 C   0  0  0  0  0  0  0  0  0  0  0  0
   37.2950   27.9410   31.5460 C   0  0  0  0  0  0  0  0  0  0  0  0
   38.1490   27.0130   30.3440 Cl  0  0  0  0  0  0  0  0  0  0  0  0
   36.9520   29.2650   31.3750 C   0  0  0  0  0  0  0  0  0  0  0  0
   35.9910   27.5210   34.6510 H   0  0  0  0  0  0  0  0  0  0  0  0
   37.2280   29.7510   30.4440 H   0  0  0  0  0  0  0  0  0  0  0  0
   38.8240   26.6470   35.0320 Cl  0  0  0  0  0  0  0  0  0  0  0  0
   38.0950   25.4070   34.0120 C   0  0  0  0  0  0  0  0  0  0  0  0
   37.2760   25.8710   33.0150 C   0  0  0  0  0  0  0  0  0  0  0  0
   36.6470   24.9640   32.1500 C   0  0  0  0  0  0  0  0  0  0  0  0
   36.8430   23.6000   32.2910 C   0  0  0  0  0  0  0  0  0  0  0  0
   37.6740   23.1740   33.3060 C   0  0  0  0  0  0  0  0  0  0  0  0
   38.3060   24.0520   34.1740 C   0  0  0  0  0  0  0  0  0  0  0  0
   35.9910   25.2810   31.3470 H   0  0  0  0  0  0  0  0  0  0  0  0
   36.3760   22.8810   31.6440 H   0  0  0  0  0  0  0  0  0  0  0  0
   37.8910   22.1310   33.4980 H   0  0  0  0  0  0  0  0  0  0  0  0
   41.0540   23.6400   33.7010 F   0  0  0  0  0  0  0  0  0  0  0  0
   40.5250   23.4530   34.9270 C   0  0  0  0  0  0  0  0  0  0  0  0
   39.1900   23.6300   35.2550 C   0  0  0  0  0  0  0  0  0  0  0  0
   38.7570   23.4080   36.5460 C   0  0  0  0  0  0  0  0  0  0  0  0
   37.7180   23.5500   36.7900 H   0  0  0  0  0  0  0  0  0  0  0  0
   39.5980   23.0060   37.5710 C   0  0  0  0  0  0  0  0  0  0  0  0
   39.2790   22.8340   38.5680 H   0  0  0  0  0  0  0  0  0  0  0  0
   40.9290   22.8440   37.1840 C   0  0  0  0  0  3  0  0  0  0  0  0
   41.4080   23.0540   35.9070 C   0  0  0  0  0  3  0  0  0  0  0  0
   35.1670   31.6580   36.4170 C   0  0  0  0  0  0  0  0  0  0  0  0
   35.8820   30.9080   35.4750 C   0  0  0  0  0  0  0  0  0  0  0  0
   35.2100   30.0880   34.5660 C   0  0  0  0  0  0  0  0  0  0  0  0
   33.8510   30.0580   34.6420 N   0  0  0  0  0  0  0  0  0  0  0  0
   33.1990   30.7970   35.5660 C   0  0  0  0  0  0  0  0  0  0  0  0
   33.8270   31.5750   36.4300 N   0  0  0  0  0  0  0  0  0  0  0  0
   35.7330   32.2660   37.0860 H   0  0  0  0  0  0  0  0  0  0  0  0
   36.9660   30.9320   35.4160 H   0  0  0  0  0  0  0  0  0  0  0  0
   32.1200   30.6840   35.5200 H   0  0  0  0  0  0  0  0  0  0  0  0
  1  2  1  0  0  0  0
  2  3  1  0  0  0  0
  3  4  2  0  0  0  0
  3 32  1  0  0  0  0
  4  9  1  0  0  0  0
  5 13  1  0  0  0  0
  5  4  1  0  0  0  0
  6  5  2  0  0  0  0
  7  6  1  0  0  0  0
  8  6  1  0  0  0  0
  8  2  2  0  0  0  0
 10  8  1  0  0  0  0
 12 17  1  0  0  0  0
 12 11  1  0  0  0  0
 13 12  2  0  0  0  0
 14 15  2  0  0  0  0
 14 13  1  0  0  0  0
 15 16  1  0  0  0  0
 16 20  1  0  0  0  0
 16 17  2  0  0  0  0
 17 23  1  0  0  0  0
 18 14  1  0  0  0  0
 19 15  1  0  0  0  0
 21 22  1  0  0  0  0
 22 23  2  0  0  0  0
 22 29  1  0  0  0  0
 23 24  1  0  0  0  0
 24 25  1  0  0  0  0
 24 26  2  0  0  0  0
 26 27  1  0  0  0  0
 28 26  1  0  0  0  0
 29 28  2  0  0  0  0
 30 35  1  0  0  0  0
 30 36  1  0  0  0  0
 31 30  2  0  0  0  0
 32 33  2  0  0  0  0
 32 31  1  0  0  0  0
 33 34  1  0  0  0  0
 34 35  2  0  0  0  0
 37 31  1  0  0  0  0
 38 34  1  0  0  0  0
M  END
>  <minimizedAffinity>
-6.57006121

$$$$

 OpenBabel03262523493D

 38 41  0  0  0  0  0  0  0  0999 V2000
   35.7220   31.4050   31.9030 Cl  0  0  0  0  0  0  0  0  0  0  0  0
   36.2680   29.7700   32.2010 C   0  0  0  0  0  0  0  0  0  0  0  0
   35.9920   29.1410   33.4040 C   0  0  0  0  0  0  0  0  0  0  0  0
   36.4510   27.8650   33.5660 C   0  0  0  0  0  0  0  0  0  0  0  0
   37.1610   27.1920   32.6030 C   0  0  0  0  0  0  0  0  0  0  0  0
   37.4230   27.8530   31.4000 C   0  0  0  0  0  0  0  0  0  0  0  0
   38.3270   26.9610   30.2060 Cl  0  0  0  0  0  0  0  0  0  0  0  0
   36.9770   29.1420   31.2010 C   0  0  0  0  0  0  0  0  0  0  0  0
   36.2040   27.4170   34.5360 H   0  0  0  0  0  0  0  0  0  0  0  0
   37.2000   29.6220   30.2530 H   0  0  0  0  0  0  0  0  0  0  0  0
   35.5830   24.8750   31.4570 Cl  0  0  0  0  0  0  0  0  0  0  0  0
   36.9950   24.6670   32.4940 C   0  0  0  0  0  0  0  0  0  0  0  0
   37.5870   25.8270   32.9210 C   0  0  0  0  0  0  0  0  0  0  0  0
   38.7170   25.7700   33.7500 C   0  0  0  0  0  0  0  0  0  0  0  0
   39.2450   24.5510   34.1420 C   0  0  0  0  0  0  0  0  0  0  0  0
   38.6200   23.4080   33.6910 C   0  0  0  0  0  0  0  0  0  0  0  0
   37.5020   23.4400   32.8710 C   0  0  0  0  0  0  0  0  0  0  0  0
   39.2200   26.6580   34.1150 H   0  0  0  0  0  0  0  0  0  0  0  0
   40.1080   24.4750   34.7760 H   0  0  0  0  0  0  0  0  0  0  0  0
   38.9550   22.4090   33.9410 H   0  0  0  0  0  0  0  0  0  0  0  0
   38.1980   22.3200   30.3800 F   0  0  0  0  0  0  0  0  0  0  0  0
   37.2320   21.7690   31.1430 C   0  0  0  0  0  0  0  0  0  0  0  0
   36.8220   22.2470   32.3780 C   0  0  0  0  0  0  0  0  0  0  0  0
   35.8200   21.6020   33.0730 C   0  0  0  0  0  0  0  0  0  0  0  0
   35.5090   21.9820   34.0320 H   0  0  0  0  0  0  0  0  0  0  0  0
   35.1750   20.4700   32.6020 C   0  0  0  0  0  0  0  0  0  0  0  0
   34.4040   19.9640   33.1280 H   0  0  0  0  0  0  0  0  0  0  0  0
   35.6280   20.0340   31.3560 C   0  0  0  0  0  3  0  0  0  0  0  0
   36.6260   20.6450   30.6250 C   0  0  0  0  0  3  0  0  0  0  0  0
   35.0910   31.5220   36.2130 C   0  0  0  0  0  0  0  0  0  0  0  0
   35.8480   30.8040   35.2790 C   0  0  0  0  0  0  0  0  0  0  0  0
   35.2260   29.9130   34.4000 C   0  0  0  0  0  0  0  0  0  0  0  0
   33.8750   29.7830   34.4990 N   0  0  0  0  0  0  0  0  0  0  0  0
   33.1820   30.4940   35.4150 C   0  0  0  0  0  0  0  0  0  0  0  0
   33.7620   31.3390   36.2510 N   0  0  0  0  0  0  0  0  0  0  0  0
   35.6190   32.1870   36.8590 H   0  0  0  0  0  0  0  0  0  0  0  0
   36.9250   30.9080   35.2010 H   0  0  0  0  0  0  0  0  0  0  0  0
   32.1150   30.2990   35.3900 H   0  0  0  0  0  0  0  0  0  0  0  0
  1  2  1  0  0  0  0
  2  3  1  0  0  0  0
  3  4  2  0  0  0  0
  3 32  1  0  0  0  0
  4  9  1  0  0  0  0
  5 13  1  0  0  0  0
  5  4  1  0  0  0  0
  6  5  2  0  0  0  0
  7  6  1  0  0  0  0
  8  6  1  0  0  0  0
  8  2  2  0  0  0  0
 10  8  1  0  0  0  0
 11 12  1  0  0  0  0
 12 17  2  0  0  0  0
 12 13  1  0  0  0  0
 13 14  2  0  0  0  0
 14 18  1  0  0  0  0
 14 15  1  0  0  0  0
 15 19  1  0  0  0  0
 16 20  1  0  0  0  0
 16 15  2  0  0  0  0
 17 16  1  0  0  0  0
 21 22  1  0  0  0  0
 22 23  1  0  0  0  0
 23 17  1  0  0  0  0
 23 24  2  0  0  0  0
 24 25  1  0  0  0  0
 26 24  1  0  0  0  0
 26 27  1  0  0  0  0
 28 26  2  0  0  0  0
 29 22  2  0  0  0  0
 29 28  1  0  0  0  0
 30 35  1  0  0  0  0
 30 36  1  0  0  0  0
 31 30  2  0  0  0  0
 32 33  2  0  0  0  0
 32 31  1  0  0  0  0
 33 34  1  0  0  0  0
 34 35  2  0  0  0  0
 37 31  1  0  0  0  0
 38 34  1  0  0  0  0
M  END
>  <minimizedAffinity>
-6.44858646

$$$$

 OpenBabel03262523493D

 38 41  0  0  0  0  0  0  0  0999 V2000
   39.6210   21.8610   33.0510 Cl  0  0  0  0  0  0  0  0  0  0  0  0
   38.8790   23.4340   32.8600 C   0  0  0  0  0  0  0  0  0  0  0  0
   37.5290   23.5480   32.5690 C   0  0  0  0  0  0  0  0  0  0  0  0
   37.0200   24.8090   32.4340 C   0  0  0  0  0  0  0  0  0  0  0  0
   37.7770   25.9450   32.5730 C   0  0  0  0  0  0  0  0  0  0  0  0
   39.1350   25.7970   32.8690 C   0  0  0  0  0  0  0  0  0  0  0  0
   40.0560   27.2670   33.0370 Cl  0  0  0  0  0  0  0  0  0  0  0  0
   39.6840   24.5410   33.0110 C   0  0  0  0  0  0  0  0  0  0  0  0
   35.9480   24.8390   32.2020 H   0  0  0  0  0  0  0  0  0  0  0  0
   40.7420   24.4660   33.2410 H   0  0  0  0  0  0  0  0  0  0  0  0
   36.7060   27.3630   35.0260 Cl  0  0  0  0  0  0  0  0  0  0  0  0
   36.5450   28.0020   33.3900 C   0  0  0  0  0  0  0  0  0  0  0  0
   37.0900   27.2280   32.3990 C   0  0  0  0  0  0  0  0  0  0  0  0
   37.0150   27.6480   31.0640 C   0  0  0  0  0  0  0  0  0  0  0  0
   36.3960   28.8430   30.7320 C   0  0  0  0  0  0  0  0  0  0  0  0
   35.8610   29.5920   31.7580 C   0  0  0  0  0  0  0  0  0  0  0  0
   35.9230   29.1960   33.0860 C   0  0  0  0  0  0  0  0  0  0  0  0
   37.4300   27.0720   30.2450 H   0  0  0  0  0  0  0  0  0  0  0  0
   36.3220   29.1910   29.7200 H   0  0  0  0  0  0  0  0  0  0  0  0
   35.3570   30.5380   31.6030 H   0  0  0  0  0  0  0  0  0  0  0  0
   33.1740   29.0540   33.6920 F   0  0  0  0  0  0  0  0  0  0  0  0
   34.0040   29.8340   34.4130 C   0  0  0  0  0  0  0  0  0  0  0  0
   35.3660   29.9690   34.1910 C   0  0  0  0  0  0  0  0  0  0  0  0
   36.1200   30.8010   34.9930 C   0  0  0  0  0  0  0  0  0  0  0  0
   37.1770   30.8970   34.8120 H   0  0  0  0  0  0  0  0  0  0  0  0
   35.5880   31.5340   36.0410 C   0  0  0  0  0  0  0  0  0  0  0  0
   36.1570   32.1760   36.6660 H   0  0  0  0  0  0  0  0  0  0  0  0
   34.2150   31.3600   36.2170 C   0  0  0  0  0  3  0  0  0  0  0  0
   33.4200   30.5400   35.4420 C   0  0  0  0  0  3  0  0  0  0  0  0
   35.7460   20.5510   31.0830 C   0  0  0  0  0  0  0  0  0  0  0  0
   36.4720   21.7450   31.1790 C   0  0  0  0  0  0  0  0  0  0  0  0
   36.7680   22.2930   32.4300 C   0  0  0  0  0  0  0  0  0  0  0  0
   36.3230   21.6190   33.5250 N   0  0  0  0  0  0  0  0  0  0  0  0
   35.6260   20.4700   33.3880 C   0  0  0  0  0  0  0  0  0  0  0  0
   35.3410   19.9440   32.2090 N   0  0  0  0  0  0  0  0  0  0  0  0
   35.5500   20.1800   30.1020 H   0  0  0  0  0  0  0  0  0  0  0  0
   36.8260   22.2820   30.3050 H   0  0  0  0  0  0  0  0  0  0  0  0
   35.3310   20.0330   34.3370 H   0  0  0  0  0  0  0  0  0  0  0  0
  2  8  1  0  0  0  0
  2  1  1  0  0  0  0
  3  2  2  0  0  0  0
  4  3  1  0  0  0  0
  4  5  2  0  0  0  0
  5  6  1  0  0  0  0
  6  8  2  0  0  0  0
  6  7  1  0  0  0  0
  8 10  1  0  0  0  0
  9  4  1  0  0  0  0
 12 11  1  0  0  0  0
 13  5  1  0  0  0  0
 13 12  2  0  0  0  0
 14 13  1  0  0  0  0
 15 14  2  0  0  0  0
 15 16  1  0  0  0  0
 16 17  2  0  0  0  0
 17 12  1  0  0  0  0
 17 23  1  0  0  0  0
 18 14  1  0  0  0  0
 19 15  1  0  0  0  0
 20 16  1  0  0  0  0
 21 22  1  0  0  0  0
 22 29  1  0  0  0  0
 23 22  2  0  0  0  0
 23 24  1  0  0  0  0
 24 26  2  0  0  0  0
 25 24  1  0  0  0  0
 26 28  1  0  0  0  0
 26 27  1  0  0  0  0
 29 28  2  0  0  0  0
 30 31  2  0  0  0  0
 30 35  1  0  0  0  0
 31 32  1  0  0  0  0
 32  3  1  0  0  0  0
 32 33  2  0  0  0  0
 34 33  1  0  0  0  0
 34 38  1  0  0  0  0
 35 34  2  0  0  0  0
 36 30  1  0  0  0  0
 37 31  1  0  0  0  0
M  END
>  <minimizedAffinity>
-6.39567041

$$$$

 OpenBabel03262523493D

 38 41  0  0  0  0  0  0  0  0999 V2000
   36.6470   30.6740   30.9020 Cl  0  0  0  0  0  0  0  0  0  0  0  0
   36.9150   29.0380   31.4640 C   0  0  0  0  0  0  0  0  0  0  0  0
   36.1750   28.5220   32.5150 C   0  0  0  0  0  0  0  0  0  0  0  0
   36.4410   27.2380   32.8990 C   0  0  0  0  0  0  0  0  0  0  0  0
   37.3920   26.4530   32.2960 C   0  0  0  0  0  0  0  0  0  0  0  0
   38.1210   27.0030   31.2380 C   0  0  0  0  0  0  0  0  0  0  0  0
   39.3180   25.9710   30.5040 Cl  0  0  0  0  0  0  0  0  0  0  0  0
   37.8820   28.2950   30.8240 C   0  0  0  0  0  0  0  0  0  0  0  0
   35.8270   26.8820   33.7350 H   0  0  0  0  0  0  0  0  0  0  0  0
   38.4680   28.6870   29.9980 H   0  0  0  0  0  0  0  0  0  0  0  0
   39.2020   26.0370   34.6880 Cl  0  0  0  0  0  0  0  0  0  0  0  0
   38.3400   24.7240   33.8860 C   0  0  0  0  0  0  0  0  0  0  0  0
   37.5630   25.0960   32.8180 C   0  0  0  0  0  0  0  0  0  0  0  0
   36.8370   24.1260   32.1130 C   0  0  0  0  0  0  0  0  0  0  0  0
   36.8930   22.7920   32.4820 C   0  0  0  0  0  0  0  0  0  0  0  0
   37.6850   22.4600   33.5610 C   0  0  0  0  0  0  0  0  0  0  0  0
   38.4130   23.4010   34.2740 C   0  0  0  0  0  0  0  0  0  0  0  0
   36.2100   24.3690   31.2620 H   0  0  0  0  0  0  0  0  0  0  0  0
   36.3490   22.0270   31.9620 H   0  0  0  0  0  0  0  0  0  0  0  0
   37.7960   21.4470   33.9280 H   0  0  0  0  0  0  0  0  0  0  0  0
   37.4220   23.6450   36.9010 F   0  0  0  0  0  0  0  0  0  0  0  0
   38.6830   23.2290   36.6710 C   0  0  0  0  0  0  0  0  0  0  0  0
   39.2580   23.0780   35.4190 C   0  0  0  0  0  0  0  0  0  0  0  0
   40.5620   22.6450   35.3020 C   0  0  0  0  0  0  0  0  0  0  0  0
   40.9980   22.5310   34.3240 H   0  0  0  0  0  0  0  0  0  0  0  0
   41.3630   22.3400   36.3910 C   0  0  0  0  0  0  0  0  0  0  0  0
   42.3670   22.0050   36.3140 H   0  0  0  0  0  0  0  0  0  0  0  0
   40.7330   22.5100   37.6240 C   0  0  0  0  0  3  0  0  0  0  0  0
   39.4330   22.9390   37.7910 C   0  0  0  0  0  3  0  0  0  0  0  0
   34.4720   31.0170   34.8050 C   0  0  0  0  0  0  0  0  0  0  0  0
   35.4520   30.1830   34.2520 C   0  0  0  0  0  0  0  0  0  0  0  0
   35.1680   29.4120   33.1220 C   0  0  0  0  0  0  0  0  0  0  0  0
   33.9150   29.5120   32.5990 N   0  0  0  0  0  0  0  0  0  0  0  0
   33.0000   30.3290   33.1630 C   0  0  0  0  0  0  0  0  0  0  0  0
   33.2600   31.0630   34.2320 N   0  0  0  0  0  0  0  0  0  0  0  0
   34.7460   31.5830   35.6670 H   0  0  0  0  0  0  0  0  0  0  0  0
   36.4500   30.1030   34.6700 H   0  0  0  0  0  0  0  0  0  0  0  0
   32.0430   30.3180   32.6500 H   0  0  0  0  0  0  0  0  0  0  0  0
  1  2  1  0  0  0  0
  2  3  1  0  0  0  0
  3  4  2  0  0  0  0
  3 32  1  0  0  0  0
  4  9  1  0  0  0  0
  5 13  1  0  0  0  0
  5  4  1  0  0  0  0
  6  5  2  0  0  0  0
  7  6  1  0  0  0  0
  8  6  1  0  0  0  0
  8  2  2  0  0  0  0
 10  8  1  0  0  0  0
 12 17  1  0  0  0  0
 12 11  1  0  0  0  0
 13 12  2  0  0  0  0
 14 15  2  0  0  0  0
 14 13  1  0  0  0  0
 15 16  1  0  0  0  0
 16 20  1  0  0  0  0
 16 17  2  0  0  0  0
 17 23  1  0  0  0  0
 18 14  1  0  0  0  0
 19 15  1  0  0  0  0
 22 21  1  0  0  0  0
 22 29  1  0  0  0  0
 23 22  2  0  0  0  0
 24 23  1  0  0  0  0
 24 26  2  0  0  0  0
 25 24  1  0  0  0  0
 26 28  1  0  0  0  0
 27 26  1  0  0  0  0
 28 29  2  0  0  0  0
 30 36  1  0  0  0  0
 31 37  1  0  0  0  0
 31 30  1  0  0  0  0
 32 31  2  0  0  0  0
 33 32  1  0  0  0  0
 33 34  2  0  0  0  0
 34 35  1  0  0  0  0
 35 30  2  0  0  0  0
 38 34  1  0  0  0  0
M  END
>  <minimizedAffinity>
-6.32234383

$$$$

 OpenBabel03262523493D

 38 41  0  0  0  0  0  0  0  0999 V2000
   36.6490   30.2990   30.9170 Cl  0  0  0  0  0  0  0  0  0  0  0  0
   36.9880   28.6770   31.4780 C   0  0  0  0  0  0  0  0  0  0  0  0
   36.3100   28.1490   32.5650 C   0  0  0  0  0  0  0  0  0  0  0  0
   36.6280   26.8760   32.9450 C   0  0  0  0  0  0  0  0  0  0  0  0
   37.5730   26.1130   32.3070 C   0  0  0  0  0  0  0  0  0  0  0  0
   38.2390   26.6730   31.2130 C   0  0  0  0  0  0  0  0  0  0  0  0
   39.4300   25.6690   30.4330 Cl  0  0  0  0  0  0  0  0  0  0  0  0
   37.9450   27.9550   30.8010 C   0  0  0  0  0  0  0  0  0  0  0  0
   36.0620   26.5100   33.8110 H   0  0  0  0  0  0  0  0  0  0  0  0
   38.4830   28.3560   29.9470 H   0  0  0  0  0  0  0  0  0  0  0  0
   35.9580   23.8160   31.1710 Cl  0  0  0  0  0  0  0  0  0  0  0  0
   37.1700   23.6160   32.4370 C   0  0  0  0  0  0  0  0  0  0  0  0
   37.8060   24.7650   32.8300 C   0  0  0  0  0  0  0  0  0  0  0  0
   38.7860   24.7120   33.8310 C   0  0  0  0  0  0  0  0  0  0  0  0
   39.1240   23.5080   34.4290 C   0  0  0  0  0  0  0  0  0  0  0  0
   38.4600   22.3760   34.0050 C   0  0  0  0  0  0  0  0  0  0  0  0
   37.4870   22.4040   33.0170 C   0  0  0  0  0  0  0  0  0  0  0  0
   39.3180   25.5920   34.1770 H   0  0  0  0  0  0  0  0  0  0  0  0
   39.8690   23.4360   35.1970 H   0  0  0  0  0  0  0  0  0  0  0  0
   38.6510   21.3890   34.4080 H   0  0  0  0  0  0  0  0  0  0  0  0
   35.5880   21.1330   34.6670 F   0  0  0  0  0  0  0  0  0  0  0  0
   35.8560   20.6670   33.4310 C   0  0  0  0  0  0  0  0  0  0  0  0
   36.7700   21.2220   32.5490 C   0  0  0  0  0  0  0  0  0  0  0  0
   36.9650   20.6580   31.3050 C   0  0  0  0  0  0  0  0  0  0  0  0
   37.6770   21.0990   30.6280 H   0  0  0  0  0  0  0  0  0  0  0  0
   36.2830   19.5350   30.8640 C   0  0  0  0  0  0  0  0  0  0  0  0
   36.4230   19.0930   29.9100 H   0  0  0  0  0  0  0  0  0  0  0  0
   35.3770   19.0200   31.7920 C   0  0  0  0  0  3  0  0  0  0  0  0
   35.1490   19.5490   33.0450 C   0  0  0  0  0  3  0  0  0  0  0  0
   34.6390   30.6040   34.9200 C   0  0  0  0  0  0  0  0  0  0  0  0
   35.6150   29.7920   34.3300 C   0  0  0  0  0  0  0  0  0  0  0  0
   35.3070   29.0150   33.2110 C   0  0  0  0  0  0  0  0  0  0  0  0
   34.0340   29.0880   32.7350 N   0  0  0  0  0  0  0  0  0  0  0  0
   33.1210   29.8840   33.3340 C   0  0  0  0  0  0  0  0  0  0  0  0
   33.4040   30.6230   34.3930 N   0  0  0  0  0  0  0  0  0  0  0  0
   34.9310   31.1750   35.7730 H   0  0  0  0  0  0  0  0  0  0  0  0
   36.6300   29.7340   34.7110 H   0  0  0  0  0  0  0  0  0  0  0  0
   32.1470   29.8520   32.8560 H   0  0  0  0  0  0  0  0  0  0  0  0
  1  2  1  0  0  0  0
  2  3  1  0  0  0  0
  3  4  2  0  0  0  0
  3 32  1  0  0  0  0
  4  9  1  0  0  0  0
  5 13  1  0  0  0  0
  5  4  1  0  0  0  0
  6  5  2  0  0  0  0
  7  6  1  0  0  0  0
  8  6  1  0  0  0  0
  8  2  2  0  0  0  0
 10  8  1  0  0  0  0
 11 12  1  0  0  0  0
 12 13  2  0  0  0  0
 12 17  1  0  0  0  0
 13 14  1  0  0  0  0
 14 18  1  0  0  0  0
 14 15  2  0  0  0  0
 15 19  1  0  0  0  0
 16 20  1  0  0  0  0
 16 15  1  0  0  0  0
 17 16  2  0  0  0  0
 22 21  1  0  0  0  0
 23 17  1  0  0  0  0
 23 22  2  0  0  0  0
 24 23  1  0  0  0  0
 25 24  1  0  0  0  0
 26 24  2  0  0  0  0
 26 28  1  0  0  0  0
 27 26  1  0  0  0  0
 28 29  2  0  0  0  0
 29 22  1  0  0  0  0
 30 36  1  0  0  0  0
 31 37  1  0  0  0  0
 31 30  2  0  0  0  0
 32 31  1  0  0  0  0
 33 32  2  0  0  0  0
 33 34  1  0  0  0  0
 34 35  2  0  0  0  0
 35 30  1  0  0  0  0
 38 34  1  0  0  0  0
M  END
>  <minimizedAffinity>
-6.30802345

$$$$

 OpenBabel03262523493D

 38 41  0  0  0  0  0  0  0  0999 V2000
   39.7870   23.0570   32.1100 Cl  0  0  0  0  0  0  0  0  0  0  0  0
   38.9310   24.5820   32.1490 C   0  0  0  0  0  0  0  0  0  0  0  0
   39.5460   25.7260   32.6320 C   0  0  0  0  0  0  0  0  0  0  0  0
   38.8150   26.8800   32.6320 C   0  0  0  0  0  0  0  0  0  0  0  0
   37.5210   26.9520   32.1810 C   0  0  0  0  0  0  0  0  0  0  0  0
   36.9280   25.7810   31.6990 C   0  0  0  0  0  0  0  0  0  0  0  0
   35.2850   25.9190   31.1370 Cl  0  0  0  0  0  0  0  0  0  0  0  0
   37.6350   24.5970   31.6850 C   0  0  0  0  0  0  0  0  0  0  0  0
   39.3510   27.7530   33.0250 H   0  0  0  0  0  0  0  0  0  0  0  0
   37.1410   23.7090   31.3030 H   0  0  0  0  0  0  0  0  0  0  0  0
   36.3850   27.8800   34.8300 Cl  0  0  0  0  0  0  0  0  0  0  0  0
   36.2970   28.8360   33.3500 C   0  0  0  0  0  0  0  0  0  0  0  0
   36.8650   28.2600   32.2430 C   0  0  0  0  0  0  0  0  0  0  0  0
   36.8480   28.9400   31.0170 C   0  0  0  0  0  0  0  0  0  0  0  0
   36.2640   30.1910   30.9100 C   0  0  0  0  0  0  0  0  0  0  0  0
   35.7040   30.7350   32.0460 C   0  0  0  0  0  0  0  0  0  0  0  0
   35.7090   30.0820   33.2700 C   0  0  0  0  0  0  0  0  0  0  0  0
   37.2830   28.5270   30.1130 H   0  0  0  0  0  0  0  0  0  0  0  0
   36.2340   30.7360   29.9850 H   0  0  0  0  0  0  0  0  0  0  0  0
   35.2240   31.7060   32.0660 H   0  0  0  0  0  0  0  0  0  0  0  0
   33.0190   29.5640   33.9310 F   0  0  0  0  0  0  0  0  0  0  0  0
   33.7950   30.3240   34.7290 C   0  0  0  0  0  0  0  0  0  0  0  0
   35.1250   30.6340   34.4880 C   0  0  0  0  0  0  0  0  0  0  0  0
   35.8250   31.4250   35.3750 C   0  0  0  0  0  0  0  0  0  0  0  0
   36.8570   31.6590   35.1780 H   0  0  0  0  0  0  0  0  0  0  0  0
   35.2670   31.9490   36.5300 C   0  0  0  0  0  0  0  0  0  0  0  0
   35.7950   32.5570   37.2210 H   0  0  0  0  0  0  0  0  0  0  0  0
   33.9280   31.6050   36.7210 C   0  0  0  0  0  3  0  0  0  0  0  0
   33.1880   30.8170   35.8640 C   0  0  0  0  0  3  0  0  0  0  0  0
   42.5720   25.2430   34.8630 C   0  0  0  0  0  0  0  0  0  0  0  0
   41.2400   25.3690   34.4490 C   0  0  0  0  0  0  0  0  0  0  0  0
   40.9370   25.5880   33.1030 C   0  0  0  0  0  0  0  0  0  0  0  0
   41.9820   25.6690   32.2350 N   0  0  0  0  0  0  0  0  0  0  0  0
   43.2520   25.5420   32.6760 C   0  0  0  0  0  0  0  0  0  0  0  0
   43.5490   25.3350   33.9480 N   0  0  0  0  0  0  0  0  0  0  0  0
   42.7440   25.0770   35.9030 H   0  0  0  0  0  0  0  0  0  0  0  0
   40.4080   25.3050   35.1420 H   0  0  0  0  0  0  0  0  0  0  0  0
   43.9900   25.6260   31.8840 H   0  0  0  0  0  0  0  0  0  0  0  0
  1  2  1  0  0  0  0
  2  3  1  0  0  0  0
  3 32  1  0  0  0  0
  4  3  2  0  0  0  0
  4  9  1  0  0  0  0
  5 13  1  0  0  0  0
  5  4  1  0  0  0  0
  6  5  2  0  0  0  0
  7  6  1  0  0  0  0
  8  6  1  0  0  0  0
  8  2  2  0  0  0  0
 10  8  1  0  0  0  0
 12 11  1  0  0  0  0
 13 12  2  0  0  0  0
 14 13  1  0  0  0  0
 15 14  2  0  0  0  0
 15 16  1  0  0  0  0
 16 20  1  0  0  0  0
 16 17  2  0  0  0  0
 17 12  1  0  0  0  0
 17 23  1  0  0  0  0
 18 14  1  0  0  0  0
 19 15  1  0  0  0  0
 21 22  1  0  0  0  0
 22 29  1  0  0  0  0
 23 22  2  0  0  0  0
 23 24  1  0  0  0  0
 24 26  2  0  0  0  0
 25 24  1  0  0  0  0
 26 28  1  0  0  0  0
 26 27  1  0  0  0  0
 29 28  2  0  0  0  0
 30 36  1  0  0  0  0
 31 30  1  0  0  0  0
 31 37  1  0  0  0  0
 32 31  2  0  0  0  0
 33 34  2  0  0  0  0
 33 32  1  0  0  0  0
 34 35  1  0  0  0  0
 35 30  2  0  0  0  0
 38 34  1  0  0  0  0
M  END
>  <minimizedAffinity>
-6.05660772

$$$$

 OpenBabel03262523493D

 38 41  0  0  0  0  0  0  0  0999 V2000
   38.4870   27.2420   31.2380 Cl  0  0  0  0  0  0  0  0  0  0  0  0
   37.2550   28.0780   32.1580 C   0  0  0  0  0  0  0  0  0  0  0  0
   37.0730   27.8080   33.5050 C   0  0  0  0  0  0  0  0  0  0  0  0
   36.0920   28.4990   34.1570 C   0  0  0  0  0  0  0  0  0  0  0  0
   35.2940   29.4330   33.5450 C   0  0  0  0  0  0  0  0  0  0  0  0
   35.5020   29.6840   32.1860 C   0  0  0  0  0  0  0  0  0  0  0  0
   34.4670   30.8760   31.4500 Cl  0  0  0  0  0  0  0  0  0  0  0  0
   36.4820   29.0050   31.4940 C   0  0  0  0  0  0  0  0  0  0  0  0
   35.9920   28.2450   35.2200 H   0  0  0  0  0  0  0  0  0  0  0  0
   36.6140   29.2270   30.4400 H   0  0  0  0  0  0  0  0  0  0  0  0
   35.9090   32.1750   34.6740 Cl  0  0  0  0  0  0  0  0  0  0  0  0
   34.3910   31.3250   34.9660 C   0  0  0  0  0  0  0  0  0  0  0  0
   34.2840   30.0920   34.3750 C   0  0  0  0  0  0  0  0  0  0  0  0
   33.1160   29.3360   34.5460 C   0  0  0  0  0  0  0  0  0  0  0  0
   32.0630   29.8210   35.3060 C   0  0  0  0  0  0  0  0  0  0  0  0
   32.2110   31.0650   35.8820 C   0  0  0  0  0  0  0  0  0  0  0  0
   33.3570   31.8310   35.7280 C   0  0  0  0  0  0  0  0  0  0  0  0
   32.9820   28.3560   34.1000 H   0  0  0  0  0  0  0  0  0  0  0  0
   31.1570   29.2660   35.4550 H   0  0  0  0  0  0  0  0  0  0  0  0
   31.4480   31.5310   36.4930 H   0  0  0  0  0  0  0  0  0  0  0  0
   32.7440   34.1630   34.2690 F   0  0  0  0  0  0  0  0  0  0  0  0
   33.2110   34.2370   35.5310 C   0  0  0  0  0  0  0  0  0  0  0  0
   33.5400   33.1490   36.3250 C   0  0  0  0  0  0  0  0  0  0  0  0
   34.0120   33.3430   37.6070 C   0  0  0  0  0  0  0  0  0  0  0  0
   34.2630   32.4910   38.2150 H   0  0  0  0  0  0  0  0  0  0  0  0
   34.1850   34.5970   38.1720 C   0  0  0  0  0  0  0  0  0  0  0  0
   34.5460   34.7590   39.1560 H   0  0  0  0  0  0  0  0  0  0  0  0
   33.8390   35.6530   37.3280 C   0  0  0  0  0  3  0  0  0  0  0  0
   33.3630   35.5080   36.0410 C   0  0  0  0  0  3  0  0  0  0  0  0
   39.9930   26.1550   35.2680 C   0  0  0  0  0  0  0  0  0  0  0  0
   39.1740   27.1410   34.7050 C   0  0  0  0  0  0  0  0  0  0  0  0
   37.9600   26.7950   34.1080 C   0  0  0  0  0  0  0  0  0  0  0  0
   37.6220   25.4770   34.1040 N   0  0  0  0  0  0  0  0  0  0  0  0
   38.4410   24.5570   34.6580 C   0  0  0  0  0  0  0  0  0  0  0  0
   39.5920   24.8750   35.2250 N   0  0  0  0  0  0  0  0  0  0  0  0
   40.9090   26.4780   35.7100 H   0  0  0  0  0  0  0  0  0  0  0  0
   39.4450   28.1920   34.7080 H   0  0  0  0  0  0  0  0  0  0  0  0
   38.0550   23.5440   34.5890 H   0  0  0  0  0  0  0  0  0  0  0  0
  1  2  1  0  0  0  0
  2  3  1  0  0  0  0
  3 32  1  0  0  0  0
  3  4  2  0  0  0  0
  4  9  1  0  0  0  0
  5  4  1  0  0  0  0
  5 13  1  0  0  0  0
  6  5  2  0  0  0  0
  7  6  1  0  0  0  0
  8  2  2  0  0  0  0
  8  6  1  0  0  0  0
 10  8  1  0  0  0  0
 11 12  1  0  0  0  0
 12 17  1  0  0  0  0
 13 14  1  0  0  0  0
 13 12  2  0  0  0  0
 14 15  2  0  0  0  0
 15 19  1  0  0  0  0
 15 16  1  0  0  0  0
 16 20  1  0  0  0  0
 17 16  2  0  0  0  0
 17 23  1  0  0  0  0
 18 14  1  0  0  0  0
 21 22  1  0  0  0  0
 22 29  2  0  0  0  0
 22 23  1  0  0  0  0
 23 24  2  0  0  0  0
 24 26  1  0  0  0  0
 24 25  1  0  0  0  0
 26 27  1  0  0  0  0
 28 26  2  0  0  0  0
 29 28  1  0  0  0  0
 30 36  1  0  0  0  0
 31 37  1  0  0  0  0
 31 30  2  0  0  0  0
 32 31  1  0  0  0  0
 33 32  2  0  0  0  0
 33 34  1  0  0  0  0
 34 35  2  0  0  0  0
 35 30  1  0  0  0  0
 38 34  1  0  0  0  0
M  END
>  <minimizedAffinity>
-5.92020845

$$$$

 OpenBabel03262523493D

 38 41  0  0  0  0  0  0  0  0999 V2000
   33.7250   31.4670   32.3280 Cl  0  0  0  0  0  0  0  0  0  0  0  0
   34.8470   30.1870   32.7360 C   0  0  0  0  0  0  0  0  0  0  0  0
   34.7860   29.5610   33.9700 C   0  0  0  0  0  0  0  0  0  0  0  0
   35.6940   28.5710   34.2180 C   0  0  0  0  0  0  0  0  0  0  0  0
   36.6460   28.1780   33.3110 C   0  0  0  0  0  0  0  0  0  0  0  0
   36.6820   28.8290   32.0740 C   0  0  0  0  0  0  0  0  0  0  0  0
   37.9070   28.2980   30.9540 Cl  0  0  0  0  0  0  0  0  0  0  0  0
   35.7820   29.8330   31.7890 C   0  0  0  0  0  0  0  0  0  0  0  0
   35.6000   28.1110   35.2090 H   0  0  0  0  0  0  0  0  0  0  0  0
   35.8410   30.3150   30.8180 H   0  0  0  0  0  0  0  0  0  0  0  0
   36.3000   25.4390   32.0670 Cl  0  0  0  0  0  0  0  0  0  0  0  0
   37.5410   25.8090   33.2650 C   0  0  0  0  0  0  0  0  0  0  0  0
   37.5520   27.1020   33.7190 C   0  0  0  0  0  0  0  0  0  0  0  0
   38.5000   27.4980   34.6730 C   0  0  0  0  0  0  0  0  0  0  0  0
   39.4310   26.5950   35.1630 C   0  0  0  0  0  0  0  0  0  0  0  0
   39.3850   25.3040   34.6800 C   0  0  0  0  0  0  0  0  0  0  0  0
   38.4560   24.8900   33.7360 C   0  0  0  0  0  0  0  0  0  0  0  0
   38.5510   28.5080   35.0650 H   0  0  0  0  0  0  0  0  0  0  0  0
   40.1680   26.8680   35.8930 H   0  0  0  0  0  0  0  0  0  0  0  0
   40.0670   24.5260   34.9990 H   0  0  0  0  0  0  0  0  0  0  0  0
   39.8410   24.1960   31.3830 F   0  0  0  0  0  0  0  0  0  0  0  0
   39.1000   23.2850   32.0450 C   0  0  0  0  0  0  0  0  0  0  0  0
   38.3860   23.5320   33.2080 C   0  0  0  0  0  0  0  0  0  0  0  0
   37.6580   22.5220   33.8020 C   0  0  0  0  0  0  0  0  0  0  0  0
   37.1070   22.7250   34.7050 H   0  0  0  0  0  0  0  0  0  0  0  0
   37.5920   21.2340   33.2970 C   0  0  0  0  0  0  0  0  0  0  0  0
   37.0370   20.4480   33.7450 H   0  0  0  0  0  0  0  0  0  0  0  0
   38.3300   21.0430   32.1280 C   0  0  0  0  0  3  0  0  0  0  0  0
   39.0710   22.0210   31.4980 C   0  0  0  0  0  3  0  0  0  0  0  0
   32.9600   31.4800   36.6810 C   0  0  0  0  0  0  0  0  0  0  0  0
   33.9720   31.0640   35.8080 C   0  0  0  0  0  0  0  0  0  0  0  0
   33.7420   30.0250   34.9030 C   0  0  0  0  0  0  0  0  0  0  0  0
   32.5080   29.4510   34.9160 N   0  0  0  0  0  0  0  0  0  0  0  0
   31.5590   29.8820   35.7750 C   0  0  0  0  0  0  0  0  0  0  0  0
   31.7680   30.8650   36.6340 N   0  0  0  0  0  0  0  0  0  0  0  0
   33.1920   32.2790   37.3500 H   0  0  0  0  0  0  0  0  0  0  0  0
   34.9560   31.5220   35.7990 H   0  0  0  0  0  0  0  0  0  0  0  0
   30.6220   29.3430   35.6820 H   0  0  0  0  0  0  0  0  0  0  0  0
  1  2  1  0  0  0  0
  2  3  1  0  0  0  0
  3  4  2  0  0  0  0
  3 32  1  0  0  0  0
  4  9  1  0  0  0  0
  5 13  1  0  0  0  0
  5  4  1  0  0  0  0
  6  5  2  0  0  0  0
  7  6  1  0  0  0  0
  8  6  1  0  0  0  0
  8  2  2  0  0  0  0
 10  8  1  0  0  0  0
 11 12  1  0  0  0  0
 12 13  2  0  0  0  0
 12 17  1  0  0  0  0
 13 14  1  0  0  0  0
 14 18  1  0  0  0  0
 14 15  2  0  0  0  0
 15 19  1  0  0  0  0
 16 20  1  0  0  0  0
 16 15  1  0  0  0  0
 17 16  2  0  0  0  0
 21 22  1  0  0  0  0
 22 23  1  0  0  0  0
 23 17  1  0  0  0  0
 23 24  2  0  0  0  0
 24 25  1  0  0  0  0
 26 27  1  0  0  0  0
 26 24  1  0  0  0  0
 28 26  2  0  0  0  0
 29 22  2  0  0  0  0
 29 28  1  0  0  0  0
 30 36  1  0  0  0  0
 31 30  2  0  0  0  0
 32 33  2  0  0  0  0
 32 31  1  0  0  0  0
 33 34  1  0  0  0  0
 34 35  2  0  0  0  0
 35 30  1  0  0  0  0
 37 31  1  0  0  0  0
 38 34  1  0  0  0  0
M  END
>  <minimizedAffinity>
-5.6601038

$$$$
