
 OpenBabel03272508313D

 32 34  0  0  1  0  0  0  0  0999 V2000
   40.7420   24.8980   34.4580 N   0  0  0  0  0  0  0  0  0  0  0  0
   41.8810   24.3140   33.7630 C   0  0  0  0  0  0  0  0  0  0  0  0
   43.0230   25.2470   33.6290 C   0  0  0  0  0  0  0  0  0  0  0  0
   42.9190   26.3360   34.5430 N   0  0  0  0  0  0  0  0  0  0  0  0
   41.7380   27.1100   34.1530 C   0  0  0  0  0  0  0  0  0  0  0  0
   40.5900   26.3200   34.7050 C   0  0  1  0  0  0  0  0  0  0  0  0
   41.5120   24.0820   32.7310 H   0  0  0  0  0  0  0  0  0  0  0  0
   42.0990   23.3410   34.2380 H   0  0  0  0  0  0  0  0  0  0  0  0
   43.2000   25.5930   32.5740 H   0  0  0  0  0  0  0  0  0  0  0  0
   43.9590   24.6870   33.8970 H   0  0  0  0  0  0  0  0  0  0  0  0
   43.7600   26.9590   34.5390 H   0  0  0  0  0  0  0  0  0  0  0  0
   41.7510   28.1220   34.5880 H   0  0  0  0  0  0  0  0  0  0  0  0
   41.7100   27.1620   33.0480 H   0  0  0  0  0  0  0  0  0  0  0  0
   40.6550   26.4100   35.8260 H   0  0  0  0  0  0  0  0  0  0  0  0
   39.4600   23.8560   36.2960 C   0  0  0  0  0  0  0  0  0  0  0  0
   39.7000   24.0440   34.9340 C   0  0  0  0  0  0  0  0  0  0  0  0
   38.8820   23.3630   34.0260 C   0  0  0  0  0  0  0  0  0  0  0  0
   37.8900   22.5510   34.5290 N   0  0  0  0  0  0  0  0  0  0  0  0
   37.7100   22.4130   35.8650 C   0  0  0  0  0  0  0  0  0  0  0  0
   38.4860   23.0580   36.7620 N   0  0  0  0  0  0  0  0  0  0  0  0
   40.0880   24.3780   37.0060 H   0  0  0  0  0  0  0  0  0  0  0  0
   39.0160   23.4660   32.9570 H   0  0  0  0  0  0  0  0  0  0  0  0
   36.9080   21.7540   36.1570 H   0  0  0  0  0  0  0  0  0  0  0  0
   38.6330   27.1280   36.5530 F   0  0  0  0  0  0  0  0  0  0  0  0
   38.2810   27.2450   35.2320 C   0  0  0  0  0  0  0  0  0  0  0  0
   39.2590   26.8420   34.3360 C   0  0  0  0  0  0  0  0  0  0  0  0
   38.9530   26.9400   32.9780 C   0  0  0  0  0  0  0  0  0  0  0  0
   39.6390   26.6550   32.1690 H   0  0  0  0  0  0  0  0  0  0  0  0
   37.7380   27.4160   32.5500 C   0  0  0  0  0  0  0  0  0  0  0  0
   37.4300   27.5210   31.5160 H   0  0  0  0  0  0  0  0  0  0  0  0
   36.7950   27.8060   33.4860 C   0  0  0  0  0  3  0  0  0  0  0  0
   37.0610   27.7230   34.8350 C   0  0  0  0  0  3  0  0  0  0  0  0
  1  6  1  0  0  0  0
  1 16  1  0  0  0  0
  2  8  1  0  0  0  0
  2  1  1  0  0  0  0
  3  2  1  0  0  0  0
  3 10  1  0  0  0  0
  3  4  1  0  0  0  0
  5  4  1  0  0  0  0
  5 12  1  0  0  0  0
  5  6  1  0  0  0  0
  6 14  1  1  0  0  0
  7  2  1  0  0  0  0
  9  3  1  0  0  0  0
 11  4  1  0  0  0  0
 13  5  1  0  0  0  0
 15 20  1  0  0  0  0
 15 21  1  0  0  0  0
 16 15  2  0  0  0  0
 17 18  2  0  0  0  0
 17 16  1  0  0  0  0
 18 19  1  0  0  0  0
 19 23  1  0  0  0  0
 19 20  2  0  0  0  0
 22 17  1  0  0  0  0
 25 24  1  0  0  0  0
 26  6  1  0  0  0  0
 26 25  2  0  0  0  0
 27 26  1  0  0  0  0
 28 27  1  0  0  0  0
 29 27  2  0  0  0  0
 29 31  1  0  0  0  0
 30 29  1  0  0  0  0
 31 32  2  0  0  0  0
 32 25  1  0  0  0  0
M  END
>  <minimizedAffinity>
-4.97562981

$$$$

 OpenBabel03272508313D

 32 34  0  0  1  0  0  0  0  0999 V2000
   36.8980   24.6310   31.8890 N   0  0  0  0  0  0  0  0  0  0  0  0
   35.5660   24.2060   31.4800 C   0  0  0  0  0  0  0  0  0  0  0  0
   34.8100   25.2610   30.7680 C   0  0  0  0  0  0  0  0  0  0  0  0
   35.6740   26.2890   30.2880 N   0  0  0  0  0  0  0  0  0  0  0  0
   36.2480   26.9490   31.4630 C   0  0  0  0  0  0  0  0  0  0  0  0
   37.3330   26.0150   31.9070 C   0  0  1  0  0  0  0  0  0  0  0  0
   35.0200   23.9840   32.4320 H   0  0  0  0  0  0  0  0  0  0  0  0
   35.6710   23.2410   30.9530 H   0  0  0  0  0  0  0  0  0  0  0  0
   33.9470   25.6730   31.3590 H   0  0  0  0  0  0  0  0  0  0  0  0
   34.3300   24.7950   29.8670 H   0  0  0  0  0  0  0  0  0  0  0  0
   35.1800   27.0000   29.6970 H   0  0  0  0  0  0  0  0  0  0  0  0
   36.6710   27.9350   31.2130 H   0  0  0  0  0  0  0  0  0  0  0  0
   35.4520   27.0490   32.2250 H   0  0  0  0  0  0  0  0  0  0  0  0
   38.1310   26.0590   31.1130 H   0  0  0  0  0  0  0  0  0  0  0  0
   37.7090   22.9340   33.4930 C   0  0  0  0  0  0  0  0  0  0  0  0
   37.8500   23.6470   32.3020 C   0  0  0  0  0  0  0  0  0  0  0  0
   38.9660   23.3750   31.5040 C   0  0  0  0  0  0  0  0  0  0  0  0
   39.8570   22.4200   31.9400 N   0  0  0  0  0  0  0  0  0  0  0  0
   39.6620   21.7630   33.1090 C   0  0  0  0  0  0  0  0  0  0  0  0
   38.5930   22.0080   33.8960 N   0  0  0  0  0  0  0  0  0  0  0  0
   36.8500   23.1390   34.1170 H   0  0  0  0  0  0  0  0  0  0  0  0
   39.1330   23.8930   30.5680 H   0  0  0  0  0  0  0  0  0  0  0  0
   40.4160   21.0350   33.3610 H   0  0  0  0  0  0  0  0  0  0  0  0
   40.0950   26.4580   32.1780 F   0  0  0  0  0  0  0  0  0  0  0  0
   39.3550   26.6300   33.3210 C   0  0  0  0  0  0  0  0  0  0  0  0
   37.9950   26.4070   33.1670 C   0  0  0  0  0  0  0  0  0  0  0  0
   37.1960   26.5680   34.2990 C   0  0  0  0  0  0  0  0  0  0  0  0
   36.1080   26.4220   34.3110 H   0  0  0  0  0  0  0  0  0  0  0  0
   37.7320   26.9310   35.5090 C   0  0  0  0  0  0  0  0  0  0  0  0
   37.1770   27.0740   36.4290 H   0  0  0  0  0  0  0  0  0  0  0  0
   39.0980   27.1420   35.6100 C   0  0  0  0  0  3  0  0  0  0  0  0
   39.9190   26.9920   34.5140 C   0  0  0  0  0  3  0  0  0  0  0  0
  1  6  1  0  0  0  0
  1 16  1  0  0  0  0
  2  1  1  0  0  0  0
  2  7  1  0  0  0  0
  3  9  1  0  0  0  0
  3  2  1  0  0  0  0
  4  3  1  0  0  0  0
  4  5  1  0  0  0  0
  5  6  1  0  0  0  0
  5 13  1  0  0  0  0
  6 14  1  6  0  0  0
  6 26  1  0  0  0  0
  8  2  1  0  0  0  0
 10  3  1  0  0  0  0
 11  4  1  0  0  0  0
 12  5  1  0  0  0  0
 15 20  1  0  0  0  0
 15 21  1  0  0  0  0
 16 15  2  0  0  0  0
 17 18  2  0  0  0  0
 17 16  1  0  0  0  0
 18 19  1  0  0  0  0
 19 23  1  0  0  0  0
 19 20  2  0  0  0  0
 22 17  1  0  0  0  0
 24 25  1  0  0  0  0
 25 32  1  0  0  0  0
 26 25  2  0  0  0  0
 26 27  1  0  0  0  0
 27 28  1  0  0  0  0
 27 29  2  0  0  0  0
 29 31  1  0  0  0  0
 29 30  1  0  0  0  0
 32 31  2  0  0  0  0
M  END
>  <minimizedAffinity>
-4.90381336

$$$$

 OpenBabel03272508313D

 32 34  0  0  1  0  0  0  0  0999 V2000
   40.1390   22.2850   35.3250 N   0  0  0  0  0  0  0  0  0  0  0  0
   41.3300   21.4550   35.4490 C   0  0  0  0  0  0  0  0  0  0  0  0
   41.7750   21.2800   36.8510 C   0  0  0  0  0  0  0  0  0  0  0  0
   40.7360   21.6040   37.7730 N   0  0  0  0  0  0  0  0  0  0  0  0
   40.4680   23.0370   37.6280 C   0  0  0  0  0  0  0  0  0  0  0  0
   39.6250   23.1230   36.3920 C   0  0  1  0  0  0  0  0  0  0  0  0
   42.1370   22.0120   34.9070 H   0  0  0  0  0  0  0  0  0  0  0  0
   41.1530   20.5300   34.8740 H   0  0  0  0  0  0  0  0  0  0  0  0
   42.7360   21.8120   37.0880 H   0  0  0  0  0  0  0  0  0  0  0  0
   42.0150   20.1930   37.0040 H   0  0  0  0  0  0  0  0  0  0  0  0
   40.9890   21.3970   38.7680 H   0  0  0  0  0  0  0  0  0  0  0  0
   39.9200   23.4400   38.4950 H   0  0  0  0  0  0  0  0  0  0  0  0
   41.4370   23.5580   37.5040 H   0  0  0  0  0  0  0  0  0  0  0  0
   38.6340   22.6540   36.6530 H   0  0  0  0  0  0  0  0  0  0  0  0
   40.0260   22.6230   32.8790 C   0  0  0  0  0  0  0  0  0  0  0  0
   39.4180   22.2930   34.0910 C   0  0  0  0  0  0  0  0  0  0  0  0
   38.0580   21.9630   34.0720 C   0  0  0  0  0  0  0  0  0  0  0  0
   37.4030   21.9830   32.8610 N   0  0  0  0  0  0  0  0  0  0  0  0
   38.0530   22.3130   31.7200 C   0  0  0  0  0  0  0  0  0  0  0  0
   39.3640   22.6360   31.7120 N   0  0  0  0  0  0  0  0  0  0  0  0
   41.0770   22.8800   32.8840 H   0  0  0  0  0  0  0  0  0  0  0  0
   37.5280   21.6970   34.9780 H   0  0  0  0  0  0  0  0  0  0  0  0
   37.4520   22.3000   30.8250 H   0  0  0  0  0  0  0  0  0  0  0  0
   37.1450   24.3890   36.7760 F   0  0  0  0  0  0  0  0  0  0  0  0
   38.1000   25.1430   36.1410 C   0  0  0  0  0  0  0  0  0  0  0  0
   39.3160   24.5010   35.9610 C   0  0  0  0  0  0  0  0  0  0  0  0
   40.3240   25.2230   35.3200 C   0  0  0  0  0  0  0  0  0  0  0  0
   41.3290   24.8310   35.1170 H   0  0  0  0  0  0  0  0  0  0  0  0
   40.1190   26.5100   34.8880 C   0  0  0  0  0  0  0  0  0  0  0  0
   40.8510   27.1300   34.3840 H   0  0  0  0  0  0  0  0  0  0  0  0
   38.8850   27.1060   35.0920 C   0  0  0  0  0  3  0  0  0  0  0  0
   37.8660   26.4250   35.7210 C   0  0  0  0  0  3  0  0  0  0  0  0
  1  2  1  0  0  0  0
  1  6  1  0  0  0  0
  2  3  1  0  0  0  0
  3 10  1  0  0  0  0
  3  9  1  0  0  0  0
  3  4  1  0  0  0  0
  4 11  1  0  0  0  0
  5  4  1  0  0  0  0
  5 12  1  0  0  0  0
  6 14  1  1  0  0  0
  6  5  1  0  0  0  0
  7  2  1  0  0  0  0
  8  2  1  0  0  0  0
 13  5  1  0  0  0  0
 15 21  1  0  0  0  0
 15 16  1  0  0  0  0
 16  1  1  0  0  0  0
 17 16  2  0  0  0  0
 17 22  1  0  0  0  0
 18 17  1  0  0  0  0
 19 18  2  0  0  0  0
 20 19  1  0  0  0  0
 20 15  2  0  0  0  0
 23 19  1  0  0  0  0
 25 24  1  0  0  0  0
 26 25  1  0  0  0  0
 26  6  1  0  0  0  0
 27 26  2  0  0  0  0
 28 27  1  0  0  0  0
 29 31  2  0  0  0  0
 29 27  1  0  0  0  0
 30 29  1  0  0  0  0
 31 32  1  0  0  0  0
 32 25  2  0  0  0  0
M  END
>  <minimizedAffinity>
-4.73223448

$$$$

 OpenBabel03272508313D

 32 34  0  0  1  0  0  0  0  0999 V2000
   38.2380   22.6670   34.2720 N   0  0  0  0  0  0  0  0  0  0  0  0
   37.1890   21.6750   34.0780 C   0  0  0  0  0  0  0  0  0  0  0  0
   36.5630   21.7420   32.7380 C   0  0  0  0  0  0  0  0  0  0  0  0
   37.3790   22.4620   31.8160 N   0  0  0  0  0  0  0  0  0  0  0  0
   37.4370   23.8480   32.2870 C   0  0  0  0  0  0  0  0  0  0  0  0
   38.4390   23.8090   33.4010 C   0  0  1  0  0  0  0  0  0  0  0  0
   36.4000   21.9270   34.8320 H   0  0  0  0  0  0  0  0  0  0  0  0
   37.5980   20.6940   34.3770 H   0  0  0  0  0  0  0  0  0  0  0  0
   35.5050   22.1200   32.7540 H   0  0  0  0  0  0  0  0  0  0  0  0
   36.4770   20.6940   32.3440 H   0  0  0  0  0  0  0  0  0  0  0  0
   37.0090   22.4430   30.8360 H   0  0  0  0  0  0  0  0  0  0  0  0
   37.7710   24.5360   31.4940 H   0  0  0  0  0  0  0  0  0  0  0  0
   36.4290   24.1310   32.6480 H   0  0  0  0  0  0  0  0  0  0  0  0
   39.4380   23.6110   32.9190 H   0  0  0  0  0  0  0  0  0  0  0  0
   38.7570   22.8540   36.6810 C   0  0  0  0  0  0  0  0  0  0  0  0
   39.1340   22.5300   35.3780 C   0  0  0  0  0  0  0  0  0  0  0  0
   40.4350   22.0600   35.1710 C   0  0  0  0  0  0  0  0  0  0  0  0
   41.2640   21.9440   36.2650 N   0  0  0  0  0  0  0  0  0  0  0  0
   40.8350   22.2770   37.5060 C   0  0  0  0  0  0  0  0  0  0  0  0
   39.5840   22.7340   37.7310 N   0  0  0  0  0  0  0  0  0  0  0  0
   37.7530   23.2200   36.8510 H   0  0  0  0  0  0  0  0  0  0  0  0
   40.7890   21.7910   34.1840 H   0  0  0  0  0  0  0  0  0  0  0  0
   41.5590   22.1510   38.2940 H   0  0  0  0  0  0  0  0  0  0  0  0
   40.8990   25.0750   33.8930 F   0  0  0  0  0  0  0  0  0  0  0  0
   39.7930   25.7250   34.3810 C   0  0  0  0  0  0  0  0  0  0  0  0
   38.5900   25.0850   34.1280 C   0  0  0  0  0  0  0  0  0  0  0  0
   37.4320   25.7030   34.6030 C   0  0  0  0  0  0  0  0  0  0  0  0
   36.4200   25.3010   34.4690 H   0  0  0  0  0  0  0  0  0  0  0  0
   37.4850   26.8910   35.2890 C   0  0  0  0  0  0  0  0  0  0  0  0
   36.6320   27.4280   35.6870 H   0  0  0  0  0  0  0  0  0  0  0  0
   38.7130   27.4900   35.5160 C   0  0  0  0  0  3  0  0  0  0  0  0
   39.8770   26.9100   35.0630 C   0  0  0  0  0  3  0  0  0  0  0  0
  1 16  1  0  0  0  0
  2  1  1  0  0  0  0
  2  8  1  0  0  0  0
  2  7  1  0  0  0  0
  3  9  1  0  0  0  0
  3  2  1  0  0  0  0
  4  5  1  0  0  0  0
  4  3  1  0  0  0  0
  5 13  1  0  0  0  0
  5  6  1  0  0  0  0
  6 14  1  6  0  0  0
  6 26  1  0  0  0  0
  6  1  1  0  0  0  0
 10  3  1  0  0  0  0
 11  4  1  0  0  0  0
 12  5  1  0  0  0  0
 15 21  1  0  0  0  0
 15 20  1  0  0  0  0
 16 15  2  0  0  0  0
 17 16  1  0  0  0  0
 17 18  2  0  0  0  0
 18 19  1  0  0  0  0
 19 20  2  0  0  0  0
 19 23  1  0  0  0  0
 22 17  1  0  0  0  0
 24 25  1  0  0  0  0
 25 32  1  0  0  0  0
 26 25  2  0  0  0  0
 26 27  1  0  0  0  0
 27 29  2  0  0  0  0
 28 27  1  0  0  0  0
 29 31  1  0  0  0  0
 29 30  1  0  0  0  0
 32 31  2  0  0  0  0
M  END
>  <minimizedAffinity>
-4.70935249

$$$$

 OpenBabel03272508313D

 32 34  0  0  1  0  0  0  0  0999 V2000
   38.2990   23.9910   33.5100 N   0  0  0  0  0  0  0  0  0  0  0  0
   38.4670   23.9730   32.0630 C   0  0  0  0  0  0  0  0  0  0  0  0
   38.0090   22.7100   31.4390 C   0  0  0  0  0  0  0  0  0  0  0  0
   37.1480   21.9790   32.3100 N   0  0  0  0  0  0  0  0  0  0  0  0
   37.9530   21.5710   33.4640 C   0  0  0  0  0  0  0  0  0  0  0  0
   38.0300   22.8090   34.3060 C   0  0  1  0  0  0  0  0  0  0  0  0
   39.5710   24.0520   31.8920 H   0  0  0  0  0  0  0  0  0  0  0  0
   38.0250   24.9020   31.6640 H   0  0  0  0  0  0  0  0  0  0  0  0
   38.8460   22.0770   31.0380 H   0  0  0  0  0  0  0  0  0  0  0  0
   37.4020   22.9740   30.5320 H   0  0  0  0  0  0  0  0  0  0  0  0
   36.7310   21.1300   31.8600 H   0  0  0  0  0  0  0  0  0  0  0  0
   37.4770   20.7530   34.0270 H   0  0  0  0  0  0  0  0  0  0  0  0
   38.9500   21.2610   33.0950 H   0  0  0  0  0  0  0  0  0  0  0  0
   36.9910   22.9820   34.7070 H   0  0  0  0  0  0  0  0  0  0  0  0
   37.2750   25.9460   34.6230 C   0  0  0  0  0  0  0  0  0  0  0  0
   38.4010   25.2340   34.2100 C   0  0  0  0  0  0  0  0  0  0  0  0
   39.6590   25.7720   34.5020 C   0  0  0  0  0  0  0  0  0  0  0  0
   39.7100   26.9700   35.1780 N   0  0  0  0  0  0  0  0  0  0  0  0
   38.5770   27.6120   35.5510 C   0  0  0  0  0  0  0  0  0  0  0  0
   37.3520   27.1140   35.2810 N   0  0  0  0  0  0  0  0  0  0  0  0
   36.2980   25.5380   34.4010 H   0  0  0  0  0  0  0  0  0  0  0  0
   40.5710   25.2680   34.2100 H   0  0  0  0  0  0  0  0  0  0  0  0
   38.7240   28.5430   36.0750 H   0  0  0  0  0  0  0  0  0  0  0  0
   37.2700   23.5110   36.9190 F   0  0  0  0  0  0  0  0  0  0  0  0
   38.5470   23.0260   36.7870 C   0  0  0  0  0  0  0  0  0  0  0  0
   38.9030   22.6850   35.4910 C   0  0  0  0  0  0  0  0  0  0  0  0
   40.1920   22.1870   35.2980 C   0  0  0  0  0  0  0  0  0  0  0  0
   40.5960   21.8810   34.3240 H   0  0  0  0  0  0  0  0  0  0  0  0
   41.0670   22.0410   36.3460 C   0  0  0  0  0  0  0  0  0  0  0  0
   42.0800   21.6620   36.2750 H   0  0  0  0  0  0  0  0  0  0  0  0
   40.6620   22.3960   37.6230 C   0  0  0  0  0  3  0  0  0  0  0  0
   39.3980   22.8920   37.8510 C   0  0  0  0  0  3  0  0  0  0  0  0
  1 16  1  0  0  0  0
  1  6  1  0  0  0  0
  2  1  1  0  0  0  0
  3  2  1  0  0  0  0
  3  4  1  0  0  0  0
  4  5  1  0  0  0  0
  5 12  1  0  0  0  0
  5  6  1  0  0  0  0
  6 14  1  1  0  0  0
  6 26  1  0  0  0  0
  7  2  1  0  0  0  0
  8  2  1  0  0  0  0
  9  3  1  0  0  0  0
 10  3  1  0  0  0  0
 11  4  1  0  0  0  0
 13  5  1  0  0  0  0
 15 20  1  0  0  0  0
 16 17  1  0  0  0  0
 16 15  2  0  0  0  0
 17 18  2  0  0  0  0
 18 19  1  0  0  0  0
 19 23  1  0  0  0  0
 20 19  2  0  0  0  0
 21 15  1  0  0  0  0
 22 17  1  0  0  0  0
 25 24  1  0  0  0  0
 25 32  1  0  0  0  0
 26 25  2  0  0  0  0
 27 26  1  0  0  0  0
 27 29  2  0  0  0  0
 28 27  1  0  0  0  0
 29 31  1  0  0  0  0
 30 29  1  0  0  0  0
 31 32  2  0  0  0  0
M  END
>  <minimizedAffinity>
-4.62161827

$$$$

 OpenBabel03272508313D

 32 34  0  0  1  0  0  0  0  0999 V2000
   38.3420   22.4960   34.6430 N   0  0  0  0  0  0  0  0  0  0  0  0
   37.2030   21.6810   34.2470 C   0  0  0  0  0  0  0  0  0  0  0  0
   37.3070   21.1640   32.8640 C   0  0  0  0  0  0  0  0  0  0  0  0
   38.6480   21.2290   32.3810 N   0  0  0  0  0  0  0  0  0  0  0  0
   39.0020   22.6480   32.2930 C   0  0  0  0  0  0  0  0  0  0  0  0
   39.3160   23.0300   33.7080 C   0  0  1  0  0  0  0  0  0  0  0  0
   36.3190   22.3680   34.2840 H   0  0  0  0  0  0  0  0  0  0  0  0
   37.0410   20.9280   35.0380 H   0  0  0  0  0  0  0  0  0  0  0  0
   36.5760   21.6340   32.1510 H   0  0  0  0  0  0  0  0  0  0  0  0
   37.0210   20.0780   32.8780 H   0  0  0  0  0  0  0  0  0  0  0  0
   38.7700   20.7820   31.4420 H   0  0  0  0  0  0  0  0  0  0  0  0
   39.8810   22.8110   31.6490 H   0  0  0  0  0  0  0  0  0  0  0  0
   38.1250   23.1980   31.9020 H   0  0  0  0  0  0  0  0  0  0  0  0
   40.2710   22.4950   33.9750 H   0  0  0  0  0  0  0  0  0  0  0  0
   39.6960   22.4370   36.7100 C   0  0  0  0  0  0  0  0  0  0  0  0
   38.5370   22.8040   36.0250 C   0  0  0  0  0  0  0  0  0  0  0  0
   37.5480   23.4940   36.7350 C   0  0  0  0  0  0  0  0  0  0  0  0
   37.7770   23.7690   38.0650 N   0  0  0  0  0  0  0  0  0  0  0  0
   38.9260   23.3840   38.6710 C   0  0  0  0  0  0  0  0  0  0  0  0
   39.8950   22.7170   38.0080 N   0  0  0  0  0  0  0  0  0  0  0  0
   40.4660   21.9030   36.1700 H   0  0  0  0  0  0  0  0  0  0  0  0
   36.6260   23.8070   36.2620 H   0  0  0  0  0  0  0  0  0  0  0  0
   39.0090   23.6470   39.7130 H   0  0  0  0  0  0  0  0  0  0  0  0
   37.4010   25.0670   33.4260 F   0  0  0  0  0  0  0  0  0  0  0  0
   38.6620   25.4870   33.7680 C   0  0  0  0  0  0  0  0  0  0  0  0
   39.5920   24.4680   33.9030 C   0  0  0  0  0  0  0  0  0  0  0  0
   40.8920   24.8380   34.2510 C   0  0  0  0  0  0  0  0  0  0  0  0
   41.7190   24.1300   34.3890 H   0  0  0  0  0  0  0  0  0  0  0  0
   41.2310   26.1530   34.4510 C   0  0  0  0  0  0  0  0  0  0  0  0
   42.2160   26.5170   34.7210 H   0  0  0  0  0  0  0  0  0  0  0  0
   40.2640   27.1340   34.3040 C   0  0  0  0  0  3  0  0  0  0  0  0
   38.9710   26.8060   33.9610 C   0  0  0  0  0  3  0  0  0  0  0  0
  1 16  1  0  0  0  0
  2  7  1  0  0  0  0
  2  1  1  0  0  0  0
  2  8  1  0  0  0  0
  3 10  1  0  0  0  0
  3  2  1  0  0  0  0
  4  3  1  0  0  0  0
  5  4  1  0  0  0  0
  5  6  1  0  0  0  0
  6 26  1  0  0  0  0
  6 14  1  1  0  0  0
  6  1  1  0  0  0  0
  9  3  1  0  0  0  0
 11  4  1  0  0  0  0
 12  5  1  0  0  0  0
 13  5  1  0  0  0  0
 15 20  1  0  0  0  0
 16 15  2  0  0  0  0
 16 17  1  0  0  0  0
 17 18  2  0  0  0  0
 18 19  1  0  0  0  0
 19 23  1  0  0  0  0
 20 19  2  0  0  0  0
 21 15  1  0  0  0  0
 22 17  1  0  0  0  0
 24 25  1  0  0  0  0
 25 26  2  0  0  0  0
 25 32  1  0  0  0  0
 26 27  1  0  0  0  0
 27 28  1  0  0  0  0
 27 29  2  0  0  0  0
 29 30  1  0  0  0  0
 31 29  1  0  0  0  0
 32 31  2  0  0  0  0
M  END
>  <minimizedAffinity>
-4.5987215

$$$$

 OpenBabel03272508313D

 32 34  0  0  1  0  0  0  0  0999 V2000
   40.5040   23.7950   35.4170 N   0  0  0  0  0  0  0  0  0  0  0  0
   41.3080   23.2190   36.4860 C   0  0  0  0  0  0  0  0  0  0  0  0
   40.5370   22.3260   37.3800 C   0  0  0  0  0  0  0  0  0  0  0  0
   39.3140   21.9100   36.7750 N   0  0  0  0  0  0  0  0  0  0  0  0
   38.4870   23.1090   36.6160 C   0  0  0  0  0  0  0  0  0  0  0  0
   39.0530   23.7800   35.4020 C   0  0  1  0  0  0  0  0  0  0  0  0
   41.6560   24.0900   37.0980 H   0  0  0  0  0  0  0  0  0  0  0  0
   42.2130   22.7850   36.0250 H   0  0  0  0  0  0  0  0  0  0  0  0
   40.3800   22.7460   38.4100 H   0  0  0  0  0  0  0  0  0  0  0  0
   41.1450   21.3970   37.5500 H   0  0  0  0  0  0  0  0  0  0  0  0
   38.7930   21.2010   37.3440 H   0  0  0  0  0  0  0  0  0  0  0  0
   37.4260   22.8560   36.4550 H   0  0  0  0  0  0  0  0  0  0  0  0
   38.6040   23.7310   37.5240 H   0  0  0  0  0  0  0  0  0  0  0  0
   38.7970   23.1170   34.5270 H   0  0  0  0  0  0  0  0  0  0  0  0
   41.9290   25.5710   34.4560 C   0  0  0  0  0  0  0  0  0  0  0  0
   41.1560   24.4190   34.3080 C   0  0  0  0  0  0  0  0  0  0  0  0
   41.0290   23.8760   33.0250 C   0  0  0  0  0  0  0  0  0  0  0  0
   41.6750   24.5090   31.9870 N   0  0  0  0  0  0  0  0  0  0  0  0
   42.4120   25.6270   32.1990 C   0  0  0  0  0  0  0  0  0  0  0  0
   42.5480   26.1700   33.4270 N   0  0  0  0  0  0  0  0  0  0  0  0
   42.0320   25.9990   35.4450 H   0  0  0  0  0  0  0  0  0  0  0  0
   40.4450   22.9840   32.8440 H   0  0  0  0  0  0  0  0  0  0  0  0
   42.8760   26.0470   31.3220 H   0  0  0  0  0  0  0  0  0  0  0  0
   37.6110   24.3660   33.0610 F   0  0  0  0  0  0  0  0  0  0  0  0
   37.7400   25.4030   33.9500 C   0  0  0  0  0  0  0  0  0  0  0  0
   38.4530   25.0950   35.0980 C   0  0  0  0  0  0  0  0  0  0  0  0
   38.6140   26.1150   36.0370 C   0  0  0  0  0  0  0  0  0  0  0  0
   39.1560   26.0000   36.9850 H   0  0  0  0  0  0  0  0  0  0  0  0
   38.0880   27.3660   35.8320 C   0  0  0  0  0  0  0  0  0  0  0  0
   38.1720   28.2050   36.5130 H   0  0  0  0  0  0  0  0  0  0  0  0
   37.3830   27.6230   34.6680 C   0  0  0  0  0  3  0  0  0  0  0  0
   37.2040   26.6420   33.7180 C   0  0  0  0  0  3  0  0  0  0  0  0
  1  2  1  0  0  0  0
  2  7  1  0  0  0  0
  2  3  1  0  0  0  0
  3 10  1  0  0  0  0
  3  9  1  0  0  0  0
  4 11  1  0  0  0  0
  4  3  1  0  0  0  0
  5  4  1  0  0  0  0
  5 13  1  0  0  0  0
  6 14  1  6  0  0  0
  6  1  1  0  0  0  0
  6  5  1  0  0  0  0
  8  2  1  0  0  0  0
 12  5  1  0  0  0  0
 15 21  1  0  0  0  0
 16 15  1  0  0  0  0
 16  1  1  0  0  0  0
 17 16  2  0  0  0  0
 18 19  2  0  0  0  0
 18 17  1  0  0  0  0
 19 20  1  0  0  0  0
 20 15  2  0  0  0  0
 22 17  1  0  0  0  0
 23 19  1  0  0  0  0
 24 25  1  0  0  0  0
 25 26  1  0  0  0  0
 26  6  1  0  0  0  0
 26 27  2  0  0  0  0
 27 28  1  0  0  0  0
 29 27  1  0  0  0  0
 29 30  1  0  0  0  0
 31 29  2  0  0  0  0
 32 25  2  0  0  0  0
 32 31  1  0  0  0  0
M  END
>  <minimizedAffinity>
-4.58423567

$$$$

 OpenBabel03272508313D

 32 34  0  0  1  0  0  0  0  0999 V2000
   40.1400   22.3320   35.2610 N   0  0  0  0  0  0  0  0  0  0  0  0
   41.3270   21.5190   35.4830 C   0  0  0  0  0  0  0  0  0  0  0  0
   41.6660   21.3600   36.9150 C   0  0  0  0  0  0  0  0  0  0  0  0
   40.5570   21.6790   37.7530 N   0  0  0  0  0  0  0  0  0  0  0  0
   40.2830   23.1070   37.5750 C   0  0  0  0  0  0  0  0  0  0  0  0
   39.5350   23.1730   36.2780 C   0  0  1  0  0  0  0  0  0  0  0  0
   42.1660   22.0810   34.9980 H   0  0  0  0  0  0  0  0  0  0  0  0
   41.2060   20.5870   34.9040 H   0  0  0  0  0  0  0  0  0  0  0  0
   42.6000   21.9060   37.2210 H   0  0  0  0  0  0  0  0  0  0  0  0
   41.9070   20.2780   37.0960 H   0  0  0  0  0  0  0  0  0  0  0  0
   40.7360   21.4830   38.7660 H   0  0  0  0  0  0  0  0  0  0  0  0
   39.6660   23.5110   38.3940 H   0  0  0  0  0  0  0  0  0  0  0  0
   41.2520   23.6390   37.5200 H   0  0  0  0  0  0  0  0  0  0  0  0
   38.5340   22.6930   36.4670 H   0  0  0  0  0  0  0  0  0  0  0  0
   38.1980   21.8940   33.7960 C   0  0  0  0  0  0  0  0  0  0  0  0
   39.5140   22.3210   33.9750 C   0  0  0  0  0  0  0  0  0  0  0  0
   40.2240   22.7470   32.8470 C   0  0  0  0  0  0  0  0  0  0  0  0
   39.5820   22.7190   31.6290 N   0  0  0  0  0  0  0  0  0  0  0  0
   38.3000   22.2920   31.5240 C   0  0  0  0  0  0  0  0  0  0  0  0
   37.5950   21.8760   32.5970 N   0  0  0  0  0  0  0  0  0  0  0  0
   37.6420   21.5620   34.6620 H   0  0  0  0  0  0  0  0  0  0  0  0
   41.2470   23.0900   32.9190 H   0  0  0  0  0  0  0  0  0  0  0  0
   37.8880   22.3090   30.5270 H   0  0  0  0  0  0  0  0  0  0  0  0
   41.4580   24.9360   35.2320 F   0  0  0  0  0  0  0  0  0  0  0  0
   40.1780   25.4280   35.2940 C   0  0  0  0  0  0  0  0  0  0  0  0
   39.2440   24.5430   35.8120 C   0  0  0  0  0  0  0  0  0  0  0  0
   37.9260   24.9920   35.8980 C   0  0  0  0  0  0  0  0  0  0  0  0
   37.0940   24.3910   36.2880 H   0  0  0  0  0  0  0  0  0  0  0  0
   37.5710   26.2530   35.4850 C   0  0  0  0  0  0  0  0  0  0  0  0
   36.5710   26.6710   35.5210 H   0  0  0  0  0  0  0  0  0  0  0  0
   38.5420   27.0980   34.9740 C   0  0  0  0  0  3  0  0  0  0  0  0
   39.8540   26.6900   34.8750 C   0  0  0  0  0  3  0  0  0  0  0  0
  1  2  1  0  0  0  0
  1  6  1  0  0  0  0
  2  3  1  0  0  0  0
  3 10  1  0  0  0  0
  3  9  1  0  0  0  0
  3  4  1  0  0  0  0
  4 11  1  0  0  0  0
  5  4  1  0  0  0  0
  5 12  1  0  0  0  0
  6 14  1  1  0  0  0
  6  5  1  0  0  0  0
  7  2  1  0  0  0  0
  8  2  1  0  0  0  0
 13  5  1  0  0  0  0
 15 16  1  0  0  0  0
 15 21  1  0  0  0  0
 16  1  1  0  0  0  0
 17 22  1  0  0  0  0
 17 16  2  0  0  0  0
 18 17  1  0  0  0  0
 19 18  2  0  0  0  0
 19 20  1  0  0  0  0
 20 15  2  0  0  0  0
 23 19  1  0  0  0  0
 24 25  1  0  0  0  0
 25 26  1  0  0  0  0
 26 27  2  0  0  0  0
 26  6  1  0  0  0  0
 27 28  1  0  0  0  0
 29 30  1  0  0  0  0
 29 27  1  0  0  0  0
 31 29  2  0  0  0  0
 32 31  1  0  0  0  0
 32 25  2  0  0  0  0
M  END
>  <minimizedAffinity>
-4.55117846

$$$$

 OpenBabel03272508313D

 32 34  0  0  1  0  0  0  0  0999 V2000
   38.8800   24.8300   33.4380 N   0  0  0  0  0  0  0  0  0  0  0  0
   38.1940   25.7970   32.5930 C   0  0  0  0  0  0  0  0  0  0  0  0
   38.7060   27.1770   32.7510 C   0  0  0  0  0  0  0  0  0  0  0  0
   39.9930   27.1900   33.3650 N   0  0  0  0  0  0  0  0  0  0  0  0
   39.8210   26.6820   34.7280 C   0  0  0  0  0  0  0  0  0  0  0  0
   39.7360   25.1960   34.5520 C   0  0  1  0  0  0  0  0  0  0  0  0
   37.1290   25.7910   32.9390 H   0  0  0  0  0  0  0  0  0  0  0  0
   38.1860   25.3940   31.5650 H   0  0  0  0  0  0  0  0  0  0  0  0
   37.9840   27.8700   33.2620 H   0  0  0  0  0  0  0  0  0  0  0  0
   38.8330   27.6180   31.7260 H   0  0  0  0  0  0  0  0  0  0  0  0
   40.4230   28.1450   33.4020 H   0  0  0  0  0  0  0  0  0  0  0  0
   40.6750   26.9430   35.3740 H   0  0  0  0  0  0  0  0  0  0  0  0
   38.8820   27.1030   35.1370 H   0  0  0  0  0  0  0  0  0  0  0  0
   40.7610   24.8580   34.2290 H   0  0  0  0  0  0  0  0  0  0  0  0
   39.7740   22.6350   32.7380 C   0  0  0  0  0  0  0  0  0  0  0  0
   38.7180   23.4340   33.1790 C   0  0  0  0  0  0  0  0  0  0  0  0
   37.4720   22.8270   33.3650 C   0  0  0  0  0  0  0  0  0  0  0  0
   37.3610   21.4790   33.1040 N   0  0  0  0  0  0  0  0  0  0  0  0
   38.4270   20.7600   32.6770 C   0  0  0  0  0  0  0  0  0  0  0  0
   39.6400   21.3230   32.4890 N   0  0  0  0  0  0  0  0  0  0  0  0
   40.7410   23.0960   32.5900 H   0  0  0  0  0  0  0  0  0  0  0  0
   36.6130   23.3910   33.7060 H   0  0  0  0  0  0  0  0  0  0  0  0
   38.2370   19.7140   32.5000 H   0  0  0  0  0  0  0  0  0  0  0  0
   41.3620   23.1640   35.6130 F   0  0  0  0  0  0  0  0  0  0  0  0
   40.2270   23.4470   36.3310 C   0  0  0  0  0  0  0  0  0  0  0  0
   39.4380   24.4520   35.7920 C   0  0  0  0  0  0  0  0  0  0  0  0
   38.2710   24.7800   36.4830 C   0  0  0  0  0  0  0  0  0  0  0  0
   37.5630   25.5560   36.1630 H   0  0  0  0  0  0  0  0  0  0  0  0
   37.9220   24.1370   37.6440 C   0  0  0  0  0  0  0  0  0  0  0  0
   37.0340   24.3360   38.2330 H   0  0  0  0  0  0  0  0  0  0  0  0
   38.7440   23.1390   38.1420 C   0  0  0  0  0  3  0  0  0  0  0  0
   39.9040   22.7870   37.4870 C   0  0  0  0  0  3  0  0  0  0  0  0
  1  6  1  0  0  0  0
  2  3  1  0  0  0  0
  2  7  1  0  0  0  0
  2  1  1  0  0  0  0
  3  9  1  0  0  0  0
  3  4  1  0  0  0  0
  4 11  1  0  0  0  0
  4  5  1  0  0  0  0
  5 13  1  0  0  0  0
  5 12  1  0  0  0  0
  6 14  1  6  0  0  0
  6  5  1  0  0  0  0
  6 26  1  0  0  0  0
  8  2  1  0  0  0  0
 10  3  1  0  0  0  0
 15 16  1  0  0  0  0
 16 17  2  0  0  0  0
 16  1  1  0  0  0  0
 17 22  1  0  0  0  0
 18 17  1  0  0  0  0
 19 18  2  0  0  0  0
 20 19  1  0  0  0  0
 20 15  2  0  0  0  0
 21 15  1  0  0  0  0
 23 19  1  0  0  0  0
 24 25  1  0  0  0  0
 25 32  1  0  0  0  0
 26 25  2  0  0  0  0
 26 27  1  0  0  0  0
 27 29  2  0  0  0  0
 28 27  1  0  0  0  0
 29 31  1  0  0  0  0
 29 30  1  0  0  0  0
 32 31  2  0  0  0  0
M  END
>  <minimizedAffinity>
-4.38135338

$$$$
