
 OpenBabel03272505563D

 34 36  0  0  1  0  0  0  0  0999 V2000
   37.7760   26.3720   33.2900 C   0  0  2  0  0  0  0  0  0  0  0  0
   38.5110   25.2960   34.0500 C   0  0  0  0  0  0  0  0  0  0  0  0
   38.1590   25.2780   35.5070 C   0  0  2  0  0  0  0  0  0  0  0  0
   38.2950   26.5880   36.2090 C   0  0  0  0  0  0  0  0  0  0  0  0
   37.8820   27.7720   35.3540 C   0  0  0  0  0  0  0  0  0  0  0  0
   37.0650   27.3420   34.1580 C   0  0  0  0  0  0  0  0  0  0  0  0
   38.5360   26.8480   32.6220 H   0  0  0  0  0  0  0  0  0  0  0  0
   39.6030   25.4230   33.9850 H   0  0  0  0  0  0  0  0  0  0  0  0
   38.3080   24.2640   33.6720 H   0  0  0  0  0  0  0  0  0  0  0  0
   37.1210   24.8530   35.6120 H   0  0  0  0  0  0  0  0  0  0  0  0
   39.3020   26.7800   36.5850 H   0  0  0  0  0  0  0  0  0  0  0  0
   37.5940   26.5710   37.0850 H   0  0  0  0  0  0  0  0  0  0  0  0
   38.7960   28.3100   35.0050 H   0  0  0  0  0  0  0  0  0  0  0  0
   37.3080   28.4930   35.9370 H   0  0  0  0  0  0  0  0  0  0  0  0
   36.8990   28.2750   33.5550 H   0  0  0  0  0  0  0  0  0  0  0  0
   36.1110   26.9450   34.5130 H   0  0  0  0  0  0  0  0  0  0  0  0
   36.7810   25.7570   32.3690 C   0  0  0  0  0  0  0  0  0  0  0  0
   36.8540   24.3580   32.2320 C   0  0  0  0  0  0  0  0  0  0  0  0
   35.9290   23.7700   31.3460 C   0  0  0  0  0  0  0  0  0  0  0  0
   35.0260   24.5690   30.6740 N   0  0  0  0  0  0  0  0  0  0  0  0
   35.0050   25.9240   30.8490 C   0  0  0  0  0  0  0  0  0  0  0  0
   35.8820   26.4880   31.6920 N   0  0  0  0  0  0  0  0  0  0  0  0
   37.5350   23.7010   32.7310 H   0  0  0  0  0  0  0  0  0  0  0  0
   35.8880   22.7050   31.1580 H   0  0  0  0  0  0  0  0  0  0  0  0
   34.2640   26.4380   30.2790 H   0  0  0  0  0  0  0  0  0  0  0  0
   37.5480   24.0840   37.8970 F   0  0  0  0  0  0  0  0  0  0  0  0
   38.7540   23.7250   37.3470 C   0  0  0  0  0  0  0  0  0  0  0  0
   39.0980   24.3150   36.1370 C   0  0  0  0  0  0  0  0  0  0  0  0
   40.3210   23.8900   35.6710 C   0  0  0  0  0  0  0  0  0  0  0  0
   40.6730   24.2890   34.7320 H   0  0  0  0  0  0  0  0  0  0  0  0
   41.1020   22.9790   36.3470 C   0  0  0  0  0  0  0  0  0  0  0  0
   42.0660   22.7010   35.8940 H   0  0  0  0  0  0  0  0  0  0  0  0
   40.6890   22.4370   37.5470 C   0  0  0  0  0  3  0  0  0  0  0  0
   39.4720   22.8140   38.0780 C   0  0  0  0  0  3  0  0  0  0  0  0
  1  7  1  6  0  0  0
  1  2  1  0  0  0  0
  1  6  1  0  0  0  0
  2  3  1  0  0  0  0
  3 10  1  1  0  0  0
  3 28  1  0  0  0  0
  3  4  1  0  0  0  0
  4 11  1  0  0  0  0
  4 12  1  0  0  0  0
  5 14  1  0  0  0  0
  5  4  1  0  0  0  0
  6 16  1  0  0  0  0
  6  5  1  0  0  0  0
  8  2  1  0  0  0  0
  9  2  1  0  0  0  0
 13  5  1  0  0  0  0
 15  6  1  0  0  0  0
 17  1  1  0  0  0  0
 18 17  1  0  0  0  0
 18 23  1  0  0  0  0
 19 18  2  0  0  0  0
 20 21  2  0  0  0  0
 20 19  1  0  0  0  0
 21 22  1  0  0  0  0
 22 17  2  0  0  0  0
 24 19  1  0  0  0  0
 25 21  1  0  0  0  0
 27 26  1  0  0  0  0
 27 34  1  0  0  0  0
 28 27  2  0  0  0  0
 29 28  1  0  0  0  0
 29 31  2  0  0  0  0
 30 29  1  0  0  0  0
 31 33  1  0  0  0  0
 32 31  1  0  0  0  0
 33 34  2  0  0  0  0
M  END
>  <minimizedAffinity>
-5.72288275

$$$$

 OpenBabel03272505563D

 34 36  0  0  1  0  0  0  0  0999 V2000
   38.5370   25.3940   32.6670 C   0  0  2  0  0  0  0  0  0  0  0  0
   38.4360   24.7100   34.0080 C   0  0  0  0  0  0  0  0  0  0  0  0
   38.5340   25.6710   35.1540 C   0  0  2  0  0  0  0  0  0  0  0  0
   39.7220   26.5730   35.1250 C   0  0  0  0  0  0  0  0  0  0  0  0
   40.0910   27.0360   33.7270 C   0  0  0  0  0  0  0  0  0  0  0  0
   38.9620   26.8130   32.7470 C   0  0  0  0  0  0  0  0  0  0  0  0
   39.2220   24.7600   32.0510 H   0  0  0  0  0  0  0  0  0  0  0  0
   39.2340   23.9630   34.1470 H   0  0  0  0  0  0  0  0  0  0  0  0
   37.4780   24.1540   34.1550 H   0  0  0  0  0  0  0  0  0  0  0  0
   37.5700   26.2510   35.2090 H   0  0  0  0  0  0  0  0  0  0  0  0
   40.6140   26.1380   35.5800 H   0  0  0  0  0  0  0  0  0  0  0  0
   39.4530   27.4970   35.7020 H   0  0  0  0  0  0  0  0  0  0  0  0
   40.9960   26.4800   33.3830 H   0  0  0  0  0  0  0  0  0  0  0  0
   40.3620   28.0920   33.7240 H   0  0  0  0  0  0  0  0  0  0  0  0
   39.3750   27.0980   31.7420 H   0  0  0  0  0  0  0  0  0  0  0  0
   38.1330   27.4700   33.0170 H   0  0  0  0  0  0  0  0  0  0  0  0
   37.2240   25.3410   31.9680 C   0  0  0  0  0  0  0  0  0  0  0  0
   36.6530   26.5850   31.6410 C   0  0  0  0  0  0  0  0  0  0  0  0
   35.3990   26.5450   30.9970 C   0  0  0  0  0  0  0  0  0  0  0  0
   34.8100   25.3270   30.7290 N   0  0  0  0  0  0  0  0  0  0  0  0
   35.4150   24.1510   31.0720 C   0  0  0  0  0  0  0  0  0  0  0  0
   36.6080   24.1830   31.6830 N   0  0  0  0  0  0  0  0  0  0  0  0
   37.0730   27.5510   31.8280 H   0  0  0  0  0  0  0  0  0  0  0  0
   34.8630   27.4360   30.6970 H   0  0  0  0  0  0  0  0  0  0  0  0
   34.8670   23.2720   30.8150 H   0  0  0  0  0  0  0  0  0  0  0  0
   40.3530   23.6300   35.3320 F   0  0  0  0  0  0  0  0  0  0  0  0
   39.5550   23.8100   36.4360 C   0  0  0  0  0  0  0  0  0  0  0  0
   38.6180   24.8330   36.3780 C   0  0  0  0  0  0  0  0  0  0  0  0
   37.8700   24.9310   37.5290 C   0  0  0  0  0  0  0  0  0  0  0  0
   37.1180   25.7040   37.5810 H   0  0  0  0  0  0  0  0  0  0  0  0
   38.0490   24.0950   38.6080 C   0  0  0  0  0  0  0  0  0  0  0  0
   37.4010   24.2520   39.4850 H   0  0  0  0  0  0  0  0  0  0  0  0
   39.0040   23.1000   38.5880 C   0  0  0  0  0  3  0  0  0  0  0  0
   39.7930   22.9390   37.4680 C   0  0  0  0  0  3  0  0  0  0  0  0
  1  7  1  6  0  0  0
  1  6  1  0  0  0  0
  1  2  1  0  0  0  0
  2  8  1  0  0  0  0
  2  9  1  0  0  0  0
  2  3  1  0  0  0  0
  3 10  1  1  0  0  0
  3 28  1  0  0  0  0
  4  3  1  0  0  0  0
  4 11  1  0  0  0  0
  4 12  1  0  0  0  0
  5  4  1  0  0  0  0
  6 16  1  0  0  0  0
  6  5  1  0  0  0  0
 13  5  1  0  0  0  0
 14  5  1  0  0  0  0
 15  6  1  0  0  0  0
 17  1  1  0  0  0  0
 18 23  1  0  0  0  0
 18 17  2  0  0  0  0
 19 18  1  0  0  0  0
 20 19  2  0  0  0  0
 20 21  1  0  0  0  0
 21 22  2  0  0  0  0
 22 17  1  0  0  0  0
 24 19  1  0  0  0  0
 25 21  1  0  0  0  0
 26 27  1  0  0  0  0
 27 34  1  0  0  0  0
 28 27  2  0  0  0  0
 28 29  1  0  0  0  0
 29 30  1  0  0  0  0
 29 31  2  0  0  0  0
 31 32  1  0  0  0  0
 33 31  1  0  0  0  0
 34 33  2  0  0  0  0
M  END
>  <minimizedAffinity>
-5.47035265

$$$$

 OpenBabel03272505563D

 34 36  0  0  1  0  0  0  0  0999 V2000
   36.6800   28.6730   32.5960 C   0  0  2  0  0  0  0  0  0  0  0  0
   35.8700   29.0900   33.7990 C   0  0  0  0  0  0  0  0  0  0  0  0
   34.7580   30.0310   33.4470 C   0  0  2  0  0  0  0  0  0  0  0  0
   35.1670   31.2320   32.6620 C   0  0  0  0  0  0  0  0  0  0  0  0
   36.2520   30.9390   31.6400 C   0  0  0  0  0  0  0  0  0  0  0  0
   36.3840   29.4590   31.3720 C   0  0  0  0  0  0  0  0  0  0  0  0
   37.7510   28.7310   32.9120 H   0  0  0  0  0  0  0  0  0  0  0  0
   36.4920   29.5970   34.5540 H   0  0  0  0  0  0  0  0  0  0  0  0
   35.3910   28.2340   34.3330 H   0  0  0  0  0  0  0  0  0  0  0  0
   33.9530   29.4420   32.9230 H   0  0  0  0  0  0  0  0  0  0  0  0
   35.5050   32.0650   33.2800 H   0  0  0  0  0  0  0  0  0  0  0  0
   34.2690   31.5720   32.0810 H   0  0  0  0  0  0  0  0  0  0  0  0
   37.2250   31.3380   32.0130 H   0  0  0  0  0  0  0  0  0  0  0  0
   36.0510   31.4550   30.7000 H   0  0  0  0  0  0  0  0  0  0  0  0
   37.2660   29.3550   30.6850 H   0  0  0  0  0  0  0  0  0  0  0  0
   35.4750   29.1110   30.8770 H   0  0  0  0  0  0  0  0  0  0  0  0
   36.4400   27.2350   32.2940 C   0  0  0  0  0  0  0  0  0  0  0  0
   37.2560   26.3190   32.9830 C   0  0  0  0  0  0  0  0  0  0  0  0
   37.0510   24.9560   32.6870 C   0  0  0  0  0  0  0  0  0  0  0  0
   36.0910   24.5970   31.7630 N   0  0  0  0  0  0  0  0  0  0  0  0
   35.3290   25.5350   31.1250 C   0  0  0  0  0  0  0  0  0  0  0  0
   35.5190   26.8330   31.4040 N   0  0  0  0  0  0  0  0  0  0  0  0
   38.0110   26.5510   33.7050 H   0  0  0  0  0  0  0  0  0  0  0  0
   37.6170   24.1600   33.1520 H   0  0  0  0  0  0  0  0  0  0  0  0
   34.6190   25.1420   30.4320 H   0  0  0  0  0  0  0  0  0  0  0  0
   36.2220   31.6370   35.1160 F   0  0  0  0  0  0  0  0  0  0  0  0
   34.9640   31.3110   35.5610 C   0  0  0  0  0  0  0  0  0  0  0  0
   34.1950   30.4940   34.7420 C   0  0  0  0  0  0  0  0  0  0  0  0
   32.9560   30.2250   35.2760 C   0  0  0  0  0  0  0  0  0  0  0  0
   32.2830   29.6020   34.7080 H   0  0  0  0  0  0  0  0  0  0  0  0
   32.5430   30.7240   36.4910 C   0  0  0  0  0  0  0  0  0  0  0  0
   31.5330   30.4530   36.8350 H   0  0  0  0  0  0  0  0  0  0  0  0
   33.3670   31.5320   37.2480 C   0  0  0  0  0  3  0  0  0  0  0  0
   34.6270   31.8450   36.7780 C   0  0  0  0  0  3  0  0  0  0  0  0
  1  7  1  1  0  0  0
  1  2  1  0  0  0  0
  2  9  1  0  0  0  0
  2  8  1  0  0  0  0
  3 10  1  6  0  0  0
  3  2  1  0  0  0  0
  3 28  1  0  0  0  0
  4 11  1  0  0  0  0
  4  3  1  0  0  0  0
  5 13  1  0  0  0  0
  5  4  1  0  0  0  0
  6  5  1  0  0  0  0
  6  1  1  0  0  0  0
 12  4  1  0  0  0  0
 14  5  1  0  0  0  0
 15  6  1  0  0  0  0
 16  6  1  0  0  0  0
 17  1  1  0  0  0  0
 17 18  1  0  0  0  0
 18 23  1  0  0  0  0
 19 18  2  0  0  0  0
 19 24  1  0  0  0  0
 20 19  1  0  0  0  0
 21 22  1  0  0  0  0
 21 20  2  0  0  0  0
 22 17  2  0  0  0  0
 25 21  1  0  0  0  0
 26 27  1  0  0  0  0
 27 34  1  0  0  0  0
 28 29  1  0  0  0  0
 28 27  2  0  0  0  0
 29 31  2  0  0  0  0
 30 29  1  0  0  0  0
 31 32  1  0  0  0  0
 31 33  1  0  0  0  0
 34 33  2  0  0  0  0
M  END
>  <minimizedAffinity>
-5.29945612

$$$$

 OpenBabel03272505563D

 34 36  0  0  1  0  0  0  0  0999 V2000
   39.9760   22.5820   36.5260 C   0  0  2  0  0  0  0  0  0  0  0  0
   39.3900   23.5140   35.4940 C   0  0  0  0  0  0  0  0  0  0  0  0
   38.8570   24.7790   36.0960 C   0  0  2  0  0  0  0  0  0  0  0  0
   37.8970   24.5890   37.2230 C   0  0  0  0  0  0  0  0  0  0  0  0
   38.2540   23.4220   38.1260 C   0  0  0  0  0  0  0  0  0  0  0  0
   39.6830   22.9760   37.9260 C   0  0  0  0  0  0  0  0  0  0  0  0
   39.6020   21.5610   36.2650 H   0  0  0  0  0  0  0  0  0  0  0  0
   38.5580   23.0440   34.9450 H   0  0  0  0  0  0  0  0  0  0  0  0
   40.1230   23.8310   34.7120 H   0  0  0  0  0  0  0  0  0  0  0  0
   39.7330   25.4200   36.3970 H   0  0  0  0  0  0  0  0  0  0  0  0
   36.8620   24.4580   36.8980 H   0  0  0  0  0  0  0  0  0  0  0  0
   37.9470   25.5100   37.8610 H   0  0  0  0  0  0  0  0  0  0  0  0
   37.5650   22.5690   37.9140 H   0  0  0  0  0  0  0  0  0  0  0  0
   38.1040   23.6810   39.1750 H   0  0  0  0  0  0  0  0  0  0  0  0
   39.8050   22.0600   38.5660 H   0  0  0  0  0  0  0  0  0  0  0  0
   40.3470   23.7710   38.2710 H   0  0  0  0  0  0  0  0  0  0  0  0
   41.4540   22.5070   36.3650 C   0  0  0  0  0  0  0  0  0  0  0  0
   42.0200   21.2240   36.4820 C   0  0  0  0  0  0  0  0  0  0  0  0
   43.4220   21.1460   36.3520 C   0  0  0  0  0  0  0  0  0  0  0  0
   44.1490   22.2970   36.1250 N   0  0  0  0  0  0  0  0  0  0  0  0
   43.5410   23.5160   36.0200 C   0  0  0  0  0  0  0  0  0  0  0  0
   42.2080   23.5950   36.1420 N   0  0  0  0  0  0  0  0  0  0  0  0
   41.4970   20.3070   36.6580 H   0  0  0  0  0  0  0  0  0  0  0  0
   43.9700   20.2160   36.4240 H   0  0  0  0  0  0  0  0  0  0  0  0
   44.2030   24.3340   35.8440 H   0  0  0  0  0  0  0  0  0  0  0  0
   38.2680   27.4480   36.2920 F   0  0  0  0  0  0  0  0  0  0  0  0
   37.8710   26.8370   35.1270 C   0  0  0  0  0  0  0  0  0  0  0  0
   38.1490   25.4820   34.9970 C   0  0  0  0  0  0  0  0  0  0  0  0
   37.7110   24.9660   33.7990 C   0  0  0  0  0  0  0  0  0  0  0  0
   37.8890   23.9190   33.6020 H   0  0  0  0  0  0  0  0  0  0  0  0
   37.0700   25.7280   32.8480 C   0  0  0  0  0  0  0  0  0  0  0  0
   36.7570   25.2240   31.9200 H   0  0  0  0  0  0  0  0  0  0  0  0
   36.8300   27.0710   33.0530 C   0  0  0  0  0  3  0  0  0  0  0  0
   37.2400   27.6610   34.2310 C   0  0  0  0  0  3  0  0  0  0  0  0
  1  7  1  6  0  0  0
  1  6  1  0  0  0  0
  2  3  1  0  0  0  0
  2  1  1  0  0  0  0
  3 10  1  1  0  0  0
  3  4  1  0  0  0  0
  4 12  1  0  0  0  0
  4  5  1  0  0  0  0
  5 14  1  0  0  0  0
  6  5  1  0  0  0  0
  6 16  1  0  0  0  0
  6 15  1  0  0  0  0
  8  2  1  0  0  0  0
  9  2  1  0  0  0  0
 11  4  1  0  0  0  0
 13  5  1  0  0  0  0
 17 18  1  0  0  0  0
 17  1  1  0  0  0  0
 18 23  1  0  0  0  0
 19 24  1  0  0  0  0
 19 18  2  0  0  0  0
 20 19  1  0  0  0  0
 21 20  2  0  0  0  0
 21 22  1  0  0  0  0
 22 17  2  0  0  0  0
 25 21  1  0  0  0  0
 27 26  1  0  0  0  0
 28 27  1  0  0  0  0
 28  3  1  0  0  0  0
 29 28  2  0  0  0  0
 30 29  1  0  0  0  0
 31 33  2  0  0  0  0
 31 29  1  0  0  0  0
 32 31  1  0  0  0  0
 33 34  1  0  0  0  0
 34 27  2  0  0  0  0
M  END
>  <minimizedAffinity>
-5.29713058

$$$$

 OpenBabel03272505563D

 34 36  0  0  1  0  0  0  0  0999 V2000
   36.0960   28.4850   31.7070 C   0  0  2  0  0  0  0  0  0  0  0  0
   35.2650   29.3200   32.6490 C   0  0  0  0  0  0  0  0  0  0  0  0
   35.9390   29.5430   33.9690 C   0  0  2  0  0  0  0  0  0  0  0  0
   36.4110   28.3060   34.6570 C   0  0  0  0  0  0  0  0  0  0  0  0
   36.9610   27.2610   33.7040 C   0  0  0  0  0  0  0  0  0  0  0  0
   37.2740   27.8500   32.3480 C   0  0  0  0  0  0  0  0  0  0  0  0
   35.3920   27.7500   31.2450 H   0  0  0  0  0  0  0  0  0  0  0  0
   34.2920   28.8480   32.8620 H   0  0  0  0  0  0  0  0  0  0  0  0
   35.0230   30.3360   32.2520 H   0  0  0  0  0  0  0  0  0  0  0  0
   36.7750   30.2820   33.8150 H   0  0  0  0  0  0  0  0  0  0  0  0
   35.6460   27.8290   35.2740 H   0  0  0  0  0  0  0  0  0  0  0  0
   37.2620   28.6020   35.3270 H   0  0  0  0  0  0  0  0  0  0  0  0
   36.2140   26.4400   33.5890 H   0  0  0  0  0  0  0  0  0  0  0  0
   37.8620   26.7990   34.1090 H   0  0  0  0  0  0  0  0  0  0  0  0
   37.5790   26.9800   31.7050 H   0  0  0  0  0  0  0  0  0  0  0  0
   38.1050   28.5510   32.4560 H   0  0  0  0  0  0  0  0  0  0  0  0
   36.5800   29.3230   30.5750 C   0  0  0  0  0  0  0  0  0  0  0  0
   36.2870   30.6970   30.6590 C   0  0  0  0  0  0  0  0  0  0  0  0
   36.7220   31.4940   29.5820 C   0  0  0  0  0  0  0  0  0  0  0  0
   37.3930   30.9080   28.5280 N   0  0  0  0  0  0  0  0  0  0  0  0
   37.6480   29.5660   28.5030 C   0  0  0  0  0  0  0  0  0  0  0  0
   37.2370   28.8030   29.5270 N   0  0  0  0  0  0  0  0  0  0  0  0
   35.7710   31.1940   31.4550 H   0  0  0  0  0  0  0  0  0  0  0  0
   36.5550   32.5630   29.5340 H   0  0  0  0  0  0  0  0  0  0  0  0
   38.1730   29.2240   27.6400 H   0  0  0  0  0  0  0  0  0  0  0  0
   36.6870   31.3700   35.8700 F   0  0  0  0  0  0  0  0  0  0  0  0
   35.3390   31.1220   35.7850 C   0  0  0  0  0  0  0  0  0  0  0  0
   34.9240   30.1970   34.8350 C   0  0  0  0  0  0  0  0  0  0  0  0
   33.5600   30.0200   34.8300 C   0  0  0  0  0  0  0  0  0  0  0  0
   33.1410   29.3240   34.1190 H   0  0  0  0  0  0  0  0  0  0  0  0
   32.7160   30.6970   35.6830 C   0  0  0  0  0  0  0  0  0  0  0  0
   31.6380   30.4870   35.6030 H   0  0  0  0  0  0  0  0  0  0  0  0
   33.2070   31.6020   36.6010 C   0  0  0  0  0  3  0  0  0  0  0  0
   34.5660   31.8340   36.6660 C   0  0  0  0  0  3  0  0  0  0  0  0
  1  7  1  6  0  0  0
  1  6  1  0  0  0  0
  1  2  1  0  0  0  0
  2  8  1  0  0  0  0
  2  3  1  0  0  0  0
  3 10  1  6  0  0  0
  3  4  1  0  0  0  0
  3 28  1  0  0  0  0
  4 11  1  0  0  0  0
  4 12  1  0  0  0  0
  5 14  1  0  0  0  0
  5  4  1  0  0  0  0
  6 16  1  0  0  0  0
  6  5  1  0  0  0  0
  9  2  1  0  0  0  0
 13  5  1  0  0  0  0
 15  6  1  0  0  0  0
 17 18  1  0  0  0  0
 17  1  1  0  0  0  0
 18 23  1  0  0  0  0
 19 18  2  0  0  0  0
 20 19  1  0  0  0  0
 21 20  2  0  0  0  0
 21 22  1  0  0  0  0
 22 17  2  0  0  0  0
 24 19  1  0  0  0  0
 25 21  1  0  0  0  0
 27 26  1  0  0  0  0
 27 34  1  0  0  0  0
 28 27  2  0  0  0  0
 29 28  1  0  0  0  0
 29 31  2  0  0  0  0
 30 29  1  0  0  0  0
 31 33  1  0  0  0  0
 32 31  1  0  0  0  0
 33 34  2  0  0  0  0
M  END
>  <minimizedAffinity>
-5.26487446

$$$$

 OpenBabel03272505563D

 34 36  0  0  1  0  0  0  0  0999 V2000
   37.0000   28.0200   31.9500 C   0  0  2  0  0  0  0  0  0  0  0  0
   36.3800   28.6440   33.1750 C   0  0  0  0  0  0  0  0  0  0  0  0
   35.2940   29.6200   32.8370 C   0  0  2  0  0  0  0  0  0  0  0  0
   35.6760   30.6790   31.8580 C   0  0  0  0  0  0  0  0  0  0  0  0
   36.5990   30.1780   30.7620 C   0  0  0  0  0  0  0  0  0  0  0  0
   36.6020   28.6700   30.6770 C   0  0  0  0  0  0  0  0  0  0  0  0
   38.1050   28.0300   32.1260 H   0  0  0  0  0  0  0  0  0  0  0  0
   37.1250   29.1880   33.7780 H   0  0  0  0  0  0  0  0  0  0  0  0
   35.9190   27.9000   33.8700 H   0  0  0  0  0  0  0  0  0  0  0  0
   34.3930   29.0380   32.4940 H   0  0  0  0  0  0  0  0  0  0  0  0
   36.1430   31.5530   32.3170 H   0  0  0  0  0  0  0  0  0  0  0  0
   34.7340   31.0160   31.3480 H   0  0  0  0  0  0  0  0  0  0  0  0
   37.6360   30.5410   30.9610 H   0  0  0  0  0  0  0  0  0  0  0  0
   36.3130   30.5900   29.7930 H   0  0  0  0  0  0  0  0  0  0  0  0
   37.3800   28.4120   29.9090 H   0  0  0  0  0  0  0  0  0  0  0  0
   35.6160   28.3380   30.3440 H   0  0  0  0  0  0  0  0  0  0  0  0
   36.6330   26.5790   31.8700 C   0  0  0  0  0  0  0  0  0  0  0  0
   35.4840   26.2800   31.1150 C   0  0  0  0  0  0  0  0  0  0  0  0
   35.1160   24.9200   31.0520 C   0  0  0  0  0  0  0  0  0  0  0  0
   35.8760   23.9780   31.7140 N   0  0  0  0  0  0  0  0  0  0  0  0
   36.9830   24.3310   32.4330 C   0  0  0  0  0  0  0  0  0  0  0  0
   37.3380   25.6230   32.4950 N   0  0  0  0  0  0  0  0  0  0  0  0
   34.8660   26.9760   30.5870 H   0  0  0  0  0  0  0  0  0  0  0  0
   34.2530   24.5680   30.5020 H   0  0  0  0  0  0  0  0  0  0  0  0
   37.4920   23.5190   32.9010 H   0  0  0  0  0  0  0  0  0  0  0  0
   32.7690   29.3820   33.8740 F   0  0  0  0  0  0  0  0  0  0  0  0
   33.6450   30.1350   34.6160 C   0  0  0  0  0  0  0  0  0  0  0  0
   34.9330   30.2820   34.1180 C   0  0  0  0  0  0  0  0  0  0  0  0
   35.7310   31.0520   34.9320 C   0  0  0  0  0  0  0  0  0  0  0  0
   36.7540   31.2170   34.6300 H   0  0  0  0  0  0  0  0  0  0  0  0
   35.2810   31.6080   36.1080 C   0  0  0  0  0  0  0  0  0  0  0  0
   35.9950   32.2100   36.6920 H   0  0  0  0  0  0  0  0  0  0  0  0
   33.9830   31.4160   36.5370 C   0  0  0  0  0  3  0  0  0  0  0  0
   33.1230   30.6540   35.7730 C   0  0  0  0  0  3  0  0  0  0  0  0
  1  7  1  1  0  0  0
  1  2  1  0  0  0  0
  2  8  1  0  0  0  0
  2  9  1  0  0  0  0
  3 10  1  6  0  0  0
  3  2  1  0  0  0  0
  3 28  1  0  0  0  0
  4 11  1  0  0  0  0
  4  3  1  0  0  0  0
  5 13  1  0  0  0  0
  5  4  1  0  0  0  0
  6  5  1  0  0  0  0
  6  1  1  0  0  0  0
 12  4  1  0  0  0  0
 14  5  1  0  0  0  0
 15  6  1  0  0  0  0
 16  6  1  0  0  0  0
 17  1  1  0  0  0  0
 17 22  1  0  0  0  0
 18 17  2  0  0  0  0
 19 18  1  0  0  0  0
 19 20  2  0  0  0  0
 20 21  1  0  0  0  0
 21 22  2  0  0  0  0
 21 25  1  0  0  0  0
 23 18  1  0  0  0  0
 24 19  1  0  0  0  0
 26 27  1  0  0  0  0
 27 34  1  0  0  0  0
 28 27  2  0  0  0  0
 28 29  1  0  0  0  0
 29 31  2  0  0  0  0
 30 29  1  0  0  0  0
 31 33  1  0  0  0  0
 31 32  1  0  0  0  0
 34 33  2  0  0  0  0
M  END
>  <minimizedAffinity>
-5.23319721

$$$$

 OpenBabel03272505563D

 34 36  0  0  1  0  0  0  0  0999 V2000
   35.0700   31.8790   36.3220 C   0  0  2  0  0  0  0  0  0  0  0  0
   35.8540   30.8900   35.4960 C   0  0  0  0  0  0  0  0  0  0  0  0
   35.0550   30.3260   34.3600 C   0  0  2  0  0  0  0  0  0  0  0  0
   33.7340   29.7460   34.7410 C   0  0  0  0  0  0  0  0  0  0  0  0
   33.0300   30.5240   35.8380 C   0  0  0  0  0  0  0  0  0  0  0  0
   33.6190   31.9040   36.0120 C   0  0  0  0  0  0  0  0  0  0  0  0
   35.2900   31.6300   37.3900 H   0  0  0  0  0  0  0  0  0  0  0  0
   36.1990   30.0350   36.1010 H   0  0  0  0  0  0  0  0  0  0  0  0
   36.7760   31.3230   35.0380 H   0  0  0  0  0  0  0  0  0  0  0  0
   34.9490   31.1260   33.5750 H   0  0  0  0  0  0  0  0  0  0  0  0
   33.7880   28.7010   35.0530 H   0  0  0  0  0  0  0  0  0  0  0  0
   33.0720   29.8040   33.8370 H   0  0  0  0  0  0  0  0  0  0  0  0
   33.1110   29.9610   36.7980 H   0  0  0  0  0  0  0  0  0  0  0  0
   31.9630   30.6150   35.6280 H   0  0  0  0  0  0  0  0  0  0  0  0
   33.0920   32.3470   36.8990 H   0  0  0  0  0  0  0  0  0  0  0  0
   33.4060   32.4890   35.1140 H   0  0  0  0  0  0  0  0  0  0  0  0
   35.6110   33.2510   36.1230 C   0  0  0  0  0  0  0  0  0  0  0  0
   36.8300   33.3360   35.4260 C   0  0  0  0  0  0  0  0  0  0  0  0
   37.3600   34.6300   35.2520 C   0  0  0  0  0  0  0  0  0  0  0  0
   36.6810   35.7180   35.7590 N   0  0  0  0  0  0  0  0  0  0  0  0
   35.4990   35.5720   36.4300 C   0  0  0  0  0  0  0  0  0  0  0  0
   34.9890   34.3430   36.5970 N   0  0  0  0  0  0  0  0  0  0  0  0
   37.3900   32.5210   35.0160 H   0  0  0  0  0  0  0  0  0  0  0  0
   38.2900   34.8210   34.7330 H   0  0  0  0  0  0  0  0  0  0  0  0
   35.0630   36.4830   36.7760 H   0  0  0  0  0  0  0  0  0  0  0  0
   35.6010   30.2640   31.6760 F   0  0  0  0  0  0  0  0  0  0  0  0
   36.1480   29.2440   32.4150 C   0  0  0  0  0  0  0  0  0  0  0  0
   35.8870   29.2420   33.7790 C   0  0  0  0  0  0  0  0  0  0  0  0
   36.4780   28.1820   34.4290 C   0  0  0  0  0  0  0  0  0  0  0  0
   36.3370   28.0980   35.4960 H   0  0  0  0  0  0  0  0  0  0  0  0
   37.2410   27.2390   33.7770 C   0  0  0  0  0  0  0  0  0  0  0  0
   37.6720   26.4270   34.3830 H   0  0  0  0  0  0  0  0  0  0  0  0
   37.4540   27.3110   32.4160 C   0  0  0  0  0  3  0  0  0  0  0  0
   36.8940   28.3460   31.6950 C   0  0  0  0  0  3  0  0  0  0  0  0
  1  7  1  1  0  0  0
  2  8  1  0  0  0  0
  2  1  1  0  0  0  0
  3 10  1  6  0  0  0
  3  4  1  0  0  0  0
  3  2  1  0  0  0  0
  4 11  1  0  0  0  0
  4  5  1  0  0  0  0
  5  6  1  0  0  0  0
  5 13  1  0  0  0  0
  6  1  1  0  0  0  0
  6 15  1  0  0  0  0
  9  2  1  0  0  0  0
 12  4  1  0  0  0  0
 14  5  1  0  0  0  0
 16  6  1  0  0  0  0
 17  1  1  0  0  0  0
 17 22  1  0  0  0  0
 18 17  2  0  0  0  0
 19 18  1  0  0  0  0
 19 20  2  0  0  0  0
 20 21  1  0  0  0  0
 21 22  2  0  0  0  0
 21 25  1  0  0  0  0
 23 18  1  0  0  0  0
 24 19  1  0  0  0  0
 26 27  1  0  0  0  0
 27 28  1  0  0  0  0
 28  3  1  0  0  0  0
 28 29  2  0  0  0  0
 29 30  1  0  0  0  0
 31 32  1  0  0  0  0
 31 29  1  0  0  0  0
 33 31  2  0  0  0  0
 34 27  2  0  0  0  0
 34 33  1  0  0  0  0
M  END
>  <minimizedAffinity>
-5.17625761

$$$$

 OpenBabel03272505563D

 34 36  0  0  1  0  0  0  0  0999 V2000
   36.4030   23.3300   31.3040 C   0  0  2  0  0  0  0  0  0  0  0  0
   37.5250   24.0140   32.0440 C   0  0  0  0  0  0  0  0  0  0  0  0
   37.0740   25.2520   32.7580 C   0  0  2  0  0  0  0  0  0  0  0  0
   36.3390   26.2390   31.9140 C   0  0  0  0  0  0  0  0  0  0  0  0
   35.4240   25.5890   30.8920 C   0  0  0  0  0  0  0  0  0  0  0  0
   35.1610   24.1380   31.2170 C   0  0  0  0  0  0  0  0  0  0  0  0
   36.8200   23.0500   30.3050 H   0  0  0  0  0  0  0  0  0  0  0  0
   38.3390   24.3140   31.3650 H   0  0  0  0  0  0  0  0  0  0  0  0
   38.0060   23.3700   32.8200 H   0  0  0  0  0  0  0  0  0  0  0  0
   36.4720   24.9390   33.6570 H   0  0  0  0  0  0  0  0  0  0  0  0
   36.9920   26.9360   31.3860 H   0  0  0  0  0  0  0  0  0  0  0  0
   35.6770   26.8340   32.5980 H   0  0  0  0  0  0  0  0  0  0  0  0
   35.8910   25.6650   29.8810 H   0  0  0  0  0  0  0  0  0  0  0  0
   34.4720   26.1190   30.8280 H   0  0  0  0  0  0  0  0  0  0  0  0
   34.5600   23.7400   30.3550 H   0  0  0  0  0  0  0  0  0  0  0  0
   34.5790   24.0880   32.1400 H   0  0  0  0  0  0  0  0  0  0  0  0
   36.0700   22.0370   31.9630 C   0  0  0  0  0  0  0  0  0  0  0  0
   35.5180   21.0480   31.1290 C   0  0  0  0  0  0  0  0  0  0  0  0
   35.1800   19.8270   31.7490 C   0  0  0  0  0  0  0  0  0  0  0  0
   35.3990   19.6680   33.1020 N   0  0  0  0  0  0  0  0  0  0  0  0
   35.9390   20.6680   33.8600 C   0  0  0  0  0  0  0  0  0  0  0  0
   36.2630   21.8300   33.2750 N   0  0  0  0  0  0  0  0  0  0  0  0
   35.3310   21.1270   30.0780 H   0  0  0  0  0  0  0  0  0  0  0  0
   34.7490   18.9930   31.2120 H   0  0  0  0  0  0  0  0  0  0  0  0
   36.0630   20.4320   34.8930 H   0  0  0  0  0  0  0  0  0  0  0  0
   37.2820   26.0420   35.3740 F   0  0  0  0  0  0  0  0  0  0  0  0
   38.3840   26.2860   34.5930 C   0  0  0  0  0  0  0  0  0  0  0  0
   38.3120   25.9030   33.2600 C   0  0  0  0  0  0  0  0  0  0  0  0
   39.4640   26.1900   32.5630 C   0  0  0  0  0  0  0  0  0  0  0  0
   39.5060   25.9220   31.5190 H   0  0  0  0  0  0  0  0  0  0  0  0
   40.5570   26.7920   33.1460 C   0  0  0  0  0  0  0  0  0  0  0  0
   41.4340   26.9810   32.5070 H   0  0  0  0  0  0  0  0  0  0  0  0
   40.5510   27.1430   34.4800 C   0  0  0  0  0  3  0  0  0  0  0  0
   39.4310   26.8870   35.2440 C   0  0  0  0  0  3  0  0  0  0  0  0
  1  7  1  6  0  0  0
  1 17  1  0  0  0  0
  1  2  1  0  0  0  0
  2  3  1  0  0  0  0
  2  9  1  0  0  0  0
  3 28  1  0  0  0  0
  3 10  1  1  0  0  0
  4 12  1  0  0  0  0
  4  3  1  0  0  0  0
  5  6  1  0  0  0  0
  5  4  1  0  0  0  0
  6  1  1  0  0  0  0
  6 16  1  0  0  0  0
  8  2  1  0  0  0  0
 11  4  1  0  0  0  0
 13  5  1  0  0  0  0
 14  5  1  0  0  0  0
 15  6  1  0  0  0  0
 17 22  1  0  0  0  0
 18 19  1  0  0  0  0
 18 17  2  0  0  0  0
 19 20  2  0  0  0  0
 20 21  1  0  0  0  0
 21 25  1  0  0  0  0
 22 21  2  0  0  0  0
 23 18  1  0  0  0  0
 24 19  1  0  0  0  0
 27 34  1  0  0  0  0
 27 26  1  0  0  0  0
 28 27  2  0  0  0  0
 29 31  2  0  0  0  0
 29 28  1  0  0  0  0
 30 29  1  0  0  0  0
 31 33  1  0  0  0  0
 32 31  1  0  0  0  0
 33 34  2  0  0  0  0
M  END
>  <minimizedAffinity>
-5.17253113

$$$$

 OpenBabel03272505563D

 34 36  0  0  1  0  0  0  0  0999 V2000
   36.6110   28.5940   33.1210 C   0  0  2  0  0  0  0  0  0  0  0  0
   36.0280   29.3450   34.2930 C   0  0  0  0  0  0  0  0  0  0  0  0
   34.5550   29.5790   34.1520 C   0  0  2  0  0  0  0  0  0  0  0  0
   34.1340   30.2180   32.8710 C   0  0  0  0  0  0  0  0  0  0  0  0
   34.9340   29.7420   31.6720 C   0  0  0  0  0  0  0  0  0  0  0  0
   35.6830   28.4650   31.9700 C   0  0  0  0  0  0  0  0  0  0  0  0
   37.5650   29.1160   32.8660 H   0  0  0  0  0  0  0  0  0  0  0  0
   36.5000   30.3330   34.4190 H   0  0  0  0  0  0  0  0  0  0  0  0
   36.1640   28.8220   35.2710 H   0  0  0  0  0  0  0  0  0  0  0  0
   34.0260   28.6000   34.3250 H   0  0  0  0  0  0  0  0  0  0  0  0
   34.1760   31.3090   32.8910 H   0  0  0  0  0  0  0  0  0  0  0  0
   33.0700   29.9150   32.6820 H   0  0  0  0  0  0  0  0  0  0  0  0
   35.6580   30.5370   31.3740 H   0  0  0  0  0  0  0  0  0  0  0  0
   34.2850   29.5820   30.8090 H   0  0  0  0  0  0  0  0  0  0  0  0
   36.3060   28.2610   31.0580 H   0  0  0  0  0  0  0  0  0  0  0  0
   34.9580   27.6620   32.1210 H   0  0  0  0  0  0  0  0  0  0  0  0
   37.0180   27.2250   33.5450 C   0  0  0  0  0  0  0  0  0  0  0  0
   37.3060   27.0660   34.9120 C   0  0  0  0  0  0  0  0  0  0  0  0
   37.7120   25.7790   35.3180 C   0  0  0  0  0  0  0  0  0  0  0  0
   37.8080   24.7690   34.3830 N   0  0  0  0  0  0  0  0  0  0  0  0
   37.5150   24.9860   33.0660 C   0  0  0  0  0  0  0  0  0  0  0  0
   37.1260   26.2080   32.6760 N   0  0  0  0  0  0  0  0  0  0  0  0
   37.2450   27.8190   35.6710 H   0  0  0  0  0  0  0  0  0  0  0  0
   37.9600   25.5350   36.3430 H   0  0  0  0  0  0  0  0  0  0  0  0
   37.6240   24.1320   32.4350 H   0  0  0  0  0  0  0  0  0  0  0  0
   32.0690   29.4460   35.2970 F   0  0  0  0  0  0  0  0  0  0  0  0
   32.9150   30.3890   35.8270 C   0  0  0  0  0  0  0  0  0  0  0  0
   34.1820   30.4880   35.2670 C   0  0  0  0  0  0  0  0  0  0  0  0
   34.9510   31.4590   35.8660 C   0  0  0  0  0  0  0  0  0  0  0  0
   35.9560   31.6060   35.5030 H   0  0  0  0  0  0  0  0  0  0  0  0
   34.4930   32.2370   36.9060 C   0  0  0  0  0  0  0  0  0  0  0  0
   35.1820   32.9890   37.3200 H   0  0  0  0  0  0  0  0  0  0  0  0
   33.2170   32.0780   37.4070 C   0  0  0  0  0  3  0  0  0  0  0  0
   32.3860   31.1220   36.8580 C   0  0  0  0  0  3  0  0  0  0  0  0
  1  7  1  6  0  0  0
  1 17  1  0  0  0  0
  1  2  1  0  0  0  0
  2  8  1  0  0  0  0
  2  9  1  0  0  0  0
  3  2  1  0  0  0  0
  3 10  1  1  0  0  0
  3 28  1  0  0  0  0
  4 11  1  0  0  0  0
  4  3  1  0  0  0  0
  5  6  1  0  0  0  0
  5  4  1  0  0  0  0
  6 16  1  0  0  0  0
  6  1  1  0  0  0  0
 12  4  1  0  0  0  0
 13  5  1  0  0  0  0
 14  5  1  0  0  0  0
 15  6  1  0  0  0  0
 17 18  1  0  0  0  0
 18 19  2  0  0  0  0
 18 23  1  0  0  0  0
 19 24  1  0  0  0  0
 20 19  1  0  0  0  0
 21 20  2  0  0  0  0
 22 21  1  0  0  0  0
 22 17  2  0  0  0  0
 25 21  1  0  0  0  0
 26 27  1  0  0  0  0
 27 34  1  0  0  0  0
 28 27  2  0  0  0  0
 28 29  1  0  0  0  0
 29 31  2  0  0  0  0
 30 29  1  0  0  0  0
 31 32  1  0  0  0  0
 31 33  1  0  0  0  0
 34 33  2  0  0  0  0
M  END
>  <minimizedAffinity>
-5.07572508

$$$$
