
 OpenBabel03272510073D

 30 32  0  0  0  0  0  0  0  0999 V2000
   36.4500   31.0690   49.1780 C   0  0  0  0  0  0  0  0  0  0  0  0
   37.1300   31.4610   47.9940 C   0  0  0  0  0  0  0  0  0  0  0  0
   36.7490   30.8790   46.7840 C   0  0  0  0  0  0  0  0  0  0  0  0
   35.7400   29.9610   46.7990 N   0  0  0  0  0  0  0  0  0  0  0  0
   35.1160   29.6100   47.9330 C   0  0  0  0  0  0  0  0  0  0  0  0
   35.4480   30.1450   49.1310 N   0  0  0  0  0  0  0  0  0  0  0  0
   34.0560   28.6320   47.8680 N   0  0  0  0  0  0  0  0  0  0  0  0
   32.8490   28.8550   47.0670 C   0  0  0  0  0  0  0  0  0  0  0  0
   32.1330   27.5510   47.0940 C   0  0  0  0  0  0  0  0  0  0  0  0
   33.1100   26.5550   47.6760 C   0  0  0  0  0  0  0  0  0  0  0  0
   34.0240   27.3600   48.5430 C   0  0  0  0  0  0  0  0  0  0  0  0
   36.7320   31.5070   50.1150 H   0  0  0  0  0  0  0  0  0  0  0  0
   37.2510   31.1580   45.8700 H   0  0  0  0  0  0  0  0  0  0  0  0
   32.2800   29.7020   47.5280 H   0  0  0  0  0  0  0  0  0  0  0  0
   33.1110   29.2010   46.0450 H   0  0  0  0  0  0  0  0  0  0  0  0
   31.1910   27.5930   47.6790 H   0  0  0  0  0  0  0  0  0  0  0  0
   31.8480   27.3100   46.0470 H   0  0  0  0  0  0  0  0  0  0  0  0
   33.7210   26.0580   46.8840 H   0  0  0  0  0  0  0  0  0  0  0  0
   32.5130   25.8410   48.2800 H   0  0  0  0  0  0  0  0  0  0  0  0
   33.6300   27.4470   49.5680 H   0  0  0  0  0  0  0  0  0  0  0  0
   35.0260   26.8780   48.5900 H   0  0  0  0  0  0  0  0  0  0  0  0
   37.4880   33.2920   50.1150 F   0  0  0  0  0  0  0  0  0  0  0  0
   38.3620   33.3310   49.0810 C   0  0  0  0  0  0  0  0  0  0  0  0
   38.2030   32.4490   48.0430 C   0  0  0  0  0  0  0  0  0  0  0  0
   39.0730   32.4470   46.9590 C   0  0  0  0  0  0  0  0  0  0  0  0
   38.9690   31.7590   46.1230 H   0  0  0  0  0  0  0  0  0  0  0  0
   40.1370   33.3420   46.8880 C   0  0  0  0  0  0  0  0  0  0  0  0
   40.8340   33.3660   46.0540 H   0  0  0  0  0  0  0  0  0  0  0  0
   40.2910   34.2300   47.9400 C   0  0  0  0  0  3  0  0  0  0  0  0
   39.4290   34.2330   49.0180 C   0  0  0  0  0  3  0  0  0  0  0  0
  1 12  1  0  0  0  0
  2 24  1  0  0  0  0
  2  1  2  0  0  0  0
  3  4  2  0  0  0  0
  3  2  1  0  0  0  0
  4  5  1  0  0  0  0
  5  6  2  0  0  0  0
  6  1  1  0  0  0  0
  7  5  1  0  0  0  0
  7 11  1  0  0  0  0
  8  9  1  0  0  0  0
  8 14  1  0  0  0  0
  8  7  1  0  0  0  0
  9 10  1  0  0  0  0
  9 16  1  0  0  0  0
 10 19  1  0  0  0  0
 10 11  1  0  0  0  0
 11 21  1  0  0  0  0
 11 20  1  0  0  0  0
 13  3  1  0  0  0  0
 15  8  1  0  0  0  0
 17  9  1  0  0  0  0
 18 10  1  0  0  0  0
 23 22  1  0  0  0  0
 24 23  2  0  0  0  0
 25 24  1  0  0  0  0
 26 25  1  0  0  0  0
 27 25  2  0  0  0  0
 27 29  1  0  0  0  0
 28 27  1  0  0  0  0
 29 30  2  0  0  0  0
 30 23  1  0  0  0  0
M  END
>  <minimizedAffinity>
-5.35595894

>  <minimizedRMSD>
2.68860936

$$$$
