
 OpenBabel03262523473D

 38 41  0  0  0  0  0  0  0  0999 V2000
   38.6630   32.9340   49.7750 Cl  0  0  0  0  0  0  0  0  0  0  0  0
   38.6400   32.2770   48.1530 C   0  0  0  0  0  0  0  0  0  0  0  0
   37.8900   31.1510   47.8570 C   0  0  0  0  0  0  0  0  0  0  0  0
   37.9220   30.6950   46.5700 C   0  0  0  0  0  0  0  0  0  0  0  0
   38.6520   31.2960   45.5760 C   0  0  0  0  0  0  0  0  0  0  0  0
   39.3980   32.4310   45.9050 C   0  0  0  0  0  0  0  0  0  0  0  0
   40.3110   33.1620   44.6130 Cl  0  0  0  0  0  0  0  0  0  0  0  0
   39.3920   32.9190   47.1950 C   0  0  0  0  0  0  0  0  0  0  0  0
   37.3100   29.8010   46.3930 H   0  0  0  0  0  0  0  0  0  0  0  0
   39.9840   33.8030   47.4120 H   0  0  0  0  0  0  0  0  0  0  0  0
   36.9420   32.6280   43.4600 Cl  0  0  0  0  0  0  0  0  0  0  0  0
   37.8680   31.1550   43.1710 C   0  0  0  0  0  0  0  0  0  0  0  0
   38.5870   30.6920   44.2430 C   0  0  0  0  0  0  0  0  0  0  0  0
   39.3570   29.5270   44.1160 C   0  0  0  0  0  0  0  0  0  0  0  0
   39.4020   28.8360   42.9160 C   0  0  0  0  0  0  0  0  0  0  0  0
   38.6650   29.3350   41.8630 C   0  0  0  0  0  0  0  0  0  0  0  0
   37.8960   30.4850   41.9650 C   0  0  0  0  0  0  0  0  0  0  0  0
   39.9420   29.1210   44.9330 H   0  0  0  0  0  0  0  0  0  0  0  0
   39.9810   27.9420   42.7880 H   0  0  0  0  0  0  0  0  0  0  0  0
   38.6330   28.8690   40.8860 H   0  0  0  0  0  0  0  0  0  0  0  0
   39.0200   32.3690   40.1970 F   0  0  0  0  0  0  0  0  0  0  0  0
   37.7460   31.9550   40.0500 C   0  0  0  0  0  0  0  0  0  0  0  0
   37.1070   31.0350   40.8680 C   0  0  0  0  0  0  0  0  0  0  0  0
   35.7960   30.6850   40.6250 C   0  0  0  0  0  0  0  0  0  0  0  0
   35.3100   29.9680   41.2660 H   0  0  0  0  0  0  0  0  0  0  0  0
   35.0480   31.2100   39.5820 C   0  0  0  0  0  0  0  0  0  0  0  0
   34.0390   30.9470   39.3840 H   0  0  0  0  0  0  0  0  0  0  0  0
   35.7410   32.1290   38.7940 C   0  0  0  0  0  0  0  0  0  0  0  0
   37.0510   32.5100   38.9970 C   0  0  0  0  0  0  0  0  0  0  0  0
   37.0010   29.3280   51.0600 C   0  0  0  0  0  0  0  0  0  0  0  0
   37.7570   29.8900   50.0240 C   0  0  0  0  0  0  0  0  0  0  0  0
   37.1250   30.5480   48.9650 C   0  0  0  0  0  0  0  0  0  0  0  0
   35.7660   30.6120   48.9950 N   0  0  0  0  0  0  0  0  0  0  0  0
   35.0750   30.0560   50.0140 C   0  0  0  0  0  0  0  0  0  0  0  0
   35.6640   29.4320   51.0190 N   0  0  0  0  0  0  0  0  0  0  0  0
   37.5370   28.8390   51.8420 H   0  0  0  0  0  0  0  0  0  0  0  0
   38.8410   29.8380   50.0010 H   0  0  0  0  0  0  0  0  0  0  0  0
   34.0000   30.1780   49.9170 H   0  0  0  0  0  0  0  0  0  0  0  0
  2  1  1  0  0  0  0
  3  2  1  0  0  0  0
  3 32  1  0  0  0  0
  4  3  2  0  0  0  0
  5  6  2  0  0  0  0
  5  4  1  0  0  0  0
  6  8  1  0  0  0  0
  7  6  1  0  0  0  0
  8 10  1  0  0  0  0
  8  2  2  0  0  0  0
  9  4  1  0  0  0  0
 12 11  1  0  0  0  0
 12 13  1  0  0  0  0
 13  5  1  0  0  0  0
 14 13  2  0  0  0  0
 14 18  1  0  0  0  0
 15 14  1  0  0  0  0
 16 17  1  0  0  0  0
 16 15  2  0  0  0  0
 17 12  2  0  0  0  0
 19 15  1  0  0  0  0
 20 16  1  0  0  0  0
 22 21  1  0  0  0  0
 22 23  1  0  0  0  0
 23 17  1  0  0  0  0
 24 23  2  0  0  0  0
 24 25  1  0  0  0  0
 26 24  1  0  0  0  0
 27 26  1  0  0  0  0
 28 29  1  0  0  0  0
 28 26  2  0  0  0  0
 29 22  2  0  0  0  0
 30 36  1  0  0  0  0
 31 30  2  0  0  0  0
 32 33  2  0  0  0  0
 32 31  1  0  0  0  0
 33 34  1  0  0  0  0
 34 35  2  0  0  0  0
 35 30  1  0  0  0  0
 37 31  1  0  0  0  0
 38 34  1  0  0  0  0
M  END
>  <minimizedAffinity>
-6.46762276

>  <minimizedRMSD>
0.67456013

$$$$
