
 OpenBabel03272509503D

 33 35  0  0  0  0  0  0  0  0999 V2000
   37.2690   30.0290   51.3490 C   0  0  0  0  0  0  0  0  0  0  0  0
   38.0740   30.8810   50.5470 C   0  0  0  0  0  0  0  0  0  0  0  0
   37.8390   30.8700   49.1850 C   0  0  0  0  0  0  0  0  0  0  0  0
   36.8470   30.0380   48.7300 N   0  0  0  0  0  0  0  0  0  0  0  0
   36.1100   29.2500   49.5080 C   0  0  0  0  0  0  0  0  0  0  0  0
   36.3290   29.2520   50.8360 N   0  0  0  0  0  0  0  0  0  0  0  0
   37.4520   30.0360   52.4200 H   0  0  0  0  0  0  0  0  0  0  0  0
   38.8330   31.5080   50.9670 H   0  0  0  0  0  0  0  0  0  0  0  0
   38.5790   30.1270   46.4850 F   0  0  0  0  0  0  0  0  0  0  0  0
   38.9010   31.3310   46.9390 C   0  0  0  0  0  0  0  0  0  0  0  0
   38.5450   31.6600   48.2060 C   0  0  0  0  0  0  0  0  0  0  0  0
   38.9380   32.9480   48.5700 C   0  0  0  0  0  0  0  0  0  0  0  0
   38.7270   33.3720   49.5640 H   0  0  0  0  0  0  0  0  0  0  0  0
   39.6170   33.7950   47.7250 C   0  0  0  0  0  0  0  0  0  0  0  0
   39.9050   34.7850   48.0360 H   0  0  0  0  0  0  0  0  0  0  0  0
   39.9510   33.4130   46.4540 C   0  0  0  0  0  3  0  0  0  0  0  0
   39.5800   32.1500   46.0630 C   0  0  0  0  0  3  0  0  0  0  0  0
   35.1930   28.5190   48.8110 O   0  0  0  0  0  0  0  0  0  0  0  0
   34.3830   29.1780   47.8470 C   0  0  0  0  0  0  0  0  0  0  0  0
   33.6760   29.8960   48.3120 H   0  0  0  0  0  0  0  0  0  0  0  0
   35.0480   29.7710   47.1840 H   0  0  0  0  0  0  0  0  0  0  0  0
   33.5830   28.1740   47.0700 C   0  0  0  0  0  0  0  0  0  0  0  0
   33.7010   28.3980   45.9960 H   0  0  0  0  0  0  0  0  0  0  0  0
   33.9970   27.1550   47.2610 H   0  0  0  0  0  0  0  0  0  0  0  0
   32.1440   28.1850   47.4380 C   0  0  0  0  0  0  0  0  0  0  0  0
   31.7910   27.6240   48.6620 C   0  0  0  0  0  0  0  0  0  0  0  0
   30.4900   27.5850   49.0930 C   0  0  0  0  0  0  0  0  0  0  0  0
   29.5380   28.0930   48.3240 N   0  0  0  0  0  0  0  0  0  0  0  0
   29.8830   28.6420   47.1220 C   0  0  0  0  0  0  0  0  0  0  0  0
   31.1550   28.6990   46.6660 N   0  0  0  0  0  0  0  0  0  0  0  0
   32.5250   27.1950   49.3320 H   0  0  0  0  0  0  0  0  0  0  0  0
   30.2010   27.1610   50.0260 H   0  0  0  0  0  0  0  0  0  0  0  0
   29.1900   29.0850   46.4160 H   0  0  0  0  0  0  0  0  0  0  0  0
  1  7  1  0  0  0  0
  2  8  1  0  0  0  0
  2  1  2  0  0  0  0
  3  2  1  0  0  0  0
  4  3  2  0  0  0  0
  4  5  1  0  0  0  0
  5  6  2  0  0  0  0
  6  1  1  0  0  0  0
  9 10  1  0  0  0  0
 10 11  1  0  0  0  0
 11 12  2  0  0  0  0
 11  3  1  0  0  0  0
 12 13  1  0  0  0  0
 14 15  1  0  0  0  0
 14 12  1  0  0  0  0
 16 14  2  0  0  0  0
 17 16  1  0  0  0  0
 17 10  2  0  0  0  0
 18  5  1  0  0  0  0
 19 20  1  0  0  0  0
 19 18  1  0  0  0  0
 21 19  1  0  0  0  0
 22 24  1  0  0  0  0
 22 25  1  0  0  0  0
 22 19  1  0  0  0  0
 23 22  1  0  0  0  0
 25 26  1  0  0  0  0
 26 27  2  0  0  0  0
 26 31  1  0  0  0  0
 27 32  1  0  0  0  0
 28 27  1  0  0  0  0
 29 28  2  0  0  0  0
 30 29  1  0  0  0  0
 30 25  2  0  0  0  0
 33 29  1  0  0  0  0
M  END
>  <minimizedAffinity>
-5.91185951

>  <minimizedRMSD>
1.37635076

$$$$
