
 OpenBabel03272509383D

 30 32  0  0  1  0  0  0  0  0999 V2000
   36.7470   30.8850   48.6550 C   0  0  0  0  0  0  0  0  0  0  0  0
   36.7940   31.5950   49.8690 C   0  0  0  0  0  0  0  0  0  0  0  0
   37.5220   32.7810   50.0220 C   0  0  0  0  0  0  0  0  0  0  0  0
   38.2290   33.2670   48.8970 C   0  0  0  0  0  0  0  0  0  0  0  0
   38.1750   32.5550   47.6980 C   0  0  0  0  0  0  0  0  0  0  0  0
   37.4460   31.3930   47.5980 C   0  0  0  0  0  0  0  0  0  0  0  0
   36.2470   31.2060   50.7140 H   0  0  0  0  0  0  0  0  0  0  0  0
   37.5250   33.2860   50.9740 H   0  0  0  0  0  0  0  0  0  0  0  0
   38.7850   34.1870   49.0390 H   0  0  0  0  0  0  0  0  0  0  0  0
   38.7540   33.0240   46.9160 H   0  0  0  0  0  0  0  0  0  0  0  0
   39.9750   30.8300   46.7800 F   0  0  0  0  0  0  0  0  0  0  0  0
   38.8970   30.5910   45.9930 C   0  0  0  0  0  0  0  0  0  0  0  0
   37.5390   30.8110   46.2740 C   0  0  0  0  0  0  0  0  0  0  0  0
   36.6350   30.4770   45.2900 C   0  0  0  0  0  0  0  0  0  0  0  0
   35.6280   30.7090   45.6620 H   0  0  0  0  0  0  0  0  0  0  0  0
   37.0260   29.9510   44.0830 C   0  0  0  0  0  0  0  0  0  0  0  0
   36.1840   29.7550   43.4470 H   0  0  0  0  0  0  0  0  0  0  0  0
   38.3580   29.7320   43.8040 C   0  0  0  0  0  0  0  0  0  0  0  0
   39.2950   30.0550   44.7650 C   0  0  0  0  0  0  0  0  0  0  0  0
   35.9670   29.6640   48.6040 C   0  0  1  0  0  0  0  0  0  0  0  0
   36.3990   28.7380   49.3850 O   0  0  0  0  0  0  0  0  0  0  0  0
   33.0150   30.5370   46.6950 C   0  0  0  0  0  0  0  0  0  0  0  0
   32.5600   29.3050   46.1880 C   0  0  0  0  0  0  0  0  0  0  0  0
   33.2800   28.1580   46.5160 C   0  0  0  0  0  0  0  0  0  0  0  0
   34.3960   28.2630   47.3120 N   0  0  0  0  0  0  0  0  0  0  0  0
   34.7940   29.4440   47.7690 C   0  0  0  0  0  0  0  0  0  0  0  0
   34.1010   30.5640   47.4580 N   0  0  0  0  0  0  0  0  0  0  0  0
   32.4050   31.3770   46.3970 H   0  0  0  0  0  0  0  0  0  0  0  0
   31.6910   29.1620   45.5590 H   0  0  0  0  0  0  0  0  0  0  0  0
   32.9620   27.1800   46.1470 H   0  0  0  0  0  0  0  0  0  0  0  0
  1  2  1  0  0  0  0
  2  3  2  0  0  0  0
  2  7  1  0  0  0  0
  3  8  1  0  0  0  0
  4  9  1  0  0  0  0
  4  3  1  0  0  0  0
  5  4  2  0  0  0  0
  6  5  1  0  0  0  0
  6  1  2  0  0  0  0
 10  5  1  0  0  0  0
 12 13  1  0  0  0  0
 12 11  1  0  0  0  0
 13  6  1  0  0  0  0
 14 15  1  0  0  0  0
 14 13  2  0  0  0  0
 16 14  1  0  0  0  0
 17 16  1  0  0  0  0
 18 16  2  0  0  0  0
 18 19  1  0  0  0  0
 19 12  2  0  0  0  0
 20  1  1  0  0  0  0
 20 21  1  1  0  0  0
 22 27  1  0  0  0  0
 23 24  1  0  0  0  0
 23 22  2  0  0  0  0
 24 25  2  0  0  0  0
 25 26  1  0  0  0  0
 26 20  1  0  0  0  0
 27 26  2  0  0  0  0
 28 22  1  0  0  0  0
 29 23  1  0  0  0  0
 30 24  1  0  0  0  0
M  END
>  <minimizedAffinity>
-5.58150625

>  <minimizedRMSD>
1.59731245

$$$$
