
 OpenBabel03272506003D

 44 47  0  0  1  0  0  0  0  0999 V2000
   39.8380   24.8490   35.5200 C   0  0  2  0  0  0  0  0  0  0  0  0
   38.7270   24.3660   34.6700 C   0  0  0  0  0  0  0  0  0  0  0  0
   38.9060   24.7380   33.1910 C   0  0  2  0  0  0  0  0  0  0  0  0
   39.0890   26.1690   32.9480 C   0  0  0  0  0  0  0  0  0  0  0  0
   39.9490   26.8590   34.0010 C   0  0  0  0  0  0  0  0  0  0  0  0
   40.7150   25.8680   34.8280 C   0  0  0  0  0  0  0  0  0  0  0  0
   39.4870   25.3790   36.4570 H   0  0  0  0  0  0  0  0  0  0  0  0
   38.4350   23.3470   34.6380 H   0  0  0  0  0  0  0  0  0  0  0  0
   37.8200   24.9930   34.9690 H   0  0  0  0  0  0  0  0  0  0  0  0
   39.7320   24.1290   32.7960 H   0  0  0  0  0  0  0  0  0  0  0  0
   38.1280   26.7160   32.9630 H   0  0  0  0  0  0  0  0  0  0  0  0
   39.4990   26.3210   31.9280 H   0  0  0  0  0  0  0  0  0  0  0  0
   40.7050   27.4550   33.4480 H   0  0  0  0  0  0  0  0  0  0  0  0
   39.3960   27.5740   34.6200 H   0  0  0  0  0  0  0  0  0  0  0  0
   41.2720   26.4250   35.6030 H   0  0  0  0  0  0  0  0  0  0  0  0
   41.4870   25.3550   34.2140 H   0  0  0  0  0  0  0  0  0  0  0  0
   38.6080   21.8040   33.0730 Cl  0  0  0  0  0  0  0  0  0  0  0  0
   37.4110   22.9050   32.4050 C   0  0  0  0  0  0  0  0  0  0  0  0
   37.6440   24.2620   32.5510 C   0  0  0  0  0  0  0  0  0  0  0  0
   36.6440   25.0370   32.0150 C   0  0  0  0  0  0  0  0  0  0  0  0
   35.5270   24.5090   31.3970 C   0  0  0  0  0  0  0  0  0  0  0  0
   35.3720   23.1320   31.2930 C   0  0  0  0  0  0  0  0  0  0  0  0
   36.3540   22.3030   31.8190 C   0  0  0  0  0  0  0  0  0  0  0  0
   36.7520   26.1120   32.0940 H   0  0  0  0  0  0  0  0  0  0  0  0
   34.7990   25.2220   31.0080 H   0  0  0  0  0  0  0  0  0  0  0  0
   34.4860   22.7560   30.8030 H   0  0  0  0  0  0  0  0  0  0  0  0
   35.1490   21.0320   33.9230 F   0  0  0  0  0  0  0  0  0  0  0  0
   35.5680   20.3120   32.8370 C   0  0  0  0  0  0  0  0  0  0  0  0
   36.1930   20.8560   31.7110 C   0  0  0  0  0  0  0  0  0  0  0  0
   36.5710   20.0520   30.6810 C   0  0  0  0  0  0  0  0  0  0  0  0
   37.0370   20.5700   29.8760 H   0  0  0  0  0  0  0  0  0  0  0  0
   36.3360   18.6800   30.7470 C   0  0  0  0  0  0  0  0  0  0  0  0
   36.6530   18.0820   29.9090 H   0  0  0  0  0  0  0  0  0  0  0  0
   35.7130   18.1380   31.8690 C   0  0  0  0  0  3  0  0  0  0  0  0
   35.3360   18.9510   32.8980 C   0  0  0  0  0  3  0  0  0  0  0  0
   40.7160   23.7700   36.0000 C   0  0  0  0  0  0  0  0  0  0  0  0
   42.0330   23.8320   35.5430 C   0  0  0  0  0  0  0  0  0  0  0  0
   42.9160   22.8350   35.9830 C   0  0  0  0  0  0  0  0  0  0  0  0
   42.4460   21.8480   36.8400 N   0  0  0  0  0  0  0  0  0  0  0  0
   41.1660   21.8310   37.2510 C   0  0  0  0  0  0  0  0  0  0  0  0
   40.3390   22.7880   36.8210 N   0  0  0  0  0  0  0  0  0  0  0  0
   42.6550   24.4330   34.9080 H   0  0  0  0  0  0  0  0  0  0  0  0
   43.9520   22.6510   35.7920 H   0  0  0  0  0  0  0  0  0  0  0  0
   40.7870   21.0740   37.9120 H   0  0  0  0  0  0  0  0  0  0  0  0
  1 36  1  0  0  0  0
  1  7  1  1  0  0  0
  2  9  1  0  0  0  0
  2  1  1  0  0  0  0
  3 10  1  6  0  0  0
  3  2  1  0  0  0  0
  4 11  1  0  0  0  0
  4  3  1  0  0  0  0
  4  5  1  0  0  0  0
  5 14  1  0  0  0  0
  5  6  1  0  0  0  0
  6  1  1  0  0  0  0
  6 15  1  0  0  0  0
  8  2  1  0  0  0  0
 12  4  1  0  0  0  0
 13  5  1  0  0  0  0
 16  6  1  0  0  0  0
 18 19  1  0  0  0  0
 18 17  1  0  0  0  0
 19  3  1  0  0  0  0
 20 24  1  0  0  0  0
 20 19  2  0  0  0  0
 21 20  1  0  0  0  0
 22 21  2  0  0  0  0
 22 23  1  0  0  0  0
 23 18  2  0  0  0  0
 25 21  1  0  0  0  0
 26 22  1  0  0  0  0
 28 35  1  0  0  0  0
 28 27  1  0  0  0  0
 29 23  1  0  0  0  0
 29 28  2  0  0  0  0
 30 32  2  0  0  0  0
 30 29  1  0  0  0  0
 31 30  1  0  0  0  0
 32 34  1  0  0  0  0
 33 32  1  0  0  0  0
 34 35  2  0  0  0  0
 36 41  1  0  0  0  0
 37 38  1  0  0  0  0
 37 36  2  0  0  0  0
 38 39  2  0  0  0  0
 39 40  1  0  0  0  0
 40 44  1  0  0  0  0
 41 40  2  0  0  0  0
 42 37  1  0  0  0  0
 43 38  1  0  0  0  0
M  END
>  <minimizedAffinity>
-6.28749561

$$$$

 OpenBabel03272506003D

 44 47  0  0  1  0  0  0  0  0999 V2000
   37.7770   24.6100   33.5660 C   0  0  2  0  0  0  0  0  0  0  0  0
   37.1000   25.8530   33.1340 C   0  0  0  0  0  0  0  0  0  0  0  0
   38.0440   26.8170   32.3980 C   0  0  2  0  0  0  0  0  0  0  0  0
   39.2430   27.1790   33.1530 C   0  0  0  0  0  0  0  0  0  0  0  0
   39.8320   26.0200   33.9490 C   0  0  0  0  0  0  0  0  0  0  0  0
   39.2850   24.6980   33.4940 C   0  0  0  0  0  0  0  0  0  0  0  0
   37.5690   24.3390   34.6450 H   0  0  0  0  0  0  0  0  0  0  0  0
   36.2290   25.8480   32.5300 H   0  0  0  0  0  0  0  0  0  0  0  0
   36.8720   26.4250   34.0950 H   0  0  0  0  0  0  0  0  0  0  0  0
   38.2730   26.3710   31.4200 H   0  0  0  0  0  0  0  0  0  0  0  0
   39.0370   27.9640   33.9040 H   0  0  0  0  0  0  0  0  0  0  0  0
   39.9930   27.6200   32.4640 H   0  0  0  0  0  0  0  0  0  0  0  0
   40.9190   26.0030   33.7210 H   0  0  0  0  0  0  0  0  0  0  0  0
   39.7540   26.1480   35.0340 H   0  0  0  0  0  0  0  0  0  0  0  0
   39.7080   23.9100   34.1420 H   0  0  0  0  0  0  0  0  0  0  0  0
   39.6340   24.4610   32.4660 H   0  0  0  0  0  0  0  0  0  0  0  0
   36.9500   28.0680   34.8380 Cl  0  0  0  0  0  0  0  0  0  0  0  0
   36.6010   28.6740   33.2250 C   0  0  0  0  0  0  0  0  0  0  0  0
   37.1990   28.0240   32.1590 C   0  0  0  0  0  0  0  0  0  0  0  0
   36.8810   28.5850   30.9440 C   0  0  0  0  0  0  0  0  0  0  0  0
   36.0500   29.6800   30.8120 C   0  0  0  0  0  0  0  0  0  0  0  0
   35.4890   30.2730   31.9380 C   0  0  0  0  0  0  0  0  0  0  0  0
   35.7800   29.7450   33.1890 C   0  0  0  0  0  0  0  0  0  0  0  0
   37.3150   28.1340   30.0600 H   0  0  0  0  0  0  0  0  0  0  0  0
   35.8690   30.0380   29.7980 H   0  0  0  0  0  0  0  0  0  0  0  0
   34.8450   31.1270   31.7940 H   0  0  0  0  0  0  0  0  0  0  0  0
   33.1980   29.0630   33.7920 F   0  0  0  0  0  0  0  0  0  0  0  0
   33.8750   29.9480   34.5860 C   0  0  0  0  0  0  0  0  0  0  0  0
   35.1920   30.3660   34.3730 C   0  0  0  0  0  0  0  0  0  0  0  0
   35.7770   31.2520   35.2230 C   0  0  0  0  0  0  0  0  0  0  0  0
   36.7800   31.5010   34.9670 H   0  0  0  0  0  0  0  0  0  0  0  0
   35.0620   31.7460   36.3120 C   0  0  0  0  0  0  0  0  0  0  0  0
   35.5640   32.4460   36.9600 H   0  0  0  0  0  0  0  0  0  0  0  0
   33.7490   31.3300   36.5250 C   0  0  0  0  0  3  0  0  0  0  0  0
   33.1700   30.4410   35.6670 C   0  0  0  0  0  3  0  0  0  0  0  0
   37.3710   23.4260   32.7920 C   0  0  0  0  0  0  0  0  0  0  0  0
   36.3190   23.6370   31.8980 C   0  0  0  0  0  0  0  0  0  0  0  0
   35.9020   22.5440   31.1250 C   0  0  0  0  0  0  0  0  0  0  0  0
   36.5440   21.3230   31.2810 N   0  0  0  0  0  0  0  0  0  0  0  0
   37.5520   21.1700   32.1570 C   0  0  0  0  0  0  0  0  0  0  0  0
   37.9370   22.2220   32.8860 N   0  0  0  0  0  0  0  0  0  0  0  0
   35.6580   24.4190   31.5770 H   0  0  0  0  0  0  0  0  0  0  0  0
   35.1400   22.4320   30.3820 H   0  0  0  0  0  0  0  0  0  0  0  0
   38.0590   20.2320   32.2900 H   0  0  0  0  0  0  0  0  0  0  0  0
  1  7  1  1  0  0  0
  2  1  1  0  0  0  0
  2  9  1  0  0  0  0
  3 10  1  6  0  0  0
  3  2  1  0  0  0  0
  3  4  1  0  0  0  0
  4 11  1  0  0  0  0
  4  5  1  0  0  0  0
  5 14  1  0  0  0  0
  6  1  1  0  0  0  0
  6  5  1  0  0  0  0
  6 15  1  0  0  0  0
  8  2  1  0  0  0  0
 12  4  1  0  0  0  0
 13  5  1  0  0  0  0
 16  6  1  0  0  0  0
 18 17  1  0  0  0  0
 19  3  1  0  0  0  0
 19 18  2  0  0  0  0
 20 19  1  0  0  0  0
 21 20  2  0  0  0  0
 21 22  1  0  0  0  0
 22 23  2  0  0  0  0
 23 18  1  0  0  0  0
 23 29  1  0  0  0  0
 24 20  1  0  0  0  0
 25 21  1  0  0  0  0
 26 22  1  0  0  0  0
 27 28  1  0  0  0  0
 28 35  1  0  0  0  0
 29 28  2  0  0  0  0
 29 30  1  0  0  0  0
 30 32  2  0  0  0  0
 31 30  1  0  0  0  0
 32 34  1  0  0  0  0
 32 33  1  0  0  0  0
 35 34  2  0  0  0  0
 36 41  1  0  0  0  0
 36  1  1  0  0  0  0
 37 36  2  0  0  0  0
 38 39  2  0  0  0  0
 38 37  1  0  0  0  0
 39 40  1  0  0  0  0
 40 44  1  0  0  0  0
 40 41  2  0  0  0  0
 42 37  1  0  0  0  0
 43 38  1  0  0  0  0
M  END
>  <minimizedAffinity>
-6.18271732

$$$$

 OpenBabel03272506003D

 44 47  0  0  1  0  0  0  0  0999 V2000
   38.6940   25.4300   33.2860 C   0  0  2  0  0  0  0  0  0  0  0  0
   38.1650   26.8090   33.1960 C   0  0  0  0  0  0  0  0  0  0  0  0
   36.9370   26.9140   32.2780 C   0  0  2  0  0  0  0  0  0  0  0  0
   37.1540   26.4100   30.9220 C   0  0  0  0  0  0  0  0  0  0  0  0
   38.0180   25.1550   30.8720 C   0  0  0  0  0  0  0  0  0  0  0  0
   38.1400   24.5100   32.2220 C   0  0  0  0  0  0  0  0  0  0  0  0
   39.8160   25.3710   33.1420 H   0  0  0  0  0  0  0  0  0  0  0  0
   37.8860   27.3700   34.0510 H   0  0  0  0  0  0  0  0  0  0  0  0
   38.9510   27.4000   32.6160 H   0  0  0  0  0  0  0  0  0  0  0  0
   36.1000   26.4180   32.7900 H   0  0  0  0  0  0  0  0  0  0  0  0
   37.6830   27.1450   30.2880 H   0  0  0  0  0  0  0  0  0  0  0  0
   36.1730   26.2460   30.4290 H   0  0  0  0  0  0  0  0  0  0  0  0
   37.4810   24.4300   30.2260 H   0  0  0  0  0  0  0  0  0  0  0  0
   38.9940   25.3130   30.4000 H   0  0  0  0  0  0  0  0  0  0  0  0
   38.8180   23.6430   32.1280 H   0  0  0  0  0  0  0  0  0  0  0  0
   37.1630   24.0920   32.5480 H   0  0  0  0  0  0  0  0  0  0  0  0
   35.8490   28.0170   34.7900 Cl  0  0  0  0  0  0  0  0  0  0  0  0
   36.0950   28.9990   33.3540 C   0  0  0  0  0  0  0  0  0  0  0  0
   36.6440   28.3780   32.2450 C   0  0  0  0  0  0  0  0  0  0  0  0
   36.8160   29.2330   31.1830 C   0  0  0  0  0  0  0  0  0  0  0  0
   36.4730   30.5700   31.2260 C   0  0  0  0  0  0  0  0  0  0  0  0
   35.9250   31.1150   32.3820 C   0  0  0  0  0  0  0  0  0  0  0  0
   35.7320   30.2930   33.4850 C   0  0  0  0  0  0  0  0  0  0  0  0
   37.2460   28.8210   30.2780 H   0  0  0  0  0  0  0  0  0  0  0  0
   36.6540   31.1510   30.3210 H   0  0  0  0  0  0  0  0  0  0  0  0
   35.6700   32.1630   32.3770 H   0  0  0  0  0  0  0  0  0  0  0  0
   33.0190   30.0810   33.7880 F   0  0  0  0  0  0  0  0  0  0  0  0
   33.7690   30.6990   34.7510 C   0  0  0  0  0  0  0  0  0  0  0  0
   35.1570   30.8630   34.7000 C   0  0  0  0  0  0  0  0  0  0  0  0
   35.8110   31.4930   35.7120 C   0  0  0  0  0  0  0  0  0  0  0  0
   36.8640   31.5630   35.5700 H   0  0  0  0  0  0  0  0  0  0  0  0
   35.0970   31.9790   36.8060 C   0  0  0  0  0  0  0  0  0  0  0  0
   35.6560   32.4720   37.5840 H   0  0  0  0  0  0  0  0  0  0  0  0
   33.7140   31.8150   36.8570 C   0  0  0  0  0  3  0  0  0  0  0  0
   33.0660   31.1810   35.8380 C   0  0  0  0  0  3  0  0  0  0  0  0
   38.4440   24.7940   34.5890 C   0  0  0  0  0  0  0  0  0  0  0  0
   38.3500   25.6740   35.6680 C   0  0  0  0  0  0  0  0  0  0  0  0
   38.0970   25.1210   36.9310 C   0  0  0  0  0  0  0  0  0  0  0  0
   37.9550   23.7440   37.0480 N   0  0  0  0  0  0  0  0  0  0  0  0
   38.0560   22.9380   35.9780 C   0  0  0  0  0  0  0  0  0  0  0  0
   38.2970   23.4820   34.7820 N   0  0  0  0  0  0  0  0  0  0  0  0
   38.4170   26.7240   35.8800 H   0  0  0  0  0  0  0  0  0  0  0  0
   37.9800   25.5560   37.9010 H   0  0  0  0  0  0  0  0  0  0  0  0
   37.9490   21.8710   36.0520 H   0  0  0  0  0  0  0  0  0  0  0  0
  1  7  1  6  0  0  0
  1 36  1  0  0  0  0
  2  1  1  0  0  0  0
  2  8  1  0  0  0  0
  3 10  1  1  0  0  0
  3  2  1  0  0  0  0
  4  3  1  0  0  0  0
  5  4  1  0  0  0  0
  5  6  1  0  0  0  0
  6 16  1  0  0  0  0
  6  1  1  0  0  0  0
  9  2  1  0  0  0  0
 11  4  1  0  0  0  0
 12  4  1  0  0  0  0
 13  5  1  0  0  0  0
 14  5  1  0  0  0  0
 15  6  1  0  0  0  0
 18 23  1  0  0  0  0
 18 17  1  0  0  0  0
 19  3  1  0  0  0  0
 19 18  2  0  0  0  0
 20 21  2  0  0  0  0
 20 19  1  0  0  0  0
 21 22  1  0  0  0  0
 22 23  2  0  0  0  0
 23 29  1  0  0  0  0
 24 20  1  0  0  0  0
 25 21  1  0  0  0  0
 26 22  1  0  0  0  0
 27 28  1  0  0  0  0
 28 35  1  0  0  0  0
 29 28  2  0  0  0  0
 29 30  1  0  0  0  0
 30 32  2  0  0  0  0
 31 30  1  0  0  0  0
 32 34  1  0  0  0  0
 32 33  1  0  0  0  0
 35 34  2  0  0  0  0
 36 41  2  0  0  0  0
 36 37  1  0  0  0  0
 37 42  1  0  0  0  0
 37 38  2  0  0  0  0
 38 39  1  0  0  0  0
 38 43  1  0  0  0  0
 40 44  1  0  0  0  0
 40 39  2  0  0  0  0
 41 40  1  0  0  0  0
M  END
>  <minimizedAffinity>
-6.1730752

$$$$

 OpenBabel03272506003D

 44 47  0  0  1  0  0  0  0  0999 V2000
   35.0170   29.7730   32.9300 C   0  0  2  0  0  0  0  0  0  0  0  0
   35.4090   28.3480   33.0180 C   0  0  0  0  0  0  0  0  0  0  0  0
   36.8890   28.1180   32.6750 C   0  0  2  0  0  0  0  0  0  0  0  0
   37.2900   28.6300   31.3650 C   0  0  0  0  0  0  0  0  0  0  0  0
   36.6390   29.9610   31.0080 C   0  0  0  0  0  0  0  0  0  0  0  0
   36.0380   30.6270   32.2120 C   0  0  0  0  0  0  0  0  0  0  0  0
   34.0610   29.9380   32.3450 H   0  0  0  0  0  0  0  0  0  0  0  0
   35.2630   27.7700   33.8950 H   0  0  0  0  0  0  0  0  0  0  0  0
   34.8770   27.8310   32.1510 H   0  0  0  0  0  0  0  0  0  0  0  0
   37.4860   28.5360   33.4980 H   0  0  0  0  0  0  0  0  0  0  0  0
   37.0000   27.9440   30.5480 H   0  0  0  0  0  0  0  0  0  0  0  0
   38.3970   28.6940   31.3170 H   0  0  0  0  0  0  0  0  0  0  0  0
   37.4560   30.6270   30.6590 H   0  0  0  0  0  0  0  0  0  0  0  0
   35.9300   29.8940   30.1760 H   0  0  0  0  0  0  0  0  0  0  0  0
   35.5380   31.5540   31.8780 H   0  0  0  0  0  0  0  0  0  0  0  0
   36.8310   30.9510   32.9190 H   0  0  0  0  0  0  0  0  0  0  0  0
   38.0670   27.0600   35.1660 Cl  0  0  0  0  0  0  0  0  0  0  0  0
   37.6100   26.0250   33.8200 C   0  0  0  0  0  0  0  0  0  0  0  0
   37.0350   26.6330   32.7180 C   0  0  0  0  0  0  0  0  0  0  0  0
   36.6950   25.7390   31.7310 C   0  0  0  0  0  0  0  0  0  0  0  0
   36.9090   24.3790   31.8370 C   0  0  0  0  0  0  0  0  0  0  0  0
   37.4940   23.8500   32.9810 C   0  0  0  0  0  0  0  0  0  0  0  0
   37.8560   24.7110   34.0100 C   0  0  0  0  0  0  0  0  0  0  0  0
   36.2340   26.1390   30.8360 H   0  0  0  0  0  0  0  0  0  0  0  0
   36.5990   23.7670   30.9890 H   0  0  0  0  0  0  0  0  0  0  0  0
   37.6460   22.7830   33.0280 H   0  0  0  0  0  0  0  0  0  0  0  0
   40.5330   24.1520   33.8870 F   0  0  0  0  0  0  0  0  0  0  0  0
   39.8360   23.9110   35.0390 C   0  0  0  0  0  0  0  0  0  0  0  0
   38.4700   24.1580   35.2130 C   0  0  0  0  0  0  0  0  0  0  0  0
   37.8700   23.8830   36.4020 C   0  0  0  0  0  0  0  0  0  0  0  0
   36.8290   24.1100   36.4240 H   0  0  0  0  0  0  0  0  0  0  0  0
   38.6160   23.3540   37.4520 C   0  0  0  0  0  0  0  0  0  0  0  0
   38.0990   23.1510   38.3760 H   0  0  0  0  0  0  0  0  0  0  0  0
   39.9760   23.1080   37.2800 C   0  0  0  0  0  3  0  0  0  0  0  0
   40.5720   23.3860   36.0840 C   0  0  0  0  0  3  0  0  0  0  0  0
   34.7720   30.3930   34.2410 C   0  0  0  0  0  0  0  0  0  0  0  0
   35.8880   30.9870   34.8320 C   0  0  0  0  0  0  0  0  0  0  0  0
   35.7070   31.6050   36.0770 C   0  0  0  0  0  0  0  0  0  0  0  0
   34.4440   31.5990   36.6550 N   0  0  0  0  0  0  0  0  0  0  0  0
   33.3990   31.0110   36.0470 C   0  0  0  0  0  0  0  0  0  0  0  0
   33.5910   30.4260   34.8610 N   0  0  0  0  0  0  0  0  0  0  0  0
   36.9340   31.1400   34.6440 H   0  0  0  0  0  0  0  0  0  0  0  0
   36.3750   32.1230   36.7320 H   0  0  0  0  0  0  0  0  0  0  0  0
   32.4170   30.9960   36.4810 H   0  0  0  0  0  0  0  0  0  0  0  0
  1  7  1  6  0  0  0
  1  2  1  0  0  0  0
  1 36  1  0  0  0  0
  2  8  1  0  0  0  0
  3 19  1  0  0  0  0
  3  2  1  0  0  0  0
  3 10  1  1  0  0  0
  4  3  1  0  0  0  0
  5  4  1  0  0  0  0
  5  6  1  0  0  0  0
  6 16  1  0  0  0  0
  6  1  1  0  0  0  0
  9  2  1  0  0  0  0
 11  4  1  0  0  0  0
 12  4  1  0  0  0  0
 13  5  1  0  0  0  0
 14  5  1  0  0  0  0
 15  6  1  0  0  0  0
 18 23  1  0  0  0  0
 18 17  1  0  0  0  0
 19 18  2  0  0  0  0
 20 21  2  0  0  0  0
 20 19  1  0  0  0  0
 21 22  1  0  0  0  0
 22 26  1  0  0  0  0
 22 23  2  0  0  0  0
 23 29  1  0  0  0  0
 24 20  1  0  0  0  0
 25 21  1  0  0  0  0
 27 28  1  0  0  0  0
 28 29  2  0  0  0  0
 28 35  1  0  0  0  0
 29 30  1  0  0  0  0
 30 31  1  0  0  0  0
 30 32  2  0  0  0  0
 32 33  1  0  0  0  0
 34 32  1  0  0  0  0
 35 34  2  0  0  0  0
 36 37  2  0  0  0  0
 36 41  1  0  0  0  0
 37 38  1  0  0  0  0
 38 39  2  0  0  0  0
 38 43  1  0  0  0  0
 40 44  1  0  0  0  0
 40 39  1  0  0  0  0
 41 40  2  0  0  0  0
 42 37  1  0  0  0  0
M  END
>  <minimizedAffinity>
-6.10739946

$$$$

 OpenBabel03272506003D

 44 47  0  0  1  0  0  0  0  0999 V2000
   35.1090   31.5450   35.9430 C   0  0  2  0  0  0  0  0  0  0  0  0
   35.7370   30.9250   34.7550 C   0  0  0  0  0  0  0  0  0  0  0  0
   34.7180   30.5750   33.6600 C   0  0  2  0  0  0  0  0  0  0  0  0
   33.6230   29.7150   34.1090 C   0  0  0  0  0  0  0  0  0  0  0  0
   33.1270   30.0460   35.5120 C   0  0  0  0  0  0  0  0  0  0  0  0
   33.6040   31.3950   35.9660 C   0  0  0  0  0  0  0  0  0  0  0  0
   35.4460   31.0820   36.9200 H   0  0  0  0  0  0  0  0  0  0  0  0
   36.5280   31.3870   34.2210 H   0  0  0  0  0  0  0  0  0  0  0  0
   36.0870   29.8930   35.0980 H   0  0  0  0  0  0  0  0  0  0  0  0
   34.3670   31.5210   33.2230 H   0  0  0  0  0  0  0  0  0  0  0  0
   33.9260   28.6530   34.1580 H   0  0  0  0  0  0  0  0  0  0  0  0
   32.7970   29.7520   33.3680 H   0  0  0  0  0  0  0  0  0  0  0  0
   32.0210   30.1120   35.4460 H   0  0  0  0  0  0  0  0  0  0  0  0
   33.3390   29.2630   36.2480 H   0  0  0  0  0  0  0  0  0  0  0  0
   33.2590   31.5500   37.0040 H   0  0  0  0  0  0  0  0  0  0  0  0
   33.1300   32.2020   35.3680 H   0  0  0  0  0  0  0  0  0  0  0  0
   36.2400   28.2480   34.6520 Cl  0  0  0  0  0  0  0  0  0  0  0  0
   36.3220   28.7910   32.9820 C   0  0  0  0  0  0  0  0  0  0  0  0
   35.5360   29.8740   32.6260 C   0  0  0  0  0  0  0  0  0  0  0  0
   35.6550   30.2080   31.2980 C   0  0  0  0  0  0  0  0  0  0  0  0
   36.4750   29.5290   30.4190 C   0  0  0  0  0  0  0  0  0  0  0  0
   37.2320   28.4500   30.8600 C   0  0  0  0  0  0  0  0  0  0  0  0
   37.1480   28.0710   32.1930 C   0  0  0  0  0  0  0  0  0  0  0  0
   35.0660   31.0440   30.9410 H   0  0  0  0  0  0  0  0  0  0  0  0
   36.4880   29.8840   29.3880 H   0  0  0  0  0  0  0  0  0  0  0  0
   37.8610   27.9440   30.1430 H   0  0  0  0  0  0  0  0  0  0  0  0
   35.9790   25.6000   32.0550 F   0  0  0  0  0  0  0  0  0  0  0  0
   37.2510   25.7290   32.5430 C   0  0  0  0  0  0  0  0  0  0  0  0
   37.9430   26.9390   32.6590 C   0  0  0  0  0  0  0  0  0  0  0  0
   39.2080   26.9600   33.1590 C   0  0  0  0  0  0  0  0  0  0  0  0
   39.6400   27.9320   33.2020 H   0  0  0  0  0  0  0  0  0  0  0  0
   39.8180   25.7730   33.5580 C   0  0  0  0  0  0  0  0  0  0  0  0
   40.8200   25.8360   33.9480 H   0  0  0  0  0  0  0  0  0  0  0  0
   39.1290   24.5670   33.4430 C   0  0  0  0  0  3  0  0  0  0  0  0
   37.8600   24.5540   32.9400 C   0  0  0  0  0  3  0  0  0  0  0  0
   35.4080   32.9790   36.0790 C   0  0  0  0  0  0  0  0  0  0  0  0
   36.5730   33.4030   35.4370 C   0  0  0  0  0  0  0  0  0  0  0  0
   36.8980   34.7640   35.5230 C   0  0  0  0  0  0  0  0  0  0  0  0
   36.0570   35.6140   36.2300 N   0  0  0  0  0  0  0  0  0  0  0  0
   34.9460   35.1570   36.8320 C   0  0  0  0  0  0  0  0  0  0  0  0
   34.6530   33.8570   36.7400 N   0  0  0  0  0  0  0  0  0  0  0  0
   37.3810   33.0050   34.8540 H   0  0  0  0  0  0  0  0  0  0  0  0
   37.7100   35.3400   35.1340 H   0  0  0  0  0  0  0  0  0  0  0  0
   34.2860   35.8010   37.3840 H   0  0  0  0  0  0  0  0  0  0  0  0
  1  6  1  0  0  0  0
  1 36  1  0  0  0  0
  1  7  1  1  0  0  0
  2  9  1  0  0  0  0
  2  1  1  0  0  0  0
  3 10  1  6  0  0  0
  3  4  1  0  0  0  0
  3  2  1  0  0  0  0
  4 11  1  0  0  0  0
  4  5  1  0  0  0  0
  5  6  1  0  0  0  0
  5 14  1  0  0  0  0
  6 15  1  0  0  0  0
  8  2  1  0  0  0  0
 12  4  1  0  0  0  0
 13  5  1  0  0  0  0
 16  6  1  0  0  0  0
 18 17  1  0  0  0  0
 19 18  1  0  0  0  0
 19  3  1  0  0  0  0
 20 19  2  0  0  0  0
 21 22  2  0  0  0  0
 21 20  1  0  0  0  0
 22 23  1  0  0  0  0
 23 29  1  0  0  0  0
 23 18  2  0  0  0  0
 24 20  1  0  0  0  0
 25 21  1  0  0  0  0
 26 22  1  0  0  0  0
 27 28  1  0  0  0  0
 28 29  2  0  0  0  0
 28 35  1  0  0  0  0
 29 30  1  0  0  0  0
 30 31  1  0  0  0  0
 30 32  2  0  0  0  0
 32 33  1  0  0  0  0
 34 32  1  0  0  0  0
 35 34  2  0  0  0  0
 36 41  1  0  0  0  0
 37 38  1  0  0  0  0
 37 36  2  0  0  0  0
 38 39  2  0  0  0  0
 39 40  1  0  0  0  0
 40 44  1  0  0  0  0
 41 40  2  0  0  0  0
 42 37  1  0  0  0  0
 43 38  1  0  0  0  0
M  END
>  <minimizedAffinity>
-6.10520983

$$$$

 OpenBabel03272506003D

 44 47  0  0  1  0  0  0  0  0999 V2000
   32.6720   30.6480   35.5340 C   0  0  2  0  0  0  0  0  0  0  0  0
   33.4380   30.3180   34.3120 C   0  0  0  0  0  0  0  0  0  0  0  0
   34.9550   30.2870   34.5530 C   0  0  2  0  0  0  0  0  0  0  0  0
   35.4990   31.5180   35.1250 C   0  0  0  0  0  0  0  0  0  0  0  0
   34.5910   32.1570   36.1690 C   0  0  0  0  0  0  0  0  0  0  0  0
   33.5350   31.2020   36.6460 C   0  0  0  0  0  0  0  0  0  0  0  0
   31.8900   31.4510   35.3690 H   0  0  0  0  0  0  0  0  0  0  0  0
   33.2570   29.4410   33.7450 H   0  0  0  0  0  0  0  0  0  0  0  0
   33.3210   31.2230   33.6260 H   0  0  0  0  0  0  0  0  0  0  0  0
   35.1720   29.3990   35.1650 H   0  0  0  0  0  0  0  0  0  0  0  0
   35.6440   32.3010   34.3570 H   0  0  0  0  0  0  0  0  0  0  0  0
   36.5110   31.3180   35.5360 H   0  0  0  0  0  0  0  0  0  0  0  0
   35.2300   32.3790   37.0480 H   0  0  0  0  0  0  0  0  0  0  0  0
   34.1670   33.1170   35.8540 H   0  0  0  0  0  0  0  0  0  0  0  0
   32.8810   31.7390   37.3550 H   0  0  0  0  0  0  0  0  0  0  0  0
   33.9900   30.3710   37.2270 H   0  0  0  0  0  0  0  0  0  0  0  0
   36.5340   27.8080   34.2840 Cl  0  0  0  0  0  0  0  0  0  0  0  0
   36.3150   28.9400   32.9570 C   0  0  0  0  0  0  0  0  0  0  0  0
   35.5240   30.0510   33.1940 C   0  0  0  0  0  0  0  0  0  0  0  0
   35.3980   30.8620   32.0910 C   0  0  0  0  0  0  0  0  0  0  0  0
   36.0000   30.5890   30.8790 C   0  0  0  0  0  0  0  0  0  0  0  0
   36.7800   29.4480   30.7270 C   0  0  0  0  0  0  0  0  0  0  0  0
   36.9400   28.5950   31.8100 C   0  0  0  0  0  0  0  0  0  0  0  0
   34.7880   31.7520   32.1960 H   0  0  0  0  0  0  0  0  0  0  0  0
   35.8290   31.3050   30.0740 H   0  0  0  0  0  0  0  0  0  0  0  0
   37.2340   29.2680   29.7650 H   0  0  0  0  0  0  0  0  0  0  0  0
   35.6810   26.3520   30.8740 F   0  0  0  0  0  0  0  0  0  0  0  0
   37.0160   26.3140   31.1700 C   0  0  0  0  0  0  0  0  0  0  0  0
   37.7580   27.3960   31.6530 C   0  0  0  0  0  0  0  0  0  0  0  0
   39.0840   27.2550   31.9170 C   0  0  0  0  0  0  0  0  0  0  0  0
   39.5510   28.1410   32.2800 H   0  0  0  0  0  0  0  0  0  0  0  0
   39.7090   26.0270   31.7070 C   0  0  0  0  0  0  0  0  0  0  0  0
   40.7610   25.9600   31.9300 H   0  0  0  0  0  0  0  0  0  0  0  0
   38.9700   24.9480   31.2250 C   0  0  0  0  0  3  0  0  0  0  0  0
   37.6400   25.0980   30.9620 C   0  0  0  0  0  3  0  0  0  0  0  0
   31.9310   29.5020   36.0850 C   0  0  0  0  0  0  0  0  0  0  0  0
   31.3720   28.6480   35.1330 C   0  0  0  0  0  0  0  0  0  0  0  0
   30.6670   27.5310   35.6040 C   0  0  0  0  0  0  0  0  0  0  0  0
   30.5590   27.3300   36.9740 N   0  0  0  0  0  0  0  0  0  0  0  0
   31.1150   28.1840   37.8520 C   0  0  0  0  0  0  0  0  0  0  0  0
   31.7820   29.2430   37.3850 N   0  0  0  0  0  0  0  0  0  0  0  0
   31.2850   28.5480   34.0680 H   0  0  0  0  0  0  0  0  0  0  0  0
   30.1540   26.7360   35.1060 H   0  0  0  0  0  0  0  0  0  0  0  0
   31.0390   28.0440   38.9140 H   0  0  0  0  0  0  0  0  0  0  0  0
  1  7  1  6  0  0  0
  1 36  1  0  0  0  0
  1  6  1  0  0  0  0
  2  3  1  0  0  0  0
  2  1  1  0  0  0  0
  3  4  1  0  0  0  0
  3 10  1  1  0  0  0
  4 12  1  0  0  0  0
  4  5  1  0  0  0  0
  5  6  1  0  0  0  0
  5 13  1  0  0  0  0
  6 16  1  0  0  0  0
  6 15  1  0  0  0  0
  8  2  1  0  0  0  0
  9  2  1  0  0  0  0
 11  4  1  0  0  0  0
 14  5  1  0  0  0  0
 18 19  1  0  0  0  0
 18 17  1  0  0  0  0
 19  3  1  0  0  0  0
 20 24  1  0  0  0  0
 20 19  2  0  0  0  0
 21 20  1  0  0  0  0
 22 21  2  0  0  0  0
 22 23  1  0  0  0  0
 23 18  2  0  0  0  0
 25 21  1  0  0  0  0
 26 22  1  0  0  0  0
 27 28  1  0  0  0  0
 28 29  1  0  0  0  0
 29 23  1  0  0  0  0
 29 30  2  0  0  0  0
 30 31  1  0  0  0  0
 32 30  1  0  0  0  0
 32 33  1  0  0  0  0
 34 32  2  0  0  0  0
 35 28  2  0  0  0  0
 35 34  1  0  0  0  0
 36 41  1  0  0  0  0
 37 38  1  0  0  0  0
 37 36  2  0  0  0  0
 38 39  2  0  0  0  0
 39 40  1  0  0  0  0
 40 44  1  0  0  0  0
 41 40  2  0  0  0  0
 42 37  1  0  0  0  0
 43 38  1  0  0  0  0
M  END
>  <minimizedAffinity>
-6.09030771

$$$$

 OpenBabel03272506003D

 44 47  0  0  1  0  0  0  0  0999 V2000
   39.3220   25.9470   31.7210 C   0  0  2  0  0  0  0  0  0  0  0  0
   38.5460   27.2050   31.7970 C   0  0  0  0  0  0  0  0  0  0  0  0
   37.0870   26.9760   32.2190 C   0  0  2  0  0  0  0  0  0  0  0  0
   36.3570   26.0290   31.3750 C   0  0  0  0  0  0  0  0  0  0  0  0
   37.2000   24.8410   30.9270 C   0  0  0  0  0  0  0  0  0  0  0  0
   38.4530   24.7090   31.7420 C   0  0  0  0  0  0  0  0  0  0  0  0
   39.9190   25.8470   30.7630 H   0  0  0  0  0  0  0  0  0  0  0  0
   38.8510   28.0280   32.3910 H   0  0  0  0  0  0  0  0  0  0  0  0
   38.4320   27.5590   30.7170 H   0  0  0  0  0  0  0  0  0  0  0  0
   37.0920   26.6860   33.2800 H   0  0  0  0  0  0  0  0  0  0  0  0
   36.0060   26.4980   30.4370 H   0  0  0  0  0  0  0  0  0  0  0  0
   35.4380   25.6990   31.9020 H   0  0  0  0  0  0  0  0  0  0  0  0
   36.5960   23.9320   31.1340 H   0  0  0  0  0  0  0  0  0  0  0  0
   37.4030   24.8280   29.8510 H   0  0  0  0  0  0  0  0  0  0  0  0
   39.0420   23.8680   31.3350 H   0  0  0  0  0  0  0  0  0  0  0  0
   38.2140   24.4280   32.7910 H   0  0  0  0  0  0  0  0  0  0  0  0
   36.4000   28.2110   34.8100 Cl  0  0  0  0  0  0  0  0  0  0  0  0
   36.0750   28.9970   33.2710 C   0  0  0  0  0  0  0  0  0  0  0  0
   36.4740   28.3340   32.1230 C   0  0  0  0  0  0  0  0  0  0  0  0
   36.1950   29.0370   30.9750 C   0  0  0  0  0  0  0  0  0  0  0  0
   35.5800   30.2740   30.9780 C   0  0  0  0  0  0  0  0  0  0  0  0
   35.2120   30.8700   32.1780 C   0  0  0  0  0  0  0  0  0  0  0  0
   35.4720   30.2010   33.3670 C   0  0  0  0  0  0  0  0  0  0  0  0
   36.4810   28.5850   30.0330 H   0  0  0  0  0  0  0  0  0  0  0  0
   35.4090   30.7380   30.0050 H   0  0  0  0  0  0  0  0  0  0  0  0
   34.7340   31.8360   32.1400 H   0  0  0  0  0  0  0  0  0  0  0  0
   32.9450   29.6810   34.2820 F   0  0  0  0  0  0  0  0  0  0  0  0
   33.7800   30.4920   35.0010 C   0  0  0  0  0  0  0  0  0  0  0  0
   35.0860   30.8240   34.6290 C   0  0  0  0  0  0  0  0  0  0  0  0
   35.8360   31.6410   35.4170 C   0  0  0  0  0  0  0  0  0  0  0  0
   36.8150   31.8270   35.0390 H   0  0  0  0  0  0  0  0  0  0  0  0
   35.3030   32.1500   36.5990 C   0  0  0  0  0  0  0  0  0  0  0  0
   35.9330   32.7930   37.1910 H   0  0  0  0  0  0  0  0  0  0  0  0
   34.0010   31.8190   36.9700 C   0  0  0  0  0  3  0  0  0  0  0  0
   33.2550   30.9990   36.1750 C   0  0  0  0  0  3  0  0  0  0  0  0
   40.3110   25.8070   32.8010 C   0  0  0  0  0  0  0  0  0  0  0  0
   41.0820   26.9430   33.0480 C   0  0  0  0  0  0  0  0  0  0  0  0
   42.0310   26.8680   34.0780 C   0  0  0  0  0  0  0  0  0  0  0  0
   42.1560   25.6850   34.7940 N   0  0  0  0  0  0  0  0  0  0  0  0
   41.3900   24.6150   34.5170 C   0  0  0  0  0  0  0  0  0  0  0  0
   40.4920   24.7050   33.5320 N   0  0  0  0  0  0  0  0  0  0  0  0
   41.2130   27.9430   32.6810 H   0  0  0  0  0  0  0  0  0  0  0  0
   42.7340   27.5740   34.4670 H   0  0  0  0  0  0  0  0  0  0  0  0
   41.4760   23.6930   35.0600 H   0  0  0  0  0  0  0  0  0  0  0  0
  1  7  1  6  0  0  0
  1  6  1  0  0  0  0
  1  2  1  0  0  0  0
  1 36  1  0  0  0  0
  2  3  1  0  0  0  0
  2  8  1  0  0  0  0
  3 10  1  1  0  0  0
  4 12  1  0  0  0  0
  4  3  1  0  0  0  0
  5 13  1  0  0  0  0
  5  4  1  0  0  0  0
  5  6  1  0  0  0  0
  6 16  1  0  0  0  0
  9  2  1  0  0  0  0
 11  4  1  0  0  0  0
 14  5  1  0  0  0  0
 15  6  1  0  0  0  0
 18 23  1  0  0  0  0
 18 17  1  0  0  0  0
 19  3  1  0  0  0  0
 19 18  2  0  0  0  0
 20 21  2  0  0  0  0
 20 19  1  0  0  0  0
 21 22  1  0  0  0  0
 22 23  2  0  0  0  0
 23 29  1  0  0  0  0
 24 20  1  0  0  0  0
 25 21  1  0  0  0  0
 26 22  1  0  0  0  0
 27 28  1  0  0  0  0
 28 35  1  0  0  0  0
 29 28  2  0  0  0  0
 29 30  1  0  0  0  0
 30 32  2  0  0  0  0
 31 30  1  0  0  0  0
 32 34  1  0  0  0  0
 32 33  1  0  0  0  0
 35 34  2  0  0  0  0
 36 37  2  0  0  0  0
 36 41  1  0  0  0  0
 37 38  1  0  0  0  0
 38 43  1  0  0  0  0
 38 39  2  0  0  0  0
 40 39  1  0  0  0  0
 40 44  1  0  0  0  0
 41 40  2  0  0  0  0
 42 37  1  0  0  0  0
M  END
>  <minimizedAffinity>
-6.08834505

$$$$

 OpenBabel03272506003D

 44 47  0  0  1  0  0  0  0  0999 V2000
   35.5170   28.5480   31.9030 C   0  0  2  0  0  0  0  0  0  0  0  0
   35.8550   27.1620   32.2990 C   0  0  0  0  0  0  0  0  0  0  0  0
   37.3500   26.9780   32.5960 C   0  0  2  0  0  0  0  0  0  0  0  0
   38.2350   27.3780   31.5020 C   0  0  0  0  0  0  0  0  0  0  0  0
   37.7690   28.6320   30.7700 C   0  0  0  0  0  0  0  0  0  0  0  0
   36.7320   29.3800   31.5560 C   0  0  0  0  0  0  0  0  0  0  0  0
   34.8720   28.6040   30.9740 H   0  0  0  0  0  0  0  0  0  0  0  0
   35.3770   26.6670   33.1050 H   0  0  0  0  0  0  0  0  0  0  0  0
   35.7160   26.5340   31.3550 H   0  0  0  0  0  0  0  0  0  0  0  0
   37.5670   27.5060   33.5350 H   0  0  0  0  0  0  0  0  0  0  0  0
   38.3010   26.6000   30.7190 H   0  0  0  0  0  0  0  0  0  0  0  0
   39.2690   27.4960   31.8880 H   0  0  0  0  0  0  0  0  0  0  0  0
   38.6510   29.3010   30.7010 H   0  0  0  0  0  0  0  0  0  0  0  0
   37.4500   28.4450   29.7390 H   0  0  0  0  0  0  0  0  0  0  0  0
   36.3980   30.2410   30.9510 H   0  0  0  0  0  0  0  0  0  0  0  0
   37.1740   29.8140   32.4790 H   0  0  0  0  0  0  0  0  0  0  0  0
   38.9620   26.2840   34.9690 Cl  0  0  0  0  0  0  0  0  0  0  0  0
   38.2450   25.0670   33.9220 C   0  0  0  0  0  0  0  0  0  0  0  0
   37.4810   25.5140   32.8580 C   0  0  0  0  0  0  0  0  0  0  0  0
   36.9490   24.4890   32.1140 C   0  0  0  0  0  0  0  0  0  0  0  0
   37.1600   23.1550   32.4040 C   0  0  0  0  0  0  0  0  0  0  0  0
   37.9430   22.7930   33.4940 C   0  0  0  0  0  0  0  0  0  0  0  0
   38.5040   23.7910   34.2800 C   0  0  0  0  0  0  0  0  0  0  0  0
   36.3330   24.7590   31.2650 H   0  0  0  0  0  0  0  0  0  0  0  0
   36.6870   22.4290   31.7430 H   0  0  0  0  0  0  0  0  0  0  0  0
   38.0850   21.7410   33.6900 H   0  0  0  0  0  0  0  0  0  0  0  0
   37.2490   23.6370   36.7070 F   0  0  0  0  0  0  0  0  0  0  0  0
   38.5860   23.3650   36.6100 C   0  0  0  0  0  0  0  0  0  0  0  0
   39.3270   23.4130   35.4250 C   0  0  0  0  0  0  0  0  0  0  0  0
   40.6550   23.1230   35.4350 C   0  0  0  0  0  0  0  0  0  0  0  0
   41.1200   23.1900   34.4790 H   0  0  0  0  0  0  0  0  0  0  0  0
   41.2840   22.7780   36.6290 C   0  0  0  0  0  0  0  0  0  0  0  0
   42.3380   22.5570   36.5900 H   0  0  0  0  0  0  0  0  0  0  0  0
   40.5460   22.7300   37.8100 C   0  0  0  0  0  3  0  0  0  0  0  0
   39.2130   23.0210   37.7930 C   0  0  0  0  0  3  0  0  0  0  0  0
   34.7640   29.2810   32.9330 C   0  0  0  0  0  0  0  0  0  0  0  0
   35.5450   29.8750   33.9260 C   0  0  0  0  0  0  0  0  0  0  0  0
   34.8790   30.5990   34.9250 C   0  0  0  0  0  0  0  0  0  0  0  0
   33.4930   30.6900   34.8800 N   0  0  0  0  0  0  0  0  0  0  0  0
   32.7850   30.0970   33.9030 C   0  0  0  0  0  0  0  0  0  0  0  0
   33.4370   29.4120   32.9600 N   0  0  0  0  0  0  0  0  0  0  0  0
   36.5750   29.9700   34.2140 H   0  0  0  0  0  0  0  0  0  0  0  0
   35.2250   31.1400   35.7790 H   0  0  0  0  0  0  0  0  0  0  0  0
   31.7130   30.1570   33.8550 H   0  0  0  0  0  0  0  0  0  0  0  0
  1  7  1  6  0  0  0
  1  2  1  0  0  0  0
  1 36  1  0  0  0  0
  2  3  1  0  0  0  0
  2  8  1  0  0  0  0
  3 19  1  0  0  0  0
  3 10  1  1  0  0  0
  4 12  1  0  0  0  0
  4  3  1  0  0  0  0
  5  4  1  0  0  0  0
  5  6  1  0  0  0  0
  6  1  1  0  0  0  0
  6 16  1  0  0  0  0
  9  2  1  0  0  0  0
 11  4  1  0  0  0  0
 13  5  1  0  0  0  0
 14  5  1  0  0  0  0
 15  6  1  0  0  0  0
 18 23  1  0  0  0  0
 18 17  1  0  0  0  0
 19 18  2  0  0  0  0
 20 21  2  0  0  0  0
 20 19  1  0  0  0  0
 21 22  1  0  0  0  0
 22 26  1  0  0  0  0
 22 23  2  0  0  0  0
 23 29  1  0  0  0  0
 24 20  1  0  0  0  0
 25 21  1  0  0  0  0
 28 27  1  0  0  0  0
 28 35  1  0  0  0  0
 29 30  1  0  0  0  0
 29 28  2  0  0  0  0
 30 32  2  0  0  0  0
 31 30  1  0  0  0  0
 32 34  1  0  0  0  0
 33 32  1  0  0  0  0
 35 34  2  0  0  0  0
 36 41  2  0  0  0  0
 36 37  1  0  0  0  0
 37 42  1  0  0  0  0
 37 38  2  0  0  0  0
 38 43  1  0  0  0  0
 39 38  1  0  0  0  0
 40 39  2  0  0  0  0
 41 40  1  0  0  0  0
 44 40  1  0  0  0  0
M  END
>  <minimizedAffinity>
-6.0452857

$$$$

 OpenBabel03272506003D

 44 47  0  0  1  0  0  0  0  0999 V2000
   32.9820   30.1220   34.6090 C   0  0  2  0  0  0  0  0  0  0  0  0
   33.9820   29.3720   33.8160 C   0  0  0  0  0  0  0  0  0  0  0  0
   35.3790   29.3890   34.4560 C   0  0  2  0  0  0  0  0  0  0  0  0
   35.9040   30.7280   34.7190 C   0  0  0  0  0  0  0  0  0  0  0  0
   34.8470   31.7100   35.2110 C   0  0  0  0  0  0  0  0  0  0  0  0
   33.6040   31.0040   35.6690 C   0  0  0  0  0  0  0  0  0  0  0  0
   32.3630   30.8370   33.9860 H   0  0  0  0  0  0  0  0  0  0  0  0
   33.8460   28.3580   33.5400 H   0  0  0  0  0  0  0  0  0  0  0  0
   34.1430   29.9870   32.8680 H   0  0  0  0  0  0  0  0  0  0  0  0
   35.3360   28.7620   35.3580 H   0  0  0  0  0  0  0  0  0  0  0  0
   36.3230   31.1940   33.8080 H   0  0  0  0  0  0  0  0  0  0  0  0
   36.7530   30.6580   35.4310 H   0  0  0  0  0  0  0  0  0  0  0  0
   35.2720   32.2070   36.1080 H   0  0  0  0  0  0  0  0  0  0  0  0
   34.6270   32.5120   34.4980 H   0  0  0  0  0  0  0  0  0  0  0  0
   32.8610   31.7690   35.9590 H   0  0  0  0  0  0  0  0  0  0  0  0
   33.8020   30.4140   36.5890 H   0  0  0  0  0  0  0  0  0  0  0  0
   37.5990   27.8220   35.6080 Cl  0  0  0  0  0  0  0  0  0  0  0  0
   37.3290   27.9490   33.8750 C   0  0  0  0  0  0  0  0  0  0  0  0
   36.2340   28.6850   33.4550 C   0  0  0  0  0  0  0  0  0  0  0  0
   36.0980   28.7070   32.0870 C   0  0  0  0  0  0  0  0  0  0  0  0
   36.9680   28.0620   31.2310 C   0  0  0  0  0  0  0  0  0  0  0  0
   38.0440   27.3430   31.7380 C   0  0  0  0  0  0  0  0  0  0  0  0
   38.2270   27.2880   33.1140 C   0  0  0  0  0  0  0  0  0  0  0  0
   35.2600   29.2610   31.6810 H   0  0  0  0  0  0  0  0  0  0  0  0
   36.7600   28.1500   30.1640 H   0  0  0  0  0  0  0  0  0  0  0  0
   38.7020   26.8520   31.0380 H   0  0  0  0  0  0  0  0  0  0  0  0
   37.8070   24.6340   33.6340 F   0  0  0  0  0  0  0  0  0  0  0  0
   39.0320   25.1930   33.8760 C   0  0  0  0  0  0  0  0  0  0  0  0
   39.3560   26.5340   33.6480 C   0  0  0  0  0  0  0  0  0  0  0  0
   40.6070   26.9930   33.9230 C   0  0  0  0  0  0  0  0  0  0  0  0
   40.7440   28.0280   33.7120 H   0  0  0  0  0  0  0  0  0  0  0  0
   41.5700   26.1260   34.4340 C   0  0  0  0  0  0  0  0  0  0  0  0
   42.5470   26.5320   34.6370 H   0  0  0  0  0  0  0  0  0  0  0  0
   41.2470   24.7900   34.6600 C   0  0  0  0  0  3  0  0  0  0  0  0
   39.9910   24.3360   34.3830 C   0  0  0  0  0  3  0  0  0  0  0  0
   32.0010   29.2550   35.2800 C   0  0  0  0  0  0  0  0  0  0  0  0
   31.9460   29.3900   36.6680 C   0  0  0  0  0  0  0  0  0  0  0  0
   31.0170   28.5970   37.3570 C   0  0  0  0  0  0  0  0  0  0  0  0
   30.2080   27.7280   36.6370 N   0  0  0  0  0  0  0  0  0  0  0  0
   30.3000   27.6330   35.2990 C   0  0  0  0  0  0  0  0  0  0  0  0
   31.1910   28.3960   34.6600 N   0  0  0  0  0  0  0  0  0  0  0  0
   32.4190   29.9380   37.4600 H   0  0  0  0  0  0  0  0  0  0  0  0
   30.7730   28.5040   38.3940 H   0  0  0  0  0  0  0  0  0  0  0  0
   29.6820   26.9650   34.7280 H   0  0  0  0  0  0  0  0  0  0  0  0
  1  7  1  6  0  0  0
  1 36  1  0  0  0  0
  1  6  1  0  0  0  0
  2  3  1  0  0  0  0
  2  1  1  0  0  0  0
  3  4  1  0  0  0  0
  3 10  1  1  0  0  0
  4  5  1  0  0  0  0
  4 12  1  0  0  0  0
  5  6  1  0  0  0  0
  5 13  1  0  0  0  0
  6 15  1  0  0  0  0
  6 16  1  0  0  0  0
  8  2  1  0  0  0  0
  9  2  1  0  0  0  0
 11  4  1  0  0  0  0
 14  5  1  0  0  0  0
 18 17  1  0  0  0  0
 19 18  1  0  0  0  0
 19  3  1  0  0  0  0
 20 19  2  0  0  0  0
 21 22  2  0  0  0  0
 21 20  1  0  0  0  0
 22 23  1  0  0  0  0
 23 29  1  0  0  0  0
 23 18  2  0  0  0  0
 24 20  1  0  0  0  0
 25 21  1  0  0  0  0
 26 22  1  0  0  0  0
 27 28  1  0  0  0  0
 28 35  1  0  0  0  0
 29 28  2  0  0  0  0
 29 30  1  0  0  0  0
 30 32  2  0  0  0  0
 31 30  1  0  0  0  0
 32 33  1  0  0  0  0
 32 34  1  0  0  0  0
 35 34  2  0  0  0  0
 36 37  1  0  0  0  0
 37 38  2  0  0  0  0
 37 42  1  0  0  0  0
 38 43  1  0  0  0  0
 39 38  1  0  0  0  0
 40 39  2  0  0  0  0
 41 36  2  0  0  0  0
 41 40  1  0  0  0  0
 44 40  1  0  0  0  0
M  END
>  <minimizedAffinity>
-6.01808357

$$$$
