
 OpenBabel03272508533D

 38 41  0  0  1  0  0  0  0  0999 V2000
   38.3030   31.8560   44.7050 C   0  0  0  0  0  0  0  0  0  0  0  0
   37.1570   32.3460   44.5880 O   0  0  0  0  0  0  0  0  0  0  0  0
   38.8830   31.6500   46.0160 N   0  0  0  0  0  0  0  0  0  0  0  0
   39.8720   31.4340   46.1670 H   0  0  0  0  0  0  0  0  0  0  0  0
   39.1050   31.4700   43.5280 C   0  0  0  0  0  0  0  0  0  0  0  0
   40.1430   30.5970   43.6970 C   0  0  0  0  0  0  0  0  0  0  0  0
   40.8760   30.2530   42.5750 C   0  0  0  0  0  0  0  0  0  0  0  0
   40.5250   30.8020   41.3700 C   0  0  0  0  0  0  0  0  0  0  0  0
   39.4790   31.6840   41.1960 C   0  0  0  0  0  0  0  0  0  0  0  0
   38.8210   31.9650   42.3220 N   0  0  0  0  0  0  0  0  0  0  0  0
   40.3890   30.1820   44.6800 H   0  0  0  0  0  0  0  0  0  0  0  0
   41.7140   29.5650   42.6370 H   0  0  0  0  0  0  0  0  0  0  0  0
   41.1020   30.5250   40.5210 H   0  0  0  0  0  0  0  0  0  0  0  0
   38.6000   34.4220   40.8720 F   0  0  0  0  0  0  0  0  0  0  0  0
   38.6110   33.6070   39.7980 C   0  0  0  0  0  0  0  0  0  0  0  0
   39.0320   32.3130   39.9770 C   0  0  0  0  0  0  0  0  0  0  0  0
   39.0050   31.5630   38.8210 C   0  0  0  0  0  0  0  0  0  0  0  0
   39.3120   30.5180   38.8090 H   0  0  0  0  0  0  0  0  0  0  0  0
   38.5950   32.0700   37.6090 C   0  0  0  0  0  0  0  0  0  0  0  0
   38.5880   31.4550   36.7280 H   0  0  0  0  0  0  0  0  0  0  0  0
   38.1820   33.3780   37.4870 C   0  0  0  0  0  0  0  0  0  0  0  0
   38.1910   34.1700   38.6150 C   0  0  0  0  0  0  0  0  0  0  0  0
   38.3840   31.1730   48.4140 C   0  0  2  0  0  0  0  0  0  0  0  0
   38.5880   32.6260   48.3010 C   0  0  0  0  0  0  0  0  0  0  0  0
   37.9900   31.7620   47.1590 C   0  0  1  0  0  0  0  0  0  0  0  0
   39.3550   30.6080   48.4930 H   0  0  0  0  0  0  0  0  0  0  0  0
   39.5810   33.0640   48.1530 H   0  0  0  0  0  0  0  0  0  0  0  0
   37.8430   33.2680   48.8010 H   0  0  0  0  0  0  0  0  0  0  0  0
   36.9150   31.9400   46.9470 H   0  0  0  0  0  0  0  0  0  0  0  0
   35.1400   29.9450   49.6750 C   0  0  0  0  0  0  0  0  0  0  0  0
   35.4830   29.4640   50.9790 C   0  0  0  0  0  0  0  0  0  0  0  0
   36.8580   29.5910   51.3940 C   0  0  0  0  0  0  0  0  0  0  0  0
   37.7550   30.1520   50.5450 N   0  0  0  0  0  0  0  0  0  0  0  0
   37.3600   30.5890   49.3160 C   0  0  0  0  0  0  0  0  0  0  0  0
   36.0620   30.5000   48.8540 N   0  0  0  0  0  0  0  0  0  0  0  0
   34.0930   29.8160   49.4360 H   0  0  0  0  0  0  0  0  0  0  0  0
   34.7470   29.0320   51.6120 H   0  0  0  0  0  0  0  0  0  0  0  0
   37.1130   29.2290   52.3760 H   0  0  0  0  0  0  0  0  0  0  0  0
  1  3  1  0  0  0  0
  2  1  2  0  0  0  0
  3  4  1  0  0  0  0
  3 25  1  0  0  0  0
  5  6  1  0  0  0  0
  5  1  1  0  0  0  0
  6 11  1  0  0  0  0
  7 12  1  0  0  0  0
  7  6  2  0  0  0  0
  8  7  1  0  0  0  0
  9  8  2  0  0  0  0
  9 10  1  0  0  0  0
 10  5  2  0  0  0  0
 13  8  1  0  0  0  0
 15 16  1  0  0  0  0
 15 14  1  0  0  0  0
 16  9  1  0  0  0  0
 17 16  2  0  0  0  0
 18 17  1  0  0  0  0
 19 17  1  0  0  0  0
 20 19  1  0  0  0  0
 21 19  2  0  0  0  0
 21 22  1  0  0  0  0
 22 15  2  0  0  0  0
 23 26  1  6  0  0  0
 23 34  1  0  0  0  0
 24 23  1  0  0  0  0
 24 28  1  0  0  0  0
 25 29  1  6  0  0  0
 25 24  1  0  0  0  0
 25 23  1  0  0  0  0
 27 24  1  0  0  0  0
 30 31  1  0  0  0  0
 31 32  2  0  0  0  0
 31 37  1  0  0  0  0
 32 38  1  0  0  0  0
 33 32  1  0  0  0  0
 34 33  2  0  0  0  0
 35 34  1  0  0  0  0
 35 30  2  0  0  0  0
 36 30  1  0  0  0  0
M  END
>  <minimizedAffinity>
-5.40047455

>  <minimizedRMSD>
0.548882306

$$$$
