
 OpenBabel03272505583D

 44 47  0  0  1  0  0  0  0  0999 V2000
   35.1360   30.2740   50.0890 C   0  0  2  0  0  0  0  0  0  0  0  0
   36.0620   31.1740   49.3660 C   0  0  0  0  0  0  0  0  0  0  0  0
   37.5250   30.7140   49.4540 C   0  0  2  0  0  0  0  0  0  0  0  0
   38.0200   30.5380   50.8190 C   0  0  0  0  0  0  0  0  0  0  0  0
   36.9890   29.9320   51.7650 C   0  0  0  0  0  0  0  0  0  0  0  0
   35.8450   29.3130   51.0180 C   0  0  0  0  0  0  0  0  0  0  0  0
   34.4130   30.8250   50.7650 H   0  0  0  0  0  0  0  0  0  0  0  0
   35.9370   31.4160   48.3410 H   0  0  0  0  0  0  0  0  0  0  0  0
   36.0770   32.1440   49.9680 H   0  0  0  0  0  0  0  0  0  0  0  0
   37.6210   29.8040   48.8440 H   0  0  0  0  0  0  0  0  0  0  0  0
   38.3010   31.5010   51.2840 H   0  0  0  0  0  0  0  0  0  0  0  0
   38.9530   29.9370   50.7990 H   0  0  0  0  0  0  0  0  0  0  0  0
   37.5000   29.1030   52.2970 H   0  0  0  0  0  0  0  0  0  0  0  0
   36.6480   30.6240   52.5430 H   0  0  0  0  0  0  0  0  0  0  0  0
   35.1110   28.9430   51.7560 H   0  0  0  0  0  0  0  0  0  0  0  0
   36.1820   28.4160   50.4540 H   0  0  0  0  0  0  0  0  0  0  0  0
   37.8560   30.3460   46.5440 Cl  0  0  0  0  0  0  0  0  0  0  0  0
   38.5300   31.7210   47.4080 C   0  0  0  0  0  0  0  0  0  0  0  0
   38.2800   31.8030   48.7660 C   0  0  0  0  0  0  0  0  0  0  0  0
   38.8310   32.9220   49.3450 C   0  0  0  0  0  0  0  0  0  0  0  0
   39.5570   33.8590   48.6370 C   0  0  0  0  0  0  0  0  0  0  0  0
   39.7620   33.6990   47.2720 C   0  0  0  0  0  0  0  0  0  0  0  0
   39.2250   32.5860   46.6380 C   0  0  0  0  0  0  0  0  0  0  0  0
   38.6730   33.0590   50.4080 H   0  0  0  0  0  0  0  0  0  0  0  0
   39.9460   34.7060   49.2030 H   0  0  0  0  0  0  0  0  0  0  0  0
   40.3340   34.4520   46.7520 H   0  0  0  0  0  0  0  0  0  0  0  0
   41.1430   30.7860   45.8780 F   0  0  0  0  0  0  0  0  0  0  0  0
   40.4370   31.4760   44.9300 C   0  0  0  0  0  0  0  0  0  0  0  0
   39.4390   32.4160   45.2040 C   0  0  0  0  0  0  0  0  0  0  0  0
   38.7950   33.0480   44.1870 C   0  0  0  0  0  0  0  0  0  0  0  0
   38.0540   33.7430   44.5090 H   0  0  0  0  0  0  0  0  0  0  0  0
   39.1300   32.7610   42.8650 C   0  0  0  0  0  0  0  0  0  0  0  0
   38.5940   33.2850   42.0920 H   0  0  0  0  0  0  0  0  0  0  0  0
   40.1240   31.8240   42.5920 C   0  0  0  0  0  0  0  0  0  0  0  0
   40.7660   31.1930   43.6180 C   0  0  0  0  0  0  0  0  0  0  0  0
   34.2850   29.4720   49.1960 C   0  0  0  0  0  0  0  0  0  0  0  0
   34.4290   29.7510   47.8360 C   0  0  0  0  0  0  0  0  0  0  0  0
   33.6520   29.0050   46.9390 C   0  0  0  0  0  0  0  0  0  0  0  0
   32.7880   28.0380   47.4370 N   0  0  0  0  0  0  0  0  0  0  0  0
   32.6830   27.8080   48.7580 C   0  0  0  0  0  0  0  0  0  0  0  0
   33.4320   28.5290   49.5980 N   0  0  0  0  0  0  0  0  0  0  0  0
   34.9780   30.4040   47.1840 H   0  0  0  0  0  0  0  0  0  0  0  0
   33.5690   29.0130   45.8720 H   0  0  0  0  0  0  0  0  0  0  0  0
   32.0190   27.0660   49.1590 H   0  0  0  0  0  0  0  0  0  0  0  0
  1  7  1  1  0  0  0
  1  6  1  0  0  0  0
  2  3  1  0  0  0  0
  2  9  1  0  0  0  0
  2  1  1  0  0  0  0
  3 10  1  6  0  0  0
  3  4  1  0  0  0  0
  4 11  1  0  0  0  0
  4  5  1  0  0  0  0
  5 13  1  0  0  0  0
  5 14  1  0  0  0  0
  6 15  1  0  0  0  0
  6  5  1  0  0  0  0
  8  2  1  0  0  0  0
 12  4  1  0  0  0  0
 16  6  1  0  0  0  0
 17 18  1  0  0  0  0
 18 19  1  0  0  0  0
 19 20  2  0  0  0  0
 19  3  1  0  0  0  0
 20 24  1  0  0  0  0
 21 25  1  0  0  0  0
 21 20  1  0  0  0  0
 22 21  2  0  0  0  0
 23 22  1  0  0  0  0
 23 18  2  0  0  0  0
 26 22  1  0  0  0  0
 28 29  1  0  0  0  0
 28 27  1  0  0  0  0
 29 23  1  0  0  0  0
 30 31  1  0  0  0  0
 30 29  2  0  0  0  0
 32 30  1  0  0  0  0
 33 32  1  0  0  0  0
 34 32  2  0  0  0  0
 34 35  1  0  0  0  0
 35 28  2  0  0  0  0
 36 41  1  0  0  0  0
 36  1  1  0  0  0  0
 37 36  2  0  0  0  0
 38 39  2  0  0  0  0
 38 37  1  0  0  0  0
 39 40  1  0  0  0  0
 40 44  1  0  0  0  0
 40 41  2  0  0  0  0
 42 37  1  0  0  0  0
 43 38  1  0  0  0  0
M  END
>  <minimizedAffinity>
-8.08750725

>  <minimizedRMSD>
0.68162483

$$$$
