
 OpenBabel03272506353D

 19 20  0  0  0  0  0  0  0  0999 V2000
   38.9990   23.1440   37.8390 C   0  0  0  0  0  0  0  0  0  0  0  0
   40.2430   22.6450   37.4420 C   0  0  0  0  0  0  0  0  0  0  0  0
   40.8070   23.1230   36.2600 C   0  0  0  0  0  0  0  0  0  0  0  0
   40.1080   24.0670   35.5420 N   0  0  0  0  0  0  0  0  0  0  0  0
   38.9040   24.5260   35.9600 C   0  0  0  0  0  0  0  0  0  0  0  0
   38.3680   24.0620   37.0950 N   0  0  0  0  0  0  0  0  0  0  0  0
   40.8530   21.9070   37.9450 H   0  0  0  0  0  0  0  0  0  0  0  0
   41.7670   22.7880   35.8820 H   0  0  0  0  0  0  0  0  0  0  0  0
   38.3680   27.1550   36.9080 F   0  0  0  0  0  0  0  0  0  0  0  0
   37.9780   26.7850   35.6640 C   0  0  0  0  0  0  0  0  0  0  0  0
   38.2120   25.5260   35.1550 C   0  0  0  0  0  0  0  0  0  0  0  0
   37.8090   25.1710   33.8880 C   0  0  0  0  0  0  0  0  0  0  0  0
   37.9990   24.1880   33.5080 H   0  0  0  0  0  0  0  0  0  0  0  0
   37.1450   26.0730   33.0660 C   0  0  0  0  0  0  0  0  0  0  0  0
   36.8380   25.7670   32.0720 H   0  0  0  0  0  0  0  0  0  0  0  0
   36.9020   27.3520   33.5710 C   0  0  0  0  0  3  0  0  0  0  0  0
   37.3190   27.6790   34.8470 C   0  0  0  0  0  3  0  0  0  0  0  0
   38.5710   22.5780   39.0220 O   0  0  0  0  0  0  0  0  0  0  0  0
   37.7590   22.8260   39.5490 H   0  0  0  0  0  0  0  0  0  0  0  0
  1 18  1  0  0  0  0
  2  1  1  0  0  0  0
  2  7  1  0  0  0  0
  3  2  2  0  0  0  0
  4  5  2  0  0  0  0
  4  3  1  0  0  0  0
  5  6  1  0  0  0  0
  6  1  2  0  0  0  0
  8  3  1  0  0  0  0
 10  9  1  0  0  0  0
 11 10  1  0  0  0  0
 11  5  1  0  0  0  0
 12 11  2  0  0  0  0
 13 12  1  0  0  0  0
 14 16  2  0  0  0  0
 14 12  1  0  0  0  0
 15 14  1  0  0  0  0
 16 17  1  0  0  0  0
 17 10  2  0  0  0  0
 18 19  1  0  0  0  0
M  END
>  <minimizedAffinity>
-5.05359221

$$$$

 OpenBabel03272506353D

 19 20  0  0  0  0  0  0  0  0999 V2000
   39.0440   23.1300   37.8890 C   0  0  0  0  0  0  0  0  0  0  0  0
   40.2600   22.6040   37.4410 C   0  0  0  0  0  0  0  0  0  0  0  0
   40.8120   23.1090   36.2650 C   0  0  0  0  0  0  0  0  0  0  0  0
   40.1300   24.1050   35.6020 N   0  0  0  0  0  0  0  0  0  0  0  0
   38.9550   24.5880   36.0680 C   0  0  0  0  0  0  0  0  0  0  0  0
   38.4300   24.0990   37.1970 N   0  0  0  0  0  0  0  0  0  0  0  0
   40.8550   21.8270   37.9000 H   0  0  0  0  0  0  0  0  0  0  0  0
   41.7500   22.7560   35.8500 H   0  0  0  0  0  0  0  0  0  0  0  0
   37.7730   24.1440   33.5170 F   0  0  0  0  0  0  0  0  0  0  0  0
   37.7240   25.3730   34.0880 C   0  0  0  0  0  0  0  0  0  0  0  0
   38.2800   25.6430   35.3200 C   0  0  0  0  0  0  0  0  0  0  0  0
   38.2180   26.8970   35.8820 C   0  0  0  0  0  0  0  0  0  0  0  0
   38.6550   27.0910   36.8400 H   0  0  0  0  0  0  0  0  0  0  0  0
   37.5910   27.9490   35.2260 C   0  0  0  0  0  0  0  0  0  0  0  0
   37.5570   28.9280   35.6910 H   0  0  0  0  0  0  0  0  0  0  0  0
   37.0250   27.6870   33.9760 C   0  0  0  0  0  3  0  0  0  0  0  0
   37.1020   26.4170   33.4380 C   0  0  0  0  0  3  0  0  0  0  0  0
   38.6250   22.5340   39.0600 O   0  0  0  0  0  0  0  0  0  0  0  0
   37.8350   22.7890   39.6160 H   0  0  0  0  0  0  0  0  0  0  0  0
  1 18  1  0  0  0  0
  2  1  1  0  0  0  0
  2  7  1  0  0  0  0
  3  2  2  0  0  0  0
  4  5  2  0  0  0  0
  4  3  1  0  0  0  0
  5  6  1  0  0  0  0
  6  1  2  0  0  0  0
  8  3  1  0  0  0  0
  9 10  1  0  0  0  0
 10 11  1  0  0  0  0
 11 12  2  0  0  0  0
 11  5  1  0  0  0  0
 12 13  1  0  0  0  0
 14 15  1  0  0  0  0
 14 12  1  0  0  0  0
 16 14  2  0  0  0  0
 17 16  1  0  0  0  0
 17 10  2  0  0  0  0
 18 19  1  0  0  0  0
M  END
>  <minimizedAffinity>
-4.93391705

$$$$

 OpenBabel03272506353D

 19 20  0  0  0  0  0  0  0  0999 V2000
   40.0310   22.3690   37.1100 C   0  0  0  0  0  0  0  0  0  0  0  0
   39.4580   23.1730   38.0990 C   0  0  0  0  0  0  0  0  0  0  0  0
   38.1210   23.5440   37.9650 C   0  0  0  0  0  0  0  0  0  0  0  0
   37.4310   23.0980   36.8600 N   0  0  0  0  0  0  0  0  0  0  0  0
   38.0220   22.3200   35.9230 C   0  0  0  0  0  0  0  0  0  0  0  0
   39.3060   21.9680   36.0580 N   0  0  0  0  0  0  0  0  0  0  0  0
   39.9280   23.5630   38.9910 H   0  0  0  0  0  0  0  0  0  0  0  0
   37.6020   24.1650   38.6870 H   0  0  0  0  0  0  0  0  0  0  0  0
   35.8770   20.4640   36.1520 F   0  0  0  0  0  0  0  0  0  0  0  0
   36.2090   20.9790   34.9420 C   0  0  0  0  0  0  0  0  0  0  0  0
   37.2380   21.8800   34.7750 C   0  0  0  0  0  0  0  0  0  0  0  0
   37.5580   22.3900   33.5380 C   0  0  0  0  0  0  0  0  0  0  0  0
   38.3600   23.0900   33.4250 H   0  0  0  0  0  0  0  0  0  0  0  0
   36.8530   22.0150   32.4010 C   0  0  0  0  0  0  0  0  0  0  0  0
   37.1260   22.4330   31.4380 H   0  0  0  0  0  0  0  0  0  0  0  0
   35.8080   21.1020   32.5590 C   0  0  0  0  0  3  0  0  0  0  0  0
   35.5100   20.6070   33.8140 C   0  0  0  0  0  3  0  0  0  0  0  0
   41.3550   22.0860   37.3790 O   0  0  0  0  0  0  0  0  0  0  0  0
   41.9540   21.4700   36.8690 H   0  0  0  0  0  0  0  0  0  0  0  0
  1 18  1  0  0  0  0
  1  2  1  0  0  0  0
  2  7  1  0  0  0  0
  3  2  2  0  0  0  0
  3  8  1  0  0  0  0
  4  3  1  0  0  0  0
  5  6  1  0  0  0  0
  5  4  2  0  0  0  0
  6  1  2  0  0  0  0
 10  9  1  0  0  0  0
 11 10  1  0  0  0  0
 11  5  1  0  0  0  0
 12 11  2  0  0  0  0
 13 12  1  0  0  0  0
 14 16  2  0  0  0  0
 14 12  1  0  0  0  0
 15 14  1  0  0  0  0
 16 17  1  0  0  0  0
 17 10  2  0  0  0  0
 19 18  1  0  0  0  0
M  END
>  <minimizedAffinity>
-4.54561853

$$$$

 OpenBabel03272506353D

 19 20  0  0  0  0  0  0  0  0999 V2000
   35.6850   29.6000   31.8360 C   0  0  0  0  0  0  0  0  0  0  0  0
   36.4690   28.4730   32.0980 C   0  0  0  0  0  0  0  0  0  0  0  0
   36.6320   28.0660   33.4210 C   0  0  0  0  0  0  0  0  0  0  0  0
   36.0090   28.7980   34.4070 N   0  0  0  0  0  0  0  0  0  0  0  0
   35.2570   29.8850   34.1130 C   0  0  0  0  0  0  0  0  0  0  0  0
   35.1050   30.2700   32.8410 N   0  0  0  0  0  0  0  0  0  0  0  0
   36.9890   27.8470   31.3860 H   0  0  0  0  0  0  0  0  0  0  0  0
   37.2240   27.2030   33.7090 H   0  0  0  0  0  0  0  0  0  0  0  0
   36.6950   31.6660   35.8040 F   0  0  0  0  0  0  0  0  0  0  0  0
   35.3670   31.4690   35.9910 C   0  0  0  0  0  0  0  0  0  0  0  0
   34.6230   30.6190   35.2020 C   0  0  0  0  0  0  0  0  0  0  0  0
   33.2750   30.4350   35.4090 C   0  0  0  0  0  0  0  0  0  0  0  0
   32.7110   29.7700   34.7870 H   0  0  0  0  0  0  0  0  0  0  0  0
   32.6060   31.1020   36.4280 C   0  0  0  0  0  0  0  0  0  0  0  0
   31.5430   30.9380   36.5690 H   0  0  0  0  0  0  0  0  0  0  0  0
   33.3500   31.9660   37.2330 C   0  0  0  0  0  3  0  0  0  0  0  0
   34.7020   32.1310   37.0010 C   0  0  0  0  0  3  0  0  0  0  0  0
   35.6170   29.8790   30.4870 O   0  0  0  0  0  0  0  0  0  0  0  0
   35.0580   30.5780   30.0440 H   0  0  0  0  0  0  0  0  0  0  0  0
  1  2  2  0  0  0  0
  1  6  1  0  0  0  0
  2  3  1  0  0  0  0
  3  8  1  0  0  0  0
  3  4  2  0  0  0  0
  5  4  1  0  0  0  0
  5 11  1  0  0  0  0
  6  5  2  0  0  0  0
  7  2  1  0  0  0  0
  9 10  1  0  0  0  0
 10 17  1  0  0  0  0
 11 12  1  0  0  0  0
 11 10  2  0  0  0  0
 12 14  2  0  0  0  0
 13 12  1  0  0  0  0
 14 15  1  0  0  0  0
 14 16  1  0  0  0  0
 17 16  2  0  0  0  0
 18  1  1  0  0  0  0
 19 18  1  0  0  0  0
M  END
>  <minimizedAffinity>
-4.50378132

$$$$

 OpenBabel03272506353D

 19 20  0  0  0  0  0  0  0  0999 V2000
   35.6940   24.5580   31.1510 C   0  0  0  0  0  0  0  0  0  0  0  0
   36.6550   25.1610   31.9660 C   0  0  0  0  0  0  0  0  0  0  0  0
   37.4560   24.3480   32.7670 C   0  0  0  0  0  0  0  0  0  0  0  0
   37.2580   22.9870   32.7130 N   0  0  0  0  0  0  0  0  0  0  0  0
   36.3160   22.4400   31.9100 C   0  0  0  0  0  0  0  0  0  0  0  0
   35.5500   23.2260   31.1440 N   0  0  0  0  0  0  0  0  0  0  0  0
   36.8720   26.2160   32.0660 H   0  0  0  0  0  0  0  0  0  0  0  0
   38.2240   24.7370   33.4270 H   0  0  0  0  0  0  0  0  0  0  0  0
   35.2510   20.9960   34.1190 F   0  0  0  0  0  0  0  0  0  0  0  0
   35.6330   20.3410   32.9950 C   0  0  0  0  0  0  0  0  0  0  0  0
   36.1540   20.9900   31.8970 C   0  0  0  0  0  0  0  0  0  0  0  0
   36.5350   20.3060   30.7660 C   0  0  0  0  0  0  0  0  0  0  0  0
   36.9380   20.8260   29.9210 H   0  0  0  0  0  0  0  0  0  0  0  0
   36.4090   18.9250   30.6840 C   0  0  0  0  0  0  0  0  0  0  0  0
   36.7170   18.4100   29.7810 H   0  0  0  0  0  0  0  0  0  0  0  0
   35.8820   18.2570   31.7910 C   0  0  0  0  0  3  0  0  0  0  0  0
   35.5080   18.9710   32.9130 C   0  0  0  0  0  3  0  0  0  0  0  0
   34.9810   25.4860   30.4200 O   0  0  0  0  0  0  0  0  0  0  0  0
   34.3010   25.3020   29.7120 H   0  0  0  0  0  0  0  0  0  0  0  0
  1  2  1  0  0  0  0
  2  7  1  0  0  0  0
  2  3  2  0  0  0  0
  3  8  1  0  0  0  0
  4  3  1  0  0  0  0
  5  4  2  0  0  0  0
  6  1  2  0  0  0  0
  6  5  1  0  0  0  0
 10  9  1  0  0  0  0
 11  5  1  0  0  0  0
 11 10  2  0  0  0  0
 12 11  1  0  0  0  0
 13 12  1  0  0  0  0
 14 12  2  0  0  0  0
 14 16  1  0  0  0  0
 15 14  1  0  0  0  0
 16 17  2  0  0  0  0
 17 10  1  0  0  0  0
 18  1  1  0  0  0  0
 19 18  1  0  0  0  0
M  END
>  <minimizedAffinity>
-4.49774122

$$$$

 OpenBabel03272506353D

 19 20  0  0  0  0  0  0  0  0999 V2000
   38.5210   22.7100   36.2010 C   0  0  0  0  0  0  0  0  0  0  0  0
   38.8210   24.0130   35.7950 C   0  0  0  0  0  0  0  0  0  0  0  0
   38.4590   24.4100   34.5080 C   0  0  0  0  0  0  0  0  0  0  0  0
   37.8230   23.4940   33.7000 N   0  0  0  0  0  0  0  0  0  0  0  0
   37.5500   22.2400   34.1310 C   0  0  0  0  0  0  0  0  0  0  0  0
   37.9000   21.8660   35.3670 N   0  0  0  0  0  0  0  0  0  0  0  0
   39.3150   24.7880   36.3640 H   0  0  0  0  0  0  0  0  0  0  0  0
   38.6550   25.4020   34.1160 H   0  0  0  0  0  0  0  0  0  0  0  0
   35.3120   20.6750   34.9300 F   0  0  0  0  0  0  0  0  0  0  0  0
   35.7950   20.5820   33.6670 C   0  0  0  0  0  0  0  0  0  0  0  0
   36.8750   21.3160   33.2280 C   0  0  0  0  0  0  0  0  0  0  0  0
   37.3480   21.2060   31.9400 C   0  0  0  0  0  0  0  0  0  0  0  0
   38.1890   21.7830   31.6150 H   0  0  0  0  0  0  0  0  0  0  0  0
   36.7530   20.3450   31.0260 C   0  0  0  0  0  0  0  0  0  0  0  0
   37.1470   20.2780   30.0180 H   0  0  0  0  0  0  0  0  0  0  0  0
   35.6580   19.5970   31.4610 C   0  0  0  0  0  3  0  0  0  0  0  0
   35.2050   19.7290   32.7590 C   0  0  0  0  0  3  0  0  0  0  0  0
   38.9380   22.4640   37.4940 O   0  0  0  0  0  0  0  0  0  0  0  0
   38.7690   21.6420   38.0340 H   0  0  0  0  0  0  0  0  0  0  0  0
  1 18  1  0  0  0  0
  2  1  1  0  0  0  0
  2  7  1  0  0  0  0
  3  2  2  0  0  0  0
  4  5  2  0  0  0  0
  4  3  1  0  0  0  0
  5  6  1  0  0  0  0
  6  1  2  0  0  0  0
  8  3  1  0  0  0  0
 10  9  1  0  0  0  0
 11 10  1  0  0  0  0
 11  5  1  0  0  0  0
 12 11  2  0  0  0  0
 13 12  1  0  0  0  0
 14 16  2  0  0  0  0
 14 12  1  0  0  0  0
 15 14  1  0  0  0  0
 16 17  1  0  0  0  0
 17 10  2  0  0  0  0
 18 19  1  0  0  0  0
M  END
>  <minimizedAffinity>
-4.44249201

$$$$

 OpenBabel03272506353D

 19 20  0  0  0  0  0  0  0  0999 V2000
   37.2120   25.7540   33.3100 C   0  0  0  0  0  0  0  0  0  0  0  0
   37.0100   27.0660   33.7460 C   0  0  0  0  0  0  0  0  0  0  0  0
   37.5220   27.4420   34.9870 C   0  0  0  0  0  0  0  0  0  0  0  0
   38.2030   26.4980   35.7230 N   0  0  0  0  0  0  0  0  0  0  0  0
   38.3780   25.2360   35.2650 C   0  0  0  0  0  0  0  0  0  0  0  0
   37.8840   24.8810   34.0730 N   0  0  0  0  0  0  0  0  0  0  0  0
   36.4900   27.8630   33.2340 H   0  0  0  0  0  0  0  0  0  0  0  0
   37.4090   28.4400   35.3990 H   0  0  0  0  0  0  0  0  0  0  0  0
   37.3940   24.3060   37.7680 F   0  0  0  0  0  0  0  0  0  0  0  0
   38.5850   23.8640   37.2960 C   0  0  0  0  0  0  0  0  0  0  0  0
   39.1080   24.2810   36.0910 C   0  0  0  0  0  0  0  0  0  0  0  0
   40.3190   23.8190   35.6290 C   0  0  0  0  0  0  0  0  0  0  0  0
   40.7110   24.1530   34.6910 H   0  0  0  0  0  0  0  0  0  0  0  0
   41.0680   22.9080   36.3630 C   0  0  0  0  0  0  0  0  0  0  0  0
   42.0190   22.5600   35.9760 H   0  0  0  0  0  0  0  0  0  0  0  0
   40.5480   22.4780   37.5860 C   0  0  0  0  0  3  0  0  0  0  0  0
   39.3290   22.9600   38.0230 C   0  0  0  0  0  3  0  0  0  0  0  0
   36.6510   25.5310   32.0690 O   0  0  0  0  0  0  0  0  0  0  0  0
   36.7280   24.7050   31.5130 H   0  0  0  0  0  0  0  0  0  0  0  0
  1  2  2  0  0  0  0
  1  6  1  0  0  0  0
  2  3  1  0  0  0  0
  3  8  1  0  0  0  0
  3  4  2  0  0  0  0
  5  4  1  0  0  0  0
  5 11  1  0  0  0  0
  6  5  2  0  0  0  0
  7  2  1  0  0  0  0
 10  9  1  0  0  0  0
 10 17  1  0  0  0  0
 11 10  2  0  0  0  0
 12 11  1  0  0  0  0
 12 14  2  0  0  0  0
 13 12  1  0  0  0  0
 14 16  1  0  0  0  0
 15 14  1  0  0  0  0
 16 17  2  0  0  0  0
 18  1  1  0  0  0  0
 19 18  1  0  0  0  0
M  END
>  <minimizedAffinity>
-4.40781832

$$$$

 OpenBabel03272506353D

 19 20  0  0  0  0  0  0  0  0999 V2000
   35.8480   29.5560   31.5310 C   0  0  0  0  0  0  0  0  0  0  0  0
   36.5710   28.3790   31.7460 C   0  0  0  0  0  0  0  0  0  0  0  0
   36.7110   27.9120   33.0520 C   0  0  0  0  0  0  0  0  0  0  0  0
   36.1280   28.6370   34.0670 N   0  0  0  0  0  0  0  0  0  0  0  0
   35.4350   29.7730   33.8180 C   0  0  0  0  0  0  0  0  0  0  0  0
   35.3050   30.2160   32.5620 N   0  0  0  0  0  0  0  0  0  0  0  0
   37.0580   27.7560   31.0090 H   0  0  0  0  0  0  0  0  0  0  0  0
   37.2560   27.0090   33.3050 H   0  0  0  0  0  0  0  0  0  0  0  0
   32.7010   29.4830   34.5520 F   0  0  0  0  0  0  0  0  0  0  0  0
   33.5100   30.3190   35.2480 C   0  0  0  0  0  0  0  0  0  0  0  0
   34.8400   30.4960   34.9360 C   0  0  0  0  0  0  0  0  0  0  0  0
   35.6450   31.3480   35.6570 C   0  0  0  0  0  0  0  0  0  0  0  0
   36.6770   31.4750   35.4010 H   0  0  0  0  0  0  0  0  0  0  0  0
   35.1460   32.0690   36.7340 C   0  0  0  0  0  0  0  0  0  0  0  0
   35.8020   32.7340   37.2850 H   0  0  0  0  0  0  0  0  0  0  0  0
   33.7990   31.8970   37.0600 C   0  0  0  0  0  3  0  0  0  0  0  0
   33.0160   31.0340   36.3180 C   0  0  0  0  0  3  0  0  0  0  0  0
   35.7960   29.8910   30.1930 O   0  0  0  0  0  0  0  0  0  0  0  0
   35.2760   30.6370   29.7800 H   0  0  0  0  0  0  0  0  0  0  0  0
  1  2  2  0  0  0  0
  1  6  1  0  0  0  0
  2  3  1  0  0  0  0
  3  8  1  0  0  0  0
  3  4  2  0  0  0  0
  5  4  1  0  0  0  0
  5 11  1  0  0  0  0
  6  5  2  0  0  0  0
  7  2  1  0  0  0  0
  9 10  1  0  0  0  0
 10 17  1  0  0  0  0
 11 10  2  0  0  0  0
 11 12  1  0  0  0  0
 12 14  2  0  0  0  0
 13 12  1  0  0  0  0
 14 16  1  0  0  0  0
 14 15  1  0  0  0  0
 17 16  2  0  0  0  0
 18  1  1  0  0  0  0
 19 18  1  0  0  0  0
M  END
>  <minimizedAffinity>
-4.39836407

$$$$

 OpenBabel03272506353D

 19 20  0  0  0  0  0  0  0  0999 V2000
   34.6040   31.5300   36.4790 C   0  0  0  0  0  0  0  0  0  0  0  0
   33.2400   31.2360   36.5640 C   0  0  0  0  0  0  0  0  0  0  0  0
   32.6810   30.3870   35.6100 C   0  0  0  0  0  0  0  0  0  0  0  0
   33.5040   29.8800   34.6290 N   0  0  0  0  0  0  0  0  0  0  0  0
   34.8210   30.1890   34.5810 C   0  0  0  0  0  0  0  0  0  0  0  0
   35.3510   31.0050   35.5000 N   0  0  0  0  0  0  0  0  0  0  0  0
   32.5290   31.5910   37.2970 H   0  0  0  0  0  0  0  0  0  0  0  0
   31.6320   30.1080   35.6040 H   0  0  0  0  0  0  0  0  0  0  0  0
   36.2000   27.7150   34.8620 F   0  0  0  0  0  0  0  0  0  0  0  0
   36.2870   28.4190   33.7070 C   0  0  0  0  0  0  0  0  0  0  0  0
   35.6410   29.6200   33.5170 C   0  0  0  0  0  0  0  0  0  0  0  0
   35.7430   30.3180   32.3350 C   0  0  0  0  0  0  0  0  0  0  0  0
   35.2340   31.2510   32.2040 H   0  0  0  0  0  0  0  0  0  0  0  0
   36.5060   29.8360   31.2790 C   0  0  0  0  0  0  0  0  0  0  0  0
   36.5690   30.4050   30.3590 H   0  0  0  0  0  0  0  0  0  0  0  0
   37.1660   28.6180   31.4610 C   0  0  0  0  0  3  0  0  0  0  0  0
   37.0440   27.9410   32.6580 C   0  0  0  0  0  3  0  0  0  0  0  0
   35.0110   32.3800   37.4870 O   0  0  0  0  0  0  0  0  0  0  0  0
   35.9450   32.6710   37.6890 H   0  0  0  0  0  0  0  0  0  0  0  0
  1  2  1  0  0  0  0
  1 18  1  0  0  0  0
  2  7  1  0  0  0  0
  3  2  2  0  0  0  0
  4  3  1  0  0  0  0
  5  4  2  0  0  0  0
  5  6  1  0  0  0  0
  6  1  2  0  0  0  0
  8  3  1  0  0  0  0
 10  9  1  0  0  0  0
 11 10  1  0  0  0  0
 11  5  1  0  0  0  0
 12 11  2  0  0  0  0
 13 12  1  0  0  0  0
 14 16  2  0  0  0  0
 14 12  1  0  0  0  0
 15 14  1  0  0  0  0
 16 17  1  0  0  0  0
 17 10  2  0  0  0  0
 18 19  1  0  0  0  0
M  END
>  <minimizedAffinity>
-4.34455681

$$$$
