
 OpenBabel03272509213D

 46 50  0  0  0  0  0  0  0  0999 V2000
   38.0040   31.3700   48.1660 C   0  0  0  0  0  0  0  0  0  0  0  0
   37.1810   31.6220   49.2470 C   0  0  0  0  0  0  0  0  0  0  0  0
   37.4100   32.8620   49.8570 C   0  0  0  0  0  0  0  0  0  0  0  0
   38.3870   33.7490   49.3950 C   0  0  0  0  0  0  0  0  0  0  0  0
   39.1720   33.3930   48.2830 C   0  0  0  0  0  0  0  0  0  0  0  0
   38.9670   32.1770   47.6640 C   0  0  0  0  0  0  0  0  0  0  0  0
   36.7840   33.1010   50.7140 H   0  0  0  0  0  0  0  0  0  0  0  0
   38.5060   34.6860   49.9150 H   0  0  0  0  0  0  0  0  0  0  0  0
   39.9130   34.1170   47.9680 H   0  0  0  0  0  0  0  0  0  0  0  0
   34.9750   30.5940   49.0320 C   0  0  0  0  0  0  0  0  0  0  0  0
   36.1840   30.7180   49.7200 C   0  0  0  0  0  0  0  0  0  0  0  0
   36.3690   29.9330   50.8670 C   0  0  0  0  0  0  0  0  0  0  0  0
   35.3740   29.1010   51.2480 N   0  0  0  0  0  0  0  0  0  0  0  0
   34.2060   29.0110   50.5440 C   0  0  0  0  0  0  0  0  0  0  0  0
   34.0260   29.7530   49.4560 N   0  0  0  0  0  0  0  0  0  0  0  0
   34.8350   31.2020   48.1450 H   0  0  0  0  0  0  0  0  0  0  0  0
   33.4860   28.3030   50.9570 H   0  0  0  0  0  0  0  0  0  0  0  0
   37.6350   30.0260   51.6360 C   0  0  0  0  0  0  0  0  0  0  0  0
   38.4790   30.0550   50.8950 H   0  0  0  0  0  0  0  0  0  0  0  0
   37.6420   30.8580   52.3450 H   0  0  0  0  0  0  0  0  0  0  0  0
   37.7490   29.0280   52.1340 H   0  0  0  0  0  0  0  0  0  0  0  0
   37.8640   30.1580   47.4800 O   0  0  0  0  0  0  0  0  0  0  0  0
   38.5100   29.4060   47.6550 H   0  0  0  0  0  0  0  0  0  0  0  0
   39.7720   31.9030   46.5860 O   0  0  0  0  0  0  0  0  0  0  0  0
   39.8220   30.6980   44.3970 C   0  0  0  0  0  0  0  0  0  0  0  0
   39.3740   31.6350   45.3010 C   0  0  0  0  0  0  0  0  0  0  0  0
   38.3400   32.4930   44.9120 C   0  0  0  0  0  0  0  0  0  0  0  0
   37.7790   32.3940   43.6290 C   0  0  0  0  0  0  0  0  0  0  0  0
   36.7980   33.0540   42.9710 N   0  0  0  0  0  0  0  0  0  0  0  0
   36.6580   32.5480   41.7380 C   0  0  0  0  0  0  0  0  0  0  0  0
   37.5640   31.5530   41.6180 N   0  0  0  0  0  0  0  0  0  0  0  0
   38.2590   31.4450   42.7680 C   0  0  0  0  0  0  0  0  0  0  0  0
   39.2770   30.5970   43.1430 C   0  0  0  0  0  0  0  0  0  0  0  0
   40.6240   30.0850   44.7990 H   0  0  0  0  0  0  0  0  0  0  0  0
   37.8850   33.2790   45.5140 H   0  0  0  0  0  0  0  0  0  0  0  0
   36.2410   33.8530   43.3980 H   0  0  0  0  0  0  0  0  0  0  0  0
   35.9500   32.8880   41.0010 H   0  0  0  0  0  0  0  0  0  0  0  0
   38.1510   28.0230   42.6860 F   0  0  0  0  0  0  0  0  0  0  0  0
   39.2800   28.3220   42.0110 C   0  0  0  0  0  0  0  0  0  0  0  0
   39.8110   29.5740   42.2450 C   0  0  0  0  0  0  0  0  0  0  0  0
   40.9790   30.0120   41.6120 C   0  0  0  0  0  0  0  0  0  0  0  0
   41.4470   30.9660   41.7430 H   0  0  0  0  0  0  0  0  0  0  0  0
   41.6200   29.1600   40.7200 C   0  0  0  0  0  0  0  0  0  0  0  0
   42.5280   29.4340   40.1950 H   0  0  0  0  0  0  0  0  0  0  0  0
   41.0580   27.9160   40.5130 C   0  0  0  0  0  3  0  0  0  0  0  0
   39.9090   27.4610   41.1250 C   0  0  0  0  0  3  0  0  0  0  0  0
  1  2  1  0  0  0  0
  2 11  1  0  0  0  0
  2  3  2  0  0  0  0
  3  7  1  0  0  0  0
  4  3  1  0  0  0  0
  4  8  1  0  0  0  0
  5  4  2  0  0  0  0
  6  1  2  0  0  0  0
  6  5  1  0  0  0  0
  9  5  1  0  0  0  0
 10 15  2  0  0  0  0
 10 11  1  0  0  0  0
 11 12  2  0  0  0  0
 12 13  1  0  0  0  0
 12 18  1  0  0  0  0
 14 17  1  0  0  0  0
 14 13  2  0  0  0  0
 15 14  1  0  0  0  0
 16 10  1  0  0  0  0
 18 21  1  0  0  0  0
 18 20  1  0  0  0  0
 19 18  1  0  0  0  0
 22 23  1  0  0  0  0
 22  1  1  0  0  0  0
 24  6  1  0  0  0  0
 25 34  1  0  0  0  0
 25 26  1  0  0  0  0
 26 24  1  0  0  0  0
 27 26  2  0  0  0  0
 27 35  1  0  0  0  0
 28 27  1  0  0  0  0
 29 36  1  0  0  0  0
 29 28  1  0  0  0  0
 30 29  1  0  0  0  0
 31 30  2  0  0  0  0
 31 32  1  0  0  0  0
 32 33  1  0  0  0  0
 32 28  2  0  0  0  0
 33 25  2  0  0  0  0
 37 30  1  0  0  0  0
 39 40  1  0  0  0  0
 39 38  1  0  0  0  0
 40 33  1  0  0  0  0
 41 42  1  0  0  0  0
 41 40  2  0  0  0  0
 43 41  1  0  0  0  0
 44 43  1  0  0  0  0
 45 43  2  0  0  0  0
 45 46  1  0  0  0  0
 46 39  2  0  0  0  0
M  END
>  <minimizedAffinity>
-7.51746845

>  <minimizedRMSD>
1.28547013

$$$$
