
 OpenBabel03272502153D

 32 34  0  0  1  0  0  0  0  0999 V2000
   33.5420   29.5120   47.4360 N   0  0  0  0  0  0  0  0  0  0  0  0
   34.6410   30.4350   47.2350 C   0  0  2  0  0  0  0  0  0  0  0  0
   35.1170   30.3220   45.8050 C   0  0  0  0  0  0  0  0  0  0  0  0
   34.1480   29.6810   44.9970 O   0  0  0  0  0  0  0  0  0  0  0  0
   34.1620   28.3340   45.4350 C   0  0  0  0  0  0  0  0  0  0  0  0
   33.9280   28.2280   46.9320 C   0  0  2  0  0  0  0  0  0  0  0  0
   33.3410   29.4150   48.4570 H   0  0  0  0  0  0  0  0  0  0  0  0
   34.2150   31.4510   47.4590 H   0  0  0  0  0  0  0  0  0  0  0  0
   36.1140   29.8700   45.6970 H   0  0  0  0  0  0  0  0  0  0  0  0
   35.1840   31.3700   45.4210 H   0  0  0  0  0  0  0  0  0  0  0  0
   35.1990   27.9730   45.2250 H   0  0  0  0  0  0  0  0  0  0  0  0
   33.4800   27.6990   44.8450 H   0  0  0  0  0  0  0  0  0  0  0  0
   34.7940   27.7790   47.4530 H   0  0  0  0  0  0  0  0  0  0  0  0
   31.2360   29.0160   46.4720 F   0  0  0  0  0  0  0  0  0  0  0  0
   31.5010   27.7500   46.8720 C   0  0  0  0  0  0  0  0  0  0  0  0
   32.7730   27.3070   47.1110 C   0  0  0  0  0  0  0  0  0  0  0  0
   32.9650   25.9880   47.5210 C   0  0  0  0  0  0  0  0  0  0  0  0
   33.9830   25.6190   47.7170 H   0  0  0  0  0  0  0  0  0  0  0  0
   31.8850   25.1440   47.6830 C   0  0  0  0  0  0  0  0  0  0  0  0
   31.9870   24.1090   48.0000 H   0  0  0  0  0  0  0  0  0  0  0  0
   30.5850   25.6000   47.4380 C   0  0  0  0  0  0  0  0  0  0  0  0
   30.4210   26.9140   47.0320 C   0  0  0  0  0  0  0  0  0  0  0  0
   36.0160   30.0390   48.3550 S   0  0  0  0  0  0  0  0  0  0  0  0
   37.2710   31.2830   48.3160 C   0  0  0  0  0  0  0  0  0  0  0  0
   37.2760   32.0980   49.4540 C   0  0  0  0  0  0  0  0  0  0  0  0
   38.2140   33.1210   49.5550 C   0  0  0  0  0  0  0  0  0  0  0  0
   39.0970   33.2770   48.5160 N   0  0  0  0  0  0  0  0  0  0  0  0
   39.0720   32.4850   47.4390 C   0  0  0  0  0  0  0  0  0  0  0  0
   38.1690   31.5050   47.3490 N   0  0  0  0  0  0  0  0  0  0  0  0
   36.5970   32.0210   50.3130 H   0  0  0  0  0  0  0  0  0  0  0  0
   38.2610   33.7800   50.4140 H   0  0  0  0  0  0  0  0  0  0  0  0
   39.7570   32.5860   46.6060 H   0  0  0  0  0  0  0  0  0  0  0  0
  1  7  1  0  0  0  0
  2  1  1  0  0  0  0
  2  8  1  1  0  0  0
  2 23  1  0  0  0  0
  3  2  1  0  0  0  0
  4  5  1  0  0  0  0
  4  3  1  0  0  0  0
  5  6  1  0  0  0  0
  6 16  1  0  0  0  0
  6  1  1  0  0  0  0
  6 13  1  1  0  0  0
  9  3  1  0  0  0  0
 10  3  1  0  0  0  0
 11  5  1  0  0  0  0
 12  5  1  0  0  0  0
 14 15  1  0  0  0  0
 15 22  2  0  0  0  0
 15 16  1  0  0  0  0
 16 17  2  0  0  0  0
 17 19  1  0  0  0  0
 17 18  1  0  0  0  0
 19 20  1  0  0  0  0
 21 19  2  0  0  0  0
 22 21  1  0  0  0  0
 24 23  1  0  0  0  0
 24 25  1  0  0  0  0
 25 26  2  0  0  0  0
 25 30  1  0  0  0  0
 26 31  1  0  0  0  0
 27 26  1  0  0  0  0
 28 27  2  0  0  0  0
 29 28  1  0  0  0  0
 29 24  2  0  0  0  0
 32 28  1  0  0  0  0
M  END
>  <minimizedAffinity>
-4.0658555

>  <minimizedRMSD>
2.32136226

$$$$
