
 OpenBabel03262520083D

 18 19  0  0  0  0  0  0  0  0999 V2000
   39.9190   22.5950   37.2520 C   0  0  0  0  0  0  0  0  0  0  0  0
   39.2530   23.2610   38.3020 C   0  0  0  0  0  0  0  0  0  0  0  0
   37.8790   23.4510   38.1620 C   0  0  0  0  0  0  0  0  0  0  0  0
   37.2510   22.9980   37.0430 N   0  0  0  0  0  0  0  0  0  0  0  0
   37.9200   22.3630   36.0540 C   0  0  0  0  0  0  0  0  0  0  0  0
   39.2520   22.1660   36.1670 N   0  0  0  0  0  0  0  0  0  0  0  0
   40.9930   22.3800   37.2330 H   0  0  0  0  0  0  0  0  0  0  0  0
   39.8600   23.5730   39.1400 H   0  0  0  0  0  0  0  0  0  0  0  0
   37.3760   23.9510   38.9510 H   0  0  0  0  0  0  0  0  0  0  0  0
   35.7430   20.5380   36.1790 F   0  0  0  0  0  0  0  0  0  0  0  0
   36.2080   20.9760   34.9810 C   0  0  0  0  0  0  0  0  0  0  0  0
   37.2690   21.8690   34.8450 C   0  0  0  0  0  0  0  0  0  0  0  0
   37.6610   22.2480   33.5800 C   0  0  0  0  0  0  0  0  0  0  0  0
   38.4880   22.9420   33.5290 H   0  0  0  0  0  0  0  0  0  0  0  0
   37.0500   21.7840   32.4320 C   0  0  0  0  0  0  0  0  0  0  0  0
   37.4060   22.1210   31.4630 H   0  0  0  0  0  0  0  0  0  0  0  0
   35.9850   20.8880   32.5860 C   0  0  0  0  0  3  0  0  0  0  0  0
   35.5690   20.4880   33.8440 C   0  0  0  0  0  3  0  0  0  0  0  0
  1  2  1  0  0  0  0
  2  8  1  0  0  0  0
  3  2  2  0  0  0  0
  3  9  1  0  0  0  0
  4  3  1  0  0  0  0
  5  6  1  0  0  0  0
  5  4  2  0  0  0  0
  6  1  2  0  0  0  0
  7  1  1  0  0  0  0
 11 10  1  0  0  0  0
 12 11  1  0  0  0  0
 12  5  1  0  0  0  0
 13 12  2  0  0  0  0
 14 13  1  0  0  0  0
 15 17  2  0  0  0  0
 15 13  1  0  0  0  0
 16 15  1  0  0  0  0
 17 18  1  0  0  0  0
 18 11  2  0  0  0  0
M  END
>  <minimizedAffinity>
-4.34486437

$$$$

 OpenBabel03262520083D

 18 19  0  0  0  0  0  0  0  0999 V2000
   40.8990   23.0820   36.3460 C   0  0  0  0  0  0  0  0  0  0  0  0
   40.4060   22.5910   37.5730 C   0  0  0  0  0  0  0  0  0  0  0  0
   39.1630   23.0630   37.9920 C   0  0  0  0  0  0  0  0  0  0  0  0
   38.4930   23.9580   37.2180 N   0  0  0  0  0  0  0  0  0  0  0  0
   38.9940   24.4100   36.0450 C   0  0  0  0  0  0  0  0  0  0  0  0
   40.1970   23.9650   35.6180 N   0  0  0  0  0  0  0  0  0  0  0  0
   41.8590   22.7950   35.9020 H   0  0  0  0  0  0  0  0  0  0  0  0
   41.0310   21.8820   38.0990 H   0  0  0  0  0  0  0  0  0  0  0  0
   38.7900   22.6960   38.9140 H   0  0  0  0  0  0  0  0  0  0  0  0
   38.4000   27.0380   36.9520 F   0  0  0  0  0  0  0  0  0  0  0  0
   38.0360   26.6390   35.7070 C   0  0  0  0  0  0  0  0  0  0  0  0
   38.2940   25.3690   35.1970 C   0  0  0  0  0  0  0  0  0  0  0  0
   37.8790   25.0690   33.9190 C   0  0  0  0  0  0  0  0  0  0  0  0
   38.1040   24.0700   33.5710 H   0  0  0  0  0  0  0  0  0  0  0  0
   37.2150   25.9710   33.1110 C   0  0  0  0  0  0  0  0  0  0  0  0
   36.9140   25.6720   32.1110 H   0  0  0  0  0  0  0  0  0  0  0  0
   36.9640   27.2430   33.6380 C   0  0  0  0  0  3  0  0  0  0  0  0
   37.3680   27.5740   34.9200 C   0  0  0  0  0  3  0  0  0  0  0  0
  1  2  1  0  0  0  0
  2  3  2  0  0  0  0
  2  8  1  0  0  0  0
  3  9  1  0  0  0  0
  4  3  1  0  0  0  0
  5  4  2  0  0  0  0
  6  5  1  0  0  0  0
  6  1  2  0  0  0  0
  7  1  1  0  0  0  0
 11 10  1  0  0  0  0
 12 11  1  0  0  0  0
 12  5  1  0  0  0  0
 13 12  2  0  0  0  0
 14 13  1  0  0  0  0
 15 17  2  0  0  0  0
 15 13  1  0  0  0  0
 16 15  1  0  0  0  0
 17 18  1  0  0  0  0
 18 11  2  0  0  0  0
M  END
>  <minimizedAffinity>
-4.25752401

$$$$

 OpenBabel03262520083D

 18 19  0  0  0  0  0  0  0  0999 V2000
   37.1650   26.0360   33.5000 C   0  0  0  0  0  0  0  0  0  0  0  0
   37.0010   27.3540   33.9740 C   0  0  0  0  0  0  0  0  0  0  0  0
   37.5740   27.6610   35.2060 C   0  0  0  0  0  0  0  0  0  0  0  0
   38.2520   26.6980   35.8870 N   0  0  0  0  0  0  0  0  0  0  0  0
   38.3910   25.4420   35.4050 C   0  0  0  0  0  0  0  0  0  0  0  0
   37.8440   25.1210   34.2110 N   0  0  0  0  0  0  0  0  0  0  0  0
   36.7670   25.6620   32.5500 H   0  0  0  0  0  0  0  0  0  0  0  0
   36.4420   28.0310   33.3420 H   0  0  0  0  0  0  0  0  0  0  0  0
   37.4520   28.6520   35.5650 H   0  0  0  0  0  0  0  0  0  0  0  0
   37.4370   24.3880   37.8680 F   0  0  0  0  0  0  0  0  0  0  0  0
   38.5880   23.9230   37.3180 C   0  0  0  0  0  0  0  0  0  0  0  0
   39.1130   24.3920   36.1160 C   0  0  0  0  0  0  0  0  0  0  0  0
   40.2900   23.8500   35.6490 C   0  0  0  0  0  0  0  0  0  0  0  0
   40.6550   24.2490   34.7110 H   0  0  0  0  0  0  0  0  0  0  0  0
   40.9790   22.8570   36.3160 C   0  0  0  0  0  0  0  0  0  0  0  0
   41.9020   22.4710   35.8940 H   0  0  0  0  0  0  0  0  0  0  0  0
   40.4380   22.3970   37.5220 C   0  0  0  0  0  3  0  0  0  0  0  0
   39.2570   22.9220   38.0180 C   0  0  0  0  0  3  0  0  0  0  0  0
  1  2  2  0  0  0  0
  1  6  1  0  0  0  0
  2  3  1  0  0  0  0
  3  9  1  0  0  0  0
  3  4  2  0  0  0  0
  5  4  1  0  0  0  0
  5 12  1  0  0  0  0
  6  5  2  0  0  0  0
  7  1  1  0  0  0  0
  8  2  1  0  0  0  0
 11 10  1  0  0  0  0
 11 18  1  0  0  0  0
 12 11  2  0  0  0  0
 13 12  1  0  0  0  0
 13 15  2  0  0  0  0
 14 13  1  0  0  0  0
 15 17  1  0  0  0  0
 16 15  1  0  0  0  0
 17 18  2  0  0  0  0
M  END
>  <minimizedAffinity>
-4.15041876

$$$$

 OpenBabel03262520083D

 18 19  0  0  0  0  0  0  0  0999 V2000
   37.3980   27.6450   34.8260 C   0  0  0  0  0  0  0  0  0  0  0  0
   37.0240   27.3230   33.5050 C   0  0  0  0  0  0  0  0  0  0  0  0
   37.2290   26.0080   33.0900 C   0  0  0  0  0  0  0  0  0  0  0  0
   37.7720   25.1110   33.9570 N   0  0  0  0  0  0  0  0  0  0  0  0
   38.1210   25.4530   35.2180 C   0  0  0  0  0  0  0  0  0  0  0  0
   37.9300   26.7210   35.6430 N   0  0  0  0  0  0  0  0  0  0  0  0
   37.2920   28.6370   35.2790 H   0  0  0  0  0  0  0  0  0  0  0  0
   36.6020   28.1220   32.9110 H   0  0  0  0  0  0  0  0  0  0  0  0
   36.9470   25.7630   32.0970 H   0  0  0  0  0  0  0  0  0  0  0  0
   40.4980   24.0150   34.6110 F   0  0  0  0  0  0  0  0  0  0  0  0
   39.8700   23.8380   35.8010 C   0  0  0  0  0  0  0  0  0  0  0  0
   38.7040   24.5080   36.1650 C   0  0  0  0  0  0  0  0  0  0  0  0
   38.1490   24.2530   37.4000 C   0  0  0  0  0  0  0  0  0  0  0  0
   37.2450   24.7990   37.6340 H   0  0  0  0  0  0  0  0  0  0  0  0
   38.6940   23.3600   38.3010 C   0  0  0  0  0  0  0  0  0  0  0  0
   38.2080   23.2040   39.2590 H   0  0  0  0  0  0  0  0  0  0  0  0
   39.8660   22.6960   37.9200 C   0  0  0  0  0  3  0  0  0  0  0  0
   40.4470   22.9310   36.6860 C   0  0  0  0  0  3  0  0  0  0  0  0
  1  7  1  0  0  0  0
  1  6  1  0  0  0  0
  2  1  2  0  0  0  0
  3  2  1  0  0  0  0
  3  4  2  0  0  0  0
  4  5  1  0  0  0  0
  5  6  2  0  0  0  0
  5 12  1  0  0  0  0
  8  2  1  0  0  0  0
  9  3  1  0  0  0  0
 10 11  1  0  0  0  0
 11 12  2  0  0  0  0
 11 18  1  0  0  0  0
 12 13  1  0  0  0  0
 13 14  1  0  0  0  0
 13 15  2  0  0  0  0
 15 16  1  0  0  0  0
 17 15  1  0  0  0  0
 18 17  2  0  0  0  0
M  END
>  <minimizedAffinity>
-4.14952087

$$$$

 OpenBabel03262520083D

 18 19  0  0  0  0  0  0  0  0999 V2000
   35.9410   29.8030   31.9080 C   0  0  0  0  0  0  0  0  0  0  0  0
   36.6480   28.6000   32.1080 C   0  0  0  0  0  0  0  0  0  0  0  0
   36.6640   28.0810   33.4010 C   0  0  0  0  0  0  0  0  0  0  0  0
   36.0130   28.7430   34.3960 N   0  0  0  0  0  0  0  0  0  0  0  0
   35.3440   29.8970   34.1700 C   0  0  0  0  0  0  0  0  0  0  0  0
   35.3130   30.4180   32.9240 N   0  0  0  0  0  0  0  0  0  0  0  0
   35.8480   30.3180   30.9450 H   0  0  0  0  0  0  0  0  0  0  0  0
   37.1250   28.1670   31.2390 H   0  0  0  0  0  0  0  0  0  0  0  0
   37.1960   27.1750   33.5540 H   0  0  0  0  0  0  0  0  0  0  0  0
   36.7010   31.7020   35.8980 F   0  0  0  0  0  0  0  0  0  0  0  0
   35.3660   31.4920   36.0300 C   0  0  0  0  0  0  0  0  0  0  0  0
   34.6380   30.6240   35.2200 C   0  0  0  0  0  0  0  0  0  0  0  0
   33.2850   30.4860   35.4410 C   0  0  0  0  0  0  0  0  0  0  0  0
   32.7660   29.8000   34.7850 H   0  0  0  0  0  0  0  0  0  0  0  0
   32.6100   31.1700   36.4320 C   0  0  0  0  0  0  0  0  0  0  0  0
   31.5420   31.0170   36.5550 H   0  0  0  0  0  0  0  0  0  0  0  0
   33.3560   32.0390   37.2370 C   0  0  0  0  0  3  0  0  0  0  0  0
   34.7170   32.1990   37.0390 C   0  0  0  0  0  3  0  0  0  0  0  0
  1  2  2  0  0  0  0
  1  6  1  0  0  0  0
  2  3  1  0  0  0  0
  3  9  1  0  0  0  0
  3  4  2  0  0  0  0
  5  4  1  0  0  0  0
  5 12  1  0  0  0  0
  6  5  2  0  0  0  0
  7  1  1  0  0  0  0
  8  2  1  0  0  0  0
 10 11  1  0  0  0  0
 11 18  1  0  0  0  0
 12 13  1  0  0  0  0
 12 11  2  0  0  0  0
 13 15  2  0  0  0  0
 14 13  1  0  0  0  0
 15 16  1  0  0  0  0
 15 17  1  0  0  0  0
 18 17  2  0  0  0  0
M  END
>  <minimizedAffinity>
-4.12590027

$$$$

 OpenBabel03262520083D

 18 19  0  0  0  0  0  0  0  0999 V2000
   39.1850   23.0000   37.9330 C   0  0  0  0  0  0  0  0  0  0  0  0
   40.4080   22.4500   37.4960 C   0  0  0  0  0  0  0  0  0  0  0  0
   40.9620   22.9810   36.3320 C   0  0  0  0  0  0  0  0  0  0  0  0
   40.3150   23.9840   35.6800 N   0  0  0  0  0  0  0  0  0  0  0  0
   39.1420   24.4890   36.1270 C   0  0  0  0  0  0  0  0  0  0  0  0
   38.5860   23.9910   37.2530 N   0  0  0  0  0  0  0  0  0  0  0  0
   38.6430   22.6770   38.8290 H   0  0  0  0  0  0  0  0  0  0  0  0
   40.8270   21.6560   38.0990 H   0  0  0  0  0  0  0  0  0  0  0  0
   41.8830   22.5700   36.0010 H   0  0  0  0  0  0  0  0  0  0  0  0
   37.8360   24.0630   33.6370 F   0  0  0  0  0  0  0  0  0  0  0  0
   37.8120   25.2850   34.2280 C   0  0  0  0  0  0  0  0  0  0  0  0
   38.4290   25.5650   35.4450 C   0  0  0  0  0  0  0  0  0  0  0  0
   38.3440   26.8420   35.9560 C   0  0  0  0  0  0  0  0  0  0  0  0
   38.8390   27.0060   36.9030 H   0  0  0  0  0  0  0  0  0  0  0  0
   37.6720   27.8650   35.3170 C   0  0  0  0  0  0  0  0  0  0  0  0
   37.6410   28.8500   35.7720 H   0  0  0  0  0  0  0  0  0  0  0  0
   37.0570   27.5670   34.0960 C   0  0  0  0  0  3  0  0  0  0  0  0
   37.1250   26.2930   33.5560 C   0  0  0  0  0  3  0  0  0  0  0  0
  1  7  1  0  0  0  0
  2  1  1  0  0  0  0
  2  8  1  0  0  0  0
  3  2  2  0  0  0  0
  4  5  2  0  0  0  0
  4  3  1  0  0  0  0
  5  6  1  0  0  0  0
  6  1  2  0  0  0  0
  9  3  1  0  0  0  0
 10 11  1  0  0  0  0
 11 12  1  0  0  0  0
 12 13  2  0  0  0  0
 12  5  1  0  0  0  0
 13 14  1  0  0  0  0
 15 16  1  0  0  0  0
 15 13  1  0  0  0  0
 17 15  2  0  0  0  0
 18 17  1  0  0  0  0
 18 11  2  0  0  0  0
M  END
>  <minimizedAffinity>
-4.11094618

$$$$

 OpenBabel03262520083D

 18 19  0  0  0  0  0  0  0  0999 V2000
   36.8360   27.8460   33.4110 C   0  0  0  0  0  0  0  0  0  0  0  0
   36.9240   28.2550   32.0640 C   0  0  0  0  0  0  0  0  0  0  0  0
   36.3340   29.4730   31.7320 C   0  0  0  0  0  0  0  0  0  0  0  0
   35.7100   30.2000   32.6970 N   0  0  0  0  0  0  0  0  0  0  0  0
   35.6430   29.7780   33.9810 C   0  0  0  0  0  0  0  0  0  0  0  0
   36.2090   28.6010   34.3280 N   0  0  0  0  0  0  0  0  0  0  0  0
   37.2560   26.9140   33.8070 H   0  0  0  0  0  0  0  0  0  0  0  0
   37.4470   27.5920   31.3880 H   0  0  0  0  0  0  0  0  0  0  0  0
   36.3990   29.7840   30.7190 H   0  0  0  0  0  0  0  0  0  0  0  0
   32.8430   29.5660   34.4310 F   0  0  0  0  0  0  0  0  0  0  0  0
   33.6050   30.3870   35.1980 C   0  0  0  0  0  0  0  0  0  0  0  0
   34.9790   30.5400   35.0340 C   0  0  0  0  0  0  0  0  0  0  0  0
   35.6570   31.4020   35.8690 C   0  0  0  0  0  0  0  0  0  0  0  0
   36.7220   31.4840   35.7000 H   0  0  0  0  0  0  0  0  0  0  0  0
   35.0360   32.1260   36.8670 C   0  0  0  0  0  0  0  0  0  0  0  0
   35.6270   32.7890   37.4920 H   0  0  0  0  0  0  0  0  0  0  0  0
   33.6550   31.9610   37.0190 C   0  0  0  0  0  3  0  0  0  0  0  0
   32.9460   31.1020   36.1960 C   0  0  0  0  0  3  0  0  0  0  0  0
  1  7  1  0  0  0  0
  1  6  1  0  0  0  0
  2  1  2  0  0  0  0
  3  2  1  0  0  0  0
  3  4  2  0  0  0  0
  4  5  1  0  0  0  0
  5  6  2  0  0  0  0
  5 12  1  0  0  0  0
  8  2  1  0  0  0  0
  9  3  1  0  0  0  0
 10 11  1  0  0  0  0
 11 18  1  0  0  0  0
 12 11  2  0  0  0  0
 12 13  1  0  0  0  0
 13 15  2  0  0  0  0
 14 13  1  0  0  0  0
 15 17  1  0  0  0  0
 15 16  1  0  0  0  0
 18 17  2  0  0  0  0
M  END
>  <minimizedAffinity>
-4.04424572

$$$$

 OpenBabel03262520083D

 18 19  0  0  0  0  0  0  0  0999 V2000
   30.9530   28.6280   33.9950 C   0  0  0  0  0  0  0  0  0  0  0  0
   30.5040   27.6960   34.9520 C   0  0  0  0  0  0  0  0  0  0  0  0
   31.1260   27.7180   36.2000 C   0  0  0  0  0  0  0  0  0  0  0  0
   32.1190   28.6160   36.4360 N   0  0  0  0  0  0  0  0  0  0  0  0
   32.5270   29.4980   35.4950 C   0  0  0  0  0  0  0  0  0  0  0  0
   31.9380   29.4960   34.2780 N   0  0  0  0  0  0  0  0  0  0  0  0
   30.5530   28.7190   32.9790 H   0  0  0  0  0  0  0  0  0  0  0  0
   29.7060   27.0320   34.6470 H   0  0  0  0  0  0  0  0  0  0  0  0
   30.7890   27.0170   36.9220 H   0  0  0  0  0  0  0  0  0  0  0  0
   32.3460   31.4340   37.5690 F   0  0  0  0  0  0  0  0  0  0  0  0
   33.4340   31.3910   36.7600 C   0  0  0  0  0  0  0  0  0  0  0  0
   33.5900   30.4710   35.7250 C   0  0  0  0  0  0  0  0  0  0  0  0
   34.7360   30.5160   34.9620 C   0  0  0  0  0  0  0  0  0  0  0  0
   34.8080   29.7810   34.1720 H   0  0  0  0  0  0  0  0  0  0  0  0
   35.7450   31.4350   35.1740 C   0  0  0  0  0  0  0  0  0  0  0  0
   36.6250   31.4180   34.5370 H   0  0  0  0  0  0  0  0  0  0  0  0
   35.5740   32.3510   36.2170 C   0  0  0  0  0  3  0  0  0  0  0  0
   34.4330   32.3310   37.0010 C   0  0  0  0  0  3  0  0  0  0  0  0
  1  6  2  0  0  0  0
  1  2  1  0  0  0  0
  2  3  2  0  0  0  0
  3  4  1  0  0  0  0
  3  9  1  0  0  0  0
  5 12  1  0  0  0  0
  5  4  2  0  0  0  0
  6  5  1  0  0  0  0
  7  1  1  0  0  0  0
  8  2  1  0  0  0  0
 11 18  1  0  0  0  0
 11 10  1  0  0  0  0
 12 11  2  0  0  0  0
 13 15  2  0  0  0  0
 13 12  1  0  0  0  0
 14 13  1  0  0  0  0
 15 17  1  0  0  0  0
 16 15  1  0  0  0  0
 17 18  2  0  0  0  0
M  END
>  <minimizedAffinity>
-4.00350475

$$$$

 OpenBabel03262520083D

 18 19  0  0  0  0  0  0  0  0999 V2000
   35.7220   20.7420   33.7580 C   0  0  0  0  0  0  0  0  0  0  0  0
   35.9540   21.3160   32.4920 C   0  0  0  0  0  0  0  0  0  0  0  0
   36.9270   22.3120   32.4150 C   0  0  0  0  0  0  0  0  0  0  0  0
   37.5950   22.6820   33.5400 N   0  0  0  0  0  0  0  0  0  0  0  0
   37.3480   22.1100   34.7410 C   0  0  0  0  0  0  0  0  0  0  0  0
   36.4110   21.1420   34.8400 N   0  0  0  0  0  0  0  0  0  0  0  0
   34.9900   19.9520   33.9590 H   0  0  0  0  0  0  0  0  0  0  0  0
   35.3600   20.9380   31.6710 H   0  0  0  0  0  0  0  0  0  0  0  0
   37.1030   22.7450   31.4630 H   0  0  0  0  0  0  0  0  0  0  0  0
   40.1430   21.6800   35.0400 F   0  0  0  0  0  0  0  0  0  0  0  0
   39.4220   22.2490   36.0390 C   0  0  0  0  0  0  0  0  0  0  0  0
   38.0520   22.4900   35.9620 C   0  0  0  0  0  0  0  0  0  0  0  0
   37.4180   23.0730   37.0370 C   0  0  0  0  0  0  0  0  0  0  0  0
   36.3550   23.2390   36.9260 H   0  0  0  0  0  0  0  0  0  0  0  0
   38.0770   23.4340   38.1950 C   0  0  0  0  0  0  0  0  0  0  0  0
   37.5200   23.8910   39.0070 H   0  0  0  0  0  0  0  0  0  0  0  0
   39.4530   23.1860   38.2560 C   0  0  0  0  0  3  0  0  0  0  0  0
   40.1190   22.6010   37.1930 C   0  0  0  0  0  3  0  0  0  0  0  0
  1  7  1  0  0  0  0
  1  6  1  0  0  0  0
  2  1  2  0  0  0  0
  3  2  1  0  0  0  0
  3  4  2  0  0  0  0
  4  5  1  0  0  0  0
  5  6  2  0  0  0  0
  5 12  1  0  0  0  0
  8  2  1  0  0  0  0
  9  3  1  0  0  0  0
 10 11  1  0  0  0  0
 11 18  1  0  0  0  0
 12 11  2  0  0  0  0
 12 13  1  0  0  0  0
 13 15  2  0  0  0  0
 14 13  1  0  0  0  0
 15 17  1  0  0  0  0
 15 16  1  0  0  0  0
 18 17  2  0  0  0  0
M  END
>  <minimizedAffinity>
-3.95213437

$$$$
