
 OpenBabel03272506523D

 34 36  0  0  1  0  0  0  0  0999 V2000
   38.3530   26.8580   32.5240 C   0  0  1  0  0  0  0  0  0  0  0  0
   39.5190   27.1630   33.3730 C   0  0  0  0  0  0  0  0  0  0  0  0
   39.6090   26.4680   34.6970 C   0  0  0  0  0  0  0  0  0  0  0  0
   39.1590   25.0520   34.6580 C   0  0  2  0  0  0  0  0  0  0  0  0
   37.9590   24.7320   33.8490 C   0  0  0  0  0  0  0  0  0  0  0  0
   38.0020   25.4110   32.5080 C   0  0  0  0  0  0  0  0  0  0  0  0
   38.6530   27.0800   31.4470 H   0  0  0  0  0  0  0  0  0  0  0  0
   39.7890   28.2080   33.4460 H   0  0  0  0  0  0  0  0  0  0  0  0
   40.4020   26.7160   32.8050 H   0  0  0  0  0  0  0  0  0  0  0  0
   39.0680   27.1030   35.4360 H   0  0  0  0  0  0  0  0  0  0  0  0
   40.6680   26.4650   35.0330 H   0  0  0  0  0  0  0  0  0  0  0  0
   40.0150   24.4730   34.1930 H   0  0  0  0  0  0  0  0  0  0  0  0
   37.0460   25.0780   34.3670 H   0  0  0  0  0  0  0  0  0  0  0  0
   37.9660   23.6430   33.6550 H   0  0  0  0  0  0  0  0  0  0  0  0
   37.1090   25.1480   31.9530 H   0  0  0  0  0  0  0  0  0  0  0  0
   38.8490   24.9020   31.9550 H   0  0  0  0  0  0  0  0  0  0  0  0
   36.6510   28.0760   33.9530 C   0  0  0  0  0  0  0  0  0  0  0  0
   37.1820   27.7490   32.7070 C   0  0  0  0  0  0  0  0  0  0  0  0
   36.5700   28.3120   31.6040 C   0  0  0  0  0  0  0  0  0  0  0  0
   35.5050   29.1390   31.7700 N   0  0  0  0  0  0  0  0  0  0  0  0
   35.0220   29.4290   33.0030 C   0  0  0  0  0  0  0  0  0  0  0  0
   35.5970   28.8940   34.1120 N   0  0  0  0  0  0  0  0  0  0  0  0
   37.0760   27.6730   34.8600 H   0  0  0  0  0  0  0  0  0  0  0  0
   36.8340   28.1860   30.5700 H   0  0  0  0  0  0  0  0  0  0  0  0
   34.1740   30.0880   33.1150 H   0  0  0  0  0  0  0  0  0  0  0  0
   40.7930   22.9570   35.6340 F   0  0  0  0  0  0  0  0  0  0  0  0
   39.8260   23.4300   36.4570 C   0  0  0  0  0  0  0  0  0  0  0  0
   38.9960   24.4660   36.0080 C   0  0  0  0  0  0  0  0  0  0  0  0
   38.0660   24.8440   36.9390 C   0  0  0  0  0  0  0  0  0  0  0  0
   37.3820   25.6280   36.7010 H   0  0  0  0  0  0  0  0  0  0  0  0
   37.9450   24.2760   38.1890 C   0  0  0  0  0  0  0  0  0  0  0  0
   37.1890   24.6130   38.8890 H   0  0  0  0  0  0  0  0  0  0  0  0
   38.7860   23.2670   38.5680 C   0  0  0  0  0  3  0  0  0  0  0  0
   39.7480   22.8340   37.6820 C   0  0  0  0  0  3  0  0  0  0  0  0
  1  7  1  6  0  0  0
  1 18  1  0  0  0  0
  1  2  1  0  0  0  0
  2  8  1  0  0  0  0
  2  3  1  0  0  0  0
  3 11  1  0  0  0  0
  3 10  1  0  0  0  0
  4 12  1  6  0  0  0
  4  3  1  0  0  0  0
  4 28  1  0  0  0  0
  5 13  1  0  0  0  0
  5  4  1  0  0  0  0
  6  1  1  0  0  0  0
  6  5  1  0  0  0  0
  9  2  1  0  0  0  0
 14  5  1  0  0  0  0
 15  6  1  0  0  0  0
 16  6  1  0  0  0  0
 17 22  1  0  0  0  0
 17 23  1  0  0  0  0
 18 17  2  0  0  0  0
 19 20  2  0  0  0  0
 19 18  1  0  0  0  0
 20 21  1  0  0  0  0
 21 25  1  0  0  0  0
 21 22  2  0  0  0  0
 24 19  1  0  0  0  0
 26 27  1  0  0  0  0
 27 34  1  0  0  0  0
 28 27  2  0  0  0  0
 28 29  1  0  0  0  0
 29 31  2  0  0  0  0
 30 29  1  0  0  0  0
 31 33  1  0  0  0  0
 31 32  1  0  0  0  0
 34 33  2  0  0  0  0
M  END
>  <minimizedAffinity>
-5.53961992

$$$$

 OpenBabel03272506523D

 34 36  0  0  1  0  0  0  0  0999 V2000
   39.6360   24.5090   34.6100 C   0  0  1  0  0  0  0  0  0  0  0  0
   38.6000   24.2390   33.5960 C   0  0  0  0  0  0  0  0  0  0  0  0
   37.6200   25.3330   33.3050 C   0  0  0  0  0  0  0  0  0  0  0  0
   38.2260   26.6910   33.3000 C   0  0  2  0  0  0  0  0  0  0  0  0
   39.2340   26.9990   34.3420 C   0  0  0  0  0  0  0  0  0  0  0  0
   40.2200   25.8740   34.5020 C   0  0  0  0  0  0  0  0  0  0  0  0
   40.5140   23.8160   34.3870 H   0  0  0  0  0  0  0  0  0  0  0  0
   38.1200   23.2710   33.6590 H   0  0  0  0  0  0  0  0  0  0  0  0
   39.1810   24.1670   32.6160 H   0  0  0  0  0  0  0  0  0  0  0  0
   36.7710   25.2090   34.0170 H   0  0  0  0  0  0  0  0  0  0  0  0
   37.1820   25.1670   32.2960 H   0  0  0  0  0  0  0  0  0  0  0  0
   38.7620   26.7820   32.3060 H   0  0  0  0  0  0  0  0  0  0  0  0
   38.7400   27.1480   35.3190 H   0  0  0  0  0  0  0  0  0  0  0  0
   39.8090   27.8800   34.0010 H   0  0  0  0  0  0  0  0  0  0  0  0
   40.9360   26.1430   35.2690 H   0  0  0  0  0  0  0  0  0  0  0  0
   40.8140   25.8730   33.5370 H   0  0  0  0  0  0  0  0  0  0  0  0
   38.1940   24.6470   36.6890 C   0  0  0  0  0  0  0  0  0  0  0  0
   39.2850   24.1240   35.9980 C   0  0  0  0  0  0  0  0  0  0  0  0
   40.0520   23.1890   36.6650 C   0  0  0  0  0  0  0  0  0  0  0  0
   39.7240   22.8250   37.9320 N   0  0  0  0  0  0  0  0  0  0  0  0
   38.6520   23.3610   38.5660 C   0  0  0  0  0  0  0  0  0  0  0  0
   37.8740   24.2850   37.9430 N   0  0  0  0  0  0  0  0  0  0  0  0
   37.5500   25.3840   36.2320 H   0  0  0  0  0  0  0  0  0  0  0  0
   40.9210   22.6720   36.3020 H   0  0  0  0  0  0  0  0  0  0  0  0
   38.4070   23.0600   39.5740 H   0  0  0  0  0  0  0  0  0  0  0  0
   37.5860   28.1630   30.9690 F   0  0  0  0  0  0  0  0  0  0  0  0
   36.9210   28.4760   32.1070 C   0  0  0  0  0  0  0  0  0  0  0  0
   37.2120   27.7690   33.2820 C   0  0  0  0  0  0  0  0  0  0  0  0
   36.4680   28.1890   34.3520 C   0  0  0  0  0  0  0  0  0  0  0  0
   36.6080   27.7160   35.2990 H   0  0  0  0  0  0  0  0  0  0  0  0
   35.5300   29.1970   34.2980 C   0  0  0  0  0  0  0  0  0  0  0  0
   34.9690   29.4910   35.1770 H   0  0  0  0  0  0  0  0  0  0  0  0
   35.2930   29.8500   33.1200 C   0  0  0  0  0  3  0  0  0  0  0  0
   36.0040   29.4810   31.9990 C   0  0  0  0  0  3  0  0  0  0  0  0
  1  7  1  6  0  0  0
  1 18  1  0  0  0  0
  2  8  1  0  0  0  0
  2  1  1  0  0  0  0
  3  2  1  0  0  0  0
  3 10  1  0  0  0  0
  4 12  1  6  0  0  0
  4  3  1  0  0  0  0
  4  5  1  0  0  0  0
  5  6  1  0  0  0  0
  5 13  1  0  0  0  0
  6  1  1  0  0  0  0
  6 15  1  0  0  0  0
  9  2  1  0  0  0  0
 11  3  1  0  0  0  0
 14  5  1  0  0  0  0
 16  6  1  0  0  0  0
 17 22  1  0  0  0  0
 18 19  1  0  0  0  0
 18 17  2  0  0  0  0
 19 20  2  0  0  0  0
 20 21  1  0  0  0  0
 21 25  1  0  0  0  0
 22 21  2  0  0  0  0
 23 17  1  0  0  0  0
 24 19  1  0  0  0  0
 26 27  1  0  0  0  0
 27 28  1  0  0  0  0
 28  4  1  0  0  0  0
 28 29  2  0  0  0  0
 29 30  1  0  0  0  0
 31 29  1  0  0  0  0
 31 32  1  0  0  0  0
 33 31  2  0  0  0  0
 34 27  2  0  0  0  0
 34 33  1  0  0  0  0
M  END
>  <minimizedAffinity>
-5.44646263

$$$$

 OpenBabel03272506523D

 34 36  0  0  1  0  0  0  0  0999 V2000
   38.8670   26.7110   32.4050 C   0  0  1  0  0  0  0  0  0  0  0  0
   39.9190   27.0860   33.3660 C   0  0  0  0  0  0  0  0  0  0  0  0
   39.9260   26.3840   34.6900 C   0  0  0  0  0  0  0  0  0  0  0  0
   39.5840   24.9410   34.6000 C   0  0  2  0  0  0  0  0  0  0  0  0
   38.4950   24.5470   33.6750 C   0  0  0  0  0  0  0  0  0  0  0  0
   38.6220   25.2430   32.3470 C   0  0  0  0  0  0  0  0  0  0  0  0
   39.2550   26.9650   31.3630 H   0  0  0  0  0  0  0  0  0  0  0  0
   40.1050   28.1470   33.4710 H   0  0  0  0  0  0  0  0  0  0  0  0
   40.8830   26.7090   32.8870 H   0  0  0  0  0  0  0  0  0  0  0  0
   39.2710   26.9720   35.3750 H   0  0  0  0  0  0  0  0  0  0  0  0
   40.9440   26.4520   35.1290 H   0  0  0  0  0  0  0  0  0  0  0  0
   40.5210   24.4280   34.2200 H   0  0  0  0  0  0  0  0  0  0  0  0
   37.5140   24.8220   34.1010 H   0  0  0  0  0  0  0  0  0  0  0  0
   38.5990   23.4630   33.4780 H   0  0  0  0  0  0  0  0  0  0  0  0
   37.8100   24.9240   31.7050 H   0  0  0  0  0  0  0  0  0  0  0  0
   39.5540   24.8000   31.8790 H   0  0  0  0  0  0  0  0  0  0  0  0
   36.9800   27.8360   33.6680 C   0  0  0  0  0  0  0  0  0  0  0  0
   37.6230   27.5140   32.4740 C   0  0  0  0  0  0  0  0  0  0  0  0
   37.0530   27.9970   31.3120 C   0  0  0  0  0  0  0  0  0  0  0  0
   35.9210   28.7460   31.3750 N   0  0  0  0  0  0  0  0  0  0  0  0
   35.3290   29.0340   32.5600 C   0  0  0  0  0  0  0  0  0  0  0  0
   35.8590   28.5760   33.7240 N   0  0  0  0  0  0  0  0  0  0  0  0
   37.3660   27.4920   34.6160 H   0  0  0  0  0  0  0  0  0  0  0  0
   37.4000   27.8620   30.3040 H   0  0  0  0  0  0  0  0  0  0  0  0
   34.4290   29.6300   32.5890 H   0  0  0  0  0  0  0  0  0  0  0  0
   37.4540   25.7410   36.2830 F   0  0  0  0  0  0  0  0  0  0  0  0
   38.2640   24.7520   36.7300 C   0  0  0  0  0  0  0  0  0  0  0  0
   39.3310   24.3300   35.9240 C   0  0  0  0  0  0  0  0  0  0  0  0
   40.0660   23.3270   36.4990 C   0  0  0  0  0  0  0  0  0  0  0  0
   40.9030   22.9280   35.9690 H   0  0  0  0  0  0  0  0  0  0  0  0
   39.7990   22.7800   37.7350 C   0  0  0  0  0  0  0  0  0  0  0  0
   40.4140   21.9870   38.1440 H   0  0  0  0  0  0  0  0  0  0  0  0
   38.7430   23.2370   38.4730 C   0  0  0  0  0  3  0  0  0  0  0  0
   37.9580   24.2450   37.9590 C   0  0  0  0  0  3  0  0  0  0  0  0
  1  7  1  6  0  0  0
  1 18  1  0  0  0  0
  1  2  1  0  0  0  0
  2  8  1  0  0  0  0
  2  3  1  0  0  0  0
  3 11  1  0  0  0  0
  3 10  1  0  0  0  0
  4 12  1  6  0  0  0
  4  3  1  0  0  0  0
  4 28  1  0  0  0  0
  5 13  1  0  0  0  0
  5  4  1  0  0  0  0
  6  1  1  0  0  0  0
  6  5  1  0  0  0  0
  9  2  1  0  0  0  0
 14  5  1  0  0  0  0
 15  6  1  0  0  0  0
 16  6  1  0  0  0  0
 17 22  1  0  0  0  0
 17 23  1  0  0  0  0
 18 17  2  0  0  0  0
 19 20  2  0  0  0  0
 19 18  1  0  0  0  0
 20 21  1  0  0  0  0
 21 25  1  0  0  0  0
 21 22  2  0  0  0  0
 24 19  1  0  0  0  0
 26 27  1  0  0  0  0
 27 34  1  0  0  0  0
 28 29  1  0  0  0  0
 28 27  2  0  0  0  0
 29 31  2  0  0  0  0
 30 29  1  0  0  0  0
 31 32  1  0  0  0  0
 31 33  1  0  0  0  0
 34 33  2  0  0  0  0
M  END
>  <minimizedAffinity>
-5.41913939

$$$$

 OpenBabel03272506523D

 34 36  0  0  1  0  0  0  0  0999 V2000
   36.9160   25.4210   31.2390 C   0  0  1  0  0  0  0  0  0  0  0  0
   37.9730   24.4450   30.9180 C   0  0  0  0  0  0  0  0  0  0  0  0
   37.7310   23.0170   31.2980 C   0  0  0  0  0  0  0  0  0  0  0  0
   36.3260   22.5760   31.0930 C   0  0  2  0  0  0  0  0  0  0  0  0
   35.2460   23.5240   31.4560 C   0  0  0  0  0  0  0  0  0  0  0  0
   35.5440   24.9130   30.9600 C   0  0  0  0  0  0  0  0  0  0  0  0
   37.0350   26.2970   30.5190 H   0  0  0  0  0  0  0  0  0  0  0  0
   38.9850   24.7570   31.1400 H   0  0  0  0  0  0  0  0  0  0  0  0
   37.9710   24.3960   29.7790 H   0  0  0  0  0  0  0  0  0  0  0  0
   38.1080   22.8870   32.3390 H   0  0  0  0  0  0  0  0  0  0  0  0
   38.3730   22.3620   30.6710 H   0  0  0  0  0  0  0  0  0  0  0  0
   36.2230   22.3920   29.9800 H   0  0  0  0  0  0  0  0  0  0  0  0
   35.1400   23.5800   32.5540 H   0  0  0  0  0  0  0  0  0  0  0  0
   34.3240   23.1930   30.9420 H   0  0  0  0  0  0  0  0  0  0  0  0
   34.7300   25.5680   31.2450 H   0  0  0  0  0  0  0  0  0  0  0  0
   35.4750   24.8360   29.8320 H   0  0  0  0  0  0  0  0  0  0  0  0
   37.6100   25.4790   33.6760 C   0  0  0  0  0  0  0  0  0  0  0  0
   37.0420   26.0870   32.5580 C   0  0  0  0  0  0  0  0  0  0  0  0
   36.5960   27.3850   32.7160 C   0  0  0  0  0  0  0  0  0  0  0  0
   36.7230   28.0020   33.9200 N   0  0  0  0  0  0  0  0  0  0  0  0
   37.2820   27.3710   34.9810 C   0  0  0  0  0  0  0  0  0  0  0  0
   37.7330   26.0940   34.8650 N   0  0  0  0  0  0  0  0  0  0  0  0
   37.9790   24.4660   33.6280 H   0  0  0  0  0  0  0  0  0  0  0  0
   36.1380   28.0170   31.9770 H   0  0  0  0  0  0  0  0  0  0  0  0
   37.3740   27.8770   35.9310 H   0  0  0  0  0  0  0  0  0  0  0  0
   36.5720   20.1220   29.7050 F   0  0  0  0  0  0  0  0  0  0  0  0
   36.1750   20.0700   30.9990 C   0  0  0  0  0  0  0  0  0  0  0  0
   36.0410   21.2650   31.7190 C   0  0  0  0  0  0  0  0  0  0  0  0
   35.6340   21.0640   33.0110 C   0  0  0  0  0  0  0  0  0  0  0  0
   35.5020   21.9090   33.6510 H   0  0  0  0  0  0  0  0  0  0  0  0
   35.3800   19.8270   33.5610 C   0  0  0  0  0  0  0  0  0  0  0  0
   35.0590   19.7240   34.5910 H   0  0  0  0  0  0  0  0  0  0  0  0
   35.5290   18.6970   32.8060 C   0  0  0  0  0  3  0  0  0  0  0  0
   35.9360   18.8210   31.4960 C   0  0  0  0  0  3  0  0  0  0  0  0
  1  7  1  6  0  0  0
  1 18  1  0  0  0  0
  2  8  1  0  0  0  0
  2  1  1  0  0  0  0
  2  3  1  0  0  0  0
  3 10  1  0  0  0  0
  4 12  1  6  0  0  0
  4  3  1  0  0  0  0
  4  5  1  0  0  0  0
  4 28  1  0  0  0  0
  5 13  1  0  0  0  0
  6  1  1  0  0  0  0
  6 15  1  0  0  0  0
  6  5  1  0  0  0  0
  9  2  1  0  0  0  0
 11  3  1  0  0  0  0
 14  5  1  0  0  0  0
 16  6  1  0  0  0  0
 17 22  1  0  0  0  0
 18 19  1  0  0  0  0
 18 17  2  0  0  0  0
 19 20  2  0  0  0  0
 20 21  1  0  0  0  0
 21 25  1  0  0  0  0
 22 21  2  0  0  0  0
 23 17  1  0  0  0  0
 24 19  1  0  0  0  0
 26 27  1  0  0  0  0
 27 34  2  0  0  0  0
 27 28  1  0  0  0  0
 28 29  2  0  0  0  0
 29 31  1  0  0  0  0
 29 30  1  0  0  0  0
 31 32  1  0  0  0  0
 33 31  2  0  0  0  0
 34 33  1  0  0  0  0
M  END
>  <minimizedAffinity>
-5.41172552

$$$$

 OpenBabel03272506523D

 34 36  0  0  1  0  0  0  0  0999 V2000
   37.4480   27.3850   32.3510 C   0  0  1  0  0  0  0  0  0  0  0  0
   36.9820   28.6420   31.7390 C   0  0  0  0  0  0  0  0  0  0  0  0
   35.9500   29.4310   32.4850 C   0  0  0  0  0  0  0  0  0  0  0  0
   36.1550   29.4370   33.9570 C   0  0  2  0  0  0  0  0  0  0  0  0
   36.5760   28.1700   34.6000 C   0  0  0  0  0  0  0  0  0  0  0  0
   37.6710   27.4950   33.8190 C   0  0  0  0  0  0  0  0  0  0  0  0
   38.4860   27.1700   31.9310 H   0  0  0  0  0  0  0  0  0  0  0  0
   36.7700   28.6000   30.6780 H   0  0  0  0  0  0  0  0  0  0  0  0
   37.8920   29.3290   31.7850 H   0  0  0  0  0  0  0  0  0  0  0  0
   34.9530   29.0550   32.1590 H   0  0  0  0  0  0  0  0  0  0  0  0
   35.9890   30.4890   32.1450 H   0  0  0  0  0  0  0  0  0  0  0  0
   36.9910   30.1790   34.1460 H   0  0  0  0  0  0  0  0  0  0  0  0
   35.7250   27.4670   34.6530 H   0  0  0  0  0  0  0  0  0  0  0  0
   37.0000   28.4220   35.5900 H   0  0  0  0  0  0  0  0  0  0  0  0
   37.9470   26.5780   34.3250 H   0  0  0  0  0  0  0  0  0  0  0  0
   38.5700   28.1750   33.9370 H   0  0  0  0  0  0  0  0  0  0  0  0
   35.5770   26.1880   31.1300 C   0  0  0  0  0  0  0  0  0  0  0  0
   36.6990   26.1680   31.9570 C   0  0  0  0  0  0  0  0  0  0  0  0
   37.1180   24.9300   32.4040 C   0  0  0  0  0  0  0  0  0  0  0  0
   36.4400   23.8120   32.0320 N   0  0  0  0  0  0  0  0  0  0  0  0
   35.3530   23.8800   31.2260 C   0  0  0  0  0  0  0  0  0  0  0  0
   34.9100   25.0800   30.7660 N   0  0  0  0  0  0  0  0  0  0  0  0
   35.1910   27.1190   30.7430 H   0  0  0  0  0  0  0  0  0  0  0  0
   37.9560   24.7090   33.0390 H   0  0  0  0  0  0  0  0  0  0  0  0
   34.8270   22.9810   30.9420 H   0  0  0  0  0  0  0  0  0  0  0  0
   36.3880   31.4750   35.9070 F   0  0  0  0  0  0  0  0  0  0  0  0
   35.1470   30.9940   35.6520 C   0  0  0  0  0  0  0  0  0  0  0  0
   34.9930   29.9840   34.6930 C   0  0  0  0  0  0  0  0  0  0  0  0
   33.6890   29.5930   34.5380 C   0  0  0  0  0  0  0  0  0  0  0  0
   33.4570   28.8280   33.8300 H   0  0  0  0  0  0  0  0  0  0  0  0
   32.6310   30.1260   35.2410 C   0  0  0  0  0  0  0  0  0  0  0  0
   31.6170   29.7790   35.0800 H   0  0  0  0  0  0  0  0  0  0  0  0
   32.8470   31.1110   36.1650 C   0  0  0  0  0  3  0  0  0  0  0  0
   34.1340   31.5550   36.3750 C   0  0  0  0  0  3  0  0  0  0  0  0
  1  7  1  6  0  0  0
  1  6  1  0  0  0  0
  2  9  1  0  0  0  0
  2  1  1  0  0  0  0
  2  3  1  0  0  0  0
  3  4  1  0  0  0  0
  4 12  1  1  0  0  0
  4  5  1  0  0  0  0
  4 28  1  0  0  0  0
  5 13  1  0  0  0  0
  5 14  1  0  0  0  0
  6 16  1  0  0  0  0
  6 15  1  0  0  0  0
  6  5  1  0  0  0  0
  8  2  1  0  0  0  0
 10  3  1  0  0  0  0
 11  3  1  0  0  0  0
 17 18  1  0  0  0  0
 18  1  1  0  0  0  0
 18 19  2  0  0  0  0
 19 24  1  0  0  0  0
 20 19  1  0  0  0  0
 21 20  2  0  0  0  0
 22 17  2  0  0  0  0
 22 21  1  0  0  0  0
 23 17  1  0  0  0  0
 25 21  1  0  0  0  0
 27 26  1  0  0  0  0
 27 34  1  0  0  0  0
 28 27  2  0  0  0  0
 29 28  1  0  0  0  0
 29 31  2  0  0  0  0
 30 29  1  0  0  0  0
 31 33  1  0  0  0  0
 32 31  1  0  0  0  0
 33 34  2  0  0  0  0
M  END
>  <minimizedAffinity>
-5.39925194

$$$$

 OpenBabel03272506523D

 34 36  0  0  1  0  0  0  0  0999 V2000
   39.5820   24.1500   34.4320 C   0  0  1  0  0  0  0  0  0  0  0  0
   38.4920   23.9190   33.4690 C   0  0  0  0  0  0  0  0  0  0  0  0
   37.6050   25.0810   33.1380 C   0  0  0  0  0  0  0  0  0  0  0  0
   38.3330   26.3730   33.0310 C   0  0  2  0  0  0  0  0  0  0  0  0
   39.4010   26.6460   34.0210 C   0  0  0  0  0  0  0  0  0  0  0  0
   40.2850   25.4460   34.2230 C   0  0  0  0  0  0  0  0  0  0  0  0
   40.3850   23.3670   34.2280 H   0  0  0  0  0  0  0  0  0  0  0  0
   37.9270   23.0060   33.6060 H   0  0  0  0  0  0  0  0  0  0  0  0
   39.0280   23.7340   32.4790 H   0  0  0  0  0  0  0  0  0  0  0  0
   36.7750   25.0790   33.8810 H   0  0  0  0  0  0  0  0  0  0  0  0
   37.1200   24.8970   32.1560 H   0  0  0  0  0  0  0  0  0  0  0  0
   38.8400   26.3540   32.0170 H   0  0  0  0  0  0  0  0  0  0  0  0
   38.9580   26.9000   35.0010 H   0  0  0  0  0  0  0  0  0  0  0  0
   40.0420   27.4490   33.6080 H   0  0  0  0  0  0  0  0  0  0  0  0
   41.0500   25.6920   34.9500 H   0  0  0  0  0  0  0  0  0  0  0  0
   40.8420   25.3310   33.2420 H   0  0  0  0  0  0  0  0  0  0  0  0
   40.0300   23.0940   36.6920 C   0  0  0  0  0  0  0  0  0  0  0  0
   39.2470   23.8830   35.8510 C   0  0  0  0  0  0  0  0  0  0  0  0
   38.1120   24.4430   36.4050 C   0  0  0  0  0  0  0  0  0  0  0  0
   37.8100   24.2100   37.7090 N   0  0  0  0  0  0  0  0  0  0  0  0
   38.6020   23.4350   38.4900 C   0  0  0  0  0  0  0  0  0  0  0  0
   39.7270   22.8670   37.9820 N   0  0  0  0  0  0  0  0  0  0  0  0
   40.9310   22.6230   36.3300 H   0  0  0  0  0  0  0  0  0  0  0  0
   37.3910   25.0790   35.9240 H   0  0  0  0  0  0  0  0  0  0  0  0
   38.3450   23.2610   39.5240 H   0  0  0  0  0  0  0  0  0  0  0  0
   36.7550   27.2000   35.2300 F   0  0  0  0  0  0  0  0  0  0  0  0
   36.6570   27.9190   34.0850 C   0  0  0  0  0  0  0  0  0  0  0  0
   37.4220   27.5380   32.9750 C   0  0  0  0  0  0  0  0  0  0  0  0
   37.2240   28.3500   31.8900 C   0  0  0  0  0  0  0  0  0  0  0  0
   37.7600   28.1510   30.9880 H   0  0  0  0  0  0  0  0  0  0  0  0
   36.3680   29.4300   31.8740 C   0  0  0  0  0  0  0  0  0  0  0  0
   36.2480   30.0400   30.9870 H   0  0  0  0  0  0  0  0  0  0  0  0
   35.6480   29.7500   32.9920 C   0  0  0  0  0  3  0  0  0  0  0  0
   35.7960   28.9770   34.1230 C   0  0  0  0  0  3  0  0  0  0  0  0
  1  7  1  6  0  0  0
  1 18  1  0  0  0  0
  2  8  1  0  0  0  0
  2  1  1  0  0  0  0
  3  2  1  0  0  0  0
  3 10  1  0  0  0  0
  4 12  1  6  0  0  0
  4  3  1  0  0  0  0
  4  5  1  0  0  0  0
  5  6  1  0  0  0  0
  5 13  1  0  0  0  0
  6  1  1  0  0  0  0
  6 15  1  0  0  0  0
  9  2  1  0  0  0  0
 11  3  1  0  0  0  0
 14  5  1  0  0  0  0
 16  6  1  0  0  0  0
 17 22  1  0  0  0  0
 18 19  1  0  0  0  0
 18 17  2  0  0  0  0
 19 20  2  0  0  0  0
 20 21  1  0  0  0  0
 21 25  1  0  0  0  0
 22 21  2  0  0  0  0
 23 17  1  0  0  0  0
 24 19  1  0  0  0  0
 27 34  1  0  0  0  0
 27 26  1  0  0  0  0
 28  4  1  0  0  0  0
 28 27  2  0  0  0  0
 29 28  1  0  0  0  0
 30 29  1  0  0  0  0
 31 29  2  0  0  0  0
 31 33  1  0  0  0  0
 32 31  1  0  0  0  0
 33 34  2  0  0  0  0
M  END
>  <minimizedAffinity>
-5.36344671

$$$$

 OpenBabel03272506523D

 34 36  0  0  1  0  0  0  0  0999 V2000
   38.0350   26.9290   32.3460 C   0  0  1  0  0  0  0  0  0  0  0  0
   39.3330   27.1640   33.0040 C   0  0  0  0  0  0  0  0  0  0  0  0
   39.6080   26.4160   34.2730 C   0  0  0  0  0  0  0  0  0  0  0  0
   39.1040   25.0170   34.2610 C   0  0  2  0  0  0  0  0  0  0  0  0
   37.7780   24.7670   33.6470 C   0  0  0  0  0  0  0  0  0  0  0  0
   37.6310   25.4960   32.3390 C   0  0  0  0  0  0  0  0  0  0  0  0
   38.1660   27.1820   31.2420 H   0  0  0  0  0  0  0  0  0  0  0  0
   39.6510   28.1960   33.0670 H   0  0  0  0  0  0  0  0  0  0  0  0
   40.0960   26.7110   32.2860 H   0  0  0  0  0  0  0  0  0  0  0  0
   39.2170   27.0400   35.1100 H   0  0  0  0  0  0  0  0  0  0  0  0
   40.7060   26.3660   34.4320 H   0  0  0  0  0  0  0  0  0  0  0  0
   39.8520   24.4290   33.6450 H   0  0  0  0  0  0  0  0  0  0  0  0
   36.9750   25.1230   34.3170 H   0  0  0  0  0  0  0  0  0  0  0  0
   37.7140   23.6870   33.4190 H   0  0  0  0  0  0  0  0  0  0  0  0
   36.6520   25.2830   31.9280 H   0  0  0  0  0  0  0  0  0  0  0  0
   38.3590   24.9810   31.6400 H   0  0  0  0  0  0  0  0  0  0  0  0
   36.1480   28.5420   31.8330 C   0  0  0  0  0  0  0  0  0  0  0  0
   36.9430   27.8490   32.7450 C   0  0  0  0  0  0  0  0  0  0  0  0
   36.6630   28.0410   34.0840 C   0  0  0  0  0  0  0  0  0  0  0  0
   35.6530   28.8740   34.4510 N   0  0  0  0  0  0  0  0  0  0  0  0
   34.9060   29.5270   33.5280 C   0  0  0  0  0  0  0  0  0  0  0  0
   35.1510   29.3640   32.2010 N   0  0  0  0  0  0  0  0  0  0  0  0
   36.3100   28.4430   30.7700 H   0  0  0  0  0  0  0  0  0  0  0  0
   37.1550   27.5970   34.9290 H   0  0  0  0  0  0  0  0  0  0  0  0
   34.1080   30.1850   33.8390 H   0  0  0  0  0  0  0  0  0  0  0  0
   37.1750   25.5460   36.2620 F   0  0  0  0  0  0  0  0  0  0  0  0
   38.1650   24.6720   36.5650 C   0  0  0  0  0  0  0  0  0  0  0  0
   39.1390   24.3860   35.5990 C   0  0  0  0  0  0  0  0  0  0  0  0
   40.0760   23.4890   36.0390 C   0  0  0  0  0  0  0  0  0  0  0  0
   40.8650   23.1980   35.3810 H   0  0  0  0  0  0  0  0  0  0  0  0
   40.0750   22.9190   37.2930 C   0  0  0  0  0  0  0  0  0  0  0  0
   40.8430   22.2130   37.5910 H   0  0  0  0  0  0  0  0  0  0  0  0
   39.0960   23.2400   38.1920 C   0  0  0  0  0  3  0  0  0  0  0  0
   38.1180   24.1360   37.8190 C   0  0  0  0  0  3  0  0  0  0  0  0
  1  7  1  6  0  0  0
  1 18  1  0  0  0  0
  1  2  1  0  0  0  0
  2  8  1  0  0  0  0
  2  3  1  0  0  0  0
  3 11  1  0  0  0  0
  3 10  1  0  0  0  0
  4 12  1  6  0  0  0
  4  3  1  0  0  0  0
  4 28  1  0  0  0  0
  5  4  1  0  0  0  0
  5 13  1  0  0  0  0
  6  1  1  0  0  0  0
  6  5  1  0  0  0  0
  9  2  1  0  0  0  0
 14  5  1  0  0  0  0
 15  6  1  0  0  0  0
 16  6  1  0  0  0  0
 17 22  2  0  0  0  0
 17 18  1  0  0  0  0
 18 19  2  0  0  0  0
 19 20  1  0  0  0  0
 19 24  1  0  0  0  0
 21 25  1  0  0  0  0
 21 20  2  0  0  0  0
 22 21  1  0  0  0  0
 23 17  1  0  0  0  0
 26 27  1  0  0  0  0
 27 34  1  0  0  0  0
 28 29  1  0  0  0  0
 28 27  2  0  0  0  0
 29 31  2  0  0  0  0
 30 29  1  0  0  0  0
 31 32  1  0  0  0  0
 31 33  1  0  0  0  0
 34 33  2  0  0  0  0
M  END
>  <minimizedAffinity>
-5.25073481

$$$$

 OpenBabel03272506523D

 34 36  0  0  1  0  0  0  0  0999 V2000
   38.8620   24.9480   31.8550 C   0  0  1  0  0  0  0  0  0  0  0  0
   39.4140   25.9840   32.7450 C   0  0  0  0  0  0  0  0  0  0  0  0
   39.3550   25.7290   34.2200 C   0  0  0  0  0  0  0  0  0  0  0  0
   39.6210   24.3150   34.5910 C   0  0  2  0  0  0  0  0  0  0  0  0
   39.0340   23.2560   33.7360 C   0  0  0  0  0  0  0  0  0  0  0  0
   39.2160   23.5640   32.2750 C   0  0  0  0  0  0  0  0  0  0  0  0
   39.3720   25.0660   30.8420 H   0  0  0  0  0  0  0  0  0  0  0  0
   39.1510   27.0050   32.5010 H   0  0  0  0  0  0  0  0  0  0  0  0
   40.5360   25.9590   32.5400 H   0  0  0  0  0  0  0  0  0  0  0  0
   38.3770   26.1240   34.5810 H   0  0  0  0  0  0  0  0  0  0  0  0
   40.1260   26.3500   34.7250 H   0  0  0  0  0  0  0  0  0  0  0  0
   40.7450   24.1870   34.5220 H   0  0  0  0  0  0  0  0  0  0  0  0
   37.9480   23.1720   33.9240 H   0  0  0  0  0  0  0  0  0  0  0  0
   39.5870   22.3190   33.9360 H   0  0  0  0  0  0  0  0  0  0  0  0
   38.7750   22.7650   31.6910 H   0  0  0  0  0  0  0  0  0  0  0  0
   40.3310   23.4720   32.0990 H   0  0  0  0  0  0  0  0  0  0  0  0
   36.7810   26.3420   31.4670 C   0  0  0  0  0  0  0  0  0  0  0  0
   37.4320   25.1090   31.4980 C   0  0  0  0  0  0  0  0  0  0  0  0
   36.6800   24.0010   31.1610 C   0  0  0  0  0  0  0  0  0  0  0  0
   35.3720   24.1490   30.8210 N   0  0  0  0  0  0  0  0  0  0  0  0
   34.7810   25.3690   30.8040 C   0  0  0  0  0  0  0  0  0  0  0  0
   35.4870   26.4830   31.1310 N   0  0  0  0  0  0  0  0  0  0  0  0
   37.3040   27.2510   31.7200 H   0  0  0  0  0  0  0  0  0  0  0  0
   37.0000   22.9760   31.1220 H   0  0  0  0  0  0  0  0  0  0  0  0
   33.7400   25.4660   30.5320 H   0  0  0  0  0  0  0  0  0  0  0  0
   41.1300   22.5240   36.1810 F   0  0  0  0  0  0  0  0  0  0  0  0
   40.0660   23.1310   36.7620 C   0  0  0  0  0  0  0  0  0  0  0  0
   39.2950   24.0230   36.0050 C   0  0  0  0  0  0  0  0  0  0  0  0
   38.2550   24.5610   36.7160 C   0  0  0  0  0  0  0  0  0  0  0  0
   37.6030   25.2570   36.2360 H   0  0  0  0  0  0  0  0  0  0  0  0
   37.9830   24.2680   38.0340 C   0  0  0  0  0  0  0  0  0  0  0  0
   37.1450   24.7230   38.5500 H   0  0  0  0  0  0  0  0  0  0  0  0
   38.7740   23.3870   38.7180 C   0  0  0  0  0  3  0  0  0  0  0  0
   39.8400   22.8060   38.0680 C   0  0  0  0  0  3  0  0  0  0  0  0
  1  7  1  6  0  0  0
  1  6  1  0  0  0  0
  1  2  1  0  0  0  0
  2  3  1  0  0  0  0
  3 10  1  0  0  0  0
  3  4  1  0  0  0  0
  3 11  1  0  0  0  0
  4 12  1  6  0  0  0
  4 28  1  0  0  0  0
  5 13  1  0  0  0  0
  5 14  1  0  0  0  0
  5  4  1  0  0  0  0
  6  5  1  0  0  0  0
  8  2  1  0  0  0  0
  9  2  1  0  0  0  0
 15  6  1  0  0  0  0
 16  6  1  0  0  0  0
 17 18  1  0  0  0  0
 17 23  1  0  0  0  0
 18  1  1  0  0  0  0
 19 18  2  0  0  0  0
 20 19  1  0  0  0  0
 21 20  2  0  0  0  0
 21 22  1  0  0  0  0
 22 17  2  0  0  0  0
 24 19  1  0  0  0  0
 25 21  1  0  0  0  0
 26 27  1  0  0  0  0
 27 34  1  0  0  0  0
 28 29  1  0  0  0  0
 28 27  2  0  0  0  0
 29 31  2  0  0  0  0
 30 29  1  0  0  0  0
 31 32  1  0  0  0  0
 31 33  1  0  0  0  0
 34 33  2  0  0  0  0
M  END
>  <minimizedAffinity>
-5.07828712

$$$$

 OpenBabel03272506523D

 34 36  0  0  1  0  0  0  0  0999 V2000
   37.5920   26.9670   32.9340 C   0  0  1  0  0  0  0  0  0  0  0  0
   37.1500   25.5620   32.8660 C   0  0  0  0  0  0  0  0  0  0  0  0
   37.8040   24.5880   33.7970 C   0  0  0  0  0  0  0  0  0  0  0  0
   38.0680   25.1430   35.1500 C   0  0  2  0  0  0  0  0  0  0  0  0
   38.5600   26.5380   35.2390 C   0  0  0  0  0  0  0  0  0  0  0  0
   37.7870   27.4530   34.3270 C   0  0  0  0  0  0  0  0  0  0  0  0
   36.7370   27.6090   32.5370 H   0  0  0  0  0  0  0  0  0  0  0  0
   37.0310   25.1530   31.8710 H   0  0  0  0  0  0  0  0  0  0  0  0
   36.0780   25.5870   33.2550 H   0  0  0  0  0  0  0  0  0  0  0  0
   38.7070   24.1930   33.2760 H   0  0  0  0  0  0  0  0  0  0  0  0
   37.1360   23.7100   33.9290 H   0  0  0  0  0  0  0  0  0  0  0  0
   37.0700   25.1260   35.6870 H   0  0  0  0  0  0  0  0  0  0  0  0
   39.6220   26.5890   34.9360 H   0  0  0  0  0  0  0  0  0  0  0  0
   38.3800   26.8920   36.2720 H   0  0  0  0  0  0  0  0  0  0  0  0
   38.1780   28.4580   34.4270 H   0  0  0  0  0  0  0  0  0  0  0  0
   36.7490   27.4980   34.7790 H   0  0  0  0  0  0  0  0  0  0  0  0
   38.5080   27.9320   30.7760 C   0  0  0  0  0  0  0  0  0  0  0  0
   38.7010   27.3320   32.0200 C   0  0  0  0  0  0  0  0  0  0  0  0
   40.0070   27.0900   32.3960 C   0  0  0  0  0  0  0  0  0  0  0  0
   41.0260   27.4360   31.5660 N   0  0  0  0  0  0  0  0  0  0  0  0
   40.7900   28.0190   30.3640 C   0  0  0  0  0  0  0  0  0  0  0  0
   39.5180   28.2720   29.9580 N   0  0  0  0  0  0  0  0  0  0  0  0
   37.5140   28.1490   30.4150 H   0  0  0  0  0  0  0  0  0  0  0  0
   40.3570   26.6450   33.3100 H   0  0  0  0  0  0  0  0  0  0  0  0
   41.6120   28.2860   29.7170 H   0  0  0  0  0  0  0  0  0  0  0  0
   37.3550   24.2090   37.7250 F   0  0  0  0  0  0  0  0  0  0  0  0
   38.5600   23.8290   37.2340 C   0  0  0  0  0  0  0  0  0  0  0  0
   38.9480   24.2730   35.9630 C   0  0  0  0  0  0  0  0  0  0  0  0
   40.1850   23.8160   35.5950 C   0  0  0  0  0  0  0  0  0  0  0  0
   40.5790   24.0920   34.6420 H   0  0  0  0  0  0  0  0  0  0  0  0
   40.9770   23.0050   36.3780 C   0  0  0  0  0  0  0  0  0  0  0  0
   41.9510   22.6710   36.0380 H   0  0  0  0  0  0  0  0  0  0  0  0
   40.5410   22.6050   37.6110 C   0  0  0  0  0  3  0  0  0  0  0  0
   39.3050   23.0270   38.0490 C   0  0  0  0  0  3  0  0  0  0  0  0
  1  7  1  6  0  0  0
  1  6  1  0  0  0  0
  2  1  1  0  0  0  0
  2  9  1  0  0  0  0
  2  3  1  0  0  0  0
  3 11  1  0  0  0  0
  3  4  1  0  0  0  0
  4  5  1  0  0  0  0
  4 12  1  1  0  0  0
  4 28  1  0  0  0  0
  5 14  1  0  0  0  0
  6 15  1  0  0  0  0
  6 16  1  0  0  0  0
  6  5  1  0  0  0  0
  8  2  1  0  0  0  0
 10  3  1  0  0  0  0
 13  5  1  0  0  0  0
 17 18  1  0  0  0  0
 18 19  2  0  0  0  0
 18  1  1  0  0  0  0
 19 24  1  0  0  0  0
 20 19  1  0  0  0  0
 21 20  2  0  0  0  0
 22 21  1  0  0  0  0
 22 17  2  0  0  0  0
 23 17  1  0  0  0  0
 25 21  1  0  0  0  0
 27 26  1  0  0  0  0
 27 34  1  0  0  0  0
 28 27  2  0  0  0  0
 29 28  1  0  0  0  0
 29 31  2  0  0  0  0
 30 29  1  0  0  0  0
 31 33  1  0  0  0  0
 32 31  1  0  0  0  0
 33 34  2  0  0  0  0
M  END
>  <minimizedAffinity>
-5.04916286

$$$$
