
 OpenBabel03262522323D

 27 29  0  0  0  0  0  0  0  0999 V2000
   38.0470   31.9780   48.9360 C   0  0  0  0  0  0  0  0  0  0  0  0
   38.6230   33.0790   49.5130 C   0  0  0  0  0  0  0  0  0  0  0  0
   39.4550   33.9610   48.8450 C   0  0  0  0  0  0  0  0  0  0  0  0
   39.7310   33.7320   47.5230 C   0  0  0  0  0  0  0  0  0  0  0  0
   39.1460   32.6280   46.9620 C   0  0  0  0  0  0  0  0  0  0  0  0
   38.3420   31.7930   47.6430 N   0  0  0  0  0  0  0  0  0  0  0  0
   38.4270   33.2940   50.5710 H   0  0  0  0  0  0  0  0  0  0  0  0
   39.8720   34.8140   49.3870 H   0  0  0  0  0  0  0  0  0  0  0  0
   40.3800   34.4270   47.0170 H   0  0  0  0  0  0  0  0  0  0  0  0
   37.5280   30.4570   50.8820 C   0  0  0  0  0  0  0  0  0  0  0  0
   37.1720   31.0570   49.6560 C   0  0  0  0  0  0  0  0  0  0  0  0
   35.9410   30.7600   49.1090 C   0  0  0  0  0  0  0  0  0  0  0  0
   35.1250   29.8950   49.7900 N   0  0  0  0  0  0  0  0  0  0  0  0
   35.5020   29.3370   50.9700 C   0  0  0  0  0  0  0  0  0  0  0  0
   36.6890   29.6130   51.5120 N   0  0  0  0  0  0  0  0  0  0  0  0
   38.5080   30.7500   51.2270 H   0  0  0  0  0  0  0  0  0  0  0  0
   35.5830   31.1710   48.1740 H   0  0  0  0  0  0  0  0  0  0  0  0
   34.8490   28.6550   51.4990 H   0  0  0  0  0  0  0  0  0  0  0  0
   41.0620   30.7800   46.1770 F   0  0  0  0  0  0  0  0  0  0  0  0
   40.3510   31.3940   45.1750 C   0  0  0  0  0  0  0  0  0  0  0  0
   39.3910   32.3190   45.5580 C   0  0  0  0  0  0  0  0  0  0  0  0
   38.7310   32.8800   44.4850 C   0  0  0  0  0  0  0  0  0  0  0  0
   37.9640   33.6140   44.6870 H   0  0  0  0  0  0  0  0  0  0  0  0
   38.9990   32.5540   43.1730 C   0  0  0  0  0  0  0  0  0  0  0  0
   38.4510   33.0270   42.3690 H   0  0  0  0  0  0  0  0  0  0  0  0
   39.9720   31.6230   42.8740 C   0  0  0  0  0  0  0  0  0  0  0  0
   40.6790   31.0140   43.8910 C   0  0  0  0  0  0  0  0  0  0  0  0
  1  2  1  0  0  0  0
  1 11  1  0  0  0  0
  2  7  1  0  0  0  0
  3  8  1  0  0  0  0
  3  2  2  0  0  0  0
  4  3  1  0  0  0  0
  5  4  2  0  0  0  0
  5  6  1  0  0  0  0
  6  1  2  0  0  0  0
  9  4  1  0  0  0  0
 10 16  1  0  0  0  0
 10 15  1  0  0  0  0
 11 10  2  0  0  0  0
 12 11  1  0  0  0  0
 12 13  2  0  0  0  0
 13 14  1  0  0  0  0
 14 18  1  0  0  0  0
 14 15  2  0  0  0  0
 17 12  1  0  0  0  0
 20 21  1  0  0  0  0
 20 19  1  0  0  0  0
 21  5  1  0  0  0  0
 22 23  1  0  0  0  0
 22 21  2  0  0  0  0
 24 22  1  0  0  0  0
 25 24  1  0  0  0  0
 26 24  2  0  0  0  0
 26 27  1  0  0  0  0
 27 20  2  0  0  0  0
M  END
>  <minimizedAffinity>
-6.49301481

>  <minimizedRMSD>
0.779716194

$$$$
