
 OpenBabel03272504053D

 41 44  0  0  0  0  0  0  0  0999 V2000
   37.7670   26.1270   32.5550 C   0  0  0  0  0  0  0  0  0  0  0  0
   37.8040   26.8180   31.6640 H   0  0  0  0  0  0  0  0  0  0  0  0
   38.7950   25.8370   32.7460 H   0  0  0  0  0  0  0  0  0  0  0  0
   36.9260   24.9840   32.1400 C   0  0  0  0  0  0  0  0  0  0  0  0
   35.8030   25.1370   31.3150 C   0  0  0  0  0  0  0  0  0  0  0  0
   35.2550   23.9060   31.1240 C   0  0  0  0  0  0  0  0  0  0  0  0
   36.0160   23.0330   31.8070 N   0  0  0  0  0  0  0  0  0  0  0  0
   36.9900   23.6950   32.3930 N   0  0  0  0  0  0  0  0  0  0  0  0
   35.4080   26.0690   30.8840 H   0  0  0  0  0  0  0  0  0  0  0  0
   34.3780   23.6170   30.5470 H   0  0  0  0  0  0  0  0  0  0  0  0
   35.9160   21.6240   31.9630 C   0  0  0  0  0  0  0  0  0  0  0  0
   36.2640   20.8600   30.8820 C   0  0  0  0  0  0  0  0  0  0  0  0
   36.2220   19.4650   30.8760 C   0  0  0  0  0  0  0  0  0  0  0  0
   35.7980   18.8570   32.0480 C   0  0  0  0  0  0  0  0  0  0  0  0
   35.4460   19.6140   33.1400 C   0  0  0  0  0  0  0  0  0  0  0  0
   35.4960   20.9930   33.1210 C   0  0  0  0  0  0  0  0  0  0  0  0
   36.6040   21.2900   29.9390 H   0  0  0  0  0  0  0  0  0  0  0  0
   36.4960   18.8870   30.0250 H   0  0  0  0  0  0  0  0  0  0  0  0
   35.7380   17.7710   32.1160 H   0  0  0  0  0  0  0  0  0  0  0  0
   35.1090   19.1760   34.0730 H   0  0  0  0  0  0  0  0  0  0  0  0
   35.2410   21.6700   33.9270 H   0  0  0  0  0  0  0  0  0  0  0  0
   37.2040   26.8970   33.6760 C   0  0  0  0  0  0  0  0  0  0  0  0
   36.5300   26.1920   34.2360 H   0  0  0  0  0  0  0  0  0  0  0  0
   38.0370   27.0760   34.4100 H   0  0  0  0  0  0  0  0  0  0  0  0
   36.5980   28.1690   33.4030 C   0  0  0  0  0  0  0  0  0  0  0  0
   36.6730   28.7010   32.1350 C   0  0  0  0  0  0  0  0  0  0  0  0
   36.0820   29.9510   31.8470 C   0  0  0  0  0  0  0  0  0  0  0  0
   35.4440   30.5720   32.9100 N   0  0  0  0  0  0  0  0  0  0  0  0
   35.4020   30.0020   34.1350 C   0  0  0  0  0  0  0  0  0  0  0  0
   35.9750   28.8060   34.3840 N   0  0  0  0  0  0  0  0  0  0  0  0
   37.1740   28.2110   31.3040 H   0  0  0  0  0  0  0  0  0  0  0  0
   36.1320   30.3750   30.8730 H   0  0  0  0  0  0  0  0  0  0  0  0
   36.7020   31.8190   35.8950 F   0  0  0  0  0  0  0  0  0  0  0  0
   35.3680   31.5700   36.0390 C   0  0  0  0  0  0  0  0  0  0  0  0
   34.7170   30.7040   35.2120 C   0  0  0  0  0  0  0  0  0  0  0  0
   33.3680   30.5260   35.4470 C   0  0  0  0  0  0  0  0  0  0  0  0
   32.8350   29.8390   34.7960 H   0  0  0  0  0  0  0  0  0  0  0  0
   32.6680   31.1590   36.4430 C   0  0  0  0  0  0  0  0  0  0  0  0
   31.6090   30.9520   36.5490 H   0  0  0  0  0  0  0  0  0  0  0  0
   33.3850   32.0330   37.2600 C   0  0  0  0  0  3  0  0  0  0  0  0
   34.7290   32.2340   37.0540 C   0  0  0  0  0  3  0  0  0  0  0  0
  1  3  1  0  0  0  0
  1 22  1  0  0  0  0
  2  1  1  0  0  0  0
  4  8  2  0  0  0  0
  4  1  1  0  0  0  0
  5  4  1  0  0  0  0
  6  5  2  0  0  0  0
  6  7  1  0  0  0  0
  7 11  1  0  0  0  0
  7  8  1  0  0  0  0
  9  5  1  0  0  0  0
 10  6  1  0  0  0  0
 11 16  1  0  0  0  0
 12 11  2  0  0  0  0
 13 12  1  0  0  0  0
 13 14  2  0  0  0  0
 14 19  1  0  0  0  0
 14 15  1  0  0  0  0
 15 20  1  0  0  0  0
 16 15  2  0  0  0  0
 16 21  1  0  0  0  0
 17 12  1  0  0  0  0
 18 13  1  0  0  0  0
 22 23  1  0  0  0  0
 22 24  1  0  0  0  0
 25 22  1  0  0  0  0
 25 30  1  0  0  0  0
 26 25  2  0  0  0  0
 27 26  1  0  0  0  0
 27 28  2  0  0  0  0
 28 29  1  0  0  0  0
 29 30  2  0  0  0  0
 29 35  1  0  0  0  0
 31 26  1  0  0  0  0
 32 27  1  0  0  0  0
 33 34  1  0  0  0  0
 34 41  1  0  0  0  0
 35 36  1  0  0  0  0
 35 34  2  0  0  0  0
 36 38  2  0  0  0  0
 37 36  1  0  0  0  0
 38 39  1  0  0  0  0
 38 40  1  0  0  0  0
 41 40  2  0  0  0  0
M  END
>  <minimizedAffinity>
-6.7018342

$$$$

 OpenBabel03272504053D

 41 44  0  0  0  0  0  0  0  0999 V2000
   37.6100   26.0960   35.0650 C   0  0  0  0  0  0  0  0  0  0  0  0
   37.9770   27.0680   35.5060 H   0  0  0  0  0  0  0  0  0  0  0  0
   36.5360   26.0910   35.2170 H   0  0  0  0  0  0  0  0  0  0  0  0
   38.2940   25.0280   35.8260 C   0  0  0  0  0  0  0  0  0  0  0  0
   37.7180   24.4160   36.9460 C   0  0  0  0  0  0  0  0  0  0  0  0
   38.5950   23.4860   37.4100 C   0  0  0  0  0  0  0  0  0  0  0  0
   39.6690   23.5280   36.6030 N   0  0  0  0  0  0  0  0  0  0  0  0
   39.4630   24.4440   35.6810 N   0  0  0  0  0  0  0  0  0  0  0  0
   36.7360   24.6260   37.3960 H   0  0  0  0  0  0  0  0  0  0  0  0
   38.5090   22.8100   38.2600 H   0  0  0  0  0  0  0  0  0  0  0  0
   40.8810   22.7850   36.6120 C   0  0  0  0  0  0  0  0  0  0  0  0
   41.9120   23.2820   35.8640 C   0  0  0  0  0  0  0  0  0  0  0  0
   43.1640   22.6720   35.7700 C   0  0  0  0  0  0  0  0  0  0  0  0
   43.3310   21.4980   36.4890 C   0  0  0  0  0  0  0  0  0  0  0  0
   42.3010   20.9880   37.2440 C   0  0  0  0  0  0  0  0  0  0  0  0
   41.0730   21.6110   37.3210 C   0  0  0  0  0  0  0  0  0  0  0  0
   41.8320   24.2030   35.2830 H   0  0  0  0  0  0  0  0  0  0  0  0
   43.9550   23.0740   35.1820 H   0  0  0  0  0  0  0  0  0  0  0  0
   44.2810   20.9650   36.4630 H   0  0  0  0  0  0  0  0  0  0  0  0
   42.3930   20.0730   37.8180 H   0  0  0  0  0  0  0  0  0  0  0  0
   40.2070   21.2880   37.8850 H   0  0  0  0  0  0  0  0  0  0  0  0
   37.9550   26.1150   33.6340 C   0  0  0  0  0  0  0  0  0  0  0  0
   38.2250   27.1790   33.3890 H   0  0  0  0  0  0  0  0  0  0  0  0
   38.9370   25.5790   33.5200 H   0  0  0  0  0  0  0  0  0  0  0  0
   37.0410   25.5280   32.6960 C   0  0  0  0  0  0  0  0  0  0  0  0
   36.2530   26.3430   31.9140 C   0  0  0  0  0  0  0  0  0  0  0  0
   35.3480   25.7830   30.9840 C   0  0  0  0  0  0  0  0  0  0  0  0
   35.3210   24.3990   30.9310 N   0  0  0  0  0  0  0  0  0  0  0  0
   36.1180   23.6490   31.7260 C   0  0  0  0  0  0  0  0  0  0  0  0
   36.9750   24.2080   32.6050 N   0  0  0  0  0  0  0  0  0  0  0  0
   36.2770   27.4290   31.9570 H   0  0  0  0  0  0  0  0  0  0  0  0
   34.7330   26.3990   30.3720 H   0  0  0  0  0  0  0  0  0  0  0  0
   38.0140   22.0820   30.2990 F   0  0  0  0  0  0  0  0  0  0  0  0
   36.9690   21.4740   30.9320 C   0  0  0  0  0  0  0  0  0  0  0  0
   36.0440   22.1980   31.6240 C   0  0  0  0  0  0  0  0  0  0  0  0
   35.0280   21.4820   32.2250 C   0  0  0  0  0  0  0  0  0  0  0  0
   34.2820   22.0460   32.7800 H   0  0  0  0  0  0  0  0  0  0  0  0
   34.9040   20.1170   32.1650 C   0  0  0  0  0  0  0  0  0  0  0  0
   34.0700   19.6450   32.6710 H   0  0  0  0  0  0  0  0  0  0  0  0
   35.8780   19.4280   31.4440 C   0  0  0  0  0  3  0  0  0  0  0  0
   36.9050   20.1090   30.8320 C   0  0  0  0  0  3  0  0  0  0  0  0
  1  3  1  0  0  0  0
  1  2  1  0  0  0  0
  1  4  1  0  0  0  0
  4  5  1  0  0  0  0
  5  9  1  0  0  0  0
  5  6  2  0  0  0  0
  6 10  1  0  0  0  0
  7 11  1  0  0  0  0
  7  6  1  0  0  0  0
  8  4  2  0  0  0  0
  8  7  1  0  0  0  0
 11 16  1  0  0  0  0
 12 11  2  0  0  0  0
 13 12  1  0  0  0  0
 13 14  2  0  0  0  0
 14 15  1  0  0  0  0
 15 16  2  0  0  0  0
 15 20  1  0  0  0  0
 16 21  1  0  0  0  0
 17 12  1  0  0  0  0
 18 13  1  0  0  0  0
 19 14  1  0  0  0  0
 22  1  1  0  0  0  0
 23 22  1  0  0  0  0
 24 22  1  0  0  0  0
 25 22  1  0  0  0  0
 26 31  1  0  0  0  0
 26 25  2  0  0  0  0
 27 26  1  0  0  0  0
 28 27  2  0  0  0  0
 28 29  1  0  0  0  0
 29 30  2  0  0  0  0
 30 25  1  0  0  0  0
 32 27  1  0  0  0  0
 33 34  1  0  0  0  0
 34 35  1  0  0  0  0
 35 29  1  0  0  0  0
 35 36  2  0  0  0  0
 36 37  1  0  0  0  0
 38 36  1  0  0  0  0
 38 39  1  0  0  0  0
 40 38  2  0  0  0  0
 41 34  2  0  0  0  0
 41 40  1  0  0  0  0
M  END
>  <minimizedAffinity>
-6.44003439

$$$$

 OpenBabel03272504053D

 41 44  0  0  0  0  0  0  0  0999 V2000
   36.7100   21.7030   31.5940 C   0  0  0  0  0  0  0  0  0  0  0  0
   36.3630   20.6840   31.2570 H   0  0  0  0  0  0  0  0  0  0  0  0
   37.6840   21.8490   31.1380 H   0  0  0  0  0  0  0  0  0  0  0  0
   36.7810   21.6340   33.0690 C   0  0  0  0  0  0  0  0  0  0  0  0
   35.8900   20.8640   33.8300 C   0  0  0  0  0  0  0  0  0  0  0  0
   36.2230   21.0160   35.1400 C   0  0  0  0  0  0  0  0  0  0  0  0
   37.2780   21.8480   35.1790 N   0  0  0  0  0  0  0  0  0  0  0  0
   37.5830   22.1940   33.9470 N   0  0  0  0  0  0  0  0  0  0  0  0
   35.0610   20.2400   33.4650 H   0  0  0  0  0  0  0  0  0  0  0  0
   35.7670   20.5810   36.0280 H   0  0  0  0  0  0  0  0  0  0  0  0
   38.0340   22.3540   36.2710 C   0  0  0  0  0  0  0  0  0  0  0  0
   37.3350   22.9780   37.2670 C   0  0  0  0  0  0  0  0  0  0  0  0
   37.9290   23.5260   38.4040 C   0  0  0  0  0  0  0  0  0  0  0  0
   39.3080   23.4120   38.4920 C   0  0  0  0  0  0  0  0  0  0  0  0
   40.0230   22.7880   37.4970 C   0  0  0  0  0  0  0  0  0  0  0  0
   39.4110   22.2530   36.3820 C   0  0  0  0  0  0  0  0  0  0  0  0
   36.2490   23.0920   37.2450 H   0  0  0  0  0  0  0  0  0  0  0  0
   37.3680   24.0090   39.1690 H   0  0  0  0  0  0  0  0  0  0  0  0
   39.8430   23.8180   39.3510 H   0  0  0  0  0  0  0  0  0  0  0  0
   41.1010   22.6790   37.5300 H   0  0  0  0  0  0  0  0  0  0  0  0
   39.8860   21.7460   35.5520 H   0  0  0  0  0  0  0  0  0  0  0  0
   35.7270   22.6810   31.0960 C   0  0  0  0  0  0  0  0  0  0  0  0
   35.5770   22.4490   30.0060 H   0  0  0  0  0  0  0  0  0  0  0  0
   34.7320   22.4110   31.5450 H   0  0  0  0  0  0  0  0  0  0  0  0
   35.9470   24.0740   31.3570 C   0  0  0  0  0  0  0  0  0  0  0  0
   35.0430   25.0040   30.8950 C   0  0  0  0  0  0  0  0  0  0  0  0
   35.2420   26.3810   31.1430 C   0  0  0  0  0  0  0  0  0  0  0  0
   36.3820   26.7020   31.8640 N   0  0  0  0  0  0  0  0  0  0  0  0
   37.2350   25.7450   32.2920 C   0  0  0  0  0  0  0  0  0  0  0  0
   37.0220   24.4360   32.0420 N   0  0  0  0  0  0  0  0  0  0  0  0
   34.1490   24.7490   30.3300 H   0  0  0  0  0  0  0  0  0  0  0  0
   34.5530   27.1110   30.7930 H   0  0  0  0  0  0  0  0  0  0  0  0
   37.4850   25.4140   35.1060 F   0  0  0  0  0  0  0  0  0  0  0  0
   38.5070   25.9730   34.3940 C   0  0  0  0  0  0  0  0  0  0  0  0
   38.4170   26.1460   33.0450 C   0  0  0  0  0  0  0  0  0  0  0  0
   39.5080   26.7220   32.4250 C   0  0  0  0  0  0  0  0  0  0  0  0
   39.4510   26.8660   31.3490 H   0  0  0  0  0  0  0  0  0  0  0  0
   40.6460   27.1190   33.0780 C   0  0  0  0  0  0  0  0  0  0  0  0
   41.4510   27.5630   32.5030 H   0  0  0  0  0  0  0  0  0  0  0  0
   40.6830   26.9190   34.4580 C   0  0  0  0  0  3  0  0  0  0  0  0
   39.6150   26.3480   35.1080 C   0  0  0  0  0  3  0  0  0  0  0  0
  1  4  1  0  0  0  0
  2  1  1  0  0  0  0
  3  1  1  0  0  0  0
  4  5  1  0  0  0  0
  4  8  2  0  0  0  0
  5  6  2  0  0  0  0
  6  7  1  0  0  0  0
  6 10  1  0  0  0  0
  7 11  1  0  0  0  0
  8  7  1  0  0  0  0
  9  5  1  0  0  0  0
 11 16  2  0  0  0  0
 11 12  1  0  0  0  0
 12 13  2  0  0  0  0
 13 14  1  0  0  0  0
 13 18  1  0  0  0  0
 14 19  1  0  0  0  0
 15 20  1  0  0  0  0
 15 14  2  0  0  0  0
 16 15  1  0  0  0  0
 17 12  1  0  0  0  0
 21 16  1  0  0  0  0
 22 25  1  0  0  0  0
 22 24  1  0  0  0  0
 22  1  1  0  0  0  0
 23 22  1  0  0  0  0
 25 30  1  0  0  0  0
 26 27  1  0  0  0  0
 26 25  2  0  0  0  0
 27 28  2  0  0  0  0
 28 29  1  0  0  0  0
 29 35  1  0  0  0  0
 30 29  2  0  0  0  0
 31 26  1  0  0  0  0
 32 27  1  0  0  0  0
 34 33  1  0  0  0  0
 34 41  1  0  0  0  0
 35 34  2  0  0  0  0
 36 35  1  0  0  0  0
 36 38  2  0  0  0  0
 37 36  1  0  0  0  0
 38 40  1  0  0  0  0
 39 38  1  0  0  0  0
 40 41  2  0  0  0  0
M  END
>  <minimizedAffinity>
-6.44003201

$$$$

 OpenBabel03272504053D

 41 44  0  0  0  0  0  0  0  0999 V2000
   37.2840   26.6030   31.7490 C   0  0  0  0  0  0  0  0  0  0  0  0
   37.0960   25.5870   31.2960 H   0  0  0  0  0  0  0  0  0  0  0  0
   37.8480   27.1570   31.0060 H   0  0  0  0  0  0  0  0  0  0  0  0
   38.0620   26.3540   32.9810 C   0  0  0  0  0  0  0  0  0  0  0  0
   39.1790   27.1240   33.3330 C   0  0  0  0  0  0  0  0  0  0  0  0
   39.6630   26.6410   34.5100 C   0  0  0  0  0  0  0  0  0  0  0  0
   38.8710   25.6130   34.8630 N   0  0  0  0  0  0  0  0  0  0  0  0
   37.9400   25.4690   33.9450 N   0  0  0  0  0  0  0  0  0  0  0  0
   39.6120   27.9720   32.7820 H   0  0  0  0  0  0  0  0  0  0  0  0
   40.5160   26.9730   35.0990 H   0  0  0  0  0  0  0  0  0  0  0  0
   38.9050   24.7470   35.9890 C   0  0  0  0  0  0  0  0  0  0  0  0
   38.0540   25.0430   37.0180 C   0  0  0  0  0  0  0  0  0  0  0  0
   37.9660   24.2910   38.1900 C   0  0  0  0  0  0  0  0  0  0  0  0
   38.8050   23.1910   38.2790 C   0  0  0  0  0  0  0  0  0  0  0  0
   39.6650   22.8830   37.2510 C   0  0  0  0  0  0  0  0  0  0  0  0
   39.7330   23.6430   36.1020 C   0  0  0  0  0  0  0  0  0  0  0  0
   37.3740   25.8970   36.9960 H   0  0  0  0  0  0  0  0  0  0  0  0
   37.2970   24.5380   38.9810 H   0  0  0  0  0  0  0  0  0  0  0  0
   38.7930   22.5570   39.1650 H   0  0  0  0  0  0  0  0  0  0  0  0
   40.3360   22.0320   37.2830 H   0  0  0  0  0  0  0  0  0  0  0  0
   40.3740   23.4810   35.2440 H   0  0  0  0  0  0  0  0  0  0  0  0
   35.9680   27.2150   31.9960 C   0  0  0  0  0  0  0  0  0  0  0  0
   35.3040   26.8890   31.1500 H   0  0  0  0  0  0  0  0  0  0  0  0
   35.5160   26.6890   32.8810 H   0  0  0  0  0  0  0  0  0  0  0  0
   35.9010   28.6240   32.2620 C   0  0  0  0  0  0  0  0  0  0  0  0
   36.4300   29.5130   31.3520 C   0  0  0  0  0  0  0  0  0  0  0  0
   36.3730   30.9040   31.5960 C   0  0  0  0  0  0  0  0  0  0  0  0
   35.7640   31.2810   32.7820 N   0  0  0  0  0  0  0  0  0  0  0  0
   35.2630   30.3620   33.6380 C   0  0  0  0  0  0  0  0  0  0  0  0
   35.3300   29.0400   33.3820 N   0  0  0  0  0  0  0  0  0  0  0  0
   36.9070   29.2150   30.4220 H   0  0  0  0  0  0  0  0  0  0  0  0
   36.7770   31.6030   30.9040 H   0  0  0  0  0  0  0  0  0  0  0  0
   36.6460   31.8160   35.6540 F   0  0  0  0  0  0  0  0  0  0  0  0
   35.3240   31.5170   35.8180 C   0  0  0  0  0  0  0  0  0  0  0  0
   34.6340   30.8210   34.8700 C   0  0  0  0  0  0  0  0  0  0  0  0
   33.3030   30.5730   35.1380 C   0  0  0  0  0  0  0  0  0  0  0  0
   32.7390   30.0190   34.3910 H   0  0  0  0  0  0  0  0  0  0  0  0
   32.6560   30.9790   36.2770 C   0  0  0  0  0  0  0  0  0  0  0  0
   31.6060   30.7350   36.3970 H   0  0  0  0  0  0  0  0  0  0  0  0
   33.4100   31.6860   37.2120 C   0  0  0  0  0  3  0  0  0  0  0  0
   34.7390   31.9510   36.9790 C   0  0  0  0  0  3  0  0  0  0  0  0
  1 22  1  0  0  0  0
  1  4  1  0  0  0  0
  2  1  1  0  0  0  0
  3  1  1  0  0  0  0
  4  5  1  0  0  0  0
  4  8  2  0  0  0  0
  5  6  2  0  0  0  0
  6  7  1  0  0  0  0
  6 10  1  0  0  0  0
  7 11  1  0  0  0  0
  8  7  1  0  0  0  0
  9  5  1  0  0  0  0
 11 16  2  0  0  0  0
 11 12  1  0  0  0  0
 12 13  2  0  0  0  0
 13 14  1  0  0  0  0
 13 18  1  0  0  0  0
 14 19  1  0  0  0  0
 15 20  1  0  0  0  0
 15 14  2  0  0  0  0
 16 15  1  0  0  0  0
 17 12  1  0  0  0  0
 21 16  1  0  0  0  0
 22 25  1  0  0  0  0
 22 24  1  0  0  0  0
 23 22  1  0  0  0  0
 25 30  1  0  0  0  0
 26 27  1  0  0  0  0
 26 25  2  0  0  0  0
 27 28  2  0  0  0  0
 28 29  1  0  0  0  0
 29 35  1  0  0  0  0
 30 29  2  0  0  0  0
 31 26  1  0  0  0  0
 32 27  1  0  0  0  0
 33 34  1  0  0  0  0
 34 41  1  0  0  0  0
 35 36  1  0  0  0  0
 35 34  2  0  0  0  0
 36 38  2  0  0  0  0
 37 36  1  0  0  0  0
 38 39  1  0  0  0  0
 38 40  1  0  0  0  0
 41 40  2  0  0  0  0
M  END
>  <minimizedAffinity>
-6.43604708

$$$$

 OpenBabel03272504053D

 41 44  0  0  0  0  0  0  0  0999 V2000
   37.0330   26.4570   32.2480 C   0  0  0  0  0  0  0  0  0  0  0  0
   35.9080   26.3760   32.2440 H   0  0  0  0  0  0  0  0  0  0  0  0
   37.3410   26.3370   31.2140 H   0  0  0  0  0  0  0  0  0  0  0  0
   37.5110   25.3550   33.1110 C   0  0  0  0  0  0  0  0  0  0  0  0
   37.8150   24.0830   32.6070 C   0  0  0  0  0  0  0  0  0  0  0  0
   38.2220   23.3080   33.6490 C   0  0  0  0  0  0  0  0  0  0  0  0
   38.1690   24.0790   34.7500 N   0  0  0  0  0  0  0  0  0  0  0  0
   37.7480   25.2760   34.4010 N   0  0  0  0  0  0  0  0  0  0  0  0
   37.7460   23.7390   31.5640 H   0  0  0  0  0  0  0  0  0  0  0  0
   38.5390   22.2670   33.6600 H   0  0  0  0  0  0  0  0  0  0  0  0
   38.4790   23.7990   36.1070 C   0  0  0  0  0  0  0  0  0  0  0  0
   37.7450   24.4590   37.0550 C   0  0  0  0  0  0  0  0  0  0  0  0
   37.9260   24.2930   38.4290 C   0  0  0  0  0  0  0  0  0  0  0  0
   38.9150   23.4010   38.8150 C   0  0  0  0  0  0  0  0  0  0  0  0
   39.6600   22.7320   37.8730 C   0  0  0  0  0  0  0  0  0  0  0  0
   39.4610   22.9130   36.5190 C   0  0  0  0  0  0  0  0  0  0  0  0
   36.9550   25.1690   36.8020 H   0  0  0  0  0  0  0  0  0  0  0  0
   37.3450   24.8160   39.1510 H   0  0  0  0  0  0  0  0  0  0  0  0
   39.1150   23.2210   39.8710 H   0  0  0  0  0  0  0  0  0  0  0  0
   40.4410   22.0280   38.1350 H   0  0  0  0  0  0  0  0  0  0  0  0
   39.9940   22.4350   35.7070 H   0  0  0  0  0  0  0  0  0  0  0  0
   37.3680   27.7950   32.7610 C   0  0  0  0  0  0  0  0  0  0  0  0
   37.7810   27.6420   33.7960 H   0  0  0  0  0  0  0  0  0  0  0  0
   38.2660   28.1570   32.1890 H   0  0  0  0  0  0  0  0  0  0  0  0
   36.3750   28.8290   32.6910 C   0  0  0  0  0  0  0  0  0  0  0  0
   36.0840   29.4120   31.4780 C   0  0  0  0  0  0  0  0  0  0  0  0
   35.1080   30.4300   31.3900 C   0  0  0  0  0  0  0  0  0  0  0  0
   34.4950   30.7790   32.5830 N   0  0  0  0  0  0  0  0  0  0  0  0
   34.8230   30.1720   33.7450 C   0  0  0  0  0  0  0  0  0  0  0  0
   35.7580   29.2010   33.8030 N   0  0  0  0  0  0  0  0  0  0  0  0
   36.5660   29.1360   30.5440 H   0  0  0  0  0  0  0  0  0  0  0  0
   34.8720   30.8900   30.4600 H   0  0  0  0  0  0  0  0  0  0  0  0
   32.2900   29.1530   34.5450 F   0  0  0  0  0  0  0  0  0  0  0  0
   32.9280   30.0750   35.3230 C   0  0  0  0  0  0  0  0  0  0  0  0
   34.1420   30.5820   34.9670 C   0  0  0  0  0  0  0  0  0  0  0  0
   34.6970   31.5090   35.8260 C   0  0  0  0  0  0  0  0  0  0  0  0
   35.6650   31.9230   35.5550 H   0  0  0  0  0  0  0  0  0  0  0  0
   34.1060   31.9350   36.9890 C   0  0  0  0  0  0  0  0  0  0  0  0
   34.6210   32.6680   37.5990 H   0  0  0  0  0  0  0  0  0  0  0  0
   32.8650   31.3830   37.3030 C   0  0  0  0  0  3  0  0  0  0  0  0
   32.2830   30.4570   36.4700 C   0  0  0  0  0  3  0  0  0  0  0  0
  1 22  1  0  0  0  0
  1  4  1  0  0  0  0
  2  1  1  0  0  0  0
  3  1  1  0  0  0  0
  4  8  2  0  0  0  0
  5  4  1  0  0  0  0
  5  6  2  0  0  0  0
  6 10  1  0  0  0  0
  6  7  1  0  0  0  0
  7 11  1  0  0  0  0
  8  7  1  0  0  0  0
  9  5  1  0  0  0  0
 11 16  2  0  0  0  0
 11 12  1  0  0  0  0
 12 13  2  0  0  0  0
 13 14  1  0  0  0  0
 13 18  1  0  0  0  0
 14 19  1  0  0  0  0
 15 20  1  0  0  0  0
 15 14  2  0  0  0  0
 16 15  1  0  0  0  0
 17 12  1  0  0  0  0
 21 16  1  0  0  0  0
 22 23  1  0  0  0  0
 24 22  1  0  0  0  0
 25 22  1  0  0  0  0
 25 30  1  0  0  0  0
 26 25  2  0  0  0  0
 27 26  1  0  0  0  0
 27 28  2  0  0  0  0
 28 29  1  0  0  0  0
 29 30  2  0  0  0  0
 29 35  1  0  0  0  0
 31 26  1  0  0  0  0
 32 27  1  0  0  0  0
 33 34  1  0  0  0  0
 34 41  1  0  0  0  0
 35 34  2  0  0  0  0
 35 36  1  0  0  0  0
 36 38  2  0  0  0  0
 37 36  1  0  0  0  0
 38 40  1  0  0  0  0
 38 39  1  0  0  0  0
 41 40  2  0  0  0  0
M  END
>  <minimizedAffinity>
-6.41818237

$$$$

 OpenBabel03272504053D

 41 44  0  0  0  0  0  0  0  0999 V2000
   36.7260   27.4960   31.7690 C   0  0  0  0  0  0  0  0  0  0  0  0
   37.0340   27.7410   30.7120 H   0  0  0  0  0  0  0  0  0  0  0  0
   35.9500   26.7430   31.6830 H   0  0  0  0  0  0  0  0  0  0  0  0
   36.2230   28.7630   32.3430 C   0  0  0  0  0  0  0  0  0  0  0  0
   36.1490   29.9480   31.5980 C   0  0  0  0  0  0  0  0  0  0  0  0
   35.6490   30.9190   32.4090 C   0  0  0  0  0  0  0  0  0  0  0  0
   35.4260   30.3480   33.6060 N   0  0  0  0  0  0  0  0  0  0  0  0
   35.7720   29.0810   33.5360 N   0  0  0  0  0  0  0  0  0  0  0  0
   36.4360   30.1000   30.5470 H   0  0  0  0  0  0  0  0  0  0  0  0
   35.4460   31.9670   32.1960 H   0  0  0  0  0  0  0  0  0  0  0  0
   34.9130   30.8820   34.8190 C   0  0  0  0  0  0  0  0  0  0  0  0
   33.5850   30.6710   35.0710 C   0  0  0  0  0  0  0  0  0  0  0  0
   32.9320   31.1300   36.2160 C   0  0  0  0  0  0  0  0  0  0  0  0
   33.7070   31.8340   37.1250 C   0  0  0  0  0  0  0  0  0  0  0  0
   35.0430   32.0530   36.8830 C   0  0  0  0  0  0  0  0  0  0  0  0
   35.6650   31.5890   35.7420 C   0  0  0  0  0  0  0  0  0  0  0  0
   32.9340   30.1230   34.3880 H   0  0  0  0  0  0  0  0  0  0  0  0
   31.8970   30.9560   36.3940 H   0  0  0  0  0  0  0  0  0  0  0  0
   33.2660   32.2240   38.0420 H   0  0  0  0  0  0  0  0  0  0  0  0
   35.6810   32.5990   37.5680 H   0  0  0  0  0  0  0  0  0  0  0  0
   36.7050   31.7100   35.4660 H   0  0  0  0  0  0  0  0  0  0  0  0
   37.9180   26.9700   32.4560 C   0  0  0  0  0  0  0  0  0  0  0  0
   38.7930   27.2010   31.7880 H   0  0  0  0  0  0  0  0  0  0  0  0
   38.1070   27.6290   33.3470 H   0  0  0  0  0  0  0  0  0  0  0  0
   37.9010   25.6150   32.9260 C   0  0  0  0  0  0  0  0  0  0  0  0
   37.5990   24.5950   32.0510 C   0  0  0  0  0  0  0  0  0  0  0  0
   37.5790   23.2540   32.4950 C   0  0  0  0  0  0  0  0  0  0  0  0
   37.8760   23.0600   33.8350 N   0  0  0  0  0  0  0  0  0  0  0  0
   38.1650   24.1020   34.6480 C   0  0  0  0  0  0  0  0  0  0  0  0
   38.1790   25.3740   34.1980 N   0  0  0  0  0  0  0  0  0  0  0  0
   37.3660   24.7490   31.0000 H   0  0  0  0  0  0  0  0  0  0  0  0
   37.3470   22.4550   31.8320 H   0  0  0  0  0  0  0  0  0  0  0  0
   40.4380   22.6190   35.4990 F   0  0  0  0  0  0  0  0  0  0  0  0
   39.5690   23.1200   36.4240 C   0  0  0  0  0  0  0  0  0  0  0  0
   38.4700   23.8340   36.0470 C   0  0  0  0  0  0  0  0  0  0  0  0
   37.6580   24.2940   37.0650 C   0  0  0  0  0  0  0  0  0  0  0  0
   36.7780   24.8650   36.7800 H   0  0  0  0  0  0  0  0  0  0  0  0
   37.8920   24.0750   38.3980 C   0  0  0  0  0  0  0  0  0  0  0  0
   37.1940   24.4770   39.1240 H   0  0  0  0  0  0  0  0  0  0  0  0
   39.0290   23.3380   38.7260 C   0  0  0  0  0  3  0  0  0  0  0  0
   39.8610   22.8650   37.7380 C   0  0  0  0  0  3  0  0  0  0  0  0
  1  4  1  0  0  0  0
  1 22  1  0  0  0  0
  2  1  1  0  0  0  0
  3  1  1  0  0  0  0
  4  8  2  0  0  0  0
  5  4  1  0  0  0  0
  5  6  2  0  0  0  0
  6  7  1  0  0  0  0
  7 11  1  0  0  0  0
  8  7  1  0  0  0  0
  9  5  1  0  0  0  0
 10  6  1  0  0  0  0
 11 12  2  0  0  0  0
 11 16  1  0  0  0  0
 12 13  1  0  0  0  0
 13 18  1  0  0  0  0
 13 14  2  0  0  0  0
 14 19  1  0  0  0  0
 15 14  1  0  0  0  0
 15 20  1  0  0  0  0
 16 15  2  0  0  0  0
 17 12  1  0  0  0  0
 21 16  1  0  0  0  0
 22 25  1  0  0  0  0
 22 24  1  0  0  0  0
 23 22  1  0  0  0  0
 25 30  1  0  0  0  0
 26 27  1  0  0  0  0
 26 25  2  0  0  0  0
 27 28  2  0  0  0  0
 28 29  1  0  0  0  0
 29 35  1  0  0  0  0
 30 29  2  0  0  0  0
 31 26  1  0  0  0  0
 32 27  1  0  0  0  0
 33 34  1  0  0  0  0
 34 41  1  0  0  0  0
 35 34  2  0  0  0  0
 35 36  1  0  0  0  0
 36 38  2  0  0  0  0
 37 36  1  0  0  0  0
 38 40  1  0  0  0  0
 38 39  1  0  0  0  0
 41 40  2  0  0  0  0
M  END
>  <minimizedAffinity>
-6.41587114

$$$$

 OpenBabel03272504053D

 41 44  0  0  0  0  0  0  0  0999 V2000
   37.4320   25.5850   35.7050 C   0  0  0  0  0  0  0  0  0  0  0  0
   37.1640   26.3580   36.4810 H   0  0  0  0  0  0  0  0  0  0  0  0
   36.4920   25.1400   35.3960 H   0  0  0  0  0  0  0  0  0  0  0  0
   38.3170   24.6190   36.3910 C   0  0  0  0  0  0  0  0  0  0  0  0
   38.0090   24.0790   37.6470 C   0  0  0  0  0  0  0  0  0  0  0  0
   39.0170   23.2340   37.9950 C   0  0  0  0  0  0  0  0  0  0  0  0
   39.9080   23.2570   36.9880 N   0  0  0  0  0  0  0  0  0  0  0  0
   39.4690   24.0790   36.0600 N   0  0  0  0  0  0  0  0  0  0  0  0
   37.1230   24.2810   38.2670 H   0  0  0  0  0  0  0  0  0  0  0  0
   39.1400   22.6300   38.8930 H   0  0  0  0  0  0  0  0  0  0  0  0
   41.1420   22.5750   36.8120 C   0  0  0  0  0  0  0  0  0  0  0  0
   42.1110   23.2300   36.1030 C   0  0  0  0  0  0  0  0  0  0  0  0
   43.3750   22.6970   35.8440 C   0  0  0  0  0  0  0  0  0  0  0  0
   43.6220   21.4300   36.3490 C   0  0  0  0  0  0  0  0  0  0  0  0
   42.6560   20.7600   37.0620 C   0  0  0  0  0  0  0  0  0  0  0  0
   41.4140   21.3100   37.3050 C   0  0  0  0  0  0  0  0  0  0  0  0
   41.9650   24.2280   35.6860 H   0  0  0  0  0  0  0  0  0  0  0  0
   44.1160   23.2230   35.2890 H   0  0  0  0  0  0  0  0  0  0  0  0
   44.5860   20.9490   36.1850 H   0  0  0  0  0  0  0  0  0  0  0  0
   42.8120   19.7690   37.4720 H   0  0  0  0  0  0  0  0  0  0  0  0
   40.5940   20.8620   37.8530 H   0  0  0  0  0  0  0  0  0  0  0  0
   38.0850   26.2970   34.5940 C   0  0  0  0  0  0  0  0  0  0  0  0
   39.1010   26.6000   34.9690 H   0  0  0  0  0  0  0  0  0  0  0  0
   38.3310   25.5330   33.8060 H   0  0  0  0  0  0  0  0  0  0  0  0
   37.3760   27.3620   33.9450 C   0  0  0  0  0  0  0  0  0  0  0  0
   37.4140   27.4680   32.5720 C   0  0  0  0  0  0  0  0  0  0  0  0
   36.7210   28.5100   31.9160 C   0  0  0  0  0  0  0  0  0  0  0  0
   36.0260   29.3810   32.7400 N   0  0  0  0  0  0  0  0  0  0  0  0
   36.0250   29.2280   34.0830 C   0  0  0  0  0  0  0  0  0  0  0  0
   36.6950   28.2240   34.6860 N   0  0  0  0  0  0  0  0  0  0  0  0
   37.9600   26.7830   31.9280 H   0  0  0  0  0  0  0  0  0  0  0  0
   36.7410   28.6050   30.8560 H   0  0  0  0  0  0  0  0  0  0  0  0
   33.1850   29.2510   34.2440 F   0  0  0  0  0  0  0  0  0  0  0  0
   33.9140   30.1620   34.9530 C   0  0  0  0  0  0  0  0  0  0  0  0
   35.2750   30.1770   34.8960 C   0  0  0  0  0  0  0  0  0  0  0  0
   35.9120   31.1410   35.6520 C   0  0  0  0  0  0  0  0  0  0  0  0
   36.9980   31.1650   35.6170 H   0  0  0  0  0  0  0  0  0  0  0  0
   35.2630   32.0600   36.4360 C   0  0  0  0  0  0  0  0  0  0  0  0
   35.8510   32.7800   36.9940 H   0  0  0  0  0  0  0  0  0  0  0  0
   33.8700   32.0000   36.4560 C   0  0  0  0  0  3  0  0  0  0  0  0
   33.2030   31.0520   35.7150 C   0  0  0  0  0  3  0  0  0  0  0  0
  1  4  1  0  0  0  0
  1  2  1  0  0  0  0
  3  1  1  0  0  0  0
  4  5  1  0  0  0  0
  5  6  2  0  0  0  0
  5  9  1  0  0  0  0
  6 10  1  0  0  0  0
  7  6  1  0  0  0  0
  8  4  2  0  0  0  0
  8  7  1  0  0  0  0
 11  7  1  0  0  0  0
 11 16  1  0  0  0  0
 12 11  2  0  0  0  0
 13 12  1  0  0  0  0
 13 14  2  0  0  0  0
 14 15  1  0  0  0  0
 15 16  2  0  0  0  0
 15 20  1  0  0  0  0
 16 21  1  0  0  0  0
 17 12  1  0  0  0  0
 18 13  1  0  0  0  0
 19 14  1  0  0  0  0
 22 23  1  0  0  0  0
 22  1  1  0  0  0  0
 24 22  1  0  0  0  0
 25 22  1  0  0  0  0
 25 30  1  0  0  0  0
 26 25  2  0  0  0  0
 27 26  1  0  0  0  0
 27 28  2  0  0  0  0
 28 29  1  0  0  0  0
 29 30  2  0  0  0  0
 29 35  1  0  0  0  0
 31 26  1  0  0  0  0
 32 27  1  0  0  0  0
 33 34  1  0  0  0  0
 34 41  1  0  0  0  0
 35 34  2  0  0  0  0
 35 36  1  0  0  0  0
 36 38  2  0  0  0  0
 37 36  1  0  0  0  0
 38 40  1  0  0  0  0
 38 39  1  0  0  0  0
 41 40  2  0  0  0  0
M  END
>  <minimizedAffinity>
-6.38363695

$$$$

 OpenBabel03272504053D

 41 44  0  0  0  0  0  0  0  0999 V2000
   37.5320   26.9230   32.7700 C   0  0  0  0  0  0  0  0  0  0  0  0
   37.8770   26.5490   33.7760 H   0  0  0  0  0  0  0  0  0  0  0  0
   38.4180   27.3210   32.2840 H   0  0  0  0  0  0  0  0  0  0  0  0
   36.5260   27.9680   33.0540 C   0  0  0  0  0  0  0  0  0  0  0  0
   35.5810   28.3800   32.1050 C   0  0  0  0  0  0  0  0  0  0  0  0
   34.8100   29.3460   32.6760 C   0  0  0  0  0  0  0  0  0  0  0  0
   35.2680   29.5170   33.9290 N   0  0  0  0  0  0  0  0  0  0  0  0
   36.2760   28.6940   34.1220 N   0  0  0  0  0  0  0  0  0  0  0  0
   35.4570   28.0120   31.0760 H   0  0  0  0  0  0  0  0  0  0  0  0
   33.9760   29.9070   32.2590 H   0  0  0  0  0  0  0  0  0  0  0  0
   34.8470   30.3860   34.9710 C   0  0  0  0  0  0  0  0  0  0  0  0
   33.5170   30.3640   35.2900 C   0  0  0  0  0  0  0  0  0  0  0  0
   32.9470   31.1550   36.2880 C   0  0  0  0  0  0  0  0  0  0  0  0
   33.8100   31.9990   36.9710 C   0  0  0  0  0  0  0  0  0  0  0  0
   35.1490   32.0310   36.6600 C   0  0  0  0  0  0  0  0  0  0  0  0
   35.6880   31.2380   35.6680 C   0  0  0  0  0  0  0  0  0  0  0  0
   32.7980   29.7180   34.7830 H   0  0  0  0  0  0  0  0  0  0  0  0
   31.9090   31.1240   36.5220 H   0  0  0  0  0  0  0  0  0  0  0  0
   33.4360   32.6470   37.7640 H   0  0  0  0  0  0  0  0  0  0  0  0
   35.8540   32.6760   37.1710 H   0  0  0  0  0  0  0  0  0  0  0  0
   36.7230   31.1930   35.3530 H   0  0  0  0  0  0  0  0  0  0  0  0
   36.9900   25.7650   32.0410 C   0  0  0  0  0  0  0  0  0  0  0  0
   35.9290   26.0270   31.7770 H   0  0  0  0  0  0  0  0  0  0  0  0
   37.4930   25.7370   31.0360 H   0  0  0  0  0  0  0  0  0  0  0  0
   37.1270   24.4590   32.6210 C   0  0  0  0  0  0  0  0  0  0  0  0
   36.5620   23.3720   31.9910 C   0  0  0  0  0  0  0  0  0  0  0  0
   36.6880   22.0790   32.5470 C   0  0  0  0  0  0  0  0  0  0  0  0
   37.4010   22.0020   33.7330 N   0  0  0  0  0  0  0  0  0  0  0  0
   37.9330   23.1050   34.3060 C   0  0  0  0  0  0  0  0  0  0  0  0
   37.7990   24.3290   33.7550 N   0  0  0  0  0  0  0  0  0  0  0  0
   36.0040   23.4360   31.0610 H   0  0  0  0  0  0  0  0  0  0  0  0
   36.2570   21.2300   32.0730 H   0  0  0  0  0  0  0  0  0  0  0  0
   37.0240   24.1400   36.7940 F   0  0  0  0  0  0  0  0  0  0  0  0
   38.2090   23.4660   36.7310 C   0  0  0  0  0  0  0  0  0  0  0  0
   38.6720   22.9590   35.5530 C   0  0  0  0  0  0  0  0  0  0  0  0
   39.8830   22.2970   35.6030 C   0  0  0  0  0  0  0  0  0  0  0  0
   40.2650   21.8870   34.6720 H   0  0  0  0  0  0  0  0  0  0  0  0
   40.6230   22.1270   36.7450 C   0  0  0  0  0  0  0  0  0  0  0  0
   41.5640   21.5920   36.6830 H   0  0  0  0  0  0  0  0  0  0  0  0
   40.1020   22.6670   37.9200 C   0  0  0  0  0  3  0  0  0  0  0  0
   38.8990   23.3330   37.9070 C   0  0  0  0  0  3  0  0  0  0  0  0
  1  4  1  0  0  0  0
  1  2  1  0  0  0  0
  3  1  1  0  0  0  0
  4  8  2  0  0  0  0
  5  6  2  0  0  0  0
  5  4  1  0  0  0  0
  6  7  1  0  0  0  0
  7  8  1  0  0  0  0
  7 11  1  0  0  0  0
  9  5  1  0  0  0  0
 10  6  1  0  0  0  0
 11 12  2  0  0  0  0
 11 16  1  0  0  0  0
 12 13  1  0  0  0  0
 13 18  1  0  0  0  0
 13 14  2  0  0  0  0
 14 19  1  0  0  0  0
 15 14  1  0  0  0  0
 15 20  1  0  0  0  0
 16 15  2  0  0  0  0
 17 12  1  0  0  0  0
 21 16  1  0  0  0  0
 22 25  1  0  0  0  0
 22  1  1  0  0  0  0
 23 22  1  0  0  0  0
 24 22  1  0  0  0  0
 25 30  1  0  0  0  0
 26 27  1  0  0  0  0
 26 25  2  0  0  0  0
 27 28  2  0  0  0  0
 28 29  1  0  0  0  0
 29 35  1  0  0  0  0
 30 29  2  0  0  0  0
 31 26  1  0  0  0  0
 32 27  1  0  0  0  0
 34 33  1  0  0  0  0
 34 41  1  0  0  0  0
 35 36  1  0  0  0  0
 35 34  2  0  0  0  0
 36 38  2  0  0  0  0
 37 36  1  0  0  0  0
 38 40  1  0  0  0  0
 39 38  1  0  0  0  0
 41 40  2  0  0  0  0
M  END
>  <minimizedAffinity>
-6.37450075

$$$$

 OpenBabel03272504053D

 41 44  0  0  0  0  0  0  0  0999 V2000
   36.3620   26.0400   31.0430 C   0  0  0  0  0  0  0  0  0  0  0  0
   35.2820   26.0730   30.7180 H   0  0  0  0  0  0  0  0  0  0  0  0
   36.9090   26.6250   30.3100 H   0  0  0  0  0  0  0  0  0  0  0  0
   36.7420   24.6110   31.0230 C   0  0  0  0  0  0  0  0  0  0  0  0
   37.9220   24.1550   30.4200 C   0  0  0  0  0  0  0  0  0  0  0  0
   37.9740   22.8040   30.5750 C   0  0  0  0  0  0  0  0  0  0  0  0
   36.8650   22.4480   31.2480 N   0  0  0  0  0  0  0  0  0  0  0  0
   36.1620   23.5310   31.4980 N   0  0  0  0  0  0  0  0  0  0  0  0
   38.6890   24.7530   29.9060 H   0  0  0  0  0  0  0  0  0  0  0  0
   38.7300   22.0940   30.2440 H   0  0  0  0  0  0  0  0  0  0  0  0
   36.4000   21.1780   31.6840 C   0  0  0  0  0  0  0  0  0  0  0  0
   35.9490   21.0980   32.9720 C   0  0  0  0  0  0  0  0  0  0  0  0
   35.4590   19.9250   33.5500 C   0  0  0  0  0  0  0  0  0  0  0  0
   35.4470   18.8000   32.7390 C   0  0  0  0  0  0  0  0  0  0  0  0
   35.8980   18.8670   31.4420 C   0  0  0  0  0  0  0  0  0  0  0  0
   36.3770   20.0400   30.8950 C   0  0  0  0  0  0  0  0  0  0  0  0
   35.9370   21.9540   33.6490 H   0  0  0  0  0  0  0  0  0  0  0  0
   35.1130   19.8820   34.5550 H   0  0  0  0  0  0  0  0  0  0  0  0
   35.0800   17.8480   33.1210 H   0  0  0  0  0  0  0  0  0  0  0  0
   35.9040   18.0110   30.7780 H   0  0  0  0  0  0  0  0  0  0  0  0
   36.7510   20.1910   29.8900 H   0  0  0  0  0  0  0  0  0  0  0  0
   36.4290   26.6500   32.3810 C   0  0  0  0  0  0  0  0  0  0  0  0
   36.0850   27.7140   32.2600 H   0  0  0  0  0  0  0  0  0  0  0  0
   35.6060   26.1940   32.9970 H   0  0  0  0  0  0  0  0  0  0  0  0
   37.6430   26.5260   33.1360 C   0  0  0  0  0  0  0  0  0  0  0  0
   38.7700   27.2050   32.7290 C   0  0  0  0  0  0  0  0  0  0  0  0
   39.9740   27.0960   33.4600 C   0  0  0  0  0  0  0  0  0  0  0  0
   39.9260   26.2780   34.5770 N   0  0  0  0  0  0  0  0  0  0  0  0
   38.7900   25.6350   34.9290 C   0  0  0  0  0  0  0  0  0  0  0  0
   37.6520   25.7560   34.2140 N   0  0  0  0  0  0  0  0  0  0  0  0
   38.8050   27.8460   31.8510 H   0  0  0  0  0  0  0  0  0  0  0  0
   40.8530   27.6140   33.1580 H   0  0  0  0  0  0  0  0  0  0  0  0
   40.4350   23.3290   35.1910 F   0  0  0  0  0  0  0  0  0  0  0  0
   39.6030   23.6900   36.2110 C   0  0  0  0  0  0  0  0  0  0  0  0
   38.8020   24.7890   36.1150 C   0  0  0  0  0  0  0  0  0  0  0  0
   37.9990   25.0610   37.2060 C   0  0  0  0  0  0  0  0  0  0  0  0
   37.3550   25.9340   37.1440 H   0  0  0  0  0  0  0  0  0  0  0  0
   37.9670   24.3040   38.3490 C   0  0  0  0  0  0  0  0  0  0  0  0
   37.3010   24.5980   39.1520 H   0  0  0  0  0  0  0  0  0  0  0  0
   38.8060   23.1910   38.3910 C   0  0  0  0  0  3  0  0  0  0  0  0
   39.6190   22.8900   37.3240 C   0  0  0  0  0  3  0  0  0  0  0  0
  1 22  1  0  0  0  0
  2  1  1  0  0  0  0
  3  1  1  0  0  0  0
  4  1  1  0  0  0  0
  4  8  2  0  0  0  0
  5  6  2  0  0  0  0
  5  4  1  0  0  0  0
  6  7  1  0  0  0  0
  7  8  1  0  0  0  0
  7 11  1  0  0  0  0
  9  5  1  0  0  0  0
 10  6  1  0  0  0  0
 11 12  1  0  0  0  0
 12 13  2  0  0  0  0
 12 17  1  0  0  0  0
 13 18  1  0  0  0  0
 14 19  1  0  0  0  0
 14 13  1  0  0  0  0
 15 14  2  0  0  0  0
 16 15  1  0  0  0  0
 16 11  2  0  0  0  0
 20 15  1  0  0  0  0
 21 16  1  0  0  0  0
 22 24  1  0  0  0  0
 22 25  1  0  0  0  0
 23 22  1  0  0  0  0
 25 30  1  0  0  0  0
 26 25  2  0  0  0  0
 26 27  1  0  0  0  0
 27 28  2  0  0  0  0
 28 29  1  0  0  0  0
 29 35  1  0  0  0  0
 30 29  2  0  0  0  0
 31 26  1  0  0  0  0
 32 27  1  0  0  0  0
 33 34  1  0  0  0  0
 34 41  1  0  0  0  0
 35 34  2  0  0  0  0
 35 36  1  0  0  0  0
 36 38  2  0  0  0  0
 37 36  1  0  0  0  0
 38 40  1  0  0  0  0
 38 39  1  0  0  0  0
 41 40  2  0  0  0  0
M  END
>  <minimizedAffinity>
-6.34190035

$$$$
