
 OpenBabel03272505073D

 33 35  0  0  1  0  0  0  0  0999 V2000
   36.5500   22.9600   31.3540 C   0  0  0  0  0  0  0  0  0  0  0  0
   37.3640   23.5800   32.2970 C   0  0  0  0  0  0  0  0  0  0  0  0
   37.1240   24.8950   32.6680 C   0  0  0  0  0  0  0  0  0  0  0  0
   36.0860   25.5180   32.0790 N   0  0  0  0  0  0  0  0  0  0  0  0
   35.3050   24.9180   31.1710 C   0  0  0  0  0  0  0  0  0  0  0  0
   35.5240   23.6290   30.7950 N   0  0  0  0  0  0  0  0  0  0  0  0
   37.8590   25.6600   33.5980 N   0  0  0  0  0  0  0  0  0  0  0  0
   38.2780   25.1830   34.8930 C   0  0  0  0  0  0  0  0  0  0  0  0
   39.6700   25.4730   35.2950 C   0  0  0  0  0  0  0  0  0  0  0  0
   40.2530   26.7590   34.8440 C   0  0  0  0  0  0  0  0  0  0  0  0
   39.8350   27.0480   33.4330 C   0  0  0  0  0  0  0  0  0  0  0  0
   38.3050   27.0010   33.4130 C   0  0  1  0  0  0  0  0  0  0  0  0
   36.7740   21.9300   31.0960 H   0  0  0  0  0  0  0  0  0  0  0  0
   38.2020   23.1020   32.7840 H   0  0  0  0  0  0  0  0  0  0  0  0
   34.4670   25.4550   30.7100 H   0  0  0  0  0  0  0  0  0  0  0  0
   38.0820   24.0990   35.0110 H   0  0  0  0  0  0  0  0  0  0  0  0
   37.5890   25.6790   35.6240 H   0  0  0  0  0  0  0  0  0  0  0  0
   39.7060   25.4600   36.4110 H   0  0  0  0  0  0  0  0  0  0  0  0
   40.3110   24.6100   34.9810 H   0  0  0  0  0  0  0  0  0  0  0  0
   40.0350   27.6270   35.4940 H   0  0  0  0  0  0  0  0  0  0  0  0
   41.3630   26.6500   34.8330 H   0  0  0  0  0  0  0  0  0  0  0  0
   40.2120   28.0150   33.0520 H   0  0  0  0  0  0  0  0  0  0  0  0
   40.1580   26.1970   32.7820 H   0  0  0  0  0  0  0  0  0  0  0  0
   38.0330   27.6460   34.3090 H   0  0  0  0  0  0  0  0  0  0  0  0
   36.0200   28.6530   33.5190 F   0  0  0  0  0  0  0  0  0  0  0  0
   36.6490   28.5540   32.3010 C   0  0  0  0  0  0  0  0  0  0  0  0
   37.7740   27.7220   32.2510 C   0  0  0  0  0  0  0  0  0  0  0  0
   38.3250   27.7010   30.9750 C   0  0  0  0  0  0  0  0  0  0  0  0
   39.2120   27.0980   30.8040 H   0  0  0  0  0  0  0  0  0  0  0  0
   37.8480   28.3950   29.8840 C   0  0  0  0  0  0  0  0  0  0  0  0
   38.3340   28.3260   28.9250 H   0  0  0  0  0  0  0  0  0  0  0  0
   36.7410   29.1780   30.0450 C   0  0  0  0  0  3  0  0  0  0  0  0
   36.1150   29.2730   31.2690 C   0  0  0  0  0  3  0  0  0  0  0  0
  1  2  1  0  0  0  0
  2  3  2  0  0  0  0
  2 14  1  0  0  0  0
  3  7  1  0  0  0  0
  4  3  1  0  0  0  0
  5  4  2  0  0  0  0
  6  5  1  0  0  0  0
  6  1  2  0  0  0  0
  7  8  1  0  0  0  0
  8 16  1  0  0  0  0
  8  9  1  0  0  0  0
  8 17  1  0  0  0  0
  9 18  1  0  0  0  0
 10  9  1  0  0  0  0
 10 20  1  0  0  0  0
 11 10  1  0  0  0  0
 12 11  1  0  0  0  0
 12  7  1  0  0  0  0
 12 24  1  1  0  0  0
 13  1  1  0  0  0  0
 15  5  1  0  0  0  0
 19  9  1  0  0  0  0
 21 10  1  0  0  0  0
 22 11  1  0  0  0  0
 23 11  1  0  0  0  0
 26 25  1  0  0  0  0
 27 26  1  0  0  0  0
 27 12  1  0  0  0  0
 28 27  2  0  0  0  0
 29 28  1  0  0  0  0
 30 32  2  0  0  0  0
 30 28  1  0  0  0  0
 31 30  1  0  0  0  0
 32 33  1  0  0  0  0
 33 26  2  0  0  0  0
M  END
>  <minimizedAffinity>
-5.16222763

$$$$

 OpenBabel03272505073D

 33 35  0  0  1  0  0  0  0  0999 V2000
   36.2840   22.6100   32.2750 C   0  0  0  0  0  0  0  0  0  0  0  0
   37.2240   23.6360   32.2580 C   0  0  0  0  0  0  0  0  0  0  0  0
   38.3030   23.6070   33.1290 C   0  0  0  0  0  0  0  0  0  0  0  0
   38.3850   22.5570   33.9670 N   0  0  0  0  0  0  0  0  0  0  0  0
   37.4790   21.5710   33.9810 C   0  0  0  0  0  0  0  0  0  0  0  0
   36.4140   21.5810   33.1340 N   0  0  0  0  0  0  0  0  0  0  0  0
   39.3300   24.5690   33.2380 N   0  0  0  0  0  0  0  0  0  0  0  0
   40.0220   25.1500   32.1140 C   0  0  0  0  0  0  0  0  0  0  0  0
   40.2260   26.6130   32.1370 C   0  0  0  0  0  0  0  0  0  0  0  0
   40.4610   27.2460   33.4580 C   0  0  0  0  0  0  0  0  0  0  0  0
   39.5690   26.6250   34.4920 C   0  0  0  0  0  0  0  0  0  0  0  0
   39.8370   25.1180   34.4510 C   0  0  1  0  0  0  0  0  0  0  0  0
   35.4570   22.6750   31.5750 H   0  0  0  0  0  0  0  0  0  0  0  0
   37.1800   24.4890   31.5950 H   0  0  0  0  0  0  0  0  0  0  0  0
   37.5760   20.7290   34.6770 H   0  0  0  0  0  0  0  0  0  0  0  0
   39.5540   24.8620   31.1530 H   0  0  0  0  0  0  0  0  0  0  0  0
   41.0270   24.6540   32.1030 H   0  0  0  0  0  0  0  0  0  0  0  0
   41.1100   26.8390   31.4940 H   0  0  0  0  0  0  0  0  0  0  0  0
   39.3620   27.0940   31.6100 H   0  0  0  0  0  0  0  0  0  0  0  0
   41.5110   27.2370   33.8020 H   0  0  0  0  0  0  0  0  0  0  0  0
   40.1660   28.3190   33.3840 H   0  0  0  0  0  0  0  0  0  0  0  0
   39.7240   27.0330   35.5080 H   0  0  0  0  0  0  0  0  0  0  0  0
   38.5050   26.7380   34.1630 H   0  0  0  0  0  0  0  0  0  0  0  0
   40.9730   25.0750   34.4720 H   0  0  0  0  0  0  0  0  0  0  0  0
   41.2760   23.0390   35.7020 F   0  0  0  0  0  0  0  0  0  0  0  0
   40.1280   23.4540   36.3320 C   0  0  0  0  0  0  0  0  0  0  0  0
   39.4100   24.4770   35.7000 C   0  0  0  0  0  0  0  0  0  0  0  0
   38.2720   24.8130   36.4240 C   0  0  0  0  0  0  0  0  0  0  0  0
   37.6310   25.6040   36.0450 H   0  0  0  0  0  0  0  0  0  0  0  0
   37.8780   24.2340   37.6110 C   0  0  0  0  0  0  0  0  0  0  0  0
   36.9790   24.5520   38.1140 H   0  0  0  0  0  0  0  0  0  0  0  0
   38.6530   23.2420   38.1400 C   0  0  0  0  0  3  0  0  0  0  0  0
   39.8040   22.8300   37.5040 C   0  0  0  0  0  3  0  0  0  0  0  0
  1  6  1  0  0  0  0
  2  1  2  0  0  0  0
  2  3  1  0  0  0  0
  3  7  1  0  0  0  0
  3  4  2  0  0  0  0
  4  5  1  0  0  0  0
  5 15  1  0  0  0  0
  6  5  2  0  0  0  0
  7 12  1  0  0  0  0
  8  9  1  0  0  0  0
  8  7  1  0  0  0  0
  9 10  1  0  0  0  0
 10 20  1  0  0  0  0
 10 11  1  0  0  0  0
 11 22  1  0  0  0  0
 12 24  1  6  0  0  0
 12 11  1  0  0  0  0
 12 27  1  0  0  0  0
 13  1  1  0  0  0  0
 14  2  1  0  0  0  0
 16  8  1  0  0  0  0
 17  8  1  0  0  0  0
 18  9  1  0  0  0  0
 19  9  1  0  0  0  0
 21 10  1  0  0  0  0
 23 11  1  0  0  0  0
 25 26  1  0  0  0  0
 26 33  1  0  0  0  0
 27 26  2  0  0  0  0
 27 28  1  0  0  0  0
 28 30  2  0  0  0  0
 29 28  1  0  0  0  0
 30 31  1  0  0  0  0
 30 32  1  0  0  0  0
 33 32  2  0  0  0  0
M  END
>  <minimizedAffinity>
-5.10737085

$$$$

 OpenBabel03272505073D

 33 35  0  0  1  0  0  0  0  0999 V2000
   35.4710   23.8450   31.0040 C   0  0  0  0  0  0  0  0  0  0  0  0
   35.4290   25.2280   31.1530 C   0  0  0  0  0  0  0  0  0  0  0  0
   36.5330   25.9110   31.6430 C   0  0  0  0  0  0  0  0  0  0  0  0
   37.6170   25.1760   31.9560 N   0  0  0  0  0  0  0  0  0  0  0  0
   37.6550   23.8450   31.8110 C   0  0  0  0  0  0  0  0  0  0  0  0
   36.5820   23.1580   31.3320 N   0  0  0  0  0  0  0  0  0  0  0  0
   36.6430   27.3010   31.8580 N   0  0  0  0  0  0  0  0  0  0  0  0
   36.2170   28.3050   30.9150 C   0  0  0  0  0  0  0  0  0  0  0  0
   35.4500   29.4470   31.4540 C   0  0  0  0  0  0  0  0  0  0  0  0
   35.8070   29.9240   32.8120 C   0  0  0  0  0  0  0  0  0  0  0  0
   36.0900   28.7570   33.7100 C   0  0  0  0  0  0  0  0  0  0  0  0
   37.1780   27.9290   33.0200 C   0  0  1  0  0  0  0  0  0  0  0  0
   34.5840   23.3540   30.6160 H   0  0  0  0  0  0  0  0  0  0  0  0
   34.5720   25.8400   30.9090 H   0  0  0  0  0  0  0  0  0  0  0  0
   38.5540   23.2760   32.0760 H   0  0  0  0  0  0  0  0  0  0  0  0
   35.6590   27.8590   30.0680 H   0  0  0  0  0  0  0  0  0  0  0  0
   37.1620   28.6980   30.4590 H   0  0  0  0  0  0  0  0  0  0  0  0
   35.5840   30.3030   30.7510 H   0  0  0  0  0  0  0  0  0  0  0  0
   34.3600   29.1970   31.3910 H   0  0  0  0  0  0  0  0  0  0  0  0
   36.6410   30.6490   32.8500 H   0  0  0  0  0  0  0  0  0  0  0  0
   34.9200   30.4480   33.2380 H   0  0  0  0  0  0  0  0  0  0  0  0
   36.3970   29.0520   34.7310 H   0  0  0  0  0  0  0  0  0  0  0  0
   35.1910   28.0920   33.7290 H   0  0  0  0  0  0  0  0  0  0  0  0
   37.9410   28.7230   32.7370 H   0  0  0  0  0  0  0  0  0  0  0  0
   39.9690   27.5190   33.0180 F   0  0  0  0  0  0  0  0  0  0  0  0
   39.2550   26.8690   33.9950 C   0  0  0  0  0  0  0  0  0  0  0  0
   37.8680   27.0640   33.9830 C   0  0  0  0  0  0  0  0  0  0  0  0
   37.2540   26.3610   35.0120 C   0  0  0  0  0  0  0  0  0  0  0  0
   36.1750   26.4370   35.1200 H   0  0  0  0  0  0  0  0  0  0  0  0
   37.8970   25.5680   35.9380 C   0  0  0  0  0  0  0  0  0  0  0  0
   37.3470   25.0540   36.7080 H   0  0  0  0  0  0  0  0  0  0  0  0
   39.2550   25.4460   35.8570 C   0  0  0  0  0  3  0  0  0  0  0  0
   39.9660   26.1010   34.8740 C   0  0  0  0  0  3  0  0  0  0  0  0
  1  2  2  0  0  0  0
  1  6  1  0  0  0  0
  2  3  1  0  0  0  0
  3  7  1  0  0  0  0
  3  4  2  0  0  0  0
  5  4  1  0  0  0  0
  5 15  1  0  0  0  0
  6  5  2  0  0  0  0
  7 12  1  0  0  0  0
  8  9  1  0  0  0  0
  8  7  1  0  0  0  0
  9 10  1  0  0  0  0
 10 20  1  0  0  0  0
 10 21  1  0  0  0  0
 10 11  1  0  0  0  0
 11 23  1  0  0  0  0
 11 22  1  0  0  0  0
 12 24  1  6  0  0  0
 12 11  1  0  0  0  0
 12 27  1  0  0  0  0
 13  1  1  0  0  0  0
 14  2  1  0  0  0  0
 16  8  1  0  0  0  0
 17  8  1  0  0  0  0
 18  9  1  0  0  0  0
 19  9  1  0  0  0  0
 25 26  1  0  0  0  0
 26 33  1  0  0  0  0
 27 26  2  0  0  0  0
 27 28  1  0  0  0  0
 28 29  1  0  0  0  0
 28 30  2  0  0  0  0
 30 31  1  0  0  0  0
 32 30  1  0  0  0  0
 33 32  2  0  0  0  0
M  END
>  <minimizedAffinity>
-5.05740023

$$$$

 OpenBabel03272505073D

 33 35  0  0  1  0  0  0  0  0999 V2000
   36.5550   22.9500   31.4000 C   0  0  0  0  0  0  0  0  0  0  0  0
   37.3770   23.5730   32.3340 C   0  0  0  0  0  0  0  0  0  0  0  0
   37.1670   24.9020   32.6710 C   0  0  0  0  0  0  0  0  0  0  0  0
   36.1490   25.5350   32.0590 N   0  0  0  0  0  0  0  0  0  0  0  0
   35.3600   24.9340   31.1600 C   0  0  0  0  0  0  0  0  0  0  0  0
   35.5500   23.6310   30.8160 N   0  0  0  0  0  0  0  0  0  0  0  0
   37.9140   25.6710   33.5890 N   0  0  0  0  0  0  0  0  0  0  0  0
   38.3110   25.2150   34.8980 C   0  0  0  0  0  0  0  0  0  0  0  0
   39.7060   25.4800   35.3050 C   0  0  0  0  0  0  0  0  0  0  0  0
   40.3250   26.7400   34.8280 C   0  0  0  0  0  0  0  0  0  0  0  0
   39.9250   27.0050   33.4070 C   0  0  0  0  0  0  0  0  0  0  0  0
   38.3940   26.9960   33.3760 C   0  0  1  0  0  0  0  0  0  0  0  0
   36.7550   21.9090   31.1680 H   0  0  0  0  0  0  0  0  0  0  0  0
   38.1990   23.0860   32.8400 H   0  0  0  0  0  0  0  0  0  0  0  0
   34.5390   25.4790   30.6780 H   0  0  0  0  0  0  0  0  0  0  0  0
   38.0870   24.1390   35.0410 H   0  0  0  0  0  0  0  0  0  0  0  0
   37.6280   25.7450   35.6110 H   0  0  0  0  0  0  0  0  0  0  0  0
   39.7340   25.4930   36.4210 H   0  0  0  0  0  0  0  0  0  0  0  0
   40.3280   24.5940   35.0160 H   0  0  0  0  0  0  0  0  0  0  0  0
   40.1230   27.6280   35.4550 H   0  0  0  0  0  0  0  0  0  0  0  0
   41.4310   26.6040   34.8290 H   0  0  0  0  0  0  0  0  0  0  0  0
   40.3290   27.9530   33.0060 H   0  0  0  0  0  0  0  0  0  0  0  0
   40.2310   26.1310   32.7790 H   0  0  0  0  0  0  0  0  0  0  0  0
   38.1310   27.6680   34.2540 H   0  0  0  0  0  0  0  0  0  0  0  0
   39.4290   26.6120   30.7800 F   0  0  0  0  0  0  0  0  0  0  0  0
   38.3910   27.5040   30.9000 C   0  0  0  0  0  0  0  0  0  0  0  0
   37.8900   27.7010   32.1920 C   0  0  0  0  0  0  0  0  0  0  0  0
   36.8470   28.6200   32.1910 C   0  0  0  0  0  0  0  0  0  0  0  0
   36.3620   28.8550   33.1340 H   0  0  0  0  0  0  0  0  0  0  0  0
   36.3500   29.2670   31.0800 C   0  0  0  0  0  0  0  0  0  0  0  0
   35.5360   29.9690   31.1630 H   0  0  0  0  0  0  0  0  0  0  0  0
   36.9150   29.0010   29.8660 C   0  0  0  0  0  3  0  0  0  0  0  0
   37.9560   28.1050   29.7520 C   0  0  0  0  0  3  0  0  0  0  0  0
  1  2  1  0  0  0  0
  2  3  2  0  0  0  0
  2 14  1  0  0  0  0
  3  7  1  0  0  0  0
  4  3  1  0  0  0  0
  5  4  2  0  0  0  0
  6  5  1  0  0  0  0
  6  1  2  0  0  0  0
  7  8  1  0  0  0  0
  8 16  1  0  0  0  0
  8  9  1  0  0  0  0
  8 17  1  0  0  0  0
  9 18  1  0  0  0  0
 10 21  1  0  0  0  0
 10  9  1  0  0  0  0
 10 20  1  0  0  0  0
 11 10  1  0  0  0  0
 12 11  1  0  0  0  0
 12  7  1  0  0  0  0
 12 24  1  1  0  0  0
 13  1  1  0  0  0  0
 15  5  1  0  0  0  0
 19  9  1  0  0  0  0
 22 11  1  0  0  0  0
 23 11  1  0  0  0  0
 25 26  1  0  0  0  0
 26 27  1  0  0  0  0
 27 12  1  0  0  0  0
 28 27  2  0  0  0  0
 28 29  1  0  0  0  0
 30 31  1  0  0  0  0
 30 28  1  0  0  0  0
 32 30  2  0  0  0  0
 33 32  1  0  0  0  0
 33 26  2  0  0  0  0
M  END
>  <minimizedAffinity>
-4.98224497

$$$$

 OpenBabel03272505073D

 33 35  0  0  1  0  0  0  0  0999 V2000
   38.6470   27.0360   36.0490 C   0  0  0  0  0  0  0  0  0  0  0  0
   37.9070   27.8410   35.1890 C   0  0  0  0  0  0  0  0  0  0  0  0
   37.1550   27.2690   34.1730 C   0  0  0  0  0  0  0  0  0  0  0  0
   37.1840   25.9270   34.0710 N   0  0  0  0  0  0  0  0  0  0  0  0
   37.8980   25.1550   34.9000 C   0  0  0  0  0  0  0  0  0  0  0  0
   38.6410   25.6970   35.9030 N   0  0  0  0  0  0  0  0  0  0  0  0
   36.3630   27.9460   33.2220 N   0  0  0  0  0  0  0  0  0  0  0  0
   35.4500   29.0170   33.5390 C   0  0  0  0  0  0  0  0  0  0  0  0
   35.4770   30.2020   32.6580 C   0  0  0  0  0  0  0  0  0  0  0  0
   35.7540   29.9740   31.2190 C   0  0  0  0  0  0  0  0  0  0  0  0
   36.8210   28.9320   31.0590 C   0  0  0  0  0  0  0  0  0  0  0  0
   36.3390   27.6930   31.8200 C   0  0  1  0  0  0  0  0  0  0  0  0
   39.2190   27.5270   36.8300 H   0  0  0  0  0  0  0  0  0  0  0  0
   37.8670   28.9200   35.2510 H   0  0  0  0  0  0  0  0  0  0  0  0
   37.9000   24.0640   34.7890 H   0  0  0  0  0  0  0  0  0  0  0  0
   35.5530   29.3420   34.5920 H   0  0  0  0  0  0  0  0  0  0  0  0
   34.4300   28.5570   33.4800 H   0  0  0  0  0  0  0  0  0  0  0  0
   34.4810   30.7000   32.7330 H   0  0  0  0  0  0  0  0  0  0  0  0
   36.1970   30.9430   33.0920 H   0  0  0  0  0  0  0  0  0  0  0  0
   34.8710   29.7160   30.6070 H   0  0  0  0  0  0  0  0  0  0  0  0
   36.1640   30.9190   30.7920 H   0  0  0  0  0  0  0  0  0  0  0  0
   37.0480   28.6920   30.0040 H   0  0  0  0  0  0  0  0  0  0  0  0
   37.7370   29.2680   31.6080 H   0  0  0  0  0  0  0  0  0  0  0  0
   35.2710   27.5830   31.4460 H   0  0  0  0  0  0  0  0  0  0  0  0
   35.0800   25.1830   31.5460 F   0  0  0  0  0  0  0  0  0  0  0  0
   36.4080   25.2440   31.2000 C   0  0  0  0  0  0  0  0  0  0  0  0
   37.0320   26.4880   31.3510 C   0  0  0  0  0  0  0  0  0  0  0  0
   38.3680   26.4290   30.9720 C   0  0  0  0  0  0  0  0  0  0  0  0
   38.9640   27.3350   31.0320 H   0  0  0  0  0  0  0  0  0  0  0  0
   39.0200   25.3080   30.5060 C   0  0  0  0  0  0  0  0  0  0  0  0
   40.0620   25.3440   30.2310 H   0  0  0  0  0  0  0  0  0  0  0  0
   38.3150   24.1430   30.3990 C   0  0  0  0  0  3  0  0  0  0  0  0
   36.9830   24.0900   30.7470 C   0  0  0  0  0  3  0  0  0  0  0  0
  1 13  1  0  0  0  0
  2 14  1  0  0  0  0
  2  1  2  0  0  0  0
  3  2  1  0  0  0  0
  4  3  2  0  0  0  0
  4  5  1  0  0  0  0
  5  6  2  0  0  0  0
  6  1  1  0  0  0  0
  7  8  1  0  0  0  0
  7  3  1  0  0  0  0
  8 16  1  0  0  0  0
  9 18  1  0  0  0  0
  9 19  1  0  0  0  0
  9  8  1  0  0  0  0
 10  9  1  0  0  0  0
 11 10  1  0  0  0  0
 11 23  1  0  0  0  0
 11 12  1  0  0  0  0
 12 24  1  6  0  0  0
 12  7  1  0  0  0  0
 15  5  1  0  0  0  0
 17  8  1  0  0  0  0
 20 10  1  0  0  0  0
 21 10  1  0  0  0  0
 22 11  1  0  0  0  0
 26 27  1  0  0  0  0
 26 25  1  0  0  0  0
 27 12  1  0  0  0  0
 28 29  1  0  0  0  0
 28 27  2  0  0  0  0
 30 28  1  0  0  0  0
 31 30  1  0  0  0  0
 32 30  2  0  0  0  0
 32 33  1  0  0  0  0
 33 26  2  0  0  0  0
M  END
>  <minimizedAffinity>
-4.98195601

$$$$

 OpenBabel03272505073D

 33 35  0  0  1  0  0  0  0  0999 V2000
   42.7130   26.5120   34.1370 C   0  0  0  0  0  0  0  0  0  0  0  0
   41.9650   25.6420   34.9250 C   0  0  0  0  0  0  0  0  0  0  0  0
   40.6830   25.2790   34.5390 C   0  0  0  0  0  0  0  0  0  0  0  0
   40.2190   25.8020   33.3890 N   0  0  0  0  0  0  0  0  0  0  0  0
   40.9410   26.6390   32.6320 C   0  0  0  0  0  0  0  0  0  0  0  0
   42.2000   27.0070   32.9940 N   0  0  0  0  0  0  0  0  0  0  0  0
   39.8030   24.4190   35.2290 N   0  0  0  0  0  0  0  0  0  0  0  0
   40.1850   23.1500   35.7970 C   0  0  0  0  0  0  0  0  0  0  0  0
   39.7040   22.8550   37.1620 C   0  0  0  0  0  0  0  0  0  0  0  0
   38.3640   23.3710   37.5360 C   0  0  0  0  0  0  0  0  0  0  0  0
   38.1720   24.7520   36.9860 C   0  0  0  0  0  0  0  0  0  0  0  0
   38.4210   24.6600   35.4770 C   0  0  1  0  0  0  0  0  0  0  0  0
   43.7110   26.7670   34.4780 H   0  0  0  0  0  0  0  0  0  0  0  0
   42.3160   25.2090   35.8520 H   0  0  0  0  0  0  0  0  0  0  0  0
   40.5330   27.0480   31.7000 H   0  0  0  0  0  0  0  0  0  0  0  0
   41.2810   22.9980   35.7560 H   0  0  0  0  0  0  0  0  0  0  0  0
   39.7640   22.3790   35.1000 H   0  0  0  0  0  0  0  0  0  0  0  0
   39.6810   21.7450   37.2780 H   0  0  0  0  0  0  0  0  0  0  0  0
   40.4830   23.2000   37.8890 H   0  0  0  0  0  0  0  0  0  0  0  0
   37.5160   22.7230   37.2500 H   0  0  0  0  0  0  0  0  0  0  0  0
   38.3270   23.4610   38.6470 H   0  0  0  0  0  0  0  0  0  0  0  0
   37.1750   25.1780   37.2030 H   0  0  0  0  0  0  0  0  0  0  0  0
   38.9910   25.4110   37.3720 H   0  0  0  0  0  0  0  0  0  0  0  0
   37.7930   23.7590   35.1860 H   0  0  0  0  0  0  0  0  0  0  0  0
   37.3600   24.4830   32.8690 F   0  0  0  0  0  0  0  0  0  0  0  0
   37.2670   25.7070   33.4860 C   0  0  0  0  0  0  0  0  0  0  0  0
   37.8080   25.7930   34.7750 C   0  0  0  0  0  0  0  0  0  0  0  0
   37.6570   27.0720   35.2980 C   0  0  0  0  0  0  0  0  0  0  0  0
   38.0270   27.2700   36.3000 H   0  0  0  0  0  0  0  0  0  0  0  0
   37.0600   28.1360   34.6560 C   0  0  0  0  0  0  0  0  0  0  0  0
   36.9820   29.1000   35.1300 H   0  0  0  0  0  0  0  0  0  0  0  0
   36.5660   27.9410   33.3970 C   0  0  0  0  0  3  0  0  0  0  0  0
   36.6610   26.7100   32.7840 C   0  0  0  0  0  3  0  0  0  0  0  0
  1 13  1  0  0  0  0
  1  2  1  0  0  0  0
  2 14  1  0  0  0  0
  3  2  2  0  0  0  0
  3  7  1  0  0  0  0
  4  3  1  0  0  0  0
  5  6  1  0  0  0  0
  5  4  2  0  0  0  0
  6  1  2  0  0  0  0
  7 12  1  0  0  0  0
  7  8  1  0  0  0  0
  8  9  1  0  0  0  0
  9 18  1  0  0  0  0
  9 10  1  0  0  0  0
  9 19  1  0  0  0  0
 10 21  1  0  0  0  0
 11 22  1  0  0  0  0
 11 23  1  0  0  0  0
 11 10  1  0  0  0  0
 12 24  1  6  0  0  0
 12 11  1  0  0  0  0
 15  5  1  0  0  0  0
 16  8  1  0  0  0  0
 17  8  1  0  0  0  0
 20 10  1  0  0  0  0
 25 26  1  0  0  0  0
 26 27  1  0  0  0  0
 27 28  2  0  0  0  0
 27 12  1  0  0  0  0
 28 29  1  0  0  0  0
 30 31  1  0  0  0  0
 30 28  1  0  0  0  0
 32 30  2  0  0  0  0
 33 32  1  0  0  0  0
 33 26  2  0  0  0  0
M  END
>  <minimizedAffinity>
-4.91633749

$$$$

 OpenBabel03272505073D

 33 35  0  0  1  0  0  0  0  0999 V2000
   36.6510   22.8610   31.3990 C   0  0  0  0  0  0  0  0  0  0  0  0
   37.3070   23.9000   30.7470 C   0  0  0  0  0  0  0  0  0  0  0  0
   38.2300   24.6790   31.4310 C   0  0  0  0  0  0  0  0  0  0  0  0
   38.4470   24.3760   32.7240 N   0  0  0  0  0  0  0  0  0  0  0  0
   37.8130   23.3750   33.3490 C   0  0  0  0  0  0  0  0  0  0  0  0
   36.9050   22.6010   32.6960 N   0  0  0  0  0  0  0  0  0  0  0  0
   38.9680   25.7660   30.9160 N   0  0  0  0  0  0  0  0  0  0  0  0
   39.6490   25.7560   29.6440 C   0  0  0  0  0  0  0  0  0  0  0  0
   39.4870   26.9510   28.7900 C   0  0  0  0  0  0  0  0  0  0  0  0
   39.3760   28.2630   29.4710 C   0  0  0  0  0  0  0  0  0  0  0  0
   38.5270   28.1350   30.7000 C   0  0  0  0  0  0  0  0  0  0  0  0
   39.1540   27.0270   31.5510 C   0  0  1  0  0  0  0  0  0  0  0  0
   35.9380   22.2780   30.8240 H   0  0  0  0  0  0  0  0  0  0  0  0
   37.1510   24.1620   29.7100 H   0  0  0  0  0  0  0  0  0  0  0  0
   38.0130   23.1560   34.4050 H   0  0  0  0  0  0  0  0  0  0  0  0
   39.4010   24.8510   29.0560 H   0  0  0  0  0  0  0  0  0  0  0  0
   40.7350   25.6470   29.8950 H   0  0  0  0  0  0  0  0  0  0  0  0
   40.3700   26.9990   28.1090 H   0  0  0  0  0  0  0  0  0  0  0  0
   38.6140   26.7780   28.1090 H   0  0  0  0  0  0  0  0  0  0  0  0
   40.3390   28.7460   29.7190 H   0  0  0  0  0  0  0  0  0  0  0  0
   38.8440   28.9640   28.7860 H   0  0  0  0  0  0  0  0  0  0  0  0
   38.4360   29.0770   31.2730 H   0  0  0  0  0  0  0  0  0  0  0  0
   37.5240   27.7380   30.4050 H   0  0  0  0  0  0  0  0  0  0  0  0
   40.2530   27.3210   31.5560 H   0  0  0  0  0  0  0  0  0  0  0  0
   40.9110   26.7410   33.7410 F   0  0  0  0  0  0  0  0  0  0  0  0
   39.5960   27.0080   34.0400 C   0  0  0  0  0  0  0  0  0  0  0  0
   38.7260   27.1350   32.9500 C   0  0  0  0  0  0  0  0  0  0  0  0
   37.4290   27.4030   33.3730 C   0  0  0  0  0  0  0  0  0  0  0  0
   36.6560   27.5350   32.6210 H   0  0  0  0  0  0  0  0  0  0  0  0
   37.0240   27.5320   34.6830 C   0  0  0  0  0  0  0  0  0  0  0  0
   35.9950   27.7410   34.9300 H   0  0  0  0  0  0  0  0  0  0  0  0
   37.9570   27.3870   35.6700 C   0  0  0  0  0  3  0  0  0  0  0  0
   39.2740   27.1210   35.3630 C   0  0  0  0  0  3  0  0  0  0  0  0
  1  6  1  0  0  0  0
  2  1  2  0  0  0  0
  2  3  1  0  0  0  0
  3  4  2  0  0  0  0
  4  5  1  0  0  0  0
  5 15  1  0  0  0  0
  6  5  2  0  0  0  0
  7  3  1  0  0  0  0
  7 12  1  0  0  0  0
  8 17  1  0  0  0  0
  8  7  1  0  0  0  0
  9 10  1  0  0  0  0
  9  8  1  0  0  0  0
 10 20  1  0  0  0  0
 10 11  1  0  0  0  0
 11 22  1  0  0  0  0
 11 12  1  0  0  0  0
 12 24  1  6  0  0  0
 12 27  1  0  0  0  0
 13  1  1  0  0  0  0
 14  2  1  0  0  0  0
 16  8  1  0  0  0  0
 18  9  1  0  0  0  0
 19  9  1  0  0  0  0
 21 10  1  0  0  0  0
 23 11  1  0  0  0  0
 25 26  1  0  0  0  0
 26 33  1  0  0  0  0
 27 28  1  0  0  0  0
 27 26  2  0  0  0  0
 28 30  2  0  0  0  0
 29 28  1  0  0  0  0
 30 31  1  0  0  0  0
 30 32  1  0  0  0  0
 33 32  2  0  0  0  0
M  END
>  <minimizedAffinity>
-4.8771677

$$$$

 OpenBabel03272505073D

 33 35  0  0  1  0  0  0  0  0999 V2000
   31.0200   28.2920   35.2660 C   0  0  0  0  0  0  0  0  0  0  0  0
   31.7910   29.3640   35.7050 C   0  0  0  0  0  0  0  0  0  0  0  0
   32.5880   30.0630   34.8090 C   0  0  0  0  0  0  0  0  0  0  0  0
   32.5710   29.6530   33.5270 N   0  0  0  0  0  0  0  0  0  0  0  0
   31.8280   28.6210   33.1080 C   0  0  0  0  0  0  0  0  0  0  0  0
   31.0400   27.9240   33.9710 N   0  0  0  0  0  0  0  0  0  0  0  0
   33.4260   31.1600   35.0990 N   0  0  0  0  0  0  0  0  0  0  0  0
   33.0370   32.2880   35.9090 C   0  0  0  0  0  0  0  0  0  0  0  0
   34.0100   32.7540   36.9180 C   0  0  0  0  0  0  0  0  0  0  0  0
   35.4490   32.6520   36.5720 C   0  0  0  0  0  0  0  0  0  0  0  0
   35.7160   31.3640   35.8540 C   0  0  0  0  0  0  0  0  0  0  0  0
   34.7680   31.3300   34.6510 C   0  0  1  0  0  0  0  0  0  0  0  0
   30.4120   27.7760   36.0020 H   0  0  0  0  0  0  0  0  0  0  0  0
   31.8210   29.7120   36.7280 H   0  0  0  0  0  0  0  0  0  0  0  0
   31.8370   28.3120   32.0550 H   0  0  0  0  0  0  0  0  0  0  0  0
   32.0570   32.1210   36.3980 H   0  0  0  0  0  0  0  0  0  0  0  0
   32.8560   33.1220   35.1830 H   0  0  0  0  0  0  0  0  0  0  0  0
   33.7900   33.8280   37.1270 H   0  0  0  0  0  0  0  0  0  0  0  0
   33.7920   32.2270   37.8830 H   0  0  0  0  0  0  0  0  0  0  0  0
   35.8540   33.5040   35.9960 H   0  0  0  0  0  0  0  0  0  0  0  0
   36.0310   32.6150   37.5230 H   0  0  0  0  0  0  0  0  0  0  0  0
   36.7690   31.2460   35.5370 H   0  0  0  0  0  0  0  0  0  0  0  0
   35.3870   30.5140   36.5040 H   0  0  0  0  0  0  0  0  0  0  0  0
   34.9170   32.3620   34.1990 H   0  0  0  0  0  0  0  0  0  0  0  0
   34.7200   31.8860   31.8860 F   0  0  0  0  0  0  0  0  0  0  0  0
   35.2410   30.6700   32.2580 C   0  0  0  0  0  0  0  0  0  0  0  0
   35.2500   30.3930   33.6300 C   0  0  0  0  0  0  0  0  0  0  0  0
   35.7980   29.1420   33.8860 C   0  0  0  0  0  0  0  0  0  0  0  0
   35.8720   28.8090   34.9180 H   0  0  0  0  0  0  0  0  0  0  0  0
   36.2770   28.2670   32.9350 C   0  0  0  0  0  0  0  0  0  0  0  0
   36.6880   27.3110   33.2160 H   0  0  0  0  0  0  0  0  0  0  0  0
   36.2190   28.6380   31.6220 C   0  0  0  0  0  3  0  0  0  0  0  0
   35.6960   29.8590   31.2560 C   0  0  0  0  0  3  0  0  0  0  0  0
  1  2  1  0  0  0  0
  1 13  1  0  0  0  0
  2 14  1  0  0  0  0
  3  7  1  0  0  0  0
  3  2  2  0  0  0  0
  4  3  1  0  0  0  0
  5  4  2  0  0  0  0
  5  6  1  0  0  0  0
  6  1  2  0  0  0  0
  7  8  1  0  0  0  0
  8 16  1  0  0  0  0
  8  9  1  0  0  0  0
  9 18  1  0  0  0  0
  9 19  1  0  0  0  0
 10  9  1  0  0  0  0
 10 21  1  0  0  0  0
 11 23  1  0  0  0  0
 11 10  1  0  0  0  0
 12 24  1  6  0  0  0
 12  7  1  0  0  0  0
 12 11  1  0  0  0  0
 15  5  1  0  0  0  0
 17  8  1  0  0  0  0
 20 10  1  0  0  0  0
 22 11  1  0  0  0  0
 25 26  1  0  0  0  0
 26 27  1  0  0  0  0
 27 28  2  0  0  0  0
 27 12  1  0  0  0  0
 28 29  1  0  0  0  0
 30 31  1  0  0  0  0
 30 28  1  0  0  0  0
 32 30  2  0  0  0  0
 33 32  1  0  0  0  0
 33 26  2  0  0  0  0
M  END
>  <minimizedAffinity>
-4.86375475

$$$$

 OpenBabel03272505073D

 33 35  0  0  1  0  0  0  0  0999 V2000
   37.2390   21.5620   32.5900 C   0  0  0  0  0  0  0  0  0  0  0  0
   37.2680   22.8890   33.0100 C   0  0  0  0  0  0  0  0  0  0  0  0
   38.4610   23.4610   33.4300 C   0  0  0  0  0  0  0  0  0  0  0  0
   39.5560   22.6790   33.4060 N   0  0  0  0  0  0  0  0  0  0  0  0
   39.5240   21.4020   33.0020 C   0  0  0  0  0  0  0  0  0  0  0  0
   38.3650   20.8240   32.5870 N   0  0  0  0  0  0  0  0  0  0  0  0
   38.6510   24.7810   33.8880 N   0  0  0  0  0  0  0  0  0  0  0  0
   38.1080   25.9520   33.2430 C   0  0  0  0  0  0  0  0  0  0  0  0
   37.4800   26.9660   34.1150 C   0  0  0  0  0  0  0  0  0  0  0  0
   38.0720   27.1660   35.4590 C   0  0  0  0  0  0  0  0  0  0  0  0
   38.4610   25.8450   36.0530 C   0  0  0  0  0  0  0  0  0  0  0  0
   39.3910   25.1690   35.0420 C   0  0  1  0  0  0  0  0  0  0  0  0
   36.2840   21.1570   32.2700 H   0  0  0  0  0  0  0  0  0  0  0  0
   36.4030   23.5370   33.0370 H   0  0  0  0  0  0  0  0  0  0  0  0
   40.4360   20.7920   32.9960 H   0  0  0  0  0  0  0  0  0  0  0  0
   37.4040   25.6810   32.4320 H   0  0  0  0  0  0  0  0  0  0  0  0
   38.9780   26.4270   32.7190 H   0  0  0  0  0  0  0  0  0  0  0  0
   37.5250   27.9440   33.5790 H   0  0  0  0  0  0  0  0  0  0  0  0
   36.3870   26.7330   34.1890 H   0  0  0  0  0  0  0  0  0  0  0  0
   38.9250   27.8690   35.4960 H   0  0  0  0  0  0  0  0  0  0  0  0
   37.2860   27.5960   36.1230 H   0  0  0  0  0  0  0  0  0  0  0  0
   38.9420   25.9330   37.0450 H   0  0  0  0  0  0  0  0  0  0  0  0
   37.5550   25.1890   36.0950 H   0  0  0  0  0  0  0  0  0  0  0  0
   40.1230   26.0030   34.7940 H   0  0  0  0  0  0  0  0  0  0  0  0
   38.3190   23.2040   36.7600 F   0  0  0  0  0  0  0  0  0  0  0  0
   39.6730   23.1460   36.5310 C   0  0  0  0  0  0  0  0  0  0  0  0
   40.2020   24.1310   35.6890 C   0  0  0  0  0  0  0  0  0  0  0  0
   41.5740   23.9720   35.5310 C   0  0  0  0  0  0  0  0  0  0  0  0
   42.1060   24.6700   34.8900 H   0  0  0  0  0  0  0  0  0  0  0  0
   42.3390   22.9850   36.1140 C   0  0  0  0  0  0  0  0  0  0  0  0
   43.4010   22.9300   35.9410 H   0  0  0  0  0  0  0  0  0  0  0  0
   41.7200   22.0740   36.9200 C   0  0  0  0  0  3  0  0  0  0  0  0
   40.3610   22.1380   37.1450 C   0  0  0  0  0  3  0  0  0  0  0  0
  1  2  1  0  0  0  0
  2 14  1  0  0  0  0
  2  3  2  0  0  0  0
  3  7  1  0  0  0  0
  4  3  1  0  0  0  0
  5  4  2  0  0  0  0
  6  1  2  0  0  0  0
  6  5  1  0  0  0  0
  7 12  1  0  0  0  0
  8  7  1  0  0  0  0
  8  9  1  0  0  0  0
  9 19  1  0  0  0  0
  9 10  1  0  0  0  0
 10 20  1  0  0  0  0
 10 11  1  0  0  0  0
 10 21  1  0  0  0  0
 11 23  1  0  0  0  0
 11 22  1  0  0  0  0
 12 24  1  6  0  0  0
 12 27  1  0  0  0  0
 12 11  1  0  0  0  0
 13  1  1  0  0  0  0
 15  5  1  0  0  0  0
 16  8  1  0  0  0  0
 17  8  1  0  0  0  0
 18  9  1  0  0  0  0
 26 25  1  0  0  0  0
 26 33  1  0  0  0  0
 27 26  2  0  0  0  0
 28 27  1  0  0  0  0
 28 30  2  0  0  0  0
 29 28  1  0  0  0  0
 30 32  1  0  0  0  0
 31 30  1  0  0  0  0
 32 33  2  0  0  0  0
M  END
>  <minimizedAffinity>
-4.8436656

$$$$
