
 OpenBabel03272502163D

 32 34  0  0  1  0  0  0  0  0999 V2000
   39.1540   24.8810   33.5990 N   0  0  0  0  0  0  0  0  0  0  0  0
   38.5110   25.7510   32.6360 C   0  0  2  0  0  0  0  0  0  0  0  0
   38.3820   27.1320   33.2380 C   0  0  0  0  0  0  0  0  0  0  0  0
   39.2440   27.2830   34.3510 O   0  0  0  0  0  0  0  0  0  0  0  0
   38.6740   26.4560   35.3490 C   0  0  0  0  0  0  0  0  0  0  0  0
   38.4930   25.0280   34.8600 C   0  0  2  0  0  0  0  0  0  0  0  0
   39.0600   23.8840   33.2960 H   0  0  0  0  0  0  0  0  0  0  0  0
   39.1860   25.7440   31.7370 H   0  0  0  0  0  0  0  0  0  0  0  0
   37.3480   27.4270   33.4690 H   0  0  0  0  0  0  0  0  0  0  0  0
   38.7650   27.8410   32.4620 H   0  0  0  0  0  0  0  0  0  0  0  0
   37.6590   26.8840   35.5350 H   0  0  0  0  0  0  0  0  0  0  0  0
   39.2230   26.5190   36.3040 H   0  0  0  0  0  0  0  0  0  0  0  0
   37.4290   24.7290   34.8520 H   0  0  0  0  0  0  0  0  0  0  0  0
   37.3330   24.2410   37.3330 F   0  0  0  0  0  0  0  0  0  0  0  0
   38.5780   23.8150   37.0150 C   0  0  0  0  0  0  0  0  0  0  0  0
   39.1940   24.1570   35.8430 C   0  0  0  0  0  0  0  0  0  0  0  0
   40.4780   23.6790   35.5870 C   0  0  0  0  0  0  0  0  0  0  0  0
   40.9860   23.9470   34.6480 H   0  0  0  0  0  0  0  0  0  0  0  0
   41.1180   22.8720   36.5070 C   0  0  0  0  0  0  0  0  0  0  0  0
   42.1190   22.4760   36.3500 H   0  0  0  0  0  0  0  0  0  0  0  0
   40.4860   22.5240   37.7050 C   0  0  0  0  0  3  0  0  0  0  0  0
   39.2100   23.0120   37.9350 C   0  0  0  0  0  3  0  0  0  0  0  0
   36.8570   25.1250   32.2190 S   0  0  0  0  0  0  0  0  0  0  0  0
   36.9100   23.4410   31.6860 C   0  0  0  0  0  0  0  0  0  0  0  0
   35.6430   22.8530   31.5880 C   0  0  0  0  0  0  0  0  0  0  0  0
   35.5370   21.5280   31.1790 C   0  0  0  0  0  0  0  0  0  0  0  0
   36.7000   20.8570   30.8910 N   0  0  0  0  0  0  0  0  0  0  0  0
   37.8990   21.4410   30.9930 C   0  0  0  0  0  0  0  0  0  0  0  0
   37.9930   22.7140   31.3860 N   0  0  0  0  0  0  0  0  0  0  0  0
   34.6820   23.3370   31.8040 H   0  0  0  0  0  0  0  0  0  0  0  0
   34.5810   21.0260   31.0860 H   0  0  0  0  0  0  0  0  0  0  0  0
   38.8310   20.9360   30.7710 H   0  0  0  0  0  0  0  0  0  0  0  0
  1  6  1  0  0  0  0
  2  8  1  6  0  0  0
  2  3  1  0  0  0  0
  2  1  1  0  0  0  0
  3  9  1  0  0  0  0
  3  4  1  0  0  0  0
  4  5  1  0  0  0  0
  5 11  1  0  0  0  0
  5 12  1  0  0  0  0
  6 13  1  6  0  0  0
  6  5  1  0  0  0  0
  6 16  1  0  0  0  0
  7  1  1  0  0  0  0
 10  3  1  0  0  0  0
 15 14  1  0  0  0  0
 15 22  1  0  0  0  0
 16 15  2  0  0  0  0
 17 16  1  0  0  0  0
 17 19  2  0  0  0  0
 18 17  1  0  0  0  0
 19 21  1  0  0  0  0
 20 19  1  0  0  0  0
 21 22  2  0  0  0  0
 23  2  1  0  0  0  0
 24 23  1  0  0  0  0
 25 24  1  0  0  0  0
 25 30  1  0  0  0  0
 26 25  2  0  0  0  0
 27 28  2  0  0  0  0
 27 26  1  0  0  0  0
 28 29  1  0  0  0  0
 29 24  2  0  0  0  0
 31 26  1  0  0  0  0
 32 28  1  0  0  0  0
M  END
>  <minimizedAffinity>
-5.00858212

$$$$

 OpenBabel03272502163D

 32 34  0  0  1  0  0  0  0  0999 V2000
   37.2850   23.4200   33.1000 N   0  0  0  0  0  0  0  0  0  0  0  0
   38.1680   24.5680   33.1160 C   0  0  2  0  0  0  0  0  0  0  0  0
   38.4350   24.9970   31.6910 C   0  0  0  0  0  0  0  0  0  0  0  0
   37.4770   24.4440   30.8070 O   0  0  0  0  0  0  0  0  0  0  0  0
   37.7860   23.0620   30.7770 C   0  0  0  0  0  0  0  0  0  0  0  0
   37.8020   22.4600   32.1720 C   0  0  2  0  0  0  0  0  0  0  0  0
   37.2590   22.9770   34.0470 H   0  0  0  0  0  0  0  0  0  0  0  0
   37.6150   25.3560   33.6970 H   0  0  0  0  0  0  0  0  0  0  0  0
   39.4670   24.8180   31.3530 H   0  0  0  0  0  0  0  0  0  0  0  0
   38.2650   26.1020   31.6670 H   0  0  0  0  0  0  0  0  0  0  0  0
   38.8250   23.0070   30.3690 H   0  0  0  0  0  0  0  0  0  0  0  0
   37.1410   22.5080   30.0740 H   0  0  0  0  0  0  0  0  0  0  0  0
   38.8000   22.0640   32.4380 H   0  0  0  0  0  0  0  0  0  0  0  0
   34.9820   22.7720   32.0150 F   0  0  0  0  0  0  0  0  0  0  0  0
   35.5130   21.5290   32.0650 C   0  0  0  0  0  0  0  0  0  0  0  0
   36.8600   21.3080   32.1410 C   0  0  0  0  0  0  0  0  0  0  0  0
   37.3310   19.9960   32.1890 C   0  0  0  0  0  0  0  0  0  0  0  0
   38.4130   19.8050   32.2500 H   0  0  0  0  0  0  0  0  0  0  0  0
   36.4460   18.9370   32.1590 C   0  0  0  0  0  0  0  0  0  0  0  0
   36.7670   17.8980   32.1940 H   0  0  0  0  0  0  0  0  0  0  0  0
   35.0680   19.1650   32.0810 C   0  0  0  0  0  3  0  0  0  0  0  0
   34.6270   20.4770   32.0360 C   0  0  0  0  0  3  0  0  0  0  0  0
   39.7430   24.1470   33.9180 S   0  0  0  0  0  0  0  0  0  0  0  0
   39.5210   23.7370   35.6230 C   0  0  0  0  0  0  0  0  0  0  0  0
   38.4300   24.3890   36.2100 C   0  0  0  0  0  0  0  0  0  0  0  0
   38.1390   24.1580   37.5500 C   0  0  0  0  0  0  0  0  0  0  0  0
   38.9520   23.2890   38.2360 N   0  0  0  0  0  0  0  0  0  0  0  0
   39.9890   22.6790   37.6530 C   0  0  0  0  0  0  0  0  0  0  0  0
   40.2620   22.9050   36.3640 N   0  0  0  0  0  0  0  0  0  0  0  0
   37.7480   25.0920   35.7140 H   0  0  0  0  0  0  0  0  0  0  0  0
   37.3070   24.6370   38.0520 H   0  0  0  0  0  0  0  0  0  0  0  0
   40.6440   21.9890   38.1690 H   0  0  0  0  0  0  0  0  0  0  0  0
  1  2  1  0  0  0  0
  1  7  1  0  0  0  0
  2  8  1  1  0  0  0
  2 23  1  0  0  0  0
  3  2  1  0  0  0  0
  4  3  1  0  0  0  0
  5  4  1  0  0  0  0
  5  6  1  0  0  0  0
  6 13  1  1  0  0  0
  6  1  1  0  0  0  0
  9  3  1  0  0  0  0
 10  3  1  0  0  0  0
 11  5  1  0  0  0  0
 12  5  1  0  0  0  0
 14 15  1  0  0  0  0
 15 16  1  0  0  0  0
 16  6  1  0  0  0  0
 16 17  2  0  0  0  0
 17 18  1  0  0  0  0
 19 17  1  0  0  0  0
 19 20  1  0  0  0  0
 21 19  2  0  0  0  0
 22 15  2  0  0  0  0
 22 21  1  0  0  0  0
 23 24  1  0  0  0  0
 24 25  2  0  0  0  0
 24 29  1  0  0  0  0
 25 26  1  0  0  0  0
 26 31  1  0  0  0  0
 26 27  2  0  0  0  0
 28 32  1  0  0  0  0
 28 27  1  0  0  0  0
 29 28  2  0  0  0  0
 30 25  1  0  0  0  0
M  END
>  <minimizedAffinity>
-4.95804214

$$$$

 OpenBabel03272502163D

 32 34  0  0  1  0  0  0  0  0999 V2000
   37.4340   24.5000   33.1190 N   0  0  0  0  0  0  0  0  0  0  0  0
   38.4150   25.5650   33.0690 C   0  0  2  0  0  0  0  0  0  0  0  0
   38.9370   25.6780   31.6540 C   0  0  0  0  0  0  0  0  0  0  0  0
   38.0730   25.0280   30.7410 O   0  0  0  0  0  0  0  0  0  0  0  0
   38.2420   23.6500   31.0220 C   0  0  0  0  0  0  0  0  0  0  0  0
   37.9860   23.3400   32.4870 C   0  0  2  0  0  0  0  0  0  0  0  0
   37.2200   24.2600   34.1140 H   0  0  0  0  0  0  0  0  0  0  0  0
   37.8640   26.4890   33.3910 H   0  0  0  0  0  0  0  0  0  0  0  0
   39.9840   25.3640   31.5340 H   0  0  0  0  0  0  0  0  0  0  0  0
   38.8850   26.7650   31.3960 H   0  0  0  0  0  0  0  0  0  0  0  0
   39.3200   23.4410   30.8120 H   0  0  0  0  0  0  0  0  0  0  0  0
   37.6570   23.0120   30.3370 H   0  0  0  0  0  0  0  0  0  0  0  0
   38.8870   22.9380   32.9860 H   0  0  0  0  0  0  0  0  0  0  0  0
   37.4820   21.7290   34.7740 F   0  0  0  0  0  0  0  0  0  0  0  0
   36.7560   21.5340   33.6480 C   0  0  0  0  0  0  0  0  0  0  0  0
   36.9470   22.2740   32.5140 C   0  0  0  0  0  0  0  0  0  0  0  0
   36.1590   22.0130   31.3940 C   0  0  0  0  0  0  0  0  0  0  0  0
   36.3030   22.6020   30.4750 H   0  0  0  0  0  0  0  0  0  0  0  0
   35.1990   21.0220   31.4320 C   0  0  0  0  0  0  0  0  0  0  0  0
   34.5620   20.7840   30.5830 H   0  0  0  0  0  0  0  0  0  0  0  0
   35.0060   20.2660   32.5930 C   0  0  0  0  0  3  0  0  0  0  0  0
   35.8020   20.5440   33.6920 C   0  0  0  0  0  3  0  0  0  0  0  0
   39.8000   25.2040   34.1880 S   0  0  0  0  0  0  0  0  0  0  0  0
   39.2490   24.4630   35.6950 C   0  0  0  0  0  0  0  0  0  0  0  0
   40.1220   23.4820   36.1800 C   0  0  0  0  0  0  0  0  0  0  0  0
   39.8100   22.8170   37.3610 C   0  0  0  0  0  0  0  0  0  0  0  0
   38.6430   23.1630   37.9960 N   0  0  0  0  0  0  0  0  0  0  0  0
   37.8250   24.1040   37.5120 C   0  0  0  0  0  0  0  0  0  0  0  0
   38.1310   24.7400   36.3780 N   0  0  0  0  0  0  0  0  0  0  0  0
   41.0650   23.1640   35.7170 H   0  0  0  0  0  0  0  0  0  0  0  0
   40.4510   22.0500   37.7790 H   0  0  0  0  0  0  0  0  0  0  0  0
   36.9000   24.3970   37.9930 H   0  0  0  0  0  0  0  0  0  0  0  0
  1  7  1  0  0  0  0
  2  1  1  0  0  0  0
  2  8  1  1  0  0  0
  2 23  1  0  0  0  0
  3  2  1  0  0  0  0
  4  5  1  0  0  0  0
  4  3  1  0  0  0  0
  5  6  1  0  0  0  0
  6 16  1  0  0  0  0
  6 13  1  1  0  0  0
  6  1  1  0  0  0  0
  9  3  1  0  0  0  0
 10  3  1  0  0  0  0
 11  5  1  0  0  0  0
 12  5  1  0  0  0  0
 15 22  1  0  0  0  0
 15 14  1  0  0  0  0
 16 15  2  0  0  0  0
 17 19  2  0  0  0  0
 17 16  1  0  0  0  0
 18 17  1  0  0  0  0
 19 21  1  0  0  0  0
 20 19  1  0  0  0  0
 21 22  2  0  0  0  0
 23 24  1  0  0  0  0
 24 25  2  0  0  0  0
 24 29  1  0  0  0  0
 25 26  1  0  0  0  0
 26 31  1  0  0  0  0
 26 27  2  0  0  0  0
 28 32  1  0  0  0  0
 28 27  1  0  0  0  0
 29 28  2  0  0  0  0
 30 25  1  0  0  0  0
M  END
>  <minimizedAffinity>
-4.94626951

$$$$

 OpenBabel03272502163D

 32 34  0  0  1  0  0  0  0  0999 V2000
   39.3100   24.8400   33.4320 N   0  0  0  0  0  0  0  0  0  0  0  0
   38.9070   25.8080   32.4310 C   0  0  2  0  0  0  0  0  0  0  0  0
   39.4780   27.1570   32.8020 C   0  0  0  0  0  0  0  0  0  0  0  0
   40.5260   27.0240   33.7440 O   0  0  0  0  0  0  0  0  0  0  0  0
   39.8750   26.6270   34.9370 C   0  0  0  0  0  0  0  0  0  0  0  0
   39.0300   25.3810   34.7280 C   0  0  2  0  0  0  0  0  0  0  0  0
   38.7570   23.9600   33.3190 H   0  0  0  0  0  0  0  0  0  0  0  0
   39.3270   25.4220   31.4630 H   0  0  0  0  0  0  0  0  0  0  0  0
   38.7240   27.8940   33.1180 H   0  0  0  0  0  0  0  0  0  0  0  0
   39.9580   27.5520   31.8710 H   0  0  0  0  0  0  0  0  0  0  0  0
   39.1840   27.4700   35.1840 H   0  0  0  0  0  0  0  0  0  0  0  0
   40.5780   26.5360   35.7820 H   0  0  0  0  0  0  0  0  0  0  0  0
   37.9580   25.5740   34.9170 H   0  0  0  0  0  0  0  0  0  0  0  0
   37.4540   24.6090   36.9630 F   0  0  0  0  0  0  0  0  0  0  0  0
   38.6800   24.0620   36.7920 C   0  0  0  0  0  0  0  0  0  0  0  0
   39.4890   24.3900   35.7390 C   0  0  0  0  0  0  0  0  0  0  0  0
   40.7400   23.7840   35.6320 C   0  0  0  0  0  0  0  0  0  0  0  0
   41.4010   24.0380   34.7890 H   0  0  0  0  0  0  0  0  0  0  0  0
   41.1540   22.8660   36.5760 C   0  0  0  0  0  0  0  0  0  0  0  0
   42.1200   22.3690   36.5330 H   0  0  0  0  0  0  0  0  0  0  0  0
   40.3240   22.5330   37.6530 C   0  0  0  0  0  3  0  0  0  0  0  0
   39.0870   23.1490   37.7370 C   0  0  0  0  0  3  0  0  0  0  0  0
   37.0950   25.9270   32.3580 S   0  0  0  0  0  0  0  0  0  0  0  0
   36.5240   27.5270   32.8440 C   0  0  0  0  0  0  0  0  0  0  0  0
   36.2400   28.3650   31.7590 C   0  0  0  0  0  0  0  0  0  0  0  0
   35.7820   29.6570   31.9970 C   0  0  0  0  0  0  0  0  0  0  0  0
   35.6300   30.0450   33.3060 N   0  0  0  0  0  0  0  0  0  0  0  0
   35.9080   29.2260   34.3250 C   0  0  0  0  0  0  0  0  0  0  0  0
   36.3480   27.9870   34.0880 N   0  0  0  0  0  0  0  0  0  0  0  0
   36.3420   28.1110   30.6960 H   0  0  0  0  0  0  0  0  0  0  0  0
   35.5480   30.3450   31.1940 H   0  0  0  0  0  0  0  0  0  0  0  0
   35.7970   29.5060   35.3650 H   0  0  0  0  0  0  0  0  0  0  0  0
  1  6  1  0  0  0  0
  2  8  1  6  0  0  0
  2  3  1  0  0  0  0
  2  1  1  0  0  0  0
  3  9  1  0  0  0  0
  3  4  1  0  0  0  0
  4  5  1  0  0  0  0
  5 11  1  0  0  0  0
  5 12  1  0  0  0  0
  6 13  1  1  0  0  0
  6  5  1  0  0  0  0
  6 16  1  0  0  0  0
  7  1  1  0  0  0  0
 10  3  1  0  0  0  0
 15 14  1  0  0  0  0
 15 22  1  0  0  0  0
 16 15  2  0  0  0  0
 17 16  1  0  0  0  0
 17 19  2  0  0  0  0
 18 17  1  0  0  0  0
 19 21  1  0  0  0  0
 20 19  1  0  0  0  0
 21 22  2  0  0  0  0
 23  2  1  0  0  0  0
 23 24  1  0  0  0  0
 24 29  1  0  0  0  0
 25 26  1  0  0  0  0
 25 24  2  0  0  0  0
 26 27  2  0  0  0  0
 27 28  1  0  0  0  0
 28 32  1  0  0  0  0
 29 28  2  0  0  0  0
 30 25  1  0  0  0  0
 31 26  1  0  0  0  0
M  END
>  <minimizedAffinity>
-4.86948681

$$$$

 OpenBabel03272502163D

 32 34  0  0  1  0  0  0  0  0999 V2000
   38.2140   26.6500   32.5990 N   0  0  0  0  0  0  0  0  0  0  0  0
   38.3190   25.4070   33.3360 C   0  0  2  0  0  0  0  0  0  0  0  0
   37.3810   24.3950   32.7190 C   0  0  0  0  0  0  0  0  0  0  0  0
   36.9910   24.7920   31.4170 O   0  0  0  0  0  0  0  0  0  0  0  0
   36.1440   25.9070   31.6330 C   0  0  0  0  0  0  0  0  0  0  0  0
   36.8290   26.9820   32.4590 C   0  0  2  0  0  0  0  0  0  0  0  0
   38.6830   27.4190   33.1310 H   0  0  0  0  0  0  0  0  0  0  0  0
   39.3950   25.0980   33.2410 H   0  0  0  0  0  0  0  0  0  0  0  0
   36.5200   24.1350   33.3510 H   0  0  0  0  0  0  0  0  0  0  0  0
   37.9850   23.4630   32.5800 H   0  0  0  0  0  0  0  0  0  0  0  0
   35.2880   25.5090   32.2310 H   0  0  0  0  0  0  0  0  0  0  0  0
   35.7180   26.2920   30.6910 H   0  0  0  0  0  0  0  0  0  0  0  0
   36.3060   27.1600   33.4170 H   0  0  0  0  0  0  0  0  0  0  0  0
   35.1400   29.1530   33.1750 F   0  0  0  0  0  0  0  0  0  0  0  0
   35.9100   29.2450   32.0660 C   0  0  0  0  0  0  0  0  0  0  0  0
   36.7440   28.2380   31.6660 C   0  0  0  0  0  0  0  0  0  0  0  0
   37.5060   28.4090   30.5100 C   0  0  0  0  0  0  0  0  0  0  0  0
   38.1810   27.6060   30.1770 H   0  0  0  0  0  0  0  0  0  0  0  0
   37.4180   29.5790   29.7830 C   0  0  0  0  0  0  0  0  0  0  0  0
   37.9920   29.7560   28.8770 H   0  0  0  0  0  0  0  0  0  0  0  0
   36.5630   30.6070   30.1950 C   0  0  0  0  0  3  0  0  0  0  0  0
   35.8170   30.4130   31.3450 C   0  0  0  0  0  3  0  0  0  0  0  0
   37.8610   25.6600   35.0760 S   0  0  0  0  0  0  0  0  0  0  0  0
   38.6680   24.5020   36.1410 C   0  0  0  0  0  0  0  0  0  0  0  0
   38.0520   24.3810   37.3930 C   0  0  0  0  0  0  0  0  0  0  0  0
   38.5840   23.5030   38.3310 C   0  0  0  0  0  0  0  0  0  0  0  0
   39.7030   22.7920   37.9730 N   0  0  0  0  0  0  0  0  0  0  0  0
   40.2730   22.9260   36.7710 C   0  0  0  0  0  0  0  0  0  0  0  0
   39.7560   23.7700   35.8740 N   0  0  0  0  0  0  0  0  0  0  0  0
   37.1600   24.9220   37.7340 H   0  0  0  0  0  0  0  0  0  0  0  0
   38.1470   23.3720   39.3140 H   0  0  0  0  0  0  0  0  0  0  0  0
   41.1540   22.3770   36.4620 H   0  0  0  0  0  0  0  0  0  0  0  0
  1  7  1  0  0  0  0
  1  2  1  0  0  0  0
  2  8  1  6  0  0  0
  2 23  1  0  0  0  0
  3  2  1  0  0  0  0
  3  9  1  0  0  0  0
  4  5  1  0  0  0  0
  4  3  1  0  0  0  0
  5 11  1  0  0  0  0
  5  6  1  0  0  0  0
  6  1  1  0  0  0  0
  6 13  1  1  0  0  0
 10  3  1  0  0  0  0
 12  5  1  0  0  0  0
 15 14  1  0  0  0  0
 16 15  1  0  0  0  0
 16  6  1  0  0  0  0
 17 16  2  0  0  0  0
 18 17  1  0  0  0  0
 19 21  2  0  0  0  0
 19 17  1  0  0  0  0
 20 19  1  0  0  0  0
 21 22  1  0  0  0  0
 22 15  2  0  0  0  0
 23 24  1  0  0  0  0
 24 25  1  0  0  0  0
 25 30  1  0  0  0  0
 25 26  2  0  0  0  0
 26 31  1  0  0  0  0
 27 26  1  0  0  0  0
 28 27  2  0  0  0  0
 29 24  2  0  0  0  0
 29 28  1  0  0  0  0
 32 28  1  0  0  0  0
M  END
>  <minimizedAffinity>
-4.84869432

$$$$

 OpenBabel03272502163D

 32 34  0  0  1  0  0  0  0  0999 V2000
   39.1920   22.9330   33.4560 N   0  0  0  0  0  0  0  0  0  0  0  0
   39.1210   23.1680   32.0280 C   0  0  2  0  0  0  0  0  0  0  0  0
   39.6740   24.5440   31.7340 C   0  0  0  0  0  0  0  0  0  0  0  0
   40.4410   25.0260   32.8230 O   0  0  0  0  0  0  0  0  0  0  0  0
   39.4850   25.2880   33.8340 C   0  0  0  0  0  0  0  0  0  0  0  0
   38.6350   24.0640   34.1340 C   0  0  2  0  0  0  0  0  0  0  0  0
   38.6250   22.0910   33.7070 H   0  0  0  0  0  0  0  0  0  0  0  0
   39.7430   22.3550   31.5650 H   0  0  0  0  0  0  0  0  0  0  0  0
   38.9190   25.2720   31.4020 H   0  0  0  0  0  0  0  0  0  0  0  0
   40.3990   24.4090   30.8930 H   0  0  0  0  0  0  0  0  0  0  0  0
   38.8150   26.0720   33.4040 H   0  0  0  0  0  0  0  0  0  0  0  0
   39.9450   25.7260   34.7370 H   0  0  0  0  0  0  0  0  0  0  0  0
   37.5660   24.2430   33.9140 H   0  0  0  0  0  0  0  0  0  0  0  0
   37.0740   25.4460   36.0660 F   0  0  0  0  0  0  0  0  0  0  0  0
   37.9720   24.5190   36.4730 C   0  0  0  0  0  0  0  0  0  0  0  0
   38.7540   23.8190   35.5970 C   0  0  0  0  0  0  0  0  0  0  0  0
   39.6570   22.8800   36.0940 C   0  0  0  0  0  0  0  0  0  0  0  0
   40.2920   22.3100   35.3990 H   0  0  0  0  0  0  0  0  0  0  0  0
   39.7590   22.6620   37.4530 C   0  0  0  0  0  0  0  0  0  0  0  0
   40.4480   21.9410   37.8860 H   0  0  0  0  0  0  0  0  0  0  0  0
   38.9580   23.3800   38.3480 C   0  0  0  0  0  3  0  0  0  0  0  0
   38.0700   24.3070   37.8290 C   0  0  0  0  0  3  0  0  0  0  0  0
   37.3990   23.0830   31.4550 S   0  0  0  0  0  0  0  0  0  0  0  0
   36.5690   21.6550   32.0860 C   0  0  0  0  0  0  0  0  0  0  0  0
   36.2480   20.7210   31.0930 C   0  0  0  0  0  0  0  0  0  0  0  0
   35.5920   19.5470   31.4500 C   0  0  0  0  0  0  0  0  0  0  0  0
   35.2890   19.3680   32.7770 N   0  0  0  0  0  0  0  0  0  0  0  0
   35.6060   20.2750   33.7060 C   0  0  0  0  0  0  0  0  0  0  0  0
   36.2370   21.4000   33.3570 N   0  0  0  0  0  0  0  0  0  0  0  0
   36.4640   20.8100   30.0210 H   0  0  0  0  0  0  0  0  0  0  0  0
   35.3210   18.7920   30.7220 H   0  0  0  0  0  0  0  0  0  0  0  0
   35.3800   20.1590   34.7580 H   0  0  0  0  0  0  0  0  0  0  0  0
  1  7  1  0  0  0  0
  1  6  1  0  0  0  0
  2  8  1  6  0  0  0
  2  1  1  0  0  0  0
  3  2  1  0  0  0  0
  3  4  1  0  0  0  0
  4  5  1  0  0  0  0
  5  6  1  0  0  0  0
  5 12  1  0  0  0  0
  6 13  1  6  0  0  0
  6 16  1  0  0  0  0
  9  3  1  0  0  0  0
 10  3  1  0  0  0  0
 11  5  1  0  0  0  0
 14 15  1  0  0  0  0
 15 22  1  0  0  0  0
 16 17  1  0  0  0  0
 16 15  2  0  0  0  0
 17 19  2  0  0  0  0
 18 17  1  0  0  0  0
 19 20  1  0  0  0  0
 19 21  1  0  0  0  0
 22 21  2  0  0  0  0
 23  2  1  0  0  0  0
 23 24  1  0  0  0  0
 24 29  1  0  0  0  0
 25 26  1  0  0  0  0
 25 24  2  0  0  0  0
 26 27  2  0  0  0  0
 27 28  1  0  0  0  0
 28 32  1  0  0  0  0
 29 28  2  0  0  0  0
 30 25  1  0  0  0  0
 31 26  1  0  0  0  0
M  END
>  <minimizedAffinity>
-4.76118374

$$$$

 OpenBabel03272502163D

 32 34  0  0  1  0  0  0  0  0999 V2000
   38.5600   23.4360   33.6220 N   0  0  0  0  0  0  0  0  0  0  0  0
   39.1630   24.4450   34.4680 C   0  0  2  0  0  0  0  0  0  0  0  0
   39.6910   23.7800   35.7190 C   0  0  0  0  0  0  0  0  0  0  0  0
   39.8080   22.3800   35.5390 O   0  0  0  0  0  0  0  0  0  0  0  0
   38.4690   21.9220   35.4860 C   0  0  0  0  0  0  0  0  0  0  0  0
   37.6680   22.6470   34.4180 C   0  0  2  0  0  0  0  0  0  0  0  0
   38.0030   23.8930   32.8640 H   0  0  0  0  0  0  0  0  0  0  0  0
   39.9870   24.8940   33.8490 H   0  0  0  0  0  0  0  0  0  0  0  0
   39.1370   24.0370   36.6340 H   0  0  0  0  0  0  0  0  0  0  0  0
   40.7370   24.1550   35.8470 H   0  0  0  0  0  0  0  0  0  0  0  0
   38.0330   22.1880   36.4800 H   0  0  0  0  0  0  0  0  0  0  0  0
   38.4100   20.8240   35.4000 H   0  0  0  0  0  0  0  0  0  0  0  0
   36.8240   23.2150   34.8510 H   0  0  0  0  0  0  0  0  0  0  0  0
   35.4850   21.0050   35.2020 F   0  0  0  0  0  0  0  0  0  0  0  0
   36.0400   20.8370   33.9790 C   0  0  0  0  0  0  0  0  0  0  0  0
   37.0910   21.5930   33.5400 C   0  0  0  0  0  0  0  0  0  0  0  0
   37.6080   21.3600   32.2660 C   0  0  0  0  0  0  0  0  0  0  0  0
   38.4540   21.9620   31.9000 H   0  0  0  0  0  0  0  0  0  0  0  0
   37.0640   20.3800   31.4610 C   0  0  0  0  0  0  0  0  0  0  0  0
   37.4340   20.1630   30.4610 H   0  0  0  0  0  0  0  0  0  0  0  0
   35.9880   19.6080   31.9130 C   0  0  0  0  0  3  0  0  0  0  0  0
   35.4940   19.8580   33.1810 C   0  0  0  0  0  3  0  0  0  0  0  0
   37.9350   25.7010   34.9340 S   0  0  0  0  0  0  0  0  0  0  0  0
   37.0870   26.3420   33.5220 C   0  0  0  0  0  0  0  0  0  0  0  0
   36.8580   27.7210   33.5950 C   0  0  0  0  0  0  0  0  0  0  0  0
   36.1980   28.3580   32.5490 C   0  0  0  0  0  0  0  0  0  0  0  0
   35.8000   27.5860   31.4850 N   0  0  0  0  0  0  0  0  0  0  0  0
   36.0310   26.2690   31.4390 C   0  0  0  0  0  0  0  0  0  0  0  0
   36.6660   25.6650   32.4470 N   0  0  0  0  0  0  0  0  0  0  0  0
   37.1510   28.3870   34.4170 H   0  0  0  0  0  0  0  0  0  0  0  0
   35.9950   29.4220   32.5560 H   0  0  0  0  0  0  0  0  0  0  0  0
   35.7300   25.6380   30.6130 H   0  0  0  0  0  0  0  0  0  0  0  0
  1  6  1  0  0  0  0
  1  2  1  0  0  0  0
  2  8  1  6  0  0  0
  2 23  1  0  0  0  0
  2  3  1  0  0  0  0
  3 10  1  0  0  0  0
  3  9  1  0  0  0  0
  4  3  1  0  0  0  0
  5  4  1  0  0  0  0
  5 11  1  0  0  0  0
  6 13  1  1  0  0  0
  6  5  1  0  0  0  0
  7  1  1  0  0  0  0
 12  5  1  0  0  0  0
 15 14  1  0  0  0  0
 16 15  1  0  0  0  0
 16  6  1  0  0  0  0
 17 16  2  0  0  0  0
 18 17  1  0  0  0  0
 19 21  2  0  0  0  0
 19 17  1  0  0  0  0
 20 19  1  0  0  0  0
 21 22  1  0  0  0  0
 22 15  2  0  0  0  0
 24 25  1  0  0  0  0
 24 23  1  0  0  0  0
 25 30  1  0  0  0  0
 26 31  1  0  0  0  0
 26 25  2  0  0  0  0
 27 26  1  0  0  0  0
 28 27  2  0  0  0  0
 28 29  1  0  0  0  0
 29 24  2  0  0  0  0
 32 28  1  0  0  0  0
M  END
>  <minimizedAffinity>
-4.72731018

$$$$

 OpenBabel03272502163D

 32 34  0  0  1  0  0  0  0  0999 V2000
   37.5590   26.4830   31.7140 N   0  0  0  0  0  0  0  0  0  0  0  0
   36.2840   26.7910   31.0970 C   0  0  2  0  0  0  0  0  0  0  0  0
   35.5810   27.8390   31.9300 C   0  0  0  0  0  0  0  0  0  0  0  0
   36.4890   28.4880   32.8000 O   0  0  0  0  0  0  0  0  0  0  0  0
   36.8180   27.5010   33.7610 C   0  0  0  0  0  0  0  0  0  0  0  0
   37.3430   26.2330   33.1070 C   0  0  2  0  0  0  0  0  0  0  0  0
   37.9620   25.6190   31.2860 H   0  0  0  0  0  0  0  0  0  0  0  0
   36.5380   27.1680   30.0700 H   0  0  0  0  0  0  0  0  0  0  0  0
   34.6890   27.4710   32.4570 H   0  0  0  0  0  0  0  0  0  0  0  0
   35.2410   28.6240   31.2090 H   0  0  0  0  0  0  0  0  0  0  0  0
   35.8510   27.2510   34.2630 H   0  0  0  0  0  0  0  0  0  0  0  0
   37.4890   27.8920   34.5450 H   0  0  0  0  0  0  0  0  0  0  0  0
   36.6940   25.3630   33.3160 H   0  0  0  0  0  0  0  0  0  0  0  0
   38.2190   23.6190   33.7970 F   0  0  0  0  0  0  0  0  0  0  0  0
   39.0280   24.6770   34.0340 C   0  0  0  0  0  0  0  0  0  0  0  0
   38.6680   25.9600   33.7270 C   0  0  0  0  0  0  0  0  0  0  0  0
   39.5570   26.9980   34.0030 C   0  0  0  0  0  0  0  0  0  0  0  0
   39.2800   28.0360   33.7610 H   0  0  0  0  0  0  0  0  0  0  0  0
   40.7840   26.7320   34.5790 C   0  0  0  0  0  0  0  0  0  0  0  0
   41.5080   27.5090   34.8110 H   0  0  0  0  0  0  0  0  0  0  0  0
   41.1490   25.4180   34.8920 C   0  0  0  0  0  3  0  0  0  0  0  0
   40.2480   24.4060   34.6090 C   0  0  0  0  0  3  0  0  0  0  0  0
   35.2450   25.3030   31.0110 S   0  0  0  0  0  0  0  0  0  0  0  0
   36.2150   23.8250   31.0410 C   0  0  0  0  0  0  0  0  0  0  0  0
   35.5570   22.7450   31.6420 C   0  0  0  0  0  0  0  0  0  0  0  0
   36.2050   21.5180   31.7340 C   0  0  0  0  0  0  0  0  0  0  0  0
   37.4760   21.4320   31.2210 N   0  0  0  0  0  0  0  0  0  0  0  0
   38.0840   22.4780   30.6510 C   0  0  0  0  0  0  0  0  0  0  0  0
   37.4540   23.6530   30.5660 N   0  0  0  0  0  0  0  0  0  0  0  0
   34.5450   22.7550   32.0680 H   0  0  0  0  0  0  0  0  0  0  0  0
   35.7410   20.6510   32.1900 H   0  0  0  0  0  0  0  0  0  0  0  0
   39.0830   22.4370   30.2390 H   0  0  0  0  0  0  0  0  0  0  0  0
  1  6  1  0  0  0  0
  2  8  1  6  0  0  0
  2  1  1  0  0  0  0
  2  3  1  0  0  0  0
  3  9  1  0  0  0  0
  3  4  1  0  0  0  0
  4  5  1  0  0  0  0
  5 11  1  0  0  0  0
  5 12  1  0  0  0  0
  6 13  1  1  0  0  0
  6 16  1  0  0  0  0
  6  5  1  0  0  0  0
  7  1  1  0  0  0  0
 10  3  1  0  0  0  0
 14 15  1  0  0  0  0
 15 22  1  0  0  0  0
 16 17  1  0  0  0  0
 16 15  2  0  0  0  0
 17 19  2  0  0  0  0
 18 17  1  0  0  0  0
 19 20  1  0  0  0  0
 19 21  1  0  0  0  0
 22 21  2  0  0  0  0
 23 24  1  0  0  0  0
 23  2  1  0  0  0  0
 24 25  1  0  0  0  0
 25 26  2  0  0  0  0
 25 30  1  0  0  0  0
 26 31  1  0  0  0  0
 27 26  1  0  0  0  0
 28 27  2  0  0  0  0
 29 28  1  0  0  0  0
 29 24  2  0  0  0  0
 32 28  1  0  0  0  0
M  END
>  <minimizedAffinity>
-4.7180357

$$$$

 OpenBabel03272502163D

 32 34  0  0  1  0  0  0  0  0999 V2000
   38.2410   25.4170   34.5060 N   0  0  0  0  0  0  0  0  0  0  0  0
   39.2470   24.3900   34.6800 C   0  0  2  0  0  0  0  0  0  0  0  0
   40.6030   25.0500   34.7820 C   0  0  0  0  0  0  0  0  0  0  0  0
   40.4750   26.4300   35.0750 O   0  0  0  0  0  0  0  0  0  0  0  0
   39.9480   26.9910   33.8870 C   0  0  0  0  0  0  0  0  0  0  0  0
   38.6640   26.2990   33.4600 C   0  0  2  0  0  0  0  0  0  0  0  0
   37.3340   24.9820   34.2190 H   0  0  0  0  0  0  0  0  0  0  0  0
   38.9640   23.8590   35.6290 H   0  0  0  0  0  0  0  0  0  0  0  0
   41.2600   24.8670   33.9190 H   0  0  0  0  0  0  0  0  0  0  0  0
   41.0970   24.5970   35.6780 H   0  0  0  0  0  0  0  0  0  0  0  0
   40.7200   26.7910   33.1040 H   0  0  0  0  0  0  0  0  0  0  0  0
   39.8450   28.0880   33.9560 H   0  0  0  0  0  0  0  0  0  0  0  0
   38.7680   25.8130   32.4720 H   0  0  0  0  0  0  0  0  0  0  0  0
   38.1210   27.6230   31.0040 F   0  0  0  0  0  0  0  0  0  0  0  0
   37.4250   27.9640   32.1140 C   0  0  0  0  0  0  0  0  0  0  0  0
   37.6370   27.3670   33.3260 C   0  0  0  0  0  0  0  0  0  0  0  0
   36.8790   27.7740   34.4230 C   0  0  0  0  0  0  0  0  0  0  0  0
   37.0400   27.3020   35.4050 H   0  0  0  0  0  0  0  0  0  0  0  0
   35.9290   28.7660   34.2860 C   0  0  0  0  0  0  0  0  0  0  0  0
   35.3160   29.1160   35.1130 H   0  0  0  0  0  0  0  0  0  0  0  0
   35.7150   29.3760   33.0450 C   0  0  0  0  0  3  0  0  0  0  0  0
   36.4800   28.9540   31.9710 C   0  0  0  0  0  3  0  0  0  0  0  0
   39.2440   23.2510   33.2640 S   0  0  0  0  0  0  0  0  0  0  0  0
   37.6590   22.5060   33.0270 C   0  0  0  0  0  0  0  0  0  0  0  0
   36.9130   23.1070   32.0060 C   0  0  0  0  0  0  0  0  0  0  0  0
   35.6440   22.6200   31.7130 C   0  0  0  0  0  0  0  0  0  0  0  0
   35.1840   21.5590   32.4530 N   0  0  0  0  0  0  0  0  0  0  0  0
   35.9160   21.0010   33.4230 C   0  0  0  0  0  0  0  0  0  0  0  0
   37.1350   21.4740   33.6990 N   0  0  0  0  0  0  0  0  0  0  0  0
   37.2270   23.9550   31.3840 H   0  0  0  0  0  0  0  0  0  0  0  0
   35.0260   23.0490   30.9330 H   0  0  0  0  0  0  0  0  0  0  0  0
   35.5790   20.1640   34.0210 H   0  0  0  0  0  0  0  0  0  0  0  0
  1  2  1  0  0  0  0
  2  3  1  0  0  0  0
  2  8  1  1  0  0  0
  3  4  1  0  0  0  0
  3 10  1  0  0  0  0
  5 12  1  0  0  0  0
  5  4  1  0  0  0  0
  6 13  1  6  0  0  0
  6  5  1  0  0  0  0
  6  1  1  0  0  0  0
  7  1  1  0  0  0  0
  9  3  1  0  0  0  0
 11  5  1  0  0  0  0
 14 15  1  0  0  0  0
 15 16  1  0  0  0  0
 16  6  1  0  0  0  0
 16 17  2  0  0  0  0
 17 18  1  0  0  0  0
 19 17  1  0  0  0  0
 19 20  1  0  0  0  0
 21 19  2  0  0  0  0
 22 15  2  0  0  0  0
 22 21  1  0  0  0  0
 23  2  1  0  0  0  0
 24 23  1  0  0  0  0
 24 29  1  0  0  0  0
 25 24  2  0  0  0  0
 26 25  1  0  0  0  0
 26 27  2  0  0  0  0
 27 28  1  0  0  0  0
 28 29  2  0  0  0  0
 28 32  1  0  0  0  0
 30 25  1  0  0  0  0
 31 26  1  0  0  0  0
M  END
>  <minimizedAffinity>
-4.7019062

$$$$
