
 OpenBabel03272509213D

 46 50  0  0  0  0  0  0  0  0999 V2000
   38.1090   31.4010   47.9200 C   0  0  0  0  0  0  0  0  0  0  0  0
   37.2720   31.5940   49.0020 C   0  0  0  0  0  0  0  0  0  0  0  0
   37.4980   32.7950   49.6870 C   0  0  0  0  0  0  0  0  0  0  0  0
   38.4860   33.7020   49.2920 C   0  0  0  0  0  0  0  0  0  0  0  0
   39.2850   33.4060   48.1720 C   0  0  0  0  0  0  0  0  0  0  0  0
   39.0830   32.2300   47.4800 C   0  0  0  0  0  0  0  0  0  0  0  0
   36.8610   32.9870   50.5470 H   0  0  0  0  0  0  0  0  0  0  0  0
   38.6020   34.6060   49.8670 H   0  0  0  0  0  0  0  0  0  0  0  0
   40.0350   34.1440   47.9100 H   0  0  0  0  0  0  0  0  0  0  0  0
   35.1410   30.4670   48.6000 C   0  0  0  0  0  0  0  0  0  0  0  0
   36.2630   30.6700   49.4070 C   0  0  0  0  0  0  0  0  0  0  0  0
   36.3520   29.9420   50.6020 C   0  0  0  0  0  0  0  0  0  0  0  0
   35.3530   29.0850   50.9130 N   0  0  0  0  0  0  0  0  0  0  0  0
   34.2720   28.9180   50.0940 C   0  0  0  0  0  0  0  0  0  0  0  0
   34.1830   29.6060   48.9600 N   0  0  0  0  0  0  0  0  0  0  0  0
   35.0750   31.0320   47.6780 H   0  0  0  0  0  0  0  0  0  0  0  0
   33.5380   28.1980   50.4600 H   0  0  0  0  0  0  0  0  0  0  0  0
   37.5230   30.1180   51.4960 C   0  0  0  0  0  0  0  0  0  0  0  0
   38.4410   30.1510   50.8480 H   0  0  0  0  0  0  0  0  0  0  0  0
   37.4230   30.9790   52.1630 H   0  0  0  0  0  0  0  0  0  0  0  0
   37.6200   29.1470   52.0480 H   0  0  0  0  0  0  0  0  0  0  0  0
   37.9730   30.2320   47.1620 O   0  0  0  0  0  0  0  0  0  0  0  0
   38.6120   29.4670   47.3020 H   0  0  0  0  0  0  0  0  0  0  0  0
   39.9020   32.0150   46.4000 O   0  0  0  0  0  0  0  0  0  0  0  0
   39.9700   30.7970   44.2180 C   0  0  0  0  0  0  0  0  0  0  0  0
   39.5210   31.7450   45.1100 C   0  0  0  0  0  0  0  0  0  0  0  0
   38.5030   32.6150   44.7010 C   0  0  0  0  0  0  0  0  0  0  0  0
   37.9600   32.5160   43.4100 C   0  0  0  0  0  0  0  0  0  0  0  0
   36.9980   33.1860   42.7340 N   0  0  0  0  0  0  0  0  0  0  0  0
   36.8700   32.6740   41.5020 C   0  0  0  0  0  0  0  0  0  0  0  0
   37.7650   31.6670   41.4010 N   0  0  0  0  0  0  0  0  0  0  0  0
   38.4400   31.5560   42.5610 C   0  0  0  0  0  0  0  0  0  0  0  0
   39.4420   30.6970   42.9560 C   0  0  0  0  0  0  0  0  0  0  0  0
   40.7570   30.1770   44.6350 H   0  0  0  0  0  0  0  0  0  0  0  0
   38.0490   33.4100   45.2920 H   0  0  0  0  0  0  0  0  0  0  0  0
   36.4450   33.9930   43.1490 H   0  0  0  0  0  0  0  0  0  0  0  0
   36.1770   33.0200   40.7530 H   0  0  0  0  0  0  0  0  0  0  0  0
   38.4950   28.0210   42.7530 F   0  0  0  0  0  0  0  0  0  0  0  0
   39.5310   28.3610   41.9590 C   0  0  0  0  0  0  0  0  0  0  0  0
   39.9760   29.6620   42.0710 C   0  0  0  0  0  0  0  0  0  0  0  0
   41.0420   30.1470   41.3080 C   0  0  0  0  0  0  0  0  0  0  0  0
   41.4420   31.1410   41.3400 H   0  0  0  0  0  0  0  0  0  0  0  0
   41.6700   29.2910   40.4100 C   0  0  0  0  0  0  0  0  0  0  0  0
   42.5010   29.6000   39.7870 H   0  0  0  0  0  0  0  0  0  0  0  0
   41.1960   27.9980   40.3260 C   0  0  0  0  0  3  0  0  0  0  0  0
   40.1450   27.4960   41.0680 C   0  0  0  0  0  3  0  0  0  0  0  0
  1  2  1  0  0  0  0
  2 11  1  0  0  0  0
  2  3  2  0  0  0  0
  3  7  1  0  0  0  0
  4  3  1  0  0  0  0
  4  8  1  0  0  0  0
  5  4  2  0  0  0  0
  6  1  2  0  0  0  0
  6  5  1  0  0  0  0
  9  5  1  0  0  0  0
 10 15  2  0  0  0  0
 10 11  1  0  0  0  0
 11 12  2  0  0  0  0
 12 13  1  0  0  0  0
 12 18  1  0  0  0  0
 14 17  1  0  0  0  0
 14 13  2  0  0  0  0
 15 14  1  0  0  0  0
 16 10  1  0  0  0  0
 18 21  1  0  0  0  0
 18 20  1  0  0  0  0
 19 18  1  0  0  0  0
 22 23  1  0  0  0  0
 22  1  1  0  0  0  0
 24  6  1  0  0  0  0
 25 34  1  0  0  0  0
 25 26  1  0  0  0  0
 26 24  1  0  0  0  0
 27 26  2  0  0  0  0
 27 35  1  0  0  0  0
 28 27  1  0  0  0  0
 29 36  1  0  0  0  0
 29 28  1  0  0  0  0
 30 29  1  0  0  0  0
 31 30  2  0  0  0  0
 31 32  1  0  0  0  0
 32 33  1  0  0  0  0
 32 28  2  0  0  0  0
 33 25  2  0  0  0  0
 37 30  1  0  0  0  0
 39 40  1  0  0  0  0
 39 38  1  0  0  0  0
 40 33  1  0  0  0  0
 41 42  1  0  0  0  0
 41 40  2  0  0  0  0
 43 41  1  0  0  0  0
 44 43  1  0  0  0  0
 45 43  2  0  0  0  0
 45 46  1  0  0  0  0
 46 39  2  0  0  0  0
M  END
>  <minimizedAffinity>
-7.71896791

>  <minimizedRMSD>
1.01378095

$$$$
