
 OpenBabel03272506343D

 19 20  0  0  0  0  0  0  0  0999 V2000
   37.5260   30.2040   50.8080 C   0  0  0  0  0  0  0  0  0  0  0  0
   38.3140   31.2210   50.2630 C   0  0  0  0  0  0  0  0  0  0  0  0
   38.0540   31.6400   48.9590 C   0  0  0  0  0  0  0  0  0  0  0  0
   37.0300   31.0270   48.2720 N   0  0  0  0  0  0  0  0  0  0  0  0
   36.2890   30.0440   48.8350 C   0  0  0  0  0  0  0  0  0  0  0  0
   36.5440   29.6470   50.0880 N   0  0  0  0  0  0  0  0  0  0  0  0
   39.1320   31.7500   50.7320 H   0  0  0  0  0  0  0  0  0  0  0  0
   38.6180   32.4230   48.4630 H   0  0  0  0  0  0  0  0  0  0  0  0
   34.7850   27.8180   49.7750 F   0  0  0  0  0  0  0  0  0  0  0  0
   34.5210   28.3560   48.5590 C   0  0  0  0  0  0  0  0  0  0  0  0
   35.2180   29.4330   48.0560 C   0  0  0  0  0  0  0  0  0  0  0  0
   34.9330   29.9650   46.8190 C   0  0  0  0  0  0  0  0  0  0  0  0
   35.4850   30.8020   46.4420 H   0  0  0  0  0  0  0  0  0  0  0  0
   33.9270   29.4330   46.0220 C   0  0  0  0  0  0  0  0  0  0  0  0
   33.7230   29.8710   45.0520 H   0  0  0  0  0  0  0  0  0  0  0  0
   33.2140   28.3420   46.5230 C   0  0  0  0  0  0  0  0  0  0  0  0
   33.5220   27.8300   47.7680 C   0  0  0  0  0  0  0  0  0  0  0  0
   37.9000   29.8980   52.1010 O   0  0  0  0  0  0  0  0  0  0  0  0
   37.4440   29.2680   52.7270 H   0  0  0  0  0  0  0  0  0  0  0  0
  1 18  1  0  0  0  0
  2  7  1  0  0  0  0
  2  1  1  0  0  0  0
  3  2  2  0  0  0  0
  4  5  2  0  0  0  0
  4  3  1  0  0  0  0
  5  6  1  0  0  0  0
  6  1  2  0  0  0  0
  8  3  1  0  0  0  0
 10  9  1  0  0  0  0
 11 10  1  0  0  0  0
 11  5  1  0  0  0  0
 12 11  2  0  0  0  0
 13 12  1  0  0  0  0
 14 16  2  0  0  0  0
 14 12  1  0  0  0  0
 15 14  1  0  0  0  0
 16 17  1  0  0  0  0
 17 10  2  0  0  0  0
 18 19  1  0  0  0  0
M  END
>  <minimizedAffinity>
-5.16365767

>  <minimizedRMSD>
1.77740717

$$$$
