
 OpenBabel03272509213D

 46 50  0  0  0  0  0  0  0  0999 V2000
   38.1040   31.4000   47.9130 C   0  0  0  0  0  0  0  0  0  0  0  0
   37.2740   31.5930   49.0020 C   0  0  0  0  0  0  0  0  0  0  0  0
   37.5090   32.7920   49.6880 C   0  0  0  0  0  0  0  0  0  0  0  0
   38.4970   33.6960   49.2890 C   0  0  0  0  0  0  0  0  0  0  0  0
   39.2890   33.4010   48.1640 C   0  0  0  0  0  0  0  0  0  0  0  0
   39.0780   32.2280   47.4700 C   0  0  0  0  0  0  0  0  0  0  0  0
   36.8780   32.9840   50.5520 H   0  0  0  0  0  0  0  0  0  0  0  0
   38.6200   34.5990   49.8660 H   0  0  0  0  0  0  0  0  0  0  0  0
   40.0390   34.1370   47.8990 H   0  0  0  0  0  0  0  0  0  0  0  0
   35.1400   30.4710   48.6070 C   0  0  0  0  0  0  0  0  0  0  0  0
   36.2650   30.6720   49.4100 C   0  0  0  0  0  0  0  0  0  0  0  0
   36.3560   29.9440   50.6050 C   0  0  0  0  0  0  0  0  0  0  0  0
   35.3560   29.0900   50.9190 N   0  0  0  0  0  0  0  0  0  0  0  0
   34.2720   28.9250   50.1040 C   0  0  0  0  0  0  0  0  0  0  0  0
   34.1820   29.6120   48.9700 N   0  0  0  0  0  0  0  0  0  0  0  0
   35.0730   31.0350   47.6840 H   0  0  0  0  0  0  0  0  0  0  0  0
   33.5380   28.2070   50.4730 H   0  0  0  0  0  0  0  0  0  0  0  0
   37.5300   30.1190   51.4950 C   0  0  0  0  0  0  0  0  0  0  0  0
   38.4460   30.1500   50.8450 H   0  0  0  0  0  0  0  0  0  0  0  0
   37.4340   30.9810   52.1620 H   0  0  0  0  0  0  0  0  0  0  0  0
   37.6260   29.1480   52.0480 H   0  0  0  0  0  0  0  0  0  0  0  0
   37.9590   30.2340   47.1530 O   0  0  0  0  0  0  0  0  0  0  0  0
   38.5970   29.4670   47.2870 H   0  0  0  0  0  0  0  0  0  0  0  0
   39.8900   32.0130   46.3840 O   0  0  0  0  0  0  0  0  0  0  0  0
   39.9140   30.7560   44.2230 C   0  0  0  0  0  0  0  0  0  0  0  0
   39.5000   31.7350   45.0980 C   0  0  0  0  0  0  0  0  0  0  0  0
   38.5150   32.6350   44.6730 C   0  0  0  0  0  0  0  0  0  0  0  0
   37.9700   32.5340   43.3830 C   0  0  0  0  0  0  0  0  0  0  0  0
   37.0350   33.2280   42.6950 N   0  0  0  0  0  0  0  0  0  0  0  0
   36.8890   32.7010   41.4710 C   0  0  0  0  0  0  0  0  0  0  0  0
   37.7460   31.6590   41.3880 N   0  0  0  0  0  0  0  0  0  0  0  0
   38.4160   31.5430   42.5520 C   0  0  0  0  0  0  0  0  0  0  0  0
   39.3840   30.6540   42.9630 C   0  0  0  0  0  0  0  0  0  0  0  0
   40.6770   30.1140   44.6520 H   0  0  0  0  0  0  0  0  0  0  0  0
   38.0910   33.4560   45.2500 H   0  0  0  0  0  0  0  0  0  0  0  0
   36.5120   34.0620   43.0940 H   0  0  0  0  0  0  0  0  0  0  0  0
   36.2100   33.0590   40.7150 H   0  0  0  0  0  0  0  0  0  0  0  0
   41.1230   30.9820   40.7340 F   0  0  0  0  0  0  0  0  0  0  0  0
   40.7230   29.7250   41.0130 C   0  0  0  0  0  0  0  0  0  0  0  0
   39.8800   29.5850   42.0960 C   0  0  0  0  0  0  0  0  0  0  0  0
   39.3890   28.3390   42.4960 C   0  0  0  0  0  0  0  0  0  0  0  0
   38.7340   28.1530   43.3230 H   0  0  0  0  0  0  0  0  0  0  0  0
   39.7630   27.2080   41.7770 C   0  0  0  0  0  0  0  0  0  0  0  0
   39.4210   26.2110   42.0310 H   0  0  0  0  0  0  0  0  0  0  0  0
   40.6070   27.3880   40.7000 C   0  0  0  0  0  3  0  0  0  0  0  0
   41.1040   28.6070   40.2870 C   0  0  0  0  0  3  0  0  0  0  0  0
  1  2  1  0  0  0  0
  2 11  1  0  0  0  0
  2  3  2  0  0  0  0
  3  7  1  0  0  0  0
  4  3  1  0  0  0  0
  4  8  1  0  0  0  0
  5  4  2  0  0  0  0
  6  1  2  0  0  0  0
  6  5  1  0  0  0  0
  9  5  1  0  0  0  0
 10 15  2  0  0  0  0
 10 11  1  0  0  0  0
 11 12  2  0  0  0  0
 12 13  1  0  0  0  0
 12 18  1  0  0  0  0
 14 17  1  0  0  0  0
 14 13  2  0  0  0  0
 15 14  1  0  0  0  0
 16 10  1  0  0  0  0
 18 21  1  0  0  0  0
 18 20  1  0  0  0  0
 19 18  1  0  0  0  0
 22 23  1  0  0  0  0
 22  1  1  0  0  0  0
 24  6  1  0  0  0  0
 25 34  1  0  0  0  0
 25 26  1  0  0  0  0
 26 24  1  0  0  0  0
 27 26  2  0  0  0  0
 27 35  1  0  0  0  0
 28 27  1  0  0  0  0
 29 36  1  0  0  0  0
 29 28  1  0  0  0  0
 30 29  1  0  0  0  0
 31 30  2  0  0  0  0
 31 32  1  0  0  0  0
 32 33  1  0  0  0  0
 32 28  2  0  0  0  0
 33 25  2  0  0  0  0
 37 30  1  0  0  0  0
 38 39  1  0  0  0  0
 39 40  1  0  0  0  0
 40 41  2  0  0  0  0
 40 33  1  0  0  0  0
 41 42  1  0  0  0  0
 43 44  1  0  0  0  0
 43 41  1  0  0  0  0
 45 43  2  0  0  0  0
 46 45  1  0  0  0  0
 46 39  2  0  0  0  0
M  END
>  <minimizedAffinity>
-7.72033072

>  <minimizedRMSD>
1.02295351

$$$$
