
 OpenBabel03272504033D

 41 44  0  0  0  0  0  0  0  0999 V2000
   34.4150   29.5450   48.6760 C   0  0  0  0  0  0  0  0  0  0  0  0
   33.7490   30.4500   48.5790 H   0  0  0  0  0  0  0  0  0  0  0  0
   34.0320   28.9850   49.5230 H   0  0  0  0  0  0  0  0  0  0  0  0
   35.7750   30.0730   48.9150 C   0  0  0  0  0  0  0  0  0  0  0  0
   36.6570   29.4900   49.8350 C   0  0  0  0  0  0  0  0  0  0  0  0
   37.8130   30.2090   49.8170 C   0  0  0  0  0  0  0  0  0  0  0  0
   37.6430   31.1950   48.9190 N   0  0  0  0  0  0  0  0  0  0  0  0
   36.4360   31.0890   48.4060 N   0  0  0  0  0  0  0  0  0  0  0  0
   36.4800   28.6110   50.4720 H   0  0  0  0  0  0  0  0  0  0  0  0
   38.7280   30.0680   50.3890 H   0  0  0  0  0  0  0  0  0  0  0  0
   38.5110   32.2350   48.4920 C   0  0  0  0  0  0  0  0  0  0  0  0
   38.7670   33.2310   49.3950 C   0  0  0  0  0  0  0  0  0  0  0  0
   39.5990   34.3210   49.1300 C   0  0  0  0  0  0  0  0  0  0  0  0
   40.1770   34.3600   47.8700 C   0  0  0  0  0  0  0  0  0  0  0  0
   39.9270   33.3660   46.9540 C   0  0  0  0  0  0  0  0  0  0  0  0
   39.1010   32.2980   47.2410 C   0  0  0  0  0  0  0  0  0  0  0  0
   38.3380   33.2450   50.3980 H   0  0  0  0  0  0  0  0  0  0  0  0
   39.7850   35.0860   49.8450 H   0  0  0  0  0  0  0  0  0  0  0  0
   40.8370   35.1820   47.5910 H   0  0  0  0  0  0  0  0  0  0  0  0
   40.3600   33.3620   45.9600 H   0  0  0  0  0  0  0  0  0  0  0  0
   38.8460   31.4720   46.5890 H   0  0  0  0  0  0  0  0  0  0  0  0
   34.2910   28.7820   47.4220 C   0  0  0  0  0  0  0  0  0  0  0  0
   34.9470   27.8760   47.5390 H   0  0  0  0  0  0  0  0  0  0  0  0
   33.2580   28.3380   47.4020 H   0  0  0  0  0  0  0  0  0  0  0  0
   34.4830   29.4680   46.1760 C   0  0  0  0  0  0  0  0  0  0  0  0
   33.3950   29.7430   45.3770 C   0  0  0  0  0  0  0  0  0  0  0  0
   33.5640   30.4180   44.1470 C   0  0  0  0  0  0  0  0  0  0  0  0
   34.8670   30.7650   43.8270 N   0  0  0  0  0  0  0  0  0  0  0  0
   35.8970   30.4680   44.6510 C   0  0  0  0  0  0  0  0  0  0  0  0
   35.7090   29.8220   45.8210 N   0  0  0  0  0  0  0  0  0  0  0  0
   32.3740   29.4700   45.6310 H   0  0  0  0  0  0  0  0  0  0  0  0
   32.7340   30.6380   43.5190 H   0  0  0  0  0  0  0  0  0  0  0  0
   36.5450   33.0430   43.6340 F   0  0  0  0  0  0  0  0  0  0  0  0
   37.5240   32.1020   43.7750 C   0  0  0  0  0  0  0  0  0  0  0  0
   37.2440   30.8590   44.2590 C   0  0  0  0  0  0  0  0  0  0  0  0
   38.3090   29.9850   44.3590 C   0  0  0  0  0  0  0  0  0  0  0  0
   38.1010   28.9900   44.7440 H   0  0  0  0  0  0  0  0  0  0  0  0
   39.5970   30.2940   44.0070 C   0  0  0  0  0  0  0  0  0  0  0  0
   40.3660   29.5390   44.1220 H   0  0  0  0  0  0  0  0  0  0  0  0
   39.8250   31.5800   43.5170 C   0  0  0  0  0  0  0  0  0  0  0  0
   38.7890   32.4760   43.4030 C   0  0  0  0  0  0  0  0  0  0  0  0
  1  4  1  0  0  0  0
  1  3  1  0  0  0  0
  2  1  1  0  0  0  0
  4  5  1  0  0  0  0
  5  9  1  0  0  0  0
  6  5  2  0  0  0  0
  6 10  1  0  0  0  0
  7  6  1  0  0  0  0
  8  4  2  0  0  0  0
  8  7  1  0  0  0  0
 11  7  1  0  0  0  0
 11 12  1  0  0  0  0
 12 17  1  0  0  0  0
 13 12  2  0  0  0  0
 13 18  1  0  0  0  0
 14 13  1  0  0  0  0
 15 16  1  0  0  0  0
 15 14  2  0  0  0  0
 16 11  2  0  0  0  0
 19 14  1  0  0  0  0
 20 15  1  0  0  0  0
 21 16  1  0  0  0  0
 22 23  1  0  0  0  0
 22  1  1  0  0  0  0
 24 22  1  0  0  0  0
 25 22  1  0  0  0  0
 26 31  1  0  0  0  0
 26 25  2  0  0  0  0
 27 26  1  0  0  0  0
 28 27  2  0  0  0  0
 28 29  1  0  0  0  0
 29 30  2  0  0  0  0
 30 25  1  0  0  0  0
 32 27  1  0  0  0  0
 33 34  1  0  0  0  0
 34 35  1  0  0  0  0
 35 36  2  0  0  0  0
 35 29  1  0  0  0  0
 36 37  1  0  0  0  0
 38 39  1  0  0  0  0
 38 36  1  0  0  0  0
 40 38  2  0  0  0  0
 41 40  1  0  0  0  0
 41 34  2  0  0  0  0
M  END
>  <minimizedAffinity>
-6.14595413

>  <minimizedRMSD>
1.61405897

$$$$
