
 OpenBabel03272509213D

 46 50  0  0  0  0  0  0  0  0999 V2000
   38.0030   31.2430   47.6990 C   0  0  0  0  0  0  0  0  0  0  0  0
   37.1120   31.2930   48.7540 C   0  0  0  0  0  0  0  0  0  0  0  0
   37.2840   32.4050   49.5890 C   0  0  0  0  0  0  0  0  0  0  0  0
   38.2740   33.3640   49.3570 C   0  0  0  0  0  0  0  0  0  0  0  0
   39.1310   33.2150   48.2500 C   0  0  0  0  0  0  0  0  0  0  0  0
   38.9820   32.1300   47.4120 C   0  0  0  0  0  0  0  0  0  0  0  0
   36.6030   32.4840   50.4340 H   0  0  0  0  0  0  0  0  0  0  0  0
   38.3470   34.1920   50.0420 H   0  0  0  0  0  0  0  0  0  0  0  0
   39.8800   33.9870   48.1170 H   0  0  0  0  0  0  0  0  0  0  0  0
   34.9210   30.3370   48.2460 C   0  0  0  0  0  0  0  0  0  0  0  0
   36.1010   30.3160   48.9940 C   0  0  0  0  0  0  0  0  0  0  0  0
   36.2430   29.3150   49.9650 C   0  0  0  0  0  0  0  0  0  0  0  0
   35.2380   28.4260   50.1290 N   0  0  0  0  0  0  0  0  0  0  0  0
   34.0990   28.4840   49.3750 C   0  0  0  0  0  0  0  0  0  0  0  0
   33.9600   29.4310   48.4530 N   0  0  0  0  0  0  0  0  0  0  0  0
   34.8140   31.1130   47.4960 H   0  0  0  0  0  0  0  0  0  0  0  0
   33.3670   27.7090   49.6070 H   0  0  0  0  0  0  0  0  0  0  0  0
   37.4760   29.2460   50.7870 C   0  0  0  0  0  0  0  0  0  0  0  0
   38.3500   29.4220   50.1020 H   0  0  0  0  0  0  0  0  0  0  0  0
   37.4510   29.9180   51.6500 H   0  0  0  0  0  0  0  0  0  0  0  0
   37.5760   28.1670   51.0770 H   0  0  0  0  0  0  0  0  0  0  0  0
   37.9230   30.1730   46.8000 O   0  0  0  0  0  0  0  0  0  0  0  0
   38.5680   29.4040   46.8780 H   0  0  0  0  0  0  0  0  0  0  0  0
   39.8560   32.0570   46.3560 O   0  0  0  0  0  0  0  0  0  0  0  0
   40.0850   30.9540   44.1240 C   0  0  0  0  0  0  0  0  0  0  0  0
   39.5480   31.8330   45.0380 C   0  0  0  0  0  0  0  0  0  0  0  0
   38.5060   32.6710   44.6220 C   0  0  0  0  0  0  0  0  0  0  0  0
   38.0280   32.6100   43.3040 C   0  0  0  0  0  0  0  0  0  0  0  0
   37.0650   33.2650   42.6160 N   0  0  0  0  0  0  0  0  0  0  0  0
   37.0190   32.8100   41.3560 C   0  0  0  0  0  0  0  0  0  0  0  0
   37.9680   31.8540   41.2500 N   0  0  0  0  0  0  0  0  0  0  0  0
   38.5950   31.7190   42.4350 C   0  0  0  0  0  0  0  0  0  0  0  0
   39.6200   30.8910   42.8350 C   0  0  0  0  0  0  0  0  0  0  0  0
   40.8830   30.3530   44.5480 H   0  0  0  0  0  0  0  0  0  0  0  0
   37.9860   33.4130   45.2280 H   0  0  0  0  0  0  0  0  0  0  0  0
   36.4530   34.0230   43.0410 H   0  0  0  0  0  0  0  0  0  0  0  0
   36.3440   33.1590   40.5920 H   0  0  0  0  0  0  0  0  0  0  0  0
   39.1630   28.0820   42.8060 F   0  0  0  0  0  0  0  0  0  0  0  0
   40.0370   28.5660   41.8990 C   0  0  0  0  0  0  0  0  0  0  0  0
   40.2460   29.9290   41.9290 C   0  0  0  0  0  0  0  0  0  0  0  0
   41.1250   30.5610   41.0450 C   0  0  0  0  0  0  0  0  0  0  0  0
   41.3380   31.6110   41.0090 H   0  0  0  0  0  0  0  0  0  0  0  0
   41.8080   29.7910   40.1100 C   0  0  0  0  0  0  0  0  0  0  0  0
   42.5050   30.2150   39.3960 H   0  0  0  0  0  0  0  0  0  0  0  0
   41.5730   28.4320   40.1130 C   0  0  0  0  0  3  0  0  0  0  0  0
   40.7100   27.7850   40.9740 C   0  0  0  0  0  3  0  0  0  0  0  0
  1  2  1  0  0  0  0
  2 11  1  0  0  0  0
  2  3  2  0  0  0  0
  3  7  1  0  0  0  0
  4  3  1  0  0  0  0
  4  8  1  0  0  0  0
  5  4  2  0  0  0  0
  6  1  2  0  0  0  0
  6  5  1  0  0  0  0
  9  5  1  0  0  0  0
 10 15  2  0  0  0  0
 10 11  1  0  0  0  0
 11 12  2  0  0  0  0
 12 13  1  0  0  0  0
 12 18  1  0  0  0  0
 14 17  1  0  0  0  0
 14 13  2  0  0  0  0
 15 14  1  0  0  0  0
 16 10  1  0  0  0  0
 18 21  1  0  0  0  0
 18 20  1  0  0  0  0
 19 18  1  0  0  0  0
 22 23  1  0  0  0  0
 22  1  1  0  0  0  0
 24  6  1  0  0  0  0
 25 34  1  0  0  0  0
 25 26  1  0  0  0  0
 26 24  1  0  0  0  0
 27 26  2  0  0  0  0
 27 35  1  0  0  0  0
 28 27  1  0  0  0  0
 29 36  1  0  0  0  0
 29 28  1  0  0  0  0
 30 29  1  0  0  0  0
 31 30  2  0  0  0  0
 31 32  1  0  0  0  0
 32 33  1  0  0  0  0
 32 28  2  0  0  0  0
 33 25  2  0  0  0  0
 37 30  1  0  0  0  0
 39 40  1  0  0  0  0
 39 38  1  0  0  0  0
 40 33  1  0  0  0  0
 41 40  2  0  0  0  0
 42 41  1  0  0  0  0
 43 45  2  0  0  0  0
 43 41  1  0  0  0  0
 44 43  1  0  0  0  0
 45 46  1  0  0  0  0
 46 39  2  0  0  0  0
M  END
>  <minimizedAffinity>
-7.61476278

>  <minimizedRMSD>
0.709844112

$$$$
