
 OpenBabel03272506513D

 34 36  0  0  1  0  0  0  0  0999 V2000
   34.6060   30.3560   48.2730 C   0  0  1  0  0  0  0  0  0  0  0  0
   33.6420   30.1720   47.1740 C   0  0  0  0  0  0  0  0  0  0  0  0
   33.3650   28.7690   46.7270 C   0  0  0  0  0  0  0  0  0  0  0  0
   33.3050   27.7890   47.8430 C   0  0  2  0  0  0  0  0  0  0  0  0
   34.2980   27.9260   48.9350 C   0  0  0  0  0  0  0  0  0  0  0  0
   34.4440   29.3590   49.3680 C   0  0  0  0  0  0  0  0  0  0  0  0
   34.3640   31.3520   48.7720 H   0  0  0  0  0  0  0  0  0  0  0  0
   33.7450   30.8500   46.3370 H   0  0  0  0  0  0  0  0  0  0  0  0
   32.6410   30.4830   47.6260 H   0  0  0  0  0  0  0  0  0  0  0  0
   34.1140   28.5250   45.9380 H   0  0  0  0  0  0  0  0  0  0  0  0
   32.3800   28.7410   46.2140 H   0  0  0  0  0  0  0  0  0  0  0  0
   32.2890   27.9340   48.3220 H   0  0  0  0  0  0  0  0  0  0  0  0
   35.2910   27.5810   48.5940 H   0  0  0  0  0  0  0  0  0  0  0  0
   33.9140   27.3670   49.8080 H   0  0  0  0  0  0  0  0  0  0  0  0
   35.1750   29.4110   50.1660 H   0  0  0  0  0  0  0  0  0  0  0  0
   33.4560   29.6120   49.8620 H   0  0  0  0  0  0  0  0  0  0  0  0
   36.4340   30.5500   46.5290 C   0  0  0  0  0  0  0  0  0  0  0  0
   36.0150   30.5540   47.8580 C   0  0  0  0  0  0  0  0  0  0  0  0
   36.9880   30.7700   48.8150 C   0  0  0  0  0  0  0  0  0  0  0  0
   38.2780   30.9640   48.4360 N   0  0  0  0  0  0  0  0  0  0  0  0
   38.6400   30.9530   47.1290 C   0  0  0  0  0  0  0  0  0  0  0  0
   37.7120   30.7430   46.1590 N   0  0  0  0  0  0  0  0  0  0  0  0
   35.7310   30.3860   45.7270 H   0  0  0  0  0  0  0  0  0  0  0  0
   36.8640   30.8120   49.8810 H   0  0  0  0  0  0  0  0  0  0  0  0
   39.6710   31.1090   46.8470 H   0  0  0  0  0  0  0  0  0  0  0  0
   31.3220   25.9150   48.5950 F   0  0  0  0  0  0  0  0  0  0  0  0
   32.3040   25.4860   47.7650 C   0  0  0  0  0  0  0  0  0  0  0  0
   33.3040   26.3860   47.3720 C   0  0  0  0  0  0  0  0  0  0  0  0
   34.2290   25.8190   46.5350 C   0  0  0  0  0  0  0  0  0  0  0  0
   35.0350   26.4170   46.1720 H   0  0  0  0  0  0  0  0  0  0  0  0
   34.1940   24.5080   46.1150 C   0  0  0  0  0  0  0  0  0  0  0  0
   34.9530   24.1090   45.4520 H   0  0  0  0  0  0  0  0  0  0  0  0
   33.1910   23.6790   46.5350 C   0  0  0  0  0  0  0  0  0  0  0  0
   32.2240   24.1800   47.3790 C   0  0  0  0  0  0  0  0  0  0  0  0
  1  7  1  1  0  0  0
  1  6  1  0  0  0  0
  2  9  1  0  0  0  0
  2  1  1  0  0  0  0
  3  2  1  0  0  0  0
  3  4  1  0  0  0  0
  4 12  1  1  0  0  0
  4  5  1  0  0  0  0
  5  6  1  0  0  0  0
  5 14  1  0  0  0  0
  6 16  1  0  0  0  0
  6 15  1  0  0  0  0
  8  2  1  0  0  0  0
 10  3  1  0  0  0  0
 11  3  1  0  0  0  0
 13  5  1  0  0  0  0
 17 18  1  0  0  0  0
 18  1  1  0  0  0  0
 18 19  2  0  0  0  0
 19 24  1  0  0  0  0
 20 19  1  0  0  0  0
 21 20  2  0  0  0  0
 22 17  2  0  0  0  0
 22 21  1  0  0  0  0
 23 17  1  0  0  0  0
 25 21  1  0  0  0  0
 27 26  1  0  0  0  0
 28 27  2  0  0  0  0
 28  4  1  0  0  0  0
 29 28  1  0  0  0  0
 30 29  1  0  0  0  0
 31 29  2  0  0  0  0
 31 33  1  0  0  0  0
 32 31  1  0  0  0  0
 33 34  2  0  0  0  0
 34 27  1  0  0  0  0
M  END
>  <minimizedAffinity>
-4.8529067

>  <minimizedRMSD>
1.95549953

$$$$
