
 OpenBabel03272509213D

 46 50  0  0  0  0  0  0  0  0999 V2000
   37.9590   31.3070   47.7560 C   0  0  0  0  0  0  0  0  0  0  0  0
   37.0860   31.3160   48.8270 C   0  0  0  0  0  0  0  0  0  0  0  0
   37.2500   32.4130   49.6830 C   0  0  0  0  0  0  0  0  0  0  0  0
   38.2150   33.3970   49.4540 C   0  0  0  0  0  0  0  0  0  0  0  0
   39.0550   33.2910   48.3300 C   0  0  0  0  0  0  0  0  0  0  0  0
   38.9140   32.2210   47.4710 C   0  0  0  0  0  0  0  0  0  0  0  0
   36.5820   32.4590   50.5400 H   0  0  0  0  0  0  0  0  0  0  0  0
   38.2820   34.2130   50.1550 H   0  0  0  0  0  0  0  0  0  0  0  0
   39.7840   34.0820   48.2000 H   0  0  0  0  0  0  0  0  0  0  0  0
   34.9080   30.3210   48.3340 C   0  0  0  0  0  0  0  0  0  0  0  0
   36.1000   30.3120   49.0630 C   0  0  0  0  0  0  0  0  0  0  0  0
   36.2800   29.2960   50.0130 C   0  0  0  0  0  0  0  0  0  0  0  0
   35.2960   28.3820   50.1750 N   0  0  0  0  0  0  0  0  0  0  0  0
   34.1450   28.4300   49.4390 C   0  0  0  0  0  0  0  0  0  0  0  0
   33.9710   29.3910   48.5380 N   0  0  0  0  0  0  0  0  0  0  0  0
   34.7730   31.1080   47.6010 H   0  0  0  0  0  0  0  0  0  0  0  0
   33.4340   27.6340   49.6670 H   0  0  0  0  0  0  0  0  0  0  0  0
   37.5270   29.2390   50.8140 C   0  0  0  0  0  0  0  0  0  0  0  0
   38.3850   29.4470   50.1200 H   0  0  0  0  0  0  0  0  0  0  0  0
   37.5000   29.8940   51.6900 H   0  0  0  0  0  0  0  0  0  0  0  0
   37.6540   28.1570   51.0820 H   0  0  0  0  0  0  0  0  0  0  0  0
   37.8860   30.2550   46.8360 O   0  0  0  0  0  0  0  0  0  0  0  0
   38.5480   29.4990   46.8860 H   0  0  0  0  0  0  0  0  0  0  0  0
   39.7710   32.1890   46.3980 O   0  0  0  0  0  0  0  0  0  0  0  0
   40.1130   31.3740   44.0600 C   0  0  0  0  0  0  0  0  0  0  0  0
   39.4410   32.0110   45.0790 C   0  0  0  0  0  0  0  0  0  0  0  0
   38.2040   32.6020   44.7920 C   0  0  0  0  0  0  0  0  0  0  0  0
   37.6710   32.5400   43.4950 C   0  0  0  0  0  0  0  0  0  0  0  0
   36.5360   32.9960   42.9160 N   0  0  0  0  0  0  0  0  0  0  0  0
   36.5200   32.6550   41.6200 C   0  0  0  0  0  0  0  0  0  0  0  0
   37.6620   31.9730   41.3800 N   0  0  0  0  0  0  0  0  0  0  0  0
   38.3780   31.8940   42.5190 C   0  0  0  0  0  0  0  0  0  0  0  0
   39.5950   31.3110   42.7920 C   0  0  0  0  0  0  0  0  0  0  0  0
   41.0580   30.9520   44.3890 H   0  0  0  0  0  0  0  0  0  0  0  0
   37.5610   33.1370   45.4900 H   0  0  0  0  0  0  0  0  0  0  0  0
   35.7890   33.5410   43.4400 H   0  0  0  0  0  0  0  0  0  0  0  0
   35.7330   32.8920   40.9230 H   0  0  0  0  0  0  0  0  0  0  0  0
   40.1360   32.2650   40.1660 F   0  0  0  0  0  0  0  0  0  0  0  0
   40.6460   31.0610   40.4920 C   0  0  0  0  0  0  0  0  0  0  0  0
   40.3740   30.6140   41.7690 C   0  0  0  0  0  0  0  0  0  0  0  0
   40.8420   29.3830   42.2360 C   0  0  0  0  0  0  0  0  0  0  0  0
   40.6710   28.9710   43.2110 H   0  0  0  0  0  0  0  0  0  0  0  0
   41.6040   28.5870   41.3890 C   0  0  0  0  0  0  0  0  0  0  0  0
   41.9990   27.6220   41.6860 H   0  0  0  0  0  0  0  0  0  0  0  0
   41.8540   29.0670   40.1190 C   0  0  0  0  0  3  0  0  0  0  0  0
   41.4040   30.2780   39.6350 C   0  0  0  0  0  3  0  0  0  0  0  0
  1  2  1  0  0  0  0
  2 11  1  0  0  0  0
  2  3  2  0  0  0  0
  3  7  1  0  0  0  0
  4  3  1  0  0  0  0
  4  8  1  0  0  0  0
  5  4  2  0  0  0  0
  6  1  2  0  0  0  0
  6  5  1  0  0  0  0
  9  5  1  0  0  0  0
 10 15  2  0  0  0  0
 10 11  1  0  0  0  0
 11 12  2  0  0  0  0
 12 13  1  0  0  0  0
 12 18  1  0  0  0  0
 14 17  1  0  0  0  0
 14 13  2  0  0  0  0
 15 14  1  0  0  0  0
 16 10  1  0  0  0  0
 18 21  1  0  0  0  0
 18 20  1  0  0  0  0
 19 18  1  0  0  0  0
 22 23  1  0  0  0  0
 22  1  1  0  0  0  0
 24  6  1  0  0  0  0
 25 34  1  0  0  0  0
 25 26  1  0  0  0  0
 26 24  1  0  0  0  0
 27 26  2  0  0  0  0
 27 35  1  0  0  0  0
 28 27  1  0  0  0  0
 29 36  1  0  0  0  0
 29 28  1  0  0  0  0
 30 29  1  0  0  0  0
 31 30  2  0  0  0  0
 31 32  1  0  0  0  0
 32 33  1  0  0  0  0
 32 28  2  0  0  0  0
 33 25  2  0  0  0  0
 37 30  1  0  0  0  0
 38 39  1  0  0  0  0
 39 40  1  0  0  0  0
 40 41  2  0  0  0  0
 40 33  1  0  0  0  0
 41 42  1  0  0  0  0
 43 44  1  0  0  0  0
 43 41  1  0  0  0  0
 45 43  2  0  0  0  0
 46 45  1  0  0  0  0
 46 39  2  0  0  0  0
M  END
>  <minimizedAffinity>
-7.74403429

>  <minimizedRMSD>
0.689885437

$$$$
