
 OpenBabel03272508373D

 44 47  0  0  1  0  0  0  0  0999 V2000
   39.2190   32.1060   43.1110 C   0  0  0  0  0  0  0  0  0  0  0  0
   39.3380   31.0300   43.4410 H   0  0  0  0  0  0  0  0  0  0  0  0
   40.2700   32.3970   42.8590 H   0  0  0  0  0  0  0  0  0  0  0  0
   38.5050   32.0660   41.9000 N   0  0  0  0  0  0  0  0  0  0  0  0
   39.1770   31.5110   40.7960 C   0  0  0  0  0  0  0  0  0  0  0  0
   39.4000   32.4150   39.6450 C   0  0  0  0  0  0  0  0  0  0  0  0
   38.3300   33.2790   39.3970 O   0  0  0  0  0  0  0  0  0  0  0  0
   37.9910   33.9820   40.5040 C   0  0  0  0  0  0  0  0  0  0  0  0
   37.5880   33.0770   41.6290 C   0  0  1  0  0  0  0  0  0  0  0  0
   40.0320   30.8470   40.9620 H   0  0  0  0  0  0  0  0  0  0  0  0
   38.4340   30.7450   40.4650 H   0  0  0  0  0  0  0  0  0  0  0  0
   40.3910   32.7610   39.4000 H   0  0  0  0  0  0  0  0  0  0  0  0
   39.2690   31.7360   38.7150 H   0  0  0  0  0  0  0  0  0  0  0  0
   38.5990   34.8490   40.7650 H   0  0  0  0  0  0  0  0  0  0  0  0
   37.0320   34.4880   40.2170 H   0  0  0  0  0  0  0  0  0  0  0  0
   37.7010   33.7940   42.5440 H   0  0  0  0  0  0  0  0  0  0  0  0
   36.1380   31.1840   39.9410 F   0  0  0  0  0  0  0  0  0  0  0  0
   35.4800   31.8860   40.8850 C   0  0  0  0  0  0  0  0  0  0  0  0
   36.1510   32.7800   41.6560 C   0  0  0  0  0  0  0  0  0  0  0  0
   35.2640   33.4080   42.5450 C   0  0  0  0  0  0  0  0  0  0  0  0
   35.6520   34.1660   43.2420 H   0  0  0  0  0  0  0  0  0  0  0  0
   33.9100   33.1960   42.6700 C   0  0  0  0  0  0  0  0  0  0  0  0
   33.3100   33.7310   43.3880 H   0  0  0  0  0  0  0  0  0  0  0  0
   33.3430   32.2620   41.8320 C   0  0  0  0  0  3  0  0  0  0  0  0
   34.1330   31.5970   40.9290 C   0  0  0  0  0  3  0  0  0  0  0  0
   38.6840   32.8530   44.2310 C   0  0  0  0  0  0  0  0  0  0  0  0
   39.5850   33.2750   44.7940 H   0  0  0  0  0  0  0  0  0  0  0  0
   38.0370   33.7050   44.1560 H   0  0  0  0  0  0  0  0  0  0  0  0
   37.4510   31.0060   47.0500 C   0  0  0  0  0  0  0  0  0  0  0  0
   36.6730   30.4740   46.0390 C   0  0  0  0  0  0  0  0  0  0  0  0
   37.0480   31.1080   44.8580 C   0  0  0  0  0  0  0  0  0  0  0  0
   38.0070   31.9700   45.1820 N   0  0  0  0  0  0  0  0  0  0  0  0
   38.2470   31.9060   46.5000 N   0  0  0  0  0  0  0  0  0  0  0  0
   35.8990   29.6910   46.1660 H   0  0  0  0  0  0  0  0  0  0  0  0
   36.5580   30.8210   44.0040 H   0  0  0  0  0  0  0  0  0  0  0  0
   37.8930   30.6210   50.7610 C   0  0  0  0  0  0  0  0  0  0  0  0
   38.0850   31.1000   49.4740 C   0  0  0  0  0  0  0  0  0  0  0  0
   37.3400   30.5860   48.4230 C   0  0  0  0  0  0  0  0  0  0  0  0
   36.4470   29.6140   48.7650 N   0  0  0  0  0  0  0  0  0  0  0  0
   36.2680   29.1550   50.0190 C   0  0  0  0  0  0  0  0  0  0  0  0
   36.9950   29.6650   51.0080 N   0  0  0  0  0  0  0  0  0  0  0  0
   38.5310   31.1000   51.4960 H   0  0  0  0  0  0  0  0  0  0  0  0
   38.7940   31.8710   49.2060 H   0  0  0  0  0  0  0  0  0  0  0  0
   35.5290   28.3770   50.1820 H   0  0  0  0  0  0  0  0  0  0  0  0
  1  2  1  0  0  0  0
  1 26  1  0  0  0  0
  3  1  1  0  0  0  0
  4  1  1  0  0  0  0
  5 10  1  0  0  0  0
  5  4  1  0  0  0  0
  6  5  1  0  0  0  0
  7  6  1  0  0  0  0
  7  8  1  0  0  0  0
  8 14  1  0  0  0  0
  8  9  1  0  0  0  0
  9 19  1  0  0  0  0
  9  4  1  0  0  0  0
  9 16  1  1  0  0  0
 11  5  1  0  0  0  0
 12  6  1  0  0  0  0
 13  6  1  0  0  0  0
 15  8  1  0  0  0  0
 17 18  1  0  0  0  0
 18 25  2  0  0  0  0
 18 19  1  0  0  0  0
 19 20  2  0  0  0  0
 20 22  1  0  0  0  0
 20 21  1  0  0  0  0
 22 23  1  0  0  0  0
 24 22  2  0  0  0  0
 25 24  1  0  0  0  0
 26 27  1  0  0  0  0
 26 32  1  0  0  0  0
 28 26  1  0  0  0  0
 29 38  1  0  0  0  0
 30 34  1  0  0  0  0
 30 29  1  0  0  0  0
 31 32  1  0  0  0  0
 31 30  2  0  0  0  0
 32 33  1  0  0  0  0
 33 29  2  0  0  0  0
 35 31  1  0  0  0  0
 36 41  1  0  0  0  0
 36 42  1  0  0  0  0
 37 36  2  0  0  0  0
 38 39  2  0  0  0  0
 38 37  1  0  0  0  0
 39 40  1  0  0  0  0
 40 44  1  0  0  0  0
 40 41  2  0  0  0  0
 43 37  1  0  0  0  0
M  END
>  <minimizedAffinity>
-4.75549078

>  <minimizedRMSD>
4.73790741

$$$$
