
 OpenBabel03272507453D

 33 35  0  0  0  0  0  0  0  0999 V2000
   33.2770   28.0890   47.9430 N   0  0  0  0  0  0  0  0  0  0  0  0
   34.1660   27.6710   48.9800 C   0  0  0  0  0  0  0  0  0  0  0  0
   35.3570   28.4730   49.2420 C   0  0  0  0  0  0  0  0  0  0  0  0
   35.8930   29.3210   48.1410 C   0  0  0  0  0  0  0  0  0  0  0  0
   34.8980   29.6720   47.0950 C   0  0  0  0  0  0  0  0  0  0  0  0
   34.0610   28.4140   46.7700 C   0  0  0  0  0  0  0  0  0  0  0  0
   34.4650   26.6150   48.7290 H   0  0  0  0  0  0  0  0  0  0  0  0
   33.5470   27.5650   49.9120 H   0  0  0  0  0  0  0  0  0  0  0  0
   36.1880   27.7990   49.5740 H   0  0  0  0  0  0  0  0  0  0  0  0
   35.1900   29.1350   50.1280 H   0  0  0  0  0  0  0  0  0  0  0  0
   36.7200   28.7620   47.6050 H   0  0  0  0  0  0  0  0  0  0  0  0
   35.4030   29.9120   46.1190 H   0  0  0  0  0  0  0  0  0  0  0  0
   34.2210   30.4830   47.3550 H   0  0  0  0  0  0  0  0  0  0  0  0
   33.4200   28.6120   45.8830 H   0  0  0  0  0  0  0  0  0  0  0  0
   34.7600   27.6040   46.4710 H   0  0  0  0  0  0  0  0  0  0  0  0
   31.8620   28.1730   48.0440 C   0  0  0  0  0  0  0  0  0  0  0  0
   31.0080   28.6130   47.0120 C   0  0  0  0  0  0  0  0  0  0  0  0
   29.6470   28.6390   47.2640 C   0  0  0  0  0  0  0  0  0  0  0  0
   29.1920   28.2390   48.4920 N   0  0  0  0  0  0  0  0  0  0  0  0
   30.0480   27.8290   49.4390 C   0  0  0  0  0  0  0  0  0  0  0  0
   31.3600   27.7950   49.2220 N   0  0  0  0  0  0  0  0  0  0  0  0
   31.5070   28.8910   46.1130 H   0  0  0  0  0  0  0  0  0  0  0  0
   29.0220   28.9820   46.4460 H   0  0  0  0  0  0  0  0  0  0  0  0
   29.6270   27.5280   50.3850 H   0  0  0  0  0  0  0  0  0  0  0  0
   38.1390   30.3470   46.9220 F   0  0  0  0  0  0  0  0  0  0  0  0
   37.6820   31.0670   48.0010 C   0  0  0  0  0  0  0  0  0  0  0  0
   36.5390   30.5610   48.6320 C   0  0  0  0  0  0  0  0  0  0  0  0
   36.1360   31.3300   49.7020 C   0  0  0  0  0  0  0  0  0  0  0  0
   35.2680   31.0140   50.2460 H   0  0  0  0  0  0  0  0  0  0  0  0
   36.7990   32.4730   50.0950 C   0  0  0  0  0  0  0  0  0  0  0  0
   36.4370   33.0400   50.9470 H   0  0  0  0  0  0  0  0  0  0  0  0
   37.9180   32.9080   49.4250 C   0  0  0  0  0  0  0  0  0  0  0  0
   38.3840   32.1940   48.3420 C   0  0  0  0  0  0  0  0  0  0  0  0
  1 16  1  0  0  0  0
  1  2  1  0  0  0  0
  2  3  1  0  0  0  0
  2  8  1  0  0  0  0
  3  9  1  0  0  0  0
  3 10  1  0  0  0  0
  4 27  1  0  0  0  0
  4  3  1  0  0  0  0
  5 13  1  0  0  0  0
  5  4  1  0  0  0  0
  6  5  1  0  0  0  0
  6  1  1  0  0  0  0
  7  2  1  0  0  0  0
 11  4  1  0  0  0  0
 12  5  1  0  0  0  0
 14  6  1  0  0  0  0
 15  6  1  0  0  0  0
 16 21  1  0  0  0  0
 17 18  1  0  0  0  0
 17 16  2  0  0  0  0
 18 19  2  0  0  0  0
 19 20  1  0  0  0  0
 20 24  1  0  0  0  0
 21 20  2  0  0  0  0
 22 17  1  0  0  0  0
 23 18  1  0  0  0  0
 25 26  1  0  0  0  0
 26 33  2  0  0  0  0
 26 27  1  0  0  0  0
 27 28  2  0  0  0  0
 28 30  1  0  0  0  0
 28 29  1  0  0  0  0
 30 31  1  0  0  0  0
 32 30  2  0  0  0  0
 33 32  1  0  0  0  0
M  END
>  <minimizedAffinity>
-5.6574049

>  <minimizedRMSD>
3.74387264

$$$$
