
 OpenBabel03272507193D

 30 32  0  0  1  0  0  0  0  0999 V2000
   37.3550   31.2320   49.4390 C   0  0  0  0  0  0  0  0  0  0  0  0
   38.2610   32.2790   49.5020 C   0  0  0  0  0  0  0  0  0  0  0  0
   38.7500   32.6940   48.2410 C   0  0  0  0  0  0  0  0  0  0  0  0
   38.3390   32.0900   47.0880 N   0  0  0  0  0  0  0  0  0  0  0  0
   37.4510   31.0740   47.1020 C   0  0  0  0  0  0  0  0  0  0  0  0
   36.9480   30.6340   48.2890 N   0  0  0  0  0  0  0  0  0  0  0  0
   38.5640   32.7320   50.4160 H   0  0  0  0  0  0  0  0  0  0  0  0
   39.4510   33.4960   48.2240 H   0  0  0  0  0  0  0  0  0  0  0  0
   34.9040   30.3220   46.0700 F   0  0  0  0  0  0  0  0  0  0  0  0
   35.9420   30.2050   45.2380 C   0  0  0  0  0  0  0  0  0  0  0  0
   37.1510   30.5790   45.7770 C   0  0  0  0  0  0  0  0  0  0  0  0
   38.2950   30.4990   45.0020 C   0  0  0  0  0  0  0  0  0  0  0  0
   39.3150   30.7570   45.2860 H   0  0  0  0  0  0  0  0  0  0  0  0
   38.2260   30.0430   43.6800 C   0  0  0  0  0  0  0  0  0  0  0  0
   39.0650   29.9490   43.0070 H   0  0  0  0  0  0  0  0  0  0  0  0
   37.0030   29.6660   43.1400 C   0  0  0  0  0  3  0  0  0  0  0  0
   35.8830   29.7560   43.9350 C   0  0  0  0  0  3  0  0  0  0  0  0
   36.7980   30.7810   50.7500 C   0  0  1  0  0  0  0  0  0  0  0  0
   36.0560   29.5290   50.8890 C   0  0  2  0  0  0  0  0  0  0  0  0
   37.4970   29.5240   51.2910 C   0  0  0  0  0  0  0  0  0  0  0  0
   36.7610   31.6220   51.4990 H   0  0  0  0  0  0  0  0  0  0  0  0
   35.2200   29.6050   51.6280 H   0  0  0  0  0  0  0  0  0  0  0  0
   38.2330   29.0020   50.6590 H   0  0  0  0  0  0  0  0  0  0  0  0
   37.6400   29.5060   52.3910 H   0  0  0  0  0  0  0  0  0  0  0  0
   35.6820   28.8800   49.7170 O   0  0  0  0  0  0  0  0  0  0  0  0
   34.4510   28.4530   49.3320 C   0  0  0  0  0  0  0  0  0  0  0  0
   34.2950   27.4750   48.5710 O   0  0  0  0  0  0  0  0  0  0  0  0
   33.4880   29.2790   49.9200 N   0  0  0  0  0  0  0  0  0  0  0  0
   33.3480   30.2180   49.4460 H   0  0  0  0  0  0  0  0  0  0  0  0
   33.2070   28.6380   50.6990 H   0  0  0  0  0  0  0  0  0  0  0  0
  1  2  1  0  0  0  0
  1 18  1  0  0  0  0
  2  7  1  0  0  0  0
  3  2  2  0  0  0  0
  4  5  2  0  0  0  0
  4  3  1  0  0  0  0
  5  6  1  0  0  0  0
  6  1  2  0  0  0  0
  8  3  1  0  0  0  0
 10 11  1  0  0  0  0
 10  9  1  0  0  0  0
 11  5  1  0  0  0  0
 12 13  1  0  0  0  0
 12 11  2  0  0  0  0
 14 12  1  0  0  0  0
 15 14  1  0  0  0  0
 16 14  2  0  0  0  0
 16 17  1  0  0  0  0
 17 10  2  0  0  0  0
 18 19  1  0  0  0  0
 18 20  1  0  0  0  0
 18 21  1  1  0  0  0
 19 20  1  0  0  0  0
 19 22  1  1  0  0  0
 20 24  1  0  0  0  0
 23 20  1  0  0  0  0
 25 19  1  0  0  0  0
 26 25  1  0  0  0  0
 26 28  1  0  0  0  0
 27 26  2  0  0  0  0
 28 30  1  0  0  0  0
 29 28  1  0  0  0  0
M  END
>  <minimizedAffinity>
-5.7409606

>  <minimizedRMSD>
0.998235285

$$$$
