
 OpenBabel03262521143D

 31 33  0  0  0  0  0  0  0  0999 V2000
   37.4640   25.4230   32.7130 C   0  0  0  0  0  0  0  0  0  0  0  0
   36.3610   25.7450   31.9590 C   0  0  0  0  0  0  0  0  0  0  0  0
   35.7950   24.6340   31.5170 N   0  0  0  0  0  0  0  0  0  0  0  0
   36.4960   23.5700   31.9600 C   0  0  0  0  0  0  0  0  0  0  0  0
   37.5130   24.0800   32.6890 N   0  0  0  0  0  0  0  0  0  0  0  0
   36.0530   26.7870   31.7910 H   0  0  0  0  0  0  0  0  0  0  0  0
   34.9490   24.5770   30.9270 H   0  0  0  0  0  0  0  0  0  0  0  0
   38.1670   22.0310   30.3250 F   0  0  0  0  0  0  0  0  0  0  0  0
   37.0990   21.4280   30.8990 C   0  0  0  0  0  0  0  0  0  0  0  0
   36.2380   22.1480   31.7190 C   0  0  0  0  0  0  0  0  0  0  0  0
   35.1160   21.5950   32.3450 C   0  0  0  0  0  0  0  0  0  0  0  0
   34.4860   22.2140   32.9730 H   0  0  0  0  0  0  0  0  0  0  0  0
   34.8620   20.2400   32.1220 C   0  0  0  0  0  0  0  0  0  0  0  0
   34.0050   19.8470   32.6090 H   0  0  0  0  0  0  0  0  0  0  0  0
   35.7270   19.5420   31.3050 C   0  0  0  0  0  3  0  0  0  0  0  0
   36.8340   20.0840   30.6850 C   0  0  0  0  0  3  0  0  0  0  0  0
   38.3720   26.2510   33.3800 O   0  0  0  0  0  0  0  0  0  0  0  0
   36.9770   27.8930   34.7830 O   0  0  0  0  0  0  0  0  0  0  0  0
   37.9610   26.7470   34.9370 P   0  0  2  0  0  0  0  0  0  0  0  0
   39.3400   27.2400   35.7890 O   0  0  0  0  0  0  0  0  0  0  0  0
   39.0350   27.7200   36.6150 H   0  0  0  0  0  0  0  0  0  0  0  0
   37.3010   25.4330   35.8170 O   0  0  0  0  0  0  0  0  0  0  0  0
   38.0910   24.5800   36.5730 C   0  0  0  0  0  0  0  0  0  0  0  0
   37.8920   24.2350   37.9090 C   0  0  0  0  0  0  0  0  0  0  0  0
   38.7900   23.3640   38.5000 C   0  0  0  0  0  0  0  0  0  0  0  0
   39.8190   22.8770   37.7840 N   0  0  0  0  0  0  0  0  0  0  0  0
   39.9920   23.2340   36.4670 C   0  0  0  0  0  0  0  0  0  0  0  0
   39.1280   24.0810   35.8720 N   0  0  0  0  0  0  0  0  0  0  0  0
   37.0390   24.6820   38.3830 H   0  0  0  0  0  0  0  0  0  0  0  0
   38.6280   23.1020   39.5360 H   0  0  0  0  0  0  0  0  0  0  0  0
   40.8510   22.8090   35.9240 H   0  0  0  0  0  0  0  0  0  0  0  0
  1 17  1  0  0  0  0
  2  1  2  0  0  0  0
  3  2  1  0  0  0  0
  3  4  1  0  0  0  0
  4  5  2  0  0  0  0
  5  1  1  0  0  0  0
  6  2  1  0  0  0  0
  7  3  1  0  0  0  0
  8  9  1  0  0  0  0
  9 10  1  0  0  0  0
 10  4  1  0  0  0  0
 10 11  2  0  0  0  0
 11 12  1  0  0  0  0
 13 11  1  0  0  0  0
 13 14  1  0  0  0  0
 15 13  2  0  0  0  0
 16  9  2  0  0  0  0
 16 15  1  0  0  0  0
 17 19  1  0  0  0  0
 19 18  2  6  0  0  0
 19 20  1  0  0  0  0
 19 22  1  0  0  0  0
 20 21  1  0  0  0  0
 22 23  1  0  0  0  0
 23 24  1  0  0  0  0
 24 29  1  0  0  0  0
 24 25  2  0  0  0  0
 25 30  1  0  0  0  0
 26 25  1  0  0  0  0
 27 26  2  0  0  0  0
 28 27  1  0  0  0  0
 28 23  2  0  0  0  0
 31 27  1  0  0  0  0
M  END
>  <minimizedAffinity>
-5.8885932

$$$$

 OpenBabel03262521143D

 31 33  0  0  0  0  0  0  0  0999 V2000
   38.9180   23.9360   35.4520 C   0  0  0  0  0  0  0  0  0  0  0  0
   38.4400   23.1320   36.4590 C   0  0  0  0  0  0  0  0  0  0  0  0
   37.7190   22.1560   35.9330 N   0  0  0  0  0  0  0  0  0  0  0  0
   37.7020   22.2870   34.5910 C   0  0  0  0  0  0  0  0  0  0  0  0
   38.4440   23.3850   34.3220 N   0  0  0  0  0  0  0  0  0  0  0  0
   38.6630   23.3280   37.5180 H   0  0  0  0  0  0  0  0  0  0  0  0
   37.2390   21.4060   36.4570 H   0  0  0  0  0  0  0  0  0  0  0  0
   35.3980   20.8320   35.2300 F   0  0  0  0  0  0  0  0  0  0  0  0
   35.8900   20.7350   33.9710 C   0  0  0  0  0  0  0  0  0  0  0  0
   37.0320   21.4380   33.6030 C   0  0  0  0  0  0  0  0  0  0  0  0
   37.5970   21.3880   32.3250 C   0  0  0  0  0  0  0  0  0  0  0  0
   38.4900   21.9630   32.1050 H   0  0  0  0  0  0  0  0  0  0  0  0
   36.9650   20.5820   31.3760 C   0  0  0  0  0  0  0  0  0  0  0  0
   37.4150   20.5640   30.4160 H   0  0  0  0  0  0  0  0  0  0  0  0
   35.8330   19.8920   31.7600 C   0  0  0  0  0  3  0  0  0  0  0  0
   35.2730   19.9370   33.0200 C   0  0  0  0  0  3  0  0  0  0  0  0
   39.7190   25.0800   35.5160 O   0  0  0  0  0  0  0  0  0  0  0  0
   39.9880   27.1340   33.9930 O   0  0  0  0  0  0  0  0  0  0  0  0
   39.0320   26.5310   35.0070 P   0  0  2  0  0  0  0  0  0  0  0  0
   38.8010   27.5750   36.3220 O   0  0  0  0  0  0  0  0  0  0  0  0
   38.5960   28.4870   35.9580 H   0  0  0  0  0  0  0  0  0  0  0  0
   37.4760   26.2450   34.3480 O   0  0  0  0  0  0  0  0  0  0  0  0
   36.7680   27.2280   33.6730 C   0  0  0  0  0  0  0  0  0  0  0  0
   36.4870   27.2550   32.3080 C   0  0  0  0  0  0  0  0  0  0  0  0
   35.7640   28.3240   31.8100 C   0  0  0  0  0  0  0  0  0  0  0  0
   35.3540   29.2990   32.6410 N   0  0  0  0  0  0  0  0  0  0  0  0
   35.6440   29.2480   33.9840 C   0  0  0  0  0  0  0  0  0  0  0  0
   36.3480   28.2150   34.4900 N   0  0  0  0  0  0  0  0  0  0  0  0
   36.8630   26.4250   31.7380 H   0  0  0  0  0  0  0  0  0  0  0  0
   35.5510   28.3370   30.7500 H   0  0  0  0  0  0  0  0  0  0  0  0
   35.2880   30.0710   34.6230 H   0  0  0  0  0  0  0  0  0  0  0  0
  1 17  1  0  0  0  0
  1  2  2  0  0  0  0
  2  6  1  0  0  0  0
  3  7  1  0  0  0  0
  3  2  1  0  0  0  0
  4  3  1  0  0  0  0
  5  4  2  0  0  0  0
  5  1  1  0  0  0  0
  9  8  1  0  0  0  0
 10  9  1  0  0  0  0
 10  4  1  0  0  0  0
 11 10  2  0  0  0  0
 12 11  1  0  0  0  0
 13 15  2  0  0  0  0
 13 11  1  0  0  0  0
 14 13  1  0  0  0  0
 15 16  1  0  0  0  0
 16  9  2  0  0  0  0
 19 18  2  6  0  0  0
 19 17  1  0  0  0  0
 19 20  1  0  0  0  0
 21 20  1  0  0  0  0
 22 19  1  0  0  0  0
 23 22  1  0  0  0  0
 23 28  1  0  0  0  0
 24 23  2  0  0  0  0
 25 24  1  0  0  0  0
 25 26  2  0  0  0  0
 26 27  1  0  0  0  0
 27 28  2  0  0  0  0
 27 31  1  0  0  0  0
 29 24  1  0  0  0  0
 30 25  1  0  0  0  0
M  END
>  <minimizedAffinity>
-5.71406031

$$$$

 OpenBabel03262521143D

 31 33  0  0  0  0  0  0  0  0999 V2000
   37.3580   26.5070   33.8880 C   0  0  0  0  0  0  0  0  0  0  0  0
   37.9370   27.4220   34.7340 C   0  0  0  0  0  0  0  0  0  0  0  0
   38.6770   26.7860   35.6260 N   0  0  0  0  0  0  0  0  0  0  0  0
   38.6080   25.4590   35.3970 C   0  0  0  0  0  0  0  0  0  0  0  0
   37.7940   25.3140   34.3280 N   0  0  0  0  0  0  0  0  0  0  0  0
   37.7680   28.5040   34.6270 H   0  0  0  0  0  0  0  0  0  0  0  0
   39.2260   27.2250   36.3830 H   0  0  0  0  0  0  0  0  0  0  0  0
   37.5600   24.4710   37.7970 F   0  0  0  0  0  0  0  0  0  0  0  0
   38.7020   23.9200   37.3210 C   0  0  0  0  0  0  0  0  0  0  0  0
   39.2640   24.3750   36.1340 C   0  0  0  0  0  0  0  0  0  0  0  0
   40.4390   23.8560   35.5810 C   0  0  0  0  0  0  0  0  0  0  0  0
   40.8220   24.2580   34.6500 H   0  0  0  0  0  0  0  0  0  0  0  0
   41.0710   22.8220   36.2740 C   0  0  0  0  0  0  0  0  0  0  0  0
   41.9600   22.4480   35.8320 H   0  0  0  0  0  0  0  0  0  0  0  0
   40.4990   22.3840   37.4510 C   0  0  0  0  0  3  0  0  0  0  0  0
   39.3400   22.8940   38.0010 C   0  0  0  0  0  3  0  0  0  0  0  0
   36.5030   26.7000   32.8000 O   0  0  0  0  0  0  0  0  0  0  0  0
   38.0410   28.1380   31.3240 O   0  0  0  0  0  0  0  0  0  0  0  0
   37.2140   26.8650   31.2810 P   0  0  2  0  0  0  0  0  0  0  0  0
   36.0280   26.9510   30.0740 O   0  0  0  0  0  0  0  0  0  0  0  0
   36.4720   27.2590   29.2290 H   0  0  0  0  0  0  0  0  0  0  0  0
   38.1600   25.4830   30.9220 O   0  0  0  0  0  0  0  0  0  0  0  0
   37.6360   24.1990   30.9630 C   0  0  0  0  0  0  0  0  0  0  0  0
   38.3570   23.0080   30.8800 C   0  0  0  0  0  0  0  0  0  0  0  0
   37.6580   21.8160   30.9390 C   0  0  0  0  0  0  0  0  0  0  0  0
   36.3190   21.8300   31.0740 N   0  0  0  0  0  0  0  0  0  0  0  0
   35.6330   23.0190   31.1530 C   0  0  0  0  0  0  0  0  0  0  0  0
   36.2950   24.1930   31.0980 N   0  0  0  0  0  0  0  0  0  0  0  0
   39.4200   23.1140   30.7750 H   0  0  0  0  0  0  0  0  0  0  0  0
   38.2250   20.8970   30.8740 H   0  0  0  0  0  0  0  0  0  0  0  0
   34.5380   22.9790   31.2610 H   0  0  0  0  0  0  0  0  0  0  0  0
  1  5  1  0  0  0  0
  1  2  2  0  0  0  0
  2  3  1  0  0  0  0
  3  7  1  0  0  0  0
  4  3  1  0  0  0  0
  4 10  1  0  0  0  0
  5  4  2  0  0  0  0
  6  2  1  0  0  0  0
  9  8  1  0  0  0  0
  9 16  1  0  0  0  0
 10  9  2  0  0  0  0
 11 10  1  0  0  0  0
 11 13  2  0  0  0  0
 12 11  1  0  0  0  0
 13 15  1  0  0  0  0
 14 13  1  0  0  0  0
 15 16  2  0  0  0  0
 17  1  1  0  0  0  0
 19 18  2  6  0  0  0
 19 17  1  0  0  0  0
 20 19  1  0  0  0  0
 21 20  1  0  0  0  0
 22 23  1  0  0  0  0
 22 19  1  0  0  0  0
 23 28  1  0  0  0  0
 24 25  1  0  0  0  0
 24 23  2  0  0  0  0
 25 26  2  0  0  0  0
 26 27  1  0  0  0  0
 27 31  1  0  0  0  0
 28 27  2  0  0  0  0
 29 24  1  0  0  0  0
 30 25  1  0  0  0  0
M  END
>  <minimizedAffinity>
-5.30071878

$$$$

 OpenBabel03262521143D

 31 33  0  0  0  0  0  0  0  0999 V2000
   39.1230   25.3620   31.7730 C   0  0  0  0  0  0  0  0  0  0  0  0
   38.2760   25.7980   30.7830 C   0  0  0  0  0  0  0  0  0  0  0  0
   37.4700   24.8110   30.4310 N   0  0  0  0  0  0  0  0  0  0  0  0
   37.7580   23.7170   31.1650 C   0  0  0  0  0  0  0  0  0  0  0  0
   38.7730   24.0800   31.9800 N   0  0  0  0  0  0  0  0  0  0  0  0
   38.3170   26.8250   30.3910 H   0  0  0  0  0  0  0  0  0  0  0  0
   36.7330   24.8570   29.7090 H   0  0  0  0  0  0  0  0  0  0  0  0
   35.0930   23.3390   31.9340 F   0  0  0  0  0  0  0  0  0  0  0  0
   35.7970   22.2630   31.5090 C   0  0  0  0  0  0  0  0  0  0  0  0
   37.1240   22.3970   31.1160 C   0  0  0  0  0  0  0  0  0  0  0  0
   37.9120   21.3330   30.6660 C   0  0  0  0  0  0  0  0  0  0  0  0
   38.9420   21.5090   30.3750 H   0  0  0  0  0  0  0  0  0  0  0  0
   37.3170   20.0710   30.6150 C   0  0  0  0  0  0  0  0  0  0  0  0
   37.9390   19.2840   30.2700 H   0  0  0  0  0  0  0  0  0  0  0  0
   36.0000   19.9570   31.0090 C   0  0  0  0  0  3  0  0  0  0  0  0
   35.2180   21.0040   31.4540 C   0  0  0  0  0  3  0  0  0  0  0  0
   40.1380   26.0400   32.4550 O   0  0  0  0  0  0  0  0  0  0  0  0
   38.8120   26.8060   34.5210 O   0  0  0  0  0  0  0  0  0  0  0  0
   40.0670   26.0400   34.1380 P   0  0  2  0  0  0  0  0  0  0  0  0
   41.4480   26.7710   34.7930 O   0  0  0  0  0  0  0  0  0  0  0  0
   41.2740   26.9430   35.7650 H   0  0  0  0  0  0  0  0  0  0  0  0
   40.0550   24.4310   34.7270 O   0  0  0  0  0  0  0  0  0  0  0  0
   39.4930   24.0970   35.9500 C   0  0  0  0  0  0  0  0  0  0  0  0
   38.2700   24.5450   36.4480 C   0  0  0  0  0  0  0  0  0  0  0  0
   37.8710   24.1020   37.6970 C   0  0  0  0  0  0  0  0  0  0  0  0
   38.6590   23.2620   38.3920 N   0  0  0  0  0  0  0  0  0  0  0  0
   39.8610   22.8360   37.8770 C   0  0  0  0  0  0  0  0  0  0  0  0
   40.2680   23.2560   36.6620 N   0  0  0  0  0  0  0  0  0  0  0  0
   37.7220   25.2120   35.8090 H   0  0  0  0  0  0  0  0  0  0  0  0
   36.9210   24.4540   38.0750 H   0  0  0  0  0  0  0  0  0  0  0  0
   40.4710   22.1500   38.4860 H   0  0  0  0  0  0  0  0  0  0  0  0
  1  5  1  0  0  0  0
  1 17  1  0  0  0  0
  2  1  2  0  0  0  0
  3  2  1  0  0  0  0
  3  4  1  0  0  0  0
  4  5  2  0  0  0  0
  6  2  1  0  0  0  0
  7  3  1  0  0  0  0
  9  8  1  0  0  0  0
 10  4  1  0  0  0  0
 10  9  2  0  0  0  0
 11 10  1  0  0  0  0
 12 11  1  0  0  0  0
 13 11  2  0  0  0  0
 13 15  1  0  0  0  0
 14 13  1  0  0  0  0
 15 16  2  0  0  0  0
 16  9  1  0  0  0  0
 17 19  1  0  0  0  0
 19 18  2  1  0  0  0
 19 22  1  0  0  0  0
 19 20  1  0  0  0  0
 20 21  1  0  0  0  0
 22 23  1  0  0  0  0
 23 24  2  0  0  0  0
 23 28  1  0  0  0  0
 24 25  1  0  0  0  0
 25 30  1  0  0  0  0
 25 26  2  0  0  0  0
 27 26  1  0  0  0  0
 27 31  1  0  0  0  0
 28 27  2  0  0  0  0
 29 24  1  0  0  0  0
M  END
>  <minimizedAffinity>
-5.27467966

$$$$

 OpenBabel03262521143D

 31 33  0  0  0  0  0  0  0  0999 V2000
   36.8900   26.7330   32.3790 C   0  0  0  0  0  0  0  0  0  0  0  0
   36.1280   26.1950   31.3710 C   0  0  0  0  0  0  0  0  0  0  0  0
   36.0820   27.0430   30.3570 N   0  0  0  0  0  0  0  0  0  0  0  0
   36.8000   28.1420   30.6630 C   0  0  0  0  0  0  0  0  0  0  0  0
   37.2850   27.9280   31.9060 N   0  0  0  0  0  0  0  0  0  0  0  0
   35.6570   25.2040   31.4610 H   0  0  0  0  0  0  0  0  0  0  0  0
   35.5790   26.8970   29.4670 H   0  0  0  0  0  0  0  0  0  0  0  0
   38.2720   28.0320   28.2850 F   0  0  0  0  0  0  0  0  0  0  0  0
   37.7650   29.2280   28.6710 C   0  0  0  0  0  0  0  0  0  0  0  0
   37.0270   29.3360   29.8440 C   0  0  0  0  0  0  0  0  0  0  0  0
   36.4730   30.5340   30.3060 C   0  0  0  0  0  0  0  0  0  0  0  0
   35.9070   30.5470   31.2300 H   0  0  0  0  0  0  0  0  0  0  0  0
   36.6830   31.6770   29.5320 C   0  0  0  0  0  0  0  0  0  0  0  0
   36.2510   32.5710   29.9070 H   0  0  0  0  0  0  0  0  0  0  0  0
   37.4180   31.5500   28.3710 C   0  0  0  0  0  3  0  0  0  0  0  0
   37.9670   30.3700   27.9120 C   0  0  0  0  0  3  0  0  0  0  0  0
   37.2230   26.2140   33.6340 O   0  0  0  0  0  0  0  0  0  0  0  0
   39.2600   27.0540   34.9580 O   0  0  0  0  0  0  0  0  0  0  0  0
   38.8590   25.9810   33.9620 P   0  0  2  0  0  0  0  0  0  0  0  0
   39.7740   26.0970   32.5410 O   0  0  0  0  0  0  0  0  0  0  0  0
   40.7400   26.1660   32.8020 H   0  0  0  0  0  0  0  0  0  0  0  0
   39.1170   24.3980   34.5670 O   0  0  0  0  0  0  0  0  0  0  0  0
   38.9340   24.0820   35.9050 C   0  0  0  0  0  0  0  0  0  0  0  0
   37.8920   24.5160   36.7230 C   0  0  0  0  0  0  0  0  0  0  0  0
   37.8750   24.0940   38.0410 C   0  0  0  0  0  0  0  0  0  0  0  0
   38.8490   23.2860   38.4970 N   0  0  0  0  0  0  0  0  0  0  0  0
   39.8660   22.8730   37.6690 C   0  0  0  0  0  0  0  0  0  0  0  0
   39.9010   23.2720   36.3810 N   0  0  0  0  0  0  0  0  0  0  0  0
   37.1680   25.1570   36.2550 H   0  0  0  0  0  0  0  0  0  0  0  0
   37.0630   24.4360   38.6680 H   0  0  0  0  0  0  0  0  0  0  0  0
   40.6410   22.2130   38.0900 H   0  0  0  0  0  0  0  0  0  0  0  0
  1 17  1  0  0  0  0
  2  6  1  0  0  0  0
  2  1  2  0  0  0  0
  3  4  1  0  0  0  0
  3  2  1  0  0  0  0
  4  5  2  0  0  0  0
  5  1  1  0  0  0  0
  7  3  1  0  0  0  0
  8  9  1  0  0  0  0
  9 10  1  0  0  0  0
 10 11  2  0  0  0  0
 10  4  1  0  0  0  0
 11 12  1  0  0  0  0
 13 14  1  0  0  0  0
 13 11  1  0  0  0  0
 15 13  2  0  0  0  0
 16 15  1  0  0  0  0
 16  9  2  0  0  0  0
 17 19  1  0  0  0  0
 19 22  1  0  0  0  0
 19 18  2  1  0  0  0
 20 21  1  0  0  0  0
 20 19  1  0  0  0  0
 22 23  1  0  0  0  0
 23 28  2  0  0  0  0
 23 24  1  0  0  0  0
 24 25  2  0  0  0  0
 25 26  1  0  0  0  0
 25 30  1  0  0  0  0
 27 31  1  0  0  0  0
 27 26  2  0  0  0  0
 28 27  1  0  0  0  0
 29 24  1  0  0  0  0
M  END
>  <minimizedAffinity>
-5.24217653

$$$$

 OpenBabel03262521143D

 31 33  0  0  0  0  0  0  0  0999 V2000
   37.7960   25.5990   35.8930 C   0  0  0  0  0  0  0  0  0  0  0  0
   38.3000   26.7630   36.4200 C   0  0  0  0  0  0  0  0  0  0  0  0
   38.0570   27.7610   35.5870 N   0  0  0  0  0  0  0  0  0  0  0  0
   37.3970   27.2910   34.5090 C   0  0  0  0  0  0  0  0  0  0  0  0
   37.2510   25.9640   34.7210 N   0  0  0  0  0  0  0  0  0  0  0  0
   38.8150   26.7890   37.3920 H   0  0  0  0  0  0  0  0  0  0  0  0
   38.3240   28.7490   35.7290 H   0  0  0  0  0  0  0  0  0  0  0  0
   35.1510   28.9550   34.6320 F   0  0  0  0  0  0  0  0  0  0  0  0
   35.8050   28.8470   33.4510 C   0  0  0  0  0  0  0  0  0  0  0  0
   36.9260   28.0330   33.3370 C   0  0  0  0  0  0  0  0  0  0  0  0
   37.6520   27.8710   32.1530 C   0  0  0  0  0  0  0  0  0  0  0  0
   38.5190   27.2200   32.1340 H   0  0  0  0  0  0  0  0  0  0  0  0
   37.2120   28.5750   31.0300 C   0  0  0  0  0  0  0  0  0  0  0  0
   37.7810   28.4330   30.1460 H   0  0  0  0  0  0  0  0  0  0  0  0
   36.0970   29.3770   31.1620 C   0  0  0  0  0  3  0  0  0  0  0  0
   35.3770   29.5390   32.3280 C   0  0  0  0  0  3  0  0  0  0  0  0
   37.8110   24.2970   36.4050 O   0  0  0  0  0  0  0  0  0  0  0  0
   39.9380   22.9860   37.0120 O   0  0  0  0  0  0  0  0  0  0  0  0
   39.0130   23.2620   35.8390 P   0  0  2  0  0  0  0  0  0  0  0  0
   39.8570   23.9740   34.5530 O   0  0  0  0  0  0  0  0  0  0  0  0
   40.6840   23.4310   34.3900 H   0  0  0  0  0  0  0  0  0  0  0  0
   38.3090   21.8310   35.2120 O   0  0  0  0  0  0  0  0  0  0  0  0
   37.3820   21.8560   34.1810 C   0  0  0  0  0  0  0  0  0  0  0  0
   36.2790   21.0140   34.0400 C   0  0  0  0  0  0  0  0  0  0  0  0
   35.4600   21.1890   32.9380 C   0  0  0  0  0  0  0  0  0  0  0  0
   35.7410   22.1510   32.0420 N   0  0  0  0  0  0  0  0  0  0  0  0
   36.8360   22.9680   32.2050 C   0  0  0  0  0  0  0  0  0  0  0  0
   37.6460   22.8150   33.2710 N   0  0  0  0  0  0  0  0  0  0  0  0
   36.1500   20.2820   34.8140 H   0  0  0  0  0  0  0  0  0  0  0  0
   34.6070   20.5320   32.8370 H   0  0  0  0  0  0  0  0  0  0  0  0
   37.0240   23.7400   31.4430 H   0  0  0  0  0  0  0  0  0  0  0  0
  1 17  1  0  0  0  0
  1  2  2  0  0  0  0
  2  6  1  0  0  0  0
  3  7  1  0  0  0  0
  3  2  1  0  0  0  0
  4  5  2  0  0  0  0
  4  3  1  0  0  0  0
  5  1  1  0  0  0  0
  9  8  1  0  0  0  0
 10  9  1  0  0  0  0
 10  4  1  0  0  0  0
 11 10  2  0  0  0  0
 12 11  1  0  0  0  0
 13 15  2  0  0  0  0
 13 11  1  0  0  0  0
 14 13  1  0  0  0  0
 15 16  1  0  0  0  0
 16  9  2  0  0  0  0
 19 17  1  0  0  0  0
 19 18  2  1  0  0  0
 20 19  1  0  0  0  0
 21 20  1  0  0  0  0
 22 19  1  0  0  0  0
 23 22  1  0  0  0  0
 24 23  1  0  0  0  0
 24 29  1  0  0  0  0
 25 24  2  0  0  0  0
 26 27  2  0  0  0  0
 26 25  1  0  0  0  0
 27 28  1  0  0  0  0
 28 23  2  0  0  0  0
 30 25  1  0  0  0  0
 31 27  1  0  0  0  0
M  END
>  <minimizedAffinity>
-5.22898149

$$$$

 OpenBabel03262521143D

 31 33  0  0  0  0  0  0  0  0999 V2000
   38.8340   25.6690   32.2270 C   0  0  0  0  0  0  0  0  0  0  0  0
   40.1290   26.0050   32.5400 C   0  0  0  0  0  0  0  0  0  0  0  0
   40.3990   25.6050   33.7710 N   0  0  0  0  0  0  0  0  0  0  0  0
   39.3110   25.0040   34.2940 C   0  0  0  0  0  0  0  0  0  0  0  0
   38.3660   25.0560   33.3280 N   0  0  0  0  0  0  0  0  0  0  0  0
   40.7850   26.5270   31.8270 H   0  0  0  0  0  0  0  0  0  0  0  0
   41.2990   25.7270   34.2660 H   0  0  0  0  0  0  0  0  0  0  0  0
   37.3920   25.9460   36.1010 F   0  0  0  0  0  0  0  0  0  0  0  0
   38.1830   24.9150   36.4840 C   0  0  0  0  0  0  0  0  0  0  0  0
   39.1520   24.4100   35.6240 C   0  0  0  0  0  0  0  0  0  0  0  0
   40.0030   23.3500   35.9480 C   0  0  0  0  0  0  0  0  0  0  0  0
   40.7380   23.0060   35.2290 H   0  0  0  0  0  0  0  0  0  0  0  0
   39.8590   22.7770   37.2130 C   0  0  0  0  0  0  0  0  0  0  0  0
   40.5180   21.9750   37.4320 H   0  0  0  0  0  0  0  0  0  0  0  0
   38.8930   23.2910   38.0540 C   0  0  0  0  0  3  0  0  0  0  0  0
   38.0510   24.3370   37.7380 C   0  0  0  0  0  3  0  0  0  0  0  0
   38.1060   25.8820   31.0530 O   0  0  0  0  0  0  0  0  0  0  0  0
   35.5760   26.0010   31.4960 O   0  0  0  0  0  0  0  0  0  0  0  0
   36.7600   26.8890   31.1540 P   0  0  2  0  0  0  0  0  0  0  0  0
   36.5080   27.6980   29.6870 O   0  0  0  0  0  0  0  0  0  0  0  0
   35.5960   28.1120   29.7170 H   0  0  0  0  0  0  0  0  0  0  0  0
   37.0240   28.1060   32.3310 O   0  0  0  0  0  0  0  0  0  0  0  0
   35.9890   28.8770   32.8400 C   0  0  0  0  0  0  0  0  0  0  0  0
   35.6900   29.0750   34.1880 C   0  0  0  0  0  0  0  0  0  0  0  0
   34.6130   29.8820   34.5070 C   0  0  0  0  0  0  0  0  0  0  0  0
   33.8890   30.4500   33.5270 N   0  0  0  0  0  0  0  0  0  0  0  0
   34.2050   30.2390   32.2050 C   0  0  0  0  0  0  0  0  0  0  0  0
   35.2510   29.4560   31.8720 N   0  0  0  0  0  0  0  0  0  0  0  0
   36.3350   28.5740   34.8860 H   0  0  0  0  0  0  0  0  0  0  0  0
   34.3890   30.0290   35.5550 H   0  0  0  0  0  0  0  0  0  0  0  0
   33.5810   30.7250   31.4390 H   0  0  0  0  0  0  0  0  0  0  0  0
  1  2  2  0  0  0  0
  1  5  1  0  0  0  0
  2  3  1  0  0  0  0
  3  7  1  0  0  0  0
  3  4  1  0  0  0  0
  4 10  1  0  0  0  0
  5  4  2  0  0  0  0
  6  2  1  0  0  0  0
  8  9  1  0  0  0  0
  9 16  1  0  0  0  0
 10 11  1  0  0  0  0
 10  9  2  0  0  0  0
 11 13  2  0  0  0  0
 12 11  1  0  0  0  0
 13 14  1  0  0  0  0
 13 15  1  0  0  0  0
 16 15  2  0  0  0  0
 17 19  1  0  0  0  0
 17  1  1  0  0  0  0
 19 18  2  1  0  0  0
 19 22  1  0  0  0  0
 20 21  1  0  0  0  0
 20 19  1  0  0  0  0
 22 23  1  0  0  0  0
 23 24  1  0  0  0  0
 24 25  2  0  0  0  0
 24 29  1  0  0  0  0
 25 30  1  0  0  0  0
 26 25  1  0  0  0  0
 27 26  2  0  0  0  0
 28 27  1  0  0  0  0
 28 23  2  0  0  0  0
 31 27  1  0  0  0  0
M  END
>  <minimizedAffinity>
-5.22626352

$$$$

 OpenBabel03262521143D

 31 33  0  0  0  0  0  0  0  0999 V2000
   36.7180   25.2540   32.2360 C   0  0  0  0  0  0  0  0  0  0  0  0
   35.7070   25.3490   31.3120 C   0  0  0  0  0  0  0  0  0  0  0  0
   35.3270   24.1330   30.9530 N   0  0  0  0  0  0  0  0  0  0  0  0
   36.0630   23.2210   31.6200 C   0  0  0  0  0  0  0  0  0  0  0  0
   36.9080   23.9330   32.3990 N   0  0  0  0  0  0  0  0  0  0  0  0
   35.3210   26.3190   30.9670 H   0  0  0  0  0  0  0  0  0  0  0  0
   34.5840   23.9060   30.2720 H   0  0  0  0  0  0  0  0  0  0  0  0
   37.9850   21.7280   30.2380 F   0  0  0  0  0  0  0  0  0  0  0  0
   36.9700   21.0650   30.8410 C   0  0  0  0  0  0  0  0  0  0  0  0
   35.9890   21.7600   31.5410 C   0  0  0  0  0  0  0  0  0  0  0  0
   34.9130   21.1460   32.1880 C   0  0  0  0  0  0  0  0  0  0  0  0
   34.1830   21.7490   32.7160 H   0  0  0  0  0  0  0  0  0  0  0  0
   34.8340   19.7530   32.1190 C   0  0  0  0  0  0  0  0  0  0  0  0
   34.0080   19.3140   32.6190 H   0  0  0  0  0  0  0  0  0  0  0  0
   35.8160   19.0810   31.4200 C   0  0  0  0  0  3  0  0  0  0  0  0
   36.8790   19.6830   30.7790 C   0  0  0  0  0  3  0  0  0  0  0  0
   37.4320   26.2580   32.8980 O   0  0  0  0  0  0  0  0  0  0  0  0
   39.7170   27.3410   32.4320 O   0  0  0  0  0  0  0  0  0  0  0  0
   39.1030   26.0730   33.0020 P   0  0  2  0  0  0  0  0  0  0  0  0
   39.6080   24.7100   32.1320 O   0  0  0  0  0  0  0  0  0  0  0  0
   40.6050   24.7550   32.0400 H   0  0  0  0  0  0  0  0  0  0  0  0
   39.5640   25.7980   34.6290 O   0  0  0  0  0  0  0  0  0  0  0  0
   38.9330   24.8550   35.4250 C   0  0  0  0  0  0  0  0  0  0  0  0
   38.1400   25.1130   36.5430 C   0  0  0  0  0  0  0  0  0  0  0  0
   37.5890   24.0370   37.2160 C   0  0  0  0  0  0  0  0  0  0  0  0
   37.8250   22.7850   36.7840 N   0  0  0  0  0  0  0  0  0  0  0  0
   38.6110   22.5590   35.6780 C   0  0  0  0  0  0  0  0  0  0  0  0
   39.1570   23.5930   35.0080 N   0  0  0  0  0  0  0  0  0  0  0  0
   38.0180   26.1490   36.7980 H   0  0  0  0  0  0  0  0  0  0  0  0
   36.9760   24.2460   38.0820 H   0  0  0  0  0  0  0  0  0  0  0  0
   38.7760   21.5160   35.3650 H   0  0  0  0  0  0  0  0  0  0  0  0
  1  5  1  0  0  0  0
  1 17  1  0  0  0  0
  2  1  2  0  0  0  0
  3  2  1  0  0  0  0
  3  4  1  0  0  0  0
  4  5  2  0  0  0  0
  6  2  1  0  0  0  0
  7  3  1  0  0  0  0
  8  9  1  0  0  0  0
  9 10  1  0  0  0  0
 10  4  1  0  0  0  0
 10 11  2  0  0  0  0
 11 12  1  0  0  0  0
 13 11  1  0  0  0  0
 13 14  1  0  0  0  0
 15 13  2  0  0  0  0
 16  9  2  0  0  0  0
 16 15  1  0  0  0  0
 17 19  1  0  0  0  0
 19 18  2  6  0  0  0
 19 22  1  0  0  0  0
 20 19  1  0  0  0  0
 21 20  1  0  0  0  0
 22 23  1  0  0  0  0
 23 24  1  0  0  0  0
 24 29  1  0  0  0  0
 24 25  2  0  0  0  0
 25 30  1  0  0  0  0
 26 25  1  0  0  0  0
 27 26  2  0  0  0  0
 28 23  2  0  0  0  0
 28 27  1  0  0  0  0
 31 27  1  0  0  0  0
M  END
>  <minimizedAffinity>
-5.19828224

$$$$

 OpenBabel03262521143D

 31 33  0  0  0  0  0  0  0  0999 V2000
   37.6350   23.3500   32.5790 C   0  0  0  0  0  0  0  0  0  0  0  0
   37.2090   22.0730   32.8570 C   0  0  0  0  0  0  0  0  0  0  0  0
   37.4370   21.8040   34.1310 N   0  0  0  0  0  0  0  0  0  0  0  0
   38.0070   22.8760   34.7180 C   0  0  0  0  0  0  0  0  0  0  0  0
   38.1180   23.8090   33.7470 N   0  0  0  0  0  0  0  0  0  0  0  0
   36.7570   21.4290   32.0880 H   0  0  0  0  0  0  0  0  0  0  0  0
   37.2170   20.9170   34.6130 H   0  0  0  0  0  0  0  0  0  0  0  0
   40.4450   21.8500   35.6330 F   0  0  0  0  0  0  0  0  0  0  0  0
   39.6510   22.5020   36.5160 C   0  0  0  0  0  0  0  0  0  0  0  0
   38.4310   23.0300   36.1120 C   0  0  0  0  0  0  0  0  0  0  0  0
   37.5600   23.7150   36.9650 C   0  0  0  0  0  0  0  0  0  0  0  0
   36.6210   24.1010   36.5840 H   0  0  0  0  0  0  0  0  0  0  0  0
   37.9540   23.8670   38.2960 C   0  0  0  0  0  0  0  0  0  0  0  0
   37.2740   24.3900   38.9200 H   0  0  0  0  0  0  0  0  0  0  0  0
   39.1690   23.3360   38.6790 C   0  0  0  0  0  3  0  0  0  0  0  0
   40.0320   22.6600   37.8410 C   0  0  0  0  0  3  0  0  0  0  0  0
   37.6030   24.0710   31.3810 O   0  0  0  0  0  0  0  0  0  0  0  0
   39.1010   25.1300   29.5790 O   0  0  0  0  0  0  0  0  0  0  0  0
   38.8840   25.1230   31.0820 P   0  0  2  0  0  0  0  0  0  0  0  0
   40.2790   24.6110   31.8960 O   0  0  0  0  0  0  0  0  0  0  0  0
   41.0560   25.1280   31.5300 H   0  0  0  0  0  0  0  0  0  0  0  0
   38.5190   26.6810   31.6960 O   0  0  0  0  0  0  0  0  0  0  0  0
   38.4810   26.9480   33.0570 C   0  0  0  0  0  0  0  0  0  0  0  0
   37.3570   27.3140   33.7960 C   0  0  0  0  0  0  0  0  0  0  0  0
   37.5120   27.5410   35.1520 C   0  0  0  0  0  0  0  0  0  0  0  0
   38.7240   27.4040   35.7190 N   0  0  0  0  0  0  0  0  0  0  0  0
   39.8160   27.0410   34.9670 C   0  0  0  0  0  0  0  0  0  0  0  0
   39.6870   26.8150   33.6430 N   0  0  0  0  0  0  0  0  0  0  0  0
   36.4400   27.3930   33.2420 H   0  0  0  0  0  0  0  0  0  0  0  0
   36.6350   27.8250   35.7180 H   0  0  0  0  0  0  0  0  0  0  0  0
   40.7870   26.9430   35.4770 H   0  0  0  0  0  0  0  0  0  0  0  0
  1  2  2  0  0  0  0
  1  5  1  0  0  0  0
  2  3  1  0  0  0  0
  3  7  1  0  0  0  0
  3  4  1  0  0  0  0
  4 10  1  0  0  0  0
  5  4  2  0  0  0  0
  6  2  1  0  0  0  0
  8  9  1  0  0  0  0
  9 16  1  0  0  0  0
 10  9  2  0  0  0  0
 10 11  1  0  0  0  0
 11 13  2  0  0  0  0
 12 11  1  0  0  0  0
 13 15  1  0  0  0  0
 13 14  1  0  0  0  0
 16 15  2  0  0  0  0
 17  1  1  0  0  0  0
 19 18  2  6  0  0  0
 19 17  1  0  0  0  0
 19 22  1  0  0  0  0
 19 20  1  0  0  0  0
 21 20  1  0  0  0  0
 22 23  1  0  0  0  0
 23 28  2  0  0  0  0
 23 24  1  0  0  0  0
 24 25  2  0  0  0  0
 25 30  1  0  0  0  0
 25 26  1  0  0  0  0
 27 31  1  0  0  0  0
 27 26  2  0  0  0  0
 28 27  1  0  0  0  0
 29 24  1  0  0  0  0
M  END
>  <minimizedAffinity>
-5.15242767

$$$$
