
 OpenBabel03272508373D

 44 47  0  0  1  0  0  0  0  0999 V2000
   40.4520   31.8020   44.5140 C   0  0  0  0  0  0  0  0  0  0  0  0
   40.2940   30.7240   44.8200 H   0  0  0  0  0  0  0  0  0  0  0  0
   41.5690   31.8870   44.5080 H   0  0  0  0  0  0  0  0  0  0  0  0
   40.0290   31.8940   43.1760 N   0  0  0  0  0  0  0  0  0  0  0  0
   39.3570   33.0760   42.8130 C   0  0  0  0  0  0  0  0  0  0  0  0
   37.9610   32.9160   42.3470 C   0  0  0  0  0  0  0  0  0  0  0  0
   37.7600   31.7780   41.5630 O   0  0  0  0  0  0  0  0  0  0  0  0
   38.1890   30.6570   42.1920 C   0  0  0  0  0  0  0  0  0  0  0  0
   39.6520   30.7320   42.5110 C   0  0  1  0  0  0  0  0  0  0  0  0
   39.4820   33.9770   43.4220 H   0  0  0  0  0  0  0  0  0  0  0  0
   39.9600   33.3910   41.9250 H   0  0  0  0  0  0  0  0  0  0  0  0
   37.1370   33.2630   42.9490 H   0  0  0  0  0  0  0  0  0  0  0  0
   37.8460   33.7060   41.5050 H   0  0  0  0  0  0  0  0  0  0  0  0
   37.5420   30.2190   42.9530 H   0  0  0  0  0  0  0  0  0  0  0  0
   38.1320   29.8670   41.3990 H   0  0  0  0  0  0  0  0  0  0  0  0
   39.7430   29.9090   43.3360 H   0  0  0  0  0  0  0  0  0  0  0  0
   40.8180   28.0570   42.3720 F   0  0  0  0  0  0  0  0  0  0  0  0
   41.0370   28.9390   41.3770 C   0  0  0  0  0  0  0  0  0  0  0  0
   40.5100   30.1900   41.4510 C   0  0  0  0  0  0  0  0  0  0  0  0
   40.8860   30.9370   40.3240 C   0  0  0  0  0  0  0  0  0  0  0  0
   40.5420   31.9770   40.2320 H   0  0  0  0  0  0  0  0  0  0  0  0
   41.6680   30.5260   39.2670 C   0  0  0  0  0  0  0  0  0  0  0  0
   41.9030   31.1790   38.4410 H   0  0  0  0  0  0  0  0  0  0  0  0
   42.1420   29.2350   39.3040 C   0  0  0  0  0  0  0  0  0  0  0  0
   41.8250   28.4290   40.3690 C   0  0  0  0  0  0  0  0  0  0  0  0
   39.8320   32.6410   45.5180 C   0  0  0  0  0  0  0  0  0  0  0  0
   40.6460   32.8750   46.2870 H   0  0  0  0  0  0  0  0  0  0  0  0
   39.3960   33.6040   45.3400 H   0  0  0  0  0  0  0  0  0  0  0  0
   37.7180   30.9790   47.8960 C   0  0  0  0  0  0  0  0  0  0  0  0
   36.9860   30.8000   46.7370 C   0  0  0  0  0  0  0  0  0  0  0  0
   37.6980   31.4040   45.7050 C   0  0  0  0  0  0  0  0  0  0  0  0
   38.7990   31.9100   46.2550 N   0  0  0  0  0  0  0  0  0  0  0  0
   38.8070   31.6530   47.5700 N   0  0  0  0  0  0  0  0  0  0  0  0
   36.0140   30.2720   46.6640 H   0  0  0  0  0  0  0  0  0  0  0  0
   37.2840   31.3580   44.7680 H   0  0  0  0  0  0  0  0  0  0  0  0
   37.4400   30.1670   51.5540 C   0  0  0  0  0  0  0  0  0  0  0  0
   37.9490   30.6930   50.3750 C   0  0  0  0  0  0  0  0  0  0  0  0
   37.2860   30.4810   49.1760 C   0  0  0  0  0  0  0  0  0  0  0  0
   36.1430   29.7440   49.2670 N   0  0  0  0  0  0  0  0  0  0  0  0
   35.6560   29.2360   50.4160 C   0  0  0  0  0  0  0  0  0  0  0  0
   36.3110   29.4540   51.5520 N   0  0  0  0  0  0  0  0  0  0  0  0
   38.0440   30.3990   52.4230 H   0  0  0  0  0  0  0  0  0  0  0  0
   38.8560   31.2780   50.3070 H   0  0  0  0  0  0  0  0  0  0  0  0
   34.7360   28.6620   50.3770 H   0  0  0  0  0  0  0  0  0  0  0  0
  1  2  1  0  0  0  0
  1 26  1  0  0  0  0
  3  1  1  0  0  0  0
  4  1  1  0  0  0  0
  5  4  1  0  0  0  0
  5 10  1  0  0  0  0
  6  5  1  0  0  0  0
  6 12  1  0  0  0  0
  7  8  1  0  0  0  0
  7  6  1  0  0  0  0
  8  9  1  0  0  0  0
  8 14  1  0  0  0  0
  9  4  1  0  0  0  0
  9 16  1  1  0  0  0
 11  5  1  0  0  0  0
 13  6  1  0  0  0  0
 15  8  1  0  0  0  0
 18 19  1  0  0  0  0
 18 17  1  0  0  0  0
 19  9  1  0  0  0  0
 20 19  2  0  0  0  0
 21 20  1  0  0  0  0
 22 24  2  0  0  0  0
 22 20  1  0  0  0  0
 23 22  1  0  0  0  0
 24 25  1  0  0  0  0
 25 18  2  0  0  0  0
 26 32  1  0  0  0  0
 26 27  1  0  0  0  0
 28 26  1  0  0  0  0
 29 38  1  0  0  0  0
 30 29  1  0  0  0  0
 31 32  1  0  0  0  0
 31 30  2  0  0  0  0
 32 33  1  0  0  0  0
 33 29  2  0  0  0  0
 34 30  1  0  0  0  0
 35 31  1  0  0  0  0
 36 42  1  0  0  0  0
 37 36  2  0  0  0  0
 38 39  2  0  0  0  0
 38 37  1  0  0  0  0
 39 40  1  0  0  0  0
 40 41  2  0  0  0  0
 41 36  1  0  0  0  0
 43 37  1  0  0  0  0
 44 40  1  0  0  0  0
M  END
>  <minimizedAffinity>
-5.93120098

>  <minimizedRMSD>
0.888446331

$$$$
