
 OpenBabel03272506173D

 34 36  0  0  0  0  0  0  0  0999 V2000
   34.5690   29.6680   49.0140 C   0  0  0  0  0  0  0  0  0  0  0  0
   34.5430   30.1240   47.6880 C   0  0  0  0  0  0  0  0  0  0  0  0
   33.7120   29.4340   46.7980 C   0  0  0  0  0  0  0  0  0  0  0  0
   32.9770   28.3600   47.2620 N   0  0  0  0  0  0  0  0  0  0  0  0
   33.0370   27.9580   48.5480 C   0  0  0  0  0  0  0  0  0  0  0  0
   33.8260   28.6080   49.4140 N   0  0  0  0  0  0  0  0  0  0  0  0
   35.0870   30.9410   47.3000 H   0  0  0  0  0  0  0  0  0  0  0  0
   32.4500   27.1190   48.8750 H   0  0  0  0  0  0  0  0  0  0  0  0
   35.4480   30.4210   49.9590 C   0  0  0  0  0  0  0  0  0  0  0  0
   36.4510   31.2400   49.1780 C   0  0  0  0  0  0  0  0  0  0  0  0
   37.8510   30.7180   49.3200 C   0  0  0  0  0  0  0  0  0  0  0  0
   38.2880   30.6160   50.7540 C   0  0  0  0  0  0  0  0  0  0  0  0
   37.2590   29.9800   51.6360 C   0  0  0  0  0  0  0  0  0  0  0  0
   36.0620   29.4430   50.8910 C   0  0  0  0  0  0  0  0  0  0  0  0
   34.7610   31.1280   50.4810 H   0  0  0  0  0  0  0  0  0  0  0  0
   36.4640   32.2740   49.5790 H   0  0  0  0  0  0  0  0  0  0  0  0
   36.2190   31.3370   48.1060 H   0  0  0  0  0  0  0  0  0  0  0  0
   38.5130   31.4720   48.8140 H   0  0  0  0  0  0  0  0  0  0  0  0
   37.9020   29.7490   48.7990 H   0  0  0  0  0  0  0  0  0  0  0  0
   38.4940   31.6580   51.1160 H   0  0  0  0  0  0  0  0  0  0  0  0
   39.2620   30.0850   50.7690 H   0  0  0  0  0  0  0  0  0  0  0  0
   37.7370   29.0970   52.1170 H   0  0  0  0  0  0  0  0  0  0  0  0
   36.9760   30.6660   52.4600 H   0  0  0  0  0  0  0  0  0  0  0  0
   36.3140   28.4740   50.4280 H   0  0  0  0  0  0  0  0  0  0  0  0
   35.3080   29.1900   51.6780 H   0  0  0  0  0  0  0  0  0  0  0  0
   32.0040   31.4590   45.9540 F   0  0  0  0  0  0  0  0  0  0  0  0
   32.7270   30.7890   44.9980 C   0  0  0  0  0  0  0  0  0  0  0  0
   33.5780   29.7830   45.4030 C   0  0  0  0  0  0  0  0  0  0  0  0
   34.2500   29.1810   44.3650 C   0  0  0  0  0  0  0  0  0  0  0  0
   34.9390   28.3820   44.5830 H   0  0  0  0  0  0  0  0  0  0  0  0
   34.1110   29.5250   43.0380 C   0  0  0  0  0  0  0  0  0  0  0  0
   34.6700   29.0120   42.2600 H   0  0  0  0  0  0  0  0  0  0  0  0
   33.2440   30.5380   42.7040 C   0  0  0  0  0  0  0  0  0  0  0  0
   32.5460   31.1750   43.7060 C   0  0  0  0  0  0  0  0  0  0  0  0
  1  6  1  0  0  0  0
  1  9  1  0  0  0  0
  2  1  2  0  0  0  0
  3  4  2  0  0  0  0
  3  2  1  0  0  0  0
  4  5  1  0  0  0  0
  5  8  1  0  0  0  0
  5  6  2  0  0  0  0
  7  2  1  0  0  0  0
  9 15  1  0  0  0  0
  9 14  1  0  0  0  0
 10 11  1  0  0  0  0
 10 16  1  0  0  0  0
 10  9  1  0  0  0  0
 11 12  1  0  0  0  0
 12 21  1  0  0  0  0
 12 20  1  0  0  0  0
 12 13  1  0  0  0  0
 13 22  1  0  0  0  0
 13 23  1  0  0  0  0
 14 13  1  0  0  0  0
 14 25  1  0  0  0  0
 17 10  1  0  0  0  0
 18 11  1  0  0  0  0
 19 11  1  0  0  0  0
 24 14  1  0  0  0  0
 27 28  1  0  0  0  0
 27 26  1  0  0  0  0
 28  3  1  0  0  0  0
 29 30  1  0  0  0  0
 29 28  2  0  0  0  0
 31 29  1  0  0  0  0
 32 31  1  0  0  0  0
 33 31  2  0  0  0  0
 33 34  1  0  0  0  0
 34 27  2  0  0  0  0
M  END
>  <minimizedAffinity>
-5.47951174

>  <minimizedRMSD>
0.898712277

$$$$
