
 OpenBabel03272506313D

 34 36  0  0  1  0  0  0  0  0999 V2000
   38.6880   24.7930   33.6050 C   0  0  1  0  0  0  0  0  0  0  0  0
   39.7020   25.7780   33.2240 C   0  0  0  0  0  0  0  0  0  0  0  0
   39.5820   27.1520   33.8230 C   0  0  0  0  0  0  0  0  0  0  0  0
   39.0950   27.2260   35.2120 C   0  0  0  0  0  0  0  0  0  0  0  0
   38.1270   26.1910   35.6290 C   0  0  0  0  0  0  0  0  0  0  0  0
   38.3250   24.8390   35.0590 C   0  0  2  0  0  0  0  0  0  0  0  0
   39.1600   23.7670   33.4670 H   0  0  0  0  0  0  0  0  0  0  0  0
   39.8880   25.9320   32.1570 H   0  0  0  0  0  0  0  0  0  0  0  0
   40.7340   25.4330   33.5800 H   0  0  0  0  0  0  0  0  0  0  0  0
   38.8900   27.7320   33.1690 H   0  0  0  0  0  0  0  0  0  0  0  0
   40.5650   27.6730   33.7420 H   0  0  0  0  0  0  0  0  0  0  0  0
   38.5710   28.2320   35.3060 H   0  0  0  0  0  0  0  0  0  0  0  0
   39.9230   27.3170   35.9390 H   0  0  0  0  0  0  0  0  0  0  0  0
   37.0880   26.5880   35.4270 H   0  0  0  0  0  0  0  0  0  0  0  0
   38.1770   26.1180   36.7340 H   0  0  0  0  0  0  0  0  0  0  0  0
   37.3200   24.3820   35.1680 H   0  0  0  0  0  0  0  0  0  0  0  0
   36.8300   25.8580   32.2310 C   0  0  0  0  0  0  0  0  0  0  0  0
   37.5050   24.7100   32.7220 C   0  0  0  0  0  0  0  0  0  0  0  0
   36.9890   23.4880   32.3350 C   0  0  0  0  0  0  0  0  0  0  0  0
   35.9010   23.4290   31.5340 N   0  0  0  0  0  0  0  0  0  0  0  0
   35.2880   24.5560   31.0900 C   0  0  0  0  0  0  0  0  0  0  0  0
   35.7630   25.7690   31.4460 N   0  0  0  0  0  0  0  0  0  0  0  0
   37.1640   26.8490   32.4810 H   0  0  0  0  0  0  0  0  0  0  0  0
   37.3200   22.4990   32.5520 H   0  0  0  0  0  0  0  0  0  0  0  0
   34.4160   24.5420   30.4500 H   0  0  0  0  0  0  0  0  0  0  0  0
   37.6140   24.0670   37.7210 F   0  0  0  0  0  0  0  0  0  0  0  0
   38.7970   23.5980   37.2070 C   0  0  0  0  0  0  0  0  0  0  0  0
   39.1760   23.9640   35.9050 C   0  0  0  0  0  0  0  0  0  0  0  0
   40.3830   23.4020   35.5640 C   0  0  0  0  0  0  0  0  0  0  0  0
   40.7830   23.5930   34.5970 H   0  0  0  0  0  0  0  0  0  0  0  0
   41.1420   22.5890   36.3610 C   0  0  0  0  0  0  0  0  0  0  0  0
   42.0840   22.1800   36.0280 H   0  0  0  0  0  0  0  0  0  0  0  0
   40.6980   22.2800   37.6250 C   0  0  0  0  0  3  0  0  0  0  0  0
   39.4990   22.7890   38.0720 C   0  0  0  0  0  3  0  0  0  0  0  0
  1  7  1  6  0  0  0
  1  6  1  0  0  0  0
  2  9  1  0  0  0  0
  2  1  1  0  0  0  0
  2  3  1  0  0  0  0
  3  4  1  0  0  0  0
  4 12  1  0  0  0  0
  4  5  1  0  0  0  0
  4 13  1  0  0  0  0
  5 15  1  0  0  0  0
  6 16  1  1  0  0  0
  6  5  1  0  0  0  0
  6 28  1  0  0  0  0
  8  2  1  0  0  0  0
 10  3  1  0  0  0  0
 11  3  1  0  0  0  0
 14  5  1  0  0  0  0
 17 23  1  0  0  0  0
 17 18  1  0  0  0  0
 18  1  1  0  0  0  0
 19 24  1  0  0  0  0
 19 18  2  0  0  0  0
 20 19  1  0  0  0  0
 21 22  1  0  0  0  0
 21 20  2  0  0  0  0
 22 17  2  0  0  0  0
 25 21  1  0  0  0  0
 27 26  1  0  0  0  0
 27 34  1  0  0  0  0
 28 27  2  0  0  0  0
 29 28  1  0  0  0  0
 29 31  2  0  0  0  0
 30 29  1  0  0  0  0
 31 33  1  0  0  0  0
 32 31  1  0  0  0  0
 33 34  2  0  0  0  0
M  END
>  <minimizedAffinity>
-5.57572937

$$$$

 OpenBabel03272506313D

 34 36  0  0  1  0  0  0  0  0999 V2000
   38.1890   24.7380   35.0600 C   0  0  1  0  0  0  0  0  0  0  0  0
   37.9980   26.0490   35.6840 C   0  0  0  0  0  0  0  0  0  0  0  0
   38.9800   27.1290   35.3240 C   0  0  0  0  0  0  0  0  0  0  0  0
   39.4720   27.1370   33.9350 C   0  0  0  0  0  0  0  0  0  0  0  0
   39.5990   25.8230   33.2710 C   0  0  0  0  0  0  0  0  0  0  0  0
   38.5710   24.8130   33.6120 C   0  0  2  0  0  0  0  0  0  0  0  0
   37.1740   24.2260   35.0550 H   0  0  0  0  0  0  0  0  0  0  0  0
   37.8980   26.0860   36.7720 H   0  0  0  0  0  0  0  0  0  0  0  0
   36.9960   26.4950   35.3550 H   0  0  0  0  0  0  0  0  0  0  0  0
   39.8500   27.0190   36.0120 H   0  0  0  0  0  0  0  0  0  0  0  0
   38.5370   28.1220   35.5700 H   0  0  0  0  0  0  0  0  0  0  0  0
   40.5150   27.5930   33.9760 H   0  0  0  0  0  0  0  0  0  0  0  0
   38.9200   27.8550   33.3010 H   0  0  0  0  0  0  0  0  0  0  0  0
   40.6470   25.4410   33.4570 H   0  0  0  0  0  0  0  0  0  0  0  0
   39.5680   26.0010   32.1770 H   0  0  0  0  0  0  0  0  0  0  0  0
   39.0730   23.8600   33.3480 H   0  0  0  0  0  0  0  0  0  0  0  0
   38.9700   23.6740   37.2350 C   0  0  0  0  0  0  0  0  0  0  0  0
   39.0160   23.7760   35.8210 C   0  0  0  0  0  0  0  0  0  0  0  0
   39.8930   22.9240   35.1770 C   0  0  0  0  0  0  0  0  0  0  0  0
   40.6480   22.0560   35.8870 N   0  0  0  0  0  0  0  0  0  0  0  0
   40.5690   21.9950   37.2420 C   0  0  0  0  0  0  0  0  0  0  0  0
   39.7230   22.8120   37.9070 N   0  0  0  0  0  0  0  0  0  0  0  0
   38.3150   24.2970   37.8170 H   0  0  0  0  0  0  0  0  0  0  0  0
   40.0950   22.7980   34.1380 H   0  0  0  0  0  0  0  0  0  0  0  0
   41.1600   21.3140   37.8380 H   0  0  0  0  0  0  0  0  0  0  0  0
   37.2070   27.2160   32.8690 F   0  0  0  0  0  0  0  0  0  0  0  0
   36.7570   26.0300   32.3460 C   0  0  0  0  0  0  0  0  0  0  0  0
   37.4030   24.8330   32.6970 C   0  0  0  0  0  0  0  0  0  0  0  0
   36.8150   23.7550   32.0790 C   0  0  0  0  0  0  0  0  0  0  0  0
   37.2140   22.7840   32.2530 H   0  0  0  0  0  0  0  0  0  0  0  0
   35.7430   23.8030   31.2300 C   0  0  0  0  0  0  0  0  0  0  0  0
   35.3310   22.9130   30.7780 H   0  0  0  0  0  0  0  0  0  0  0  0
   35.1680   25.0180   30.9400 C   0  0  0  0  0  3  0  0  0  0  0  0
   35.6770   26.1670   31.5030 C   0  0  0  0  0  3  0  0  0  0  0  0
  1  7  1  6  0  0  0
  1  2  1  0  0  0  0
  1 18  1  0  0  0  0
  2  8  1  0  0  0  0
  3 11  1  0  0  0  0
  3  2  1  0  0  0  0
  3 10  1  0  0  0  0
  4 12  1  0  0  0  0
  4  3  1  0  0  0  0
  5 14  1  0  0  0  0
  5  6  1  0  0  0  0
  5  4  1  0  0  0  0
  6 16  1  6  0  0  0
  6  1  1  0  0  0  0
  9  2  1  0  0  0  0
 13  4  1  0  0  0  0
 15  5  1  0  0  0  0
 17 23  1  0  0  0  0
 17 22  1  0  0  0  0
 18 17  2  0  0  0  0
 19 18  1  0  0  0  0
 19 20  2  0  0  0  0
 20 21  1  0  0  0  0
 21 25  1  0  0  0  0
 21 22  2  0  0  0  0
 24 19  1  0  0  0  0
 27 28  1  0  0  0  0
 27 26  1  0  0  0  0
 28  6  1  0  0  0  0
 29 30  1  0  0  0  0
 29 28  2  0  0  0  0
 31 29  1  0  0  0  0
 32 31  1  0  0  0  0
 33 31  2  0  0  0  0
 33 34  1  0  0  0  0
 34 27  2  0  0  0  0
M  END
>  <minimizedAffinity>
-5.49862671

$$$$

 OpenBabel03272506313D

 34 36  0  0  1  0  0  0  0  0999 V2000
   38.0580   26.3090   35.0470 C   0  0  1  0  0  0  0  0  0  0  0  0
   39.3040   26.9920   35.4010 C   0  0  0  0  0  0  0  0  0  0  0  0
   40.3810   27.0390   34.3530 C   0  0  0  0  0  0  0  0  0  0  0  0
   39.9350   27.1840   32.9560 C   0  0  0  0  0  0  0  0  0  0  0  0
   38.6420   26.5600   32.6060 C   0  0  0  0  0  0  0  0  0  0  0  0
   37.5940   26.5950   33.6510 C   0  0  2  0  0  0  0  0  0  0  0  0
   37.2440   26.7500   35.7080 H   0  0  0  0  0  0  0  0  0  0  0  0
   39.8030   26.6950   36.3290 H   0  0  0  0  0  0  0  0  0  0  0  0
   39.0980   28.0990   35.6050 H   0  0  0  0  0  0  0  0  0  0  0  0
   40.9670   26.0950   34.4460 H   0  0  0  0  0  0  0  0  0  0  0  0
   41.1000   27.8540   34.6040 H   0  0  0  0  0  0  0  0  0  0  0  0
   40.7330   26.6780   32.3190 H   0  0  0  0  0  0  0  0  0  0  0  0
   39.9820   28.2330   32.6100 H   0  0  0  0  0  0  0  0  0  0  0  0
   38.8500   25.5090   32.2480 H   0  0  0  0  0  0  0  0  0  0  0  0
   38.2580   27.0800   31.7050 H   0  0  0  0  0  0  0  0  0  0  0  0
   36.9220   25.7670   33.3450 H   0  0  0  0  0  0  0  0  0  0  0  0
   38.1650   23.8430   34.4290 C   0  0  0  0  0  0  0  0  0  0  0  0
   37.9900   24.8720   35.3900 C   0  0  0  0  0  0  0  0  0  0  0  0
   37.7390   24.4590   36.6850 C   0  0  0  0  0  0  0  0  0  0  0  0
   37.6700   23.1420   36.9810 N   0  0  0  0  0  0  0  0  0  0  0  0
   37.8450   22.1920   36.0250 C   0  0  0  0  0  0  0  0  0  0  0  0
   38.0930   22.5560   34.7480 N   0  0  0  0  0  0  0  0  0  0  0  0
   38.3670   24.0730   33.3980 H   0  0  0  0  0  0  0  0  0  0  0  0
   37.5900   25.0280   37.5740 H   0  0  0  0  0  0  0  0  0  0  0  0
   37.7950   21.1320   36.2300 H   0  0  0  0  0  0  0  0  0  0  0  0
   36.2000   27.3240   31.2610 F   0  0  0  0  0  0  0  0  0  0  0  0
   36.0350   28.1140   32.3720 C   0  0  0  0  0  0  0  0  0  0  0  0
   36.7110   27.7840   33.5580 C   0  0  0  0  0  0  0  0  0  0  0  0
   36.4240   28.6840   34.5560 C   0  0  0  0  0  0  0  0  0  0  0  0
   36.8660   28.5460   35.5140 H   0  0  0  0  0  0  0  0  0  0  0  0
   35.5960   29.7680   34.4460 C   0  0  0  0  0  0  0  0  0  0  0  0
   35.4150   30.4360   35.2740 H   0  0  0  0  0  0  0  0  0  0  0  0
   34.9730   30.0190   33.2460 C   0  0  0  0  0  3  0  0  0  0  0  0
   35.1870   29.1810   32.1750 C   0  0  0  0  0  3  0  0  0  0  0  0
  1 18  1  0  0  0  0
  1  2  1  0  0  0  0
  1  7  1  1  0  0  0
  2  9  1  0  0  0  0
  2  8  1  0  0  0  0
  3 10  1  0  0  0  0
  3 11  1  0  0  0  0
  3  2  1  0  0  0  0
  4  3  1  0  0  0  0
  5  4  1  0  0  0  0
  5  6  1  0  0  0  0
  6 16  1  6  0  0  0
  6  1  1  0  0  0  0
 12  4  1  0  0  0  0
 13  4  1  0  0  0  0
 14  5  1  0  0  0  0
 15  5  1  0  0  0  0
 17 22  2  0  0  0  0
 17 18  1  0  0  0  0
 18 19  2  0  0  0  0
 19 20  1  0  0  0  0
 19 24  1  0  0  0  0
 21 25  1  0  0  0  0
 21 20  2  0  0  0  0
 22 21  1  0  0  0  0
 23 17  1  0  0  0  0
 26 27  1  0  0  0  0
 27 28  1  0  0  0  0
 28  6  1  0  0  0  0
 28 29  2  0  0  0  0
 29 30  1  0  0  0  0
 31 29  1  0  0  0  0
 31 32  1  0  0  0  0
 33 31  2  0  0  0  0
 34 27  2  0  0  0  0
 34 33  1  0  0  0  0
M  END
>  <minimizedAffinity>
-5.42706347

$$$$

 OpenBabel03272506313D

 34 36  0  0  1  0  0  0  0  0999 V2000
   38.2430   24.5300   35.1670 C   0  0  1  0  0  0  0  0  0  0  0  0
   37.8940   25.7230   35.9420 C   0  0  0  0  0  0  0  0  0  0  0  0
   38.7540   26.9410   35.7480 C   0  0  0  0  0  0  0  0  0  0  0  0
   39.2650   27.1770   34.3860 C   0  0  0  0  0  0  0  0  0  0  0  0
   39.5510   25.9790   33.5700 C   0  0  0  0  0  0  0  0  0  0  0  0
   38.6380   24.8280   33.7520 C   0  0  2  0  0  0  0  0  0  0  0  0
   37.2920   23.9140   35.0690 H   0  0  0  0  0  0  0  0  0  0  0  0
   37.7730   25.6110   37.0230 H   0  0  0  0  0  0  0  0  0  0  0  0
   36.8540   26.0930   35.6400 H   0  0  0  0  0  0  0  0  0  0  0  0
   39.6190   26.8420   36.4430 H   0  0  0  0  0  0  0  0  0  0  0  0
   38.1980   27.8410   36.1010 H   0  0  0  0  0  0  0  0  0  0  0  0
   40.2490   27.7370   34.5150 H   0  0  0  0  0  0  0  0  0  0  0  0
   38.6460   27.9050   33.8290 H   0  0  0  0  0  0  0  0  0  0  0  0
   40.6320   25.6950   33.7390 H   0  0  0  0  0  0  0  0  0  0  0  0
   39.5180   26.2890   32.5060 H   0  0  0  0  0  0  0  0  0  0  0  0
   39.2490   23.9770   33.3890 H   0  0  0  0  0  0  0  0  0  0  0  0
   39.2270   23.4260   37.2390 C   0  0  0  0  0  0  0  0  0  0  0  0
   39.1610   23.5770   35.8290 C   0  0  0  0  0  0  0  0  0  0  0  0
   40.0170   22.7810   35.0910 C   0  0  0  0  0  0  0  0  0  0  0  0
   40.8550   21.9220   35.7110 N   0  0  0  0  0  0  0  0  0  0  0  0
   40.8830   21.8130   37.0650 C   0  0  0  0  0  0  0  0  0  0  0  0
   40.0610   22.5730   37.8210 N   0  0  0  0  0  0  0  0  0  0  0  0
   38.5950   24.0040   37.8900 H   0  0  0  0  0  0  0  0  0  0  0  0
   40.1430   22.6980   34.0360 H   0  0  0  0  0  0  0  0  0  0  0  0
   41.5430   21.1360   37.5900 H   0  0  0  0  0  0  0  0  0  0  0  0
   37.4760   22.4390   32.6900 F   0  0  0  0  0  0  0  0  0  0  0  0
   36.9370   23.6440   32.3100 C   0  0  0  0  0  0  0  0  0  0  0  0
   37.4900   24.8340   32.8110 C   0  0  0  0  0  0  0  0  0  0  0  0
   36.8230   25.9320   32.3240 C   0  0  0  0  0  0  0  0  0  0  0  0
   37.1370   26.9010   32.6310 H   0  0  0  0  0  0  0  0  0  0  0  0
   35.7590   25.9080   31.4630 C   0  0  0  0  0  0  0  0  0  0  0  0
   35.2820   26.8130   31.1200 H   0  0  0  0  0  0  0  0  0  0  0  0
   35.2800   24.6980   31.0200 C   0  0  0  0  0  3  0  0  0  0  0  0
   35.8720   23.5300   31.4450 C   0  0  0  0  0  3  0  0  0  0  0  0
  1  7  1  6  0  0  0
  1 18  1  0  0  0  0
  1  2  1  0  0  0  0
  2  8  1  0  0  0  0
  3  2  1  0  0  0  0
  3 11  1  0  0  0  0
  3 10  1  0  0  0  0
  4 12  1  0  0  0  0
  4  3  1  0  0  0  0
  5 14  1  0  0  0  0
  5  6  1  0  0  0  0
  5  4  1  0  0  0  0
  6 16  1  6  0  0  0
  6  1  1  0  0  0  0
  9  2  1  0  0  0  0
 13  4  1  0  0  0  0
 15  5  1  0  0  0  0
 17 22  1  0  0  0  0
 17 23  1  0  0  0  0
 18 17  2  0  0  0  0
 19 20  2  0  0  0  0
 19 18  1  0  0  0  0
 20 21  1  0  0  0  0
 21 25  1  0  0  0  0
 21 22  2  0  0  0  0
 24 19  1  0  0  0  0
 27 26  1  0  0  0  0
 27 28  1  0  0  0  0
 28  6  1  0  0  0  0
 29 30  1  0  0  0  0
 29 28  2  0  0  0  0
 31 29  1  0  0  0  0
 32 31  1  0  0  0  0
 33 34  1  0  0  0  0
 33 31  2  0  0  0  0
 34 27  2  0  0  0  0
M  END
>  <minimizedAffinity>
-5.40552616

$$$$

 OpenBabel03272506313D

 34 36  0  0  1  0  0  0  0  0999 V2000
   37.7370   26.7170   33.3450 C   0  0  1  0  0  0  0  0  0  0  0  0
   38.7340   26.6020   32.2790 C   0  0  0  0  0  0  0  0  0  0  0  0
   40.1080   27.1430   32.5640 C   0  0  0  0  0  0  0  0  0  0  0  0
   40.6070   26.9810   33.9410 C   0  0  0  0  0  0  0  0  0  0  0  0
   39.5980   27.0220   35.0200 C   0  0  0  0  0  0  0  0  0  0  0  0
   38.2820   26.4200   34.7100 C   0  0  2  0  0  0  0  0  0  0  0  0
   36.9700   25.8960   33.1650 H   0  0  0  0  0  0  0  0  0  0  0  0
   38.4660   26.9760   31.2870 H   0  0  0  0  0  0  0  0  0  0  0  0
   38.9370   25.4980   32.0510 H   0  0  0  0  0  0  0  0  0  0  0  0
   40.0870   28.2290   32.3170 H   0  0  0  0  0  0  0  0  0  0  0  0
   40.8340   26.6940   31.8470 H   0  0  0  0  0  0  0  0  0  0  0  0
   41.3220   27.8490   34.1190 H   0  0  0  0  0  0  0  0  0  0  0  0
   41.2690   26.1010   34.0430 H   0  0  0  0  0  0  0  0  0  0  0  0
   39.5040   28.0930   35.3660 H   0  0  0  0  0  0  0  0  0  0  0  0
   40.0290   26.4940   35.8950 H   0  0  0  0  0  0  0  0  0  0  0  0
   37.6140   26.9070   35.4490 H   0  0  0  0  0  0  0  0  0  0  0  0
   36.7200   28.7170   32.1450 C   0  0  0  0  0  0  0  0  0  0  0  0
   36.8990   27.9350   33.3150 C   0  0  0  0  0  0  0  0  0  0  0  0
   36.2460   28.3790   34.4490 C   0  0  0  0  0  0  0  0  0  0  0  0
   35.4910   29.4990   34.4080 N   0  0  0  0  0  0  0  0  0  0  0  0
   35.3500   30.2160   33.2630 C   0  0  0  0  0  0  0  0  0  0  0  0
   35.9720   29.8130   32.1330 N   0  0  0  0  0  0  0  0  0  0  0  0
   37.1900   28.4440   31.2160 H   0  0  0  0  0  0  0  0  0  0  0  0
   36.2090   27.9650   35.4310 H   0  0  0  0  0  0  0  0  0  0  0  0
   34.7540   31.1150   33.1980 H   0  0  0  0  0  0  0  0  0  0  0  0
   38.0810   25.5130   37.4160 F   0  0  0  0  0  0  0  0  0  0  0  0
   38.0870   24.5710   36.4170 C   0  0  0  0  0  0  0  0  0  0  0  0
   38.1890   24.9850   35.0790 C   0  0  0  0  0  0  0  0  0  0  0  0
   38.1780   23.9080   34.2260 C   0  0  0  0  0  0  0  0  0  0  0  0
   38.2420   24.0830   33.1790 H   0  0  0  0  0  0  0  0  0  0  0  0
   38.0810   22.5930   34.5940 C   0  0  0  0  0  0  0  0  0  0  0  0
   38.0780   21.7950   33.8680 H   0  0  0  0  0  0  0  0  0  0  0  0
   37.9850   22.2740   35.9280 C   0  0  0  0  0  3  0  0  0  0  0  0
   37.9860   23.2750   36.8740 C   0  0  0  0  0  3  0  0  0  0  0  0
  1  7  1  6  0  0  0
  1  6  1  0  0  0  0
  2  3  1  0  0  0  0
  2  1  1  0  0  0  0
  3  4  1  0  0  0  0
  4 13  1  0  0  0  0
  4 12  1  0  0  0  0
  4  5  1  0  0  0  0
  5 14  1  0  0  0  0
  5 15  1  0  0  0  0
  6  5  1  0  0  0  0
  6 28  1  0  0  0  0
  6 16  1  1  0  0  0
  8  2  1  0  0  0  0
  9  2  1  0  0  0  0
 10  3  1  0  0  0  0
 11  3  1  0  0  0  0
 17 18  1  0  0  0  0
 18  1  1  0  0  0  0
 18 19  2  0  0  0  0
 19 24  1  0  0  0  0
 20 19  1  0  0  0  0
 21 20  2  0  0  0  0
 22 17  2  0  0  0  0
 22 21  1  0  0  0  0
 23 17  1  0  0  0  0
 25 21  1  0  0  0  0
 27 34  1  0  0  0  0
 27 26  1  0  0  0  0
 28 27  2  0  0  0  0
 29 31  2  0  0  0  0
 29 28  1  0  0  0  0
 30 29  1  0  0  0  0
 31 33  1  0  0  0  0
 32 31  1  0  0  0  0
 33 34  2  0  0  0  0
M  END
>  <minimizedAffinity>
-5.262043

$$$$

 OpenBabel03272506313D

 34 36  0  0  1  0  0  0  0  0999 V2000
   37.8380   25.9560   33.9600 C   0  0  1  0  0  0  0  0  0  0  0  0
   38.6790   25.3530   32.9240 C   0  0  0  0  0  0  0  0  0  0  0  0
   40.0420   25.9510   32.7140 C   0  0  0  0  0  0  0  0  0  0  0  0
   40.7410   26.4360   33.9170 C   0  0  0  0  0  0  0  0  0  0  0  0
   39.8960   26.9790   35.0000 C   0  0  0  0  0  0  0  0  0  0  0  0
   38.5890   26.3150   35.2070 C   0  0  2  0  0  0  0  0  0  0  0  0
   37.1060   25.1530   34.2960 H   0  0  0  0  0  0  0  0  0  0  0  0
   38.2490   25.2310   31.9260 H   0  0  0  0  0  0  0  0  0  0  0  0
   38.9150   24.2670   33.1970 H   0  0  0  0  0  0  0  0  0  0  0  0
   39.9180   26.8020   32.0050 H   0  0  0  0  0  0  0  0  0  0  0  0
   40.6850   25.2150   32.1780 H   0  0  0  0  0  0  0  0  0  0  0  0
   41.4190   27.2820   33.5650 H   0  0  0  0  0  0  0  0  0  0  0  0
   41.4650   25.6950   34.3060 H   0  0  0  0  0  0  0  0  0  0  0  0
   39.7850   28.0910   34.8290 H   0  0  0  0  0  0  0  0  0  0  0  0
   40.4790   26.9090   35.9410 H   0  0  0  0  0  0  0  0  0  0  0  0
   38.0040   27.0950   35.7370 H   0  0  0  0  0  0  0  0  0  0  0  0
   36.4320   27.1120   32.1820 C   0  0  0  0  0  0  0  0  0  0  0  0
   36.9290   27.0320   33.5090 C   0  0  0  0  0  0  0  0  0  0  0  0
   36.5220   28.0310   34.3720 C   0  0  0  0  0  0  0  0  0  0  0  0
   35.6990   29.0130   33.9420 N   0  0  0  0  0  0  0  0  0  0  0  0
   35.2490   29.0470   32.6610 C   0  0  0  0  0  0  0  0  0  0  0  0
   35.6230   28.0870   31.7870 N   0  0  0  0  0  0  0  0  0  0  0  0
   36.6950   26.3750   31.4440 H   0  0  0  0  0  0  0  0  0  0  0  0
   36.7410   28.1820   35.4050 H   0  0  0  0  0  0  0  0  0  0  0  0
   34.5910   29.8190   32.2860 H   0  0  0  0  0  0  0  0  0  0  0  0
   40.2300   23.9950   34.8840 F   0  0  0  0  0  0  0  0  0  0  0  0
   39.4600   24.0880   36.0160 C   0  0  0  0  0  0  0  0  0  0  0  0
   38.6400   25.2140   36.2000 C   0  0  0  0  0  0  0  0  0  0  0  0
   37.9480   25.1320   37.3850 C   0  0  0  0  0  0  0  0  0  0  0  0
   37.2930   25.9260   37.6520 H   0  0  0  0  0  0  0  0  0  0  0  0
   38.0220   24.1060   38.2890 C   0  0  0  0  0  0  0  0  0  0  0  0
   37.4480   24.1080   39.2020 H   0  0  0  0  0  0  0  0  0  0  0  0
   38.8510   23.0410   38.0300 C   0  0  0  0  0  3  0  0  0  0  0  0
   39.5940   23.0170   36.8710 C   0  0  0  0  0  3  0  0  0  0  0  0
  1  7  1  1  0  0  0
  1  6  1  0  0  0  0
  2  9  1  0  0  0  0
  2  1  1  0  0  0  0
  3  2  1  0  0  0  0
  3  4  1  0  0  0  0
  4 13  1  0  0  0  0
  4  5  1  0  0  0  0
  5  6  1  0  0  0  0
  5 15  1  0  0  0  0
  6 16  1  1  0  0  0
  6 28  1  0  0  0  0
  8  2  1  0  0  0  0
 10  3  1  0  0  0  0
 11  3  1  0  0  0  0
 12  4  1  0  0  0  0
 14  5  1  0  0  0  0
 17 18  1  0  0  0  0
 18  1  1  0  0  0  0
 18 19  2  0  0  0  0
 19 24  1  0  0  0  0
 20 19  1  0  0  0  0
 21 20  2  0  0  0  0
 22 17  2  0  0  0  0
 22 21  1  0  0  0  0
 23 17  1  0  0  0  0
 25 21  1  0  0  0  0
 26 27  1  0  0  0  0
 27 28  2  0  0  0  0
 27 34  1  0  0  0  0
 28 29  1  0  0  0  0
 29 30  1  0  0  0  0
 29 31  2  0  0  0  0
 31 32  1  0  0  0  0
 33 31  1  0  0  0  0
 34 33  2  0  0  0  0
M  END
>  <minimizedAffinity>
-5.25528336

$$$$

 OpenBabel03272506313D

 34 36  0  0  1  0  0  0  0  0999 V2000
   38.1090   23.3450   34.6730 C   0  0  1  0  0  0  0  0  0  0  0  0
   38.6320   24.4440   33.8590 C   0  0  0  0  0  0  0  0  0  0  0  0
   40.0000   24.2620   33.2600 C   0  0  0  0  0  0  0  0  0  0  0  0
   40.3490   22.9010   32.8170 C   0  0  0  0  0  0  0  0  0  0  0  0
   39.7660   21.7840   33.5880 C   0  0  0  0  0  0  0  0  0  0  0  0
   38.3930   21.9880   34.1030 C   0  0  2  0  0  0  0  0  0  0  0  0
   36.9740   23.4280   34.6450 H   0  0  0  0  0  0  0  0  0  0  0  0
   38.6270   25.4480   34.2930 H   0  0  0  0  0  0  0  0  0  0  0  0
   37.9690   24.5980   32.9390 H   0  0  0  0  0  0  0  0  0  0  0  0
   40.7360   24.5890   34.0300 H   0  0  0  0  0  0  0  0  0  0  0  0
   40.1250   24.9760   32.4140 H   0  0  0  0  0  0  0  0  0  0  0  0
   41.4810   22.8210   32.9160 H   0  0  0  0  0  0  0  0  0  0  0  0
   40.1930   22.7640   31.7310 H   0  0  0  0  0  0  0  0  0  0  0  0
   40.4920   21.5140   34.4110 H   0  0  0  0  0  0  0  0  0  0  0  0
   39.7650   20.8920   32.9290 H   0  0  0  0  0  0  0  0  0  0  0  0
   38.3370   21.2570   34.9350 H   0  0  0  0  0  0  0  0  0  0  0  0
   37.5910   24.1890   37.0170 C   0  0  0  0  0  0  0  0  0  0  0  0
   38.3870   23.4270   36.1230 C   0  0  0  0  0  0  0  0  0  0  0  0
   39.4610   22.7600   36.6820 C   0  0  0  0  0  0  0  0  0  0  0  0
   39.7080   22.8520   38.0080 N   0  0  0  0  0  0  0  0  0  0  0  0
   38.9170   23.5950   38.8240 C   0  0  0  0  0  0  0  0  0  0  0  0
   37.8570   24.2610   38.3160 N   0  0  0  0  0  0  0  0  0  0  0  0
   36.7350   24.7390   36.6690 H   0  0  0  0  0  0  0  0  0  0  0  0
   40.1860   22.1200   36.2320 H   0  0  0  0  0  0  0  0  0  0  0  0
   39.0890   23.6900   39.8870 H   0  0  0  0  0  0  0  0  0  0  0  0
   35.9510   20.7910   34.9910 F   0  0  0  0  0  0  0  0  0  0  0  0
   36.1480   20.9300   33.6400 C   0  0  0  0  0  0  0  0  0  0  0  0
   37.3400   21.5090   33.1740 C   0  0  0  0  0  0  0  0  0  0  0  0
   37.3580   21.5640   31.8000 C   0  0  0  0  0  0  0  0  0  0  0  0
   38.2030   21.9890   31.3150 H   0  0  0  0  0  0  0  0  0  0  0  0
   36.3650   21.1240   30.9670 C   0  0  0  0  0  0  0  0  0  0  0  0
   36.4470   21.1980   29.8930 H   0  0  0  0  0  0  0  0  0  0  0  0
   35.2300   20.5680   31.5070 C   0  0  0  0  0  3  0  0  0  0  0  0
   35.1040   20.4620   32.8740 C   0  0  0  0  0  3  0  0  0  0  0  0
  1  7  1  6  0  0  0
  1 18  1  0  0  0  0
  2  8  1  0  0  0  0
  2  1  1  0  0  0  0
  3  2  1  0  0  0  0
  3 10  1  0  0  0  0
  4 12  1  0  0  0  0
  4  3  1  0  0  0  0
  4  5  1  0  0  0  0
  5  6  1  0  0  0  0
  5 14  1  0  0  0  0
  6  1  1  0  0  0  0
  6 16  1  1  0  0  0
  9  2  1  0  0  0  0
 11  3  1  0  0  0  0
 13  4  1  0  0  0  0
 15  5  1  0  0  0  0
 17 22  1  0  0  0  0
 18 19  1  0  0  0  0
 18 17  2  0  0  0  0
 19 20  2  0  0  0  0
 20 21  1  0  0  0  0
 21 25  1  0  0  0  0
 22 21  2  0  0  0  0
 23 17  1  0  0  0  0
 24 19  1  0  0  0  0
 27 26  1  0  0  0  0
 28 27  1  0  0  0  0
 28  6  1  0  0  0  0
 29 28  2  0  0  0  0
 30 29  1  0  0  0  0
 31 33  2  0  0  0  0
 31 29  1  0  0  0  0
 32 31  1  0  0  0  0
 33 34  1  0  0  0  0
 34 27  2  0  0  0  0
M  END
>  <minimizedAffinity>
-5.11422205

$$$$

 OpenBabel03272506313D

 34 36  0  0  1  0  0  0  0  0999 V2000
   39.4420   24.9740   34.8200 C   0  0  1  0  0  0  0  0  0  0  0  0
   38.4500   24.7920   33.7590 C   0  0  0  0  0  0  0  0  0  0  0  0
   37.3740   25.8350   33.6410 C   0  0  0  0  0  0  0  0  0  0  0  0
   37.7690   27.2250   33.9280 C   0  0  0  0  0  0  0  0  0  0  0  0
   38.8240   27.4160   34.9450 C   0  0  0  0  0  0  0  0  0  0  0  0
   39.8950   26.3940   34.9800 C   0  0  2  0  0  0  0  0  0  0  0  0
   40.3790   24.4180   34.4910 H   0  0  0  0  0  0  0  0  0  0  0  0
   37.9380   23.8270   33.7000 H   0  0  0  0  0  0  0  0  0  0  0  0
   38.9600   24.8340   32.7360 H   0  0  0  0  0  0  0  0  0  0  0  0
   36.5590   25.5430   34.3430 H   0  0  0  0  0  0  0  0  0  0  0  0
   36.9180   25.7770   32.6250 H   0  0  0  0  0  0  0  0  0  0  0  0
   36.8320   27.7430   34.3170 H   0  0  0  0  0  0  0  0  0  0  0  0
   37.9930   27.7940   33.0060 H   0  0  0  0  0  0  0  0  0  0  0  0
   38.3190   27.5360   35.9500 H   0  0  0  0  0  0  0  0  0  0  0  0
   39.2880   28.4060   34.7580 H   0  0  0  0  0  0  0  0  0  0  0  0
   40.2980   26.5030   36.0070 H   0  0  0  0  0  0  0  0  0  0  0  0
   38.0040   24.6680   36.8970 C   0  0  0  0  0  0  0  0  0  0  0  0
   39.1340   24.3220   36.1120 C   0  0  0  0  0  0  0  0  0  0  0  0
   39.9530   23.3350   36.6260 C   0  0  0  0  0  0  0  0  0  0  0  0
   39.6630   22.7560   37.8120 N   0  0  0  0  0  0  0  0  0  0  0  0
   38.5680   23.1210   38.5280 C   0  0  0  0  0  0  0  0  0  0  0  0
   37.7430   24.0820   38.0590 N   0  0  0  0  0  0  0  0  0  0  0  0
   37.3110   25.4250   36.5720 H   0  0  0  0  0  0  0  0  0  0  0  0
   40.8380   22.8950   36.2260 H   0  0  0  0  0  0  0  0  0  0  0  0
   38.3100   22.6780   39.4800 H   0  0  0  0  0  0  0  0  0  0  0  0
   42.5500   25.4790   35.5280 F   0  0  0  0  0  0  0  0  0  0  0  0
   42.3540   26.2690   34.4220 C   0  0  0  0  0  0  0  0  0  0  0  0
   41.0620   26.7380   34.1310 C   0  0  0  0  0  0  0  0  0  0  0  0
   41.0620   27.5090   32.9920 C   0  0  0  0  0  0  0  0  0  0  0  0
   40.1420   27.9220   32.6530 H   0  0  0  0  0  0  0  0  0  0  0  0
   42.1540   27.8010   32.2210 C   0  0  0  0  0  0  0  0  0  0  0  0
   42.0800   28.4150   31.3370 H   0  0  0  0  0  0  0  0  0  0  0  0
   43.3840   27.3010   32.5790 C   0  0  0  0  0  3  0  0  0  0  0  0
   43.5020   26.5150   33.7030 C   0  0  0  0  0  3  0  0  0  0  0  0
  1  7  1  6  0  0  0
  1  6  1  0  0  0  0
  1 18  1  0  0  0  0
  2  1  1  0  0  0  0
  3  2  1  0  0  0  0
  3  4  1  0  0  0  0
  3 10  1  0  0  0  0
  4 12  1  0  0  0  0
  4  5  1  0  0  0  0
  5  6  1  0  0  0  0
  5 14  1  0  0  0  0
  6 16  1  1  0  0  0
  8  2  1  0  0  0  0
  9  2  1  0  0  0  0
 11  3  1  0  0  0  0
 13  4  1  0  0  0  0
 15  5  1  0  0  0  0
 17 22  1  0  0  0  0
 18 19  1  0  0  0  0
 18 17  2  0  0  0  0
 19 20  2  0  0  0  0
 20 21  1  0  0  0  0
 21 25  1  0  0  0  0
 22 21  2  0  0  0  0
 23 17  1  0  0  0  0
 24 19  1  0  0  0  0
 27 26  1  0  0  0  0
 28 27  1  0  0  0  0
 28  6  1  0  0  0  0
 29 28  2  0  0  0  0
 30 29  1  0  0  0  0
 31 33  2  0  0  0  0
 31 29  1  0  0  0  0
 32 31  1  0  0  0  0
 33 34  1  0  0  0  0
 34 27  2  0  0  0  0
M  END
>  <minimizedAffinity>
-5.04228687

$$$$

 OpenBabel03272506313D

 34 36  0  0  1  0  0  0  0  0999 V2000
   38.2050   26.1540   32.9880 C   0  0  1  0  0  0  0  0  0  0  0  0
   39.3450   25.6680   32.2090 C   0  0  0  0  0  0  0  0  0  0  0  0
   40.6760   26.3220   32.4600 C   0  0  0  0  0  0  0  0  0  0  0  0
   40.9610   26.7220   33.8500 C   0  0  0  0  0  0  0  0  0  0  0  0
   39.8060   27.1440   34.6670 C   0  0  0  0  0  0  0  0  0  0  0  0
   38.5330   26.4260   34.4250 C   0  0  2  0  0  0  0  0  0  0  0  0
   37.4510   25.3030   33.0300 H   0  0  0  0  0  0  0  0  0  0  0  0
   39.2370   25.6200   31.1210 H   0  0  0  0  0  0  0  0  0  0  0  0
   39.5490   24.5700   32.4590 H   0  0  0  0  0  0  0  0  0  0  0  0
   40.7210   27.2260   31.8110 H   0  0  0  0  0  0  0  0  0  0  0  0
   41.4870   25.6540   32.0880 H   0  0  0  0  0  0  0  0  0  0  0  0
   41.6660   27.6140   33.7790 H   0  0  0  0  0  0  0  0  0  0  0  0
   41.5770   25.9720   34.3810 H   0  0  0  0  0  0  0  0  0  0  0  0
   39.6900   28.2620   34.5530 H   0  0  0  0  0  0  0  0  0  0  0  0
   40.0870   27.0100   35.7310 H   0  0  0  0  0  0  0  0  0  0  0  0
   37.7770   27.1400   34.8110 H   0  0  0  0  0  0  0  0  0  0  0  0
   37.4260   27.4950   30.9700 C   0  0  0  0  0  0  0  0  0  0  0  0
   37.4130   27.2380   32.3660 C   0  0  0  0  0  0  0  0  0  0  0  0
   36.6180   28.0690   33.1310 C   0  0  0  0  0  0  0  0  0  0  0  0
   35.9080   29.0610   32.5490 N   0  0  0  0  0  0  0  0  0  0  0  0
   35.9520   29.2690   31.2070 C   0  0  0  0  0  0  0  0  0  0  0  0
   36.7170   28.4760   30.4250 N   0  0  0  0  0  0  0  0  0  0  0  0
   38.0150   26.8950   30.2990 H   0  0  0  0  0  0  0  0  0  0  0  0
   36.4300   28.0700   34.1800 H   0  0  0  0  0  0  0  0  0  0  0  0
   35.3970   30.0530   30.7120 H   0  0  0  0  0  0  0  0  0  0  0  0
   38.1970   26.6240   37.2590 F   0  0  0  0  0  0  0  0  0  0  0  0
   38.1800   25.3740   36.6920 C   0  0  0  0  0  0  0  0  0  0  0  0
   38.3490   25.2450   35.3040 C   0  0  0  0  0  0  0  0  0  0  0  0
   38.3030   23.9260   34.9210 C   0  0  0  0  0  0  0  0  0  0  0  0
   38.4100   23.6870   33.8900 H   0  0  0  0  0  0  0  0  0  0  0  0
   38.1200   22.8540   35.7530 C   0  0  0  0  0  0  0  0  0  0  0  0
   38.0950   21.8410   35.3820 H   0  0  0  0  0  0  0  0  0  0  0  0
   37.9640   23.0690   37.1020 C   0  0  0  0  0  3  0  0  0  0  0  0
   37.9920   24.3540   37.5980 C   0  0  0  0  0  3  0  0  0  0  0  0
  1  7  1  1  0  0  0
  1  6  1  0  0  0  0
  2  9  1  0  0  0  0
  2  3  1  0  0  0  0
  2  1  1  0  0  0  0
  3  4  1  0  0  0  0
  4 13  1  0  0  0  0
  4  5  1  0  0  0  0
  5 15  1  0  0  0  0
  6  5  1  0  0  0  0
  6 16  1  1  0  0  0
  6 28  1  0  0  0  0
  8  2  1  0  0  0  0
 10  3  1  0  0  0  0
 11  3  1  0  0  0  0
 12  4  1  0  0  0  0
 14  5  1  0  0  0  0
 17 18  1  0  0  0  0
 18  1  1  0  0  0  0
 18 19  2  0  0  0  0
 19 24  1  0  0  0  0
 20 19  1  0  0  0  0
 21 20  2  0  0  0  0
 22 17  2  0  0  0  0
 22 21  1  0  0  0  0
 23 17  1  0  0  0  0
 25 21  1  0  0  0  0
 27 26  1  0  0  0  0
 27 34  1  0  0  0  0
 28 27  2  0  0  0  0
 29 28  1  0  0  0  0
 29 31  2  0  0  0  0
 30 29  1  0  0  0  0
 31 33  1  0  0  0  0
 32 31  1  0  0  0  0
 33 34  2  0  0  0  0
M  END
>  <minimizedAffinity>
-5.01605272

$$$$
