
 OpenBabel03272507193D

 30 32  0  0  1  0  0  0  0  0999 V2000
   37.6340   32.0450   48.7810 C   0  0  0  0  0  0  0  0  0  0  0  0
   38.5900   33.0180   49.0210 C   0  0  0  0  0  0  0  0  0  0  0  0
   39.4080   33.3100   47.9050 C   0  0  0  0  0  0  0  0  0  0  0  0
   39.2360   32.6670   46.7130 N   0  0  0  0  0  0  0  0  0  0  0  0
   38.2810   31.7280   46.5510 C   0  0  0  0  0  0  0  0  0  0  0  0
   37.4650   31.4070   47.5930 N   0  0  0  0  0  0  0  0  0  0  0  0
   38.7030   33.5040   49.9620 H   0  0  0  0  0  0  0  0  0  0  0  0
   40.1630   34.0510   48.0280 H   0  0  0  0  0  0  0  0  0  0  0  0
   36.9980   32.7980   44.2420 F   0  0  0  0  0  0  0  0  0  0  0  0
   37.6640   31.6530   44.0770 C   0  0  0  0  0  0  0  0  0  0  0  0
   38.2670   31.1730   45.2150 C   0  0  0  0  0  0  0  0  0  0  0  0
   38.9860   29.9910   45.1580 C   0  0  0  0  0  0  0  0  0  0  0  0
   39.5150   29.4900   45.9680 H   0  0  0  0  0  0  0  0  0  0  0  0
   39.1000   29.2880   43.9530 C   0  0  0  0  0  0  0  0  0  0  0  0
   39.6400   28.3620   43.8190 H   0  0  0  0  0  0  0  0  0  0  0  0
   38.4900   29.7760   42.8050 C   0  0  0  0  0  3  0  0  0  0  0  0
   37.7810   30.9530   42.8930 C   0  0  0  0  0  3  0  0  0  0  0  0
   36.7350   31.7250   49.9310 C   0  0  1  0  0  0  0  0  0  0  0  0
   35.9340   30.5040   49.9750 C   0  0  2  0  0  0  0  0  0  0  0  0
   37.2170   30.5130   50.7440 C   0  0  0  0  0  0  0  0  0  0  0  0
   36.5360   32.6320   50.5700 H   0  0  0  0  0  0  0  0  0  0  0  0
   34.9360   30.6600   50.4560 H   0  0  0  0  0  0  0  0  0  0  0  0
   38.0730   29.9240   50.3760 H   0  0  0  0  0  0  0  0  0  0  0  0
   37.0660   30.5950   51.8390 H   0  0  0  0  0  0  0  0  0  0  0  0
   35.8550   29.7540   48.8050 O   0  0  0  0  0  0  0  0  0  0  0  0
   34.7550   29.3910   48.0950 C   0  0  0  0  0  0  0  0  0  0  0  0
   34.4120   28.1970   47.9670 O   0  0  0  0  0  0  0  0  0  0  0  0
   34.1510   30.5450   47.5870 N   0  0  0  0  0  0  0  0  0  0  0  0
   34.6130   30.9540   46.7240 H   0  0  0  0  0  0  0  0  0  0  0  0
   33.3800   30.6240   48.2910 H   0  0  0  0  0  0  0  0  0  0  0  0
  1  2  1  0  0  0  0
  1 18  1  0  0  0  0
  2  7  1  0  0  0  0
  3  8  1  0  0  0  0
  3  2  2  0  0  0  0
  4  3  1  0  0  0  0
  5  4  2  0  0  0  0
  5  6  1  0  0  0  0
  6  1  2  0  0  0  0
 10  9  1  0  0  0  0
 10 11  1  0  0  0  0
 11  5  1  0  0  0  0
 12 11  2  0  0  0  0
 12 13  1  0  0  0  0
 14 12  1  0  0  0  0
 15 14  1  0  0  0  0
 16 17  1  0  0  0  0
 16 14  2  0  0  0  0
 17 10  2  0  0  0  0
 18 19  1  0  0  0  0
 18 21  1  1  0  0  0
 18 20  1  0  0  0  0
 19 22  1  1  0  0  0
 19 20  1  0  0  0  0
 20 24  1  0  0  0  0
 23 20  1  0  0  0  0
 25 19  1  0  0  0  0
 26 25  1  0  0  0  0
 27 26  2  0  0  0  0
 28 26  1  0  0  0  0
 28 30  1  0  0  0  0
 29 28  1  0  0  0  0
M  END
>  <minimizedAffinity>
-5.533957

>  <minimizedRMSD>
1.51630855

$$$$
