
 OpenBabel03272508383D

 44 47  0  0  1  0  0  0  0  0999 V2000
   36.4060   28.3270   33.7690 C   0  0  0  0  0  0  0  0  0  0  0  0
   37.3640   28.9170   33.8930 H   0  0  0  0  0  0  0  0  0  0  0  0
   36.2470   27.9120   34.7970 H   0  0  0  0  0  0  0  0  0  0  0  0
   35.3900   29.2750   33.5510 N   0  0  0  0  0  0  0  0  0  0  0  0
   34.7220   29.2020   32.3150 C   0  0  0  0  0  0  0  0  0  0  0  0
   34.8380   30.3900   31.4390 C   0  0  0  0  0  0  0  0  0  0  0  0
   34.8050   31.6020   32.1330 O   0  0  0  0  0  0  0  0  0  0  0  0
   35.7340   31.6360   33.1190 C   0  0  0  0  0  0  0  0  0  0  0  0
   35.5190   30.5390   34.1170 C   0  0  1  0  0  0  0  0  0  0  0  0
   34.7490   28.2700   31.7400 H   0  0  0  0  0  0  0  0  0  0  0  0
   33.6590   29.1550   32.6570 H   0  0  0  0  0  0  0  0  0  0  0  0
   35.4130   30.3490   30.5290 H   0  0  0  0  0  0  0  0  0  0  0  0
   33.8000   30.4760   30.9300 H   0  0  0  0  0  0  0  0  0  0  0  0
   36.7670   31.8510   32.8400 H   0  0  0  0  0  0  0  0  0  0  0  0
   35.4830   32.5670   33.6910 H   0  0  0  0  0  0  0  0  0  0  0  0
   36.5670   30.4960   34.6310 H   0  0  0  0  0  0  0  0  0  0  0  0
   36.1580   32.3720   36.3000 F   0  0  0  0  0  0  0  0  0  0  0  0
   34.9420   31.7950   36.2400 C   0  0  0  0  0  0  0  0  0  0  0  0
   34.6520   30.9270   35.2350 C   0  0  0  0  0  0  0  0  0  0  0  0
   33.3470   30.4340   35.3890 C   0  0  0  0  0  0  0  0  0  0  0  0
   32.9570   29.7140   34.6540 H   0  0  0  0  0  0  0  0  0  0  0  0
   32.4450   30.7410   36.3820 C   0  0  0  0  0  0  0  0  0  0  0  0
   31.4580   30.3060   36.4150 H   0  0  0  0  0  0  0  0  0  0  0  0
   32.8540   31.6350   37.3450 C   0  0  0  0  0  3  0  0  0  0  0  0
   34.1150   32.1710   37.2760 C   0  0  0  0  0  3  0  0  0  0  0  0
   36.6470   27.2980   32.7800 C   0  0  0  0  0  0  0  0  0  0  0  0
   35.6190   26.9700   32.4020 H   0  0  0  0  0  0  0  0  0  0  0  0
   37.1980   27.4280   31.8700 H   0  0  0  0  0  0  0  0  0  0  0  0
   38.0560   24.7540   34.8840 C   0  0  0  0  0  0  0  0  0  0  0  0
   38.0670   24.1070   33.6630 C   0  0  0  0  0  0  0  0  0  0  0  0
   37.5380   24.9910   32.7260 C   0  0  0  0  0  0  0  0  0  0  0  0
   37.2370   26.1050   33.3890 N   0  0  0  0  0  0  0  0  0  0  0  0
   37.5490   25.9590   34.6850 N   0  0  0  0  0  0  0  0  0  0  0  0
   38.4310   23.0760   33.4830 H   0  0  0  0  0  0  0  0  0  0  0  0
   37.4770   24.6580   31.7590 H   0  0  0  0  0  0  0  0  0  0  0  0
   38.4690   23.6080   38.4380 C   0  0  0  0  0  0  0  0  0  0  0  0
   37.9210   24.2450   37.3350 C   0  0  0  0  0  0  0  0  0  0  0  0
   38.5350   24.1410   36.0960 C   0  0  0  0  0  0  0  0  0  0  0  0
   39.6730   23.3910   36.0730 N   0  0  0  0  0  0  0  0  0  0  0  0
   40.2000   22.7770   37.1500 C   0  0  0  0  0  0  0  0  0  0  0  0
   39.5910   22.8920   38.3260 N   0  0  0  0  0  0  0  0  0  0  0  0
   37.9000   23.7610   39.3480 H   0  0  0  0  0  0  0  0  0  0  0  0
   37.0170   24.8390   37.3560 H   0  0  0  0  0  0  0  0  0  0  0  0
   41.1110   22.2030   37.0220 H   0  0  0  0  0  0  0  0  0  0  0  0
  1  2  1  0  0  0  0
  1  3  1  0  0  0  0
  4  1  1  0  0  0  0
  4  9  1  0  0  0  0
  5 11  1  0  0  0  0
  5  4  1  0  0  0  0
  6  7  1  0  0  0  0
  6  5  1  0  0  0  0
  7  8  1  0  0  0  0
  8 15  1  0  0  0  0
  8  9  1  0  0  0  0
  9 16  1  1  0  0  0
  9 19  1  0  0  0  0
 10  5  1  0  0  0  0
 12  6  1  0  0  0  0
 13  6  1  0  0  0  0
 14  8  1  0  0  0  0
 18 17  1  0  0  0  0
 18 25  1  0  0  0  0
 19 20  1  0  0  0  0
 19 18  2  0  0  0  0
 20 22  2  0  0  0  0
 21 20  1  0  0  0  0
 22 23  1  0  0  0  0
 22 24  1  0  0  0  0
 25 24  2  0  0  0  0
 26 32  1  0  0  0  0
 26  1  1  0  0  0  0
 27 26  1  0  0  0  0
 28 26  1  0  0  0  0
 29 38  1  0  0  0  0
 30 29  1  0  0  0  0
 31 32  1  0  0  0  0
 31 30  2  0  0  0  0
 32 33  1  0  0  0  0
 33 29  2  0  0  0  0
 34 30  1  0  0  0  0
 35 31  1  0  0  0  0
 36 42  1  0  0  0  0
 37 43  1  0  0  0  0
 37 36  2  0  0  0  0
 38 37  1  0  0  0  0
 39 38  2  0  0  0  0
 39 40  1  0  0  0  0
 40 41  2  0  0  0  0
 41 36  1  0  0  0  0
 44 40  1  0  0  0  0
M  END
>  <minimizedAffinity>
-6.04872847

$$$$

 OpenBabel03272508383D

 44 47  0  0  1  0  0  0  0  0999 V2000
   38.4990   26.1890   33.4290 C   0  0  0  0  0  0  0  0  0  0  0  0
   38.5580   26.8430   34.3500 H   0  0  0  0  0  0  0  0  0  0  0  0
   39.2490   26.6680   32.7480 H   0  0  0  0  0  0  0  0  0  0  0  0
   39.0270   24.9390   33.8020 N   0  0  0  0  0  0  0  0  0  0  0  0
   39.9690   24.3720   32.9240 C   0  0  0  0  0  0  0  0  0  0  0  0
   39.5980   23.0740   32.3180 C   0  0  0  0  0  0  0  0  0  0  0  0
   38.9170   22.2220   33.1920 O   0  0  0  0  0  0  0  0  0  0  0  0
   37.8340   22.8290   33.7360 C   0  0  0  0  0  0  0  0  0  0  0  0
   38.2190   24.0540   34.5080 C   0  0  1  0  0  0  0  0  0  0  0  0
   40.5030   25.0140   32.2150 H   0  0  0  0  0  0  0  0  0  0  0  0
   40.8130   24.1690   33.6300 H   0  0  0  0  0  0  0  0  0  0  0  0
   39.3670   23.0020   31.2680 H   0  0  0  0  0  0  0  0  0  0  0  0
   40.5940   22.4810   32.2710 H   0  0  0  0  0  0  0  0  0  0  0  0
   36.9280   22.8940   33.1310 H   0  0  0  0  0  0  0  0  0  0  0  0
   37.4960   22.1130   34.5290 H   0  0  0  0  0  0  0  0  0  0  0  0
   37.1950   24.6140   34.5650 H   0  0  0  0  0  0  0  0  0  0  0  0
   40.5040   22.6200   35.6280 F   0  0  0  0  0  0  0  0  0  0  0  0
   39.5700   23.1410   36.4470 C   0  0  0  0  0  0  0  0  0  0  0  0
   38.4960   23.7900   35.9250 C   0  0  0  0  0  0  0  0  0  0  0  0
   37.6480   24.2220   36.9560 C   0  0  0  0  0  0  0  0  0  0  0  0
   36.7270   24.7670   36.7000 H   0  0  0  0  0  0  0  0  0  0  0  0
   37.8170   24.0480   38.3110 C   0  0  0  0  0  0  0  0  0  0  0  0
   37.1040   24.4190   39.0310 H   0  0  0  0  0  0  0  0  0  0  0  0
   38.9460   23.3740   38.7190 C   0  0  0  0  0  3  0  0  0  0  0  0
   39.8340   22.9150   37.7800 C   0  0  0  0  0  3  0  0  0  0  0  0
   37.1470   26.2680   32.9170 C   0  0  0  0  0  0  0  0  0  0  0  0
   37.2230   26.1140   31.7870 H   0  0  0  0  0  0  0  0  0  0  0  0
   36.3420   25.6140   33.1870 H   0  0  0  0  0  0  0  0  0  0  0  0
   35.7380   29.3730   34.0380 C   0  0  0  0  0  0  0  0  0  0  0  0
   35.8930   29.6370   32.6900 C   0  0  0  0  0  0  0  0  0  0  0  0
   36.4410   28.4970   32.1090 C   0  0  0  0  0  0  0  0  0  0  0  0
   36.5930   27.6120   33.0910 N   0  0  0  0  0  0  0  0  0  0  0  0
   36.1700   28.1420   34.2480 N   0  0  0  0  0  0  0  0  0  0  0  0
   35.6260   30.5860   32.1840 H   0  0  0  0  0  0  0  0  0  0  0  0
   36.6190   28.5310   31.1000 H   0  0  0  0  0  0  0  0  0  0  0  0
   35.3080   32.1260   36.5580 C   0  0  0  0  0  0  0  0  0  0  0  0
   35.9400   31.2430   35.6950 C   0  0  0  0  0  0  0  0  0  0  0  0
   35.1930   30.3330   34.9630 C   0  0  0  0  0  0  0  0  0  0  0  0
   33.8460   30.3900   35.1660 N   0  0  0  0  0  0  0  0  0  0  0  0
   33.2410   31.2510   36.0070 C   0  0  0  0  0  0  0  0  0  0  0  0
   33.9800   32.1130   36.6970 N   0  0  0  0  0  0  0  0  0  0  0  0
   35.9950   32.7870   37.0740 H   0  0  0  0  0  0  0  0  0  0  0  0
   37.0080   31.2000   35.5370 H   0  0  0  0  0  0  0  0  0  0  0  0
   32.1600   31.2130   36.0940 H   0  0  0  0  0  0  0  0  0  0  0  0
  1  4  1  0  0  0  0
  1  2  1  0  0  0  0
  3  1  1  0  0  0  0
  4  9  1  0  0  0  0
  5 11  1  0  0  0  0
  5  4  1  0  0  0  0
  6  5  1  0  0  0  0
  6  7  1  0  0  0  0
  7  8  1  0  0  0  0
  8  9  1  0  0  0  0
  8 15  1  0  0  0  0
  9 16  1  1  0  0  0
  9 19  1  0  0  0  0
 10  5  1  0  0  0  0
 12  6  1  0  0  0  0
 13  6  1  0  0  0  0
 14  8  1  0  0  0  0
 17 18  1  0  0  0  0
 18 25  1  0  0  0  0
 19 18  2  0  0  0  0
 19 20  1  0  0  0  0
 20 22  2  0  0  0  0
 21 20  1  0  0  0  0
 22 24  1  0  0  0  0
 22 23  1  0  0  0  0
 25 24  2  0  0  0  0
 26 32  1  0  0  0  0
 26 28  1  0  0  0  0
 26  1  1  0  0  0  0
 27 26  1  0  0  0  0
 29 33  2  0  0  0  0
 29 38  1  0  0  0  0
 30 29  1  0  0  0  0
 31 30  2  0  0  0  0
 31 32  1  0  0  0  0
 32 33  1  0  0  0  0
 34 30  1  0  0  0  0
 35 31  1  0  0  0  0
 36 41  1  0  0  0  0
 36 42  1  0  0  0  0
 37 36  2  0  0  0  0
 38 39  2  0  0  0  0
 38 37  1  0  0  0  0
 39 40  1  0  0  0  0
 40 44  1  0  0  0  0
 40 41  2  0  0  0  0
 43 37  1  0  0  0  0
M  END
>  <minimizedAffinity>
-5.88401985

$$$$

 OpenBabel03272508383D

 44 47  0  0  1  0  0  0  0  0999 V2000
   38.4920   26.5700   33.1460 C   0  0  0  0  0  0  0  0  0  0  0  0
   37.5210   26.2500   33.6310 H   0  0  0  0  0  0  0  0  0  0  0  0
   38.4040   27.6870   33.1510 H   0  0  0  0  0  0  0  0  0  0  0  0
   39.5120   26.2380   34.0560 N   0  0  0  0  0  0  0  0  0  0  0  0
   40.6510   27.0640   34.0480 C   0  0  0  0  0  0  0  0  0  0  0  0
   41.9300   26.4080   33.6930 C   0  0  0  0  0  0  0  0  0  0  0  0
   42.0580   25.1170   34.2100 O   0  0  0  0  0  0  0  0  0  0  0  0
   41.0040   24.3360   33.8680 C   0  0  0  0  0  0  0  0  0  0  0  0
   39.7130   24.9000   34.3780 C   0  0  1  0  0  0  0  0  0  0  0  0
   40.5830   28.0740   33.6300 H   0  0  0  0  0  0  0  0  0  0  0  0
   40.7160   27.3370   35.1300 H   0  0  0  0  0  0  0  0  0  0  0  0
   42.4190   26.6250   32.7580 H   0  0  0  0  0  0  0  0  0  0  0  0
   42.7160   26.9240   34.3710 H   0  0  0  0  0  0  0  0  0  0  0  0
   40.9920   23.9080   32.8640 H   0  0  0  0  0  0  0  0  0  0  0  0
   41.1480   23.4090   34.4800 H   0  0  0  0  0  0  0  0  0  0  0  0
   38.9420   24.3430   33.7000 H   0  0  0  0  0  0  0  0  0  0  0  0
   37.5210   25.8340   36.0670 F   0  0  0  0  0  0  0  0  0  0  0  0
   38.3150   24.8310   36.4900 C   0  0  0  0  0  0  0  0  0  0  0  0
   39.3480   24.4110   35.7130 C   0  0  0  0  0  0  0  0  0  0  0  0
   40.0490   23.3820   36.3610 C   0  0  0  0  0  0  0  0  0  0  0  0
   40.9190   22.9300   35.8630 H   0  0  0  0  0  0  0  0  0  0  0  0
   39.7840   22.8350   37.5970 C   0  0  0  0  0  0  0  0  0  0  0  0
   40.3850   22.0420   38.0130 H   0  0  0  0  0  0  0  0  0  0  0  0
   38.7100   23.3450   38.2890 C   0  0  0  0  0  3  0  0  0  0  0  0
   37.9650   24.3530   37.7330 C   0  0  0  0  0  3  0  0  0  0  0  0
   38.5210   26.0160   31.8090 C   0  0  0  0  0  0  0  0  0  0  0  0
   38.2720   26.8780   31.1000 H   0  0  0  0  0  0  0  0  0  0  0  0
   39.3760   25.5700   31.3400 H   0  0  0  0  0  0  0  0  0  0  0  0
   36.4190   23.1250   31.4900 C   0  0  0  0  0  0  0  0  0  0  0  0
   35.5050   24.1310   31.2400 C   0  0  0  0  0  0  0  0  0  0  0  0
   36.1910   25.3390   31.3290 C   0  0  0  0  0  0  0  0  0  0  0  0
   37.4530   25.0330   31.6190 N   0  0  0  0  0  0  0  0  0  0  0  0
   37.5860   23.7020   31.7150 N   0  0  0  0  0  0  0  0  0  0  0  0
   34.4300   23.9840   31.0140 H   0  0  0  0  0  0  0  0  0  0  0  0
   35.6470   26.1930   31.1670 H   0  0  0  0  0  0  0  0  0  0  0  0
   34.7770   19.8070   32.1300 C   0  0  0  0  0  0  0  0  0  0  0  0
   35.0320   21.1670   32.2180 C   0  0  0  0  0  0  0  0  0  0  0  0
   36.0640   21.7290   31.4810 C   0  0  0  0  0  0  0  0  0  0  0  0
   36.7650   20.8560   30.7040 N   0  0  0  0  0  0  0  0  0  0  0  0
   36.5110   19.5350   30.6260 C   0  0  0  0  0  0  0  0  0  0  0  0
   35.5160   19.0220   31.3420 N   0  0  0  0  0  0  0  0  0  0  0  0
   33.9470   19.4860   32.7500 H   0  0  0  0  0  0  0  0  0  0  0  0
   34.4740   21.8570   32.8350 H   0  0  0  0  0  0  0  0  0  0  0  0
   37.1300   18.9280   29.9750 H   0  0  0  0  0  0  0  0  0  0  0  0
  1  3  1  0  0  0  0
  1  2  1  0  0  0  0
  1  4  1  0  0  0  0
  4  9  1  0  0  0  0
  5  4  1  0  0  0  0
  5 11  1  0  0  0  0
  6  5  1  0  0  0  0
  6  7  1  0  0  0  0
  6 13  1  0  0  0  0
  8  7  1  0  0  0  0
  8  9  1  0  0  0  0
  8 15  1  0  0  0  0
  9 16  1  6  0  0  0
  9 19  1  0  0  0  0
 10  5  1  0  0  0  0
 12  6  1  0  0  0  0
 14  8  1  0  0  0  0
 17 18  1  0  0  0  0
 18 25  1  0  0  0  0
 19 20  1  0  0  0  0
 19 18  2  0  0  0  0
 20 22  2  0  0  0  0
 21 20  1  0  0  0  0
 22 23  1  0  0  0  0
 22 24  1  0  0  0  0
 25 24  2  0  0  0  0
 26  1  1  0  0  0  0
 27 26  1  0  0  0  0
 28 26  1  0  0  0  0
 29 33  2  0  0  0  0
 30 31  2  0  0  0  0
 30 29  1  0  0  0  0
 31 32  1  0  0  0  0
 32 33  1  0  0  0  0
 32 26  1  0  0  0  0
 34 30  1  0  0  0  0
 35 31  1  0  0  0  0
 36 37  1  0  0  0  0
 36 42  1  0  0  0  0
 37 43  1  0  0  0  0
 38 29  1  0  0  0  0
 38 37  2  0  0  0  0
 39 38  1  0  0  0  0
 40 39  2  0  0  0  0
 40 41  1  0  0  0  0
 41 36  2  0  0  0  0
 44 40  1  0  0  0  0
M  END
>  <minimizedAffinity>
-5.88008976

$$$$

 OpenBabel03272508383D

 44 47  0  0  1  0  0  0  0  0999 V2000
   38.0680   25.5040   34.9100 C   0  0  0  0  0  0  0  0  0  0  0  0
   37.3800   26.0770   35.6030 H   0  0  0  0  0  0  0  0  0  0  0  0
   39.0770   25.8930   35.2030 H   0  0  0  0  0  0  0  0  0  0  0  0
   38.0120   24.1620   35.3260 N   0  0  0  0  0  0  0  0  0  0  0  0
   38.2650   23.9180   36.6890 C   0  0  0  0  0  0  0  0  0  0  0  0
   39.4400   23.0700   36.9940 C   0  0  0  0  0  0  0  0  0  0  0  0
   39.6180   22.0170   36.0940 O   0  0  0  0  0  0  0  0  0  0  0  0
   39.6610   22.4580   34.8130 C   0  0  0  0  0  0  0  0  0  0  0  0
   38.3960   23.1670   34.4330 C   0  0  1  0  0  0  0  0  0  0  0  0
   38.1520   24.7320   37.4130 H   0  0  0  0  0  0  0  0  0  0  0  0
   37.3580   23.3250   36.9640 H   0  0  0  0  0  0  0  0  0  0  0  0
   40.3190   23.4920   37.4530 H   0  0  0  0  0  0  0  0  0  0  0  0
   39.1090   22.4380   37.9080 H   0  0  0  0  0  0  0  0  0  0  0  0
   40.5950   22.8930   34.4540 H   0  0  0  0  0  0  0  0  0  0  0  0
   39.6290   21.5170   34.2050 H   0  0  0  0  0  0  0  0  0  0  0  0
   38.7500   23.7700   33.4970 H   0  0  0  0  0  0  0  0  0  0  0  0
   36.7210   21.2310   35.8400 F   0  0  0  0  0  0  0  0  0  0  0  0
   36.5870   21.3950   34.5090 C   0  0  0  0  0  0  0  0  0  0  0  0
   37.3800   22.2810   33.8520 C   0  0  0  0  0  0  0  0  0  0  0  0
   37.0830   22.2650   32.4800 C   0  0  0  0  0  0  0  0  0  0  0  0
   37.6420   22.9280   31.8040 H   0  0  0  0  0  0  0  0  0  0  0  0
   36.1440   21.4940   31.8330 C   0  0  0  0  0  0  0  0  0  0  0  0
   35.9890   21.5530   30.7670 H   0  0  0  0  0  0  0  0  0  0  0  0
   35.4000   20.6340   32.6080 C   0  0  0  0  0  3  0  0  0  0  0  0
   35.6200   20.5810   33.9610 C   0  0  0  0  0  3  0  0  0  0  0  0
   37.7080   25.8460   33.5500 C   0  0  0  0  0  0  0  0  0  0  0  0
   38.6910   26.0280   32.9950 H   0  0  0  0  0  0  0  0  0  0  0  0
   37.1730   25.2110   32.8720 H   0  0  0  0  0  0  0  0  0  0  0  0
   35.9700   28.9310   34.1360 C   0  0  0  0  0  0  0  0  0  0  0  0
   35.9850   28.9070   32.7540 C   0  0  0  0  0  0  0  0  0  0  0  0
   36.6410   27.7400   32.3720 C   0  0  0  0  0  0  0  0  0  0  0  0
   36.9880   27.1190   33.4960 N   0  0  0  0  0  0  0  0  0  0  0  0
   36.5840   27.8370   34.5530 N   0  0  0  0  0  0  0  0  0  0  0  0
   35.5520   29.6820   32.0920 H   0  0  0  0  0  0  0  0  0  0  0  0
   36.7350   27.5720   31.3650 H   0  0  0  0  0  0  0  0  0  0  0  0
   35.3850   31.9440   36.3020 C   0  0  0  0  0  0  0  0  0  0  0  0
   36.0690   30.9550   35.6110 C   0  0  0  0  0  0  0  0  0  0  0  0
   35.3690   29.9990   34.8920 C   0  0  0  0  0  0  0  0  0  0  0  0
   34.0120   30.1220   34.9310 N   0  0  0  0  0  0  0  0  0  0  0  0
   33.3550   31.0850   35.6060 C   0  0  0  0  0  0  0  0  0  0  0  0
   34.0510   31.9900   36.2870 N   0  0  0  0  0  0  0  0  0  0  0  0
   36.0390   32.6330   36.8250 H   0  0  0  0  0  0  0  0  0  0  0  0
   37.1460   30.8610   35.5810 H   0  0  0  0  0  0  0  0  0  0  0  0
   32.2710   31.0920   35.5710 H   0  0  0  0  0  0  0  0  0  0  0  0
  1  3  1  0  0  0  0
  1  4  1  0  0  0  0
  1  2  1  0  0  0  0
  4  5  1  0  0  0  0
  5 11  1  0  0  0  0
  5  6  1  0  0  0  0
  5 10  1  0  0  0  0
  6 12  1  0  0  0  0
  6 13  1  0  0  0  0
  7  6  1  0  0  0  0
  8  7  1  0  0  0  0
  9 16  1  6  0  0  0
  9  8  1  0  0  0  0
  9  4  1  0  0  0  0
 14  8  1  0  0  0  0
 15  8  1  0  0  0  0
 18 17  1  0  0  0  0
 19  9  1  0  0  0  0
 19 18  2  0  0  0  0
 20 19  1  0  0  0  0
 21 20  1  0  0  0  0
 22 20  2  0  0  0  0
 22 24  1  0  0  0  0
 23 22  1  0  0  0  0
 24 25  2  0  0  0  0
 25 18  1  0  0  0  0
 26  1  1  0  0  0  0
 27 26  1  0  0  0  0
 28 26  1  0  0  0  0
 29 33  2  0  0  0  0
 29 38  1  0  0  0  0
 30 29  1  0  0  0  0
 31 30  2  0  0  0  0
 31 32  1  0  0  0  0
 32 26  1  0  0  0  0
 32 33  1  0  0  0  0
 34 30  1  0  0  0  0
 35 31  1  0  0  0  0
 36 42  1  0  0  0  0
 37 36  2  0  0  0  0
 38 39  2  0  0  0  0
 38 37  1  0  0  0  0
 39 40  1  0  0  0  0
 40 41  2  0  0  0  0
 41 36  1  0  0  0  0
 43 37  1  0  0  0  0
 44 40  1  0  0  0  0
M  END
>  <minimizedAffinity>
-5.83698416

$$$$

 OpenBabel03272508383D

 44 47  0  0  1  0  0  0  0  0999 V2000
   38.2000   25.2170   36.5460 C   0  0  0  0  0  0  0  0  0  0  0  0
   37.0920   25.4060   36.4140 H   0  0  0  0  0  0  0  0  0  0  0  0
   38.3940   25.6410   37.5640 H   0  0  0  0  0  0  0  0  0  0  0  0
   38.3490   23.8220   36.6500 N   0  0  0  0  0  0  0  0  0  0  0  0
   38.8930   23.3400   37.8540 C   0  0  0  0  0  0  0  0  0  0  0  0
   40.1760   22.6090   37.7440 C   0  0  0  0  0  0  0  0  0  0  0  0
   40.2600   21.7950   36.6120 O   0  0  0  0  0  0  0  0  0  0  0  0
   40.0020   22.4900   35.4780 C   0  0  0  0  0  0  0  0  0  0  0  0
   38.6290   23.0900   35.5010 C   0  0  1  0  0  0  0  0  0  0  0  0
   38.8580   23.9670   38.7520 H   0  0  0  0  0  0  0  0  0  0  0  0
   38.1180   22.5900   38.1460 H   0  0  0  0  0  0  0  0  0  0  0  0
   41.0890   23.0390   38.1210 H   0  0  0  0  0  0  0  0  0  0  0  0
   40.0950   21.7650   38.5350 H   0  0  0  0  0  0  0  0  0  0  0  0
   40.8010   23.1070   35.0650 H   0  0  0  0  0  0  0  0  0  0  0  0
   39.9310   21.6980   34.6880 H   0  0  0  0  0  0  0  0  0  0  0  0
   38.7310   23.9130   34.6780 H   0  0  0  0  0  0  0  0  0  0  0  0
   38.1500   22.5410   32.6720 F   0  0  0  0  0  0  0  0  0  0  0  0
   37.3890   21.9460   33.6110 C   0  0  0  0  0  0  0  0  0  0  0  0
   37.5990   22.2170   34.9260 C   0  0  0  0  0  0  0  0  0  0  0  0
   36.6790   21.5090   35.7150 C   0  0  0  0  0  0  0  0  0  0  0  0
   36.7140   21.6210   36.8090 H   0  0  0  0  0  0  0  0  0  0  0  0
   35.6890   20.6530   35.2870 C   0  0  0  0  0  0  0  0  0  0  0  0
   35.0260   20.1530   35.9750 H   0  0  0  0  0  0  0  0  0  0  0  0
   35.5760   20.4580   33.9290 C   0  0  0  0  0  3  0  0  0  0  0  0
   36.4330   21.1090   33.0790 C   0  0  0  0  0  3  0  0  0  0  0  0
   38.8970   25.9330   35.4980 C   0  0  0  0  0  0  0  0  0  0  0  0
   39.4600   26.7850   36.0120 H   0  0  0  0  0  0  0  0  0  0  0  0
   39.6450   25.5160   34.8530 H   0  0  0  0  0  0  0  0  0  0  0  0
   36.5370   28.0200   33.7780 C   0  0  0  0  0  0  0  0  0  0  0  0
   36.7260   27.0250   32.8390 C   0  0  0  0  0  0  0  0  0  0  0  0
   37.6370   26.1200   33.3780 C   0  0  0  0  0  0  0  0  0  0  0  0
   37.9560   26.5830   34.5840 N   0  0  0  0  0  0  0  0  0  0  0  0
   37.2940   27.7240   34.8210 N   0  0  0  0  0  0  0  0  0  0  0  0
   36.2360   26.9730   31.8470 H   0  0  0  0  0  0  0  0  0  0  0  0
   37.8850   25.3120   32.7980 H   0  0  0  0  0  0  0  0  0  0  0  0
   34.4450   31.1110   34.2120 C   0  0  0  0  0  0  0  0  0  0  0  0
   35.3060   30.0710   34.5290 C   0  0  0  0  0  0  0  0  0  0  0  0
   35.6520   29.1370   33.5650 C   0  0  0  0  0  0  0  0  0  0  0  0
   35.0900   29.3320   32.3390 N   0  0  0  0  0  0  0  0  0  0  0  0
   34.2530   30.3440   32.0400 C   0  0  0  0  0  0  0  0  0  0  0  0
   33.9380   31.2270   32.9820 N   0  0  0  0  0  0  0  0  0  0  0  0
   34.2500   31.7760   35.0460 H   0  0  0  0  0  0  0  0  0  0  0  0
   35.7510   29.9190   35.5030 H   0  0  0  0  0  0  0  0  0  0  0  0
   33.8610   30.4080   31.0300 H   0  0  0  0  0  0  0  0  0  0  0  0
  1  4  1  0  0  0  0
  1  3  1  0  0  0  0
  2  1  1  0  0  0  0
  4  5  1  0  0  0  0
  5 11  1  0  0  0  0
  5 10  1  0  0  0  0
  6  5  1  0  0  0  0
  6 12  1  0  0  0  0
  6 13  1  0  0  0  0
  7  6  1  0  0  0  0
  8  9  1  0  0  0  0
  8  7  1  0  0  0  0
  9 16  1  6  0  0  0
  9  4  1  0  0  0  0
 14  8  1  0  0  0  0
 15  8  1  0  0  0  0
 17 18  1  0  0  0  0
 18 19  1  0  0  0  0
 19  9  1  0  0  0  0
 19 20  2  0  0  0  0
 20 21  1  0  0  0  0
 22 20  1  0  0  0  0
 22 23  1  0  0  0  0
 24 22  2  0  0  0  0
 25 18  2  0  0  0  0
 25 24  1  0  0  0  0
 26 27  1  0  0  0  0
 26  1  1  0  0  0  0
 28 26  1  0  0  0  0
 29 33  2  0  0  0  0
 30 31  2  0  0  0  0
 30 29  1  0  0  0  0
 31 32  1  0  0  0  0
 32 33  1  0  0  0  0
 32 26  1  0  0  0  0
 34 30  1  0  0  0  0
 35 31  1  0  0  0  0
 36 37  1  0  0  0  0
 36 42  1  0  0  0  0
 37 43  1  0  0  0  0
 38 29  1  0  0  0  0
 38 37  2  0  0  0  0
 39 38  1  0  0  0  0
 40 39  2  0  0  0  0
 40 41  1  0  0  0  0
 41 36  2  0  0  0  0
 44 40  1  0  0  0  0
M  END
>  <minimizedAffinity>
-5.7885375

$$$$

 OpenBabel03272508383D

 44 47  0  0  1  0  0  0  0  0999 V2000
   37.8960   23.7980   30.4380 C   0  0  0  0  0  0  0  0  0  0  0  0
   37.2100   23.4910   29.5920 H   0  0  0  0  0  0  0  0  0  0  0  0
   38.6200   24.4800   29.9230 H   0  0  0  0  0  0  0  0  0  0  0  0
   37.1220   24.5980   31.2970 N   0  0  0  0  0  0  0  0  0  0  0  0
   35.7360   24.3530   31.3010 C   0  0  0  0  0  0  0  0  0  0  0  0
   34.8730   25.4780   30.8720 C   0  0  0  0  0  0  0  0  0  0  0  0
   35.3210   26.7260   31.3120 O   0  0  0  0  0  0  0  0  0  0  0  0
   36.6110   26.9450   30.9570 C   0  0  0  0  0  0  0  0  0  0  0  0
   37.5250   25.9080   31.5370 C   0  0  1  0  0  0  0  0  0  0  0  0
   35.3570   23.3900   30.9430 H   0  0  0  0  0  0  0  0  0  0  0  0
   35.5560   24.2060   32.3940 H   0  0  0  0  0  0  0  0  0  0  0  0
   34.3410   25.4370   29.9360 H   0  0  0  0  0  0  0  0  0  0  0  0
   33.9390   25.4000   31.5550 H   0  0  0  0  0  0  0  0  0  0  0  0
   36.8120   27.2600   29.9320 H   0  0  0  0  0  0  0  0  0  0  0  0
   36.8860   27.8790   31.5120 H   0  0  0  0  0  0  0  0  0  0  0  0
   38.4640   26.0290   30.8520 H   0  0  0  0  0  0  0  0  0  0  0  0
   40.2530   26.7450   32.1610 F   0  0  0  0  0  0  0  0  0  0  0  0
   39.3290   26.6820   33.1390 C   0  0  0  0  0  0  0  0  0  0  0  0
   38.0650   26.2730   32.8520 C   0  0  0  0  0  0  0  0  0  0  0  0
   37.2870   26.2610   34.0200 C   0  0  0  0  0  0  0  0  0  0  0  0
   36.2340   25.9500   33.9590 H   0  0  0  0  0  0  0  0  0  0  0  0
   37.6820   26.5990   35.2950 C   0  0  0  0  0  0  0  0  0  0  0  0
   37.0060   26.5570   36.1350 H   0  0  0  0  0  0  0  0  0  0  0  0
   38.9880   27.0000   35.4600 C   0  0  0  0  0  3  0  0  0  0  0  0
   39.8230   27.0430   34.3730 C   0  0  0  0  0  3  0  0  0  0  0  0
   38.5250   22.5990   30.9520 C   0  0  0  0  0  0  0  0  0  0  0  0
   37.6810   21.8540   31.1490 H   0  0  0  0  0  0  0  0  0  0  0  0
   39.2450   22.0020   30.4290 H   0  0  0  0  0  0  0  0  0  0  0  0
   39.3820   23.0380   34.4100 C   0  0  0  0  0  0  0  0  0  0  0  0
   40.5970   23.3130   33.8110 C   0  0  0  0  0  0  0  0  0  0  0  0
   40.4160   23.1810   32.4370 C   0  0  0  0  0  0  0  0  0  0  0  0
   39.1410   22.8440   32.2580 N   0  0  0  0  0  0  0  0  0  0  0  0
   38.5240   22.7580   33.4450 N   0  0  0  0  0  0  0  0  0  0  0  0
   41.5310   23.5840   34.3420 H   0  0  0  0  0  0  0  0  0  0  0  0
   41.2330   23.3550   31.8440 H   0  0  0  0  0  0  0  0  0  0  0  0
   39.8900   22.9550   38.1320 C   0  0  0  0  0  0  0  0  0  0  0  0
   40.1900   22.8930   36.7790 C   0  0  0  0  0  0  0  0  0  0  0  0
   39.1890   23.0780   35.8370 C   0  0  0  0  0  0  0  0  0  0  0  0
   37.9470   23.3130   36.3470 N   0  0  0  0  0  0  0  0  0  0  0  0
   37.6650   23.3710   37.6630 C   0  0  0  0  0  0  0  0  0  0  0  0
   38.6430   23.1910   38.5450 N   0  0  0  0  0  0  0  0  0  0  0  0
   40.7520   22.7960   38.7690 H   0  0  0  0  0  0  0  0  0  0  0  0
   41.1760   22.7060   36.3780 H   0  0  0  0  0  0  0  0  0  0  0  0
   36.6410   23.5660   37.9620 H   0  0  0  0  0  0  0  0  0  0  0  0
  1 26  1  0  0  0  0
  1  4  1  0  0  0  0
  2  1  1  0  0  0  0
  3  1  1  0  0  0  0
  4  5  1  0  0  0  0
  4  9  1  0  0  0  0
  5 11  1  0  0  0  0
  6  5  1  0  0  0  0
  6  7  1  0  0  0  0
  6 13  1  0  0  0  0
  8  7  1  0  0  0  0
  8 15  1  0  0  0  0
  8  9  1  0  0  0  0
  9 16  1  6  0  0  0
  9 19  1  0  0  0  0
 10  5  1  0  0  0  0
 12  6  1  0  0  0  0
 14  8  1  0  0  0  0
 17 18  1  0  0  0  0
 18 25  1  0  0  0  0
 19 18  2  0  0  0  0
 19 20  1  0  0  0  0
 20 22  2  0  0  0  0
 21 20  1  0  0  0  0
 22 24  1  0  0  0  0
 22 23  1  0  0  0  0
 25 24  2  0  0  0  0
 26 27  1  0  0  0  0
 26 32  1  0  0  0  0
 28 26  1  0  0  0  0
 29 38  1  0  0  0  0
 30 34  1  0  0  0  0
 30 29  1  0  0  0  0
 31 30  2  0  0  0  0
 32 31  1  0  0  0  0
 32 33  1  0  0  0  0
 33 29  2  0  0  0  0
 35 31  1  0  0  0  0
 36 41  1  0  0  0  0
 36 42  1  0  0  0  0
 37 36  2  0  0  0  0
 38 39  2  0  0  0  0
 38 37  1  0  0  0  0
 39 40  1  0  0  0  0
 40 44  1  0  0  0  0
 40 41  2  0  0  0  0
 43 37  1  0  0  0  0
M  END
>  <minimizedAffinity>
-5.59413671

$$$$

 OpenBabel03272508383D

 44 47  0  0  1  0  0  0  0  0999 V2000
   37.5800   25.2690   33.6810 C   0  0  0  0  0  0  0  0  0  0  0  0
   36.4930   24.9720   33.7870 H   0  0  0  0  0  0  0  0  0  0  0  0
   37.8110   25.6910   34.6930 H   0  0  0  0  0  0  0  0  0  0  0  0
   38.3040   24.0680   33.5650 N   0  0  0  0  0  0  0  0  0  0  0  0
   38.6120   23.6480   32.2590 C   0  0  0  0  0  0  0  0  0  0  0  0
   38.0440   22.3460   31.8410 C   0  0  0  0  0  0  0  0  0  0  0  0
   38.0380   21.3870   32.8560 O   0  0  0  0  0  0  0  0  0  0  0  0
   37.4220   21.8460   33.9720 C   0  0  0  0  0  0  0  0  0  0  0  0
   38.1000   23.0690   34.5110 C   0  0  1  0  0  0  0  0  0  0  0  0
   38.6040   24.3760   31.4410 H   0  0  0  0  0  0  0  0  0  0  0  0
   39.7180   23.5060   32.3430 H   0  0  0  0  0  0  0  0  0  0  0  0
   37.2610   22.2990   31.1010 H   0  0  0  0  0  0  0  0  0  0  0  0
   38.8710   21.8690   31.1820 H   0  0  0  0  0  0  0  0  0  0  0  0
   36.3310   21.8400   33.9920 H   0  0  0  0  0  0  0  0  0  0  0  0
   37.6420   21.0610   34.7410 H   0  0  0  0  0  0  0  0  0  0  0  0
   37.2580   23.5100   35.1900 H   0  0  0  0  0  0  0  0  0  0  0  0
   38.0420   23.5960   37.3840 F   0  0  0  0  0  0  0  0  0  0  0  0
   39.1150   22.9980   36.8310 C   0  0  0  0  0  0  0  0  0  0  0  0
   39.1510   22.7710   35.4920 C   0  0  0  0  0  0  0  0  0  0  0  0
   40.3670   22.1660   35.1390 C   0  0  0  0  0  0  0  0  0  0  0  0
   40.5550   21.9160   34.0850 H   0  0  0  0  0  0  0  0  0  0  0  0
   41.4080   21.8260   35.9730 C   0  0  0  0  0  0  0  0  0  0  0  0
   42.3100   21.3610   35.6050 H   0  0  0  0  0  0  0  0  0  0  0  0
   41.2540   22.1050   37.3120 C   0  0  0  0  0  3  0  0  0  0  0  0
   40.0970   22.6960   37.7500 C   0  0  0  0  0  3  0  0  0  0  0  0
   37.6660   26.2590   32.6280 C   0  0  0  0  0  0  0  0  0  0  0  0
   38.7020   26.7330   32.7180 H   0  0  0  0  0  0  0  0  0  0  0  0
   37.5940   26.0560   31.5780 H   0  0  0  0  0  0  0  0  0  0  0  0
   35.6460   28.9760   33.8190 C   0  0  0  0  0  0  0  0  0  0  0  0
   35.1370   28.8230   32.5430 C   0  0  0  0  0  0  0  0  0  0  0  0
   35.8380   27.7790   31.9450 C   0  0  0  0  0  0  0  0  0  0  0  0
   36.7160   27.3510   32.8490 N   0  0  0  0  0  0  0  0  0  0  0  0
   36.5980   28.0730   33.9720 N   0  0  0  0  0  0  0  0  0  0  0  0
   34.3240   29.4280   32.0960 H   0  0  0  0  0  0  0  0  0  0  0  0
   35.5760   27.5370   30.9840 H   0  0  0  0  0  0  0  0  0  0  0  0
   35.3760   31.7690   36.3180 C   0  0  0  0  0  0  0  0  0  0  0  0
   35.9560   30.8470   35.4590 C   0  0  0  0  0  0  0  0  0  0  0  0
   35.1580   29.9710   34.7390 C   0  0  0  0  0  0  0  0  0  0  0  0
   33.8170   30.1000   34.9500 N   0  0  0  0  0  0  0  0  0  0  0  0
   33.2630   30.9980   35.7870 C   0  0  0  0  0  0  0  0  0  0  0  0
   34.0510   31.8260   36.4650 N   0  0  0  0  0  0  0  0  0  0  0  0
   36.1010   32.3980   36.8230 H   0  0  0  0  0  0  0  0  0  0  0  0
   37.0200   30.7470   35.2930 H   0  0  0  0  0  0  0  0  0  0  0  0
   32.1830   31.0170   35.8810 H   0  0  0  0  0  0  0  0  0  0  0  0
  1  2  1  0  0  0  0
  1  3  1  0  0  0  0
  4  1  1  0  0  0  0
  4  9  1  0  0  0  0
  5 11  1  0  0  0  0
  5  4  1  0  0  0  0
  6  5  1  0  0  0  0
  6  7  1  0  0  0  0
  7  8  1  0  0  0  0
  8 14  1  0  0  0  0
  8  9  1  0  0  0  0
  8 15  1  0  0  0  0
  9 16  1  1  0  0  0
  9 19  1  0  0  0  0
 10  5  1  0  0  0  0
 12  6  1  0  0  0  0
 13  6  1  0  0  0  0
 18 17  1  0  0  0  0
 18 25  1  0  0  0  0
 19 18  2  0  0  0  0
 20 19  1  0  0  0  0
 20 22  2  0  0  0  0
 21 20  1  0  0  0  0
 22 24  1  0  0  0  0
 23 22  1  0  0  0  0
 24 25  2  0  0  0  0
 26 27  1  0  0  0  0
 26 32  1  0  0  0  0
 26  1  1  0  0  0  0
 28 26  1  0  0  0  0
 29 33  2  0  0  0  0
 29 38  1  0  0  0  0
 30 29  1  0  0  0  0
 31 30  2  0  0  0  0
 31 32  1  0  0  0  0
 32 33  1  0  0  0  0
 34 30  1  0  0  0  0
 35 31  1  0  0  0  0
 36 41  1  0  0  0  0
 36 42  1  0  0  0  0
 37 36  2  0  0  0  0
 38 39  2  0  0  0  0
 38 37  1  0  0  0  0
 39 40  1  0  0  0  0
 40 44  1  0  0  0  0
 40 41  2  0  0  0  0
 43 37  1  0  0  0  0
M  END
>  <minimizedAffinity>
-5.57106018

$$$$

 OpenBabel03272508383D

 44 47  0  0  1  0  0  0  0  0999 V2000
   36.2720   24.9930   31.3850 C   0  0  0  0  0  0  0  0  0  0  0  0
   35.7880   25.0030   32.4070 H   0  0  0  0  0  0  0  0  0  0  0  0
   35.4050   25.2000   30.7070 H   0  0  0  0  0  0  0  0  0  0  0  0
   37.1060   26.1250   31.3360 N   0  0  0  0  0  0  0  0  0  0  0  0
   38.3180   25.9790   30.6370 C   0  0  0  0  0  0  0  0  0  0  0  0
   39.5550   26.1610   31.4280 C   0  0  0  0  0  0  0  0  0  0  0  0
   39.4650   27.1780   32.3810 O   0  0  0  0  0  0  0  0  0  0  0  0
   38.3930   27.0060   33.1930 C   0  0  0  0  0  0  0  0  0  0  0  0
   37.1110   27.0000   32.4170 C   0  0  1  0  0  0  0  0  0  0  0  0
   38.4220   25.1770   29.8980 H   0  0  0  0  0  0  0  0  0  0  0  0
   38.2550   26.8450   29.9320 H   0  0  0  0  0  0  0  0  0  0  0  0
   40.1960   25.3230   31.6490 H   0  0  0  0  0  0  0  0  0  0  0  0
   40.2860   26.6940   30.7030 H   0  0  0  0  0  0  0  0  0  0  0  0
   38.4800   26.2840   34.0060 H   0  0  0  0  0  0  0  0  0  0  0  0
   38.3440   27.9620   33.7770 H   0  0  0  0  0  0  0  0  0  0  0  0
   36.3910   26.4870   33.1810 H   0  0  0  0  0  0  0  0  0  0  0  0
   35.8450   28.5950   34.5120 F   0  0  0  0  0  0  0  0  0  0  0  0
   35.9330   29.0800   33.2570 C   0  0  0  0  0  0  0  0  0  0  0  0
   36.5040   28.3290   32.2790 C   0  0  0  0  0  0  0  0  0  0  0  0
   36.4630   29.0200   31.0580 C   0  0  0  0  0  0  0  0  0  0  0  0
   36.8860   28.5460   30.1600 H   0  0  0  0  0  0  0  0  0  0  0  0
   35.9390   30.2700   30.8180 C   0  0  0  0  0  0  0  0  0  0  0  0
   35.9540   30.7200   29.8380 H   0  0  0  0  0  0  0  0  0  0  0  0
   35.3880   30.9340   31.8910 C   0  0  0  0  0  3  0  0  0  0  0  0
   35.3830   30.3360   33.1250 C   0  0  0  0  0  3  0  0  0  0  0  0
   36.8420   23.6770   31.1790 C   0  0  0  0  0  0  0  0  0  0  0  0
   36.0300   23.0520   30.6730 H   0  0  0  0  0  0  0  0  0  0  0  0
   37.7060   23.4610   30.5840 H   0  0  0  0  0  0  0  0  0  0  0  0
   37.8740   22.6380   34.4560 C   0  0  0  0  0  0  0  0  0  0  0  0
   37.1120   21.5500   34.0740 C   0  0  0  0  0  0  0  0  0  0  0  0
   36.6350   21.8140   32.7930 C   0  0  0  0  0  0  0  0  0  0  0  0
   37.1090   23.0110   32.4550 N   0  0  0  0  0  0  0  0  0  0  0  0
   37.8520   23.5030   33.4570 N   0  0  0  0  0  0  0  0  0  0  0  0
   36.9260   20.6460   34.6870 H   0  0  0  0  0  0  0  0  0  0  0  0
   36.0460   21.0940   32.3610 H   0  0  0  0  0  0  0  0  0  0  0  0
   40.3460   22.3730   37.2730 C   0  0  0  0  0  0  0  0  0  0  0  0
   39.8060   22.2390   36.0020 C   0  0  0  0  0  0  0  0  0  0  0  0
   38.5330   22.7180   35.7340 C   0  0  0  0  0  0  0  0  0  0  0  0
   37.8980   23.3030   36.7890 N   0  0  0  0  0  0  0  0  0  0  0  0
   38.4300   23.4280   38.0210 C   0  0  0  0  0  0  0  0  0  0  0  0
   39.6520   22.9600   38.2510 N   0  0  0  0  0  0  0  0  0  0  0  0
   41.3450   21.9620   37.3600 H   0  0  0  0  0  0  0  0  0  0  0  0
   40.3130   21.7750   35.1670 H   0  0  0  0  0  0  0  0  0  0  0  0
   37.8380   23.9120   38.7910 H   0  0  0  0  0  0  0  0  0  0  0  0
  1  2  1  0  0  0  0
  3  1  1  0  0  0  0
  4  1  1  0  0  0  0
  4  9  1  0  0  0  0
  5  4  1  0  0  0  0
  5  6  1  0  0  0  0
  6 12  1  0  0  0  0
  6  7  1  0  0  0  0
  7  8  1  0  0  0  0
  8 15  1  0  0  0  0
  8 14  1  0  0  0  0
  9 16  1  1  0  0  0
  9  8  1  0  0  0  0
 10  5  1  0  0  0  0
 11  5  1  0  0  0  0
 13  6  1  0  0  0  0
 18 17  1  0  0  0  0
 19  9  1  0  0  0  0
 19 18  2  0  0  0  0
 20 19  1  0  0  0  0
 21 20  1  0  0  0  0
 22 20  2  0  0  0  0
 22 24  1  0  0  0  0
 23 22  1  0  0  0  0
 24 25  2  0  0  0  0
 25 18  1  0  0  0  0
 26  1  1  0  0  0  0
 26 32  1  0  0  0  0
 27 26  1  0  0  0  0
 28 26  1  0  0  0  0
 29 38  1  0  0  0  0
 30 29  1  0  0  0  0
 30 34  1  0  0  0  0
 31 30  2  0  0  0  0
 32 31  1  0  0  0  0
 32 33  1  0  0  0  0
 33 29  2  0  0  0  0
 35 31  1  0  0  0  0
 36 42  1  0  0  0  0
 36 41  1  0  0  0  0
 37 36  2  0  0  0  0
 38 37  1  0  0  0  0
 38 39  2  0  0  0  0
 39 40  1  0  0  0  0
 40 41  2  0  0  0  0
 40 44  1  0  0  0  0
 43 37  1  0  0  0  0
M  END
>  <minimizedAffinity>
-5.56838036

$$$$

 OpenBabel03272508383D

 44 47  0  0  1  0  0  0  0  0999 V2000
   35.9410   28.6140   32.8160 C   0  0  0  0  0  0  0  0  0  0  0  0
   37.0130   28.9610   32.9170 H   0  0  0  0  0  0  0  0  0  0  0  0
   35.7780   28.0600   33.7760 H   0  0  0  0  0  0  0  0  0  0  0  0
   35.1470   29.7740   32.8740 N   0  0  0  0  0  0  0  0  0  0  0  0
   34.4280   30.0980   31.7100 C   0  0  0  0  0  0  0  0  0  0  0  0
   34.7630   31.3930   31.0750 C   0  0  0  0  0  0  0  0  0  0  0  0
   35.0240   32.4140   31.9920 O   0  0  0  0  0  0  0  0  0  0  0  0
   35.9800   32.0510   32.8810 C   0  0  0  0  0  0  0  0  0  0  0  0
   35.5740   30.8390   33.6620 C   0  0  1  0  0  0  0  0  0  0  0  0
   34.2260   29.3200   30.9650 H   0  0  0  0  0  0  0  0  0  0  0  0
   33.3960   30.2000   32.1260 H   0  0  0  0  0  0  0  0  0  0  0  0
   35.2760   31.4250   30.1280 H   0  0  0  0  0  0  0  0  0  0  0  0
   33.7470   31.7940   30.6840 H   0  0  0  0  0  0  0  0  0  0  0  0
   37.0220   32.1040   32.5610 H   0  0  0  0  0  0  0  0  0  0  0  0
   35.9620   32.8740   33.6430 H   0  0  0  0  0  0  0  0  0  0  0  0
   36.6080   30.4750   34.0660 H   0  0  0  0  0  0  0  0  0  0  0  0
   36.6390   32.1960   36.0190 F   0  0  0  0  0  0  0  0  0  0  0  0
   35.3500   31.8040   35.9940 C   0  0  0  0  0  0  0  0  0  0  0  0
   34.8600   31.1540   34.9050 C   0  0  0  0  0  0  0  0  0  0  0  0
   33.5120   30.8210   35.1110 C   0  0  0  0  0  0  0  0  0  0  0  0
   32.9660   30.2870   34.3200 H   0  0  0  0  0  0  0  0  0  0  0  0
   32.7430   31.0830   36.2220 C   0  0  0  0  0  0  0  0  0  0  0  0
   31.7080   30.7850   36.2870 H   0  0  0  0  0  0  0  0  0  0  0  0
   33.3520   31.7490   37.2610 C   0  0  0  0  0  3  0  0  0  0  0  0
   34.6690   32.1150   37.1490 C   0  0  0  0  0  3  0  0  0  0  0  0
   35.8640   27.7540   31.6540 C   0  0  0  0  0  0  0  0  0  0  0  0
   34.7530   27.6390   31.4130 H   0  0  0  0  0  0  0  0  0  0  0  0
   36.2890   27.9690   30.6930 H   0  0  0  0  0  0  0  0  0  0  0  0
   36.5430   24.2390   31.9140 C   0  0  0  0  0  0  0  0  0  0  0  0
   37.4480   24.7400   32.8310 C   0  0  0  0  0  0  0  0  0  0  0  0
   37.2970   26.1240   32.8410 C   0  0  0  0  0  0  0  0  0  0  0  0
   36.3380   26.4030   31.9610 N   0  0  0  0  0  0  0  0  0  0  0  0
   35.8880   25.2690   31.4070 N   0  0  0  0  0  0  0  0  0  0  0  0
   38.1550   24.1370   33.4340 H   0  0  0  0  0  0  0  0  0  0  0  0
   37.9030   26.6510   33.4780 H   0  0  0  0  0  0  0  0  0  0  0  0
   35.3000   20.7030   31.6580 C   0  0  0  0  0  0  0  0  0  0  0  0
   35.3200   22.0520   31.9800 C   0  0  0  0  0  0  0  0  0  0  0  0
   36.4130   22.8320   31.6350 C   0  0  0  0  0  0  0  0  0  0  0  0
   37.4130   22.1750   30.9830 N   0  0  0  0  0  0  0  0  0  0  0  0
   37.3860   20.8640   30.6750 C   0  0  0  0  0  0  0  0  0  0  0  0
   36.3260   20.1380   31.0170 N   0  0  0  0  0  0  0  0  0  0  0  0
   34.3950   20.1990   31.9780 H   0  0  0  0  0  0  0  0  0  0  0  0
   34.5250   22.5700   32.4970 H   0  0  0  0  0  0  0  0  0  0  0  0
   38.2360   20.4380   30.1530 H   0  0  0  0  0  0  0  0  0  0  0  0
  1  4  1  0  0  0  0
  1  2  1  0  0  0  0
  1  3  1  0  0  0  0
  4  9  1  0  0  0  0
  5 11  1  0  0  0  0
  5  4  1  0  0  0  0
  6  5  1  0  0  0  0
  6  7  1  0  0  0  0
  7  8  1  0  0  0  0
  8 15  1  0  0  0  0
  8  9  1  0  0  0  0
  9 16  1  1  0  0  0
  9 19  1  0  0  0  0
 10  5  1  0  0  0  0
 12  6  1  0  0  0  0
 13  6  1  0  0  0  0
 14  8  1  0  0  0  0
 18 17  1  0  0  0  0
 18 25  1  0  0  0  0
 19 20  1  0  0  0  0
 19 18  2  0  0  0  0
 20 22  2  0  0  0  0
 21 20  1  0  0  0  0
 22 23  1  0  0  0  0
 22 24  1  0  0  0  0
 25 24  2  0  0  0  0
 26 32  1  0  0  0  0
 26  1  1  0  0  0  0
 27 26  1  0  0  0  0
 28 26  1  0  0  0  0
 29 30  1  0  0  0  0
 30 31  2  0  0  0  0
 30 34  1  0  0  0  0
 31 35  1  0  0  0  0
 32 31  1  0  0  0  0
 33 29  2  0  0  0  0
 33 32  1  0  0  0  0
 36 42  1  0  0  0  0
 36 37  1  0  0  0  0
 37 43  1  0  0  0  0
 38 29  1  0  0  0  0
 38 37  2  0  0  0  0
 39 38  1  0  0  0  0
 40 39  2  0  0  0  0
 40 41  1  0  0  0  0
 41 36  2  0  0  0  0
 44 40  1  0  0  0  0
M  END
>  <minimizedAffinity>
-5.55059052

$$$$
