
 OpenBabel03272507193D

 30 32  0  0  1  0  0  0  0  0999 V2000
   37.9000   31.1440   49.6300 C   0  0  0  0  0  0  0  0  0  0  0  0
   38.4010   32.4280   49.7760 C   0  0  0  0  0  0  0  0  0  0  0  0
   38.7560   33.0500   48.5560 C   0  0  0  0  0  0  0  0  0  0  0  0
   38.6000   32.4080   47.3620 N   0  0  0  0  0  0  0  0  0  0  0  0
   38.1040   31.1550   47.2950 C   0  0  0  0  0  0  0  0  0  0  0  0
   37.7470   30.5080   48.4390 N   0  0  0  0  0  0  0  0  0  0  0  0
   38.5110   32.9060   50.7200 H   0  0  0  0  0  0  0  0  0  0  0  0
   39.1480   34.0390   48.6030 H   0  0  0  0  0  0  0  0  0  0  0  0
   35.7500   30.4880   45.8340 F   0  0  0  0  0  0  0  0  0  0  0  0
   36.9130   30.3260   45.1960 C   0  0  0  0  0  0  0  0  0  0  0  0
   38.0210   30.6610   45.9380 C   0  0  0  0  0  0  0  0  0  0  0  0
   39.2790   30.5330   45.3750 C   0  0  0  0  0  0  0  0  0  0  0  0
   40.2440   30.7550   45.8340 H   0  0  0  0  0  0  0  0  0  0  0  0
   39.4260   30.0690   44.0630 C   0  0  0  0  0  0  0  0  0  0  0  0
   40.3660   29.9380   43.5470 H   0  0  0  0  0  0  0  0  0  0  0  0
   38.3030   29.7320   43.3180 C   0  0  0  0  0  3  0  0  0  0  0  0
   37.0650   29.8700   43.9030 C   0  0  0  0  0  3  0  0  0  0  0  0
   37.4920   30.4630   50.8960 C   0  0  1  0  0  0  0  0  0  0  0  0
   36.3870   29.5080   50.9420 C   0  0  2  0  0  0  0  0  0  0  0  0
   37.7740   28.9520   50.8740 C   0  0  0  0  0  0  0  0  0  0  0  0
   37.9180   30.9780   51.8030 H   0  0  0  0  0  0  0  0  0  0  0  0
   35.8030   29.5710   51.8940 H   0  0  0  0  0  0  0  0  0  0  0  0
   38.1240   28.4820   49.9410 H   0  0  0  0  0  0  0  0  0  0  0  0
   38.1190   28.5280   51.8390 H   0  0  0  0  0  0  0  0  0  0  0  0
   35.5730   29.4240   49.8160 O   0  0  0  0  0  0  0  0  0  0  0  0
   34.3310   28.8860   49.6990 C   0  0  0  0  0  0  0  0  0  0  0  0
   34.1110   27.8710   49.0040 O   0  0  0  0  0  0  0  0  0  0  0  0
   33.4390   29.6510   50.4550 N   0  0  0  0  0  0  0  0  0  0  0  0
   33.1240   30.5570   50.0020 H   0  0  0  0  0  0  0  0  0  0  0  0
   33.3770   29.0170   51.2860 H   0  0  0  0  0  0  0  0  0  0  0  0
  1  2  1  0  0  0  0
  1 18  1  0  0  0  0
  2  7  1  0  0  0  0
  3  8  1  0  0  0  0
  3  2  2  0  0  0  0
  4  3  1  0  0  0  0
  5  4  2  0  0  0  0
  5  6  1  0  0  0  0
  6  1  2  0  0  0  0
 10  9  1  0  0  0  0
 10 11  1  0  0  0  0
 11  5  1  0  0  0  0
 12 13  1  0  0  0  0
 12 11  2  0  0  0  0
 14 12  1  0  0  0  0
 15 14  1  0  0  0  0
 16 17  1  0  0  0  0
 16 14  2  0  0  0  0
 17 10  2  0  0  0  0
 18 19  1  0  0  0  0
 18 21  1  1  0  0  0
 19 22  1  1  0  0  0
 20 18  1  0  0  0  0
 20 19  1  0  0  0  0
 20 24  1  0  0  0  0
 23 20  1  0  0  0  0
 25 19  1  0  0  0  0
 26 25  1  0  0  0  0
 26 28  1  0  0  0  0
 27 26  2  0  0  0  0
 28 30  1  0  0  0  0
 29 28  1  0  0  0  0
M  END
>  <minimizedAffinity>
-5.91895866

>  <minimizedRMSD>
1.03580236

$$$$
