
 OpenBabel03272506153D

 24 25  0  0  0  0  0  0  0  0999 V2000
   38.5040   24.7230   35.1790 C   0  0  0  0  0  0  0  0  0  0  0  0
   38.0520   26.0170   34.9320 C   0  0  0  0  0  0  0  0  0  0  0  0
   37.3800   26.2990   33.7750 C   0  0  0  0  0  0  0  0  0  0  0  0
   37.1800   25.2830   32.9080 N   0  0  0  0  0  0  0  0  0  0  0  0
   37.6160   24.0260   33.1450 C   0  0  0  0  0  0  0  0  0  0  0  0
   38.2860   23.7400   34.2940 N   0  0  0  0  0  0  0  0  0  0  0  0
   38.2480   26.7710   35.6670 H   0  0  0  0  0  0  0  0  0  0  0  0
   37.4150   23.2710   32.4000 H   0  0  0  0  0  0  0  0  0  0  0  0
   37.6000   27.6180   31.1790 F   0  0  0  0  0  0  0  0  0  0  0  0
   36.9470   28.2380   32.1860 C   0  0  0  0  0  0  0  0  0  0  0  0
   36.8600   27.5940   33.3930 C   0  0  0  0  0  0  0  0  0  0  0  0
   36.1690   28.3280   34.3370 C   0  0  0  0  0  0  0  0  0  0  0  0
   36.0050   27.9710   35.3500 H   0  0  0  0  0  0  0  0  0  0  0  0
   35.6320   29.5730   34.0860 C   0  0  0  0  0  0  0  0  0  0  0  0
   35.0970   30.1240   34.8470 H   0  0  0  0  0  0  0  0  0  0  0  0
   35.7550   30.1660   32.8490 C   0  0  0  0  0  3  0  0  0  0  0  0
   36.4380   29.4580   31.8840 C   0  0  0  0  0  3  0  0  0  0  0  0
   39.2010   24.3250   36.3200 O   0  0  0  0  0  0  0  0  0  0  0  0
   37.7870   24.4070   38.6180 O   0  0  0  0  0  0  0  0  0  0  0  0
   38.4270   23.4680   37.5950 P   0  0  0  0  0  0  0  0  0  0  0  0
   37.2430   22.4910   36.8600 O   0  0  0  0  0  0  0  0  0  0  0  0
   37.3610   22.4240   35.8880 H   0  0  0  0  0  0  0  0  0  0  0  0
   39.5510   22.5400   38.4400 O   0  0  0  0  0  0  0  0  0  0  0  0
   39.1350   21.7240   38.8360 H   0  0  0  0  0  0  0  0  0  0  0  0
  1 18  1  0  0  0  0
  2  1  1  0  0  0  0
  2  7  1  0  0  0  0
  3  2  2  0  0  0  0
  4  5  2  0  0  0  0
  4  3  1  0  0  0  0
  5  6  1  0  0  0  0
  6  1  2  0  0  0  0
  8  5  1  0  0  0  0
  9 10  1  0  0  0  0
 10 11  1  0  0  0  0
 11  3  1  0  0  0  0
 11 12  2  0  0  0  0
 12 13  1  0  0  0  0
 14 12  1  0  0  0  0
 14 15  1  0  0  0  0
 16 14  2  0  0  0  0
 17 10  2  0  0  0  0
 17 16  1  0  0  0  0
 18 20  1  0  0  0  0
 20 23  1  0  0  0  0
 20 19  2  0  0  0  0
 21 20  1  0  0  0  0
 22 21  1  0  0  0  0
 23 24  1  0  0  0  0
M  END
>  <minimizedAffinity>
-5.31432438

$$$$

 OpenBabel03272506153D

 24 25  0  0  0  0  0  0  0  0999 V2000
   38.0250   25.0350   35.5200 C   0  0  0  0  0  0  0  0  0  0  0  0
   37.5650   26.3090   35.1950 C   0  0  0  0  0  0  0  0  0  0  0  0
   37.2170   26.6030   33.9050 C   0  0  0  0  0  0  0  0  0  0  0  0
   37.3380   25.6190   32.9890 N   0  0  0  0  0  0  0  0  0  0  0  0
   37.7830   24.3830   33.3010 C   0  0  0  0  0  0  0  0  0  0  0  0
   38.1310   24.0840   34.5820 N   0  0  0  0  0  0  0  0  0  0  0  0
   37.4960   27.0380   35.9770 H   0  0  0  0  0  0  0  0  0  0  0  0
   37.8500   23.6530   32.5080 H   0  0  0  0  0  0  0  0  0  0  0  0
   37.5940   27.7930   31.2660 F   0  0  0  0  0  0  0  0  0  0  0  0
   36.8890   28.4640   32.2020 C   0  0  0  0  0  0  0  0  0  0  0  0
   36.7290   27.8800   33.4320 C   0  0  0  0  0  0  0  0  0  0  0  0
   35.9900   28.6630   34.2980 C   0  0  0  0  0  0  0  0  0  0  0  0
   35.7660   28.3560   35.3150 H   0  0  0  0  0  0  0  0  0  0  0  0
   35.4760   29.8950   33.9560 C   0  0  0  0  0  0  0  0  0  0  0  0
   34.9020   30.4850   34.6570 H   0  0  0  0  0  0  0  0  0  0  0  0
   35.6740   30.4260   32.7000 C   0  0  0  0  0  3  0  0  0  0  0  0
   36.4070   29.6690   31.8120 C   0  0  0  0  0  3  0  0  0  0  0  0
   38.4100   24.6280   36.7980 O   0  0  0  0  0  0  0  0  0  0  0  0
   40.5100   22.9560   36.5160 O   0  0  0  0  0  0  0  0  0  0  0  0
   39.0940   23.0740   37.0790 P   0  0  0  0  0  0  0  0  0  0  0  0
   39.1030   22.8570   38.7670 O   0  0  0  0  0  0  0  0  0  0  0  0
   38.5440   23.5160   39.2340 H   0  0  0  0  0  0  0  0  0  0  0  0
   38.1770   21.8870   36.3120 O   0  0  0  0  0  0  0  0  0  0  0  0
   38.2270   21.0130   36.7920 H   0  0  0  0  0  0  0  0  0  0  0  0
  1 18  1  0  0  0  0
  2  1  1  0  0  0  0
  2  7  1  0  0  0  0
  3  2  2  0  0  0  0
  4  5  2  0  0  0  0
  4  3  1  0  0  0  0
  5  6  1  0  0  0  0
  6  1  2  0  0  0  0
  8  5  1  0  0  0  0
  9 10  1  0  0  0  0
 10 11  1  0  0  0  0
 11  3  1  0  0  0  0
 11 12  2  0  0  0  0
 12 13  1  0  0  0  0
 14 12  1  0  0  0  0
 14 15  1  0  0  0  0
 16 14  2  0  0  0  0
 17 10  2  0  0  0  0
 17 16  1  0  0  0  0
 18 20  1  0  0  0  0
 19 20  2  0  0  0  0
 20 21  1  0  0  0  0
 21 22  1  0  0  0  0
 23 24  1  0  0  0  0
 23 20  1  0  0  0  0
M  END
>  <minimizedAffinity>
-5.25030994

$$$$

 OpenBabel03272506153D

 24 25  0  0  0  0  0  0  0  0999 V2000
   37.7080   25.1990   32.5570 C   0  0  0  0  0  0  0  0  0  0  0  0
   38.0720   25.1340   33.9000 C   0  0  0  0  0  0  0  0  0  0  0  0
   38.1140   23.9260   34.5400 C   0  0  0  0  0  0  0  0  0  0  0  0
   37.7940   22.8290   33.8200 N   0  0  0  0  0  0  0  0  0  0  0  0
   37.4420   22.8890   32.5180 C   0  0  0  0  0  0  0  0  0  0  0  0
   37.3980   24.0880   31.8750 N   0  0  0  0  0  0  0  0  0  0  0  0
   38.3130   26.0470   34.4050 H   0  0  0  0  0  0  0  0  0  0  0  0
   37.2010   21.9650   32.0140 H   0  0  0  0  0  0  0  0  0  0  0  0
   40.3850   22.4210   35.5900 F   0  0  0  0  0  0  0  0  0  0  0  0
   39.5290   23.0160   36.4490 C   0  0  0  0  0  0  0  0  0  0  0  0
   38.4720   23.7160   35.9260 C   0  0  0  0  0  0  0  0  0  0  0  0
   37.6720   24.2760   36.9030 C   0  0  0  0  0  0  0  0  0  0  0  0
   36.7900   24.8640   36.6690 H   0  0  0  0  0  0  0  0  0  0  0  0
   37.9160   24.1410   38.2530 C   0  0  0  0  0  0  0  0  0  0  0  0
   37.2710   24.5910   38.9940 H   0  0  0  0  0  0  0  0  0  0  0  0
   38.9990   23.4230   38.7130 C   0  0  0  0  0  3  0  0  0  0  0  0
   39.8170   22.8510   37.7630 C   0  0  0  0  0  3  0  0  0  0  0  0
   37.6290   26.3740   31.8080 O   0  0  0  0  0  0  0  0  0  0  0  0
   35.4770   27.9690   32.1450 O   0  0  0  0  0  0  0  0  0  0  0  0
   36.1270   26.9550   31.2030 P   0  0  0  0  0  0  0  0  0  0  0  0
   36.4660   27.6710   29.6980 O   0  0  0  0  0  0  0  0  0  0  0  0
   37.3590   27.4380   29.3620 H   0  0  0  0  0  0  0  0  0  0  0  0
   35.0320   25.6830   31.0450 O   0  0  0  0  0  0  0  0  0  0  0  0
   34.3750   25.8490   30.3130 H   0  0  0  0  0  0  0  0  0  0  0  0
  1  2  1  0  0  0  0
  2  7  1  0  0  0  0
  2  3  2  0  0  0  0
  3 11  1  0  0  0  0
  4  3  1  0  0  0  0
  5  4  2  0  0  0  0
  6  5  1  0  0  0  0
  6  1  2  0  0  0  0
  8  5  1  0  0  0  0
  9 10  1  0  0  0  0
 10 17  1  0  0  0  0
 11 10  2  0  0  0  0
 11 12  1  0  0  0  0
 12 14  2  0  0  0  0
 13 12  1  0  0  0  0
 14 16  1  0  0  0  0
 14 15  1  0  0  0  0
 17 16  2  0  0  0  0
 18  1  1  0  0  0  0
 20 18  1  0  0  0  0
 20 19  2  0  0  0  0
 21 20  1  0  0  0  0
 22 21  1  0  0  0  0
 23 20  1  0  0  0  0
 24 23  1  0  0  0  0
M  END
>  <minimizedAffinity>
-5.14238834

$$$$

 OpenBabel03272506153D

 24 25  0  0  0  0  0  0  0  0999 V2000
   38.5810   24.5080   34.9790 C   0  0  0  0  0  0  0  0  0  0  0  0
   38.2240   25.7980   34.5950 C   0  0  0  0  0  0  0  0  0  0  0  0
   37.5380   26.0000   33.4280 C   0  0  0  0  0  0  0  0  0  0  0  0
   37.2330   24.9120   32.6900 N   0  0  0  0  0  0  0  0  0  0  0  0
   37.5770   23.6590   33.0610 C   0  0  0  0  0  0  0  0  0  0  0  0
   38.2600   23.4520   34.2200 N   0  0  0  0  0  0  0  0  0  0  0  0
   38.5010   26.6130   35.2330 H   0  0  0  0  0  0  0  0  0  0  0  0
   37.2950   22.8430   32.4130 H   0  0  0  0  0  0  0  0  0  0  0  0
   35.8890   28.0030   34.7670 F   0  0  0  0  0  0  0  0  0  0  0  0
   36.3360   28.2410   33.5140 C   0  0  0  0  0  0  0  0  0  0  0  0
   37.1080   27.2810   32.9120 C   0  0  0  0  0  0  0  0  0  0  0  0
   37.5020   27.6410   31.6380 C   0  0  0  0  0  0  0  0  0  0  0  0
   38.1180   27.0000   31.0140 H   0  0  0  0  0  0  0  0  0  0  0  0
   37.1510   28.8350   31.0440 C   0  0  0  0  0  0  0  0  0  0  0  0
   37.4750   29.0880   30.0440 H   0  0  0  0  0  0  0  0  0  0  0  0
   36.3710   29.7580   31.7050 C   0  0  0  0  0  3  0  0  0  0  0  0
   35.9610   29.4290   32.9800 C   0  0  0  0  0  3  0  0  0  0  0  0
   39.2820   24.1880   36.1430 O   0  0  0  0  0  0  0  0  0  0  0  0
   37.9210   24.4590   38.4580 O   0  0  0  0  0  0  0  0  0  0  0  0
   38.5070   23.4370   37.4820 P   0  0  0  0  0  0  0  0  0  0  0  0
   37.2760   22.4600   36.8320 O   0  0  0  0  0  0  0  0  0  0  0  0
   37.3700   22.3300   35.8630 H   0  0  0  0  0  0  0  0  0  0  0  0
   39.6170   22.5240   38.3610 O   0  0  0  0  0  0  0  0  0  0  0  0
   39.1820   21.7490   38.8150 H   0  0  0  0  0  0  0  0  0  0  0  0
  1 18  1  0  0  0  0
  2  1  1  0  0  0  0
  2  7  1  0  0  0  0
  3  2  2  0  0  0  0
  4  5  2  0  0  0  0
  4  3  1  0  0  0  0
  5  6  1  0  0  0  0
  6  1  2  0  0  0  0
  8  5  1  0  0  0  0
 10  9  1  0  0  0  0
 11  3  1  0  0  0  0
 11 10  2  0  0  0  0
 12 11  1  0  0  0  0
 13 12  1  0  0  0  0
 14 12  2  0  0  0  0
 14 16  1  0  0  0  0
 15 14  1  0  0  0  0
 16 17  2  0  0  0  0
 17 10  1  0  0  0  0
 18 20  1  0  0  0  0
 20 23  1  0  0  0  0
 20 19  2  0  0  0  0
 21 20  1  0  0  0  0
 22 21  1  0  0  0  0
 23 24  1  0  0  0  0
M  END
>  <minimizedAffinity>
-5.11024475

$$$$

 OpenBabel03272506153D

 24 25  0  0  0  0  0  0  0  0999 V2000
   36.9650   27.8150   33.6190 C   0  0  0  0  0  0  0  0  0  0  0  0
   36.2980   28.5530   34.5940 C   0  0  0  0  0  0  0  0  0  0  0  0
   35.6240   29.6920   34.2480 C   0  0  0  0  0  0  0  0  0  0  0  0
   35.6370   30.0530   32.9470 N   0  0  0  0  0  0  0  0  0  0  0  0
   36.2830   29.3380   32.0000 C   0  0  0  0  0  0  0  0  0  0  0  0
   36.9560   28.2050   32.3370 N   0  0  0  0  0  0  0  0  0  0  0  0
   36.3320   28.2050   35.6060 H   0  0  0  0  0  0  0  0  0  0  0  0
   36.2440   29.6950   30.9810 H   0  0  0  0  0  0  0  0  0  0  0  0
   32.7410   29.7650   34.7060 F   0  0  0  0  0  0  0  0  0  0  0  0
   33.5440   30.6080   35.3920 C   0  0  0  0  0  0  0  0  0  0  0  0
   34.8930   30.5500   35.1560 C   0  0  0  0  0  0  0  0  0  0  0  0
   35.6040   31.4580   35.9170 C   0  0  0  0  0  0  0  0  0  0  0  0
   36.6840   31.5500   35.8570 H   0  0  0  0  0  0  0  0  0  0  0  0
   35.0130   32.3250   36.8120 C   0  0  0  0  0  0  0  0  0  0  0  0
   35.5970   33.0240   37.3930 H   0  0  0  0  0  0  0  0  0  0  0  0
   33.6490   32.3310   37.0030 C   0  0  0  0  0  3  0  0  0  0  0  0
   32.9110   31.4360   36.2590 C   0  0  0  0  0  3  0  0  0  0  0  0
   37.6860   26.6440   33.8590 O   0  0  0  0  0  0  0  0  0  0  0  0
   39.5420   25.2540   35.2390 O   0  0  0  0  0  0  0  0  0  0  0  0
   39.1390   26.6550   34.7800 P   0  0  0  0  0  0  0  0  0  0  0  0
   40.3360   27.3200   33.7710 O   0  0  0  0  0  0  0  0  0  0  0  0
   39.9590   27.7600   32.9790 H   0  0  0  0  0  0  0  0  0  0  0  0
   38.9340   27.5730   36.1790 O   0  0  0  0  0  0  0  0  0  0  0  0
   39.7920   27.9860   36.4790 H   0  0  0  0  0  0  0  0  0  0  0  0
  1 18  1  0  0  0  0
  1  2  1  0  0  0  0
  2  7  1  0  0  0  0
  3  2  2  0  0  0  0
  3 11  1  0  0  0  0
  4  3  1  0  0  0  0
  5  6  1  0  0  0  0
  5  4  2  0  0  0  0
  6  1  2  0  0  0  0
  8  5  1  0  0  0  0
  9 10  1  0  0  0  0
 10 17  1  0  0  0  0
 11 10  2  0  0  0  0
 11 12  1  0  0  0  0
 12 14  2  0  0  0  0
 13 12  1  0  0  0  0
 14 16  1  0  0  0  0
 14 15  1  0  0  0  0
 17 16  2  0  0  0  0
 18 20  1  0  0  0  0
 20 19  2  0  0  0  0
 20 23  1  0  0  0  0
 21 20  1  0  0  0  0
 22 21  1  0  0  0  0
 23 24  1  0  0  0  0
M  END
>  <minimizedAffinity>
-5.08653879

$$$$

 OpenBabel03272506153D

 24 25  0  0  0  0  0  0  0  0999 V2000
   36.4000   29.9190   31.7430 C   0  0  0  0  0  0  0  0  0  0  0  0
   35.7590   30.6520   32.7390 C   0  0  0  0  0  0  0  0  0  0  0  0
   35.5140   30.0810   33.9590 C   0  0  0  0  0  0  0  0  0  0  0  0
   35.9180   28.8050   34.1410 N   0  0  0  0  0  0  0  0  0  0  0  0
   36.5410   28.0940   33.1770 C   0  0  0  0  0  0  0  0  0  0  0  0
   36.7870   28.6550   31.9620 N   0  0  0  0  0  0  0  0  0  0  0  0
   35.4680   31.6590   32.5210 H   0  0  0  0  0  0  0  0  0  0  0  0
   36.8320   27.0790   33.4040 H   0  0  0  0  0  0  0  0  0  0  0  0
   36.6900   31.9080   35.9090 F   0  0  0  0  0  0  0  0  0  0  0  0
   35.3820   31.5850   36.0060 C   0  0  0  0  0  0  0  0  0  0  0  0
   34.8580   30.7240   35.0760 C   0  0  0  0  0  0  0  0  0  0  0  0
   33.5160   30.4740   35.2830 C   0  0  0  0  0  0  0  0  0  0  0  0
   32.9400   29.8140   34.6410 H   0  0  0  0  0  0  0  0  0  0  0  0
   32.7900   31.0300   36.3150 C   0  0  0  0  0  0  0  0  0  0  0  0
   31.7400   30.8140   36.4510 H   0  0  0  0  0  0  0  0  0  0  0  0
   33.3780   31.8890   37.2180 C   0  0  0  0  0  3  0  0  0  0  0  0
   34.7180   32.1600   37.0380 C   0  0  0  0  0  3  0  0  0  0  0  0
   36.6960   30.3980   30.4660 O   0  0  0  0  0  0  0  0  0  0  0  0
   37.7050   30.1480   27.9750 O   0  0  0  0  0  0  0  0  0  0  0  0
   37.5350   29.4330   29.3160 P   0  0  0  0  0  0  0  0  0  0  0  0
   39.0520   29.0860   30.0020 O   0  0  0  0  0  0  0  0  0  0  0  0
   39.0870   29.2920   30.9620 H   0  0  0  0  0  0  0  0  0  0  0  0
   36.6690   28.0240   28.9960 O   0  0  0  0  0  0  0  0  0  0  0  0
   37.2700   27.2690   28.7400 H   0  0  0  0  0  0  0  0  0  0  0  0
  1  6  2  0  0  0  0
  1  2  1  0  0  0  0
  2  3  2  0  0  0  0
  3  4  1  0  0  0  0
  3 11  1  0  0  0  0
  5  8  1  0  0  0  0
  5  4  2  0  0  0  0
  6  5  1  0  0  0  0
  7  2  1  0  0  0  0
  9 10  1  0  0  0  0
 10 17  1  0  0  0  0
 11 12  1  0  0  0  0
 11 10  2  0  0  0  0
 12 14  2  0  0  0  0
 13 12  1  0  0  0  0
 14 15  1  0  0  0  0
 14 16  1  0  0  0  0
 17 16  2  0  0  0  0
 18  1  1  0  0  0  0
 19 20  2  0  0  0  0
 20 21  1  0  0  0  0
 20 18  1  0  0  0  0
 21 22  1  0  0  0  0
 23 20  1  0  0  0  0
 24 23  1  0  0  0  0
M  END
>  <minimizedAffinity>
-5.01285124

$$$$

 OpenBabel03272506153D

 24 25  0  0  0  0  0  0  0  0999 V2000
   36.5160   28.2040   32.7570 C   0  0  0  0  0  0  0  0  0  0  0  0
   35.9290   28.7220   33.9090 C   0  0  0  0  0  0  0  0  0  0  0  0
   35.4740   30.0130   33.9250 C   0  0  0  0  0  0  0  0  0  0  0  0
   35.6190   30.7370   32.7950 N   0  0  0  0  0  0  0  0  0  0  0  0
   36.1870   30.2370   31.6760 C   0  0  0  0  0  0  0  0  0  0  0  0
   36.6420   28.9550   31.6540 N   0  0  0  0  0  0  0  0  0  0  0  0
   35.8490   28.0870   34.7670 H   0  0  0  0  0  0  0  0  0  0  0  0
   36.2650   30.8830   30.8140 H   0  0  0  0  0  0  0  0  0  0  0  0
   36.7200   31.8100   35.8590 F   0  0  0  0  0  0  0  0  0  0  0  0
   35.4060   31.5220   35.9720 C   0  0  0  0  0  0  0  0  0  0  0  0
   34.8490   30.6740   35.0490 C   0  0  0  0  0  0  0  0  0  0  0  0
   33.5030   30.4590   35.2710 C   0  0  0  0  0  0  0  0  0  0  0  0
   32.9020   29.8140   34.6370 H   0  0  0  0  0  0  0  0  0  0  0  0
   32.8030   31.0350   36.3110 C   0  0  0  0  0  0  0  0  0  0  0  0
   31.7500   30.8470   36.4590 H   0  0  0  0  0  0  0  0  0  0  0  0
   33.4240   31.8800   37.2050 C   0  0  0  0  0  3  0  0  0  0  0  0
   34.7680   32.1150   37.0100 C   0  0  0  0  0  3  0  0  0  0  0  0
   37.0170   26.9080   32.6310 O   0  0  0  0  0  0  0  0  0  0  0  0
   37.2910   24.5930   31.2690 O   0  0  0  0  0  0  0  0  0  0  0  0
   37.0260   26.0910   31.1170 P   0  0  0  0  0  0  0  0  0  0  0  0
   35.4960   26.3580   30.4230 O   0  0  0  0  0  0  0  0  0  0  0  0
   34.9970   27.0730   30.8760 H   0  0  0  0  0  0  0  0  0  0  0  0
   38.2580   26.6930   30.1380 O   0  0  0  0  0  0  0  0  0  0  0  0
   38.0320   26.6180   29.1690 H   0  0  0  0  0  0  0  0  0  0  0  0
  1  2  1  0  0  0  0
  2  3  2  0  0  0  0
  2  7  1  0  0  0  0
  3 11  1  0  0  0  0
  4  3  1  0  0  0  0
  5  4  2  0  0  0  0
  6  5  1  0  0  0  0
  6  1  2  0  0  0  0
  8  5  1  0  0  0  0
  9 10  1  0  0  0  0
 10 17  1  0  0  0  0
 11 12  1  0  0  0  0
 11 10  2  0  0  0  0
 12 14  2  0  0  0  0
 13 12  1  0  0  0  0
 14 15  1  0  0  0  0
 14 16  1  0  0  0  0
 17 16  2  0  0  0  0
 18  1  1  0  0  0  0
 20 19  2  0  0  0  0
 20 18  1  0  0  0  0
 21 22  1  0  0  0  0
 21 20  1  0  0  0  0
 23 20  1  0  0  0  0
 24 23  1  0  0  0  0
M  END
>  <minimizedAffinity>
-5.00703287

$$$$

 OpenBabel03272506153D

 24 25  0  0  0  0  0  0  0  0999 V2000
   38.4670   24.1020   34.9130 C   0  0  0  0  0  0  0  0  0  0  0  0
   38.1920   22.9640   34.1590 C   0  0  0  0  0  0  0  0  0  0  0  0
   37.5290   23.0750   32.9670 C   0  0  0  0  0  0  0  0  0  0  0  0
   37.1670   24.3140   32.5700 N   0  0  0  0  0  0  0  0  0  0  0  0
   37.4350   25.4200   33.2990 C   0  0  0  0  0  0  0  0  0  0  0  0
   38.0930   25.3150   34.4850 N   0  0  0  0  0  0  0  0  0  0  0  0
   38.5100   22.0140   34.5380 H   0  0  0  0  0  0  0  0  0  0  0  0
   37.1110   26.3740   32.9100 H   0  0  0  0  0  0  0  0  0  0  0  0
   35.0280   21.5710   32.8990 F   0  0  0  0  0  0  0  0  0  0  0  0
   36.0160   21.2560   32.0330 C   0  0  0  0  0  0  0  0  0  0  0  0
   37.1780   21.9800   32.0890 C   0  0  0  0  0  0  0  0  0  0  0  0
   38.1070   21.5640   31.1560 C   0  0  0  0  0  0  0  0  0  0  0  0
   39.0850   22.0260   31.0590 H   0  0  0  0  0  0  0  0  0  0  0  0
   37.8830   20.5320   30.2690 C   0  0  0  0  0  0  0  0  0  0  0  0
   38.6300   20.2290   29.5500 H   0  0  0  0  0  0  0  0  0  0  0  0
   36.6900   19.8430   30.2650 C   0  0  0  0  0  3  0  0  0  0  0  0
   35.7410   20.2350   31.1850 C   0  0  0  0  0  3  0  0  0  0  0  0
   39.1310   24.1040   36.1400 O   0  0  0  0  0  0  0  0  0  0  0  0
   37.0640   22.7900   37.2750 O   0  0  0  0  0  0  0  0  0  0  0  0
   38.3820   23.5070   37.5690 P   0  0  0  0  0  0  0  0  0  0  0  0
   39.4980   22.4360   38.2780 O   0  0  0  0  0  0  0  0  0  0  0  0
   40.3970   22.5200   37.8940 H   0  0  0  0  0  0  0  0  0  0  0  0
   38.0090   24.7810   38.6060 O   0  0  0  0  0  0  0  0  0  0  0  0
   38.0220   24.4960   39.5630 H   0  0  0  0  0  0  0  0  0  0  0  0
  1 18  1  0  0  0  0
  2  7  1  0  0  0  0
  2  1  2  0  0  0  0
  3  2  1  0  0  0  0
  4  3  2  0  0  0  0
  4  5  1  0  0  0  0
  5  6  2  0  0  0  0
  6  1  1  0  0  0  0
  8  5  1  0  0  0  0
 10 11  1  0  0  0  0
 10  9  1  0  0  0  0
 11  3  1  0  0  0  0
 12 11  2  0  0  0  0
 13 12  1  0  0  0  0
 14 12  1  0  0  0  0
 15 14  1  0  0  0  0
 16 14  2  0  0  0  0
 16 17  1  0  0  0  0
 17 10  2  0  0  0  0
 18 20  1  0  0  0  0
 19 20  2  0  0  0  0
 20 21  1  0  0  0  0
 20 23  1  0  0  0  0
 22 21  1  0  0  0  0
 23 24  1  0  0  0  0
M  END
>  <minimizedAffinity>
-4.89590263

$$$$

 OpenBabel03272506153D

 24 25  0  0  0  0  0  0  0  0999 V2000
   36.5220   28.0520   32.6800 C   0  0  0  0  0  0  0  0  0  0  0  0
   35.9130   28.5860   33.8130 C   0  0  0  0  0  0  0  0  0  0  0  0
   35.5040   29.8920   33.8190 C   0  0  0  0  0  0  0  0  0  0  0  0
   35.7150   30.6150   32.6990 N   0  0  0  0  0  0  0  0  0  0  0  0
   36.3040   30.0990   31.5980 C   0  0  0  0  0  0  0  0  0  0  0  0
   36.7140   28.8020   31.5860 N   0  0  0  0  0  0  0  0  0  0  0  0
   35.7790   27.9510   34.6640 H   0  0  0  0  0  0  0  0  0  0  0  0
   36.4360   30.7460   30.7430 H   0  0  0  0  0  0  0  0  0  0  0  0
   32.7150   29.6930   34.6610 F   0  0  0  0  0  0  0  0  0  0  0  0
   33.5590   30.4980   35.3430 C   0  0  0  0  0  0  0  0  0  0  0  0
   34.8620   30.5710   34.9240 C   0  0  0  0  0  0  0  0  0  0  0  0
   35.6210   31.4250   35.7000 C   0  0  0  0  0  0  0  0  0  0  0  0
   36.6760   31.6030   35.5110 H   0  0  0  0  0  0  0  0  0  0  0  0
   35.1160   32.1240   36.7750 C   0  0  0  0  0  0  0  0  0  0  0  0
   35.7360   32.7850   37.3640 H   0  0  0  0  0  0  0  0  0  0  0  0
   33.7940   32.0060   37.1440 C   0  0  0  0  0  3  0  0  0  0  0  0
   33.0090   31.1610   36.3900 C   0  0  0  0  0  3  0  0  0  0  0  0
   36.9810   26.7390   32.5650 O   0  0  0  0  0  0  0  0  0  0  0  0
   37.2080   24.4140   31.2130 O   0  0  0  0  0  0  0  0  0  0  0  0
   36.9870   25.9180   31.0530 P   0  0  0  0  0  0  0  0  0  0  0  0
   35.4740   26.2260   30.3380 O   0  0  0  0  0  0  0  0  0  0  0  0
   34.9900   26.9550   30.7830 H   0  0  0  0  0  0  0  0  0  0  0  0
   38.2480   26.4830   30.0890 O   0  0  0  0  0  0  0  0  0  0  0  0
   38.0330   26.4110   29.1170 H   0  0  0  0  0  0  0  0  0  0  0  0
  1  2  1  0  0  0  0
  2  3  2  0  0  0  0
  2  7  1  0  0  0  0
  3 11  1  0  0  0  0
  4  3  1  0  0  0  0
  5  4  2  0  0  0  0
  6  5  1  0  0  0  0
  6  1  2  0  0  0  0
  8  5  1  0  0  0  0
  9 10  1  0  0  0  0
 10 17  1  0  0  0  0
 11 10  2  0  0  0  0
 11 12  1  0  0  0  0
 12 14  2  0  0  0  0
 13 12  1  0  0  0  0
 14 16  1  0  0  0  0
 14 15  1  0  0  0  0
 17 16  2  0  0  0  0
 18  1  1  0  0  0  0
 20 19  2  0  0  0  0
 20 18  1  0  0  0  0
 21 22  1  0  0  0  0
 21 20  1  0  0  0  0
 23 20  1  0  0  0  0
 24 23  1  0  0  0  0
M  END
>  <minimizedAffinity>
-4.89270449

$$$$
