
 OpenBabel03272508373D

 44 47  0  0  1  0  0  0  0  0999 V2000
   40.6090   30.6820   44.0490 C   0  0  0  0  0  0  0  0  0  0  0  0
   40.6430   29.8990   44.8660 H   0  0  0  0  0  0  0  0  0  0  0  0
   41.6950   30.8970   43.8790 H   0  0  0  0  0  0  0  0  0  0  0  0
   40.1380   30.0250   42.8980 N   0  0  0  0  0  0  0  0  0  0  0  0
   39.3100   28.9080   43.1100 C   0  0  0  0  0  0  0  0  0  0  0  0
   39.8150   27.6130   42.6000 C   0  0  0  0  0  0  0  0  0  0  0  0
   40.4800   27.7160   41.3750 O   0  0  0  0  0  0  0  0  0  0  0  0
   41.4730   28.6370   41.4230 C   0  0  0  0  0  0  0  0  0  0  0  0
   40.9450   29.9980   41.7650 C   0  0  1  0  0  0  0  0  0  0  0  0
   38.7930   28.7930   44.0690 H   0  0  0  0  0  0  0  0  0  0  0  0
   38.4290   29.1820   42.4790 H   0  0  0  0  0  0  0  0  0  0  0  0
   40.1330   26.8400   43.2800 H   0  0  0  0  0  0  0  0  0  0  0  0
   38.8690   27.0650   42.2160 H   0  0  0  0  0  0  0  0  0  0  0  0
   42.4170   28.3460   41.8840 H   0  0  0  0  0  0  0  0  0  0  0  0
   41.7940   28.7400   40.3540 H   0  0  0  0  0  0  0  0  0  0  0  0
   41.9210   30.5330   42.1180 H   0  0  0  0  0  0  0  0  0  0  0  0
   42.4270   30.2530   39.2610 F   0  0  0  0  0  0  0  0  0  0  0  0
   41.2540   30.8970   39.4170 C   0  0  0  0  0  0  0  0  0  0  0  0
   40.5750   30.7940   40.5890 C   0  0  0  0  0  0  0  0  0  0  0  0
   39.4030   31.5640   40.5340 C   0  0  0  0  0  0  0  0  0  0  0  0
   38.7360   31.5900   41.4100 H   0  0  0  0  0  0  0  0  0  0  0  0
   38.9490   32.3310   39.4840 C   0  0  0  0  0  0  0  0  0  0  0  0
   38.0300   32.8910   39.5380 H   0  0  0  0  0  0  0  0  0  0  0  0
   39.7260   32.3540   38.3470 C   0  0  0  0  0  3  0  0  0  0  0  0
   40.8910   31.6320   38.3090 C   0  0  0  0  0  3  0  0  0  0  0  0
   39.8850   31.8250   44.5640 C   0  0  0  0  0  0  0  0  0  0  0  0
   40.6320   32.4210   45.1930 H   0  0  0  0  0  0  0  0  0  0  0  0
   39.4230   32.5870   43.9690 H   0  0  0  0  0  0  0  0  0  0  0  0
   37.8440   30.7900   47.3300 C   0  0  0  0  0  0  0  0  0  0  0  0
   36.8930   30.8740   46.3310 C   0  0  0  0  0  0  0  0  0  0  0  0
   37.5510   31.2730   45.1710 C   0  0  0  0  0  0  0  0  0  0  0  0
   38.8340   31.4110   45.4960 N   0  0  0  0  0  0  0  0  0  0  0  0
   39.0060   31.1200   46.7930 N   0  0  0  0  0  0  0  0  0  0  0  0
   35.8120   30.6620   46.4510 H   0  0  0  0  0  0  0  0  0  0  0  0
   36.9780   31.3830   44.3280 H   0  0  0  0  0  0  0  0  0  0  0  0
   37.7540   30.4560   51.0710 C   0  0  0  0  0  0  0  0  0  0  0  0
   38.1440   30.9010   49.8160 C   0  0  0  0  0  0  0  0  0  0  0  0
   37.5260   30.4020   48.6800 C   0  0  0  0  0  0  0  0  0  0  0  0
   36.5490   29.4790   48.9070 N   0  0  0  0  0  0  0  0  0  0  0  0
   36.1770   29.0520   50.1300 C   0  0  0  0  0  0  0  0  0  0  0  0
   36.7860   29.5470   51.2030 N   0  0  0  0  0  0  0  0  0  0  0  0
   38.3080   30.9180   51.8800 H   0  0  0  0  0  0  0  0  0  0  0  0
   38.9190   31.6330   49.6390 H   0  0  0  0  0  0  0  0  0  0  0  0
   35.3860   28.3130   50.2000 H   0  0  0  0  0  0  0  0  0  0  0  0
  1 26  1  0  0  0  0
  1  2  1  0  0  0  0
  3  1  1  0  0  0  0
  4  5  1  0  0  0  0
  4  1  1  0  0  0  0
  5 10  1  0  0  0  0
  6  5  1  0  0  0  0
  6 12  1  0  0  0  0
  7  8  1  0  0  0  0
  7  6  1  0  0  0  0
  8  9  1  0  0  0  0
  8 14  1  0  0  0  0
  9 16  1  1  0  0  0
  9  4  1  0  0  0  0
 11  5  1  0  0  0  0
 13  6  1  0  0  0  0
 15  8  1  0  0  0  0
 17 18  1  0  0  0  0
 18 19  1  0  0  0  0
 19  9  1  0  0  0  0
 20 19  2  0  0  0  0
 20 21  1  0  0  0  0
 22 23  1  0  0  0  0
 22 20  1  0  0  0  0
 24 22  2  0  0  0  0
 25 24  1  0  0  0  0
 25 18  2  0  0  0  0
 26 27  1  0  0  0  0
 26 32  1  0  0  0  0
 28 26  1  0  0  0  0
 29 38  1  0  0  0  0
 30 34  1  0  0  0  0
 30 29  1  0  0  0  0
 31 32  1  0  0  0  0
 31 30  2  0  0  0  0
 32 33  1  0  0  0  0
 33 29  2  0  0  0  0
 35 31  1  0  0  0  0
 36 41  1  0  0  0  0
 36 42  1  0  0  0  0
 37 36  2  0  0  0  0
 38 39  2  0  0  0  0
 38 37  1  0  0  0  0
 39 40  1  0  0  0  0
 40 44  1  0  0  0  0
 40 41  2  0  0  0  0
 43 37  1  0  0  0  0
M  END
>  <minimizedAffinity>
-5.47119427

>  <minimizedRMSD>
2.69446969

$$$$
