
 OpenBabel03272506273D

 42 45  0  0  0  0  0  0  0  0999 V2000
   31.0500   26.8530   46.8740 C   0  0  0  0  0  0  0  0  0  0  0  0
   30.8830   25.4870   46.7180 C   0  0  0  0  0  0  0  0  0  0  0  0
   31.6220   24.6960   45.8460 C   0  0  0  0  0  0  0  0  0  0  0  0
   32.6140   25.3250   45.0640 C   0  0  0  0  0  0  0  0  0  0  0  0
   32.7700   26.6860   45.2300 C   0  0  0  0  0  0  0  0  0  0  0  0
   32.0350   27.4480   46.0900 C   0  0  0  0  0  0  0  0  0  0  0  0
   30.1150   24.9640   47.3130 H   0  0  0  0  0  0  0  0  0  0  0  0
   31.3990   23.6310   45.8100 H   0  0  0  0  0  0  0  0  0  0  0  0
   33.1210   24.6250   44.4300 H   0  0  0  0  0  0  0  0  0  0  0  0
   33.5420   26.9590   44.5580 H   0  0  0  0  0  0  0  0  0  0  0  0
   30.6530   27.5760   49.1430 C   0  0  0  0  0  0  0  0  0  0  0  0
   30.1910   27.5040   47.8200 C   0  0  0  0  0  0  0  0  0  0  0  0
   28.9430   28.0640   47.5270 C   0  0  0  0  0  0  0  0  0  0  0  0
   28.2370   28.6490   48.5280 N   0  0  0  0  0  0  0  0  0  0  0  0
   28.7050   28.7080   49.8070 C   0  0  0  0  0  0  0  0  0  0  0  0
   29.9190   28.1670   50.1090 N   0  0  0  0  0  0  0  0  0  0  0  0
   31.5990   27.1630   49.4110 H   0  0  0  0  0  0  0  0  0  0  0  0
   28.0840   29.1890   50.5420 H   0  0  0  0  0  0  0  0  0  0  0  0
   28.3260   28.0610   46.1730 C   0  0  0  0  0  0  0  0  0  0  0  0
   27.0890   28.7340   46.2190 F   0  0  0  0  0  0  0  0  0  0  0  0
   29.0680   28.5970   45.1840 F   0  0  0  0  0  0  0  0  0  0  0  0
   27.9740   26.7570   45.8210 F   0  0  0  0  0  0  0  0  0  0  0  0
   32.2490   29.1780   46.2910 S   0  0  0  0  0  0  0  0  0  0  0  0
   33.7900   29.5070   48.9690 Cl  0  0  0  0  0  0  0  0  0  0  0  0
   34.5850   29.8140   47.4550 C   0  0  0  0  0  0  0  0  0  0  0  0
   33.9410   29.7040   46.2200 C   0  0  0  0  0  0  0  0  0  0  0  0
   34.6120   29.9660   45.0580 C   0  0  0  0  0  0  0  0  0  0  0  0
   35.9340   30.3350   45.1130 C   0  0  0  0  0  0  0  0  0  0  0  0
   36.5920   30.4490   46.3390 C   0  0  0  0  0  0  0  0  0  0  0  0
   35.9260   30.1910   47.5270 C   0  0  0  0  0  0  0  0  0  0  0  0
   34.2020   29.9470   44.0830 H   0  0  0  0  0  0  0  0  0  0  0  0
   36.5570   30.5610   44.2740 H   0  0  0  0  0  0  0  0  0  0  0  0
   37.6360   30.7390   46.4190 H   0  0  0  0  0  0  0  0  0  0  0  0
   37.3450   32.4650   48.4840 F   0  0  0  0  0  0  0  0  0  0  0  0
   37.3110   31.3940   49.3110 C   0  0  0  0  0  0  0  0  0  0  0  0
   36.6150   30.3120   48.8120 C   0  0  0  0  0  0  0  0  0  0  0  0
   36.5220   29.1600   49.5880 C   0  0  0  0  0  0  0  0  0  0  0  0
   35.9910   28.2450   49.2830 H   0  0  0  0  0  0  0  0  0  0  0  0
   37.1050   29.0720   50.8350 C   0  0  0  0  0  0  0  0  0  0  0  0
   37.0420   28.1860   51.4480 H   0  0  0  0  0  0  0  0  0  0  0  0
   37.8060   30.1710   51.3310 C   0  0  0  0  0  0  0  0  0  0  0  0
   37.8950   31.3120   50.5550 C   0  0  0  0  0  0  0  0  0  0  0  0
  1 12  1  0  0  0  0
  2  1  1  0  0  0  0
  2  7  1  0  0  0  0
  3  2  2  0  0  0  0
  4  5  2  0  0  0  0
  4  3  1  0  0  0  0
  5  6  1  0  0  0  0
  6 23  1  0  0  0  0
  6  1  2  0  0  0  0
  8  3  1  0  0  0  0
  9  4  1  0  0  0  0
 10  5  1  0  0  0  0
 11 17  1  0  0  0  0
 11 16  1  0  0  0  0
 12 11  2  0  0  0  0
 13 12  1  0  0  0  0
 13 14  2  0  0  0  0
 14 15  1  0  0  0  0
 15 16  2  0  0  0  0
 15 18  1  0  0  0  0
 19 20  1  0  0  0  0
 19 13  1  0  0  0  0
 21 19  1  0  0  0  0
 22 19  1  0  0  0  0
 25 30  1  0  0  0  0
 25 24  1  0  0  0  0
 26 23  1  0  0  0  0
 26 25  2  0  0  0  0
 27 28  2  0  0  0  0
 27 26  1  0  0  0  0
 28 29  1  0  0  0  0
 29 33  1  0  0  0  0
 29 30  2  0  0  0  0
 30 36  1  0  0  0  0
 31 27  1  0  0  0  0
 32 28  1  0  0  0  0
 34 35  1  0  0  0  0
 35 42  1  0  0  0  0
 36 35  2  0  0  0  0
 36 37  1  0  0  0  0
 37 39  2  0  0  0  0
 38 37  1  0  0  0  0
 39 41  1  0  0  0  0
 39 40  1  0  0  0  0
 42 41  2  0  0  0  0
M  END
>  <minimizedAffinity>
-6.47925568

>  <minimizedRMSD>
3.98502231

$$$$
