
 OpenBabel03272507193D

 30 32  0  0  1  0  0  0  0  0999 V2000
   36.7620   31.3430   49.1850 C   0  0  0  0  0  0  0  0  0  0  0  0
   37.0990   32.4160   49.9950 C   0  0  0  0  0  0  0  0  0  0  0  0
   38.1570   33.2090   49.4910 C   0  0  0  0  0  0  0  0  0  0  0  0
   38.7630   32.9100   48.3050 N   0  0  0  0  0  0  0  0  0  0  0  0
   38.3810   31.8470   47.5670 C   0  0  0  0  0  0  0  0  0  0  0  0
   37.3690   31.0490   48.0050 N   0  0  0  0  0  0  0  0  0  0  0  0
   36.6090   32.6270   50.9160 H   0  0  0  0  0  0  0  0  0  0  0  0
   38.4620   34.0490   50.0700 H   0  0  0  0  0  0  0  0  0  0  0  0
   40.2740   33.6880   46.4950 F   0  0  0  0  0  0  0  0  0  0  0  0
   40.0710   32.5690   45.7970 C   0  0  0  0  0  0  0  0  0  0  0  0
   39.1500   31.7100   46.3490 C   0  0  0  0  0  0  0  0  0  0  0  0
   38.8620   30.5180   45.7080 C   0  0  0  0  0  0  0  0  0  0  0  0
   38.1620   29.7420   46.0200 H   0  0  0  0  0  0  0  0  0  0  0  0
   39.4990   30.1860   44.5070 C   0  0  0  0  0  0  0  0  0  0  0  0
   39.3350   29.2810   43.9410 H   0  0  0  0  0  0  0  0  0  0  0  0
   40.4280   31.0570   43.9520 C   0  0  0  0  0  0  0  0  0  0  0  0
   40.6960   32.2350   44.6130 C   0  0  0  0  0  0  0  0  0  0  0  0
   35.6330   30.4950   49.6740 C   0  0  1  0  0  0  0  0  0  0  0  0
   34.8680   29.6300   48.7780 C   0  0  2  0  0  0  0  0  0  0  0  0
   35.9440   28.9920   49.5990 C   0  0  0  0  0  0  0  0  0  0  0  0
   35.2770   30.8210   50.6920 H   0  0  0  0  0  0  0  0  0  0  0  0
   33.7850   29.5790   49.0520 H   0  0  0  0  0  0  0  0  0  0  0  0
   36.8720   28.6570   49.1090 H   0  0  0  0  0  0  0  0  0  0  0  0
   35.5480   28.3910   50.4420 H   0  0  0  0  0  0  0  0  0  0  0  0
   35.0710   29.7930   47.4110 O   0  0  0  0  0  0  0  0  0  0  0  0
   34.1520   29.9530   46.4240 C   0  0  0  0  0  0  0  0  0  0  0  0
   34.2410   29.3540   45.3310 O   0  0  0  0  0  0  0  0  0  0  0  0
   33.1770   30.8540   46.8640 N   0  0  0  0  0  0  0  0  0  0  0  0
   33.4540   31.8770   46.8160 H   0  0  0  0  0  0  0  0  0  0  0  0
   32.4390   30.1550   47.1130 H   0  0  0  0  0  0  0  0  0  0  0  0
  1 18  1  0  0  0  0
  1  2  1  0  0  0  0
  2  7  1  0  0  0  0
  3  2  2  0  0  0  0
  3  8  1  0  0  0  0
  4  3  1  0  0  0  0
  5  6  1  0  0  0  0
  5  4  2  0  0  0  0
  6  1  2  0  0  0  0
 10 11  1  0  0  0  0
 10  9  1  0  0  0  0
 11  5  1  0  0  0  0
 12 13  1  0  0  0  0
 12 11  2  0  0  0  0
 14 12  1  0  0  0  0
 15 14  1  0  0  0  0
 16 14  2  0  0  0  0
 16 17  1  0  0  0  0
 17 10  2  0  0  0  0
 18 21  1  1  0  0  0
 19 22  1  1  0  0  0
 19 20  1  0  0  0  0
 19 18  1  0  0  0  0
 20 18  1  0  0  0  0
 20 24  1  0  0  0  0
 23 20  1  0  0  0  0
 25 19  1  0  0  0  0
 26 28  1  0  0  0  0
 26 25  1  0  0  0  0
 27 26  2  0  0  0  0
 28 30  1  0  0  0  0
 29 28  1  0  0  0  0
M  END
>  <minimizedAffinity>
-6.55480766

>  <minimizedRMSD>
2.82783914

$$$$
