
 OpenBabel03272502353D

 36 38  0  0  1  0  0  0  0  0999 V2000
   35.5840   29.9550   47.9600 C   0  0  0  0  0  3  0  0  0  0  0  0
   36.7280   30.4330   47.5920 C   0  0  0  0  0  3  0  0  0  0  0  0
   33.7440   29.6630   44.7330 C   0  0  0  0  0  0  0  0  0  0  0  0
   34.7260   29.9070   45.6810 C   0  0  0  0  0  0  0  0  0  0  0  0
   34.5210   29.6790   47.0200 C   0  0  0  0  0  0  0  0  0  0  0  0
   33.3180   29.2080   47.3730 N   0  0  0  0  0  0  0  0  0  0  0  0
   32.3620   28.9690   46.4770 C   0  0  0  0  0  0  0  0  0  0  0  0
   32.5550   29.1880   45.1650 N   0  0  0  0  0  0  0  0  0  0  0  0
   33.8670   29.8290   43.6730 H   0  0  0  0  0  0  0  0  0  0  0  0
   35.6310   30.2810   45.2270 H   0  0  0  0  0  0  0  0  0  0  0  0
   30.0110   30.3360   45.9520 F   0  0  0  0  0  0  0  0  0  0  0  0
   29.8990   29.1650   46.6190 C   0  0  0  0  0  0  0  0  0  0  0  0
   31.0610   28.4540   46.8980 C   0  0  0  0  0  0  0  0  0  0  0  0
   30.9340   27.2570   47.5800 C   0  0  0  0  0  0  0  0  0  0  0  0
   31.8360   26.6990   47.8000 H   0  0  0  0  0  0  0  0  0  0  0  0
   29.6730   26.8380   47.9450 C   0  0  0  0  0  0  0  0  0  0  0  0
   29.5500   25.8970   48.4830 H   0  0  0  0  0  0  0  0  0  0  0  0
   28.5150   27.5260   47.6780 C   0  0  0  0  0  3  0  0  0  0  0  0
   28.6240   28.7370   46.9890 C   0  0  0  0  0  3  0  0  0  0  0  0
   37.7510   30.6890   48.6600 C   0  0  1  0  0  0  0  0  0  0  0  0
   38.3790   29.7770   48.8110 H   0  0  0  0  0  0  0  0  0  0  0  0
   38.5310   31.8860   48.3160 C   0  0  0  0  0  0  0  0  0  0  0  0
   38.6090   32.8220   49.3830 C   0  0  0  0  0  0  0  0  0  0  0  0
   39.2850   34.0170   49.3000 C   0  0  0  0  0  0  0  0  0  0  0  0
   39.9520   34.3780   48.1170 C   0  0  0  0  0  0  0  0  0  0  0  0
   39.8260   33.4120   47.1280 C   0  0  0  0  0  0  0  0  0  0  0  0
   39.1730   32.2400   47.1840 N   0  0  0  0  0  0  0  0  0  0  0  0
   38.1790   32.7720   50.3970 H   0  0  0  0  0  0  0  0  0  0  0  0
   39.3820   34.7680   50.0680 H   0  0  0  0  0  0  0  0  0  0  0  0
   40.5140   35.2370   47.8670 H   0  0  0  0  0  0  0  0  0  0  0  0
   40.2900   33.5480   46.1480 H   0  0  0  0  0  0  0  0  0  0  0  0
   36.8440   31.0900   50.1920 S   0  0  0  0  0  0  0  0  0  0  0  0
   36.8920   29.7270   51.3410 C   0  0  0  0  0  0  0  0  0  0  0  0
   37.5680   30.0220   52.5140 F   0  0  0  0  0  0  0  0  0  0  0  0
   35.6280   29.2250   51.5910 F   0  0  0  0  0  0  0  0  0  0  0  0
   37.5850   28.6850   50.6960 F   0  0  0  0  0  0  0  0  0  0  0  0
  2  1  2  0  0  0  0
  2 20  1  0  0  0  0
  3  8  2  0  0  0  0
  3  4  1  0  0  0  0
  4  5  2  0  0  0  0
  5  6  1  0  0  0  0
  5  1  1  0  0  0  0
  7 13  1  0  0  0  0
  7  6  2  0  0  0  0
  8  7  1  0  0  0  0
  9  3  1  0  0  0  0
 10  4  1  0  0  0  0
 11 12  1  0  0  0  0
 12 13  2  0  0  0  0
 12 19  1  0  0  0  0
 13 14  1  0  0  0  0
 14 15  1  0  0  0  0
 14 16  2  0  0  0  0
 16 17  1  0  0  0  0
 18 16  1  0  0  0  0
 19 18  2  0  0  0  0
 20 21  1  1  0  0  0
 20 32  1  0  0  0  0
 22 20  1  0  0  0  0
 22 23  1  0  0  0  0
 23 28  1  0  0  0  0
 24 23  2  0  0  0  0
 24 29  1  0  0  0  0
 25 24  1  0  0  0  0
 26 27  1  0  0  0  0
 26 25  2  0  0  0  0
 27 22  2  0  0  0  0
 30 25  1  0  0  0  0
 31 26  1  0  0  0  0
 32 33  1  0  0  0  0
 33 35  1  0  0  0  0
 33 34  1  0  0  0  0
 36 33  1  0  0  0  0
M  END
>  <minimizedAffinity>
-6.68982601

>  <minimizedRMSD>
0.220186979

$$$$
