
 OpenBabel03272502343D

 36 38  0  0  1  0  0  0  0  0999 V2000
   35.5410   29.9640   47.8980 C   0  0  0  0  0  3  0  0  0  0  0  0
   36.6950   30.4360   47.5530 C   0  0  0  0  0  3  0  0  0  0  0  0
   33.7590   29.6960   44.6370 C   0  0  0  0  0  0  0  0  0  0  0  0
   34.7260   29.9260   45.6030 C   0  0  0  0  0  0  0  0  0  0  0  0
   34.4930   29.7020   46.9380 C   0  0  0  0  0  0  0  0  0  0  0  0
   33.2770   29.2480   47.2690 N   0  0  0  0  0  0  0  0  0  0  0  0
   32.3350   29.0230   46.3550 C   0  0  0  0  0  0  0  0  0  0  0  0
   32.5550   29.2390   45.0470 N   0  0  0  0  0  0  0  0  0  0  0  0
   33.9030   29.8590   43.5800 H   0  0  0  0  0  0  0  0  0  0  0  0
   35.6450   30.2880   45.1660 H   0  0  0  0  0  0  0  0  0  0  0  0
   31.9790   26.4720   47.3770 F   0  0  0  0  0  0  0  0  0  0  0  0
   30.8730   27.2410   47.2610 C   0  0  0  0  0  0  0  0  0  0  0  0
   31.0180   28.5270   46.7520 C   0  0  0  0  0  0  0  0  0  0  0  0
   29.8790   29.3050   46.6380 C   0  0  0  0  0  0  0  0  0  0  0  0
   29.9870   30.3080   46.2410 H   0  0  0  0  0  0  0  0  0  0  0  0
   28.6720   28.7690   47.0330 C   0  0  0  0  0  0  0  0  0  0  0  0
   27.7630   29.3640   46.9530 H   0  0  0  0  0  0  0  0  0  0  0  0
   28.5120   27.5020   47.5380 C   0  0  0  0  0  3  0  0  0  0  0  0
   29.6500   26.7010   47.6600 C   0  0  0  0  0  3  0  0  0  0  0  0
   37.7020   30.6770   48.6400 C   0  0  1  0  0  0  0  0  0  0  0  0
   38.3200   29.7590   48.7950 H   0  0  0  0  0  0  0  0  0  0  0  0
   38.4960   31.8710   48.3180 C   0  0  0  0  0  0  0  0  0  0  0  0
   38.5710   32.7950   49.3960 C   0  0  0  0  0  0  0  0  0  0  0  0
   39.2580   33.9840   49.3340 C   0  0  0  0  0  0  0  0  0  0  0  0
   39.9400   34.3520   48.1630 C   0  0  0  0  0  0  0  0  0  0  0  0
   39.8170   33.3980   47.1620 C   0  0  0  0  0  0  0  0  0  0  0  0
   39.1530   32.2320   47.1970 N   0  0  0  0  0  0  0  0  0  0  0  0
   38.1300   32.7370   50.4050 H   0  0  0  0  0  0  0  0  0  0  0  0
   39.3540   34.7250   50.1120 H   0  0  0  0  0  0  0  0  0  0  0  0
   40.5130   35.2080   47.9280 H   0  0  0  0  0  0  0  0  0  0  0  0
   40.2920   33.5410   46.1880 H   0  0  0  0  0  0  0  0  0  0  0  0
   36.7720   31.0740   50.1600 S   0  0  0  0  0  0  0  0  0  0  0  0
   36.8420   29.7250   51.3240 C   0  0  0  0  0  0  0  0  0  0  0  0
   37.5170   30.0430   52.4920 F   0  0  0  0  0  0  0  0  0  0  0  0
   35.5850   29.2090   51.5830 F   0  0  0  0  0  0  0  0  0  0  0  0
   37.5480   28.6850   50.6890 F   0  0  0  0  0  0  0  0  0  0  0  0
  2  1  2  0  0  0  0
  2 20  1  0  0  0  0
  3  8  2  0  0  0  0
  3  4  1  0  0  0  0
  4  5  2  0  0  0  0
  5  6  1  0  0  0  0
  5  1  1  0  0  0  0
  7 13  1  0  0  0  0
  7  6  2  0  0  0  0
  8  7  1  0  0  0  0
  9  3  1  0  0  0  0
 10  4  1  0  0  0  0
 12 11  1  0  0  0  0
 12 19  1  0  0  0  0
 13 12  2  0  0  0  0
 14 13  1  0  0  0  0
 14 16  2  0  0  0  0
 15 14  1  0  0  0  0
 16 18  1  0  0  0  0
 17 16  1  0  0  0  0
 18 19  2  0  0  0  0
 20 21  1  1  0  0  0
 20 32  1  0  0  0  0
 22 20  1  0  0  0  0
 22 23  1  0  0  0  0
 23 28  1  0  0  0  0
 24 23  2  0  0  0  0
 24 29  1  0  0  0  0
 25 24  1  0  0  0  0
 26 27  1  0  0  0  0
 26 25  2  0  0  0  0
 27 22  2  0  0  0  0
 30 25  1  0  0  0  0
 31 26  1  0  0  0  0
 32 33  1  0  0  0  0
 33 35  1  0  0  0  0
 33 34  1  0  0  0  0
 36 33  1  0  0  0  0
M  END
>  <minimizedAffinity>
-6.61118174

>  <minimizedRMSD>
0.268774539

$$$$
