
 OpenBabel03272502353D

 36 38  0  0  1  0  0  0  0  0999 V2000
   35.5720   29.9290   47.9800 C   0  0  0  0  0  3  0  0  0  0  0  0
   36.6940   30.4520   47.6050 C   0  0  0  0  0  3  0  0  0  0  0  0
   33.7020   29.5990   44.7750 C   0  0  0  0  0  0  0  0  0  0  0  0
   34.6990   29.8350   45.7080 C   0  0  0  0  0  0  0  0  0  0  0  0
   34.4940   29.6630   47.0550 C   0  0  0  0  0  0  0  0  0  0  0  0
   33.2740   29.2530   47.4310 N   0  0  0  0  0  0  0  0  0  0  0  0
   32.3040   29.0220   46.5480 C   0  0  0  0  0  0  0  0  0  0  0  0
   32.4980   29.1880   45.2290 N   0  0  0  0  0  0  0  0  0  0  0  0
   33.8250   29.7220   43.7090 H   0  0  0  0  0  0  0  0  0  0  0  0
   35.6160   30.1570   45.2370 H   0  0  0  0  0  0  0  0  0  0  0  0
   31.9910   26.8630   48.2550 F   0  0  0  0  0  0  0  0  0  0  0  0
   30.8620   27.4870   47.8510 C   0  0  0  0  0  0  0  0  0  0  0  0
   30.9860   28.5750   46.9940 C   0  0  0  0  0  0  0  0  0  0  0  0
   29.8240   29.2070   46.5870 C   0  0  0  0  0  0  0  0  0  0  0  0
   29.9140   30.0560   45.9180 H   0  0  0  0  0  0  0  0  0  0  0  0
   28.6170   28.7280   47.0480 C   0  0  0  0  0  0  0  0  0  0  0  0
   27.6900   29.2110   46.7400 H   0  0  0  0  0  0  0  0  0  0  0  0
   28.4770   27.6560   47.8940 C   0  0  0  0  0  3  0  0  0  0  0  0
   29.6400   27.0050   48.3170 C   0  0  0  0  0  3  0  0  0  0  0  0
   37.7370   30.6910   48.6580 C   0  0  1  0  0  0  0  0  0  0  0  0
   38.3570   29.7720   48.7940 H   0  0  0  0  0  0  0  0  0  0  0  0
   38.5240   31.8820   48.3070 C   0  0  0  0  0  0  0  0  0  0  0  0
   38.6080   32.8240   49.3680 C   0  0  0  0  0  0  0  0  0  0  0  0
   39.2910   34.0140   49.2780 C   0  0  0  0  0  0  0  0  0  0  0  0
   39.9600   34.3640   48.0940 C   0  0  0  0  0  0  0  0  0  0  0  0
   39.8290   33.3930   47.1110 C   0  0  0  0  0  0  0  0  0  0  0  0
   39.1680   32.2260   47.1730 N   0  0  0  0  0  0  0  0  0  0  0  0
   38.1770   32.7820   50.3820 H   0  0  0  0  0  0  0  0  0  0  0  0
   39.3930   34.7690   50.0420 H   0  0  0  0  0  0  0  0  0  0  0  0
   40.5270   35.2180   47.8390 H   0  0  0  0  0  0  0  0  0  0  0  0
   40.2930   33.5200   46.1300 H   0  0  0  0  0  0  0  0  0  0  0  0
   36.8590   31.0950   50.2060 S   0  0  0  0  0  0  0  0  0  0  0  0
   36.9050   29.7230   51.3450 C   0  0  0  0  0  0  0  0  0  0  0  0
   37.5820   30.0080   52.5200 F   0  0  0  0  0  0  0  0  0  0  0  0
   35.6400   29.2210   51.5900 F   0  0  0  0  0  0  0  0  0  0  0  0
   37.5970   28.6840   50.6910 F   0  0  0  0  0  0  0  0  0  0  0  0
  2  1  2  0  0  0  0
  2 20  1  0  0  0  0
  3  8  2  0  0  0  0
  3  4  1  0  0  0  0
  4  5  2  0  0  0  0
  5  6  1  0  0  0  0
  5  1  1  0  0  0  0
  7 13  1  0  0  0  0
  7  6  2  0  0  0  0
  8  7  1  0  0  0  0
  9  3  1  0  0  0  0
 10  4  1  0  0  0  0
 12 11  1  0  0  0  0
 12 19  1  0  0  0  0
 13 12  2  0  0  0  0
 14 13  1  0  0  0  0
 14 16  2  0  0  0  0
 15 14  1  0  0  0  0
 16 18  1  0  0  0  0
 17 16  1  0  0  0  0
 18 19  2  0  0  0  0
 20 21  1  1  0  0  0
 20 32  1  0  0  0  0
 22 20  1  0  0  0  0
 22 23  1  0  0  0  0
 23 28  1  0  0  0  0
 24 23  2  0  0  0  0
 24 29  1  0  0  0  0
 25 24  1  0  0  0  0
 26 27  1  0  0  0  0
 26 25  2  0  0  0  0
 27 22  2  0  0  0  0
 30 25  1  0  0  0  0
 31 26  1  0  0  0  0
 32 33  1  0  0  0  0
 33 35  1  0  0  0  0
 33 34  1  0  0  0  0
 36 33  1  0  0  0  0
M  END
>  <minimizedAffinity>
-6.77475977

>  <minimizedRMSD>
1.0474664

$$$$
