
 OpenBabel03272502353D

 36 38  0  0  1  0  0  0  0  0999 V2000
   35.6150   29.8130   48.0360 C   0  0  0  0  0  3  0  0  0  0  0  0
   36.6940   30.4190   47.6580 C   0  0  0  0  0  3  0  0  0  0  0  0
   33.7210   29.3980   44.8540 C   0  0  0  0  0  0  0  0  0  0  0  0
   34.7250   29.6600   45.7740 C   0  0  0  0  0  0  0  0  0  0  0  0
   34.5300   29.5220   47.1260 C   0  0  0  0  0  0  0  0  0  0  0  0
   33.3150   29.1200   47.5220 N   0  0  0  0  0  0  0  0  0  0  0  0
   32.3380   28.8640   46.6530 C   0  0  0  0  0  0  0  0  0  0  0  0
   32.5220   28.9970   45.3280 N   0  0  0  0  0  0  0  0  0  0  0  0
   33.8350   29.4950   43.7850 H   0  0  0  0  0  0  0  0  0  0  0  0
   35.6370   29.9720   45.2880 H   0  0  0  0  0  0  0  0  0  0  0  0
   30.0240   30.2440   46.0090 F   0  0  0  0  0  0  0  0  0  0  0  0
   29.8810   29.1410   46.7790 C   0  0  0  0  0  0  0  0  0  0  0  0
   31.0240   28.4270   47.1190 C   0  0  0  0  0  0  0  0  0  0  0  0
   30.8670   27.3000   47.9080 C   0  0  0  0  0  0  0  0  0  0  0  0
   31.7540   26.7400   48.1770 H   0  0  0  0  0  0  0  0  0  0  0  0
   29.5950   26.9510   48.3100 C   0  0  0  0  0  0  0  0  0  0  0  0
   29.4480   26.0660   48.9310 H   0  0  0  0  0  0  0  0  0  0  0  0
   28.4560   27.6440   47.9830 C   0  0  0  0  0  3  0  0  0  0  0  0
   28.5960   28.7840   47.1870 C   0  0  0  0  0  3  0  0  0  0  0  0
   37.7480   30.6760   48.6940 C   0  0  1  0  0  0  0  0  0  0  0  0
   38.3740   29.7610   48.8340 H   0  0  0  0  0  0  0  0  0  0  0  0
   38.5250   31.8660   48.3190 C   0  0  0  0  0  0  0  0  0  0  0  0
   38.6150   32.8220   49.3660 C   0  0  0  0  0  0  0  0  0  0  0  0
   39.2900   34.0140   49.2530 C   0  0  0  0  0  0  0  0  0  0  0  0
   39.9460   34.3520   48.0570 C   0  0  0  0  0  0  0  0  0  0  0  0
   39.8100   33.3670   47.0890 C   0  0  0  0  0  0  0  0  0  0  0  0
   39.1560   32.1970   47.1740 N   0  0  0  0  0  0  0  0  0  0  0  0
   38.1950   32.7930   50.3850 H   0  0  0  0  0  0  0  0  0  0  0  0
   39.3960   34.7800   50.0060 H   0  0  0  0  0  0  0  0  0  0  0  0
   40.5060   35.2050   47.7840 H   0  0  0  0  0  0  0  0  0  0  0  0
   40.2640   33.4830   46.1020 H   0  0  0  0  0  0  0  0  0  0  0  0
   36.8870   31.0950   50.2480 S   0  0  0  0  0  0  0  0  0  0  0  0
   36.9190   29.7230   51.3880 C   0  0  0  0  0  0  0  0  0  0  0  0
   37.5850   30.0070   52.5690 F   0  0  0  0  0  0  0  0  0  0  0  0
   35.6500   29.2250   51.6220 F   0  0  0  0  0  0  0  0  0  0  0  0
   37.6140   28.6830   50.7410 F   0  0  0  0  0  0  0  0  0  0  0  0
  2  1  2  0  0  0  0
  2 20  1  0  0  0  0
  3  8  2  0  0  0  0
  3  4  1  0  0  0  0
  4  5  2  0  0  0  0
  5  6  1  0  0  0  0
  5  1  1  0  0  0  0
  7 13  1  0  0  0  0
  7  6  2  0  0  0  0
  8  7  1  0  0  0  0
  9  3  1  0  0  0  0
 10  4  1  0  0  0  0
 11 12  1  0  0  0  0
 12 13  2  0  0  0  0
 12 19  1  0  0  0  0
 13 14  1  0  0  0  0
 14 15  1  0  0  0  0
 14 16  2  0  0  0  0
 16 17  1  0  0  0  0
 18 16  1  0  0  0  0
 19 18  2  0  0  0  0
 20 21  1  1  0  0  0
 20 32  1  0  0  0  0
 22 20  1  0  0  0  0
 22 23  1  0  0  0  0
 23 28  1  0  0  0  0
 24 23  2  0  0  0  0
 24 29  1  0  0  0  0
 25 24  1  0  0  0  0
 26 27  1  0  0  0  0
 26 25  2  0  0  0  0
 27 22  2  0  0  0  0
 30 25  1  0  0  0  0
 31 26  1  0  0  0  0
 32 33  1  0  0  0  0
 33 35  1  0  0  0  0
 33 34  1  0  0  0  0
 36 33  1  0  0  0  0
M  END
>  <minimizedAffinity>
-6.70050669

>  <minimizedRMSD>
0.798494279

$$$$
