
 OpenBabel03272502353D

 36 38  0  0  1  0  0  0  0  0999 V2000
   35.5400   29.9610   47.8970 C   0  0  0  0  0  3  0  0  0  0  0  0
   36.6920   30.4380   47.5530 C   0  0  0  0  0  3  0  0  0  0  0  0
   33.7570   29.6960   44.6360 C   0  0  0  0  0  0  0  0  0  0  0  0
   34.7250   29.9250   45.6020 C   0  0  0  0  0  0  0  0  0  0  0  0
   34.4920   29.7000   46.9360 C   0  0  0  0  0  0  0  0  0  0  0  0
   33.2750   29.2470   47.2680 N   0  0  0  0  0  0  0  0  0  0  0  0
   32.3330   29.0220   46.3530 C   0  0  0  0  0  0  0  0  0  0  0  0
   32.5530   29.2380   45.0460 N   0  0  0  0  0  0  0  0  0  0  0  0
   33.9010   29.8600   43.5780 H   0  0  0  0  0  0  0  0  0  0  0  0
   35.6430   30.2870   45.1650 H   0  0  0  0  0  0  0  0  0  0  0  0
   31.9760   26.4690   47.3700 F   0  0  0  0  0  0  0  0  0  0  0  0
   30.8700   27.2390   47.2570 C   0  0  0  0  0  0  0  0  0  0  0  0
   31.0160   28.5260   46.7500 C   0  0  0  0  0  0  0  0  0  0  0  0
   29.8770   29.3060   46.6380 C   0  0  0  0  0  0  0  0  0  0  0  0
   29.9860   30.3090   46.2440 H   0  0  0  0  0  0  0  0  0  0  0  0
   28.6710   28.7700   47.0340 C   0  0  0  0  0  0  0  0  0  0  0  0
   27.7620   29.3660   46.9550 H   0  0  0  0  0  0  0  0  0  0  0  0
   28.5100   27.5010   47.5360 C   0  0  0  0  0  3  0  0  0  0  0  0
   29.6490   26.6990   47.6560 C   0  0  0  0  0  3  0  0  0  0  0  0
   37.6990   30.6770   48.6390 C   0  0  1  0  0  0  0  0  0  0  0  0
   38.3170   29.7590   48.7930 H   0  0  0  0  0  0  0  0  0  0  0  0
   38.4940   31.8710   48.3180 C   0  0  0  0  0  0  0  0  0  0  0  0
   38.5700   32.7940   49.3970 C   0  0  0  0  0  0  0  0  0  0  0  0
   39.2570   33.9820   49.3350 C   0  0  0  0  0  0  0  0  0  0  0  0
   39.9400   34.3510   48.1640 C   0  0  0  0  0  0  0  0  0  0  0  0
   39.8160   33.3980   47.1620 C   0  0  0  0  0  0  0  0  0  0  0  0
   39.1510   32.2320   47.1970 N   0  0  0  0  0  0  0  0  0  0  0  0
   38.1280   32.7360   50.4050 H   0  0  0  0  0  0  0  0  0  0  0  0
   39.3540   34.7230   50.1130 H   0  0  0  0  0  0  0  0  0  0  0  0
   40.5130   35.2070   47.9300 H   0  0  0  0  0  0  0  0  0  0  0  0
   40.2920   33.5410   46.1890 H   0  0  0  0  0  0  0  0  0  0  0  0
   36.7700   31.0730   50.1600 S   0  0  0  0  0  0  0  0  0  0  0  0
   36.8410   29.7250   51.3240 C   0  0  0  0  0  0  0  0  0  0  0  0
   37.5190   30.0430   52.4900 F   0  0  0  0  0  0  0  0  0  0  0  0
   35.5850   29.2090   51.5860 F   0  0  0  0  0  0  0  0  0  0  0  0
   37.5460   28.6840   50.6880 F   0  0  0  0  0  0  0  0  0  0  0  0
  2  1  2  0  0  0  0
  2 20  1  0  0  0  0
  3  8  2  0  0  0  0
  3  4  1  0  0  0  0
  4  5  2  0  0  0  0
  5  6  1  0  0  0  0
  5  1  1  0  0  0  0
  7 13  1  0  0  0  0
  7  6  2  0  0  0  0
  8  7  1  0  0  0  0
  9  3  1  0  0  0  0
 10  4  1  0  0  0  0
 12 11  1  0  0  0  0
 12 19  1  0  0  0  0
 13 12  2  0  0  0  0
 14 13  1  0  0  0  0
 14 16  2  0  0  0  0
 15 14  1  0  0  0  0
 16 18  1  0  0  0  0
 17 16  1  0  0  0  0
 18 19  2  0  0  0  0
 20 21  1  1  0  0  0
 20 32  1  0  0  0  0
 22 20  1  0  0  0  0
 22 23  1  0  0  0  0
 23 28  1  0  0  0  0
 24 23  2  0  0  0  0
 24 29  1  0  0  0  0
 25 24  1  0  0  0  0
 26 27  1  0  0  0  0
 26 25  2  0  0  0  0
 27 22  2  0  0  0  0
 30 25  1  0  0  0  0
 31 26  1  0  0  0  0
 32 33  1  0  0  0  0
 33 35  1  0  0  0  0
 33 34  1  0  0  0  0
 36 33  1  0  0  0  0
M  END
>  <minimizedAffinity>
-6.61114836

>  <minimizedRMSD>
0.10917291

$$$$
