
 OpenBabel03272506473D

 42 45  0  0  1  0  0  0  0  0999 V2000
   31.1780   28.2230   47.3550 C   0  0  2  0  0  0  0  0  0  0  0  0
   32.4020   27.8970   48.1580 C   0  0  1  0  0  0  0  0  0  0  0  0
   32.5550   26.5440   48.1610 O   0  0  0  0  0  0  0  0  0  0  0  0
   31.7150   25.9850   47.2020 C   0  0  0  0  0  0  0  0  0  0  0  0
   31.2880   27.0990   46.2750 C   0  0  1  0  0  0  0  0  0  0  0  0
   30.2330   28.0890   47.8720 H   0  0  0  0  0  0  0  0  0  0  0  0
   32.3620   28.3540   49.1660 H   0  0  0  0  0  0  0  0  0  0  0  0
   30.9190   25.4900   47.7440 H   0  0  0  0  0  0  0  0  0  0  0  0
   32.3340   25.2320   46.6210 H   0  0  0  0  0  0  0  0  0  0  0  0
   32.0710   27.4170   45.5930 H   0  0  0  0  0  0  0  0  0  0  0  0
   31.3200   29.4780   46.7250 O   0  0  0  0  0  0  0  0  0  0  0  0
   31.8880   29.3010   45.9270 H   0  0  0  0  0  0  0  0  0  0  0  0
   33.8460   28.6350   47.2930 S   0  0  0  0  0  0  0  0  0  0  0  0
   35.7620   29.3720   50.6820 C   0  0  0  0  0  0  0  0  0  0  0  0
   36.5680   30.4760   50.4060 C   0  0  0  0  0  0  0  0  0  0  0  0
   36.5200   31.0200   49.1160 C   0  0  0  0  0  0  0  0  0  0  0  0
   35.6910   30.4440   48.2030 N   0  0  0  0  0  0  0  0  0  0  0  0
   34.9270   29.3730   48.5150 C   0  0  0  0  0  0  0  0  0  0  0  0
   34.9490   28.8240   49.7500 N   0  0  0  0  0  0  0  0  0  0  0  0
   35.8200   28.9740   51.6840 H   0  0  0  0  0  0  0  0  0  0  0  0
   37.2250   30.9280   51.1400 H   0  0  0  0  0  0  0  0  0  0  0  0
   37.1110   31.8710   48.8270 H   0  0  0  0  0  0  0  0  0  0  0  0
   30.0540   26.7970   45.7560 O   0  0  0  0  0  0  0  0  0  0  0  0
   29.1890   28.9020   43.8850 Cl  0  0  0  0  0  0  0  0  0  0  0  0
   28.3900   28.3330   45.3310 C   0  0  0  0  0  0  0  0  0  0  0  0
   28.8900   27.3260   46.1240 C   0  0  0  0  0  0  0  0  0  0  0  0
   28.1450   26.9410   47.2420 C   0  0  0  0  0  0  0  0  0  0  0  0
   26.9480   27.5550   47.5340 C   0  0  0  0  0  0  0  0  0  0  0  0
   26.4350   28.5680   46.7420 C   0  0  0  0  0  0  0  0  0  0  0  0
   27.1690   28.9510   45.6360 C   0  0  0  0  0  0  0  0  0  0  0  0
   28.4460   26.1630   47.9210 H   0  0  0  0  0  0  0  0  0  0  0  0
   26.3300   27.3010   48.3810 H   0  0  0  0  0  0  0  0  0  0  0  0
   25.5060   29.0510   46.9600 H   0  0  0  0  0  0  0  0  0  0  0  0
   27.4340   31.7240   46.1270 F   0  0  0  0  0  0  0  0  0  0  0  0
   26.7550   31.3760   45.0090 C   0  0  0  0  0  0  0  0  0  0  0  0
   26.6420   30.0170   44.7940 C   0  0  0  0  0  0  0  0  0  0  0  0
   25.9640   29.5640   43.6760 C   0  0  0  0  0  0  0  0  0  0  0  0
   25.8280   28.5200   43.4300 H   0  0  0  0  0  0  0  0  0  0  0  0
   25.3920   30.4400   42.7550 C   0  0  0  0  0  0  0  0  0  0  0  0
   24.8550   30.1040   41.8700 H   0  0  0  0  0  0  0  0  0  0  0  0
   25.5270   31.7930   43.0050 C   0  0  0  0  0  3  0  0  0  0  0  0
   26.2010   32.2750   44.1190 C   0  0  0  0  0  3  0  0  0  0  0  0
  1  6  1  1  0  0  0
  1  2  1  0  0  0  0
  2  3  1  0  0  0  0
  2  7  1  1  0  0  0
  4  8  1  0  0  0  0
  4  3  1  0  0  0  0
  5 10  1  6  0  0  0
  5  4  1  0  0  0  0
  5  1  1  0  0  0  0
  9  4  1  0  0  0  0
 11  1  1  0  0  0  0
 12 11  1  0  0  0  0
 13  2  1  0  0  0  0
 13 18  1  0  0  0  0
 14 20  1  0  0  0  0
 15 14  1  0  0  0  0
 15 21  1  0  0  0  0
 16 15  2  0  0  0  0
 17 18  2  0  0  0  0
 17 16  1  0  0  0  0
 18 19  1  0  0  0  0
 19 14  2  0  0  0  0
 22 16  1  0  0  0  0
 23 26  1  0  0  0  0
 23  5  1  0  0  0  0
 24 25  1  0  0  0  0
 25 30  2  0  0  0  0
 25 26  1  0  0  0  0
 26 27  2  0  0  0  0
 27 28  1  0  0  0  0
 27 31  1  0  0  0  0
 28 32  1  0  0  0  0
 29 33  1  0  0  0  0
 29 28  2  0  0  0  0
 30 29  1  0  0  0  0
 35 34  1  0  0  0  0
 36 35  1  0  0  0  0
 36 30  1  0  0  0  0
 37 36  2  0  0  0  0
 38 37  1  0  0  0  0
 39 41  2  0  0  0  0
 39 37  1  0  0  0  0
 40 39  1  0  0  0  0
 41 42  1  0  0  0  0
 42 35  2  0  0  0  0
M  END
>  <minimizedAffinity>
-5.57975245

>  <minimizedRMSD>
1.29759777

$$$$
