
 OpenBabel03272506473D

 42 45  0  0  1  0  0  0  0  0999 V2000
   32.1440   28.4410   47.4120 C   0  0  2  0  0  0  0  0  0  0  0  0
   33.3680   28.3530   48.2750 C   0  0  1  0  0  0  0  0  0  0  0  0
   33.8020   27.0630   48.2570 O   0  0  0  0  0  0  0  0  0  0  0  0
   33.1490   26.3720   47.2410 C   0  0  0  0  0  0  0  0  0  0  0  0
   32.5440   27.4010   46.3160 C   0  0  1  0  0  0  0  0  0  0  0  0
   31.2240   28.0940   47.8710 H   0  0  0  0  0  0  0  0  0  0  0  0
   33.1810   28.7580   49.2890 H   0  0  0  0  0  0  0  0  0  0  0  0
   32.4500   25.7020   47.7270 H   0  0  0  0  0  0  0  0  0  0  0  0
   33.9420   25.7840   46.6800 H   0  0  0  0  0  0  0  0  0  0  0  0
   33.2760   27.8980   45.6850 H   0  0  0  0  0  0  0  0  0  0  0  0
   32.0490   29.7170   46.8170 O   0  0  0  0  0  0  0  0  0  0  0  0
   32.6810   29.6900   46.0490 H   0  0  0  0  0  0  0  0  0  0  0  0
   34.6650   29.4050   47.5090 S   0  0  0  0  0  0  0  0  0  0  0  0
   37.1350   29.2900   50.6040 C   0  0  0  0  0  0  0  0  0  0  0  0
   37.6130   30.5940   50.7310 C   0  0  0  0  0  0  0  0  0  0  0  0
   37.1540   31.5540   49.8200 C   0  0  0  0  0  0  0  0  0  0  0  0
   36.2680   31.1650   48.8640 N   0  0  0  0  0  0  0  0  0  0  0  0
   35.8310   29.8880   48.7790 C   0  0  0  0  0  0  0  0  0  0  0  0
   36.2530   28.9370   49.6410 N   0  0  0  0  0  0  0  0  0  0  0  0
   37.5060   28.5710   51.3200 H   0  0  0  0  0  0  0  0  0  0  0  0
   38.3190   30.8940   51.4970 H   0  0  0  0  0  0  0  0  0  0  0  0
   37.4760   32.5800   49.8540 H   0  0  0  0  0  0  0  0  0  0  0  0
   31.4290   26.8630   45.7220 O   0  0  0  0  0  0  0  0  0  0  0  0
   29.9890   28.6670   43.8910 Cl  0  0  0  0  0  0  0  0  0  0  0  0
   29.3970   27.8750   45.3310 C   0  0  0  0  0  0  0  0  0  0  0  0
   30.1680   27.0380   46.1050 C   0  0  0  0  0  0  0  0  0  0  0  0
   29.5720   26.4420   47.2200 C   0  0  0  0  0  0  0  0  0  0  0  0
   28.2530   26.6900   47.5280 C   0  0  0  0  0  0  0  0  0  0  0  0
   27.4680   27.5300   46.7560 C   0  0  0  0  0  0  0  0  0  0  0  0
   28.0540   28.1200   45.6530 C   0  0  0  0  0  0  0  0  0  0  0  0
   30.0850   25.7710   47.8840 H   0  0  0  0  0  0  0  0  0  0  0  0
   27.7390   26.2600   48.3740 H   0  0  0  0  0  0  0  0  0  0  0  0
   26.4420   27.7290   46.9870 H   0  0  0  0  0  0  0  0  0  0  0  0
   28.0120   30.9440   45.8160 F   0  0  0  0  0  0  0  0  0  0  0  0
   27.1990   30.3860   44.8890 C   0  0  0  0  0  0  0  0  0  0  0  0
   27.2410   29.0070   44.8320 C   0  0  0  0  0  0  0  0  0  0  0  0
   26.4430   28.3450   43.9140 C   0  0  0  0  0  0  0  0  0  0  0  0
   26.4120   27.2710   43.7990 H   0  0  0  0  0  0  0  0  0  0  0  0
   25.5970   29.0290   43.0420 C   0  0  0  0  0  0  0  0  0  0  0  0
   24.9630   28.5280   42.3130 H   0  0  0  0  0  0  0  0  0  0  0  0
   25.5840   30.4080   43.1310 C   0  0  0  0  0  3  0  0  0  0  0  0
   26.3730   31.0990   44.0420 C   0  0  0  0  0  3  0  0  0  0  0  0
  1  6  1  1  0  0  0
  1  2  1  0  0  0  0
  2  7  1  1  0  0  0
  3  2  1  0  0  0  0
  4  8  1  0  0  0  0
  4  3  1  0  0  0  0
  5 10  1  6  0  0  0
  5  4  1  0  0  0  0
  5  1  1  0  0  0  0
  9  4  1  0  0  0  0
 11  1  1  0  0  0  0
 12 11  1  0  0  0  0
 13  2  1  0  0  0  0
 13 18  1  0  0  0  0
 14 15  1  0  0  0  0
 14 20  1  0  0  0  0
 15 21  1  0  0  0  0
 16 22  1  0  0  0  0
 16 15  2  0  0  0  0
 17 16  1  0  0  0  0
 18 17  2  0  0  0  0
 18 19  1  0  0  0  0
 19 14  2  0  0  0  0
 23 26  1  0  0  0  0
 23  5  1  0  0  0  0
 24 25  1  0  0  0  0
 25 30  2  0  0  0  0
 25 26  1  0  0  0  0
 26 27  2  0  0  0  0
 27 28  1  0  0  0  0
 27 31  1  0  0  0  0
 28 32  1  0  0  0  0
 29 33  1  0  0  0  0
 29 28  2  0  0  0  0
 30 29  1  0  0  0  0
 35 34  1  0  0  0  0
 36 35  1  0  0  0  0
 36 30  1  0  0  0  0
 37 36  2  0  0  0  0
 38 37  1  0  0  0  0
 39 41  2  0  0  0  0
 39 37  1  0  0  0  0
 40 39  1  0  0  0  0
 41 42  1  0  0  0  0
 42 35  2  0  0  0  0
M  END
>  <minimizedAffinity>
-5.35945797

>  <minimizedRMSD>
0.433615953

$$$$
