
 OpenBabel03272506483D

 42 45  0  0  1  0  0  0  0  0999 V2000
   32.1250   28.4640   47.3970 C   0  0  2  0  0  0  0  0  0  0  0  0
   33.3430   28.3590   48.2660 C   0  0  1  0  0  0  0  0  0  0  0  0
   33.7630   27.0640   48.2470 O   0  0  0  0  0  0  0  0  0  0  0  0
   33.1060   26.3830   47.2260 C   0  0  0  0  0  0  0  0  0  0  0  0
   32.5170   27.4220   46.3000 C   0  0  1  0  0  0  0  0  0  0  0  0
   31.1990   28.1270   47.8510 H   0  0  0  0  0  0  0  0  0  0  0  0
   33.1560   28.7630   49.2800 H   0  0  0  0  0  0  0  0  0  0  0  0
   32.3960   25.7210   47.7060 H   0  0  0  0  0  0  0  0  0  0  0  0
   33.8940   25.7880   46.6670 H   0  0  0  0  0  0  0  0  0  0  0  0
   33.2580   27.9120   45.6740 H   0  0  0  0  0  0  0  0  0  0  0  0
   32.0480   29.7420   46.8050 O   0  0  0  0  0  0  0  0  0  0  0  0
   32.6840   29.7100   46.0400 H   0  0  0  0  0  0  0  0  0  0  0  0
   34.6570   29.3970   47.5090 S   0  0  0  0  0  0  0  0  0  0  0  0
   37.1090   29.2710   50.6180 C   0  0  0  0  0  0  0  0  0  0  0  0
   37.5810   30.5770   50.7560 C   0  0  0  0  0  0  0  0  0  0  0  0
   37.1220   31.5410   49.8500 C   0  0  0  0  0  0  0  0  0  0  0  0
   36.2440   31.1550   48.8850 N   0  0  0  0  0  0  0  0  0  0  0  0
   35.8130   29.8770   48.7890 C   0  0  0  0  0  0  0  0  0  0  0  0
   36.2350   28.9220   49.6470 N   0  0  0  0  0  0  0  0  0  0  0  0
   37.4790   28.5500   51.3300 H   0  0  0  0  0  0  0  0  0  0  0  0
   38.2810   30.8750   51.5280 H   0  0  0  0  0  0  0  0  0  0  0  0
   37.4400   32.5680   49.8920 H   0  0  0  0  0  0  0  0  0  0  0  0
   31.4000   26.8990   45.6990 O   0  0  0  0  0  0  0  0  0  0  0  0
   30.0490   28.9010   44.0120 Cl  0  0  0  0  0  0  0  0  0  0  0  0
   29.4080   28.0100   45.3710 C   0  0  0  0  0  0  0  0  0  0  0  0
   30.1380   27.0840   46.0800 C   0  0  0  0  0  0  0  0  0  0  0  0
   29.5060   26.4160   47.1310 C   0  0  0  0  0  0  0  0  0  0  0  0
   28.1910   26.6810   47.4430 C   0  0  0  0  0  0  0  0  0  0  0  0
   27.4470   27.6110   46.7360 C   0  0  0  0  0  0  0  0  0  0  0  0
   28.0690   28.2730   45.6950 C   0  0  0  0  0  0  0  0  0  0  0  0
   29.9870   25.6730   47.7430 H   0  0  0  0  0  0  0  0  0  0  0  0
   27.6510   26.1990   48.2420 H   0  0  0  0  0  0  0  0  0  0  0  0
   26.4250   27.8240   46.9700 H   0  0  0  0  0  0  0  0  0  0  0  0
   27.8540   31.0240   46.3110 F   0  0  0  0  0  0  0  0  0  0  0  0
   27.1750   30.6000   45.2190 C   0  0  0  0  0  0  0  0  0  0  0  0
   27.2980   29.2540   44.9430 C   0  0  0  0  0  0  0  0  0  0  0  0
   26.6390   28.7260   43.8460 C   0  0  0  0  0  0  0  0  0  0  0  0
   26.6800   27.6850   43.5560 H   0  0  0  0  0  0  0  0  0  0  0  0
   25.8530   29.5140   43.0090 C   0  0  0  0  0  0  0  0  0  0  0  0
   25.3270   29.1190   42.1400 H   0  0  0  0  0  0  0  0  0  0  0  0
   25.7540   30.8580   43.3180 C   0  0  0  0  0  3  0  0  0  0  0  0
   26.4040   31.4150   44.4130 C   0  0  0  0  0  3  0  0  0  0  0  0
  1  6  1  1  0  0  0
  1  2  1  0  0  0  0
  2  7  1  1  0  0  0
  3  2  1  0  0  0  0
  4  8  1  0  0  0  0
  4  3  1  0  0  0  0
  5 10  1  6  0  0  0
  5  4  1  0  0  0  0
  5  1  1  0  0  0  0
  9  4  1  0  0  0  0
 11  1  1  0  0  0  0
 12 11  1  0  0  0  0
 13  2  1  0  0  0  0
 13 18  1  0  0  0  0
 14 15  1  0  0  0  0
 14 20  1  0  0  0  0
 15 21  1  0  0  0  0
 16 22  1  0  0  0  0
 16 15  2  0  0  0  0
 17 16  1  0  0  0  0
 18 17  2  0  0  0  0
 18 19  1  0  0  0  0
 19 14  2  0  0  0  0
 23 26  1  0  0  0  0
 23  5  1  0  0  0  0
 24 25  1  0  0  0  0
 25 30  2  0  0  0  0
 25 26  1  0  0  0  0
 26 27  2  0  0  0  0
 27 28  1  0  0  0  0
 27 31  1  0  0  0  0
 28 32  1  0  0  0  0
 29 33  1  0  0  0  0
 29 28  2  0  0  0  0
 30 29  1  0  0  0  0
 35 34  1  0  0  0  0
 36 35  1  0  0  0  0
 36 30  1  0  0  0  0
 37 36  2  0  0  0  0
 38 37  1  0  0  0  0
 39 41  2  0  0  0  0
 39 37  1  0  0  0  0
 40 39  1  0  0  0  0
 41 42  1  0  0  0  0
 42 35  2  0  0  0  0
M  END
>  <minimizedAffinity>
-5.33219624

>  <minimizedRMSD>
0.286724538

$$$$
