
 OpenBabel03272506473D

 42 45  0  0  1  0  0  0  0  0999 V2000
   32.1450   28.4370   47.4180 C   0  0  2  0  0  0  0  0  0  0  0  0
   33.3700   28.3500   48.2790 C   0  0  1  0  0  0  0  0  0  0  0  0
   33.8070   27.0610   48.2580 O   0  0  0  0  0  0  0  0  0  0  0  0
   33.1530   26.3710   47.2420 C   0  0  0  0  0  0  0  0  0  0  0  0
   32.5440   27.4000   46.3190 C   0  0  1  0  0  0  0  0  0  0  0  0
   31.2260   28.0880   47.8780 H   0  0  0  0  0  0  0  0  0  0  0  0
   33.1830   28.7530   49.2940 H   0  0  0  0  0  0  0  0  0  0  0  0
   32.4560   25.6990   47.7270 H   0  0  0  0  0  0  0  0  0  0  0  0
   33.9460   25.7860   46.6780 H   0  0  0  0  0  0  0  0  0  0  0  0
   33.2740   27.9010   45.6880 H   0  0  0  0  0  0  0  0  0  0  0  0
   32.0460   29.7140   46.8260 O   0  0  0  0  0  0  0  0  0  0  0  0
   32.6760   29.6900   46.0560 H   0  0  0  0  0  0  0  0  0  0  0  0
   34.6630   29.4070   47.5120 S   0  0  0  0  0  0  0  0  0  0  0  0
   37.1350   29.2900   50.6060 C   0  0  0  0  0  0  0  0  0  0  0  0
   37.6160   30.5940   50.7310 C   0  0  0  0  0  0  0  0  0  0  0  0
   37.1580   31.5530   49.8200 C   0  0  0  0  0  0  0  0  0  0  0  0
   36.2700   31.1650   48.8640 N   0  0  0  0  0  0  0  0  0  0  0  0
   35.8310   29.8890   48.7810 C   0  0  0  0  0  0  0  0  0  0  0  0
   36.2520   28.9380   49.6440 N   0  0  0  0  0  0  0  0  0  0  0  0
   37.5050   28.5720   51.3220 H   0  0  0  0  0  0  0  0  0  0  0  0
   38.3230   30.8930   51.4960 H   0  0  0  0  0  0  0  0  0  0  0  0
   37.4820   32.5790   49.8520 H   0  0  0  0  0  0  0  0  0  0  0  0
   31.4300   26.8620   45.7260 O   0  0  0  0  0  0  0  0  0  0  0  0
   29.9900   28.6640   43.8930 Cl  0  0  0  0  0  0  0  0  0  0  0  0
   29.3970   27.8730   45.3340 C   0  0  0  0  0  0  0  0  0  0  0  0
   30.1680   27.0370   46.1090 C   0  0  0  0  0  0  0  0  0  0  0  0
   29.5720   26.4430   47.2240 C   0  0  0  0  0  0  0  0  0  0  0  0
   28.2530   26.6910   47.5320 C   0  0  0  0  0  0  0  0  0  0  0  0
   27.4680   27.5310   46.7590 C   0  0  0  0  0  0  0  0  0  0  0  0
   28.0550   28.1200   45.6550 C   0  0  0  0  0  0  0  0  0  0  0  0
   30.0850   25.7720   47.8900 H   0  0  0  0  0  0  0  0  0  0  0  0
   27.7390   26.2620   48.3780 H   0  0  0  0  0  0  0  0  0  0  0  0
   26.4430   27.7300   46.9900 H   0  0  0  0  0  0  0  0  0  0  0  0
   28.0120   30.9420   45.8180 F   0  0  0  0  0  0  0  0  0  0  0  0
   27.2000   30.3840   44.8900 C   0  0  0  0  0  0  0  0  0  0  0  0
   27.2410   29.0060   44.8330 C   0  0  0  0  0  0  0  0  0  0  0  0
   26.4440   28.3430   43.9160 C   0  0  0  0  0  0  0  0  0  0  0  0
   26.4120   27.2680   43.8030 H   0  0  0  0  0  0  0  0  0  0  0  0
   25.5980   29.0270   43.0440 C   0  0  0  0  0  0  0  0  0  0  0  0
   24.9640   28.5240   42.3150 H   0  0  0  0  0  0  0  0  0  0  0  0
   25.5850   30.4060   43.1320 C   0  0  0  0  0  3  0  0  0  0  0  0
   26.3750   31.0970   44.0420 C   0  0  0  0  0  3  0  0  0  0  0  0
  1  6  1  1  0  0  0
  1  2  1  0  0  0  0
  2  7  1  1  0  0  0
  3  2  1  0  0  0  0
  4  8  1  0  0  0  0
  4  3  1  0  0  0  0
  5 10  1  6  0  0  0
  5  4  1  0  0  0  0
  5  1  1  0  0  0  0
  9  4  1  0  0  0  0
 11  1  1  0  0  0  0
 12 11  1  0  0  0  0
 13  2  1  0  0  0  0
 13 18  1  0  0  0  0
 14 15  1  0  0  0  0
 14 20  1  0  0  0  0
 15 21  1  0  0  0  0
 16 22  1  0  0  0  0
 16 15  2  0  0  0  0
 17 16  1  0  0  0  0
 18 17  2  0  0  0  0
 18 19  1  0  0  0  0
 19 14  2  0  0  0  0
 23 26  1  0  0  0  0
 23  5  1  0  0  0  0
 24 25  1  0  0  0  0
 25 30  2  0  0  0  0
 25 26  1  0  0  0  0
 26 27  2  0  0  0  0
 27 28  1  0  0  0  0
 27 31  1  0  0  0  0
 28 32  1  0  0  0  0
 29 33  1  0  0  0  0
 29 28  2  0  0  0  0
 30 29  1  0  0  0  0
 35 34  1  0  0  0  0
 36 35  1  0  0  0  0
 36 30  1  0  0  0  0
 37 36  2  0  0  0  0
 38 37  1  0  0  0  0
 39 41  2  0  0  0  0
 39 37  1  0  0  0  0
 40 39  1  0  0  0  0
 41 42  1  0  0  0  0
 42 35  2  0  0  0  0
M  END
>  <minimizedAffinity>
-5.35979414

>  <minimizedRMSD>
0.625969291

$$$$
