
 OpenBabel03272506473D

 42 45  0  0  1  0  0  0  0  0999 V2000
   32.1440   28.4410   47.4140 C   0  0  2  0  0  0  0  0  0  0  0  0
   33.3680   28.3530   48.2770 C   0  0  1  0  0  0  0  0  0  0  0  0
   33.8030   27.0630   48.2580 O   0  0  0  0  0  0  0  0  0  0  0  0
   33.1500   26.3720   47.2420 C   0  0  0  0  0  0  0  0  0  0  0  0
   32.5430   27.4020   46.3170 C   0  0  1  0  0  0  0  0  0  0  0  0
   31.2250   28.0940   47.8740 H   0  0  0  0  0  0  0  0  0  0  0  0
   33.1810   28.7570   49.2910 H   0  0  0  0  0  0  0  0  0  0  0  0
   32.4500   25.7030   47.7270 H   0  0  0  0  0  0  0  0  0  0  0  0
   33.9420   25.7860   46.6800 H   0  0  0  0  0  0  0  0  0  0  0  0
   33.2750   27.9000   45.6870 H   0  0  0  0  0  0  0  0  0  0  0  0
   32.0490   29.7180   46.8210 O   0  0  0  0  0  0  0  0  0  0  0  0
   32.6800   29.6910   46.0520 H   0  0  0  0  0  0  0  0  0  0  0  0
   34.6650   29.4060   47.5110 S   0  0  0  0  0  0  0  0  0  0  0  0
   37.1360   29.2890   50.6050 C   0  0  0  0  0  0  0  0  0  0  0  0
   37.6140   30.5940   50.7330 C   0  0  0  0  0  0  0  0  0  0  0  0
   37.1540   31.5540   49.8230 C   0  0  0  0  0  0  0  0  0  0  0  0
   36.2680   31.1660   48.8660 N   0  0  0  0  0  0  0  0  0  0  0  0
   35.8310   29.8890   48.7800 C   0  0  0  0  0  0  0  0  0  0  0  0
   36.2540   28.9370   49.6420 N   0  0  0  0  0  0  0  0  0  0  0  0
   37.5080   28.5710   51.3200 H   0  0  0  0  0  0  0  0  0  0  0  0
   38.3200   30.8930   51.4980 H   0  0  0  0  0  0  0  0  0  0  0  0
   37.4760   32.5800   49.8570 H   0  0  0  0  0  0  0  0  0  0  0  0
   31.4290   26.8640   45.7240 O   0  0  0  0  0  0  0  0  0  0  0  0
   29.9890   28.6670   43.8920 Cl  0  0  0  0  0  0  0  0  0  0  0  0
   29.3960   27.8760   45.3320 C   0  0  0  0  0  0  0  0  0  0  0  0
   30.1670   27.0390   46.1070 C   0  0  0  0  0  0  0  0  0  0  0  0
   29.5720   26.4440   47.2220 C   0  0  0  0  0  0  0  0  0  0  0  0
   28.2530   26.6920   47.5300 C   0  0  0  0  0  0  0  0  0  0  0  0
   27.4680   27.5320   46.7580 C   0  0  0  0  0  0  0  0  0  0  0  0
   28.0540   28.1220   45.6540 C   0  0  0  0  0  0  0  0  0  0  0  0
   30.0860   25.7730   47.8870 H   0  0  0  0  0  0  0  0  0  0  0  0
   27.7390   26.2630   48.3760 H   0  0  0  0  0  0  0  0  0  0  0  0
   26.4420   27.7300   46.9890 H   0  0  0  0  0  0  0  0  0  0  0  0
   28.0100   30.9450   45.8180 F   0  0  0  0  0  0  0  0  0  0  0  0
   27.1970   30.3860   44.8900 C   0  0  0  0  0  0  0  0  0  0  0  0
   27.2400   29.0080   44.8330 C   0  0  0  0  0  0  0  0  0  0  0  0
   26.4440   28.3450   43.9150 C   0  0  0  0  0  0  0  0  0  0  0  0
   26.4130   27.2710   43.8010 H   0  0  0  0  0  0  0  0  0  0  0  0
   25.5970   29.0290   43.0430 C   0  0  0  0  0  0  0  0  0  0  0  0
   24.9630   28.5270   42.3140 H   0  0  0  0  0  0  0  0  0  0  0  0
   25.5840   30.4090   43.1320 C   0  0  0  0  0  3  0  0  0  0  0  0
   26.3720   31.1000   44.0420 C   0  0  0  0  0  3  0  0  0  0  0  0
  1  6  1  1  0  0  0
  1  2  1  0  0  0  0
  2  7  1  1  0  0  0
  3  2  1  0  0  0  0
  4  8  1  0  0  0  0
  4  3  1  0  0  0  0
  5 10  1  6  0  0  0
  5  4  1  0  0  0  0
  5  1  1  0  0  0  0
  9  4  1  0  0  0  0
 11  1  1  0  0  0  0
 12 11  1  0  0  0  0
 13  2  1  0  0  0  0
 13 18  1  0  0  0  0
 14 15  1  0  0  0  0
 14 20  1  0  0  0  0
 15 21  1  0  0  0  0
 16 22  1  0  0  0  0
 16 15  2  0  0  0  0
 17 16  1  0  0  0  0
 18 17  2  0  0  0  0
 18 19  1  0  0  0  0
 19 14  2  0  0  0  0
 23 26  1  0  0  0  0
 23  5  1  0  0  0  0
 24 25  1  0  0  0  0
 25 30  2  0  0  0  0
 25 26  1  0  0  0  0
 26 27  2  0  0  0  0
 27 28  1  0  0  0  0
 27 31  1  0  0  0  0
 28 32  1  0  0  0  0
 29 33  1  0  0  0  0
 29 28  2  0  0  0  0
 30 29  1  0  0  0  0
 35 34  1  0  0  0  0
 36 35  1  0  0  0  0
 36 30  1  0  0  0  0
 37 36  2  0  0  0  0
 38 37  1  0  0  0  0
 39 41  2  0  0  0  0
 39 37  1  0  0  0  0
 40 39  1  0  0  0  0
 41 42  1  0  0  0  0
 42 35  2  0  0  0  0
M  END
>  <minimizedAffinity>
-5.35918379

>  <minimizedRMSD>
0.469796479

$$$$
