
 OpenBabel03272506473D

 42 45  0  0  1  0  0  0  0  0999 V2000
   31.9920   28.3650   47.4940 C   0  0  2  0  0  0  0  0  0  0  0  0
   33.2510   28.1580   48.2820 C   0  0  1  0  0  0  0  0  0  0  0  0
   33.6020   26.8470   48.1760 O   0  0  0  0  0  0  0  0  0  0  0  0
   32.8530   26.2500   47.1660 C   0  0  0  0  0  0  0  0  0  0  0  0
   32.2660   27.3620   46.3270 C   0  0  1  0  0  0  0  0  0  0  0  0
   31.0770   28.0510   47.9860 H   0  0  0  0  0  0  0  0  0  0  0  0
   33.1440   28.5200   49.3230 H   0  0  0  0  0  0  0  0  0  0  0  0
   32.1400   25.6000   47.6570 H   0  0  0  0  0  0  0  0  0  0  0  0
   33.5770   25.6470   46.5330 H   0  0  0  0  0  0  0  0  0  0  0  0
   32.9940   27.8460   45.6820 H   0  0  0  0  0  0  0  0  0  0  0  0
   31.9460   29.6740   46.9690 O   0  0  0  0  0  0  0  0  0  0  0  0
   32.5340   29.6490   46.1660 H   0  0  0  0  0  0  0  0  0  0  0  0
   34.5700   29.1690   47.4970 S   0  0  0  0  0  0  0  0  0  0  0  0
   36.9890   29.2470   50.6330 C   0  0  0  0  0  0  0  0  0  0  0  0
   37.3980   30.5770   50.7390 C   0  0  0  0  0  0  0  0  0  0  0  0
   36.9060   31.4920   49.7990 C   0  0  0  0  0  0  0  0  0  0  0  0
   36.0570   31.0380   48.8380 N   0  0  0  0  0  0  0  0  0  0  0  0
   35.6880   29.7380   48.7740 C   0  0  0  0  0  0  0  0  0  0  0  0
   36.1440   28.8290   49.6640 N   0  0  0  0  0  0  0  0  0  0  0  0
   37.3840   28.5650   51.3700 H   0  0  0  0  0  0  0  0  0  0  0  0
   38.0740   30.9290   51.5080 H   0  0  0  0  0  0  0  0  0  0  0  0
   37.1750   32.5340   49.8150 H   0  0  0  0  0  0  0  0  0  0  0  0
   31.0900   26.9240   45.7710 O   0  0  0  0  0  0  0  0  0  0  0  0
   29.9310   29.1870   44.2820 Cl  0  0  0  0  0  0  0  0  0  0  0  0
   29.2220   28.2580   45.5810 C   0  0  0  0  0  0  0  0  0  0  0  0
   29.8620   27.2070   46.1950 C   0  0  0  0  0  0  0  0  0  0  0  0
   29.1790   26.5240   47.2060 C   0  0  0  0  0  0  0  0  0  0  0  0
   27.9050   26.8980   47.5700 C   0  0  0  0  0  0  0  0  0  0  0  0
   27.2510   27.9540   46.9570 C   0  0  0  0  0  0  0  0  0  0  0  0
   27.9240   28.6310   45.9580 C   0  0  0  0  0  0  0  0  0  0  0  0
   29.5890   25.6870   47.7440 H   0  0  0  0  0  0  0  0  0  0  0  0
   27.3290   26.4100   48.3400 H   0  0  0  0  0  0  0  0  0  0  0  0
   26.2610   28.2520   47.2330 H   0  0  0  0  0  0  0  0  0  0  0  0
   26.6280   28.5310   43.4460 F   0  0  0  0  0  0  0  0  0  0  0  0
   26.6090   29.7260   44.0820 C   0  0  0  0  0  0  0  0  0  0  0  0
   27.2480   29.7450   45.3050 C   0  0  0  0  0  0  0  0  0  0  0  0
   27.2820   30.9230   46.0310 C   0  0  0  0  0  0  0  0  0  0  0  0
   27.7600   31.0290   46.9950 H   0  0  0  0  0  0  0  0  0  0  0  0
   26.6880   32.0950   45.5640 C   0  0  0  0  0  0  0  0  0  0  0  0
   26.7040   33.0310   46.1190 H   0  0  0  0  0  0  0  0  0  0  0  0
   26.0580   32.0330   44.3360 C   0  0  0  0  0  3  0  0  0  0  0  0
   26.0090   30.8660   43.5860 C   0  0  0  0  0  3  0  0  0  0  0  0
  1  6  1  1  0  0  0
  1  2  1  0  0  0  0
  2  7  1  1  0  0  0
  3  2  1  0  0  0  0
  4  8  1  0  0  0  0
  4  3  1  0  0  0  0
  5 10  1  6  0  0  0
  5  4  1  0  0  0  0
  5  1  1  0  0  0  0
  9  4  1  0  0  0  0
 11  1  1  0  0  0  0
 12 11  1  0  0  0  0
 13  2  1  0  0  0  0
 13 18  1  0  0  0  0
 14 15  1  0  0  0  0
 14 20  1  0  0  0  0
 15 21  1  0  0  0  0
 16 22  1  0  0  0  0
 16 15  2  0  0  0  0
 17 16  1  0  0  0  0
 18 17  2  0  0  0  0
 18 19  1  0  0  0  0
 19 14  2  0  0  0  0
 23 26  1  0  0  0  0
 23  5  1  0  0  0  0
 24 25  1  0  0  0  0
 25 30  2  0  0  0  0
 25 26  1  0  0  0  0
 26 27  2  0  0  0  0
 27 28  1  0  0  0  0
 27 31  1  0  0  0  0
 28 32  1  0  0  0  0
 29 33  1  0  0  0  0
 29 28  2  0  0  0  0
 30 29  1  0  0  0  0
 34 35  1  0  0  0  0
 35 36  1  0  0  0  0
 36 30  1  0  0  0  0
 36 37  2  0  0  0  0
 37 38  1  0  0  0  0
 39 37  1  0  0  0  0
 39 40  1  0  0  0  0
 41 39  2  0  0  0  0
 42 35  2  0  0  0  0
 42 41  1  0  0  0  0
M  END
>  <minimizedAffinity>
-5.52173615

>  <minimizedRMSD>
0.80280745

$$$$
