
 OpenBabel03272506473D

 42 45  0  0  1  0  0  0  0  0999 V2000
   32.0970   28.4510   47.3400 C   0  0  2  0  0  0  0  0  0  0  0  0
   33.2930   28.3340   48.2370 C   0  0  1  0  0  0  0  0  0  0  0  0
   33.7130   27.0390   48.2090 O   0  0  0  0  0  0  0  0  0  0  0  0
   33.0820   26.3730   47.1630 C   0  0  0  0  0  0  0  0  0  0  0  0
   32.5150   27.4250   46.2390 C   0  0  1  0  0  0  0  0  0  0  0  0
   31.1600   28.1080   47.7670 H   0  0  0  0  0  0  0  0  0  0  0  0
   33.0820   28.7240   49.2510 H   0  0  0  0  0  0  0  0  0  0  0  0
   32.3610   25.7040   47.6170 H   0  0  0  0  0  0  0  0  0  0  0  0
   33.8830   25.7860   46.6150 H   0  0  0  0  0  0  0  0  0  0  0  0
   33.2700   27.9240   45.6380 H   0  0  0  0  0  0  0  0  0  0  0  0
   32.0330   29.7380   46.7650 O   0  0  0  0  0  0  0  0  0  0  0  0
   32.6870   29.7160   46.0150 H   0  0  0  0  0  0  0  0  0  0  0  0
   34.6240   29.3830   47.5260 S   0  0  0  0  0  0  0  0  0  0  0  0
   37.0460   29.1990   50.6560 C   0  0  0  0  0  0  0  0  0  0  0  0
   37.4740   30.5110   50.8570 C   0  0  0  0  0  0  0  0  0  0  0  0
   36.9950   31.4990   49.9870 C   0  0  0  0  0  0  0  0  0  0  0  0
   36.1390   31.1280   48.9960 N   0  0  0  0  0  0  0  0  0  0  0  0
   35.7510   29.8420   48.8390 C   0  0  0  0  0  0  0  0  0  0  0  0
   36.1930   28.8640   49.6600 N   0  0  0  0  0  0  0  0  0  0  0  0
   37.4310   28.4590   51.3410 H   0  0  0  0  0  0  0  0  0  0  0  0
   38.1560   30.7970   51.6490 H   0  0  0  0  0  0  0  0  0  0  0  0
   37.2790   32.5330   50.0770 H   0  0  0  0  0  0  0  0  0  0  0  0
   31.4120   26.9100   45.6040 O   0  0  0  0  0  0  0  0  0  0  0  0
   30.0660   28.9670   43.9790 Cl  0  0  0  0  0  0  0  0  0  0  0  0
   29.4140   28.0140   45.2900 C   0  0  0  0  0  0  0  0  0  0  0  0
   30.1440   27.0670   45.9720 C   0  0  0  0  0  0  0  0  0  0  0  0
   29.5020   26.3510   46.9860 C   0  0  0  0  0  0  0  0  0  0  0  0
   28.1810   26.5910   47.2880 C   0  0  0  0  0  0  0  0  0  0  0  0
   27.4370   27.5410   46.6090 C   0  0  0  0  0  0  0  0  0  0  0  0
   28.0680   28.2510   45.6050 C   0  0  0  0  0  0  0  0  0  0  0  0
   29.9820   25.5880   47.5740 H   0  0  0  0  0  0  0  0  0  0  0  0
   27.6330   26.0710   48.0590 H   0  0  0  0  0  0  0  0  0  0  0  0
   26.4100   27.7350   46.8350 H   0  0  0  0  0  0  0  0  0  0  0  0
   27.8390   30.9790   46.3130 F   0  0  0  0  0  0  0  0  0  0  0  0
   27.1690   30.5900   45.2030 C   0  0  0  0  0  0  0  0  0  0  0  0
   27.2990   29.2550   44.8820 C   0  0  0  0  0  0  0  0  0  0  0  0
   26.6480   28.7630   43.7630 C   0  0  0  0  0  0  0  0  0  0  0  0
   26.6950   27.7320   43.4380 H   0  0  0  0  0  0  0  0  0  0  0  0
   25.8650   29.5760   42.9480 C   0  0  0  0  0  0  0  0  0  0  0  0
   25.3450   29.2100   42.0640 H   0  0  0  0  0  0  0  0  0  0  0  0
   25.7590   30.9080   43.3020 C   0  0  0  0  0  3  0  0  0  0  0  0
   26.3990   31.4300   44.4200 C   0  0  0  0  0  3  0  0  0  0  0  0
  1  6  1  1  0  0  0
  1  2  1  0  0  0  0
  2  7  1  1  0  0  0
  3  2  1  0  0  0  0
  4  8  1  0  0  0  0
  4  3  1  0  0  0  0
  5 10  1  6  0  0  0
  5  4  1  0  0  0  0
  5  1  1  0  0  0  0
  9  4  1  0  0  0  0
 11  1  1  0  0  0  0
 12 11  1  0  0  0  0
 13  2  1  0  0  0  0
 13 18  1  0  0  0  0
 14 15  1  0  0  0  0
 14 20  1  0  0  0  0
 15 21  1  0  0  0  0
 16 22  1  0  0  0  0
 16 15  2  0  0  0  0
 17 16  1  0  0  0  0
 18 17  2  0  0  0  0
 18 19  1  0  0  0  0
 19 14  2  0  0  0  0
 23 26  1  0  0  0  0
 23  5  1  0  0  0  0
 24 25  1  0  0  0  0
 25 30  2  0  0  0  0
 25 26  1  0  0  0  0
 26 27  2  0  0  0  0
 27 28  1  0  0  0  0
 27 31  1  0  0  0  0
 28 32  1  0  0  0  0
 29 33  1  0  0  0  0
 29 28  2  0  0  0  0
 30 29  1  0  0  0  0
 35 34  1  0  0  0  0
 36 35  1  0  0  0  0
 36 30  1  0  0  0  0
 37 36  2  0  0  0  0
 38 37  1  0  0  0  0
 39 41  2  0  0  0  0
 39 37  1  0  0  0  0
 40 39  1  0  0  0  0
 41 42  1  0  0  0  0
 42 35  2  0  0  0  0
M  END
>  <minimizedAffinity>
-5.31585932

>  <minimizedRMSD>
0.367978543

$$$$
