
 OpenBabel03272500563D

 35 37  0  0  0  0  0  0  0  0999 V2000
   38.2950   32.0270   47.4190 C   0  0  0  0  0  0  0  0  0  0  0  0
   38.8990   32.9370   48.2420 C   0  0  0  0  0  0  0  0  0  0  0  0
   38.5240   33.1020   49.5790 C   0  0  0  0  0  0  0  0  0  0  0  0
   37.4540   32.2590   50.0710 C   0  0  0  0  0  0  0  0  0  0  0  0
   36.8950   31.3760   49.2090 C   0  0  0  0  0  0  0  0  0  0  0  0
   37.2640   31.2270   47.9240 C   0  0  0  0  0  0  0  0  0  0  0  0
   39.7140   33.5860   47.8890 H   0  0  0  0  0  0  0  0  0  0  0  0
   39.0430   33.8420   50.1750 H   0  0  0  0  0  0  0  0  0  0  0  0
   37.2760   32.4930   51.1010 H   0  0  0  0  0  0  0  0  0  0  0  0
   36.1570   30.8500   49.7930 H   0  0  0  0  0  0  0  0  0  0  0  0
   40.0260   31.2550   45.8680 C   0  0  0  0  0  0  0  0  0  0  0  0
   38.8080   31.9600   46.0700 C   0  0  0  0  0  0  0  0  0  0  0  0
   38.2610   32.4970   44.9300 C   0  0  0  0  0  0  0  0  0  0  0  0
   38.8680   32.3410   43.7380 N   0  0  0  0  0  0  0  0  0  0  0  0
   39.9930   31.6860   43.5720 C   0  0  0  0  0  0  0  0  0  0  0  0
   40.5630   31.1480   44.6380 N   0  0  0  0  0  0  0  0  0  0  0  0
   40.5030   30.8130   46.7180 H   0  0  0  0  0  0  0  0  0  0  0  0
   37.3340   33.0360   45.0750 H   0  0  0  0  0  0  0  0  0  0  0  0
   40.5190   31.5320   42.6380 H   0  0  0  0  0  0  0  0  0  0  0  0
   35.2550   30.0940   47.4680 C   0  0  0  0  0  0  0  0  0  0  0  0
   34.7920   30.6850   48.5240 O   0  0  0  0  0  0  0  0  0  0  0  0
   36.6350   30.3280   47.0970 N   0  0  0  0  0  0  0  0  0  0  0  0
   37.0810   29.8660   46.3030 H   0  0  0  0  0  0  0  0  0  0  0  0
   34.4270   29.2700   46.7450 O   0  0  0  0  0  0  0  0  0  0  0  0
   33.0600   29.4710   46.5890 C   0  0  0  0  0  0  0  0  0  0  0  0
   32.5790   30.6030   46.1230 O   0  0  0  0  0  0  0  0  0  0  0  0
   32.8570   28.2330   49.1120 F   0  0  0  0  0  0  0  0  0  0  0  0
   31.9750   27.8400   48.1530 C   0  0  0  0  0  0  0  0  0  0  0  0
   32.0550   28.4310   46.9120 C   0  0  0  0  0  0  0  0  0  0  0  0
   31.1500   28.0060   45.9820 C   0  0  0  0  0  0  0  0  0  0  0  0
   31.1790   28.4440   44.9960 H   0  0  0  0  0  0  0  0  0  0  0  0
   30.2220   27.0360   46.3030 C   0  0  0  0  0  0  0  0  0  0  0  0
   29.5380   26.7610   45.4910 H   0  0  0  0  0  0  0  0  0  0  0  0
   30.1680   26.4630   47.5570 C   0  0  0  0  0  3  0  0  0  0  0  0
   31.0640   26.8780   48.4900 C   0  0  0  0  0  3  0  0  0  0  0  0
  1  6  2  0  0  0  0
  1  2  1  0  0  0  0
  2  3  2  0  0  0  0
  3  4  1  0  0  0  0
  3  8  1  0  0  0  0
  4  9  1  0  0  0  0
  5 10  1  0  0  0  0
  5  4  2  0  0  0  0
  6  5  1  0  0  0  0
  7  2  1  0  0  0  0
 11 12  1  0  0  0  0
 11 17  1  0  0  0  0
 12  1  1  0  0  0  0
 13 18  1  0  0  0  0
 13 12  2  0  0  0  0
 14 13  1  0  0  0  0
 15 14  2  0  0  0  0
 15 16  1  0  0  0  0
 16 11  2  0  0  0  0
 19 15  1  0  0  0  0
 20 21  2  0  0  0  0
 22 20  1  0  0  0  0
 22  6  1  0  0  0  0
 23 22  1  0  0  0  0
 24 20  1  0  0  0  0
 25 24  1  0  0  0  0
 25 29  1  0  0  0  0
 26 25  2  0  0  0  0
 28 35  1  0  0  0  0
 28 27  1  0  0  0  0
 29 28  2  0  0  0  0
 30 32  2  0  0  0  0
 30 29  1  0  0  0  0
 31 30  1  0  0  0  0
 32 34  1  0  0  0  0
 33 32  1  0  0  0  0
 34 35  2  0  0  0  0
M  END
>  <minimizedAffinity>
-6.16029596

>  <minimizedRMSD>
1.27498937

$$$$
