
 OpenBabel03272500563D

 35 37  0  0  0  0  0  0  0  0999 V2000
   38.2950   32.0260   47.4200 C   0  0  0  0  0  0  0  0  0  0  0  0
   38.8990   32.9370   48.2420 C   0  0  0  0  0  0  0  0  0  0  0  0
   38.5240   33.1020   49.5790 C   0  0  0  0  0  0  0  0  0  0  0  0
   37.4540   32.2590   50.0720 C   0  0  0  0  0  0  0  0  0  0  0  0
   36.8960   31.3750   49.2110 C   0  0  0  0  0  0  0  0  0  0  0  0
   37.2640   31.2260   47.9250 C   0  0  0  0  0  0  0  0  0  0  0  0
   39.7130   33.5870   47.8890 H   0  0  0  0  0  0  0  0  0  0  0  0
   39.0420   33.8430   50.1760 H   0  0  0  0  0  0  0  0  0  0  0  0
   37.2770   32.4930   51.1020 H   0  0  0  0  0  0  0  0  0  0  0  0
   36.1580   30.8490   49.7950 H   0  0  0  0  0  0  0  0  0  0  0  0
   40.0250   31.2520   45.8690 C   0  0  0  0  0  0  0  0  0  0  0  0
   38.8080   31.9590   46.0710 C   0  0  0  0  0  0  0  0  0  0  0  0
   38.2620   32.4970   44.9310 C   0  0  0  0  0  0  0  0  0  0  0  0
   38.8680   32.3410   43.7390 N   0  0  0  0  0  0  0  0  0  0  0  0
   39.9920   31.6840   43.5720 C   0  0  0  0  0  0  0  0  0  0  0  0
   40.5610   31.1450   44.6380 N   0  0  0  0  0  0  0  0  0  0  0  0
   40.5010   30.8100   46.7180 H   0  0  0  0  0  0  0  0  0  0  0  0
   37.3340   33.0370   45.0760 H   0  0  0  0  0  0  0  0  0  0  0  0
   40.5180   31.5300   42.6390 H   0  0  0  0  0  0  0  0  0  0  0  0
   35.2550   30.0940   47.4680 C   0  0  0  0  0  0  0  0  0  0  0  0
   34.7910   30.6880   48.5220 O   0  0  0  0  0  0  0  0  0  0  0  0
   36.6360   30.3260   47.0990 N   0  0  0  0  0  0  0  0  0  0  0  0
   37.0830   29.8630   46.3070 H   0  0  0  0  0  0  0  0  0  0  0  0
   34.4280   29.2690   46.7460 O   0  0  0  0  0  0  0  0  0  0  0  0
   33.0610   29.4710   46.5890 C   0  0  0  0  0  0  0  0  0  0  0  0
   32.5800   30.6030   46.1220 O   0  0  0  0  0  0  0  0  0  0  0  0
   32.8580   28.2320   49.1120 F   0  0  0  0  0  0  0  0  0  0  0  0
   31.9750   27.8390   48.1530 C   0  0  0  0  0  0  0  0  0  0  0  0
   32.0550   28.4310   46.9120 C   0  0  0  0  0  0  0  0  0  0  0  0
   31.1500   28.0050   45.9810 C   0  0  0  0  0  0  0  0  0  0  0  0
   31.1790   28.4430   44.9970 H   0  0  0  0  0  0  0  0  0  0  0  0
   30.2230   27.0350   46.3030 C   0  0  0  0  0  0  0  0  0  0  0  0
   29.5390   26.7590   45.4900 H   0  0  0  0  0  0  0  0  0  0  0  0
   30.1690   26.4620   47.5570 C   0  0  0  0  0  3  0  0  0  0  0  0
   31.0650   26.8780   48.4910 C   0  0  0  0  0  3  0  0  0  0  0  0
  1  6  2  0  0  0  0
  1  2  1  0  0  0  0
  2  3  2  0  0  0  0
  3  4  1  0  0  0  0
  3  8  1  0  0  0  0
  4  9  1  0  0  0  0
  5 10  1  0  0  0  0
  5  4  2  0  0  0  0
  6  5  1  0  0  0  0
  7  2  1  0  0  0  0
 11 12  1  0  0  0  0
 11 17  1  0  0  0  0
 12  1  1  0  0  0  0
 13 18  1  0  0  0  0
 13 12  2  0  0  0  0
 14 13  1  0  0  0  0
 15 14  2  0  0  0  0
 15 16  1  0  0  0  0
 16 11  2  0  0  0  0
 19 15  1  0  0  0  0
 20 21  2  0  0  0  0
 22 20  1  0  0  0  0
 22  6  1  0  0  0  0
 23 22  1  0  0  0  0
 24 20  1  0  0  0  0
 25 24  1  0  0  0  0
 25 29  1  0  0  0  0
 26 25  2  0  0  0  0
 28 35  1  0  0  0  0
 28 27  1  0  0  0  0
 29 28  2  0  0  0  0
 30 32  2  0  0  0  0
 30 29  1  0  0  0  0
 31 30  1  0  0  0  0
 32 34  1  0  0  0  0
 33 32  1  0  0  0  0
 34 35  2  0  0  0  0
M  END
>  <minimizedAffinity>
-6.15765524

>  <minimizedRMSD>
1.31291556

$$$$
