
 OpenBabel03272500593D

 35 37  0  0  0  0  0  0  0  0999 V2000
   39.8940   25.2380   34.8070 C   0  0  0  0  0  0  0  0  0  0  0  0
   41.2200   25.0250   35.0650 C   0  0  0  0  0  0  0  0  0  0  0  0
   42.2190   25.8930   34.6150 C   0  0  0  0  0  0  0  0  0  0  0  0
   41.7930   27.0480   33.8520 C   0  0  0  0  0  0  0  0  0  0  0  0
   40.4670   27.2060   33.6290 C   0  0  0  0  0  0  0  0  0  0  0  0
   39.5140   26.3630   34.0670 C   0  0  0  0  0  0  0  0  0  0  0  0
   41.5660   24.1550   35.6430 H   0  0  0  0  0  0  0  0  0  0  0  0
   43.2510   25.6650   34.8540 H   0  0  0  0  0  0  0  0  0  0  0  0
   42.6570   27.6180   33.5770 H   0  0  0  0  0  0  0  0  0  0  0  0
   40.3880   28.1290   33.0780 H   0  0  0  0  0  0  0  0  0  0  0  0
   38.7120   23.1060   34.5750 C   0  0  0  0  0  0  0  0  0  0  0  0
   38.9810   24.2630   35.3570 C   0  0  0  0  0  0  0  0  0  0  0  0
   38.3260   24.3040   36.5640 C   0  0  0  0  0  0  0  0  0  0  0  0
   37.5050   23.3040   36.9340 N   0  0  0  0  0  0  0  0  0  0  0  0
   37.2680   22.2420   36.1980 C   0  0  0  0  0  0  0  0  0  0  0  0
   37.8740   22.1520   35.0250 N   0  0  0  0  0  0  0  0  0  0  0  0
   39.1910   23.0140   33.6240 H   0  0  0  0  0  0  0  0  0  0  0  0
   38.5260   25.1820   37.1660 H   0  0  0  0  0  0  0  0  0  0  0  0
   36.6190   21.4140   36.4490 H   0  0  0  0  0  0  0  0  0  0  0  0
   37.5450   27.4720   34.7160 C   0  0  0  0  0  0  0  0  0  0  0  0
   38.2400   27.9250   35.7110 O   0  0  0  0  0  0  0  0  0  0  0  0
   38.1860   26.5710   33.7810 N   0  0  0  0  0  0  0  0  0  0  0  0
   37.6920   26.1420   32.9970 H   0  0  0  0  0  0  0  0  0  0  0  0
   36.2330   27.8570   34.5860 O   0  0  0  0  0  0  0  0  0  0  0  0
   35.8210   29.0850   34.0810 C   0  0  0  0  0  0  0  0  0  0  0  0
   35.9290   29.3750   32.8020 O   0  0  0  0  0  0  0  0  0  0  0  0
   33.0450   29.3750   34.4690 F   0  0  0  0  0  0  0  0  0  0  0  0
   33.8580   30.2620   35.1040 C   0  0  0  0  0  0  0  0  0  0  0  0
   35.2190   30.1400   34.9300 C   0  0  0  0  0  0  0  0  0  0  0  0
   35.9950   31.0520   35.5860 C   0  0  0  0  0  0  0  0  0  0  0  0
   37.0660   30.9910   35.4760 H   0  0  0  0  0  0  0  0  0  0  0  0
   35.4140   32.0270   36.3710 C   0  0  0  0  0  0  0  0  0  0  0  0
   36.1190   32.7130   36.8580 H   0  0  0  0  0  0  0  0  0  0  0  0
   34.0460   32.1220   36.5260 C   0  0  0  0  0  3  0  0  0  0  0  0
   33.2630   31.2200   35.8760 C   0  0  0  0  0  3  0  0  0  0  0  0
  1  2  1  0  0  0  0
  1 12  1  0  0  0  0
  2  7  1  0  0  0  0
  3  8  1  0  0  0  0
  3  2  2  0  0  0  0
  4  3  1  0  0  0  0
  5  4  2  0  0  0  0
  5  6  1  0  0  0  0
  6  1  2  0  0  0  0
  9  4  1  0  0  0  0
 10  5  1  0  0  0  0
 11 16  2  0  0  0  0
 11 12  1  0  0  0  0
 12 13  2  0  0  0  0
 13 14  1  0  0  0  0
 13 18  1  0  0  0  0
 15 19  1  0  0  0  0
 15 14  2  0  0  0  0
 16 15  1  0  0  0  0
 17 11  1  0  0  0  0
 20 21  2  0  0  0  0
 22  6  1  0  0  0  0
 22 20  1  0  0  0  0
 23 22  1  0  0  0  0
 24 20  1  0  0  0  0
 25 24  1  0  0  0  0
 25 29  1  0  0  0  0
 26 25  2  0  0  0  0
 27 28  1  0  0  0  0
 28 35  1  0  0  0  0
 29 28  2  0  0  0  0
 29 30  1  0  0  0  0
 30 32  2  0  0  0  0
 31 30  1  0  0  0  0
 32 34  1  0  0  0  0
 32 33  1  0  0  0  0
 35 34  2  0  0  0  0
M  END
>  <minimizedAffinity>
-5.77688789

$$$$

 OpenBabel03272500593D

 35 37  0  0  0  0  0  0  0  0999 V2000
   37.2220   22.0420   33.2700 C   0  0  0  0  0  0  0  0  0  0  0  0
   36.3600   21.1250   33.8060 C   0  0  0  0  0  0  0  0  0  0  0  0
   35.3010   20.5780   33.0750 C   0  0  0  0  0  0  0  0  0  0  0  0
   35.1470   21.0230   31.7050 C   0  0  0  0  0  0  0  0  0  0  0  0
   36.0330   21.9320   31.2310 C   0  0  0  0  0  0  0  0  0  0  0  0
   37.0480   22.4530   31.9440 C   0  0  0  0  0  0  0  0  0  0  0  0
   36.4590   20.7730   34.8430 H   0  0  0  0  0  0  0  0  0  0  0  0
   34.6540   19.8570   33.5600 H   0  0  0  0  0  0  0  0  0  0  0  0
   34.3040   20.5240   31.2720 H   0  0  0  0  0  0  0  0  0  0  0  0
   35.7440   22.0880   30.2040 H   0  0  0  0  0  0  0  0  0  0  0  0
   39.5620   21.9100   33.9820 C   0  0  0  0  0  0  0  0  0  0  0  0
   38.2780   22.4990   34.1450 C   0  0  0  0  0  0  0  0  0  0  0  0
   38.2050   23.4500   35.1340 C   0  0  0  0  0  0  0  0  0  0  0  0
   39.2900   23.7670   35.8640 N   0  0  0  0  0  0  0  0  0  0  0  0
   40.4690   23.2120   35.6990 C   0  0  0  0  0  0  0  0  0  0  0  0
   40.5950   22.2890   34.7590 N   0  0  0  0  0  0  0  0  0  0  0  0
   39.6850   21.1620   33.2290 H   0  0  0  0  0  0  0  0  0  0  0  0
   37.2300   23.9030   35.2640 H   0  0  0  0  0  0  0  0  0  0  0  0
   41.3700   23.4310   36.2570 H   0  0  0  0  0  0  0  0  0  0  0  0
   37.3100   24.7160   31.3650 C   0  0  0  0  0  0  0  0  0  0  0  0
   36.0880   24.8640   31.7680 O   0  0  0  0  0  0  0  0  0  0  0  0
   37.8940   23.3920   31.4070 N   0  0  0  0  0  0  0  0  0  0  0  0
   38.8360   23.1910   31.0690 H   0  0  0  0  0  0  0  0  0  0  0  0
   38.0030   25.8130   30.9130 O   0  0  0  0  0  0  0  0  0  0  0  0
   38.0920   27.0210   31.5950 C   0  0  0  0  0  0  0  0  0  0  0  0
   37.9180   28.1720   30.9840 O   0  0  0  0  0  0  0  0  0  0  0  0
   36.1330   27.6630   33.5170 F   0  0  0  0  0  0  0  0  0  0  0  0
   37.3930   27.4180   33.9700 C   0  0  0  0  0  0  0  0  0  0  0  0
   38.3670   27.1020   33.0490 C   0  0  0  0  0  0  0  0  0  0  0  0
   39.6160   26.8640   33.5490 C   0  0  0  0  0  0  0  0  0  0  0  0
   40.4070   26.6140   32.8610 H   0  0  0  0  0  0  0  0  0  0  0  0
   39.8500   26.9460   34.9070 C   0  0  0  0  0  0  0  0  0  0  0  0
   40.8840   26.7380   35.2130 H   0  0  0  0  0  0  0  0  0  0  0  0
   38.8520   27.2640   35.8040 C   0  0  0  0  0  3  0  0  0  0  0  0
   37.6050   27.5030   35.3170 C   0  0  0  0  0  3  0  0  0  0  0  0
  1  2  1  0  0  0  0
  1 12  1  0  0  0  0
  2  7  1  0  0  0  0
  3  8  1  0  0  0  0
  3  2  2  0  0  0  0
  4  3  1  0  0  0  0
  5  4  2  0  0  0  0
  5  6  1  0  0  0  0
  6  1  2  0  0  0  0
  9  4  1  0  0  0  0
 10  5  1  0  0  0  0
 11 12  2  0  0  0  0
 11 16  1  0  0  0  0
 12 13  1  0  0  0  0
 13 18  1  0  0  0  0
 13 14  2  0  0  0  0
 15 14  1  0  0  0  0
 15 19  1  0  0  0  0
 16 15  2  0  0  0  0
 17 11  1  0  0  0  0
 20 22  1  0  0  0  0
 20 21  2  0  0  0  0
 22  6  1  0  0  0  0
 23 22  1  0  0  0  0
 24 20  1  0  0  0  0
 24 25  1  0  0  0  0
 25 29  1  0  0  0  0
 26 25  2  0  0  0  0
 27 28  1  0  0  0  0
 28 35  1  0  0  0  0
 29 30  1  0  0  0  0
 29 28  2  0  0  0  0
 30 32  2  0  0  0  0
 31 30  1  0  0  0  0
 32 33  1  0  0  0  0
 32 34  1  0  0  0  0
 35 34  2  0  0  0  0
M  END
>  <minimizedAffinity>
-5.76784325

$$$$

 OpenBabel03272500593D

 35 37  0  0  0  0  0  0  0  0999 V2000
   33.6810   30.5260   35.5210 C   0  0  0  0  0  0  0  0  0  0  0  0
   33.2600   31.5990   36.2570 C   0  0  0  0  0  0  0  0  0  0  0  0
   34.1380   32.5960   36.6930 C   0  0  0  0  0  0  0  0  0  0  0  0
   35.5330   32.4510   36.3320 C   0  0  0  0  0  0  0  0  0  0  0  0
   35.8880   31.3680   35.6010 C   0  0  0  0  0  0  0  0  0  0  0  0
   35.0350   30.4130   35.1870 C   0  0  0  0  0  0  0  0  0  0  0  0
   32.2060   31.7290   36.5420 H   0  0  0  0  0  0  0  0  0  0  0  0
   33.7390   33.4190   37.2740 H   0  0  0  0  0  0  0  0  0  0  0  0
   36.0810   33.2810   36.7290 H   0  0  0  0  0  0  0  0  0  0  0  0
   36.9460   31.4850   35.4310 H   0  0  0  0  0  0  0  0  0  0  0  0
   32.1130   28.7480   36.1380 C   0  0  0  0  0  0  0  0  0  0  0  0
   32.6520   29.5910   35.1270 C   0  0  0  0  0  0  0  0  0  0  0  0
   32.1090   29.4060   33.8780 C   0  0  0  0  0  0  0  0  0  0  0  0
   31.1470   28.4880   33.6770 N   0  0  0  0  0  0  0  0  0  0  0  0
   30.6610   27.7180   34.6230 C   0  0  0  0  0  0  0  0  0  0  0  0
   31.1480   27.8550   35.8450 N   0  0  0  0  0  0  0  0  0  0  0  0
   32.4930   28.8430   37.1330 H   0  0  0  0  0  0  0  0  0  0  0  0
   32.5140   30.0440   33.1020 H   0  0  0  0  0  0  0  0  0  0  0  0
   29.8890   26.9680   34.5130 H   0  0  0  0  0  0  0  0  0  0  0  0
   35.7900   29.6490   33.0960 C   0  0  0  0  0  0  0  0  0  0  0  0
   35.5910   30.8630   32.6870 O   0  0  0  0  0  0  0  0  0  0  0  0
   35.4700   29.3250   34.4700 N   0  0  0  0  0  0  0  0  0  0  0  0
   35.5600   28.3820   34.8520 H   0  0  0  0  0  0  0  0  0  0  0  0
   36.2910   28.7200   32.2160 O   0  0  0  0  0  0  0  0  0  0  0  0
   36.7620   27.4650   32.5840 C   0  0  0  0  0  0  0  0  0  0  0  0
   36.0790   26.3710   32.3280 O   0  0  0  0  0  0  0  0  0  0  0  0
   39.2280   27.3380   31.2260 F   0  0  0  0  0  0  0  0  0  0  0  0
   39.2560   27.2060   32.5800 C   0  0  0  0  0  0  0  0  0  0  0  0
   38.0630   27.2660   33.2660 C   0  0  0  0  0  0  0  0  0  0  0  0
   38.1390   27.1290   34.6230 C   0  0  0  0  0  0  0  0  0  0  0  0
   37.2270   27.1690   35.1960 H   0  0  0  0  0  0  0  0  0  0  0  0
   39.3610   26.9430   35.2370 C   0  0  0  0  0  0  0  0  0  0  0  0
   39.3200   26.8430   36.3300 H   0  0  0  0  0  0  0  0  0  0  0  0
   40.5390   26.8890   34.5220 C   0  0  0  0  0  3  0  0  0  0  0  0
   40.4750   27.0240   33.1700 C   0  0  0  0  0  3  0  0  0  0  0  0
  1  2  1  0  0  0  0
  2  7  1  0  0  0  0
  2  3  2  0  0  0  0
  3  8  1  0  0  0  0
  4  3  1  0  0  0  0
  4  9  1  0  0  0  0
  5  4  2  0  0  0  0
  6  1  2  0  0  0  0
  6  5  1  0  0  0  0
 10  5  1  0  0  0  0
 11 17  1  0  0  0  0
 12  1  1  0  0  0  0
 12 11  2  0  0  0  0
 13 12  1  0  0  0  0
 14 13  2  0  0  0  0
 14 15  1  0  0  0  0
 15 16  2  0  0  0  0
 16 11  1  0  0  0  0
 18 13  1  0  0  0  0
 19 15  1  0  0  0  0
 20 22  1  0  0  0  0
 21 20  2  0  0  0  0
 22 23  1  0  0  0  0
 22  6  1  0  0  0  0
 24 25  1  0  0  0  0
 24 20  1  0  0  0  0
 25 29  1  0  0  0  0
 26 25  2  0  0  0  0
 27 28  1  0  0  0  0
 28 35  2  0  0  0  0
 28 29  1  0  0  0  0
 29 30  2  0  0  0  0
 30 31  1  0  0  0  0
 30 32  1  0  0  0  0
 32 33  1  0  0  0  0
 34 32  2  0  0  0  0
 35 34  1  0  0  0  0
M  END
>  <minimizedAffinity>
-5.71140623

$$$$

 OpenBabel03272500593D

 35 37  0  0  0  0  0  0  0  0999 V2000
   36.4850   22.4460   32.2490 C   0  0  0  0  0  0  0  0  0  0  0  0
   35.6080   21.9420   31.3290 C   0  0  0  0  0  0  0  0  0  0  0  0
   34.9410   20.7270   31.5180 C   0  0  0  0  0  0  0  0  0  0  0  0
   35.2160   20.0090   32.7460 C   0  0  0  0  0  0  0  0  0  0  0  0
   36.0930   20.5600   33.6180 C   0  0  0  0  0  0  0  0  0  0  0  0
   36.7310   21.7290   33.4250 C   0  0  0  0  0  0  0  0  0  0  0  0
   35.3840   22.4710   30.3910 H   0  0  0  0  0  0  0  0  0  0  0  0
   34.2600   20.3840   30.7490 H   0  0  0  0  0  0  0  0  0  0  0  0
   34.6400   19.1070   32.7540 H   0  0  0  0  0  0  0  0  0  0  0  0
   36.1170   19.8770   34.4520 H   0  0  0  0  0  0  0  0  0  0  0  0
   37.9200   23.7740   30.7740 C   0  0  0  0  0  0  0  0  0  0  0  0
   37.0780   23.7220   31.9190 C   0  0  0  0  0  0  0  0  0  0  0  0
   36.9310   24.9190   32.5770 C   0  0  0  0  0  0  0  0  0  0  0  0
   37.5550   26.0260   32.1350 N   0  0  0  0  0  0  0  0  0  0  0  0
   38.3290   26.0550   31.0750 C   0  0  0  0  0  0  0  0  0  0  0  0
   38.5050   24.9290   30.4040 N   0  0  0  0  0  0  0  0  0  0  0  0
   38.0760   22.8740   30.2180 H   0  0  0  0  0  0  0  0  0  0  0  0
   36.2910   24.8870   33.4500 H   0  0  0  0  0  0  0  0  0  0  0  0
   38.8510   26.9170   30.6800 H   0  0  0  0  0  0  0  0  0  0  0  0
   38.9970   21.8480   34.0400 C   0  0  0  0  0  0  0  0  0  0  0  0
   39.2170   21.0860   33.0150 O   0  0  0  0  0  0  0  0  0  0  0  0
   37.6290   22.2160   34.3420 N   0  0  0  0  0  0  0  0  0  0  0  0
   37.3740   22.7790   35.1550 H   0  0  0  0  0  0  0  0  0  0  0  0
   40.0600   22.2720   34.7990 O   0  0  0  0  0  0  0  0  0  0  0  0
   39.9660   23.1950   35.8350 C   0  0  0  0  0  0  0  0  0  0  0  0
   40.2050   22.8570   37.0830 O   0  0  0  0  0  0  0  0  0  0  0  0
   37.6210   24.3940   36.8380 F   0  0  0  0  0  0  0  0  0  0  0  0
   38.4610   25.1810   36.1120 C   0  0  0  0  0  0  0  0  0  0  0  0
   39.6130   24.6170   35.6110 C   0  0  0  0  0  0  0  0  0  0  0  0
   40.4250   25.4450   34.8890 C   0  0  0  0  0  0  0  0  0  0  0  0
   41.3380   25.0410   34.4790 H   0  0  0  0  0  0  0  0  0  0  0  0
   40.0780   26.7660   34.6930 C   0  0  0  0  0  0  0  0  0  0  0  0
   40.7930   27.3510   34.0990 H   0  0  0  0  0  0  0  0  0  0  0  0
   38.9150   27.3010   35.2080 C   0  0  0  0  0  3  0  0  0  0  0  0
   38.0990   26.4860   35.9290 C   0  0  0  0  0  3  0  0  0  0  0  0
  1  6  1  0  0  0  0
  2  3  1  0  0  0  0
  2  1  2  0  0  0  0
  3  4  2  0  0  0  0
  4  9  1  0  0  0  0
  4  5  1  0  0  0  0
  5 10  1  0  0  0  0
  6  5  2  0  0  0  0
  6 22  1  0  0  0  0
  7  2  1  0  0  0  0
  8  3  1  0  0  0  0
 11 12  1  0  0  0  0
 12  1  1  0  0  0  0
 12 13  2  0  0  0  0
 13 18  1  0  0  0  0
 14 13  1  0  0  0  0
 15 14  2  0  0  0  0
 16 11  2  0  0  0  0
 16 15  1  0  0  0  0
 17 11  1  0  0  0  0
 19 15  1  0  0  0  0
 20 22  1  0  0  0  0
 20 24  1  0  0  0  0
 21 20  2  0  0  0  0
 22 23  1  0  0  0  0
 24 25  1  0  0  0  0
 25 26  2  0  0  0  0
 28 27  1  0  0  0  0
 29 25  1  0  0  0  0
 29 28  2  0  0  0  0
 30 29  1  0  0  0  0
 31 30  1  0  0  0  0
 32 30  2  0  0  0  0
 32 34  1  0  0  0  0
 33 32  1  0  0  0  0
 34 35  2  0  0  0  0
 35 28  1  0  0  0  0
M  END
>  <minimizedAffinity>
-5.69957066

$$$$

 OpenBabel03272500593D

 35 37  0  0  0  0  0  0  0  0999 V2000
   35.9530   29.2680   31.7070 C   0  0  0  0  0  0  0  0  0  0  0  0
   36.2060   30.3230   30.8740 C   0  0  0  0  0  0  0  0  0  0  0  0
   36.9590   30.1880   29.7030 C   0  0  0  0  0  0  0  0  0  0  0  0
   37.4700   28.8670   29.3980 C   0  0  0  0  0  0  0  0  0  0  0  0
   37.1860   27.8620   30.2600 C   0  0  0  0  0  0  0  0  0  0  0  0
   36.4610   28.0050   31.3850 C   0  0  0  0  0  0  0  0  0  0  0  0
   35.8270   31.3330   31.0860 H   0  0  0  0  0  0  0  0  0  0  0  0
   37.1230   31.0640   29.0880 H   0  0  0  0  0  0  0  0  0  0  0  0
   38.0210   28.9140   28.4810 H   0  0  0  0  0  0  0  0  0  0  0  0
   37.6360   26.9870   29.8220 H   0  0  0  0  0  0  0  0  0  0  0  0
   33.7430   29.3370   32.7600 C   0  0  0  0  0  0  0  0  0  0  0  0
   35.1430   29.5630   32.8660 C   0  0  0  0  0  0  0  0  0  0  0  0
   35.5550   30.0400   34.0870 C   0  0  0  0  0  0  0  0  0  0  0  0
   34.6670   30.2610   35.0740 N   0  0  0  0  0  0  0  0  0  0  0  0
   33.3770   30.0460   34.9560 C   0  0  0  0  0  0  0  0  0  0  0  0
   32.9260   29.5860   33.8010 N   0  0  0  0  0  0  0  0  0  0  0  0
   33.3590   28.9660   31.8340 H   0  0  0  0  0  0  0  0  0  0  0  0
   36.6200   30.2150   34.1770 H   0  0  0  0  0  0  0  0  0  0  0  0
   32.6230   30.2060   35.7170 H   0  0  0  0  0  0  0  0  0  0  0  0
   37.3250   26.7170   33.1530 C   0  0  0  0  0  0  0  0  0  0  0  0
   38.3790   27.4640   33.0560 O   0  0  0  0  0  0  0  0  0  0  0  0
   36.2330   26.9460   32.2300 N   0  0  0  0  0  0  0  0  0  0  0  0
   35.3880   26.3720   32.2180 H   0  0  0  0  0  0  0  0  0  0  0  0
   37.2820   25.7410   34.1180 O   0  0  0  0  0  0  0  0  0  0  0  0
   38.3530   24.9200   34.4510 C   0  0  0  0  0  0  0  0  0  0  0  0
   39.2690   24.5890   33.5680 O   0  0  0  0  0  0  0  0  0  0  0  0
   40.2340   22.9150   35.0700 F   0  0  0  0  0  0  0  0  0  0  0  0
   39.4790   23.3960   36.0940 C   0  0  0  0  0  0  0  0  0  0  0  0
   38.5530   24.3770   35.8160 C   0  0  0  0  0  0  0  0  0  0  0  0
   37.8170   24.8300   36.8750 C   0  0  0  0  0  0  0  0  0  0  0  0
   37.0810   25.5980   36.6990 H   0  0  0  0  0  0  0  0  0  0  0  0
   38.0190   24.3110   38.1370 C   0  0  0  0  0  0  0  0  0  0  0  0
   37.3810   24.7380   38.9220 H   0  0  0  0  0  0  0  0  0  0  0  0
   38.9560   23.3280   38.3840 C   0  0  0  0  0  3  0  0  0  0  0  0
   39.6930   22.8700   37.3370 C   0  0  0  0  0  3  0  0  0  0  0  0
  1 12  1  0  0  0  0
  2  7  1  0  0  0  0
  2  1  2  0  0  0  0
  3  2  1  0  0  0  0
  4  3  2  0  0  0  0
  4  5  1  0  0  0  0
  5  6  2  0  0  0  0
  6  1  1  0  0  0  0
  6 22  1  0  0  0  0
  8  3  1  0  0  0  0
  9  4  1  0  0  0  0
 10  5  1  0  0  0  0
 11 12  2  0  0  0  0
 11 16  1  0  0  0  0
 12 13  1  0  0  0  0
 13 18  1  0  0  0  0
 13 14  2  0  0  0  0
 15 14  1  0  0  0  0
 15 19  1  0  0  0  0
 16 15  2  0  0  0  0
 17 11  1  0  0  0  0
 20 24  1  0  0  0  0
 21 20  2  0  0  0  0
 22 20  1  0  0  0  0
 23 22  1  0  0  0  0
 24 25  1  0  0  0  0
 25 29  1  0  0  0  0
 26 25  2  0  0  0  0
 27 28  1  0  0  0  0
 28 35  1  0  0  0  0
 29 28  2  0  0  0  0
 29 30  1  0  0  0  0
 30 32  2  0  0  0  0
 31 30  1  0  0  0  0
 32 34  1  0  0  0  0
 32 33  1  0  0  0  0
 35 34  2  0  0  0  0
M  END
>  <minimizedAffinity>
-5.61389208

$$$$

 OpenBabel03272500593D

 35 37  0  0  0  0  0  0  0  0999 V2000
   41.4200   22.2740   36.6110 C   0  0  0  0  0  0  0  0  0  0  0  0
   41.7500   21.0570   37.1410 C   0  0  0  0  0  0  0  0  0  0  0  0
   43.0270   20.5020   37.0030 C   0  0  0  0  0  0  0  0  0  0  0  0
   44.0050   21.2760   36.2660 C   0  0  0  0  0  0  0  0  0  0  0  0
   43.6190   22.4740   35.7650 C   0  0  0  0  0  0  0  0  0  0  0  0
   42.3860   22.9970   35.9040 C   0  0  0  0  0  0  0  0  0  0  0  0
   41.0240   20.4540   37.7050 H   0  0  0  0  0  0  0  0  0  0  0  0
   43.2220   19.5330   37.4460 H   0  0  0  0  0  0  0  0  0  0  0  0
   44.9270   20.7330   36.2410 H   0  0  0  0  0  0  0  0  0  0  0  0
   44.5010   22.8720   35.2920 H   0  0  0  0  0  0  0  0  0  0  0  0
   39.1290   22.5720   35.8000 C   0  0  0  0  0  0  0  0  0  0  0  0
   40.0680   22.7210   36.8560 C   0  0  0  0  0  0  0  0  0  0  0  0
   39.5570   23.2800   38.0030 C   0  0  0  0  0  0  0  0  0  0  0  0
   38.2630   23.6420   38.0720 N   0  0  0  0  0  0  0  0  0  0  0  0
   37.4100   23.4970   37.0850 C   0  0  0  0  0  0  0  0  0  0  0  0
   37.8500   22.9630   35.9570 N   0  0  0  0  0  0  0  0  0  0  0  0
   39.4640   22.1430   34.8800 H   0  0  0  0  0  0  0  0  0  0  0  0
   40.2660   23.3970   38.8130 H   0  0  0  0  0  0  0  0  0  0  0  0
   36.3620   23.7710   37.0900 H   0  0  0  0  0  0  0  0  0  0  0  0
   41.8250   24.1270   33.9190 C   0  0  0  0  0  0  0  0  0  0  0  0
   42.0000   22.9850   33.3320 O   0  0  0  0  0  0  0  0  0  0  0  0
   42.0550   24.2080   35.3460 N   0  0  0  0  0  0  0  0  0  0  0  0
   41.9780   25.0810   35.8710 H   0  0  0  0  0  0  0  0  0  0  0  0
   41.4330   25.2110   33.1720 O   0  0  0  0  0  0  0  0  0  0  0  0
   41.1030   26.4520   33.7040 C   0  0  0  0  0  0  0  0  0  0  0  0
   41.9950   27.4110   33.8200 O   0  0  0  0  0  0  0  0  0  0  0  0
   38.9970   27.0900   31.9430 F   0  0  0  0  0  0  0  0  0  0  0  0
   38.7190   27.1010   33.2750 C   0  0  0  0  0  0  0  0  0  0  0  0
   39.7320   26.7920   34.1550 C   0  0  0  0  0  0  0  0  0  0  0  0
   39.4080   26.8160   35.4820 C   0  0  0  0  0  0  0  0  0  0  0  0
   40.1740   26.5800   36.2030 H   0  0  0  0  0  0  0  0  0  0  0  0
   38.1260   27.1350   35.8800 C   0  0  0  0  0  0  0  0  0  0  0  0
   37.9620   27.1280   36.9660 H   0  0  0  0  0  0  0  0  0  0  0  0
   37.1320   27.4400   34.9730 C   0  0  0  0  0  3  0  0  0  0  0  0
   37.4440   27.4190   33.6500 C   0  0  0  0  0  3  0  0  0  0  0  0
  1 12  1  0  0  0  0
  1  2  1  0  0  0  0
  2  7  1  0  0  0  0
  3  2  2  0  0  0  0
  3  8  1  0  0  0  0
  4  3  1  0  0  0  0
  5  6  1  0  0  0  0
  5  4  2  0  0  0  0
  6  1  2  0  0  0  0
  9  4  1  0  0  0  0
 10  5  1  0  0  0  0
 11 16  2  0  0  0  0
 11 12  1  0  0  0  0
 12 13  2  0  0  0  0
 13 14  1  0  0  0  0
 13 18  1  0  0  0  0
 15 19  1  0  0  0  0
 15 14  2  0  0  0  0
 16 15  1  0  0  0  0
 17 11  1  0  0  0  0
 20 22  1  0  0  0  0
 21 20  2  0  0  0  0
 22 23  1  0  0  0  0
 22  6  1  0  0  0  0
 24 25  1  0  0  0  0
 24 20  1  0  0  0  0
 25 26  2  0  0  0  0
 25 29  1  0  0  0  0
 27 28  1  0  0  0  0
 28 35  2  0  0  0  0
 28 29  1  0  0  0  0
 29 30  2  0  0  0  0
 30 32  1  0  0  0  0
 30 31  1  0  0  0  0
 32 33  1  0  0  0  0
 34 32  2  0  0  0  0
 35 34  1  0  0  0  0
M  END
>  <minimizedAffinity>
-5.59711933

$$$$

 OpenBabel03272500593D

 35 37  0  0  0  0  0  0  0  0999 V2000
   38.4690   25.3620   35.3070 C   0  0  0  0  0  0  0  0  0  0  0  0
   38.4420   26.6190   35.8450 C   0  0  0  0  0  0  0  0  0  0  0  0
   37.7590   27.6780   35.2380 C   0  0  0  0  0  0  0  0  0  0  0  0
   37.0680   27.3900   33.9970 C   0  0  0  0  0  0  0  0  0  0  0  0
   37.1310   26.1260   33.5150 C   0  0  0  0  0  0  0  0  0  0  0  0
   37.7930   25.1160   34.1070 C   0  0  0  0  0  0  0  0  0  0  0  0
   38.9580   26.8590   36.7860 H   0  0  0  0  0  0  0  0  0  0  0  0
   37.7780   28.6500   35.7160 H   0  0  0  0  0  0  0  0  0  0  0  0
   36.5940   28.2860   33.6510 H   0  0  0  0  0  0  0  0  0  0  0  0
   36.5330   26.1430   32.6180 H   0  0  0  0  0  0  0  0  0  0  0  0
   38.5770   23.8490   37.2310 C   0  0  0  0  0  0  0  0  0  0  0  0
   39.2000   24.3700   36.0630 C   0  0  0  0  0  0  0  0  0  0  0  0
   40.4430   23.8500   35.7960 C   0  0  0  0  0  0  0  0  0  0  0  0
   40.9870   22.9220   36.6040 N   0  0  0  0  0  0  0  0  0  0  0  0
   40.3960   22.4520   37.6790 C   0  0  0  0  0  0  0  0  0  0  0  0
   39.1970   22.9200   37.9830 N   0  0  0  0  0  0  0  0  0  0  0  0
   37.6070   24.2150   37.4940 H   0  0  0  0  0  0  0  0  0  0  0  0
   40.9240   24.2420   34.9080 H   0  0  0  0  0  0  0  0  0  0  0  0
   40.7900   21.7080   38.3590 H   0  0  0  0  0  0  0  0  0  0  0  0
   38.9180   23.7080   32.5970 C   0  0  0  0  0  0  0  0  0  0  0  0
   39.6640   24.7360   32.3410 O   0  0  0  0  0  0  0  0  0  0  0  0
   37.8370   23.8620   33.5480 N   0  0  0  0  0  0  0  0  0  0  0  0
   37.1830   23.1100   33.7690 H   0  0  0  0  0  0  0  0  0  0  0  0
   39.1750   22.5190   31.9590 O   0  0  0  0  0  0  0  0  0  0  0  0
   38.3180   21.9170   31.0460 C   0  0  0  0  0  0  0  0  0  0  0  0
   38.4660   22.0800   29.7490 O   0  0  0  0  0  0  0  0  0  0  0  0
   35.6400   22.7810   31.2020 F   0  0  0  0  0  0  0  0  0  0  0  0
   35.8950   21.4840   31.5260 C   0  0  0  0  0  0  0  0  0  0  0  0
   37.1970   21.0390   31.4580 C   0  0  0  0  0  0  0  0  0  0  0  0
   37.4060   19.7310   31.7930 C   0  0  0  0  0  0  0  0  0  0  0  0
   38.4110   19.3440   31.7520 H   0  0  0  0  0  0  0  0  0  0  0  0
   36.3470   18.9310   32.1740 C   0  0  0  0  0  0  0  0  0  0  0  0
   36.6140   17.8960   32.4240 H   0  0  0  0  0  0  0  0  0  0  0  0
   35.0540   19.4080   32.2330 C   0  0  0  0  0  3  0  0  0  0  0  0
   34.8340   20.7080   31.9010 C   0  0  0  0  0  3  0  0  0  0  0  0
  1  2  1  0  0  0  0
  1 12  1  0  0  0  0
  2  7  1  0  0  0  0
  3  8  1  0  0  0  0
  3  2  2  0  0  0  0
  4  3  1  0  0  0  0
  5  4  2  0  0  0  0
  5  6  1  0  0  0  0
  6  1  2  0  0  0  0
  9  4  1  0  0  0  0
 10  5  1  0  0  0  0
 11 17  1  0  0  0  0
 11 16  1  0  0  0  0
 12 11  2  0  0  0  0
 13 12  1  0  0  0  0
 13 14  2  0  0  0  0
 14 15  1  0  0  0  0
 15 16  2  0  0  0  0
 15 19  1  0  0  0  0
 18 13  1  0  0  0  0
 20 22  1  0  0  0  0
 21 20  2  0  0  0  0
 22 23  1  0  0  0  0
 22  6  1  0  0  0  0
 24 20  1  0  0  0  0
 25 29  1  0  0  0  0
 25 24  1  0  0  0  0
 26 25  2  0  0  0  0
 27 28  1  0  0  0  0
 28 35  1  0  0  0  0
 29 28  2  0  0  0  0
 29 30  1  0  0  0  0
 30 32  2  0  0  0  0
 31 30  1  0  0  0  0
 32 34  1  0  0  0  0
 32 33  1  0  0  0  0
 35 34  2  0  0  0  0
M  END
>  <minimizedAffinity>
-5.57264662

$$$$

 OpenBabel03272500593D

 35 37  0  0  0  0  0  0  0  0999 V2000
   36.3940   29.6450   30.8780 C   0  0  0  0  0  0  0  0  0  0  0  0
   37.0190   30.8270   30.5940 C   0  0  0  0  0  0  0  0  0  0  0  0
   37.9360   30.9560   29.5460 C   0  0  0  0  0  0  0  0  0  0  0  0
   38.2050   29.7710   28.7570 C   0  0  0  0  0  0  0  0  0  0  0  0
   37.5550   28.6290   29.0860 C   0  0  0  0  0  0  0  0  0  0  0  0
   36.6750   28.5170   30.0980 C   0  0  0  0  0  0  0  0  0  0  0  0
   36.8290   31.7390   31.1790 H   0  0  0  0  0  0  0  0  0  0  0  0
   38.3970   31.9210   29.3760 H   0  0  0  0  0  0  0  0  0  0  0  0
   38.9190   30.0160   27.9980 H   0  0  0  0  0  0  0  0  0  0  0  0
   37.8850   27.9050   28.3590 H   0  0  0  0  0  0  0  0  0  0  0  0
   35.9430   29.3040   33.2610 C   0  0  0  0  0  0  0  0  0  0  0  0
   35.4570   29.6770   31.9780 C   0  0  0  0  0  0  0  0  0  0  0  0
   34.1300   30.0310   31.9480 C   0  0  0  0  0  0  0  0  0  0  0  0
   33.3890   30.0110   33.0720 N   0  0  0  0  0  0  0  0  0  0  0  0
   33.8560   29.6640   34.2490 C   0  0  0  0  0  0  0  0  0  0  0  0
   35.1290   29.3140   34.3330 N   0  0  0  0  0  0  0  0  0  0  0  0
   36.9690   29.0170   33.3510 H   0  0  0  0  0  0  0  0  0  0  0  0
   33.7510   30.3160   30.9740 H   0  0  0  0  0  0  0  0  0  0  0  0
   33.3040   29.6320   35.1790 H   0  0  0  0  0  0  0  0  0  0  0  0
   36.8680   26.4870   31.2680 C   0  0  0  0  0  0  0  0  0  0  0  0
   38.0390   26.9120   31.6230 O   0  0  0  0  0  0  0  0  0  0  0  0
   36.0700   27.3200   30.3930 N   0  0  0  0  0  0  0  0  0  0  0  0
   35.1560   27.0340   30.0380 H   0  0  0  0  0  0  0  0  0  0  0  0
   36.4300   25.2700   31.7290 O   0  0  0  0  0  0  0  0  0  0  0  0
   36.8620   24.0430   31.2390 C   0  0  0  0  0  0  0  0  0  0  0  0
   37.7040   23.9610   30.2320 O   0  0  0  0  0  0  0  0  0  0  0  0
   37.8390   23.0270   33.6790 F   0  0  0  0  0  0  0  0  0  0  0  0
   36.9210   22.2740   33.0150 C   0  0  0  0  0  0  0  0  0  0  0  0
   36.4280   22.7500   31.8200 C   0  0  0  0  0  0  0  0  0  0  0  0
   35.5100   21.9610   31.1890 C   0  0  0  0  0  0  0  0  0  0  0  0
   35.1000   22.2980   30.2500 H   0  0  0  0  0  0  0  0  0  0  0  0
   35.1210   20.7600   31.7470 C   0  0  0  0  0  0  0  0  0  0  0  0
   34.3780   20.1970   31.1660 H   0  0  0  0  0  0  0  0  0  0  0  0
   35.6330   20.3100   32.9460 C   0  0  0  0  0  3  0  0  0  0  0  0
   36.5490   21.0880   33.5840 C   0  0  0  0  0  3  0  0  0  0  0  0
  1 12  1  0  0  0  0
  2  1  1  0  0  0  0
  2  7  1  0  0  0  0
  3  2  2  0  0  0  0
  4  5  2  0  0  0  0
  4  3  1  0  0  0  0
  5  6  1  0  0  0  0
  6 22  1  0  0  0  0
  6  1  2  0  0  0  0
  8  3  1  0  0  0  0
  9  4  1  0  0  0  0
 10  5  1  0  0  0  0
 11 17  1  0  0  0  0
 11 16  1  0  0  0  0
 12 11  2  0  0  0  0
 13 12  1  0  0  0  0
 13 14  2  0  0  0  0
 14 15  1  0  0  0  0
 15 16  2  0  0  0  0
 15 19  1  0  0  0  0
 18 13  1  0  0  0  0
 20 21  2  0  0  0  0
 20 24  1  0  0  0  0
 22 20  1  0  0  0  0
 23 22  1  0  0  0  0
 25 24  1  0  0  0  0
 25 29  1  0  0  0  0
 26 25  2  0  0  0  0
 28 35  1  0  0  0  0
 28 27  1  0  0  0  0
 29 28  2  0  0  0  0
 30 32  2  0  0  0  0
 30 29  1  0  0  0  0
 31 30  1  0  0  0  0
 32 34  1  0  0  0  0
 33 32  1  0  0  0  0
 34 35  2  0  0  0  0
M  END
>  <minimizedAffinity>
-5.42427111

$$$$

 OpenBabel03272500593D

 35 37  0  0  0  0  0  0  0  0999 V2000
   38.6520   24.8690   36.3490 C   0  0  0  0  0  0  0  0  0  0  0  0
   38.0580   25.4090   37.4560 C   0  0  0  0  0  0  0  0  0  0  0  0
   38.0150   24.7410   38.6840 C   0  0  0  0  0  0  0  0  0  0  0  0
   38.6340   23.4330   38.7430 C   0  0  0  0  0  0  0  0  0  0  0  0
   39.2070   22.9510   37.6150 C   0  0  0  0  0  0  0  0  0  0  0  0
   39.2410   23.6030   36.4380 C   0  0  0  0  0  0  0  0  0  0  0  0
   37.5820   26.4010   37.4330 H   0  0  0  0  0  0  0  0  0  0  0  0
   37.5270   25.2260   39.5210 H   0  0  0  0  0  0  0  0  0  0  0  0
   38.5260   23.0450   39.7360 H   0  0  0  0  0  0  0  0  0  0  0  0
   39.6190   21.9970   37.9010 H   0  0  0  0  0  0  0  0  0  0  0  0
   37.4120   25.7590   34.4340 C   0  0  0  0  0  0  0  0  0  0  0  0
   38.6320   25.6900   35.1600 C   0  0  0  0  0  0  0  0  0  0  0  0
   39.6590   26.4340   34.6290 C   0  0  0  0  0  0  0  0  0  0  0  0
   39.4750   27.1540   33.5070 N   0  0  0  0  0  0  0  0  0  0  0  0
   38.3400   27.2050   32.8490 C   0  0  0  0  0  0  0  0  0  0  0  0
   37.3190   26.5080   33.3180 N   0  0  0  0  0  0  0  0  0  0  0  0
   36.5740   25.2030   34.7960 H   0  0  0  0  0  0  0  0  0  0  0  0
   40.5920   26.3870   35.1770 H   0  0  0  0  0  0  0  0  0  0  0  0
   38.1420   27.7680   31.9460 H   0  0  0  0  0  0  0  0  0  0  0  0
   38.9600   22.0720   34.6750 C   0  0  0  0  0  0  0  0  0  0  0  0
   37.8140   21.8040   35.2170 O   0  0  0  0  0  0  0  0  0  0  0  0
   39.8170   23.0420   35.3240 N   0  0  0  0  0  0  0  0  0  0  0  0
   40.7500   23.2750   34.9800 H   0  0  0  0  0  0  0  0  0  0  0  0
   39.3190   21.4290   33.5160 O   0  0  0  0  0  0  0  0  0  0  0  0
   38.4780   21.2510   32.4240 C   0  0  0  0  0  0  0  0  0  0  0  0
   38.3550   20.0830   31.8310 O   0  0  0  0  0  0  0  0  0  0  0  0
   35.7020   21.4770   32.8520 F   0  0  0  0  0  0  0  0  0  0  0  0
   36.2930   22.4340   32.0870 C   0  0  0  0  0  0  0  0  0  0  0  0
   37.6490   22.3450   31.8640 C   0  0  0  0  0  0  0  0  0  0  0  0
   38.2000   23.3270   31.0900 C   0  0  0  0  0  0  0  0  0  0  0  0
   39.2590   23.2930   30.8920 H   0  0  0  0  0  0  0  0  0  0  0  0
   37.4090   24.3360   30.5780 C   0  0  0  0  0  0  0  0  0  0  0  0
   37.9420   25.0790   29.9680 H   0  0  0  0  0  0  0  0  0  0  0  0
   36.0530   24.3980   30.8190 C   0  0  0  0  0  3  0  0  0  0  0  0
   35.4940   23.4250   31.5880 C   0  0  0  0  0  3  0  0  0  0  0  0
  1  6  2  0  0  0  0
  1  2  1  0  0  0  0
  2  3  2  0  0  0  0
  3  4  1  0  0  0  0
  3  8  1  0  0  0  0
  4  9  1  0  0  0  0
  5 10  1  0  0  0  0
  5  4  2  0  0  0  0
  6  5  1  0  0  0  0
  7  2  1  0  0  0  0
 11 17  1  0  0  0  0
 11 12  1  0  0  0  0
 12  1  1  0  0  0  0
 13 12  2  0  0  0  0
 13 18  1  0  0  0  0
 14 13  1  0  0  0  0
 15 16  1  0  0  0  0
 15 14  2  0  0  0  0
 16 11  2  0  0  0  0
 19 15  1  0  0  0  0
 20 21  2  0  0  0  0
 20 22  1  0  0  0  0
 22  6  1  0  0  0  0
 23 22  1  0  0  0  0
 24 20  1  0  0  0  0
 25 24  1  0  0  0  0
 26 25  2  0  0  0  0
 28 27  1  0  0  0  0
 29 28  1  0  0  0  0
 29 25  1  0  0  0  0
 30 29  2  0  0  0  0
 31 30  1  0  0  0  0
 32 34  2  0  0  0  0
 32 30  1  0  0  0  0
 33 32  1  0  0  0  0
 34 35  1  0  0  0  0
 35 28  2  0  0  0  0
M  END
>  <minimizedAffinity>
-5.4053216

$$$$
