
 OpenBabel03272500563D

 35 37  0  0  0  0  0  0  0  0999 V2000
   38.1050   31.9430   47.4660 C   0  0  0  0  0  0  0  0  0  0  0  0
   38.5510   32.9050   48.3290 C   0  0  0  0  0  0  0  0  0  0  0  0
   38.0630   33.0240   49.6340 C   0  0  0  0  0  0  0  0  0  0  0  0
   37.0490   32.0750   50.0470 C   0  0  0  0  0  0  0  0  0  0  0  0
   36.6480   31.1450   49.1480 C   0  0  0  0  0  0  0  0  0  0  0  0
   37.1240   31.0410   47.8940 C   0  0  0  0  0  0  0  0  0  0  0  0
   39.3210   33.6350   48.0370 H   0  0  0  0  0  0  0  0  0  0  0  0
   38.4590   33.8090   50.2660 H   0  0  0  0  0  0  0  0  0  0  0  0
   36.7730   32.2840   51.0600 H   0  0  0  0  0  0  0  0  0  0  0  0
   35.9250   30.5450   49.6760 H   0  0  0  0  0  0  0  0  0  0  0  0
   39.9860   31.2980   46.0370 C   0  0  0  0  0  0  0  0  0  0  0  0
   38.7210   31.9350   46.1590 C   0  0  0  0  0  0  0  0  0  0  0  0
   38.2340   32.4710   44.9910 C   0  0  0  0  0  0  0  0  0  0  0  0
   38.9360   32.3760   43.8470 N   0  0  0  0  0  0  0  0  0  0  0  0
   40.1040   31.7830   43.7530 C   0  0  0  0  0  0  0  0  0  0  0  0
   40.6190   31.2490   44.8490 N   0  0  0  0  0  0  0  0  0  0  0  0
   40.4200   30.8610   46.9110 H   0  0  0  0  0  0  0  0  0  0  0  0
   37.2710   32.9590   45.0750 H   0  0  0  0  0  0  0  0  0  0  0  0
   40.7060   31.6790   42.8600 H   0  0  0  0  0  0  0  0  0  0  0  0
   35.2110   29.9510   47.0680 C   0  0  0  0  0  0  0  0  0  0  0  0
   34.5510   30.6680   47.9220 O   0  0  0  0  0  0  0  0  0  0  0  0
   36.6520   30.0880   47.0240 N   0  0  0  0  0  0  0  0  0  0  0  0
   37.2430   29.5280   46.4080 H   0  0  0  0  0  0  0  0  0  0  0  0
   34.5270   29.0920   46.2440 O   0  0  0  0  0  0  0  0  0  0  0  0
   33.2130   29.2800   45.8310 C   0  0  0  0  0  0  0  0  0  0  0  0
   32.9260   29.8840   44.6990 O   0  0  0  0  0  0  0  0  0  0  0  0
   33.4140   27.4000   47.9220 F   0  0  0  0  0  0  0  0  0  0  0  0
   32.1730   27.8810   47.6350 C   0  0  0  0  0  0  0  0  0  0  0  0
   32.0500   28.8020   46.6160 C   0  0  0  0  0  0  0  0  0  0  0  0
   30.7880   29.2560   46.3650 C   0  0  0  0  0  0  0  0  0  0  0  0
   30.6480   29.9770   45.5750 H   0  0  0  0  0  0  0  0  0  0  0  0
   29.7190   28.7980   47.1070 C   0  0  0  0  0  0  0  0  0  0  0  0
   28.7450   29.2210   46.8300 H   0  0  0  0  0  0  0  0  0  0  0  0
   29.8750   27.8750   48.1210 C   0  0  0  0  0  3  0  0  0  0  0  0
   31.1280   27.4150   48.3820 C   0  0  0  0  0  3  0  0  0  0  0  0
  1  6  2  0  0  0  0
  1  2  1  0  0  0  0
  2  3  2  0  0  0  0
  3  4  1  0  0  0  0
  3  8  1  0  0  0  0
  4  9  1  0  0  0  0
  5 10  1  0  0  0  0
  5  4  2  0  0  0  0
  6  5  1  0  0  0  0
  7  2  1  0  0  0  0
 11 12  1  0  0  0  0
 11 17  1  0  0  0  0
 12  1  1  0  0  0  0
 13 18  1  0  0  0  0
 13 12  2  0  0  0  0
 14 13  1  0  0  0  0
 15 14  2  0  0  0  0
 15 16  1  0  0  0  0
 16 11  2  0  0  0  0
 19 15  1  0  0  0  0
 20 21  2  0  0  0  0
 22 20  1  0  0  0  0
 22  6  1  0  0  0  0
 23 22  1  0  0  0  0
 24 20  1  0  0  0  0
 25 24  1  0  0  0  0
 25 29  1  0  0  0  0
 26 25  2  0  0  0  0
 28 27  1  0  0  0  0
 28 35  1  0  0  0  0
 29 28  2  0  0  0  0
 30 29  1  0  0  0  0
 30 32  2  0  0  0  0
 31 30  1  0  0  0  0
 32 34  1  0  0  0  0
 33 32  1  0  0  0  0
 34 35  2  0  0  0  0
M  END
>  <minimizedAffinity>
-5.94199324

>  <minimizedRMSD>
1.78234255

$$$$
