
 OpenBabel03272500563D

 35 37  0  0  0  0  0  0  0  0999 V2000
   38.1170   31.8730   47.4210 C   0  0  0  0  0  0  0  0  0  0  0  0
   38.5840   32.7650   48.3470 C   0  0  0  0  0  0  0  0  0  0  0  0
   38.0740   32.8290   49.6470 C   0  0  0  0  0  0  0  0  0  0  0  0
   37.0150   31.9000   49.9860 C   0  0  0  0  0  0  0  0  0  0  0  0
   36.5960   31.0400   49.0270 C   0  0  0  0  0  0  0  0  0  0  0  0
   37.0940   30.9890   47.7780 C   0  0  0  0  0  0  0  0  0  0  0  0
   39.3870   33.4790   48.1110 H   0  0  0  0  0  0  0  0  0  0  0  0
   38.4880   33.5610   50.3310 H   0  0  0  0  0  0  0  0  0  0  0  0
   36.7270   32.0620   51.0040 H   0  0  0  0  0  0  0  0  0  0  0  0
   35.8400   30.4400   49.5070 H   0  0  0  0  0  0  0  0  0  0  0  0
   40.0140   31.2580   45.9980 C   0  0  0  0  0  0  0  0  0  0  0  0
   38.7600   31.9160   46.1270 C   0  0  0  0  0  0  0  0  0  0  0  0
   38.3070   32.5180   44.9780 C   0  0  0  0  0  0  0  0  0  0  0  0
   39.0300   32.4620   43.8440 N   0  0  0  0  0  0  0  0  0  0  0  0
   40.1870   31.8500   43.7440 C   0  0  0  0  0  0  0  0  0  0  0  0
   40.6690   31.2530   44.8210 N   0  0  0  0  0  0  0  0  0  0  0  0
   40.4210   30.7700   46.8580 H   0  0  0  0  0  0  0  0  0  0  0  0
   37.3530   33.0210   45.0680 H   0  0  0  0  0  0  0  0  0  0  0  0
   40.8050   31.7760   42.8580 H   0  0  0  0  0  0  0  0  0  0  0  0
   35.1600   29.9910   46.8880 C   0  0  0  0  0  0  0  0  0  0  0  0
   34.5140   30.6570   47.7930 O   0  0  0  0  0  0  0  0  0  0  0  0
   36.6030   30.1070   46.8460 N   0  0  0  0  0  0  0  0  0  0  0  0
   37.1820   29.5820   46.1890 H   0  0  0  0  0  0  0  0  0  0  0  0
   34.4580   29.2020   46.0100 O   0  0  0  0  0  0  0  0  0  0  0  0
   33.4670   29.6700   45.1540 C   0  0  0  0  0  0  0  0  0  0  0  0
   33.7350   30.5220   44.1890 O   0  0  0  0  0  0  0  0  0  0  0  0
   32.4350   27.4220   43.8050 F   0  0  0  0  0  0  0  0  0  0  0  0
   31.5720   28.1310   44.5810 C   0  0  0  0  0  0  0  0  0  0  0  0
   32.0530   29.2350   45.2510 C   0  0  0  0  0  0  0  0  0  0  0  0
   31.1520   29.9150   46.0170 C   0  0  0  0  0  0  0  0  0  0  0  0
   31.4880   30.7860   46.5580 H   0  0  0  0  0  0  0  0  0  0  0  0
   29.8400   29.4930   46.0930 C   0  0  0  0  0  0  0  0  0  0  0  0
   29.1910   30.1040   46.7340 H   0  0  0  0  0  0  0  0  0  0  0  0
   29.3890   28.3830   45.4100 C   0  0  0  0  0  3  0  0  0  0  0  0
   30.2780   27.6970   44.6430 C   0  0  0  0  0  3  0  0  0  0  0  0
  1  6  2  0  0  0  0
  1  2  1  0  0  0  0
  2  3  2  0  0  0  0
  3  4  1  0  0  0  0
  3  8  1  0  0  0  0
  4  9  1  0  0  0  0
  5 10  1  0  0  0  0
  5  4  2  0  0  0  0
  6  5  1  0  0  0  0
  7  2  1  0  0  0  0
 11 12  1  0  0  0  0
 11 17  1  0  0  0  0
 12  1  1  0  0  0  0
 13 18  1  0  0  0  0
 13 12  2  0  0  0  0
 14 13  1  0  0  0  0
 15 14  2  0  0  0  0
 15 16  1  0  0  0  0
 16 11  2  0  0  0  0
 19 15  1  0  0  0  0
 20 21  2  0  0  0  0
 22 20  1  0  0  0  0
 22  6  1  0  0  0  0
 23 22  1  0  0  0  0
 24 20  1  0  0  0  0
 25 29  1  0  0  0  0
 25 24  1  0  0  0  0
 26 25  2  0  0  0  0
 27 28  1  0  0  0  0
 28 35  2  0  0  0  0
 28 29  1  0  0  0  0
 29 30  2  0  0  0  0
 30 32  1  0  0  0  0
 30 31  1  0  0  0  0
 32 33  1  0  0  0  0
 34 32  2  0  0  0  0
 35 34  1  0  0  0  0
M  END
>  <minimizedAffinity>
-5.3981452

>  <minimizedRMSD>
0.577689469

$$$$
