
 OpenBabel03272500543D

 32 34  0  0  0  0  0  0  0  0999 V2000
   36.2420   30.0350   43.9750 C   0  0  0  0  0  0  0  0  0  0  0  0
   36.1850   29.0200   43.0160 C   0  0  0  0  0  0  0  0  0  0  0  0
   37.2170   28.7840   42.1250 C   0  0  0  0  0  0  0  0  0  0  0  0
   38.3800   29.6010   42.1820 C   0  0  0  0  0  0  0  0  0  0  0  0
   38.3960   30.5800   43.1350 C   0  0  0  0  0  0  0  0  0  0  0  0
   37.3870   30.8160   44.0160 C   0  0  0  0  0  0  0  0  0  0  0  0
   35.2910   28.3840   42.9600 H   0  0  0  0  0  0  0  0  0  0  0  0
   37.0600   27.9620   41.4210 H   0  0  0  0  0  0  0  0  0  0  0  0
   39.0660   29.2820   41.4290 H   0  0  0  0  0  0  0  0  0  0  0  0
   39.3240   31.0810   42.9550 H   0  0  0  0  0  0  0  0  0  0  0  0
   35.1980   29.8400   46.1510 C   0  0  0  0  0  0  0  0  0  0  0  0
   35.0580   30.1920   44.7950 C   0  0  0  0  0  0  0  0  0  0  0  0
   33.8000   30.6530   44.3780 C   0  0  0  0  0  0  0  0  0  0  0  0
   32.7940   30.7400   45.2650 N   0  0  0  0  0  0  0  0  0  0  0  0
   32.9430   30.4030   46.5520 C   0  0  0  0  0  0  0  0  0  0  0  0
   34.1370   29.9560   46.9840 N   0  0  0  0  0  0  0  0  0  0  0  0
   36.1450   29.4780   46.5290 H   0  0  0  0  0  0  0  0  0  0  0  0
   33.7440   30.9110   43.3180 H   0  0  0  0  0  0  0  0  0  0  0  0
   32.0740   30.5100   47.1850 H   0  0  0  0  0  0  0  0  0  0  0  0
   38.4050   31.4740   46.0310 C   0  0  0  0  0  0  0  0  0  0  0  0
   38.9810   30.3270   45.9770 O   0  0  0  0  0  0  0  0  0  0  0  0
   37.4470   31.7930   45.0090 N   0  0  0  0  0  0  0  0  0  0  0  0
   36.8950   32.6340   45.0320 H   0  0  0  0  0  0  0  0  0  0  0  0
   40.3800   33.6010   46.0220 F   0  0  0  0  0  0  0  0  0  0  0  0
   39.6690   33.3780   47.1480 C   0  0  0  0  0  0  0  0  0  0  0  0
   38.7580   32.3770   47.1240 C   0  0  0  0  0  0  0  0  0  0  0  0
   38.0850   32.2220   48.3170 C   0  0  0  0  0  0  0  0  0  0  0  0
   37.3240   31.4610   48.4530 H   0  0  0  0  0  0  0  0  0  0  0  0
   38.3110   33.0030   49.4280 C   0  0  0  0  0  0  0  0  0  0  0  0
   37.7760   32.8630   50.3410 H   0  0  0  0  0  0  0  0  0  0  0  0
   39.2520   34.0090   49.3970 C   0  0  0  0  0  3  0  0  0  0  0  0
   39.9410   34.1890   48.2180 C   0  0  0  0  0  3  0  0  0  0  0  0
  1  6  1  0  0  0  0
  1 12  1  0  0  0  0
  2  1  2  0  0  0  0
  3  4  2  0  0  0  0
  3  2  1  0  0  0  0
  4  5  1  0  0  0  0
  5  6  2  0  0  0  0
  6 22  1  0  0  0  0
  7  2  1  0  0  0  0
  8  3  1  0  0  0  0
  9  4  1  0  0  0  0
 10  5  1  0  0  0  0
 11 17  1  0  0  0  0
 11 16  1  0  0  0  0
 12 11  2  0  0  0  0
 13 12  1  0  0  0  0
 13 14  2  0  0  0  0
 14 15  1  0  0  0  0
 15 16  2  0  0  0  0
 15 19  1  0  0  0  0
 18 13  1  0  0  0  0
 20 26  1  0  0  0  0
 21 20  2  0  0  0  0
 22 23  1  0  0  0  0
 22 20  1  0  0  0  0
 24 25  1  0  0  0  0
 25 32  1  0  0  0  0
 26 25  2  0  0  0  0
 26 27  1  0  0  0  0
 27 28  1  0  0  0  0
 27 29  2  0  0  0  0
 29 30  1  0  0  0  0
 31 29  1  0  0  0  0
 32 31  2  0  0  0  0
M  END
>  <minimizedAffinity>
-5.30447102

>  <minimizedRMSD>
4.62000561

$$$$
