
 OpenBabel03272500543D

 32 34  0  0  0  0  0  0  0  0999 V2000
   38.4550   32.1310   47.3590 C   0  0  0  0  0  0  0  0  0  0  0  0
   39.2120   33.2190   47.8010 C   0  0  0  0  0  0  0  0  0  0  0  0
   39.1420   33.6900   49.1000 C   0  0  0  0  0  0  0  0  0  0  0  0
   38.2690   33.0490   50.0220 C   0  0  0  0  0  0  0  0  0  0  0  0
   37.5490   31.9890   49.5490 C   0  0  0  0  0  0  0  0  0  0  0  0
   37.6150   31.5180   48.2750 C   0  0  0  0  0  0  0  0  0  0  0  0
   39.8870   33.7240   47.0970 H   0  0  0  0  0  0  0  0  0  0  0  0
   39.7820   34.5470   49.3310 H   0  0  0  0  0  0  0  0  0  0  0  0
   38.3410   33.5390   50.9670 H   0  0  0  0  0  0  0  0  0  0  0  0
   36.9440   31.7110   50.3870 H   0  0  0  0  0  0  0  0  0  0  0  0
   39.6470   30.9130   45.6380 C   0  0  0  0  0  0  0  0  0  0  0  0
   38.5970   31.7960   45.9560 C   0  0  0  0  0  0  0  0  0  0  0  0
   37.8030   32.2570   44.8950 C   0  0  0  0  0  0  0  0  0  0  0  0
   38.0650   31.8520   43.6410 N   0  0  0  0  0  0  0  0  0  0  0  0
   39.0660   31.0130   43.3540 C   0  0  0  0  0  0  0  0  0  0  0  0
   39.8480   30.5510   44.3490 N   0  0  0  0  0  0  0  0  0  0  0  0
   40.2920   30.5250   46.4150 H   0  0  0  0  0  0  0  0  0  0  0  0
   37.0030   32.9390   45.1950 H   0  0  0  0  0  0  0  0  0  0  0  0
   39.1950   30.7470   42.3140 H   0  0  0  0  0  0  0  0  0  0  0  0
   35.5840   30.3380   48.3980 C   0  0  0  0  0  0  0  0  0  0  0  0
   35.2720   31.2020   49.2950 O   0  0  0  0  0  0  0  0  0  0  0  0
   36.9020   30.4050   47.8300 N   0  0  0  0  0  0  0  0  0  0  0  0
   37.2460   29.7130   47.1850 H   0  0  0  0  0  0  0  0  0  0  0  0
   33.4290   30.6280   46.4740 F   0  0  0  0  0  0  0  0  0  0  0  0
   33.5730   29.4510   47.1190 C   0  0  0  0  0  0  0  0  0  0  0  0
   34.5830   29.3460   48.0130 C   0  0  0  0  0  0  0  0  0  0  0  0
   34.6470   28.1100   48.6220 C   0  0  0  0  0  0  0  0  0  0  0  0
   35.4040   27.8750   49.3620 H   0  0  0  0  0  0  0  0  0  0  0  0
   33.7740   27.0800   48.3540 C   0  0  0  0  0  0  0  0  0  0  0  0
   33.8450   26.1330   48.8410 H   0  0  0  0  0  0  0  0  0  0  0  0
   32.7620   27.2420   47.4340 C   0  0  0  0  0  3  0  0  0  0  0  0
   32.6720   28.4670   46.8080 C   0  0  0  0  0  3  0  0  0  0  0  0
  1  2  2  0  0  0  0
  1  6  1  0  0  0  0
  2  3  1  0  0  0  0
  3  8  1  0  0  0  0
  3  4  2  0  0  0  0
  4  9  1  0  0  0  0
  5  4  1  0  0  0  0
  5 10  1  0  0  0  0
  6  5  2  0  0  0  0
  7  2  1  0  0  0  0
 11 12  1  0  0  0  0
 11 17  1  0  0  0  0
 12  1  1  0  0  0  0
 13 18  1  0  0  0  0
 13 12  2  0  0  0  0
 14 13  1  0  0  0  0
 15 14  2  0  0  0  0
 15 16  1  0  0  0  0
 16 11  2  0  0  0  0
 19 15  1  0  0  0  0
 20 21  2  0  0  0  0
 22  6  1  0  0  0  0
 22 20  1  0  0  0  0
 23 22  1  0  0  0  0
 24 25  1  0  0  0  0
 25 26  1  0  0  0  0
 26 20  1  0  0  0  0
 26 27  2  0  0  0  0
 27 28  1  0  0  0  0
 29 27  1  0  0  0  0
 29 30  1  0  0  0  0
 31 29  2  0  0  0  0
 32 25  2  0  0  0  0
 32 31  1  0  0  0  0
M  END
>  <minimizedAffinity>
-6.09523821

>  <minimizedRMSD>
7.13691425

$$$$
