
 OpenBabel03272509323D

 38 40  0  0  1  0  0  0  0  0999 V2000
   38.4890   25.7660   34.2640 C   0  0  2  0  0  0  0  0  0  0  0  0
   38.4810   27.1560   34.8260 C   0  0  0  0  0  0  0  0  0  0  0  0
   37.1790   27.8820   34.5770 C   0  0  0  0  0  0  0  0  0  0  0  0
   36.8440   27.9200   33.0930 C   0  0  0  0  0  0  0  0  0  0  0  0
   37.2600   26.6810   32.3400 C   0  0  0  0  0  0  0  0  0  0  0  0
   37.3290   25.5200   33.3520 C   0  0  1  0  0  0  0  0  0  0  0  0
   39.4330   25.5220   33.6780 H   0  0  0  0  0  0  0  0  0  0  0  0
   38.8340   27.2900   35.8270 H   0  0  0  0  0  0  0  0  0  0  0  0
   39.2330   27.7180   34.1750 H   0  0  0  0  0  0  0  0  0  0  0  0
   36.3320   27.5270   35.1640 H   0  0  0  0  0  0  0  0  0  0  0  0
   37.3570   28.9320   34.8850 H   0  0  0  0  0  0  0  0  0  0  0  0
   37.2210   28.8610   32.6300 H   0  0  0  0  0  0  0  0  0  0  0  0
   35.7320   27.9640   33.0300 H   0  0  0  0  0  0  0  0  0  0  0  0
   36.5300   26.4590   31.5430 H   0  0  0  0  0  0  0  0  0  0  0  0
   38.2610   26.8250   31.9140 H   0  0  0  0  0  0  0  0  0  0  0  0
   36.4040   25.6650   33.8540 H   0  0  0  0  0  0  0  0  0  0  0  0
   38.4730   24.7490   35.3430 C   0  0  0  0  0  0  0  0  0  0  0  0
   38.0470   25.2080   36.6040 C   0  0  0  0  0  0  0  0  0  0  0  0
   38.0200   24.2680   37.6410 C   0  0  0  0  0  0  0  0  0  0  0  0
   38.4000   22.9750   37.3770 N   0  0  0  0  0  0  0  0  0  0  0  0
   38.8060   22.5780   36.1260 C   0  0  0  0  0  0  0  0  0  0  0  0
   38.8350   23.4800   35.1300 N   0  0  0  0  0  0  0  0  0  0  0  0
   37.7190   26.1670   36.9480 H   0  0  0  0  0  0  0  0  0  0  0  0
   37.7170   24.4800   38.6570 H   0  0  0  0  0  0  0  0  0  0  0  0
   39.0930   21.5520   35.9740 H   0  0  0  0  0  0  0  0  0  0  0  0
   36.2680   23.6370   32.0200 C   0  0  0  0  0  0  0  0  0  0  0  0
   35.1880   24.1630   31.5300 O   0  0  0  0  0  0  0  0  0  0  0  0
   37.2910   24.2260   32.7840 N   0  0  0  0  0  0  0  0  0  0  0  0
   38.1310   23.6220   32.9230 H   0  0  0  0  0  0  0  0  0  0  0  0
   38.2960   22.2910   30.3730 F   0  0  0  0  0  0  0  0  0  0  0  0
   37.2250   21.6130   30.8380 C   0  0  0  0  0  0  0  0  0  0  0  0
   36.2710   22.2080   31.6300 C   0  0  0  0  0  0  0  0  0  0  0  0
   35.2960   21.3140   31.9940 C   0  0  0  0  0  0  0  0  0  0  0  0
   34.4620   21.6500   32.6310 H   0  0  0  0  0  0  0  0  0  0  0  0
   35.2180   19.9870   31.6490 C   0  0  0  0  0  0  0  0  0  0  0  0
   34.4190   19.3440   31.9750 H   0  0  0  0  0  0  0  0  0  0  0  0
   36.2190   19.4800   30.8510 C   0  0  0  0  0  3  0  0  0  0  0  0
   37.2230   20.3110   30.4510 C   0  0  0  0  0  3  0  0  0  0  0  0
  1  7  1  6  0  0  0
  1  2  1  0  0  0  0
  1 17  1  0  0  0  0
  2  8  1  0  0  0  0
  3  2  1  0  0  0  0
  3 11  1  0  0  0  0
  3 10  1  0  0  0  0
  4  3  1  0  0  0  0
  5  4  1  0  0  0  0
  5  6  1  0  0  0  0
  6 16  1  1  0  0  0
  6  1  1  0  0  0  0
  9  2  1  0  0  0  0
 12  4  1  0  0  0  0
 13  4  1  0  0  0  0
 14  5  1  0  0  0  0
 15  5  1  0  0  0  0
 17 18  1  0  0  0  0
 18 23  1  0  0  0  0
 18 19  2  0  0  0  0
 19 24  1  0  0  0  0
 20 19  1  0  0  0  0
 21 20  2  0  0  0  0
 22 17  2  0  0  0  0
 22 21  1  0  0  0  0
 25 21  1  0  0  0  0
 26 28  1  0  0  0  0
 27 26  2  0  0  0  0
 28 29  1  0  0  0  0
 28  6  1  0  0  0  0
 30 31  1  0  0  0  0
 31 32  1  0  0  0  0
 32 33  2  0  0  0  0
 32 26  1  0  0  0  0
 33 34  1  0  0  0  0
 35 36  1  0  0  0  0
 35 33  1  0  0  0  0
 37 35  2  0  0  0  0
 38 31  2  0  0  0  0
 38 37  1  0  0  0  0
M  END
>  <minimizedAffinity>
-5.81534529

$$$$

 OpenBabel03272509323D

 38 40  0  0  1  0  0  0  0  0999 V2000
   40.1360   24.6490   34.4430 C   0  0  2  0  0  0  0  0  0  0  0  0
   40.8170   25.9710   34.6330 C   0  0  0  0  0  0  0  0  0  0  0  0
   40.0840   27.1100   33.9610 C   0  0  0  0  0  0  0  0  0  0  0  0
   39.8860   26.8370   32.4770 C   0  0  0  0  0  0  0  0  0  0  0  0
   39.6420   25.3850   32.1480 C   0  0  0  0  0  0  0  0  0  0  0  0
   39.0590   24.7130   33.4080 C   0  0  1  0  0  0  0  0  0  0  0  0
   40.8490   23.8170   34.1340 H   0  0  0  0  0  0  0  0  0  0  0  0
   41.1400   26.2270   35.6210 H   0  0  0  0  0  0  0  0  0  0  0  0
   41.7800   25.8740   34.0270 H   0  0  0  0  0  0  0  0  0  0  0  0
   39.1490   27.4040   34.4370 H   0  0  0  0  0  0  0  0  0  0  0  0
   40.7610   27.9850   34.0310 H   0  0  0  0  0  0  0  0  0  0  0  0
   40.7130   27.2880   31.8820 H   0  0  0  0  0  0  0  0  0  0  0  0
   38.9580   27.3820   32.1850 H   0  0  0  0  0  0  0  0  0  0  0  0
   38.9400   25.3000   31.3030 H   0  0  0  0  0  0  0  0  0  0  0  0
   40.5940   24.8950   31.9080 H   0  0  0  0  0  0  0  0  0  0  0  0
   38.3170   25.4280   33.6640 H   0  0  0  0  0  0  0  0  0  0  0  0
   39.5510   24.1570   35.7130 C   0  0  0  0  0  0  0  0  0  0  0  0
   40.3590   23.2720   36.4520 C   0  0  0  0  0  0  0  0  0  0  0  0
   39.8320   22.7940   37.6580 C   0  0  0  0  0  0  0  0  0  0  0  0
   38.5820   23.2080   38.0480 N   0  0  0  0  0  0  0  0  0  0  0  0
   37.8350   24.0770   37.2890 C   0  0  0  0  0  0  0  0  0  0  0  0
   38.3380   24.5340   36.1310 N   0  0  0  0  0  0  0  0  0  0  0  0
   41.3380   22.8760   36.2790 H   0  0  0  0  0  0  0  0  0  0  0  0
   40.3390   22.1100   38.3240 H   0  0  0  0  0  0  0  0  0  0  0  0
   36.8610   24.3690   37.6430 H   0  0  0  0  0  0  0  0  0  0  0  0
   37.1370   23.2780   32.5740 C   0  0  0  0  0  0  0  0  0  0  0  0
   36.3610   24.1140   31.9560 O   0  0  0  0  0  0  0  0  0  0  0  0
   38.3890   23.4890   33.1780 N   0  0  0  0  0  0  0  0  0  0  0  0
   38.8820   22.6180   33.4730 H   0  0  0  0  0  0  0  0  0  0  0  0
   36.6630   21.5280   34.8870 F   0  0  0  0  0  0  0  0  0  0  0  0
   36.2760   21.1530   33.6500 C   0  0  0  0  0  0  0  0  0  0  0  0
   36.4630   21.9600   32.5510 C   0  0  0  0  0  0  0  0  0  0  0  0
   35.9690   21.3740   31.4120 C   0  0  0  0  0  0  0  0  0  0  0  0
   36.0490   21.9050   30.4500 H   0  0  0  0  0  0  0  0  0  0  0  0
   35.3590   20.1480   31.3080 C   0  0  0  0  0  0  0  0  0  0  0  0
   34.9950   19.7520   30.3760 H   0  0  0  0  0  0  0  0  0  0  0  0
   35.2180   19.4110   32.4630 C   0  0  0  0  0  3  0  0  0  0  0  0
   35.6840   19.9310   33.6340 C   0  0  0  0  0  3  0  0  0  0  0  0
  1  7  1  6  0  0  0
  1  2  1  0  0  0  0
  1 17  1  0  0  0  0
  2  8  1  0  0  0  0
  3 11  1  0  0  0  0
  3 10  1  0  0  0  0
  3  2  1  0  0  0  0
  4  3  1  0  0  0  0
  5  4  1  0  0  0  0
  5  6  1  0  0  0  0
  6 16  1  1  0  0  0
  6  1  1  0  0  0  0
  9  2  1  0  0  0  0
 12  4  1  0  0  0  0
 13  4  1  0  0  0  0
 14  5  1  0  0  0  0
 15  5  1  0  0  0  0
 17 22  2  0  0  0  0
 17 18  1  0  0  0  0
 18 19  2  0  0  0  0
 19 20  1  0  0  0  0
 19 24  1  0  0  0  0
 21 25  1  0  0  0  0
 21 20  2  0  0  0  0
 22 21  1  0  0  0  0
 23 18  1  0  0  0  0
 26 28  1  0  0  0  0
 27 26  2  0  0  0  0
 28  6  1  0  0  0  0
 28 29  1  0  0  0  0
 31 30  1  0  0  0  0
 32 26  1  0  0  0  0
 32 31  2  0  0  0  0
 33 32  1  0  0  0  0
 34 33  1  0  0  0  0
 35 33  2  0  0  0  0
 35 37  1  0  0  0  0
 36 35  1  0  0  0  0
 37 38  2  0  0  0  0
 38 31  1  0  0  0  0
M  END
>  <minimizedAffinity>
-5.6730957

$$$$

 OpenBabel03272509323D

 38 40  0  0  1  0  0  0  0  0999 V2000
   37.1240   27.5020   32.1620 C   0  0  2  0  0  0  0  0  0  0  0  0
   37.9470   27.0740   30.9830 C   0  0  0  0  0  0  0  0  0  0  0  0
   38.3900   28.2360   30.1240 C   0  0  0  0  0  0  0  0  0  0  0  0
   37.1990   29.0590   29.6540 C   0  0  0  0  0  0  0  0  0  0  0  0
   36.0830   29.1530   30.6650 C   0  0  0  0  0  0  0  0  0  0  0  0
   36.6980   28.9310   32.0620 C   0  0  1  0  0  0  0  0  0  0  0  0
   36.1820   26.8800   32.3020 H   0  0  0  0  0  0  0  0  0  0  0  0
   38.7380   26.3740   31.1560 H   0  0  0  0  0  0  0  0  0  0  0  0
   37.2040   26.5150   30.3200 H   0  0  0  0  0  0  0  0  0  0  0  0
   39.1600   28.8690   30.5640 H   0  0  0  0  0  0  0  0  0  0  0  0
   38.8370   27.7840   29.2150 H   0  0  0  0  0  0  0  0  0  0  0  0
   36.8550   28.7150   28.6530 H   0  0  0  0  0  0  0  0  0  0  0  0
   37.5800   30.0970   29.5140 H   0  0  0  0  0  0  0  0  0  0  0  0
   35.6000   30.1420   30.6060 H   0  0  0  0  0  0  0  0  0  0  0  0
   35.3510   28.3560   30.4830 H   0  0  0  0  0  0  0  0  0  0  0  0
   37.5350   29.5820   31.9940 H   0  0  0  0  0  0  0  0  0  0  0  0
   37.8650   27.3100   33.4320 C   0  0  0  0  0  0  0  0  0  0  0  0
   39.2580   27.1500   33.3060 C   0  0  0  0  0  0  0  0  0  0  0  0
   39.9820   26.9710   34.4900 C   0  0  0  0  0  0  0  0  0  0  0  0
   39.3090   26.9630   35.6870 N   0  0  0  0  0  0  0  0  0  0  0  0
   37.9450   27.1260   35.7550 C   0  0  0  0  0  0  0  0  0  0  0  0
   37.2490   27.2960   34.6190 N   0  0  0  0  0  0  0  0  0  0  0  0
   39.9080   27.1440   32.4550 H   0  0  0  0  0  0  0  0  0  0  0  0
   41.0530   26.8350   34.5430 H   0  0  0  0  0  0  0  0  0  0  0  0
   37.4680   27.1120   36.7200 H   0  0  0  0  0  0  0  0  0  0  0  0
   35.5690   30.7100   33.4800 C   0  0  0  0  0  0  0  0  0  0  0  0
   35.7620   31.8110   32.8220 O   0  0  0  0  0  0  0  0  0  0  0  0
   35.9090   29.3880   33.1430 N   0  0  0  0  0  0  0  0  0  0  0  0
   35.5030   28.6610   33.7730 H   0  0  0  0  0  0  0  0  0  0  0  0
   36.7570   32.1310   35.7620 F   0  0  0  0  0  0  0  0  0  0  0  0
   35.4730   31.7180   35.8010 C   0  0  0  0  0  0  0  0  0  0  0  0
   34.8810   31.0710   34.7410 C   0  0  0  0  0  0  0  0  0  0  0  0
   33.5680   30.7710   35.0080 C   0  0  0  0  0  0  0  0  0  0  0  0
   32.9650   30.2500   34.2480 H   0  0  0  0  0  0  0  0  0  0  0  0
   32.8730   31.0490   36.1600 C   0  0  0  0  0  0  0  0  0  0  0  0
   31.8400   30.7820   36.2980 H   0  0  0  0  0  0  0  0  0  0  0  0
   33.5500   31.6990   37.1670 C   0  0  0  0  0  3  0  0  0  0  0  0
   34.8580   32.0290   36.9710 C   0  0  0  0  0  3  0  0  0  0  0  0
  1  7  1  1  0  0  0
  1 17  1  0  0  0  0
  2  8  1  0  0  0  0
  2  1  1  0  0  0  0
  3 10  1  0  0  0  0
  3  2  1  0  0  0  0
  4  3  1  0  0  0  0
  4  5  1  0  0  0  0
  5  6  1  0  0  0  0
  6 16  1  1  0  0  0
  6  1  1  0  0  0  0
  6 28  1  0  0  0  0
  9  2  1  0  0  0  0
 11  3  1  0  0  0  0
 12  4  1  0  0  0  0
 13  4  1  0  0  0  0
 14  5  1  0  0  0  0
 15  5  1  0  0  0  0
 17 22  1  0  0  0  0
 18 17  2  0  0  0  0
 18 19  1  0  0  0  0
 19 24  1  0  0  0  0
 19 20  2  0  0  0  0
 20 21  1  0  0  0  0
 21 25  1  0  0  0  0
 22 21  2  0  0  0  0
 23 18  1  0  0  0  0
 26 32  1  0  0  0  0
 27 26  2  0  0  0  0
 28 26  1  0  0  0  0
 28 29  1  0  0  0  0
 30 31  1  0  0  0  0
 31 38  1  0  0  0  0
 32 33  1  0  0  0  0
 32 31  2  0  0  0  0
 33 35  2  0  0  0  0
 34 33  1  0  0  0  0
 35 36  1  0  0  0  0
 35 37  1  0  0  0  0
 38 37  2  0  0  0  0
M  END
>  <minimizedAffinity>
-5.66735935

$$$$

 OpenBabel03272509323D

 38 40  0  0  1  0  0  0  0  0999 V2000
   36.1440   25.8280   31.9930 C   0  0  2  0  0  0  0  0  0  0  0  0
   35.9250   26.6570   30.7630 C   0  0  0  0  0  0  0  0  0  0  0  0
   36.9510   27.7560   30.6070 C   0  0  0  0  0  0  0  0  0  0  0  0
   36.9890   28.6520   31.8370 C   0  0  0  0  0  0  0  0  0  0  0  0
   36.7470   27.9220   33.1340 C   0  0  0  0  0  0  0  0  0  0  0  0
   37.1410   26.4460   32.9200 C   0  0  1  0  0  0  0  0  0  0  0  0
   35.1920   25.6530   32.5930 H   0  0  0  0  0  0  0  0  0  0  0  0
   35.7410   26.1430   29.8430 H   0  0  0  0  0  0  0  0  0  0  0  0
   34.9560   27.2200   30.9810 H   0  0  0  0  0  0  0  0  0  0  0  0
   37.9500   27.4210   30.3310 H   0  0  0  0  0  0  0  0  0  0  0  0
   36.5890   28.3880   29.7710 H   0  0  0  0  0  0  0  0  0  0  0  0
   36.3230   29.5340   31.7000 H   0  0  0  0  0  0  0  0  0  0  0  0
   38.0280   29.0510   31.8940 H   0  0  0  0  0  0  0  0  0  0  0  0
   37.3490   28.3710   33.9410 H   0  0  0  0  0  0  0  0  0  0  0  0
   35.6790   27.9580   33.3860 H   0  0  0  0  0  0  0  0  0  0  0  0
   38.0810   26.5790   32.4450 H   0  0  0  0  0  0  0  0  0  0  0  0
   36.5970   24.4590   31.6460 C   0  0  0  0  0  0  0  0  0  0  0  0
   35.5780   23.4960   31.5180 C   0  0  0  0  0  0  0  0  0  0  0  0
   35.9770   22.1960   31.1870 C   0  0  0  0  0  0  0  0  0  0  0  0
   37.3140   21.9350   31.0080 N   0  0  0  0  0  0  0  0  0  0  0  0
   38.2690   22.9150   31.1440 C   0  0  0  0  0  0  0  0  0  0  0  0
   37.8870   24.1620   31.4630 N   0  0  0  0  0  0  0  0  0  0  0  0
   34.5140   23.5550   31.6180 H   0  0  0  0  0  0  0  0  0  0  0  0
   35.3060   21.3580   31.0580 H   0  0  0  0  0  0  0  0  0  0  0  0
   39.3030   22.6560   30.9920 H   0  0  0  0  0  0  0  0  0  0  0  0
   38.4420   25.8420   35.0150 C   0  0  0  0  0  0  0  0  0  0  0  0
   39.3740   26.7420   35.0820 O   0  0  0  0  0  0  0  0  0  0  0  0
   37.3790   25.7110   34.1050 N   0  0  0  0  0  0  0  0  0  0  0  0
   36.6740   24.9860   34.3610 H   0  0  0  0  0  0  0  0  0  0  0  0
   40.4120   23.6600   35.0540 F   0  0  0  0  0  0  0  0  0  0  0  0
   39.5910   23.8660   36.1060 C   0  0  0  0  0  0  0  0  0  0  0  0
   38.6750   24.8920   36.1270 C   0  0  0  0  0  0  0  0  0  0  0  0
   37.9740   24.9110   37.3080 C   0  0  0  0  0  0  0  0  0  0  0  0
   37.2020   25.6800   37.4680 H   0  0  0  0  0  0  0  0  0  0  0  0
   38.1150   24.0500   38.3690 C   0  0  0  0  0  0  0  0  0  0  0  0
   37.5270   24.1270   39.2660 H   0  0  0  0  0  0  0  0  0  0  0  0
   39.0570   23.0520   38.2540 C   0  0  0  0  0  3  0  0  0  0  0  0
   39.7930   22.9730   37.1090 C   0  0  0  0  0  3  0  0  0  0  0  0
  1  7  1  1  0  0  0
  1  6  1  0  0  0  0
  2  9  1  0  0  0  0
  2  1  1  0  0  0  0
  3  2  1  0  0  0  0
  3  4  1  0  0  0  0
  4 13  1  0  0  0  0
  4  5  1  0  0  0  0
  5 15  1  0  0  0  0
  5 14  1  0  0  0  0
  6 16  1  6  0  0  0
  6  5  1  0  0  0  0
  6 28  1  0  0  0  0
  8  2  1  0  0  0  0
 10  3  1  0  0  0  0
 11  3  1  0  0  0  0
 12  4  1  0  0  0  0
 17  1  1  0  0  0  0
 18 23  1  0  0  0  0
 18 17  1  0  0  0  0
 19 18  2  0  0  0  0
 20 21  2  0  0  0  0
 20 19  1  0  0  0  0
 21 22  1  0  0  0  0
 22 17  2  0  0  0  0
 24 19  1  0  0  0  0
 25 21  1  0  0  0  0
 26 27  2  0  0  0  0
 26 32  1  0  0  0  0
 28 29  1  0  0  0  0
 28 26  1  0  0  0  0
 30 31  1  0  0  0  0
 31 32  2  0  0  0  0
 31 38  1  0  0  0  0
 32 33  1  0  0  0  0
 33 34  1  0  0  0  0
 33 35  2  0  0  0  0
 35 36  1  0  0  0  0
 37 35  1  0  0  0  0
 38 37  2  0  0  0  0
M  END
>  <minimizedAffinity>
-5.66704512

$$$$

 OpenBabel03272509323D

 38 40  0  0  1  0  0  0  0  0999 V2000
   36.2600   25.4260   32.1360 C   0  0  2  0  0  0  0  0  0  0  0  0
   35.8160   26.3020   31.0030 C   0  0  0  0  0  0  0  0  0  0  0  0
   36.7690   27.4440   30.7360 C   0  0  0  0  0  0  0  0  0  0  0  0
   36.9870   28.2840   31.9860 C   0  0  0  0  0  0  0  0  0  0  0  0
   36.9860   27.4870   33.2670 C   0  0  0  0  0  0  0  0  0  0  0  0
   37.3800   26.0380   32.9150 C   0  0  1  0  0  0  0  0  0  0  0  0
   35.4280   25.1900   32.8750 H   0  0  0  0  0  0  0  0  0  0  0  0
   35.4950   25.8240   30.1010 H   0  0  0  0  0  0  0  0  0  0  0  0
   34.8810   26.8190   31.4070 H   0  0  0  0  0  0  0  0  0  0  0  0
   37.7180   27.1580   30.2810 H   0  0  0  0  0  0  0  0  0  0  0  0
   36.2550   28.0990   30.0040 H   0  0  0  0  0  0  0  0  0  0  0  0
   36.2820   29.1460   32.0070 H   0  0  0  0  0  0  0  0  0  0  0  0
   38.0090   28.7180   31.8910 H   0  0  0  0  0  0  0  0  0  0  0  0
   37.7020   27.9210   33.9840 H   0  0  0  0  0  0  0  0  0  0  0  0
   35.9750   27.4730   33.6940 H   0  0  0  0  0  0  0  0  0  0  0  0
   38.2240   26.2270   32.2980 H   0  0  0  0  0  0  0  0  0  0  0  0
   36.6880   24.0920   31.6500 C   0  0  0  0  0  0  0  0  0  0  0  0
   35.6760   23.1150   31.5870 C   0  0  0  0  0  0  0  0  0  0  0  0
   36.0510   21.8470   31.1280 C   0  0  0  0  0  0  0  0  0  0  0  0
   37.3590   21.6300   30.7690 N   0  0  0  0  0  0  0  0  0  0  0  0
   38.3080   22.6210   30.8480 C   0  0  0  0  0  0  0  0  0  0  0  0
   37.9500   23.8370   31.2900 N   0  0  0  0  0  0  0  0  0  0  0  0
   34.6320   23.1440   31.8210 H   0  0  0  0  0  0  0  0  0  0  0  0
   35.3820   21.0040   31.0300 H   0  0  0  0  0  0  0  0  0  0  0  0
   39.3190   22.3960   30.5530 H   0  0  0  0  0  0  0  0  0  0  0  0
   39.0470   25.3630   34.7080 C   0  0  0  0  0  0  0  0  0  0  0  0
   39.9740   26.2670   34.6370 O   0  0  0  0  0  0  0  0  0  0  0  0
   37.8340   25.2590   34.0050 N   0  0  0  0  0  0  0  0  0  0  0  0
   37.1890   24.5180   34.3580 H   0  0  0  0  0  0  0  0  0  0  0  0
   37.5210   24.5040   37.0690 F   0  0  0  0  0  0  0  0  0  0  0  0
   38.7520   24.0080   36.8270 C   0  0  0  0  0  0  0  0  0  0  0  0
   39.4820   24.3720   35.7190 C   0  0  0  0  0  0  0  0  0  0  0  0
   40.6890   23.7190   35.6800 C   0  0  0  0  0  0  0  0  0  0  0  0
   41.3830   23.9120   34.8470 H   0  0  0  0  0  0  0  0  0  0  0  0
   41.1710   22.8120   36.5910 C   0  0  0  0  0  0  0  0  0  0  0  0
   42.1320   22.3390   36.4940 H   0  0  0  0  0  0  0  0  0  0  0  0
   40.3690   22.5110   37.6700 C   0  0  0  0  0  3  0  0  0  0  0  0
   39.1540   23.1210   37.7740 C   0  0  0  0  0  3  0  0  0  0  0  0
  1  7  1  1  0  0  0
  1  6  1  0  0  0  0
  2  9  1  0  0  0  0
  2  1  1  0  0  0  0
  3  2  1  0  0  0  0
  3  4  1  0  0  0  0
  4 12  1  0  0  0  0
  4  5  1  0  0  0  0
  5 15  1  0  0  0  0
  5 14  1  0  0  0  0
  6 16  1  6  0  0  0
  6  5  1  0  0  0  0
  6 28  1  0  0  0  0
  8  2  1  0  0  0  0
 10  3  1  0  0  0  0
 11  3  1  0  0  0  0
 13  4  1  0  0  0  0
 17  1  1  0  0  0  0
 18 17  1  0  0  0  0
 18 23  1  0  0  0  0
 19 18  2  0  0  0  0
 20 21  2  0  0  0  0
 20 19  1  0  0  0  0
 21 22  1  0  0  0  0
 22 17  2  0  0  0  0
 24 19  1  0  0  0  0
 25 21  1  0  0  0  0
 26 32  1  0  0  0  0
 27 26  2  0  0  0  0
 28 29  1  0  0  0  0
 28 26  1  0  0  0  0
 31 30  1  0  0  0  0
 31 38  1  0  0  0  0
 32 31  2  0  0  0  0
 33 32  1  0  0  0  0
 33 35  2  0  0  0  0
 34 33  1  0  0  0  0
 35 37  1  0  0  0  0
 36 35  1  0  0  0  0
 37 38  2  0  0  0  0
M  END
>  <minimizedAffinity>
-5.57694054

$$$$

 OpenBabel03272509323D

 38 40  0  0  1  0  0  0  0  0999 V2000
   39.9110   24.6930   34.5980 C   0  0  2  0  0  0  0  0  0  0  0  0
   40.8030   25.8920   34.7310 C   0  0  0  0  0  0  0  0  0  0  0  0
   40.1530   27.1640   34.2380 C   0  0  0  0  0  0  0  0  0  0  0  0
   39.6860   27.0210   32.7960 C   0  0  0  0  0  0  0  0  0  0  0  0
   39.1800   25.6430   32.4510 C   0  0  0  0  0  0  0  0  0  0  0  0
   38.7070   24.9770   33.7590 C   0  0  1  0  0  0  0  0  0  0  0  0
   40.4340   23.7920   34.1410 H   0  0  0  0  0  0  0  0  0  0  0  0
   41.3120   26.0330   35.6620 H   0  0  0  0  0  0  0  0  0  0  0  0
   41.6340   25.7000   33.9710 H   0  0  0  0  0  0  0  0  0  0  0  0
   39.3580   27.5540   34.8740 H   0  0  0  0  0  0  0  0  0  0  0  0
   40.9560   27.9290   34.2330 H   0  0  0  0  0  0  0  0  0  0  0  0
   40.4680   27.3900   32.0930 H   0  0  0  0  0  0  0  0  0  0  0  0
   38.8160   27.7090   32.6850 H   0  0  0  0  0  0  0  0  0  0  0  0
   38.3490   25.7140   31.7290 H   0  0  0  0  0  0  0  0  0  0  0  0
   39.9980   25.0410   32.0360 H   0  0  0  0  0  0  0  0  0  0  0  0
   38.1300   25.7710   34.1640 H   0  0  0  0  0  0  0  0  0  0  0  0
   39.4650   24.2050   35.9260 C   0  0  0  0  0  0  0  0  0  0  0  0
   40.2720   23.2100   36.5100 C   0  0  0  0  0  0  0  0  0  0  0  0
   39.8770   22.7330   37.7650 C   0  0  0  0  0  0  0  0  0  0  0  0
   38.7460   23.2520   38.3470 N   0  0  0  0  0  0  0  0  0  0  0  0
   37.9940   24.2260   37.7340 C   0  0  0  0  0  0  0  0  0  0  0  0
   38.3720   24.6830   36.5290 N   0  0  0  0  0  0  0  0  0  0  0  0
   41.1690   22.7270   36.1830 H   0  0  0  0  0  0  0  0  0  0  0  0
   40.3980   21.9720   38.3280 H   0  0  0  0  0  0  0  0  0  0  0  0
   37.1170   24.5980   38.2360 H   0  0  0  0  0  0  0  0  0  0  0  0
   38.1140   22.6160   33.0370 C   0  0  0  0  0  0  0  0  0  0  0  0
   39.2490   22.0970   32.6830 O   0  0  0  0  0  0  0  0  0  0  0  0
   37.8340   23.8780   33.5900 N   0  0  0  0  0  0  0  0  0  0  0  0
   36.8550   23.9940   33.9320 H   0  0  0  0  0  0  0  0  0  0  0  0
   37.2760   21.6810   30.3790 F   0  0  0  0  0  0  0  0  0  0  0  0
   36.6830   21.2070   31.4940 C   0  0  0  0  0  0  0  0  0  0  0  0
   37.0680   21.6070   32.7530 C   0  0  0  0  0  0  0  0  0  0  0  0
   36.3350   20.9720   33.7250 C   0  0  0  0  0  0  0  0  0  0  0  0
   36.5330   21.1940   34.7850 H   0  0  0  0  0  0  0  0  0  0  0  0
   35.3340   20.0500   33.5380 C   0  0  0  0  0  0  0  0  0  0  0  0
   34.8010   19.5920   34.3530 H   0  0  0  0  0  0  0  0  0  0  0  0
   35.0180   19.7130   32.2410 C   0  0  0  0  0  3  0  0  0  0  0  0
   35.7060   20.3040   31.2230 C   0  0  0  0  0  3  0  0  0  0  0  0
  1  7  1  6  0  0  0
  1  2  1  0  0  0  0
  1 17  1  0  0  0  0
  2  8  1  0  0  0  0
  3  2  1  0  0  0  0
  3 10  1  0  0  0  0
  4  3  1  0  0  0  0
  5  4  1  0  0  0  0
  5  6  1  0  0  0  0
  6 16  1  1  0  0  0
  6  1  1  0  0  0  0
  9  2  1  0  0  0  0
 11  3  1  0  0  0  0
 12  4  1  0  0  0  0
 13  4  1  0  0  0  0
 14  5  1  0  0  0  0
 15  5  1  0  0  0  0
 17 18  2  0  0  0  0
 17 22  1  0  0  0  0
 18 19  1  0  0  0  0
 19 24  1  0  0  0  0
 19 20  2  0  0  0  0
 21 25  1  0  0  0  0
 21 20  1  0  0  0  0
 22 21  2  0  0  0  0
 23 18  1  0  0  0  0
 26 28  1  0  0  0  0
 27 26  2  0  0  0  0
 28  6  1  0  0  0  0
 28 29  1  0  0  0  0
 30 31  1  0  0  0  0
 31 32  1  0  0  0  0
 32 26  1  0  0  0  0
 32 33  2  0  0  0  0
 33 34  1  0  0  0  0
 35 33  1  0  0  0  0
 35 36  1  0  0  0  0
 37 35  2  0  0  0  0
 38 31  2  0  0  0  0
 38 37  1  0  0  0  0
M  END
>  <minimizedAffinity>
-5.5405035

$$$$

 OpenBabel03272509323D

 38 40  0  0  1  0  0  0  0  0999 V2000
   39.3600   25.5730   34.5810 C   0  0  2  0  0  0  0  0  0  0  0  0
   39.5310   26.8770   35.3010 C   0  0  0  0  0  0  0  0  0  0  0  0
   38.2260   27.4390   35.8170 C   0  0  0  0  0  0  0  0  0  0  0  0
   37.2110   27.5950   34.6930 C   0  0  0  0  0  0  0  0  0  0  0  0
   37.2920   26.5170   33.6410 C   0  0  0  0  0  0  0  0  0  0  0  0
   37.9240   25.2720   34.2960 C   0  0  1  0  0  0  0  0  0  0  0  0
   39.9150   25.5300   33.5890 H   0  0  0  0  0  0  0  0  0  0  0  0
   40.3160   26.9470   36.0260 H   0  0  0  0  0  0  0  0  0  0  0  0
   39.8320   27.6070   34.4750 H   0  0  0  0  0  0  0  0  0  0  0  0
   37.7970   26.9070   36.6660 H   0  0  0  0  0  0  0  0  0  0  0  0
   38.4600   28.4630   36.1730 H   0  0  0  0  0  0  0  0  0  0  0  0
   37.2510   28.6240   34.2700 H   0  0  0  0  0  0  0  0  0  0  0  0
   36.2080   27.4910   35.1690 H   0  0  0  0  0  0  0  0  0  0  0  0
   36.2850   26.2860   33.2570 H   0  0  0  0  0  0  0  0  0  0  0  0
   37.9490   26.8450   32.8250 H   0  0  0  0  0  0  0  0  0  0  0  0
   37.3510   25.2300   35.1890 H   0  0  0  0  0  0  0  0  0  0  0  0
   39.9400   24.4500   35.3580 C   0  0  0  0  0  0  0  0  0  0  0  0
   41.2550   24.0880   35.0130 C   0  0  0  0  0  0  0  0  0  0  0  0
   41.8290   23.0330   35.7320 C   0  0  0  0  0  0  0  0  0  0  0  0
   41.0920   22.4220   36.7170 N   0  0  0  0  0  0  0  0  0  0  0  0
   39.8100   22.8160   37.0150 C   0  0  0  0  0  0  0  0  0  0  0  0
   39.2580   23.8270   36.3250 N   0  0  0  0  0  0  0  0  0  0  0  0
   41.9420   24.4740   34.2870 H   0  0  0  0  0  0  0  0  0  0  0  0
   42.8270   22.6500   35.5740 H   0  0  0  0  0  0  0  0  0  0  0  0
   39.2780   22.3030   37.7980 H   0  0  0  0  0  0  0  0  0  0  0  0
   37.9300   23.7650   32.2510 C   0  0  0  0  0  0  0  0  0  0  0  0
   38.5240   24.4700   31.3380 O   0  0  0  0  0  0  0  0  0  0  0  0
   37.7020   24.0560   33.6080 N   0  0  0  0  0  0  0  0  0  0  0  0
   37.3390   23.2540   34.1690 H   0  0  0  0  0  0  0  0  0  0  0  0
   35.1640   22.7920   32.0460 F   0  0  0  0  0  0  0  0  0  0  0  0
   36.1880   22.0660   31.5500 C   0  0  0  0  0  0  0  0  0  0  0  0
   37.4910   22.5050   31.6100 C   0  0  0  0  0  0  0  0  0  0  0  0
   38.3480   21.6070   31.0220 C   0  0  0  0  0  0  0  0  0  0  0  0
   39.4270   21.8250   30.9960 H   0  0  0  0  0  0  0  0  0  0  0  0
   38.0180   20.4110   30.4340 C   0  0  0  0  0  0  0  0  0  0  0  0
   38.7480   19.7560   29.9920 H   0  0  0  0  0  0  0  0  0  0  0  0
   36.6880   20.0550   30.4230 C   0  0  0  0  0  3  0  0  0  0  0  0
   35.7780   20.8990   30.9890 C   0  0  0  0  0  3  0  0  0  0  0  0
  1  7  1  6  0  0  0
  1  2  1  0  0  0  0
  1 17  1  0  0  0  0
  2  3  1  0  0  0  0
  2  8  1  0  0  0  0
  3 11  1  0  0  0  0
  3 10  1  0  0  0  0
  4 13  1  0  0  0  0
  4  3  1  0  0  0  0
  5  6  1  0  0  0  0
  5  4  1  0  0  0  0
  6  1  1  0  0  0  0
  6 16  1  1  0  0  0
  9  2  1  0  0  0  0
 12  4  1  0  0  0  0
 14  5  1  0  0  0  0
 15  5  1  0  0  0  0
 17 22  1  0  0  0  0
 18 17  2  0  0  0  0
 18 19  1  0  0  0  0
 19 20  2  0  0  0  0
 20 21  1  0  0  0  0
 21 25  1  0  0  0  0
 22 21  2  0  0  0  0
 23 18  1  0  0  0  0
 24 19  1  0  0  0  0
 26 28  1  0  0  0  0
 27 26  2  0  0  0  0
 28 29  1  0  0  0  0
 28  6  1  0  0  0  0
 31 32  1  0  0  0  0
 31 30  1  0  0  0  0
 32 26  1  0  0  0  0
 33 32  2  0  0  0  0
 34 33  1  0  0  0  0
 35 33  1  0  0  0  0
 36 35  1  0  0  0  0
 37 35  2  0  0  0  0
 37 38  1  0  0  0  0
 38 31  2  0  0  0  0
M  END
>  <minimizedAffinity>
-5.47832489

$$$$

 OpenBabel03272509323D

 38 40  0  0  1  0  0  0  0  0999 V2000
   36.8760   27.0520   32.5060 C   0  0  2  0  0  0  0  0  0  0  0  0
   37.7670   26.5790   31.3960 C   0  0  0  0  0  0  0  0  0  0  0  0
   38.4230   27.7150   30.6460 C   0  0  0  0  0  0  0  0  0  0  0  0
   37.3860   28.6860   30.1000 C   0  0  0  0  0  0  0  0  0  0  0  0
   36.1860   28.8680   30.9960 C   0  0  0  0  0  0  0  0  0  0  0  0
   36.6220   28.5240   32.4350 C   0  0  1  0  0  0  0  0  0  0  0  0
   35.8610   26.5370   32.5190 H   0  0  0  0  0  0  0  0  0  0  0  0
   38.4540   25.7880   31.6130 H   0  0  0  0  0  0  0  0  0  0  0  0
   37.0420   26.1340   30.6340 H   0  0  0  0  0  0  0  0  0  0  0  0
   39.2060   28.2390   31.1930 H   0  0  0  0  0  0  0  0  0  0  0  0
   38.9120   27.2500   29.7650 H   0  0  0  0  0  0  0  0  0  0  0  0
   37.1150   28.4220   29.0530 H   0  0  0  0  0  0  0  0  0  0  0  0
   37.8910   29.6790   30.0510 H   0  0  0  0  0  0  0  0  0  0  0  0
   35.8230   29.9070   30.9380 H   0  0  0  0  0  0  0  0  0  0  0  0
   35.3940   28.1670   30.7010 H   0  0  0  0  0  0  0  0  0  0  0  0
   37.5270   29.0770   32.4850 H   0  0  0  0  0  0  0  0  0  0  0  0
   37.4520   26.7290   33.8330 C   0  0  0  0  0  0  0  0  0  0  0  0
   37.4910   25.3610   34.1620 C   0  0  0  0  0  0  0  0  0  0  0  0
   38.0330   25.0260   35.4090 C   0  0  0  0  0  0  0  0  0  0  0  0
   38.4890   26.0310   36.2260 N   0  0  0  0  0  0  0  0  0  0  0  0
   38.4290   27.3530   35.8560 C   0  0  0  0  0  0  0  0  0  0  0  0
   37.9080   27.6750   34.6610 N   0  0  0  0  0  0  0  0  0  0  0  0
   37.1860   24.4830   33.6300 H   0  0  0  0  0  0  0  0  0  0  0  0
   38.1250   24.0200   35.7910 H   0  0  0  0  0  0  0  0  0  0  0  0
   38.8020   28.1010   36.5350 H   0  0  0  0  0  0  0  0  0  0  0  0
   35.4980   30.3650   33.7760 C   0  0  0  0  0  0  0  0  0  0  0  0
   35.8190   31.4550   33.1500 O   0  0  0  0  0  0  0  0  0  0  0  0
   35.7770   29.0250   33.4520 N   0  0  0  0  0  0  0  0  0  0  0  0
   35.2720   28.3230   34.0370 H   0  0  0  0  0  0  0  0  0  0  0  0
   32.7300   29.6030   34.4050 F   0  0  0  0  0  0  0  0  0  0  0  0
   33.4280   30.4070   35.2340 C   0  0  0  0  0  0  0  0  0  0  0  0
   34.7330   30.7630   34.9790 C   0  0  0  0  0  0  0  0  0  0  0  0
   35.2350   31.5660   35.9730 C   0  0  0  0  0  0  0  0  0  0  0  0
   36.2710   31.9310   35.9040 H   0  0  0  0  0  0  0  0  0  0  0  0
   34.5790   31.9970   37.1000 C   0  0  0  0  0  0  0  0  0  0  0  0
   35.0400   32.6280   37.8400 H   0  0  0  0  0  0  0  0  0  0  0  0
   33.2740   31.5900   37.2690 C   0  0  0  0  0  3  0  0  0  0  0  0
   32.7090   30.7900   36.3210 C   0  0  0  0  0  3  0  0  0  0  0  0
  1  7  1  6  0  0  0
  1 17  1  0  0  0  0
  2  8  1  0  0  0  0
  2  1  1  0  0  0  0
  3 10  1  0  0  0  0
  3  2  1  0  0  0  0
  4  3  1  0  0  0  0
  4  5  1  0  0  0  0
  5  6  1  0  0  0  0
  6 16  1  1  0  0  0
  6  1  1  0  0  0  0
  6 28  1  0  0  0  0
  9  2  1  0  0  0  0
 11  3  1  0  0  0  0
 12  4  1  0  0  0  0
 13  4  1  0  0  0  0
 14  5  1  0  0  0  0
 15  5  1  0  0  0  0
 17 18  2  0  0  0  0
 17 22  1  0  0  0  0
 18 19  1  0  0  0  0
 19 24  1  0  0  0  0
 19 20  2  0  0  0  0
 21 20  1  0  0  0  0
 21 25  1  0  0  0  0
 22 21  2  0  0  0  0
 23 18  1  0  0  0  0
 26 32  1  0  0  0  0
 27 26  2  0  0  0  0
 28 26  1  0  0  0  0
 28 29  1  0  0  0  0
 30 31  1  0  0  0  0
 31 38  1  0  0  0  0
 32 31  2  0  0  0  0
 32 33  1  0  0  0  0
 33 35  2  0  0  0  0
 34 33  1  0  0  0  0
 35 37  1  0  0  0  0
 35 36  1  0  0  0  0
 38 37  2  0  0  0  0
M  END
>  <minimizedAffinity>
-5.4627347

$$$$

 OpenBabel03272509323D

 38 40  0  0  1  0  0  0  0  0999 V2000
   38.6440   26.1880   34.6430 C   0  0  2  0  0  0  0  0  0  0  0  0
   39.7660   27.1380   34.9380 C   0  0  0  0  0  0  0  0  0  0  0  0
   41.0970   26.6570   34.4070 C   0  0  0  0  0  0  0  0  0  0  0  0
   41.4350   25.2730   34.9400 C   0  0  0  0  0  0  0  0  0  0  0  0
   40.2370   24.3730   35.1110 C   0  0  0  0  0  0  0  0  0  0  0  0
   39.1400   24.8680   34.1470 C   0  0  1  0  0  0  0  0  0  0  0  0
   37.9810   25.9800   35.5440 H   0  0  0  0  0  0  0  0  0  0  0  0
   39.6030   28.1770   34.7400 H   0  0  0  0  0  0  0  0  0  0  0  0
   39.8870   27.0730   36.0720 H   0  0  0  0  0  0  0  0  0  0  0  0
   41.2050   26.7010   33.3230 H   0  0  0  0  0  0  0  0  0  0  0  0
   41.8550   27.3490   34.8270 H   0  0  0  0  0  0  0  0  0  0  0  0
   42.0600   25.3490   35.8590 H   0  0  0  0  0  0  0  0  0  0  0  0
   42.0760   24.7930   34.1650 H   0  0  0  0  0  0  0  0  0  0  0  0
   40.5100   23.3290   34.8860 H   0  0  0  0  0  0  0  0  0  0  0  0
   39.8540   24.4560   36.1370 H   0  0  0  0  0  0  0  0  0  0  0  0
   39.7160   24.9770   33.2620 H   0  0  0  0  0  0  0  0  0  0  0  0
   37.7080   26.7550   33.6420 C   0  0  0  0  0  0  0  0  0  0  0  0
   36.8120   27.7250   34.1290 C   0  0  0  0  0  0  0  0  0  0  0  0
   35.9190   28.2800   33.2050 C   0  0  0  0  0  0  0  0  0  0  0  0
   35.9660   27.8570   31.8990 N   0  0  0  0  0  0  0  0  0  0  0  0
   36.8640   26.9070   31.4740 C   0  0  0  0  0  0  0  0  0  0  0  0
   37.7200   26.3730   32.3610 N   0  0  0  0  0  0  0  0  0  0  0  0
   36.6700   28.1510   35.1010 H   0  0  0  0  0  0  0  0  0  0  0  0
   35.1780   29.0310   33.4380 H   0  0  0  0  0  0  0  0  0  0  0  0
   36.8580   26.6130   30.4380 H   0  0  0  0  0  0  0  0  0  0  0  0
   38.2400   22.6830   33.2150 C   0  0  0  0  0  0  0  0  0  0  0  0
   39.3020   22.0300   32.8550 O   0  0  0  0  0  0  0  0  0  0  0  0
   38.1240   23.9260   33.8610 N   0  0  0  0  0  0  0  0  0  0  0  0
   37.1580   24.1600   34.1820 H   0  0  0  0  0  0  0  0  0  0  0  0
   36.5290   21.1080   35.0130 F   0  0  0  0  0  0  0  0  0  0  0  0
   36.3030   21.1210   33.6830 C   0  0  0  0  0  0  0  0  0  0  0  0
   37.0710   21.8660   32.8180 C   0  0  0  0  0  0  0  0  0  0  0  0
   36.6350   21.7350   31.5230 C   0  0  0  0  0  0  0  0  0  0  0  0
   37.1570   22.2750   30.7180 H   0  0  0  0  0  0  0  0  0  0  0  0
   35.5800   20.9770   31.0770 C   0  0  0  0  0  0  0  0  0  0  0  0
   35.2960   20.9220   30.0410 H   0  0  0  0  0  0  0  0  0  0  0  0
   34.8700   20.2640   32.0170 C   0  0  0  0  0  3  0  0  0  0  0  0
   35.2460   20.3470   33.3250 C   0  0  0  0  0  3  0  0  0  0  0  0
  1  2  1  0  0  0  0
  1  7  1  1  0  0  0
  2  9  1  0  0  0  0
  3 11  1  0  0  0  0
  3  2  1  0  0  0  0
  3  4  1  0  0  0  0
  4  5  1  0  0  0  0
  4 12  1  0  0  0  0
  5 15  1  0  0  0  0
  6 16  1  6  0  0  0
  6  1  1  0  0  0  0
  6  5  1  0  0  0  0
  8  2  1  0  0  0  0
 10  3  1  0  0  0  0
 13  4  1  0  0  0  0
 14  5  1  0  0  0  0
 17 18  1  0  0  0  0
 17  1  1  0  0  0  0
 18 23  1  0  0  0  0
 19 24  1  0  0  0  0
 19 18  2  0  0  0  0
 20 19  1  0  0  0  0
 21 20  2  0  0  0  0
 21 22  1  0  0  0  0
 22 17  2  0  0  0  0
 25 21  1  0  0  0  0
 26 28  1  0  0  0  0
 27 26  2  0  0  0  0
 28  6  1  0  0  0  0
 28 29  1  0  0  0  0
 31 30  1  0  0  0  0
 32 26  1  0  0  0  0
 32 31  2  0  0  0  0
 33 32  1  0  0  0  0
 34 33  1  0  0  0  0
 35 33  2  0  0  0  0
 35 37  1  0  0  0  0
 36 35  1  0  0  0  0
 37 38  2  0  0  0  0
 38 31  1  0  0  0  0
M  END
>  <minimizedAffinity>
-5.34258556

$$$$
