
 OpenBabel03272509293D

 38 40  0  0  1  0  0  0  0  0999 V2000
   36.4430   30.7510   49.0220 C   0  0  2  0  0  0  0  0  0  0  0  0
   37.4000   31.5860   49.8190 C   0  0  0  0  0  0  0  0  0  0  0  0
   38.2270   30.7700   50.7850 C   0  0  0  0  0  0  0  0  0  0  0  0
   37.3410   29.9610   51.7210 C   0  0  0  0  0  0  0  0  0  0  0  0
   36.0750   29.4520   51.0790 C   0  0  0  0  0  0  0  0  0  0  0  0
   36.3260   29.3610   49.5600 C   0  0  1  0  0  0  0  0  0  0  0  0
   35.3910   31.1850   48.9840 H   0  0  0  0  0  0  0  0  0  0  0  0
   37.9890   32.3070   49.2920 H   0  0  0  0  0  0  0  0  0  0  0  0
   36.7220   32.2050   50.4990 H   0  0  0  0  0  0  0  0  0  0  0  0
   38.9920   30.1440   50.3250 H   0  0  0  0  0  0  0  0  0  0  0  0
   38.7620   31.5060   51.4190 H   0  0  0  0  0  0  0  0  0  0  0  0
   37.1580   30.5180   52.6680 H   0  0  0  0  0  0  0  0  0  0  0  0
   37.9330   29.0580   52.0000 H   0  0  0  0  0  0  0  0  0  0  0  0
   35.8120   28.4630   51.4890 H   0  0  0  0  0  0  0  0  0  0  0  0
   35.2600   30.1670   51.2490 H   0  0  0  0  0  0  0  0  0  0  0  0
   37.2660   28.8670   49.5640 H   0  0  0  0  0  0  0  0  0  0  0  0
   36.8470   30.6810   47.5970 C   0  0  0  0  0  0  0  0  0  0  0  0
   38.2170   30.8790   47.3440 C   0  0  0  0  0  0  0  0  0  0  0  0
   38.6280   30.8150   46.0070 C   0  0  0  0  0  0  0  0  0  0  0  0
   37.6900   30.5670   45.0350 N   0  0  0  0  0  0  0  0  0  0  0  0
   36.3620   30.3800   45.3370 C   0  0  0  0  0  0  0  0  0  0  0  0
   35.9670   30.4420   46.6190 N   0  0  0  0  0  0  0  0  0  0  0  0
   39.0490   31.0680   47.9900 H   0  0  0  0  0  0  0  0  0  0  0  0
   39.6450   30.9480   45.6670 H   0  0  0  0  0  0  0  0  0  0  0  0
   35.6690   30.1880   44.5360 H   0  0  0  0  0  0  0  0  0  0  0  0
   34.0470   28.3600   49.0580 C   0  0  0  0  0  0  0  0  0  0  0  0
   33.2350   29.0150   49.8310 O   0  0  0  0  0  0  0  0  0  0  0  0
   35.4270   28.5290   48.8530 N   0  0  0  0  0  0  0  0  0  0  0  0
   35.8190   27.9750   48.0600 H   0  0  0  0  0  0  0  0  0  0  0  0
   31.1310   28.0250   49.2130 F   0  0  0  0  0  0  0  0  0  0  0  0
   31.8830   27.1820   48.4750 C   0  0  0  0  0  0  0  0  0  0  0  0
   33.2470   27.3250   48.3640 C   0  0  0  0  0  0  0  0  0  0  0  0
   33.7850   26.3630   47.5470 C   0  0  0  0  0  0  0  0  0  0  0  0
   34.8710   26.3530   47.3640 H   0  0  0  0  0  0  0  0  0  0  0  0
   33.1130   25.3590   46.8930 C   0  0  0  0  0  0  0  0  0  0  0  0
   33.6050   24.6380   46.2650 H   0  0  0  0  0  0  0  0  0  0  0  0
   31.7490   25.2950   47.0660 C   0  0  0  0  0  3  0  0  0  0  0  0
   31.1430   26.2190   47.8660 C   0  0  0  0  0  3  0  0  0  0  0  0
  1  7  1  1  0  0  0
  1  6  1  0  0  0  0
  1  2  1  0  0  0  0
  2  9  1  0  0  0  0
  2  3  1  0  0  0  0
  3 11  1  0  0  0  0
  3  4  1  0  0  0  0
  4 13  1  0  0  0  0
  4 12  1  0  0  0  0
  5 15  1  0  0  0  0
  5 14  1  0  0  0  0
  5  4  1  0  0  0  0
  6 16  1  6  0  0  0
  6  5  1  0  0  0  0
  8  2  1  0  0  0  0
 10  3  1  0  0  0  0
 17  1  1  0  0  0  0
 18 17  1  0  0  0  0
 18 23  1  0  0  0  0
 19 18  2  0  0  0  0
 20 21  2  0  0  0  0
 20 19  1  0  0  0  0
 21 22  1  0  0  0  0
 22 17  2  0  0  0  0
 24 19  1  0  0  0  0
 25 21  1  0  0  0  0
 26 27  2  0  0  0  0
 28 26  1  0  0  0  0
 28  6  1  0  0  0  0
 29 28  1  0  0  0  0
 31 30  1  0  0  0  0
 32 31  1  0  0  0  0
 32 26  1  0  0  0  0
 33 32  2  0  0  0  0
 34 33  1  0  0  0  0
 35 37  2  0  0  0  0
 35 33  1  0  0  0  0
 36 35  1  0  0  0  0
 37 38  1  0  0  0  0
 38 31  2  0  0  0  0
M  END
>  <minimizedAffinity>
-6.49345636

>  <minimizedRMSD>
0.614911318

$$$$
