
 OpenBabel03272503253D

 32 34  0  0  1  0  0  0  0  0999 V2000
   39.0180   24.8840   34.6440 N   0  0  0  0  0  0  0  0  0  0  0  0
   38.0050   24.7600   33.6610 C   0  0  1  0  0  0  0  0  0  0  0  0
   38.0590   26.0310   32.8600 C   0  0  0  0  0  0  0  0  0  0  0  0
   39.2220   26.8290   33.5130 C   0  0  0  0  0  0  0  0  0  0  0  0
   40.0430   25.6970   34.0520 C   0  0  0  0  0  0  0  0  0  0  0  0
   36.9920   24.8080   34.2390 H   0  0  0  0  0  0  0  0  0  0  0  0
   37.1570   26.6510   33.0210 H   0  0  0  0  0  0  0  0  0  0  0  0
   38.2670   25.8760   31.7870 H   0  0  0  0  0  0  0  0  0  0  0  0
   39.7590   27.3270   32.6760 H   0  0  0  0  0  0  0  0  0  0  0  0
   38.8250   27.5180   34.2700 H   0  0  0  0  0  0  0  0  0  0  0  0
   40.5310   25.1960   33.1980 H   0  0  0  0  0  0  0  0  0  0  0  0
   40.8040   26.0140   34.7890 H   0  0  0  0  0  0  0  0  0  0  0  0
   38.9840   24.3140   35.9490 C   0  0  0  0  0  0  0  0  0  0  0  0
   38.0160   24.7210   36.8450 C   0  0  0  0  0  0  0  0  0  0  0  0
   37.9620   24.1610   38.1170 C   0  0  0  0  0  0  0  0  0  0  0  0
   38.9160   23.2040   38.4020 N   0  0  0  0  0  0  0  0  0  0  0  0
   39.8540   22.8210   37.5110 C   0  0  0  0  0  0  0  0  0  0  0  0
   39.8950   23.3780   36.2670 N   0  0  0  0  0  0  0  0  0  0  0  0
   37.2750   25.4540   36.6460 H   0  0  0  0  0  0  0  0  0  0  0  0
   37.2140   24.4610   38.8350 H   0  0  0  0  0  0  0  0  0  0  0  0
   40.5860   22.0790   37.7460 H   0  0  0  0  0  0  0  0  0  0  0  0
   37.9060   23.5350   32.9070 C   0  0  0  0  0  0  0  0  0  0  0  0
   38.7570   23.2400   32.0960 O   0  0  0  0  0  0  0  0  0  0  0  0
   37.3530   21.5580   34.9690 F   0  0  0  0  0  0  0  0  0  0  0  0
   36.6970   21.5290   33.8060 C   0  0  0  0  0  0  0  0  0  0  0  0
   36.9740   22.4140   32.7850 C   0  0  0  0  0  0  0  0  0  0  0  0
   36.2010   22.1600   31.6500 C   0  0  0  0  0  0  0  0  0  0  0  0
   36.3630   22.8200   30.7930 H   0  0  0  0  0  0  0  0  0  0  0  0
   35.2750   21.1780   31.5090 C   0  0  0  0  0  0  0  0  0  0  0  0
   34.7300   21.0700   30.5810 H   0  0  0  0  0  0  0  0  0  0  0  0
   35.0700   20.3550   32.5700 C   0  0  0  0  0  3  0  0  0  0  0  0
   35.7730   20.5110   33.7360 C   0  0  0  0  0  3  0  0  0  0  0  0
  1 13  1  0  0  0  0
  2  6  1  1  0  0  0
  2  1  1  0  0  0  0
  3  7  1  0  0  0  0
  3  4  1  0  0  0  0
  3  2  1  0  0  0  0
  4  5  1  0  0  0  0
  4 10  1  0  0  0  0
  5  1  1  0  0  0  0
  5 12  1  0  0  0  0
  8  3  1  0  0  0  0
  9  4  1  0  0  0  0
 11  5  1  0  0  0  0
 13 18  2  0  0  0  0
 13 14  1  0  0  0  0
 14 15  2  0  0  0  0
 15 16  1  0  0  0  0
 15 20  1  0  0  0  0
 17 21  1  0  0  0  0
 17 16  2  0  0  0  0
 18 17  1  0  0  0  0
 19 14  1  0  0  0  0
 22  2  1  0  0  0  0
 23 22  2  0  0  0  0
 25 24  1  0  0  0  0
 26 22  1  0  0  0  0
 26 25  2  0  0  0  0
 27 26  1  0  0  0  0
 28 27  1  0  0  0  0
 29 27  2  0  0  0  0
 29 31  1  0  0  0  0
 30 29  1  0  0  0  0
 31 32  2  0  0  0  0
 32 25  1  0  0  0  0
M  END
>  <minimizedAffinity>
-5.32360649

$$$$

 OpenBabel03272503253D

 32 34  0  0  1  0  0  0  0  0999 V2000
   38.6070   23.3380   36.3650 N   0  0  0  0  0  0  0  0  0  0  0  0
   37.9920   24.5570   36.7430 C   0  0  1  0  0  0  0  0  0  0  0  0
   37.9660   24.5500   38.2460 C   0  0  0  0  0  0  0  0  0  0  0  0
   38.6510   23.2060   38.6190 C   0  0  0  0  0  0  0  0  0  0  0  0
   39.5280   23.0190   37.4180 C   0  0  0  0  0  0  0  0  0  0  0  0
   36.8740   24.4650   36.4190 H   0  0  0  0  0  0  0  0  0  0  0  0
   36.9340   24.4650   38.6340 H   0  0  0  0  0  0  0  0  0  0  0  0
   38.5140   25.3900   38.7080 H   0  0  0  0  0  0  0  0  0  0  0  0
   39.2720   23.4180   39.5170 H   0  0  0  0  0  0  0  0  0  0  0  0
   37.8920   22.4270   38.7680 H   0  0  0  0  0  0  0  0  0  0  0  0
   40.3540   23.7480   37.4850 H   0  0  0  0  0  0  0  0  0  0  0  0
   39.9350   21.9950   37.3230 H   0  0  0  0  0  0  0  0  0  0  0  0
   38.3300   22.6010   35.1770 C   0  0  0  0  0  0  0  0  0  0  0  0
   39.2760   22.5470   34.1730 C   0  0  0  0  0  0  0  0  0  0  0  0
   39.0250   21.8180   33.0150 C   0  0  0  0  0  0  0  0  0  0  0  0
   37.8020   21.1780   32.9520 N   0  0  0  0  0  0  0  0  0  0  0  0
   36.8920   21.2450   33.9460 C   0  0  0  0  0  0  0  0  0  0  0  0
   37.1520   21.9630   35.0750 N   0  0  0  0  0  0  0  0  0  0  0  0
   40.2200   23.0310   34.2010 H   0  0  0  0  0  0  0  0  0  0  0  0
   39.7480   21.7590   32.2160 H   0  0  0  0  0  0  0  0  0  0  0  0
   35.9500   20.7440   33.8830 H   0  0  0  0  0  0  0  0  0  0  0  0
   38.4240   25.7830   36.1190 C   0  0  0  0  0  0  0  0  0  0  0  0
   38.2310   26.8510   36.6590 O   0  0  0  0  0  0  0  0  0  0  0  0
   37.2340   25.7110   33.4640 F   0  0  0  0  0  0  0  0  0  0  0  0
   38.4670   26.1920   33.6440 C   0  0  0  0  0  0  0  0  0  0  0  0
   39.0830   26.1900   34.8780 C   0  0  0  0  0  0  0  0  0  0  0  0
   40.3840   26.6930   34.8120 C   0  0  0  0  0  0  0  0  0  0  0  0
   40.9430   26.7220   35.7520 H   0  0  0  0  0  0  0  0  0  0  0  0
   41.0170   27.1460   33.7010 C   0  0  0  0  0  0  0  0  0  0  0  0
   42.0320   27.5170   33.7630 H   0  0  0  0  0  0  0  0  0  0  0  0
   40.3290   27.1110   32.5310 C   0  0  0  0  0  3  0  0  0  0  0  0
   39.0440   26.6360   32.4760 C   0  0  0  0  0  3  0  0  0  0  0  0
  1  2  1  0  0  0  0
  1  5  1  0  0  0  0
  2  6  1  6  0  0  0
  2  3  1  0  0  0  0
  3  4  1  0  0  0  0
  3  7  1  0  0  0  0
  3  8  1  0  0  0  0
  4 10  1  0  0  0  0
  4  9  1  0  0  0  0
  5 11  1  0  0  0  0
  5  4  1  0  0  0  0
 12  5  1  0  0  0  0
 13  1  1  0  0  0  0
 14 19  1  0  0  0  0
 14 13  2  0  0  0  0
 15 14  1  0  0  0  0
 16 15  2  0  0  0  0
 16 17  1  0  0  0  0
 17 18  2  0  0  0  0
 18 13  1  0  0  0  0
 20 15  1  0  0  0  0
 21 17  1  0  0  0  0
 22 23  2  0  0  0  0
 22  2  1  0  0  0  0
 24 25  1  0  0  0  0
 25 26  1  0  0  0  0
 26 22  1  0  0  0  0
 27 26  2  0  0  0  0
 27 28  1  0  0  0  0
 29 30  1  0  0  0  0
 29 27  1  0  0  0  0
 31 29  2  0  0  0  0
 32 31  1  0  0  0  0
 32 25  2  0  0  0  0
M  END
>  <minimizedAffinity>
-5.19555569

$$$$

 OpenBabel03272503253D

 32 34  0  0  1  0  0  0  0  0999 V2000
   38.8920   26.1220   33.3440 N   0  0  0  0  0  0  0  0  0  0  0  0
   39.7540   25.0080   33.4940 C   0  0  1  0  0  0  0  0  0  0  0  0
   41.1380   25.5800   33.6320 C   0  0  0  0  0  0  0  0  0  0  0  0
   40.9090   27.1160   33.5590 C   0  0  0  0  0  0  0  0  0  0  0  0
   39.5040   27.1940   34.0760 C   0  0  0  0  0  0  0  0  0  0  0  0
   39.7530   24.4620   32.4620 H   0  0  0  0  0  0  0  0  0  0  0  0
   41.7660   25.3400   32.7540 H   0  0  0  0  0  0  0  0  0  0  0  0
   41.6370   25.3210   34.5810 H   0  0  0  0  0  0  0  0  0  0  0  0
   41.6120   27.5650   34.2940 H   0  0  0  0  0  0  0  0  0  0  0  0
   41.0460   27.4670   32.5280 H   0  0  0  0  0  0  0  0  0  0  0  0
   39.5310   26.9960   35.1620 H   0  0  0  0  0  0  0  0  0  0  0  0
   39.0150   28.1660   33.8820 H   0  0  0  0  0  0  0  0  0  0  0  0
   37.6780   26.1390   32.5990 C   0  0  0  0  0  0  0  0  0  0  0  0
   36.9930   27.3270   32.4400 C   0  0  0  0  0  0  0  0  0  0  0  0
   35.8150   27.3600   31.7010 C   0  0  0  0  0  0  0  0  0  0  0  0
   35.4010   26.1580   31.1610 N   0  0  0  0  0  0  0  0  0  0  0  0
   36.0860   25.0090   31.3290 C   0  0  0  0  0  0  0  0  0  0  0  0
   37.2390   24.9910   32.0560 N   0  0  0  0  0  0  0  0  0  0  0  0
   37.2930   28.2600   32.8460 H   0  0  0  0  0  0  0  0  0  0  0  0
   35.2610   28.2760   31.5610 H   0  0  0  0  0  0  0  0  0  0  0  0
   35.7520   24.0860   30.9050 H   0  0  0  0  0  0  0  0  0  0  0  0
   39.4000   23.9670   34.4270 C   0  0  0  0  0  0  0  0  0  0  0  0
   39.1410   22.8500   34.0350 O   0  0  0  0  0  0  0  0  0  0  0  0
   37.3590   25.3100   36.0080 F   0  0  0  0  0  0  0  0  0  0  0  0
   38.1980   24.4400   36.5770 C   0  0  0  0  0  0  0  0  0  0  0  0
   39.2120   23.8290   35.8710 C   0  0  0  0  0  0  0  0  0  0  0  0
   39.9900   23.0030   36.6850 C   0  0  0  0  0  0  0  0  0  0  0  0
   40.8200   22.4820   36.1980 H   0  0  0  0  0  0  0  0  0  0  0  0
   39.8170   22.7870   38.0130 C   0  0  0  0  0  0  0  0  0  0  0  0
   40.4820   22.1230   38.5500 H   0  0  0  0  0  0  0  0  0  0  0  0
   38.7890   23.4320   38.6230 C   0  0  0  0  0  3  0  0  0  0  0  0
   37.9600   24.2690   37.9230 C   0  0  0  0  0  3  0  0  0  0  0  0
  1  2  1  0  0  0  0
  1  5  1  0  0  0  0
  2  6  1  6  0  0  0
  2  3  1  0  0  0  0
  2 22  1  0  0  0  0
  3  8  1  0  0  0  0
  4  3  1  0  0  0  0
  4  5  1  0  0  0  0
  4  9  1  0  0  0  0
  5 11  1  0  0  0  0
  7  3  1  0  0  0  0
 10  4  1  0  0  0  0
 12  5  1  0  0  0  0
 13  1  1  0  0  0  0
 14 13  1  0  0  0  0
 14 19  1  0  0  0  0
 15 14  2  0  0  0  0
 16 17  2  0  0  0  0
 16 15  1  0  0  0  0
 17 18  1  0  0  0  0
 18 13  2  0  0  0  0
 20 15  1  0  0  0  0
 21 17  1  0  0  0  0
 22 26  1  0  0  0  0
 23 22  2  0  0  0  0
 24 25  1  0  0  0  0
 25 32  1  0  0  0  0
 26 25  2  0  0  0  0
 26 27  1  0  0  0  0
 27 29  2  0  0  0  0
 28 27  1  0  0  0  0
 29 30  1  0  0  0  0
 29 31  1  0  0  0  0
 32 31  2  0  0  0  0
M  END
>  <minimizedAffinity>
-5.18033695

$$$$

 OpenBabel03272503253D

 32 34  0  0  1  0  0  0  0  0999 V2000
   38.2100   24.1870   36.0800 N   0  0  0  0  0  0  0  0  0  0  0  0
   39.2020   23.2460   35.7090 C   0  0  1  0  0  0  0  0  0  0  0  0
   39.6780   22.6290   36.9950 C   0  0  0  0  0  0  0  0  0  0  0  0
   38.8160   23.3310   38.0810 C   0  0  0  0  0  0  0  0  0  0  0  0
   37.6010   23.6670   37.2710 C   0  0  0  0  0  0  0  0  0  0  0  0
   40.1070   23.8720   35.3190 H   0  0  0  0  0  0  0  0  0  0  0  0
   40.7210   22.9180   37.2220 H   0  0  0  0  0  0  0  0  0  0  0  0
   39.5300   21.5370   37.0490 H   0  0  0  0  0  0  0  0  0  0  0  0
   38.5720   22.5480   38.8310 H   0  0  0  0  0  0  0  0  0  0  0  0
   39.3580   24.1950   38.4880 H   0  0  0  0  0  0  0  0  0  0  0  0
   37.0500   22.7290   37.0820 H   0  0  0  0  0  0  0  0  0  0  0  0
   36.9350   24.4040   37.7570 H   0  0  0  0  0  0  0  0  0  0  0  0
   37.9160   25.3990   35.3920 C   0  0  0  0  0  0  0  0  0  0  0  0
   38.1360   26.6090   36.0200 C   0  0  0  0  0  0  0  0  0  0  0  0
   37.8680   27.8010   35.3540 C   0  0  0  0  0  0  0  0  0  0  0  0
   37.3840   27.6830   34.0660 N   0  0  0  0  0  0  0  0  0  0  0  0
   37.1770   26.4890   33.4720 C   0  0  0  0  0  0  0  0  0  0  0  0
   37.4440   25.3300   34.1360 N   0  0  0  0  0  0  0  0  0  0  0  0
   38.5060   26.7220   37.0080 H   0  0  0  0  0  0  0  0  0  0  0  0
   38.0310   28.7590   35.8230 H   0  0  0  0  0  0  0  0  0  0  0  0
   36.8010   26.4140   32.4730 H   0  0  0  0  0  0  0  0  0  0  0  0
   38.9320   22.3330   34.6260 C   0  0  0  0  0  0  0  0  0  0  0  0
   39.8410   21.7790   34.0460 O   0  0  0  0  0  0  0  0  0  0  0  0
   36.6550   20.9840   35.8360 F   0  0  0  0  0  0  0  0  0  0  0  0
   36.6770   21.2370   34.5250 C   0  0  0  0  0  0  0  0  0  0  0  0
   37.7630   21.8230   33.9090 C   0  0  0  0  0  0  0  0  0  0  0  0
   37.5800   21.9400   32.5300 C   0  0  0  0  0  0  0  0  0  0  0  0
   38.4000   22.3950   31.9670 H   0  0  0  0  0  0  0  0  0  0  0  0
   36.4890   21.5470   31.8260 C   0  0  0  0  0  0  0  0  0  0  0  0
   36.4510   21.6870   30.7530 H   0  0  0  0  0  0  0  0  0  0  0  0
   35.4670   20.9820   32.5190 C   0  0  0  0  0  3  0  0  0  0  0  0
   35.5380   20.8150   33.8780 C   0  0  0  0  0  3  0  0  0  0  0  0
  1  5  1  0  0  0  0
  2  6  1  6  0  0  0
  2  1  1  0  0  0  0
  2  3  1  0  0  0  0
  3  8  1  0  0  0  0
  3  7  1  0  0  0  0
  3  4  1  0  0  0  0
  4 10  1  0  0  0  0
  4  9  1  0  0  0  0
  5 12  1  0  0  0  0
  5  4  1  0  0  0  0
 11  5  1  0  0  0  0
 13 14  1  0  0  0  0
 13  1  1  0  0  0  0
 14 19  1  0  0  0  0
 15 20  1  0  0  0  0
 15 14  2  0  0  0  0
 16 15  1  0  0  0  0
 17 16  2  0  0  0  0
 17 18  1  0  0  0  0
 18 13  2  0  0  0  0
 21 17  1  0  0  0  0
 22  2  1  0  0  0  0
 23 22  2  0  0  0  0
 25 24  1  0  0  0  0
 26 25  1  0  0  0  0
 26 22  1  0  0  0  0
 27 26  2  0  0  0  0
 28 27  1  0  0  0  0
 29 31  2  0  0  0  0
 29 27  1  0  0  0  0
 30 29  1  0  0  0  0
 31 32  1  0  0  0  0
 32 25  2  0  0  0  0
M  END
>  <minimizedAffinity>
-5.1413722

$$$$

 OpenBabel03272503253D

 32 34  0  0  1  0  0  0  0  0999 V2000
   39.1540   26.5280   33.8640 N   0  0  0  0  0  0  0  0  0  0  0  0
   39.3000   25.1450   33.5950 C   0  0  1  0  0  0  0  0  0  0  0  0
   40.7570   24.9410   33.2870 C   0  0  0  0  0  0  0  0  0  0  0  0
   41.3670   26.3620   33.4420 C   0  0  0  0  0  0  0  0  0  0  0  0
   40.4040   26.9530   34.4270 C   0  0  0  0  0  0  0  0  0  0  0  0
   38.7450   24.9560   32.5850 H   0  0  0  0  0  0  0  0  0  0  0  0
   40.9140   24.6740   32.2250 H   0  0  0  0  0  0  0  0  0  0  0  0
   41.2650   24.2400   33.9690 H   0  0  0  0  0  0  0  0  0  0  0  0
   42.3620   26.2180   33.9180 H   0  0  0  0  0  0  0  0  0  0  0  0
   41.4010   26.8640   32.4650 H   0  0  0  0  0  0  0  0  0  0  0  0
   40.5980   26.4890   35.4100 H   0  0  0  0  0  0  0  0  0  0  0  0
   40.4750   28.0530   34.5100 H   0  0  0  0  0  0  0  0  0  0  0  0
   37.9920   27.3080   33.6020 C   0  0  0  0  0  0  0  0  0  0  0  0
   37.2060   27.7370   34.6540 C   0  0  0  0  0  0  0  0  0  0  0  0
   36.0770   28.5120   34.4120 C   0  0  0  0  0  0  0  0  0  0  0  0
   35.8130   28.8080   33.0890 N   0  0  0  0  0  0  0  0  0  0  0  0
   36.5950   28.3780   32.0760 C   0  0  0  0  0  0  0  0  0  0  0  0
   37.6980   27.6190   32.3280 N   0  0  0  0  0  0  0  0  0  0  0  0
   37.3910   27.5210   35.6760 H   0  0  0  0  0  0  0  0  0  0  0  0
   35.4480   28.8600   35.2170 H   0  0  0  0  0  0  0  0  0  0  0  0
   36.3770   28.6150   31.0560 H   0  0  0  0  0  0  0  0  0  0  0  0
   38.6990   24.1900   34.4930 C   0  0  0  0  0  0  0  0  0  0  0  0
   37.9120   23.3660   34.0800 O   0  0  0  0  0  0  0  0  0  0  0  0
   40.5450   22.3520   35.7910 F   0  0  0  0  0  0  0  0  0  0  0  0
   39.6590   23.0470   36.5100 C   0  0  0  0  0  0  0  0  0  0  0  0
   38.7320   23.8820   35.9230 C   0  0  0  0  0  0  0  0  0  0  0  0
   37.8790   24.4590   36.8660 C   0  0  0  0  0  0  0  0  0  0  0  0
   37.1120   25.1360   36.4790 H   0  0  0  0  0  0  0  0  0  0  0  0
   37.9110   24.2620   38.2080 C   0  0  0  0  0  0  0  0  0  0  0  0
   37.1990   24.7630   38.8510 H   0  0  0  0  0  0  0  0  0  0  0  0
   38.8610   23.4230   38.6950 C   0  0  0  0  0  3  0  0  0  0  0  0
   39.7520   22.7990   37.8610 C   0  0  0  0  0  3  0  0  0  0  0  0
  1  5  1  0  0  0  0
  2  6  1  6  0  0  0
  2  1  1  0  0  0  0
  2 22  1  0  0  0  0
  3  4  1  0  0  0  0
  3  2  1  0  0  0  0
  3  8  1  0  0  0  0
  4  9  1  0  0  0  0
  4  5  1  0  0  0  0
  5 12  1  0  0  0  0
  5 11  1  0  0  0  0
  7  3  1  0  0  0  0
 10  4  1  0  0  0  0
 13  1  1  0  0  0  0
 13 14  1  0  0  0  0
 14 19  1  0  0  0  0
 15 14  2  0  0  0  0
 15 20  1  0  0  0  0
 16 15  1  0  0  0  0
 17 18  1  0  0  0  0
 17 16  2  0  0  0  0
 18 13  2  0  0  0  0
 21 17  1  0  0  0  0
 22 26  1  0  0  0  0
 23 22  2  0  0  0  0
 24 25  1  0  0  0  0
 25 32  1  0  0  0  0
 26 25  2  0  0  0  0
 26 27  1  0  0  0  0
 27 29  2  0  0  0  0
 28 27  1  0  0  0  0
 29 31  1  0  0  0  0
 29 30  1  0  0  0  0
 32 31  2  0  0  0  0
M  END
>  <minimizedAffinity>
-5.11937428

$$$$

 OpenBabel03272503253D

 32 34  0  0  1  0  0  0  0  0999 V2000
   37.2240   25.2530   32.4900 N   0  0  0  0  0  0  0  0  0  0  0  0
   38.1980   25.7130   33.4110 C   0  0  1  0  0  0  0  0  0  0  0  0
   38.5260   27.1180   32.9880 C   0  0  0  0  0  0  0  0  0  0  0  0
   37.6070   27.3560   31.7570 C   0  0  0  0  0  0  0  0  0  0  0  0
   36.4860   26.4150   32.0840 C   0  0  0  0  0  0  0  0  0  0  0  0
   39.1640   25.0950   33.1890 H   0  0  0  0  0  0  0  0  0  0  0  0
   39.5580   27.1940   32.5960 H   0  0  0  0  0  0  0  0  0  0  0  0
   38.3210   27.8780   33.7610 H   0  0  0  0  0  0  0  0  0  0  0  0
   37.2580   28.4090   31.8350 H   0  0  0  0  0  0  0  0  0  0  0  0
   38.1520   27.1270   30.8320 H   0  0  0  0  0  0  0  0  0  0  0  0
   35.9090   26.8540   32.9170 H   0  0  0  0  0  0  0  0  0  0  0  0
   35.8170   26.2100   31.2290 H   0  0  0  0  0  0  0  0  0  0  0  0
   37.0540   23.9040   32.0650 C   0  0  0  0  0  0  0  0  0  0  0  0
   38.1290   23.0390   32.0970 C   0  0  0  0  0  0  0  0  0  0  0  0
   37.9720   21.7150   31.7000 C   0  0  0  0  0  0  0  0  0  0  0  0
   36.7060   21.3490   31.2880 N   0  0  0  0  0  0  0  0  0  0  0  0
   35.6690   22.2120   31.2650 C   0  0  0  0  0  0  0  0  0  0  0  0
   35.8370   23.5060   31.6570 N   0  0  0  0  0  0  0  0  0  0  0  0
   39.1090   23.3000   32.4090 H   0  0  0  0  0  0  0  0  0  0  0  0
   38.7970   21.0190   31.7160 H   0  0  0  0  0  0  0  0  0  0  0  0
   34.6940   21.9130   30.9430 H   0  0  0  0  0  0  0  0  0  0  0  0
   37.9810   25.5070   34.8210 C   0  0  0  0  0  0  0  0  0  0  0  0
   37.2330   26.2300   35.4420 O   0  0  0  0  0  0  0  0  0  0  0  0
   40.2860   23.7420   34.6130 F   0  0  0  0  0  0  0  0  0  0  0  0
   39.5880   23.8190   35.7500 C   0  0  0  0  0  0  0  0  0  0  0  0
   38.4580   24.6000   35.8660 C   0  0  0  0  0  0  0  0  0  0  0  0
   37.8690   24.4810   37.1260 C   0  0  0  0  0  0  0  0  0  0  0  0
   36.9640   25.0710   37.2980 H   0  0  0  0  0  0  0  0  0  0  0  0
   38.3090   23.7100   38.1520 C   0  0  0  0  0  0  0  0  0  0  0  0
   37.7730   23.6930   39.0920 H   0  0  0  0  0  0  0  0  0  0  0  0
   39.4320   22.9750   37.9440 C   0  0  0  0  0  3  0  0  0  0  0  0
   40.0940   23.0130   36.7450 C   0  0  0  0  0  3  0  0  0  0  0  0
  1  2  1  0  0  0  0
  2  6  1  6  0  0  0
  2 22  1  0  0  0  0
  3  2  1  0  0  0  0
  3  8  1  0  0  0  0
  4  9  1  0  0  0  0
  4  5  1  0  0  0  0
  4  3  1  0  0  0  0
  5  1  1  0  0  0  0
  5 11  1  0  0  0  0
  7  3  1  0  0  0  0
 10  4  1  0  0  0  0
 12  5  1  0  0  0  0
 13 14  1  0  0  0  0
 13  1  1  0  0  0  0
 14 19  1  0  0  0  0
 15 20  1  0  0  0  0
 15 14  2  0  0  0  0
 16 15  1  0  0  0  0
 17 16  2  0  0  0  0
 17 18  1  0  0  0  0
 18 13  2  0  0  0  0
 21 17  1  0  0  0  0
 22 23  2  0  0  0  0
 22 26  1  0  0  0  0
 24 25  1  0  0  0  0
 25 26  2  0  0  0  0
 25 32  1  0  0  0  0
 26 27  1  0  0  0  0
 27 28  1  0  0  0  0
 27 29  2  0  0  0  0
 29 30  1  0  0  0  0
 31 29  1  0  0  0  0
 32 31  2  0  0  0  0
M  END
>  <minimizedAffinity>
-5.07373047

$$$$

 OpenBabel03272503253D

 32 34  0  0  1  0  0  0  0  0999 V2000
   38.0870   25.7030   34.1260 N   0  0  0  0  0  0  0  0  0  0  0  0
   39.5010   25.7860   34.1220 C   0  0  1  0  0  0  0  0  0  0  0  0
   39.8480   26.8810   35.0920 C   0  0  0  0  0  0  0  0  0  0  0  0
   38.4650   27.3520   35.6230 C   0  0  0  0  0  0  0  0  0  0  0  0
   37.6750   26.0910   35.4450 C   0  0  0  0  0  0  0  0  0  0  0  0
   39.7930   26.2070   33.0720 H   0  0  0  0  0  0  0  0  0  0  0  0
   40.2740   27.7620   34.5770 H   0  0  0  0  0  0  0  0  0  0  0  0
   40.4790   26.5500   35.9350 H   0  0  0  0  0  0  0  0  0  0  0  0
   38.6080   27.5630   36.7060 H   0  0  0  0  0  0  0  0  0  0  0  0
   38.1110   28.2100   35.0380 H   0  0  0  0  0  0  0  0  0  0  0  0
   38.0060   25.3710   36.2140 H   0  0  0  0  0  0  0  0  0  0  0  0
   36.5810   26.2400   35.5150 H   0  0  0  0  0  0  0  0  0  0  0  0
   37.2740   25.3220   33.0200 C   0  0  0  0  0  0  0  0  0  0  0  0
   36.6100   26.2930   32.2960 C   0  0  0  0  0  0  0  0  0  0  0  0
   35.8250   25.9350   31.2040 C   0  0  0  0  0  0  0  0  0  0  0  0
   35.7640   24.5860   30.9150 N   0  0  0  0  0  0  0  0  0  0  0  0
   36.4200   23.6550   31.6370 C   0  0  0  0  0  0  0  0  0  0  0  0
   37.1860   24.0190   32.7030 N   0  0  0  0  0  0  0  0  0  0  0  0
   36.6440   27.3330   32.5020 H   0  0  0  0  0  0  0  0  0  0  0  0
   35.2980   26.6750   30.6220 H   0  0  0  0  0  0  0  0  0  0  0  0
   36.3630   22.6130   31.4000 H   0  0  0  0  0  0  0  0  0  0  0  0
   40.2750   24.5740   34.2260 C   0  0  0  0  0  0  0  0  0  0  0  0
   40.6890   24.0190   33.2310 O   0  0  0  0  0  0  0  0  0  0  0  0
   38.6020   22.9530   35.9690 F   0  0  0  0  0  0  0  0  0  0  0  0
   39.9330   22.8920   36.0560 C   0  0  0  0  0  0  0  0  0  0  0  0
   40.7560   23.6880   35.2860 C   0  0  0  0  0  0  0  0  0  0  0  0
   42.1050   23.4880   35.5870 C   0  0  0  0  0  0  0  0  0  0  0  0
   42.8230   24.0850   35.0180 H   0  0  0  0  0  0  0  0  0  0  0  0
   42.6060   22.6300   36.5100 C   0  0  0  0  0  0  0  0  0  0  0  0
   43.6750   22.5540   36.6620 H   0  0  0  0  0  0  0  0  0  0  0  0
   41.7180   21.8860   37.2190 C   0  0  0  0  0  3  0  0  0  0  0  0
   40.3680   22.0000   37.0100 C   0  0  0  0  0  3  0  0  0  0  0  0
  1  5  1  0  0  0  0
  2  6  1  6  0  0  0
  2  1  1  0  0  0  0
  2 22  1  0  0  0  0
  2  3  1  0  0  0  0
  3  4  1  0  0  0  0
  3  8  1  0  0  0  0
  4  9  1  0  0  0  0
  5 12  1  0  0  0  0
  5  4  1  0  0  0  0
  5 11  1  0  0  0  0
  7  3  1  0  0  0  0
 10  4  1  0  0  0  0
 13  1  1  0  0  0  0
 14 19  1  0  0  0  0
 14 13  2  0  0  0  0
 15 14  1  0  0  0  0
 16 15  2  0  0  0  0
 16 17  1  0  0  0  0
 17 18  2  0  0  0  0
 18 13  1  0  0  0  0
 20 15  1  0  0  0  0
 21 17  1  0  0  0  0
 22 26  1  0  0  0  0
 23 22  2  0  0  0  0
 24 25  1  0  0  0  0
 25 32  1  0  0  0  0
 26 27  1  0  0  0  0
 26 25  2  0  0  0  0
 27 29  2  0  0  0  0
 28 27  1  0  0  0  0
 29 30  1  0  0  0  0
 29 31  1  0  0  0  0
 32 31  2  0  0  0  0
M  END
>  <minimizedAffinity>
-5.05955648

$$$$

 OpenBabel03272503253D

 32 34  0  0  1  0  0  0  0  0999 V2000
   38.8000   23.9730   34.5160 N   0  0  0  0  0  0  0  0  0  0  0  0
   39.6300   24.8790   33.8100 C   0  0  1  0  0  0  0  0  0  0  0  0
   39.8320   24.2710   32.4500 C   0  0  0  0  0  0  0  0  0  0  0  0
   39.0030   22.9570   32.5080 C   0  0  0  0  0  0  0  0  0  0  0  0
   37.9730   23.3450   33.5250 C   0  0  0  0  0  0  0  0  0  0  0  0
   40.6750   24.8230   34.3270 H   0  0  0  0  0  0  0  0  0  0  0  0
   40.8780   23.9450   32.3020 H   0  0  0  0  0  0  0  0  0  0  0  0
   39.4740   24.9020   31.6190 H   0  0  0  0  0  0  0  0  0  0  0  0
   38.5310   22.8480   31.5070 H   0  0  0  0  0  0  0  0  0  0  0  0
   39.6500   22.1180   32.7970 H   0  0  0  0  0  0  0  0  0  0  0  0
   37.2780   24.0580   33.0480 H   0  0  0  0  0  0  0  0  0  0  0  0
   37.4090   22.4860   33.9340 H   0  0  0  0  0  0  0  0  0  0  0  0
   38.8210   23.7490   35.9220 C   0  0  0  0  0  0  0  0  0  0  0  0
   39.8550   23.0240   36.4810 C   0  0  0  0  0  0  0  0  0  0  0  0
   39.8970   22.8110   37.8550 C   0  0  0  0  0  0  0  0  0  0  0  0
   38.8630   23.3610   38.5870 N   0  0  0  0  0  0  0  0  0  0  0  0
   37.8620   24.0660   38.0200 C   0  0  0  0  0  0  0  0  0  0  0  0
   37.8340   24.2670   36.6730 N   0  0  0  0  0  0  0  0  0  0  0  0
   40.6580   22.5940   35.9360 H   0  0  0  0  0  0  0  0  0  0  0  0
   40.6940   22.2480   38.3150 H   0  0  0  0  0  0  0  0  0  0  0  0
   37.0680   24.4850   38.6010 H   0  0  0  0  0  0  0  0  0  0  0  0
   39.3150   26.2860   33.8380 C   0  0  0  0  0  0  0  0  0  0  0  0
   40.1680   27.1040   34.1030 O   0  0  0  0  0  0  0  0  0  0  0  0
   37.6130   27.3380   35.9510 F   0  0  0  0  0  0  0  0  0  0  0  0
   37.3880   27.6580   34.6740 C   0  0  0  0  0  0  0  0  0  0  0  0
   38.1380   27.1330   33.6430 C   0  0  0  0  0  0  0  0  0  0  0  0
   37.6870   27.5690   32.3950 C   0  0  0  0  0  0  0  0  0  0  0  0
   38.2310   27.1950   31.5230 H   0  0  0  0  0  0  0  0  0  0  0  0
   36.6460   28.4070   32.1630 C   0  0  0  0  0  0  0  0  0  0  0  0
   36.3810   28.6820   31.1500 H   0  0  0  0  0  0  0  0  0  0  0  0
   35.9670   28.8750   33.2420 C   0  0  0  0  0  3  0  0  0  0  0  0
   36.3200   28.5130   34.5160 C   0  0  0  0  0  3  0  0  0  0  0  0
  1 13  1  0  0  0  0
  2 22  1  0  0  0  0
  2  6  1  1  0  0  0
  2  1  1  0  0  0  0
  3  4  1  0  0  0  0
  3  2  1  0  0  0  0
  4 10  1  0  0  0  0
  4  5  1  0  0  0  0
  5 12  1  0  0  0  0
  5  1  1  0  0  0  0
  7  3  1  0  0  0  0
  8  3  1  0  0  0  0
  9  4  1  0  0  0  0
 11  5  1  0  0  0  0
 13 14  2  0  0  0  0
 13 18  1  0  0  0  0
 14 15  1  0  0  0  0
 15 20  1  0  0  0  0
 15 16  2  0  0  0  0
 17 16  1  0  0  0  0
 17 21  1  0  0  0  0
 18 17  2  0  0  0  0
 19 14  1  0  0  0  0
 22 23  2  0  0  0  0
 25 24  1  0  0  0  0
 26 22  1  0  0  0  0
 26 25  2  0  0  0  0
 27 26  1  0  0  0  0
 28 27  1  0  0  0  0
 29 27  2  0  0  0  0
 29 31  1  0  0  0  0
 30 29  1  0  0  0  0
 31 32  2  0  0  0  0
 32 25  1  0  0  0  0
M  END
>  <minimizedAffinity>
-5.04543781

$$$$

 OpenBabel03272503253D

 32 34  0  0  1  0  0  0  0  0999 V2000
   38.6330   26.9540   33.2260 N   0  0  0  0  0  0  0  0  0  0  0  0
   38.3520   26.5010   34.5390 C   0  0  1  0  0  0  0  0  0  0  0  0
   37.0420   27.1350   34.9160 C   0  0  0  0  0  0  0  0  0  0  0  0
   36.6530   27.9540   33.6530 C   0  0  0  0  0  0  0  0  0  0  0  0
   37.3580   27.1560   32.5990 C   0  0  0  0  0  0  0  0  0  0  0  0
   39.1450   27.0100   35.2290 H   0  0  0  0  0  0  0  0  0  0  0  0
   37.1690   27.8850   35.7180 H   0  0  0  0  0  0  0  0  0  0  0  0
   36.2450   26.4090   35.1510 H   0  0  0  0  0  0  0  0  0  0  0  0
   35.5520   27.8430   33.5440 H   0  0  0  0  0  0  0  0  0  0  0  0
   36.9950   28.9910   33.7590 H   0  0  0  0  0  0  0  0  0  0  0  0
   36.8060   26.2090   32.4630 H   0  0  0  0  0  0  0  0  0  0  0  0
   37.4470   27.6820   31.6300 H   0  0  0  0  0  0  0  0  0  0  0  0
   39.9320   27.1670   32.6810 C   0  0  0  0  0  0  0  0  0  0  0  0
   41.0200   27.2570   33.5270 C   0  0  0  0  0  0  0  0  0  0  0  0
   42.2950   27.4490   33.0060 C   0  0  0  0  0  0  0  0  0  0  0  0
   42.3840   27.5410   31.6310 N   0  0  0  0  0  0  0  0  0  0  0  0
   41.3070   27.4500   30.8230 C   0  0  0  0  0  0  0  0  0  0  0  0
   40.0630   27.2610   31.3470 N   0  0  0  0  0  0  0  0  0  0  0  0
   40.9730   27.1890   34.5850 H   0  0  0  0  0  0  0  0  0  0  0  0
   43.1610   27.5220   33.6460 H   0  0  0  0  0  0  0  0  0  0  0  0
   41.3920   27.5230   29.7600 H   0  0  0  0  0  0  0  0  0  0  0  0
   38.4920   25.0990   34.8420 C   0  0  0  0  0  0  0  0  0  0  0  0
   37.9330   24.2630   34.1650 O   0  0  0  0  0  0  0  0  0  0  0  0
   37.4080   24.3830   37.4470 F   0  0  0  0  0  0  0  0  0  0  0  0
   38.5920   23.9090   37.0490 C   0  0  0  0  0  0  0  0  0  0  0  0
   39.1610   24.2720   35.8470 C   0  0  0  0  0  0  0  0  0  0  0  0
   40.4200   23.6940   35.6710 C   0  0  0  0  0  0  0  0  0  0  0  0
   40.9400   23.9350   34.7390 H   0  0  0  0  0  0  0  0  0  0  0  0
   41.0560   22.8670   36.5380 C   0  0  0  0  0  0  0  0  0  0  0  0
   42.0350   22.4740   36.3000 H   0  0  0  0  0  0  0  0  0  0  0  0
   40.4150   22.5650   37.6970 C   0  0  0  0  0  3  0  0  0  0  0  0
   39.1750   23.0760   37.9770 C   0  0  0  0  0  3  0  0  0  0  0  0
  1  2  1  0  0  0  0
  2 22  1  0  0  0  0
  2  3  1  0  0  0  0
  2  6  1  1  0  0  0
  3  8  1  0  0  0  0
  3  7  1  0  0  0  0
  4 10  1  0  0  0  0
  4  3  1  0  0  0  0
  5  1  1  0  0  0  0
  5  4  1  0  0  0  0
  9  4  1  0  0  0  0
 11  5  1  0  0  0  0
 12  5  1  0  0  0  0
 13  1  1  0  0  0  0
 13 14  1  0  0  0  0
 14 19  1  0  0  0  0
 15 14  2  0  0  0  0
 15 20  1  0  0  0  0
 16 15  1  0  0  0  0
 17 18  1  0  0  0  0
 17 16  2  0  0  0  0
 18 13  2  0  0  0  0
 21 17  1  0  0  0  0
 22 26  1  0  0  0  0
 23 22  2  0  0  0  0
 25 24  1  0  0  0  0
 25 32  1  0  0  0  0
 26 25  2  0  0  0  0
 27 26  1  0  0  0  0
 27 29  2  0  0  0  0
 28 27  1  0  0  0  0
 29 31  1  0  0  0  0
 30 29  1  0  0  0  0
 31 32  2  0  0  0  0
M  END
>  <minimizedAffinity>
-4.99475336

$$$$
