
 OpenBabel03272507403D

 41 44  0  0  0  0  0  0  0  0999 V2000
   36.5750   30.9960   49.8160 C   0  0  0  0  0  0  0  0  0  0  0  0
   35.4490   30.1690   49.9080 C   0  0  0  0  0  0  0  0  0  0  0  0
   35.2900   29.2540   50.9100 C   0  0  0  0  0  0  0  0  0  0  0  0
   36.2820   29.1720   51.8380 N   0  0  0  0  0  0  0  0  0  0  0  0
   37.3830   29.9750   51.7540 C   0  0  0  0  0  0  0  0  0  0  0  0
   37.5080   30.8550   50.7670 N   0  0  0  0  0  0  0  0  0  0  0  0
   34.4710   28.5980   51.0460 H   0  0  0  0  0  0  0  0  0  0  0  0
   38.1330   29.8560   52.5250 H   0  0  0  0  0  0  0  0  0  0  0  0
   34.1100   29.0610   48.1560 C   0  0  0  0  0  0  0  0  0  0  0  0
   34.8040   27.9680   47.9460 O   0  0  0  0  0  0  0  0  0  0  0  0
   34.3760   30.1620   48.9940 N   0  0  0  0  0  0  0  0  0  0  0  0
   33.8770   31.0550   49.0540 H   0  0  0  0  0  0  0  0  0  0  0  0
   33.4350   30.8610   45.9560 F   0  0  0  0  0  0  0  0  0  0  0  0
   32.5760   29.8820   46.3040 C   0  0  0  0  0  0  0  0  0  0  0  0
   32.8900   29.0460   47.3520 C   0  0  0  0  0  0  0  0  0  0  0  0
   31.8690   28.1240   47.5540 C   0  0  0  0  0  0  0  0  0  0  0  0
   31.9570   27.3790   48.3560 H   0  0  0  0  0  0  0  0  0  0  0  0
   30.6990   28.0250   46.8380 C   0  0  0  0  0  0  0  0  0  0  0  0
   29.9520   27.2800   47.0570 H   0  0  0  0  0  0  0  0  0  0  0  0
   30.4810   28.9070   45.8130 C   0  0  0  0  0  3  0  0  0  0  0  0
   31.4490   29.8520   45.5500 C   0  0  0  0  0  3  0  0  0  0  0  0
   36.5440   31.8310   48.7560 O   0  0  0  0  0  0  0  0  0  0  0  0
   38.0500   31.9350   46.7990 C   0  0  0  0  0  0  0  0  0  0  0  0
   37.6650   32.2840   48.0790 C   0  0  0  0  0  0  0  0  0  0  0  0
   38.4240   33.1720   48.8250 C   0  0  0  0  0  0  0  0  0  0  0  0
   39.5840   33.7110   48.2720 C   0  0  0  0  0  0  0  0  0  0  0  0
   39.9640   33.3570   46.9910 C   0  0  0  0  0  0  0  0  0  0  0  0
   39.1820   32.4760   46.2910 C   0  0  0  0  0  0  0  0  0  0  0  0
   38.1930   33.4870   49.8150 H   0  0  0  0  0  0  0  0  0  0  0  0
   40.1960   34.4060   48.8330 H   0  0  0  0  0  0  0  0  0  0  0  0
   40.8710   33.7970   46.5950 H   0  0  0  0  0  0  0  0  0  0  0  0
   39.6010   32.1030   44.9100 C   0  0  0  0  0  0  0  0  0  0  0  0
   40.4500   31.1060   44.4900 C   0  0  0  0  0  0  0  0  0  0  0  0
   40.5120   31.1700   43.1010 C   0  0  0  0  0  0  0  0  0  0  0  0
   39.6850   32.2170   42.7610 C   0  0  0  0  0  0  0  0  0  0  0  0
   39.1510   32.7620   43.8420 O   0  0  0  0  0  0  0  0  0  0  0  0
   40.9480   30.4260   45.1730 H   0  0  0  0  0  0  0  0  0  0  0  0
   41.1110   30.4950   42.5190 H   0  0  0  0  0  0  0  0  0  0  0  0
   39.5330   32.5080   41.7280 H   0  0  0  0  0  0  0  0  0  0  0  0
   36.5390   30.2790   45.5200 N   0  0  0  0  0  0  0  0  0  0  0  0
   37.2100   31.0130   46.0980 C   0  0  0  0  0  0  0  0  0  0  0  0
  1  2  2  0  0  0  0
  1  6  1  0  0  0  0
  2  3  1  0  0  0  0
  3  7  1  0  0  0  0
  3  4  2  0  0  0  0
  5  4  1  0  0  0  0
  5  8  1  0  0  0  0
  6  5  2  0  0  0  0
  9 11  1  0  0  0  0
 10  9  2  0  0  0  0
 11 12  1  0  0  0  0
 11  2  1  0  0  0  0
 13 14  1  0  0  0  0
 14 15  1  0  0  0  0
 15 16  2  0  0  0  0
 15  9  1  0  0  0  0
 16 17  1  0  0  0  0
 18 19  1  0  0  0  0
 18 16  1  0  0  0  0
 20 18  2  0  0  0  0
 21 20  1  0  0  0  0
 21 14  2  0  0  0  0
 22  1  1  0  0  0  0
 23 24  1  0  0  0  0
 24 22  1  0  0  0  0
 24 25  2  0  0  0  0
 25 29  1  0  0  0  0
 26 25  1  0  0  0  0
 26 30  1  0  0  0  0
 27 26  2  0  0  0  0
 28 23  2  0  0  0  0
 28 27  1  0  0  0  0
 31 27  1  0  0  0  0
 32 28  1  0  0  0  0
 33 32  2  0  0  0  0
 33 37  1  0  0  0  0
 34 33  1  0  0  0  0
 35 34  2  0  0  0  0
 35 36  1  0  0  0  0
 36 32  1  0  0  0  0
 38 34  1  0  0  0  0
 39 35  1  0  0  0  0
 40 41  3  0  0  0  0
 41 23  1  0  0  0  0
M  END
>  <minimizedAffinity>
-5.92804718

>  <minimizedRMSD>
0.860882223

$$$$
