
 OpenBabel03272507413D

 41 44  0  0  0  0  0  0  0  0999 V2000
   36.5750   30.9960   49.8150 C   0  0  0  0  0  0  0  0  0  0  0  0
   35.4490   30.1690   49.9070 C   0  0  0  0  0  0  0  0  0  0  0  0
   35.2900   29.2540   50.9100 C   0  0  0  0  0  0  0  0  0  0  0  0
   36.2830   29.1730   51.8380 N   0  0  0  0  0  0  0  0  0  0  0  0
   37.3830   29.9760   51.7540 C   0  0  0  0  0  0  0  0  0  0  0  0
   37.5080   30.8550   50.7670 N   0  0  0  0  0  0  0  0  0  0  0  0
   34.4710   28.5980   51.0460 H   0  0  0  0  0  0  0  0  0  0  0  0
   38.1330   29.8560   52.5250 H   0  0  0  0  0  0  0  0  0  0  0  0
   34.1110   29.0610   48.1560 C   0  0  0  0  0  0  0  0  0  0  0  0
   34.8040   27.9690   47.9450 O   0  0  0  0  0  0  0  0  0  0  0  0
   34.3760   30.1620   48.9940 N   0  0  0  0  0  0  0  0  0  0  0  0
   33.8760   31.0550   49.0550 H   0  0  0  0  0  0  0  0  0  0  0  0
   33.4360   30.8600   45.9560 F   0  0  0  0  0  0  0  0  0  0  0  0
   32.5760   29.8820   46.3050 C   0  0  0  0  0  0  0  0  0  0  0  0
   32.8900   29.0460   47.3520 C   0  0  0  0  0  0  0  0  0  0  0  0
   31.8690   28.1250   47.5540 C   0  0  0  0  0  0  0  0  0  0  0  0
   31.9570   27.3780   48.3550 H   0  0  0  0  0  0  0  0  0  0  0  0
   30.6990   28.0260   46.8380 C   0  0  0  0  0  0  0  0  0  0  0  0
   29.9520   27.2800   47.0580 H   0  0  0  0  0  0  0  0  0  0  0  0
   30.4810   28.9070   45.8130 C   0  0  0  0  0  3  0  0  0  0  0  0
   31.4490   29.8520   45.5500 C   0  0  0  0  0  3  0  0  0  0  0  0
   36.5440   31.8310   48.7550 O   0  0  0  0  0  0  0  0  0  0  0  0
   38.0500   31.9350   46.7990 C   0  0  0  0  0  0  0  0  0  0  0  0
   37.6650   32.2840   48.0780 C   0  0  0  0  0  0  0  0  0  0  0  0
   38.4240   33.1720   48.8250 C   0  0  0  0  0  0  0  0  0  0  0  0
   39.5840   33.7110   48.2710 C   0  0  0  0  0  0  0  0  0  0  0  0
   39.9640   33.3570   46.9900 C   0  0  0  0  0  0  0  0  0  0  0  0
   39.1820   32.4760   46.2910 C   0  0  0  0  0  0  0  0  0  0  0  0
   38.1930   33.4870   49.8140 H   0  0  0  0  0  0  0  0  0  0  0  0
   40.1960   34.4060   48.8320 H   0  0  0  0  0  0  0  0  0  0  0  0
   40.8710   33.7970   46.5940 H   0  0  0  0  0  0  0  0  0  0  0  0
   39.6010   32.1030   44.9100 C   0  0  0  0  0  0  0  0  0  0  0  0
   40.4480   31.1060   44.4900 C   0  0  0  0  0  0  0  0  0  0  0  0
   40.5110   31.1700   43.1010 C   0  0  0  0  0  0  0  0  0  0  0  0
   39.6860   32.2180   42.7610 C   0  0  0  0  0  0  0  0  0  0  0  0
   39.1520   32.7630   43.8420 O   0  0  0  0  0  0  0  0  0  0  0  0
   40.9460   30.4240   45.1720 H   0  0  0  0  0  0  0  0  0  0  0  0
   41.1100   30.4940   42.5180 H   0  0  0  0  0  0  0  0  0  0  0  0
   39.5340   32.5090   41.7280 H   0  0  0  0  0  0  0  0  0  0  0  0
   36.5390   30.2780   45.5200 N   0  0  0  0  0  0  0  0  0  0  0  0
   37.2100   31.0130   46.0980 C   0  0  0  0  0  0  0  0  0  0  0  0
  1  2  2  0  0  0  0
  1  6  1  0  0  0  0
  2  3  1  0  0  0  0
  3  7  1  0  0  0  0
  3  4  2  0  0  0  0
  5  4  1  0  0  0  0
  5  8  1  0  0  0  0
  6  5  2  0  0  0  0
  9 11  1  0  0  0  0
 10  9  2  0  0  0  0
 11 12  1  0  0  0  0
 11  2  1  0  0  0  0
 13 14  1  0  0  0  0
 14 15  1  0  0  0  0
 15 16  2  0  0  0  0
 15  9  1  0  0  0  0
 16 17  1  0  0  0  0
 18 19  1  0  0  0  0
 18 16  1  0  0  0  0
 20 18  2  0  0  0  0
 21 20  1  0  0  0  0
 21 14  2  0  0  0  0
 22  1  1  0  0  0  0
 23 24  1  0  0  0  0
 24 22  1  0  0  0  0
 24 25  2  0  0  0  0
 25 29  1  0  0  0  0
 26 25  1  0  0  0  0
 26 30  1  0  0  0  0
 27 26  2  0  0  0  0
 28 23  2  0  0  0  0
 28 27  1  0  0  0  0
 31 27  1  0  0  0  0
 32 28  1  0  0  0  0
 33 32  2  0  0  0  0
 33 37  1  0  0  0  0
 34 33  1  0  0  0  0
 35 34  2  0  0  0  0
 35 36  1  0  0  0  0
 36 32  1  0  0  0  0
 38 34  1  0  0  0  0
 39 35  1  0  0  0  0
 40 41  3  0  0  0  0
 41 23  1  0  0  0  0
M  END
>  <minimizedAffinity>
-5.92782784

>  <minimizedRMSD>
0.834001124

$$$$
