
 OpenBabel03272501293D

 20 21  0  0  0  0  0  0  0  0999 V2000
   38.5520   32.3510   48.3920 C   0  0  0  0  0  0  0  0  0  0  0  0
   38.9150   33.5140   48.7260 O   0  0  0  0  0  0  0  0  0  0  0  0
   37.3940   30.0690   51.0990 C   0  0  0  0  0  0  0  0  0  0  0  0
   38.2090   30.9300   50.3260 C   0  0  0  0  0  0  0  0  0  0  0  0
   37.6930   31.4790   49.1550 C   0  0  0  0  0  0  0  0  0  0  0  0
   36.4260   31.1600   48.8100 N   0  0  0  0  0  0  0  0  0  0  0  0
   35.6710   30.3450   49.5540 C   0  0  0  0  0  0  0  0  0  0  0  0
   36.1280   29.7950   50.6880 N   0  0  0  0  0  0  0  0  0  0  0  0
   37.7980   29.6500   51.9990 H   0  0  0  0  0  0  0  0  0  0  0  0
   39.2150   31.1380   50.6680 H   0  0  0  0  0  0  0  0  0  0  0  0
   34.6480   30.0800   49.2880 H   0  0  0  0  0  0  0  0  0  0  0  0
   40.2960   34.1390   47.0570 F   0  0  0  0  0  0  0  0  0  0  0  0
   39.9940   32.9500   46.4920 C   0  0  0  0  0  0  0  0  0  0  0  0
   39.1420   32.0280   47.1010 C   0  0  0  0  0  0  0  0  0  0  0  0
   38.9100   30.8470   46.4250 C   0  0  0  0  0  0  0  0  0  0  0  0
   38.2390   30.1680   46.9460 H   0  0  0  0  0  0  0  0  0  0  0  0
   39.4680   30.5370   45.2010 C   0  0  0  0  0  0  0  0  0  0  0  0
   39.2130   29.5750   44.7620 H   0  0  0  0  0  0  0  0  0  0  0  0
   40.3180   31.4800   44.6160 C   0  0  0  0  0  0  0  0  0  0  0  0
   40.5760   32.6760   45.2590 C   0  0  0  0  0  0  0  0  0  0  0  0
  1  2  2  0  0  0  0
  1  5  1  0  0  0  0
  3  9  1  0  0  0  0
  4 10  1  0  0  0  0
  4  3  2  0  0  0  0
  5  4  1  0  0  0  0
  6  5  2  0  0  0  0
  6  7  1  0  0  0  0
  7  8  2  0  0  0  0
  8  3  1  0  0  0  0
 11  7  1  0  0  0  0
 13 12  1  0  0  0  0
 13 14  1  0  0  0  0
 14  1  1  0  0  0  0
 15 16  1  0  0  0  0
 15 14  2  0  0  0  0
 17 15  1  0  0  0  0
 18 17  1  0  0  0  0
 19 17  2  0  0  0  0
 19 20  1  0  0  0  0
 20 13  2  0  0  0  0
M  END
>  <minimizedAffinity>
-5.88482046

>  <minimizedRMSD>
2.09998822

$$$$
