
 OpenBabel03272509293D

 38 40  0  0  1  0  0  0  0  0999 V2000
   36.5940   30.8610   48.6700 C   0  0  2  0  0  0  0  0  0  0  0  0
   37.5190   31.7930   49.3940 C   0  0  0  0  0  0  0  0  0  0  0  0
   38.3650   31.0900   50.4310 C   0  0  0  0  0  0  0  0  0  0  0  0
   37.4990   30.3380   51.4310 C   0  0  0  0  0  0  0  0  0  0  0  0
   36.2530   29.7360   50.8300 C   0  0  0  0  0  0  0  0  0  0  0  0
   36.5170   29.5200   49.3260 C   0  0  1  0  0  0  0  0  0  0  0  0
   35.5290   31.2560   48.5890 H   0  0  0  0  0  0  0  0  0  0  0  0
   38.0890   32.4830   48.8070 H   0  0  0  0  0  0  0  0  0  0  0  0
   36.8180   32.4470   50.0140 H   0  0  0  0  0  0  0  0  0  0  0  0
   39.1520   30.4520   50.0310 H   0  0  0  0  0  0  0  0  0  0  0  0
   38.8720   31.8960   50.9990 H   0  0  0  0  0  0  0  0  0  0  0  0
   37.2920   30.9710   52.3240 H   0  0  0  0  0  0  0  0  0  0  0  0
   38.1160   29.4830   51.7900 H   0  0  0  0  0  0  0  0  0  0  0  0
   36.0180   28.7780   51.3250 H   0  0  0  0  0  0  0  0  0  0  0  0
   35.4150   30.4370   50.9340 H   0  0  0  0  0  0  0  0  0  0  0  0
   37.4720   29.0580   49.3770 H   0  0  0  0  0  0  0  0  0  0  0  0
   37.0090   30.6790   47.2580 C   0  0  0  0  0  0  0  0  0  0  0  0
   38.3960   30.7220   47.0220 C   0  0  0  0  0  0  0  0  0  0  0  0
   38.8170   30.5500   45.6980 C   0  0  0  0  0  0  0  0  0  0  0  0
   37.8730   30.3520   44.7210 N   0  0  0  0  0  0  0  0  0  0  0  0
   36.5280   30.3180   45.0050 C   0  0  0  0  0  0  0  0  0  0  0  0
   36.1240   30.4840   46.2750 N   0  0  0  0  0  0  0  0  0  0  0  0
   39.2340   30.8570   47.6750 H   0  0  0  0  0  0  0  0  0  0  0  0
   39.8480   30.5610   45.3720 H   0  0  0  0  0  0  0  0  0  0  0  0
   35.8310   30.1590   44.2010 H   0  0  0  0  0  0  0  0  0  0  0  0
   34.2740   28.7340   48.4320 C   0  0  0  0  0  0  0  0  0  0  0  0
   33.4980   29.7640   48.5710 O   0  0  0  0  0  0  0  0  0  0  0  0
   35.6490   28.6010   48.6910 N   0  0  0  0  0  0  0  0  0  0  0  0
   36.0720   27.7110   48.3480 H   0  0  0  0  0  0  0  0  0  0  0  0
   31.6230   27.9500   49.4310 F   0  0  0  0  0  0  0  0  0  0  0  0
   32.2090   27.2690   48.4220 C   0  0  0  0  0  0  0  0  0  0  0  0
   33.4380   27.6260   47.9170 C   0  0  0  0  0  0  0  0  0  0  0  0
   33.8110   26.8010   46.8860 C   0  0  0  0  0  0  0  0  0  0  0  0
   34.7770   26.9670   46.3830 H   0  0  0  0  0  0  0  0  0  0  0  0
   33.1050   25.7410   46.3750 C   0  0  0  0  0  0  0  0  0  0  0  0
   33.4640   25.1360   45.5610 H   0  0  0  0  0  0  0  0  0  0  0  0
   31.8840   25.4580   46.9460 C   0  0  0  0  0  3  0  0  0  0  0  0
   31.4460   26.2370   47.9760 C   0  0  0  0  0  3  0  0  0  0  0  0
  1  7  1  1  0  0  0
  1  6  1  0  0  0  0
  1  2  1  0  0  0  0
  2  9  1  0  0  0  0
  2  3  1  0  0  0  0
  3 11  1  0  0  0  0
  3  4  1  0  0  0  0
  4 13  1  0  0  0  0
  4 12  1  0  0  0  0
  5 15  1  0  0  0  0
  5 14  1  0  0  0  0
  5  4  1  0  0  0  0
  6 16  1  6  0  0  0
  6  5  1  0  0  0  0
  8  2  1  0  0  0  0
 10  3  1  0  0  0  0
 17  1  1  0  0  0  0
 18 17  1  0  0  0  0
 18 23  1  0  0  0  0
 19 18  2  0  0  0  0
 20 21  2  0  0  0  0
 20 19  1  0  0  0  0
 21 22  1  0  0  0  0
 22 17  2  0  0  0  0
 24 19  1  0  0  0  0
 25 21  1  0  0  0  0
 26 27  2  0  0  0  0
 26 28  1  0  0  0  0
 28  6  1  0  0  0  0
 29 28  1  0  0  0  0
 31 30  1  0  0  0  0
 32 31  2  0  0  0  0
 32 26  1  0  0  0  0
 33 32  1  0  0  0  0
 34 33  1  0  0  0  0
 35 33  2  0  0  0  0
 35 37  1  0  0  0  0
 36 35  1  0  0  0  0
 37 38  2  0  0  0  0
 38 31  1  0  0  0  0
M  END
>  <minimizedAffinity>
-5.93188524

>  <minimizedRMSD>
0.936862528

$$$$
