
 OpenBabel03272509303D

 38 40  0  0  1  0  0  0  0  0999 V2000
   36.3770   30.7610   49.0120 C   0  0  2  0  0  0  0  0  0  0  0  0
   37.3260   31.6070   49.8060 C   0  0  0  0  0  0  0  0  0  0  0  0
   38.1780   30.7990   50.7570 C   0  0  0  0  0  0  0  0  0  0  0  0
   37.3170   29.9660   51.6960 C   0  0  0  0  0  0  0  0  0  0  0  0
   36.0540   29.4390   51.0620 C   0  0  0  0  0  0  0  0  0  0  0  0
   36.2910   29.3640   49.5400 C   0  0  1  0  0  0  0  0  0  0  0  0
   35.3170   31.1750   48.9880 H   0  0  0  0  0  0  0  0  0  0  0  0
   37.8970   32.3430   49.2780 H   0  0  0  0  0  0  0  0  0  0  0  0
   36.6450   32.2080   50.4970 H   0  0  0  0  0  0  0  0  0  0  0  0
   38.9500   30.1910   50.2850 H   0  0  0  0  0  0  0  0  0  0  0  0
   38.7060   31.5400   51.3910 H   0  0  0  0  0  0  0  0  0  0  0  0
   37.1340   30.5130   52.6480 H   0  0  0  0  0  0  0  0  0  0  0  0
   37.9280   29.0720   51.9610 H   0  0  0  0  0  0  0  0  0  0  0  0
   35.8130   28.4430   51.4670 H   0  0  0  0  0  0  0  0  0  0  0  0
   35.2280   30.1380   51.2460 H   0  0  0  0  0  0  0  0  0  0  0  0
   37.2400   28.8870   49.5310 H   0  0  0  0  0  0  0  0  0  0  0  0
   36.7670   30.7100   47.5830 C   0  0  0  0  0  0  0  0  0  0  0  0
   38.1180   30.9980   47.3110 C   0  0  0  0  0  0  0  0  0  0  0  0
   38.5150   30.9540   45.9700 C   0  0  0  0  0  0  0  0  0  0  0  0
   37.5850   30.6360   45.0110 N   0  0  0  0  0  0  0  0  0  0  0  0
   36.2760   30.3610   45.3310 C   0  0  0  0  0  0  0  0  0  0  0  0
   35.8940   30.4050   46.6170 N   0  0  0  0  0  0  0  0  0  0  0  0
   38.9430   31.2470   47.9460 H   0  0  0  0  0  0  0  0  0  0  0  0
   39.5170   31.1530   45.6160 H   0  0  0  0  0  0  0  0  0  0  0  0
   35.5890   30.1170   44.5390 H   0  0  0  0  0  0  0  0  0  0  0  0
   34.0220   28.3380   49.0430 C   0  0  0  0  0  0  0  0  0  0  0  0
   33.2040   28.9850   49.8160 O   0  0  0  0  0  0  0  0  0  0  0  0
   35.4000   28.5220   48.8350 N   0  0  0  0  0  0  0  0  0  0  0  0
   35.7970   27.9710   48.0430 H   0  0  0  0  0  0  0  0  0  0  0  0
   31.1050   27.9990   49.1670 F   0  0  0  0  0  0  0  0  0  0  0  0
   31.8680   27.1480   48.4480 C   0  0  0  0  0  0  0  0  0  0  0  0
   33.2320   27.2930   48.3520 C   0  0  0  0  0  0  0  0  0  0  0  0
   33.7820   26.3240   47.5520 C   0  0  0  0  0  0  0  0  0  0  0  0
   34.8700   26.3140   47.3820 H   0  0  0  0  0  0  0  0  0  0  0  0
   33.1200   25.3110   46.9030 C   0  0  0  0  0  0  0  0  0  0  0  0
   33.6220   24.5830   46.2890 H   0  0  0  0  0  0  0  0  0  0  0  0
   31.7540   25.2450   47.0600 C   0  0  0  0  0  3  0  0  0  0  0  0
   31.1370   26.1760   47.8410 C   0  0  0  0  0  3  0  0  0  0  0  0
  1  7  1  1  0  0  0
  1  6  1  0  0  0  0
  1  2  1  0  0  0  0
  2  9  1  0  0  0  0
  2  3  1  0  0  0  0
  3 11  1  0  0  0  0
  3  4  1  0  0  0  0
  4 13  1  0  0  0  0
  4 12  1  0  0  0  0
  5 15  1  0  0  0  0
  5 14  1  0  0  0  0
  5  4  1  0  0  0  0
  6 16  1  6  0  0  0
  6  5  1  0  0  0  0
  8  2  1  0  0  0  0
 10  3  1  0  0  0  0
 17  1  1  0  0  0  0
 18 17  1  0  0  0  0
 18 23  1  0  0  0  0
 19 18  2  0  0  0  0
 20 21  2  0  0  0  0
 20 19  1  0  0  0  0
 21 22  1  0  0  0  0
 22 17  2  0  0  0  0
 24 19  1  0  0  0  0
 25 21  1  0  0  0  0
 26 27  2  0  0  0  0
 28 26  1  0  0  0  0
 28  6  1  0  0  0  0
 29 28  1  0  0  0  0
 31 30  1  0  0  0  0
 32 31  1  0  0  0  0
 32 26  1  0  0  0  0
 33 32  2  0  0  0  0
 34 33  1  0  0  0  0
 35 37  2  0  0  0  0
 35 33  1  0  0  0  0
 36 35  1  0  0  0  0
 37 38  1  0  0  0  0
 38 31  2  0  0  0  0
M  END
>  <minimizedAffinity>
-6.47784758

>  <minimizedRMSD>
0.48711285

$$$$
