
 OpenBabel03272509303D

 38 40  0  0  1  0  0  0  0  0999 V2000
   36.3470   30.7130   49.0360 C   0  0  2  0  0  0  0  0  0  0  0  0
   37.4250   31.4360   49.7870 C   0  0  0  0  0  0  0  0  0  0  0  0
   38.2050   30.5290   50.7110 C   0  0  0  0  0  0  0  0  0  0  0  0
   37.2830   29.8140   51.6880 C   0  0  0  0  0  0  0  0  0  0  0  0
   35.9400   29.4480   51.1060 C   0  0  0  0  0  0  0  0  0  0  0  0
   36.1070   29.3400   49.5760 C   0  0  1  0  0  0  0  0  0  0  0  0
   35.3480   31.2580   49.0480 H   0  0  0  0  0  0  0  0  0  0  0  0
   38.0630   32.0920   49.2320 H   0  0  0  0  0  0  0  0  0  0  0  0
   36.8520   32.1200   50.4990 H   0  0  0  0  0  0  0  0  0  0  0  0
   38.8750   29.8270   50.2140 H   0  0  0  0  0  0  0  0  0  0  0  0
   38.8460   31.1990   51.3190 H   0  0  0  0  0  0  0  0  0  0  0  0
   37.2060   30.3820   52.6420 H   0  0  0  0  0  0  0  0  0  0  0  0
   37.7860   28.8500   51.9370 H   0  0  0  0  0  0  0  0  0  0  0  0
   35.5910   28.4910   51.5270 H   0  0  0  0  0  0  0  0  0  0  0  0
   35.2160   30.2460   51.3160 H   0  0  0  0  0  0  0  0  0  0  0  0
   36.9870   28.7480   49.5350 H   0  0  0  0  0  0  0  0  0  0  0  0
   36.6730   30.6100   47.5930 C   0  0  0  0  0  0  0  0  0  0  0  0
   38.0320   30.7710   47.2640 C   0  0  0  0  0  0  0  0  0  0  0  0
   38.3680   30.6740   45.9080 C   0  0  0  0  0  0  0  0  0  0  0  0
   37.3750   30.4310   44.9920 N   0  0  0  0  0  0  0  0  0  0  0  0
   36.0610   30.2800   45.3680 C   0  0  0  0  0  0  0  0  0  0  0  0
   35.7370   30.3740   46.6680 N   0  0  0  0  0  0  0  0  0  0  0  0
   38.9010   30.9520   47.8610 H   0  0  0  0  0  0  0  0  0  0  0  0
   39.3690   30.7780   45.5120 H   0  0  0  0  0  0  0  0  0  0  0  0
   35.3220   30.0900   44.6080 H   0  0  0  0  0  0  0  0  0  0  0  0
   33.7230   28.5370   49.2290 C   0  0  0  0  0  0  0  0  0  0  0  0
   33.0310   29.2080   50.0980 O   0  0  0  0  0  0  0  0  0  0  0  0
   35.0910   28.6150   48.9130 N   0  0  0  0  0  0  0  0  0  0  0  0
   35.3720   28.0760   48.0640 H   0  0  0  0  0  0  0  0  0  0  0  0
   34.4580   26.4090   47.3410 F   0  0  0  0  0  0  0  0  0  0  0  0
   33.1650   26.6290   47.6620 C   0  0  0  0  0  0  0  0  0  0  0  0
   32.7910   27.6010   48.5600 C   0  0  0  0  0  0  0  0  0  0  0  0
   31.4300   27.6180   48.7380 C   0  0  0  0  0  0  0  0  0  0  0  0
   30.9830   28.3490   49.4310 H   0  0  0  0  0  0  0  0  0  0  0  0
   30.5040   26.8040   48.1340 C   0  0  0  0  0  0  0  0  0  0  0  0
   29.4470   26.8770   48.3250 H   0  0  0  0  0  0  0  0  0  0  0  0
   30.9730   25.8600   47.2490 C   0  0  0  0  0  3  0  0  0  0  0  0
   32.3160   25.7830   47.0220 C   0  0  0  0  0  3  0  0  0  0  0  0
  1  7  1  1  0  0  0
  1  6  1  0  0  0  0
  1  2  1  0  0  0  0
  2  9  1  0  0  0  0
  2  3  1  0  0  0  0
  3 11  1  0  0  0  0
  3  4  1  0  0  0  0
  4 13  1  0  0  0  0
  4 12  1  0  0  0  0
  5 15  1  0  0  0  0
  5 14  1  0  0  0  0
  5  4  1  0  0  0  0
  6 16  1  6  0  0  0
  6  5  1  0  0  0  0
  8  2  1  0  0  0  0
 10  3  1  0  0  0  0
 17  1  1  0  0  0  0
 18 17  1  0  0  0  0
 18 23  1  0  0  0  0
 19 18  2  0  0  0  0
 20 21  2  0  0  0  0
 20 19  1  0  0  0  0
 21 22  1  0  0  0  0
 22 17  2  0  0  0  0
 24 19  1  0  0  0  0
 25 21  1  0  0  0  0
 26 27  2  0  0  0  0
 28 26  1  0  0  0  0
 28  6  1  0  0  0  0
 29 28  1  0  0  0  0
 30 31  1  0  0  0  0
 31 32  1  0  0  0  0
 32 33  2  0  0  0  0
 32 26  1  0  0  0  0
 33 34  1  0  0  0  0
 35 36  1  0  0  0  0
 35 33  1  0  0  0  0
 37 35  2  0  0  0  0
 38 37  1  0  0  0  0
 38 31  2  0  0  0  0
M  END
>  <minimizedAffinity>
-6.18987036

>  <minimizedRMSD>
0.888276517

$$$$
