
 OpenBabel03262522093D

 20 21  0  0  0  0  0  0  0  0999 V2000
   38.9410   22.7520   35.8550 C   0  0  0  0  0  0  0  0  0  0  0  0
   39.7500   22.0310   36.4360 O   0  0  0  0  0  0  0  0  0  0  0  0
   36.7930   21.5660   35.9750 C   0  0  0  0  0  0  0  0  0  0  0  0
   37.8450   22.0580   35.1770 C   0  0  0  0  0  0  0  0  0  0  0  0
   37.7680   21.8510   33.8100 C   0  0  0  0  0  0  0  0  0  0  0  0
   36.6870   21.1880   33.3010 N   0  0  0  0  0  0  0  0  0  0  0  0
   35.6900   20.7270   34.0900 C   0  0  0  0  0  0  0  0  0  0  0  0
   35.7300   20.9080   35.4240 N   0  0  0  0  0  0  0  0  0  0  0  0
   36.7690   21.6830   37.0620 H   0  0  0  0  0  0  0  0  0  0  0  0
   38.5790   22.2340   33.2410 H   0  0  0  0  0  0  0  0  0  0  0  0
   34.9220   20.2300   33.5160 H   0  0  0  0  0  0  0  0  0  0  0  0
   37.3530   24.4680   37.4780 F   0  0  0  0  0  0  0  0  0  0  0  0
   38.1420   25.0300   36.5440 C   0  0  0  0  0  0  0  0  0  0  0  0
   38.9210   24.2150   35.7460 C   0  0  0  0  0  0  0  0  0  0  0  0
   39.7470   24.7650   34.7730 C   0  0  0  0  0  0  0  0  0  0  0  0
   40.3650   24.1140   34.1400 H   0  0  0  0  0  0  0  0  0  0  0  0
   39.8320   26.1320   34.5540 C   0  0  0  0  0  0  0  0  0  0  0  0
   40.4860   26.4860   33.7900 H   0  0  0  0  0  0  0  0  0  0  0  0
   39.0450   26.9260   35.3640 C   0  0  0  0  0  3  0  0  0  0  0  0
   38.2150   26.3930   36.3400 C   0  0  0  0  0  3  0  0  0  0  0  0
  1  2  2  0  0  0  0
  3  9  1  0  0  0  0
  4  1  1  0  0  0  0
  4  3  2  0  0  0  0
  5  4  1  0  0  0  0
  6  5  2  0  0  0  0
  6  7  1  0  0  0  0
  7  8  2  0  0  0  0
  8  3  1  0  0  0  0
 10  5  1  0  0  0  0
 11  7  1  0  0  0  0
 13 12  1  0  0  0  0
 14  1  1  0  0  0  0
 14 13  2  0  0  0  0
 15 14  1  0  0  0  0
 16 15  1  0  0  0  0
 17 15  2  0  0  0  0
 17 19  1  0  0  0  0
 18 17  1  0  0  0  0
 19 20  2  0  0  0  0
 20 13  1  0  0  0  0
M  END
>  <minimizedAffinity>
-4.4317646

$$$$

 OpenBabel03262522093D

 20 21  0  0  0  0  0  0  0  0999 V2000
   39.1950   24.4340   34.3920 C   0  0  0  0  0  0  0  0  0  0  0  0
   40.1110   25.0440   33.8460 O   0  0  0  0  0  0  0  0  0  0  0  0
   37.4240   24.9220   32.7620 C   0  0  0  0  0  0  0  0  0  0  0  0
   38.1330   23.9570   33.5050 C   0  0  0  0  0  0  0  0  0  0  0  0
   37.7770   22.6290   33.3430 C   0  0  0  0  0  0  0  0  0  0  0  0
   36.7660   22.3150   32.4790 N   0  0  0  0  0  0  0  0  0  0  0  0
   36.1010   23.2610   31.7760 C   0  0  0  0  0  0  0  0  0  0  0  0
   36.4190   24.5640   31.9080 N   0  0  0  0  0  0  0  0  0  0  0  0
   37.6360   25.9920   32.8250 H   0  0  0  0  0  0  0  0  0  0  0  0
   38.3310   21.9300   33.9190 H   0  0  0  0  0  0  0  0  0  0  0  0
   35.3370   22.8310   31.1470 H   0  0  0  0  0  0  0  0  0  0  0  0
   37.2120   25.5990   36.0680 F   0  0  0  0  0  0  0  0  0  0  0  0
   38.0470   24.6930   36.6100 C   0  0  0  0  0  0  0  0  0  0  0  0
   39.0160   24.1150   35.8140 C   0  0  0  0  0  0  0  0  0  0  0  0
   39.8930   23.1760   36.3420 C   0  0  0  0  0  0  0  0  0  0  0  0
   40.6620   22.7180   35.7070 H   0  0  0  0  0  0  0  0  0  0  0  0
   39.8440   22.7760   37.6700 C   0  0  0  0  0  0  0  0  0  0  0  0
   40.5480   22.0500   38.0100 H   0  0  0  0  0  0  0  0  0  0  0  0
   38.8670   23.3670   38.4460 C   0  0  0  0  0  3  0  0  0  0  0  0
   37.9840   24.3070   37.9330 C   0  0  0  0  0  3  0  0  0  0  0  0
  1 14  1  0  0  0  0
  2  1  2  0  0  0  0
  3  9  1  0  0  0  0
  3  4  1  0  0  0  0
  4  1  1  0  0  0  0
  5  4  2  0  0  0  0
  5 10  1  0  0  0  0
  6  5  1  0  0  0  0
  7  8  1  0  0  0  0
  7  6  2  0  0  0  0
  8  3  2  0  0  0  0
 11  7  1  0  0  0  0
 12 13  1  0  0  0  0
 13 20  1  0  0  0  0
 14 15  1  0  0  0  0
 14 13  2  0  0  0  0
 15 17  2  0  0  0  0
 16 15  1  0  0  0  0
 17 18  1  0  0  0  0
 17 19  1  0  0  0  0
 20 19  2  0  0  0  0
M  END
>  <minimizedAffinity>
-4.2997961

$$$$

 OpenBabel03262522093D

 20 21  0  0  0  0  0  0  0  0999 V2000
   39.0970   24.9250   34.6000 C   0  0  0  0  0  0  0  0  0  0  0  0
   39.8480   25.7990   34.1720 O   0  0  0  0  0  0  0  0  0  0  0  0
   37.3370   25.3730   32.9470 C   0  0  0  0  0  0  0  0  0  0  0  0
   38.1020   24.4230   33.6510 C   0  0  0  0  0  0  0  0  0  0  0  0
   37.8610   23.0840   33.3960 C   0  0  0  0  0  0  0  0  0  0  0  0
   36.9030   22.7460   32.4810 N   0  0  0  0  0  0  0  0  0  0  0  0
   36.1830   23.6790   31.8180 C   0  0  0  0  0  0  0  0  0  0  0  0
   36.3880   24.9920   32.0400 N   0  0  0  0  0  0  0  0  0  0  0  0
   37.4580   26.4510   33.0830 H   0  0  0  0  0  0  0  0  0  0  0  0
   38.4560   22.3960   33.9450 H   0  0  0  0  0  0  0  0  0  0  0  0
   35.4740   23.2300   31.1380 H   0  0  0  0  0  0  0  0  0  0  0  0
   40.8750   22.8900   35.4940 F   0  0  0  0  0  0  0  0  0  0  0  0
   39.9300   23.3270   36.3480 C   0  0  0  0  0  0  0  0  0  0  0  0
   39.0570   24.3140   35.9340 C   0  0  0  0  0  0  0  0  0  0  0  0
   38.0710   24.7870   36.7920 C   0  0  0  0  0  0  0  0  0  0  0  0
   37.3800   25.5720   36.4600 H   0  0  0  0  0  0  0  0  0  0  0  0
   37.9130   24.3030   38.0820 C   0  0  0  0  0  0  0  0  0  0  0  0
   37.1360   24.7100   38.6870 H   0  0  0  0  0  0  0  0  0  0  0  0
   38.7970   23.3170   38.4740 C   0  0  0  0  0  3  0  0  0  0  0  0
   39.7870   22.8340   37.6290 C   0  0  0  0  0  3  0  0  0  0  0  0
  1 14  1  0  0  0  0
  2  1  2  0  0  0  0
  3  9  1  0  0  0  0
  3  4  1  0  0  0  0
  4  1  1  0  0  0  0
  5  4  2  0  0  0  0
  5 10  1  0  0  0  0
  6  5  1  0  0  0  0
  7  8  1  0  0  0  0
  7  6  2  0  0  0  0
  8  3  2  0  0  0  0
 11  7  1  0  0  0  0
 12 13  1  0  0  0  0
 13 20  1  0  0  0  0
 14 13  2  0  0  0  0
 14 15  1  0  0  0  0
 15 17  2  0  0  0  0
 16 15  1  0  0  0  0
 17 19  1  0  0  0  0
 17 18  1  0  0  0  0
 20 19  2  0  0  0  0
M  END
>  <minimizedAffinity>
-4.29008579

$$$$

 OpenBabel03262522093D

 20 21  0  0  0  0  0  0  0  0999 V2000
   31.9420   30.6900   35.5380 C   0  0  0  0  0  0  0  0  0  0  0  0
   31.0530   31.3490   35.0030 O   0  0  0  0  0  0  0  0  0  0  0  0
   31.0360   28.4400   35.1550 C   0  0  0  0  0  0  0  0  0  0  0  0
   31.5340   29.3890   36.0690 C   0  0  0  0  0  0  0  0  0  0  0  0
   31.6040   29.0250   37.4030 C   0  0  0  0  0  0  0  0  0  0  0  0
   31.1920   27.7740   37.7710 N   0  0  0  0  0  0  0  0  0  0  0  0
   30.7180   26.8810   36.8720 C   0  0  0  0  0  0  0  0  0  0  0  0
   30.6350   27.1990   35.5650 N   0  0  0  0  0  0  0  0  0  0  0  0
   30.9450   28.6380   34.0840 H   0  0  0  0  0  0  0  0  0  0  0  0
   31.9830   29.7650   38.0630 H   0  0  0  0  0  0  0  0  0  0  0  0
   30.4410   25.9490   37.3410 H   0  0  0  0  0  0  0  0  0  0  0  0
   32.9360   32.4630   37.5310 F   0  0  0  0  0  0  0  0  0  0  0  0
   33.8200   31.8910   36.6930 C   0  0  0  0  0  0  0  0  0  0  0  0
   33.3590   31.0270   35.7180 C   0  0  0  0  0  0  0  0  0  0  0  0
   34.2460   30.4200   34.8380 C   0  0  0  0  0  0  0  0  0  0  0  0
   33.8760   29.7330   34.0660 H   0  0  0  0  0  0  0  0  0  0  0  0
   35.6150   30.6430   34.8890 C   0  0  0  0  0  0  0  0  0  0  0  0
   36.2390   30.1440   34.1830 H   0  0  0  0  0  0  0  0  0  0  0  0
   36.0520   31.5090   35.8710 C   0  0  0  0  0  3  0  0  0  0  0  0
   35.1790   32.1240   36.7570 C   0  0  0  0  0  3  0  0  0  0  0  0
  1 14  1  0  0  0  0
  1  4  1  0  0  0  0
  2  1  2  0  0  0  0
  3  8  2  0  0  0  0
  3  4  1  0  0  0  0
  4  5  2  0  0  0  0
  5  6  1  0  0  0  0
  5 10  1  0  0  0  0
  7 11  1  0  0  0  0
  7  6  2  0  0  0  0
  8  7  1  0  0  0  0
  9  3  1  0  0  0  0
 13 20  1  0  0  0  0
 13 12  1  0  0  0  0
 14 13  2  0  0  0  0
 15 17  2  0  0  0  0
 15 14  1  0  0  0  0
 16 15  1  0  0  0  0
 17 19  1  0  0  0  0
 18 17  1  0  0  0  0
 19 20  2  0  0  0  0
M  END
>  <minimizedAffinity>
-4.28124666

$$$$

 OpenBabel03262522093D

 20 21  0  0  0  0  0  0  0  0999 V2000
   39.0310   23.0800   35.2090 C   0  0  0  0  0  0  0  0  0  0  0  0
   38.2440   22.3550   34.6050 O   0  0  0  0  0  0  0  0  0  0  0  0
   41.1710   21.8980   34.9700 C   0  0  0  0  0  0  0  0  0  0  0  0
   40.1720   22.4010   35.8260 C   0  0  0  0  0  0  0  0  0  0  0  0
   40.3390   22.2190   37.1880 C   0  0  0  0  0  0  0  0  0  0  0  0
   41.4530   21.5670   37.6380 N   0  0  0  0  0  0  0  0  0  0  0  0
   42.3980   21.0950   36.7940 C   0  0  0  0  0  0  0  0  0  0  0  0
   42.2710   21.2530   35.4620 N   0  0  0  0  0  0  0  0  0  0  0  0
   41.1240   21.9960   33.8820 H   0  0  0  0  0  0  0  0  0  0  0  0
   39.5650   22.6090   37.8030 H   0  0  0  0  0  0  0  0  0  0  0  0
   43.2040   20.6100   37.3250 H   0  0  0  0  0  0  0  0  0  0  0  0
   37.2490   24.4200   36.9780 F   0  0  0  0  0  0  0  0  0  0  0  0
   38.1140   25.1650   36.2640 C   0  0  0  0  0  0  0  0  0  0  0  0
   38.9880   24.5350   35.4000 C   0  0  0  0  0  0  0  0  0  0  0  0
   39.8930   25.2750   34.6500 C   0  0  0  0  0  0  0  0  0  0  0  0
   40.5860   24.7700   33.9650 H   0  0  0  0  0  0  0  0  0  0  0  0
   39.9670   26.6580   34.7260 C   0  0  0  0  0  0  0  0  0  0  0  0
   40.6850   27.1640   34.1220 H   0  0  0  0  0  0  0  0  0  0  0  0
   39.0840   27.2660   35.5960 C   0  0  0  0  0  3  0  0  0  0  0  0
   38.1730   26.5410   36.3520 C   0  0  0  0  0  3  0  0  0  0  0  0
  1 14  1  0  0  0  0
  1  4  1  0  0  0  0
  2  1  2  0  0  0  0
  3  8  2  0  0  0  0
  3  4  1  0  0  0  0
  4  5  2  0  0  0  0
  5  6  1  0  0  0  0
  5 10  1  0  0  0  0
  7 11  1  0  0  0  0
  7  6  2  0  0  0  0
  8  7  1  0  0  0  0
  9  3  1  0  0  0  0
 13 20  1  0  0  0  0
 13 12  1  0  0  0  0
 14 13  2  0  0  0  0
 15 17  2  0  0  0  0
 15 14  1  0  0  0  0
 16 15  1  0  0  0  0
 17 19  1  0  0  0  0
 18 17  1  0  0  0  0
 19 20  2  0  0  0  0
M  END
>  <minimizedAffinity>
-4.26298285

$$$$

 OpenBabel03262522093D

 20 21  0  0  0  0  0  0  0  0999 V2000
   39.0320   26.4610   34.9100 C   0  0  0  0  0  0  0  0  0  0  0  0
   40.1790   26.7680   35.2270 O   0  0  0  0  0  0  0  0  0  0  0  0
   38.5560   24.0930   34.4660 C   0  0  0  0  0  0  0  0  0  0  0  0
   38.5700   25.1570   35.3880 C   0  0  0  0  0  0  0  0  0  0  0  0
   38.1470   24.8960   36.6810 C   0  0  0  0  0  0  0  0  0  0  0  0
   37.7400   23.6320   37.0020 N   0  0  0  0  0  0  0  0  0  0  0  0
   37.7370   22.6270   36.0970 C   0  0  0  0  0  0  0  0  0  0  0  0
   38.1410   22.8420   34.8300 N   0  0  0  0  0  0  0  0  0  0  0  0
   38.8720   24.2050   33.4260 H   0  0  0  0  0  0  0  0  0  0  0  0
   38.1700   25.7230   37.3490 H   0  0  0  0  0  0  0  0  0  0  0  0
   37.3850   21.7010   36.5270 H   0  0  0  0  0  0  0  0  0  0  0  0
   39.1050   26.7020   32.0750 F   0  0  0  0  0  0  0  0  0  0  0  0
   38.1130   27.3250   32.7390 C   0  0  0  0  0  0  0  0  0  0  0  0
   38.0590   27.2200   34.1150 C   0  0  0  0  0  0  0  0  0  0  0  0
   37.0490   27.8500   34.8300 C   0  0  0  0  0  0  0  0  0  0  0  0
   37.0090   27.7650   35.9240 H   0  0  0  0  0  0  0  0  0  0  0  0
   36.0590   28.6030   34.2140 C   0  0  0  0  0  0  0  0  0  0  0  0
   35.3130   29.0600   34.8230 H   0  0  0  0  0  0  0  0  0  0  0  0
   36.1330   28.6930   32.8380 C   0  0  0  0  0  3  0  0  0  0  0  0
   37.1370   28.0700   32.1100 C   0  0  0  0  0  3  0  0  0  0  0  0
  1  2  2  0  0  0  0
  1  4  1  0  0  0  0
  3  8  2  0  0  0  0
  3  4  1  0  0  0  0
  4  5  2  0  0  0  0
  5  6  1  0  0  0  0
  5 10  1  0  0  0  0
  7 11  1  0  0  0  0
  7  6  2  0  0  0  0
  8  7  1  0  0  0  0
  9  3  1  0  0  0  0
 12 13  1  0  0  0  0
 13 14  1  0  0  0  0
 14 15  2  0  0  0  0
 14  1  1  0  0  0  0
 15 16  1  0  0  0  0
 17 18  1  0  0  0  0
 17 15  1  0  0  0  0
 19 17  2  0  0  0  0
 20 13  2  0  0  0  0
 20 19  1  0  0  0  0
M  END
>  <minimizedAffinity>
-4.19948626

$$$$

 OpenBabel03262522093D

 20 21  0  0  0  0  0  0  0  0999 V2000
   39.1200   22.9320   35.9970 C   0  0  0  0  0  0  0  0  0  0  0  0
   39.8460   22.2270   36.6940 O   0  0  0  0  0  0  0  0  0  0  0  0
   38.0710   22.1440   33.9210 C   0  0  0  0  0  0  0  0  0  0  0  0
   38.0200   22.2390   35.3250 C   0  0  0  0  0  0  0  0  0  0  0  0
   36.9350   21.6710   35.9710 C   0  0  0  0  0  0  0  0  0  0  0  0
   35.9730   21.0480   35.2260 N   0  0  0  0  0  0  0  0  0  0  0  0
   36.0460   20.9700   33.8780 C   0  0  0  0  0  0  0  0  0  0  0  0
   37.0870   21.5120   33.2140 N   0  0  0  0  0  0  0  0  0  0  0  0
   38.8880   22.5620   33.3270 H   0  0  0  0  0  0  0  0  0  0  0  0
   36.9290   21.7620   37.0290 H   0  0  0  0  0  0  0  0  0  0  0  0
   35.2010   20.4450   33.4600 H   0  0  0  0  0  0  0  0  0  0  0  0
   41.1990   24.1900   34.5150 F   0  0  0  0  0  0  0  0  0  0  0  0
   40.2220   24.9660   35.0200 C   0  0  0  0  0  0  0  0  0  0  0  0
   39.2030   24.3750   35.7420 C   0  0  0  0  0  0  0  0  0  0  0  0
   38.1800   25.1480   36.2760 C   0  0  0  0  0  0  0  0  0  0  0  0
   37.3710   24.6760   36.8490 H   0  0  0  0  0  0  0  0  0  0  0  0
   38.1260   26.5250   36.1170 C   0  0  0  0  0  0  0  0  0  0  0  0
   37.3110   27.0570   36.5530 H   0  0  0  0  0  0  0  0  0  0  0  0
   39.1540   27.0930   35.3910 C   0  0  0  0  0  3  0  0  0  0  0  0
   40.1840   26.3350   34.8510 C   0  0  0  0  0  3  0  0  0  0  0  0
  1  2  2  0  0  0  0
  3  4  1  0  0  0  0
  4  5  2  0  0  0  0
  4  1  1  0  0  0  0
  5 10  1  0  0  0  0
  6  5  1  0  0  0  0
  7  6  2  0  0  0  0
  8  7  1  0  0  0  0
  8  3  2  0  0  0  0
  9  3  1  0  0  0  0
 11  7  1  0  0  0  0
 12 13  1  0  0  0  0
 13 14  1  0  0  0  0
 14  1  1  0  0  0  0
 14 15  2  0  0  0  0
 15 16  1  0  0  0  0
 17 15  1  0  0  0  0
 17 18  1  0  0  0  0
 19 17  2  0  0  0  0
 20 13  2  0  0  0  0
 20 19  1  0  0  0  0
M  END
>  <minimizedAffinity>
-4.17108345

$$$$

 OpenBabel03262522093D

 20 21  0  0  0  0  0  0  0  0999 V2000
   35.7510   29.9890   33.3830 C   0  0  0  0  0  0  0  0  0  0  0  0
   35.9900   30.5450   32.3130 O   0  0  0  0  0  0  0  0  0  0  0  0
   36.2270   27.8140   32.3460 C   0  0  0  0  0  0  0  0  0  0  0  0
   36.2370   28.6140   33.5060 C   0  0  0  0  0  0  0  0  0  0  0  0
   36.7060   28.0450   34.6780 C   0  0  0  0  0  0  0  0  0  0  0  0
   37.1350   26.7470   34.6580 N   0  0  0  0  0  0  0  0  0  0  0  0
   37.1160   26.0010   33.5300 C   0  0  0  0  0  0  0  0  0  0  0  0
   36.6660   26.5200   32.3710 N   0  0  0  0  0  0  0  0  0  0  0  0
   35.8760   28.1780   31.3770 H   0  0  0  0  0  0  0  0  0  0  0  0
   36.6980   28.6770   35.5320 H   0  0  0  0  0  0  0  0  0  0  0  0
   37.4900   25.0030   33.7030 H   0  0  0  0  0  0  0  0  0  0  0  0
   33.0630   29.3450   34.0650 F   0  0  0  0  0  0  0  0  0  0  0  0
   33.7370   30.1870   34.8700 C   0  0  0  0  0  0  0  0  0  0  0  0
   35.0430   30.5130   34.5570 C   0  0  0  0  0  0  0  0  0  0  0  0
   35.7660   31.3790   35.3680 C   0  0  0  0  0  0  0  0  0  0  0  0
   36.8030   31.6350   35.1160 H   0  0  0  0  0  0  0  0  0  0  0  0
   35.2280   31.9520   36.5110 C   0  0  0  0  0  0  0  0  0  0  0  0
   35.8390   32.6090   37.0880 H   0  0  0  0  0  0  0  0  0  0  0  0
   33.9220   31.6120   36.8040 C   0  0  0  0  0  3  0  0  0  0  0  0
   33.1860   30.7480   36.0040 C   0  0  0  0  0  3  0  0  0  0  0  0
  1  4  1  0  0  0  0
  1 14  1  0  0  0  0
  2  1  2  0  0  0  0
  3  8  2  0  0  0  0
  3  4  1  0  0  0  0
  4  5  2  0  0  0  0
  5 10  1  0  0  0  0
  6  5  1  0  0  0  0
  7 11  1  0  0  0  0
  7  6  2  0  0  0  0
  8  7  1  0  0  0  0
  9  3  1  0  0  0  0
 12 13  1  0  0  0  0
 13 20  1  0  0  0  0
 14 13  2  0  0  0  0
 14 15  1  0  0  0  0
 15 17  2  0  0  0  0
 16 15  1  0  0  0  0
 17 19  1  0  0  0  0
 17 18  1  0  0  0  0
 20 19  2  0  0  0  0
M  END
>  <minimizedAffinity>
-4.15528965

$$$$

 OpenBabel03262522093D

 20 21  0  0  0  0  0  0  0  0999 V2000
   37.4200   27.3890   32.4260 C   0  0  0  0  0  0  0  0  0  0  0  0
   36.8110   28.4370   32.2240 O   0  0  0  0  0  0  0  0  0  0  0  0
   35.5740   26.3060   31.2220 C   0  0  0  0  0  0  0  0  0  0  0  0
   36.7320   26.1660   32.0120 C   0  0  0  0  0  0  0  0  0  0  0  0
   37.1370   24.8830   32.3400 C   0  0  0  0  0  0  0  0  0  0  0  0
   36.4050   23.8210   31.8870 N   0  0  0  0  0  0  0  0  0  0  0  0
   35.2970   23.9840   31.1290 C   0  0  0  0  0  0  0  0  0  0  0  0
   34.8710   25.2160   30.7900 N   0  0  0  0  0  0  0  0  0  0  0  0
   35.1800   27.2780   30.9140 H   0  0  0  0  0  0  0  0  0  0  0  0
   38.0130   24.8160   32.9370 H   0  0  0  0  0  0  0  0  0  0  0  0
   34.8500   23.0370   30.8650 H   0  0  0  0  0  0  0  0  0  0  0  0
   39.8600   27.3230   30.9620 F   0  0  0  0  0  0  0  0  0  0  0  0
   39.9170   27.1630   32.2970 C   0  0  0  0  0  0  0  0  0  0  0  0
   38.7450   27.1920   33.0270 C   0  0  0  0  0  0  0  0  0  0  0  0
   38.7700   27.0310   34.4070 C   0  0  0  0  0  0  0  0  0  0  0  0
   37.8360   27.0560   34.9830 H   0  0  0  0  0  0  0  0  0  0  0  0
   39.9490   26.8360   35.1120 C   0  0  0  0  0  0  0  0  0  0  0  0
   39.8960   26.7200   36.1700 H   0  0  0  0  0  0  0  0  0  0  0  0
   41.1080   26.8110   34.3620 C   0  0  0  0  0  3  0  0  0  0  0  0
   41.0990   26.9700   32.9830 C   0  0  0  0  0  3  0  0  0  0  0  0
  1 14  1  0  0  0  0
  2  1  2  0  0  0  0
  3  4  1  0  0  0  0
  4  5  2  0  0  0  0
  4  1  1  0  0  0  0
  5 10  1  0  0  0  0
  6  5  1  0  0  0  0
  7  6  2  0  0  0  0
  8  7  1  0  0  0  0
  8  3  2  0  0  0  0
  9  3  1  0  0  0  0
 11  7  1  0  0  0  0
 12 13  1  0  0  0  0
 13 20  2  0  0  0  0
 13 14  1  0  0  0  0
 14 15  2  0  0  0  0
 15 16  1  0  0  0  0
 15 17  1  0  0  0  0
 17 18  1  0  0  0  0
 19 17  2  0  0  0  0
 20 19  1  0  0  0  0
M  END
>  <minimizedAffinity>
-4.15511513

$$$$
