
 OpenBabel03272508503D

 29 31  0  0  1  0  0  0  0  0999 V2000
   39.0300   32.6510   45.3470 C   0  0  2  0  0  0  0  0  0  0  0  0
   40.4520   32.5590   45.6630 C   0  0  0  0  0  0  0  0  0  0  0  0
   39.5150   31.3460   45.7990 C   0  0  1  0  0  0  0  0  0  0  0  0
   38.2900   33.1330   46.0660 H   0  0  0  0  0  0  0  0  0  0  0  0
   40.7710   32.9830   46.6300 H   0  0  0  0  0  0  0  0  0  0  0  0
   41.2110   32.5710   44.8600 H   0  0  0  0  0  0  0  0  0  0  0  0
   39.9350   30.5310   45.1900 H   0  0  0  0  0  0  0  0  0  0  0  0
   36.7380   32.6550   42.4400 C   0  0  0  0  0  0  0  0  0  0  0  0
   37.5970   33.0690   41.3880 C   0  0  0  0  0  0  0  0  0  0  0  0
   38.9730   33.3460   41.7000 C   0  0  0  0  0  0  0  0  0  0  0  0
   39.3760   33.1940   42.9860 N   0  0  0  0  0  0  0  0  0  0  0  0
   38.5080   32.7950   43.9550 C   0  0  0  0  0  0  0  0  0  0  0  0
   37.2090   32.5210   43.7220 N   0  0  0  0  0  0  0  0  0  0  0  0
   35.7240   32.4660   42.1310 H   0  0  0  0  0  0  0  0  0  0  0  0
   37.2120   33.1700   40.3850 H   0  0  0  0  0  0  0  0  0  0  0  0
   39.6290   33.6590   40.9160 H   0  0  0  0  0  0  0  0  0  0  0  0
   37.9010   30.6060   47.5230 C   0  0  0  0  0  0  0  0  0  0  0  0
   37.0360   30.5270   46.6130 O   0  0  0  0  0  0  0  0  0  0  0  0
   39.2190   30.9890   47.1890 N   0  0  0  0  0  0  0  0  0  0  0  0
   39.9680   31.0230   47.8760 H   0  0  0  0  0  0  0  0  0  0  0  0
   38.9520   31.6510   50.0350 F   0  0  0  0  0  0  0  0  0  0  0  0
   37.9380   30.7720   50.0600 C   0  0  0  0  0  0  0  0  0  0  0  0
   37.4480   30.2870   48.8700 C   0  0  0  0  0  0  0  0  0  0  0  0
   36.4080   29.3980   49.0550 C   0  0  0  0  0  0  0  0  0  0  0  0
   35.9240   28.9350   48.1930 H   0  0  0  0  0  0  0  0  0  0  0  0
   35.9030   29.0240   50.2790 C   0  0  0  0  0  0  0  0  0  0  0  0
   35.0910   28.3250   50.3520 H   0  0  0  0  0  0  0  0  0  0  0  0
   36.4410   29.5490   51.4330 C   0  0  0  0  0  0  0  0  0  0  0  0
   37.4840   30.4430   51.3130 C   0  0  0  0  0  0  0  0  0  0  0  0
  1  2  1  0  0  0  0
  1  3  1  0  0  0  0
  1  4  1  1  0  0  0
  2  3  1  0  0  0  0
  2  5  1  0  0  0  0
  3  7  1  6  0  0  0
  3 19  1  0  0  0  0
  6  2  1  0  0  0  0
  8 13  1  0  0  0  0
  9 10  1  0  0  0  0
  9  8  2  0  0  0  0
 10 11  2  0  0  0  0
 11 12  1  0  0  0  0
 12  1  1  0  0  0  0
 13 12  2  0  0  0  0
 14  8  1  0  0  0  0
 15  9  1  0  0  0  0
 16 10  1  0  0  0  0
 17 23  1  0  0  0  0
 18 17  2  0  0  0  0
 19 17  1  0  0  0  0
 19 20  1  0  0  0  0
 21 22  1  0  0  0  0
 22 29  1  0  0  0  0
 23 24  1  0  0  0  0
 23 22  2  0  0  0  0
 24 26  2  0  0  0  0
 25 24  1  0  0  0  0
 26 27  1  0  0  0  0
 26 28  1  0  0  0  0
 29 28  2  0  0  0  0
M  END
>  <minimizedAffinity>
-6.56850576

>  <minimizedRMSD>
3.55659175

$$$$
