
 OpenBabel03262522243D

 32 34  0  0  0  0  0  0  0  0999 V2000
   38.0970   27.2130   35.2590 C   0  0  0  0  0  0  0  0  0  0  0  0
   38.1410   26.1150   34.3800 C   0  0  0  0  0  0  0  0  0  0  0  0
   37.2860   26.1290   33.2980 C   0  0  0  0  0  0  0  0  0  0  0  0
   36.4760   27.2000   33.1740 N   0  0  0  0  0  0  0  0  0  0  0  0
   36.4470   28.2140   34.0000 C   0  0  0  0  0  0  0  0  0  0  0  0
   37.2740   28.2510   35.0900 N   0  0  0  0  0  0  0  0  0  0  0  0
   38.7400   27.2790   36.1360 H   0  0  0  0  0  0  0  0  0  0  0  0
   37.3380   25.2820   32.6440 H   0  0  0  0  0  0  0  0  0  0  0  0
   39.0430   25.1450   34.7090 O   0  0  0  0  0  0  0  0  0  0  0  0
   38.8940   24.5180   35.9530 C   0  0  0  0  0  0  0  0  0  0  0  0
   37.9310   24.7360   36.8920 C   0  0  0  0  0  0  0  0  0  0  0  0
   37.9420   24.0300   38.0520 C   0  0  0  0  0  0  0  0  0  0  0  0
   38.9530   23.0920   38.2470 C   0  0  0  0  0  0  0  0  0  0  0  0
   39.9150   22.8870   37.2880 C   0  0  0  0  0  0  0  0  0  0  0  0
   39.8570   23.6170   36.1530 N   0  0  0  0  0  0  0  0  0  0  0  0
   37.1970   25.4880   36.6330 H   0  0  0  0  0  0  0  0  0  0  0  0
   37.1860   24.1960   38.7970 H   0  0  0  0  0  0  0  0  0  0  0  0
   38.9780   22.5200   39.1660 H   0  0  0  0  0  0  0  0  0  0  0  0
   41.0020   21.8630   37.5250 C   0  0  0  0  0  0  0  0  0  0  0  0
   41.1050   21.7580   38.6120 H   0  0  0  0  0  0  0  0  0  0  0  0
   41.9350   22.3000   37.1310 H   0  0  0  0  0  0  0  0  0  0  0  0
   40.7250   20.8850   37.0850 H   0  0  0  0  0  0  0  0  0  0  0  0
   35.2350   29.4520   33.5030 S   0  0  0  0  0  0  0  0  0  0  0  0
   32.6160   29.5370   34.7750 F   0  0  0  0  0  0  0  0  0  0  0  0
   33.5400   30.3570   35.3350 C   0  0  0  0  0  0  0  0  0  0  0  0
   34.8600   30.4890   34.9030 C   0  0  0  0  0  0  0  0  0  0  0  0
   35.6950   31.3620   35.5660 C   0  0  0  0  0  0  0  0  0  0  0  0
   36.6920   31.3940   35.1610 H   0  0  0  0  0  0  0  0  0  0  0  0
   35.1950   32.0700   36.6330 C   0  0  0  0  0  0  0  0  0  0  0  0
   35.8630   32.7380   37.1270 H   0  0  0  0  0  0  0  0  0  0  0  0
   33.8950   31.9480   37.0680 C   0  0  0  0  0  3  0  0  0  0  0  0
   33.0480   31.0790   36.4130 C   0  0  0  0  0  3  0  0  0  0  0  0
  1  7  1  0  0  0  0
  2  9  1  0  0  0  0
  2  1  2  0  0  0  0
  3  2  1  0  0  0  0
  4  3  2  0  0  0  0
  4  5  1  0  0  0  0
  5  6  2  0  0  0  0
  6  1  1  0  0  0  0
  8  3  1  0  0  0  0
  9 10  1  0  0  0  0
 10 15  2  0  0  0  0
 10 11  1  0  0  0  0
 11 12  2  0  0  0  0
 12 13  1  0  0  0  0
 12 17  1  0  0  0  0
 13 18  1  0  0  0  0
 14 19  1  0  0  0  0
 14 13  2  0  0  0  0
 15 14  1  0  0  0  0
 16 11  1  0  0  0  0
 19 20  1  0  0  0  0
 21 19  1  0  0  0  0
 22 19  1  0  0  0  0
 23  5  1  0  0  0  0
 23 26  1  0  0  0  0
 24 25  1  0  0  0  0
 25 32  1  0  0  0  0
 26 25  2  0  0  0  0
 26 27  1  0  0  0  0
 27 29  2  0  0  0  0
 28 27  1  0  0  0  0
 29 31  1  0  0  0  0
 29 30  1  0  0  0  0
 32 31  2  0  0  0  0
M  END
>  <minimizedAffinity>
-6.06481934

$$$$

 OpenBabel03262522243D

 32 34  0  0  0  0  0  0  0  0999 V2000
   36.6430   27.1190   32.5450 C   0  0  0  0  0  0  0  0  0  0  0  0
   36.6510   28.0120   33.6320 C   0  0  0  0  0  0  0  0  0  0  0  0
   37.1590   27.5540   34.8290 C   0  0  0  0  0  0  0  0  0  0  0  0
   37.6070   26.2830   34.8560 N   0  0  0  0  0  0  0  0  0  0  0  0
   37.5920   25.4640   33.8360 C   0  0  0  0  0  0  0  0  0  0  0  0
   37.0990   25.8660   32.6250 N   0  0  0  0  0  0  0  0  0  0  0  0
   36.2590   27.4030   31.5650 H   0  0  0  0  0  0  0  0  0  0  0  0
   37.1550   28.2530   35.6420 H   0  0  0  0  0  0  0  0  0  0  0  0
   36.1450   29.2530   33.3680 O   0  0  0  0  0  0  0  0  0  0  0  0
   35.1140   29.7190   34.1930 C   0  0  0  0  0  0  0  0  0  0  0  0
   33.8350   29.2570   34.2810 C   0  0  0  0  0  0  0  0  0  0  0  0
   32.9630   29.8370   35.1440 C   0  0  0  0  0  0  0  0  0  0  0  0
   33.4100   30.9010   35.9230 C   0  0  0  0  0  0  0  0  0  0  0  0
   34.7030   31.3520   35.8200 C   0  0  0  0  0  0  0  0  0  0  0  0
   35.5300   30.7400   34.9450 N   0  0  0  0  0  0  0  0  0  0  0  0
   33.6000   28.4270   33.6280 H   0  0  0  0  0  0  0  0  0  0  0  0
   31.9520   29.4780   35.2190 H   0  0  0  0  0  0  0  0  0  0  0  0
   32.7270   31.3760   36.6180 H   0  0  0  0  0  0  0  0  0  0  0  0
   35.1630   32.5100   36.6770 C   0  0  0  0  0  0  0  0  0  0  0  0
   34.2670   33.0910   36.9290 H   0  0  0  0  0  0  0  0  0  0  0  0
   35.8110   33.1340   36.0390 H   0  0  0  0  0  0  0  0  0  0  0  0
   35.6390   32.1460   37.6090 H   0  0  0  0  0  0  0  0  0  0  0  0
   38.2730   23.8500   34.2590 S   0  0  0  0  0  0  0  0  0  0  0  0
   40.5440   22.6250   35.6100 F   0  0  0  0  0  0  0  0  0  0  0  0
   39.5840   23.0990   36.4420 C   0  0  0  0  0  0  0  0  0  0  0  0
   38.4070   23.7260   36.0320 C   0  0  0  0  0  0  0  0  0  0  0  0
   37.5130   24.1610   36.9870 C   0  0  0  0  0  0  0  0  0  0  0  0
   36.6380   24.6300   36.5740 H   0  0  0  0  0  0  0  0  0  0  0  0
   37.8180   23.9610   38.3130 C   0  0  0  0  0  0  0  0  0  0  0  0
   37.1100   24.3080   39.0300 H   0  0  0  0  0  0  0  0  0  0  0  0
   38.9760   23.3450   38.7300 C   0  0  0  0  0  3  0  0  0  0  0  0
   39.8780   22.9040   37.7840 C   0  0  0  0  0  3  0  0  0  0  0  0
  1  6  2  0  0  0  0
  1  2  1  0  0  0  0
  2  3  2  0  0  0  0
  3  4  1  0  0  0  0
  3  8  1  0  0  0  0
  5 23  1  0  0  0  0
  5  4  2  0  0  0  0
  6  5  1  0  0  0  0
  7  1  1  0  0  0  0
  9  2  1  0  0  0  0
  9 10  1  0  0  0  0
 10 11  2  0  0  0  0
 10 15  1  0  0  0  0
 11 12  1  0  0  0  0
 12 17  1  0  0  0  0
 12 13  2  0  0  0  0
 13 18  1  0  0  0  0
 14 13  1  0  0  0  0
 14 19  1  0  0  0  0
 15 14  2  0  0  0  0
 16 11  1  0  0  0  0
 19 20  1  0  0  0  0
 19 22  1  0  0  0  0
 21 19  1  0  0  0  0
 23 26  1  0  0  0  0
 24 25  1  0  0  0  0
 25 32  1  0  0  0  0
 26 25  2  0  0  0  0
 26 27  1  0  0  0  0
 27 29  2  0  0  0  0
 28 27  1  0  0  0  0
 29 31  1  0  0  0  0
 29 30  1  0  0  0  0
 32 31  2  0  0  0  0
M  END
>  <minimizedAffinity>
-5.63737297

$$$$

 OpenBabel03262522243D

 32 34  0  0  0  0  0  0  0  0999 V2000
   37.0130   25.2530   32.7460 C   0  0  0  0  0  0  0  0  0  0  0  0
   38.0010   25.4210   33.7350 C   0  0  0  0  0  0  0  0  0  0  0  0
   38.2650   26.7060   34.1600 C   0  0  0  0  0  0  0  0  0  0  0  0
   37.5510   27.6960   33.5900 N   0  0  0  0  0  0  0  0  0  0  0  0
   36.6350   27.5240   32.6710 C   0  0  0  0  0  0  0  0  0  0  0  0
   36.3330   26.2710   32.2130 N   0  0  0  0  0  0  0  0  0  0  0  0
   36.7450   24.2710   32.3570 H   0  0  0  0  0  0  0  0  0  0  0  0
   39.0210   26.8070   34.9140 H   0  0  0  0  0  0  0  0  0  0  0  0
   38.5930   24.2680   34.1640 O   0  0  0  0  0  0  0  0  0  0  0  0
   38.5980   24.0180   35.5420 C   0  0  0  0  0  0  0  0  0  0  0  0
   37.7370   24.4940   36.4850 C   0  0  0  0  0  0  0  0  0  0  0  0
   37.8960   24.1440   37.7870 C   0  0  0  0  0  0  0  0  0  0  0  0
   38.9500   23.2980   38.1220 C   0  0  0  0  0  0  0  0  0  0  0  0
   39.8070   22.8280   37.1570 C   0  0  0  0  0  0  0  0  0  0  0  0
   39.6050   23.2080   35.8770 N   0  0  0  0  0  0  0  0  0  0  0  0
   36.9570   25.1430   36.1090 H   0  0  0  0  0  0  0  0  0  0  0  0
   37.2200   24.5150   38.5360 H   0  0  0  0  0  0  0  0  0  0  0  0
   39.0910   23.0080   39.1560 H   0  0  0  0  0  0  0  0  0  0  0  0
   40.9440   21.9110   37.5480 C   0  0  0  0  0  0  0  0  0  0  0  0
   41.1680   22.1170   38.6010 H   0  0  0  0  0  0  0  0  0  0  0  0
   41.8150   22.2170   36.9440 H   0  0  0  0  0  0  0  0  0  0  0  0
   40.6510   20.8490   37.4350 H   0  0  0  0  0  0  0  0  0  0  0  0
   35.9000   29.0860   32.1540 S   0  0  0  0  0  0  0  0  0  0  0  0
   35.9900   30.3010   34.8010 F   0  0  0  0  0  0  0  0  0  0  0  0
   34.7440   29.9840   34.3690 C   0  0  0  0  0  0  0  0  0  0  0  0
   34.4470   29.3960   33.1400 C   0  0  0  0  0  0  0  0  0  0  0  0
   33.1320   29.1260   32.8280 C   0  0  0  0  0  0  0  0  0  0  0  0
   33.0040   28.6740   31.8600 H   0  0  0  0  0  0  0  0  0  0  0  0
   32.1580   29.4510   33.7430 C   0  0  0  0  0  0  0  0  0  0  0  0
   31.1500   29.2320   33.4760 H   0  0  0  0  0  0  0  0  0  0  0  0
   32.4390   30.0310   34.9590 C   0  0  0  0  0  3  0  0  0  0  0  0
   33.7510   30.3050   35.2840 C   0  0  0  0  0  3  0  0  0  0  0  0
  1  2  1  0  0  0  0
  2  3  2  0  0  0  0
  2  9  1  0  0  0  0
  3  8  1  0  0  0  0
  4  3  1  0  0  0  0
  5  4  2  0  0  0  0
  6  5  1  0  0  0  0
  6  1  2  0  0  0  0
  7  1  1  0  0  0  0
  9 10  1  0  0  0  0
 10 15  2  0  0  0  0
 10 11  1  0  0  0  0
 11 12  2  0  0  0  0
 12 13  1  0  0  0  0
 12 17  1  0  0  0  0
 13 18  1  0  0  0  0
 14 19  1  0  0  0  0
 14 13  2  0  0  0  0
 15 14  1  0  0  0  0
 16 11  1  0  0  0  0
 19 20  1  0  0  0  0
 21 19  1  0  0  0  0
 22 19  1  0  0  0  0
 23  5  1  0  0  0  0
 23 26  1  0  0  0  0
 25 24  1  0  0  0  0
 25 32  1  0  0  0  0
 26 25  2  0  0  0  0
 27 26  1  0  0  0  0
 27 29  2  0  0  0  0
 28 27  1  0  0  0  0
 29 31  1  0  0  0  0
 30 29  1  0  0  0  0
 31 32  2  0  0  0  0
M  END
>  <minimizedAffinity>
-5.3853116

$$$$

 OpenBabel03262522243D

 32 34  0  0  0  0  0  0  0  0999 V2000
   36.9860   27.6030   33.5240 C   0  0  0  0  0  0  0  0  0  0  0  0
   36.2020   27.2830   32.4000 C   0  0  0  0  0  0  0  0  0  0  0  0
   36.3150   26.0090   31.8850 C   0  0  0  0  0  0  0  0  0  0  0  0
   37.1710   25.1730   32.5060 N   0  0  0  0  0  0  0  0  0  0  0  0
   37.8930   25.4850   33.5510 C   0  0  0  0  0  0  0  0  0  0  0  0
   37.8200   26.7350   34.1030 N   0  0  0  0  0  0  0  0  0  0  0  0
   36.9540   28.5870   33.9910 H   0  0  0  0  0  0  0  0  0  0  0  0
   35.7080   25.7910   31.0290 H   0  0  0  0  0  0  0  0  0  0  0  0
   35.4060   28.2950   31.9420 O   0  0  0  0  0  0  0  0  0  0  0  0
   36.0370   29.3990   31.3550 C   0  0  0  0  0  0  0  0  0  0  0  0
   36.0860   30.6800   31.8150 C   0  0  0  0  0  0  0  0  0  0  0  0
   36.7490   31.6300   31.1080 C   0  0  0  0  0  0  0  0  0  0  0  0
   37.3690   31.2580   29.9180 C   0  0  0  0  0  0  0  0  0  0  0  0
   37.3100   29.9610   29.4710 C   0  0  0  0  0  0  0  0  0  0  0  0
   36.6350   29.0550   30.2130 N   0  0  0  0  0  0  0  0  0  0  0  0
   35.5680   30.8530   32.7500 H   0  0  0  0  0  0  0  0  0  0  0  0
   36.7910   32.6440   31.4650 H   0  0  0  0  0  0  0  0  0  0  0  0
   37.9030   32.0030   29.3410 H   0  0  0  0  0  0  0  0  0  0  0  0
   37.9900   29.5840   28.1750 C   0  0  0  0  0  0  0  0  0  0  0  0
   38.0520   30.4990   27.5730 H   0  0  0  0  0  0  0  0  0  0  0  0
   37.3160   28.8780   27.6610 H   0  0  0  0  0  0  0  0  0  0  0  0
   39.0110   29.1980   28.3630 H   0  0  0  0  0  0  0  0  0  0  0  0
   38.9160   24.1060   34.0980 S   0  0  0  0  0  0  0  0  0  0  0  0
   40.7520   22.5390   35.7270 F   0  0  0  0  0  0  0  0  0  0  0  0
   39.7470   23.1280   36.4220 C   0  0  0  0  0  0  0  0  0  0  0  0
   38.7480   23.9250   35.8630 C   0  0  0  0  0  0  0  0  0  0  0  0
   37.7840   24.4640   36.6870 C   0  0  0  0  0  0  0  0  0  0  0  0
   37.0580   25.0630   36.1660 H   0  0  0  0  0  0  0  0  0  0  0  0
   37.8440   24.1940   38.0350 C   0  0  0  0  0  0  0  0  0  0  0  0
   37.0860   24.6230   38.6480 H   0  0  0  0  0  0  0  0  0  0  0  0
   38.8240   23.4090   38.5970 C   0  0  0  0  0  3  0  0  0  0  0  0
   39.7950   22.8630   37.7830 C   0  0  0  0  0  3  0  0  0  0  0  0
  1  7  1  0  0  0  0
  1  6  1  0  0  0  0
  2  1  2  0  0  0  0
  3  2  1  0  0  0  0
  3  4  2  0  0  0  0
  4  5  1  0  0  0  0
  5 23  1  0  0  0  0
  5  6  2  0  0  0  0
  8  3  1  0  0  0  0
  9  2  1  0  0  0  0
 10 11  1  0  0  0  0
 10  9  1  0  0  0  0
 11 16  1  0  0  0  0
 12 17  1  0  0  0  0
 12 11  2  0  0  0  0
 13 12  1  0  0  0  0
 14 13  2  0  0  0  0
 14 15  1  0  0  0  0
 15 10  2  0  0  0  0
 18 13  1  0  0  0  0
 19 22  1  0  0  0  0
 19 14  1  0  0  0  0
 20 19  1  0  0  0  0
 21 19  1  0  0  0  0
 23 26  1  0  0  0  0
 24 25  1  0  0  0  0
 25 32  1  0  0  0  0
 26 25  2  0  0  0  0
 26 27  1  0  0  0  0
 27 29  2  0  0  0  0
 28 27  1  0  0  0  0
 29 31  1  0  0  0  0
 29 30  1  0  0  0  0
 32 31  2  0  0  0  0
M  END
>  <minimizedAffinity>
-5.37958622

$$$$

 OpenBabel03262522243D

 32 34  0  0  0  0  0  0  0  0999 V2000
   37.7010   27.0140   32.6130 C   0  0  0  0  0  0  0  0  0  0  0  0
   38.0590   26.7400   33.9460 C   0  0  0  0  0  0  0  0  0  0  0  0
   37.3800   27.4110   34.9400 C   0  0  0  0  0  0  0  0  0  0  0  0
   36.4250   28.2780   34.5480 N   0  0  0  0  0  0  0  0  0  0  0  0
   36.1030   28.5230   33.3040 C   0  0  0  0  0  0  0  0  0  0  0  0
   36.7450   27.8850   32.2780 N   0  0  0  0  0  0  0  0  0  0  0  0
   38.1890   26.5260   31.7690 H   0  0  0  0  0  0  0  0  0  0  0  0
   37.6710   27.1840   35.9460 H   0  0  0  0  0  0  0  0  0  0  0  0
   39.0580   25.8210   34.1000 O   0  0  0  0  0  0  0  0  0  0  0  0
   38.7070   24.5610   34.5990 C   0  0  0  0  0  0  0  0  0  0  0  0
   38.2350   23.4860   33.9070 C   0  0  0  0  0  0  0  0  0  0  0  0
   37.9420   22.3330   34.5610 C   0  0  0  0  0  0  0  0  0  0  0  0
   38.1380   22.2860   35.9390 C   0  0  0  0  0  0  0  0  0  0  0  0
   38.6150   23.3800   36.6190 C   0  0  0  0  0  0  0  0  0  0  0  0
   38.8880   24.5030   35.9200 N   0  0  0  0  0  0  0  0  0  0  0  0
   38.1230   23.6380   32.8410 H   0  0  0  0  0  0  0  0  0  0  0  0
   37.5700   21.4810   34.0220 H   0  0  0  0  0  0  0  0  0  0  0  0
   37.9100   21.3740   36.4780 H   0  0  0  0  0  0  0  0  0  0  0  0
   38.8160   23.3020   38.1160 C   0  0  0  0  0  0  0  0  0  0  0  0
   38.1350   22.5270   38.4850 H   0  0  0  0  0  0  0  0  0  0  0  0
   38.4900   24.2730   38.5260 H   0  0  0  0  0  0  0  0  0  0  0  0
   39.8600   23.0210   38.3590 H   0  0  0  0  0  0  0  0  0  0  0  0
   34.7820   29.7420   33.1780 S   0  0  0  0  0  0  0  0  0  0  0  0
   32.5860   29.7320   35.0920 F   0  0  0  0  0  0  0  0  0  0  0  0
   33.6100   30.5600   35.4160 C   0  0  0  0  0  0  0  0  0  0  0  0
   34.7680   30.7350   34.6580 C   0  0  0  0  0  0  0  0  0  0  0  0
   35.7330   31.6110   35.1050 C   0  0  0  0  0  0  0  0  0  0  0  0
   36.5880   31.6780   34.4550 H   0  0  0  0  0  0  0  0  0  0  0  0
   35.5180   32.2820   36.2870 C   0  0  0  0  0  0  0  0  0  0  0  0
   36.2800   32.9530   36.6090 H   0  0  0  0  0  0  0  0  0  0  0  0
   34.3790   32.1170   37.0430 C   0  0  0  0  0  3  0  0  0  0  0  0
   33.4050   31.2440   36.6060 C   0  0  0  0  0  3  0  0  0  0  0  0
  1  2  1  0  0  0  0
  2  9  1  0  0  0  0
  2  3  2  0  0  0  0
  3  8  1  0  0  0  0
  4  3  1  0  0  0  0
  5  4  2  0  0  0  0
  6  1  2  0  0  0  0
  6  5  1  0  0  0  0
  7  1  1  0  0  0  0
  9 10  1  0  0  0  0
 10 15  1  0  0  0  0
 11 12  1  0  0  0  0
 11 10  2  0  0  0  0
 12 13  2  0  0  0  0
 13 18  1  0  0  0  0
 13 14  1  0  0  0  0
 14 19  1  0  0  0  0
 15 14  2  0  0  0  0
 16 11  1  0  0  0  0
 17 12  1  0  0  0  0
 19 22  1  0  0  0  0
 19 20  1  0  0  0  0
 19 21  1  0  0  0  0
 23  5  1  0  0  0  0
 23 26  1  0  0  0  0
 24 25  1  0  0  0  0
 25 32  1  0  0  0  0
 26 27  1  0  0  0  0
 26 25  2  0  0  0  0
 27 29  2  0  0  0  0
 28 27  1  0  0  0  0
 29 30  1  0  0  0  0
 29 31  1  0  0  0  0
 32 31  2  0  0  0  0
M  END
>  <minimizedAffinity>
-5.34958792

$$$$

 OpenBabel03262522243D

 32 34  0  0  0  0  0  0  0  0999 V2000
   37.0250   25.1100   32.7730 C   0  0  0  0  0  0  0  0  0  0  0  0
   37.9990   25.2110   33.7840 C   0  0  0  0  0  0  0  0  0  0  0  0
   38.3360   26.4740   34.2210 C   0  0  0  0  0  0  0  0  0  0  0  0
   37.7000   27.5110   33.6400 N   0  0  0  0  0  0  0  0  0  0  0  0
   36.7960   27.4020   32.7000 C   0  0  0  0  0  0  0  0  0  0  0  0
   36.4240   26.1720   32.2290 N   0  0  0  0  0  0  0  0  0  0  0  0
   36.7020   24.1490   32.3730 H   0  0  0  0  0  0  0  0  0  0  0  0
   39.0800   26.5240   34.9910 H   0  0  0  0  0  0  0  0  0  0  0  0
   38.5060   24.0200   34.2210 O   0  0  0  0  0  0  0  0  0  0  0  0
   38.5960   23.8250   35.6040 C   0  0  0  0  0  0  0  0  0  0  0  0
   37.7780   24.3170   36.5770 C   0  0  0  0  0  0  0  0  0  0  0  0
   38.0200   24.0230   37.8800 C   0  0  0  0  0  0  0  0  0  0  0  0
   39.1120   23.2150   38.1850 C   0  0  0  0  0  0  0  0  0  0  0  0
   39.9250   22.7270   37.1910 C   0  0  0  0  0  0  0  0  0  0  0  0
   39.6400   23.0520   35.9100 N   0  0  0  0  0  0  0  0  0  0  0  0
   36.9620   24.9340   36.2230 H   0  0  0  0  0  0  0  0  0  0  0  0
   37.3790   24.4080   38.6530 H   0  0  0  0  0  0  0  0  0  0  0  0
   39.3200   22.9690   39.2190 H   0  0  0  0  0  0  0  0  0  0  0  0
   41.1050   21.8530   37.5490 C   0  0  0  0  0  0  0  0  0  0  0  0
   41.3820   22.1050   38.5790 H   0  0  0  0  0  0  0  0  0  0  0  0
   41.9320   22.1540   36.8850 H   0  0  0  0  0  0  0  0  0  0  0  0
   40.8310   20.7800   37.4930 H   0  0  0  0  0  0  0  0  0  0  0  0
   36.1750   29.0090   32.1740 S   0  0  0  0  0  0  0  0  0  0  0  0
   36.4500   31.7310   31.1730 F   0  0  0  0  0  0  0  0  0  0  0  0
   36.8890   30.7700   30.3210 C   0  0  0  0  0  0  0  0  0  0  0  0
   36.8610   29.4000   30.5760 C   0  0  0  0  0  0  0  0  0  0  0  0
   37.3400   28.5310   29.6190 C   0  0  0  0  0  0  0  0  0  0  0  0
   37.2780   27.4970   29.9070 H   0  0  0  0  0  0  0  0  0  0  0  0
   37.8310   29.0520   28.4440 C   0  0  0  0  0  0  0  0  0  0  0  0
   38.1950   28.3590   27.7220 H   0  0  0  0  0  0  0  0  0  0  0  0
   37.8630   30.4030   28.1810 C   0  0  0  0  0  3  0  0  0  0  0  0
   37.3860   31.2820   29.1300 C   0  0  0  0  0  3  0  0  0  0  0  0
  1  2  1  0  0  0  0
  2  9  1  0  0  0  0
  2  3  2  0  0  0  0
  3  8  1  0  0  0  0
  4  3  1  0  0  0  0
  5  4  2  0  0  0  0
  6  5  1  0  0  0  0
  6  1  2  0  0  0  0
  7  1  1  0  0  0  0
  9 10  1  0  0  0  0
 10 15  2  0  0  0  0
 10 11  1  0  0  0  0
 11 12  2  0  0  0  0
 12 13  1  0  0  0  0
 12 17  1  0  0  0  0
 13 18  1  0  0  0  0
 14 19  1  0  0  0  0
 14 13  2  0  0  0  0
 15 14  1  0  0  0  0
 16 11  1  0  0  0  0
 19 20  1  0  0  0  0
 21 19  1  0  0  0  0
 22 19  1  0  0  0  0
 23  5  1  0  0  0  0
 25 26  1  0  0  0  0
 25 24  1  0  0  0  0
 26 23  1  0  0  0  0
 27 28  1  0  0  0  0
 27 26  2  0  0  0  0
 29 27  1  0  0  0  0
 30 29  1  0  0  0  0
 31 29  2  0  0  0  0
 31 32  1  0  0  0  0
 32 25  2  0  0  0  0
M  END
>  <minimizedAffinity>
-5.2539258

$$$$

 OpenBabel03262522243D

 32 34  0  0  0  0  0  0  0  0999 V2000
   35.8690   26.3910   31.5650 C   0  0  0  0  0  0  0  0  0  0  0  0
   36.4280   27.4520   32.3020 C   0  0  0  0  0  0  0  0  0  0  0  0
   37.4210   27.1450   33.2080 C   0  0  0  0  0  0  0  0  0  0  0  0
   37.7750   25.8490   33.3100 N   0  0  0  0  0  0  0  0  0  0  0  0
   37.2460   24.8730   32.6180 C   0  0  0  0  0  0  0  0  0  0  0  0
   36.2560   25.1210   31.7050 N   0  0  0  0  0  0  0  0  0  0  0  0
   35.0800   26.5490   30.8290 H   0  0  0  0  0  0  0  0  0  0  0  0
   37.8300   27.9700   33.7560 H   0  0  0  0  0  0  0  0  0  0  0  0
   35.9080   28.6850   32.0270 O   0  0  0  0  0  0  0  0  0  0  0  0
   35.1110   29.2840   33.0110 C   0  0  0  0  0  0  0  0  0  0  0  0
   35.5130   30.0260   34.0800 C   0  0  0  0  0  0  0  0  0  0  0  0
   34.5930   30.5320   34.9390 C   0  0  0  0  0  0  0  0  0  0  0  0
   33.2460   30.2730   34.6950 C   0  0  0  0  0  0  0  0  0  0  0  0
   32.8600   29.5240   33.6110 C   0  0  0  0  0  0  0  0  0  0  0  0
   33.8170   29.0430   32.7880 N   0  0  0  0  0  0  0  0  0  0  0  0
   36.5840   30.1610   34.1700 H   0  0  0  0  0  0  0  0  0  0  0  0
   34.9020   31.1190   35.7860 H   0  0  0  0  0  0  0  0  0  0  0  0
   32.4970   30.6700   35.3700 H   0  0  0  0  0  0  0  0  0  0  0  0
   31.3920   29.2560   33.3700 C   0  0  0  0  0  0  0  0  0  0  0  0
   30.8930   29.3350   34.3430 H   0  0  0  0  0  0  0  0  0  0  0  0
   31.3160   28.2110   33.0260 H   0  0  0  0  0  0  0  0  0  0  0  0
   30.9640   30.0060   32.6750 H   0  0  0  0  0  0  0  0  0  0  0  0
   37.9780   23.2800   33.0330 S   0  0  0  0  0  0  0  0  0  0  0  0
   36.8080   21.4400   34.9650 F   0  0  0  0  0  0  0  0  0  0  0  0
   36.4150   21.2340   33.6830 C   0  0  0  0  0  0  0  0  0  0  0  0
   36.8370   21.9850   32.5850 C   0  0  0  0  0  0  0  0  0  0  0  0
   36.3570   21.6670   31.3330 C   0  0  0  0  0  0  0  0  0  0  0  0
   36.7390   22.3000   30.5520 H   0  0  0  0  0  0  0  0  0  0  0  0
   35.4750   20.6180   31.2130 C   0  0  0  0  0  0  0  0  0  0  0  0
   35.1200   20.3940   30.2340 H   0  0  0  0  0  0  0  0  0  0  0  0
   35.0510   19.8710   32.2880 C   0  0  0  0  0  3  0  0  0  0  0  0
   35.5250   20.1780   33.5460 C   0  0  0  0  0  3  0  0  0  0  0  0
  1  6  2  0  0  0  0
  1  2  1  0  0  0  0
  2  3  2  0  0  0  0
  3  4  1  0  0  0  0
  3  8  1  0  0  0  0
  5 23  1  0  0  0  0
  5  4  2  0  0  0  0
  6  5  1  0  0  0  0
  7  1  1  0  0  0  0
  9  2  1  0  0  0  0
  9 10  1  0  0  0  0
 10 11  1  0  0  0  0
 11 16  1  0  0  0  0
 11 12  2  0  0  0  0
 12 17  1  0  0  0  0
 13 12  1  0  0  0  0
 13 18  1  0  0  0  0
 14 13  2  0  0  0  0
 15 10  2  0  0  0  0
 15 14  1  0  0  0  0
 19 14  1  0  0  0  0
 19 20  1  0  0  0  0
 21 19  1  0  0  0  0
 22 19  1  0  0  0  0
 25 24  1  0  0  0  0
 26 23  1  0  0  0  0
 26 25  2  0  0  0  0
 27 26  1  0  0  0  0
 28 27  1  0  0  0  0
 29 27  2  0  0  0  0
 29 31  1  0  0  0  0
 30 29  1  0  0  0  0
 31 32  2  0  0  0  0
 32 25  1  0  0  0  0
M  END
>  <minimizedAffinity>
-5.21031094

$$$$

 OpenBabel03262522243D

 32 34  0  0  0  0  0  0  0  0999 V2000
   35.0340   24.8460   30.9940 C   0  0  0  0  0  0  0  0  0  0  0  0
   35.8190   23.6900   31.1600 C   0  0  0  0  0  0  0  0  0  0  0  0
   37.0540   23.8390   31.7560 C   0  0  0  0  0  0  0  0  0  0  0  0
   37.4050   25.0850   32.1300 N   0  0  0  0  0  0  0  0  0  0  0  0
   36.6640   26.1510   31.9680 C   0  0  0  0  0  0  0  0  0  0  0  0
   35.4300   26.0610   31.3830 N   0  0  0  0  0  0  0  0  0  0  0  0
   34.0460   24.8140   30.5340 H   0  0  0  0  0  0  0  0  0  0  0  0
   37.6330   22.9440   31.8710 H   0  0  0  0  0  0  0  0  0  0  0  0
   35.2540   22.5340   30.7030 O   0  0  0  0  0  0  0  0  0  0  0  0
   35.4780   21.3680   31.4440 C   0  0  0  0  0  0  0  0  0  0  0  0
   35.1900   21.1380   32.7560 C   0  0  0  0  0  0  0  0  0  0  0  0
   35.4810   19.9360   33.3140 C   0  0  0  0  0  0  0  0  0  0  0  0
   36.0730   18.9600   32.5150 C   0  0  0  0  0  0  0  0  0  0  0  0
   36.3550   19.2100   31.1940 C   0  0  0  0  0  0  0  0  0  0  0  0
   36.0460   20.4240   30.6890 N   0  0  0  0  0  0  0  0  0  0  0  0
   34.7320   21.9680   33.2780 H   0  0  0  0  0  0  0  0  0  0  0  0
   35.2570   19.7470   34.3480 H   0  0  0  0  0  0  0  0  0  0  0  0
   36.3110   17.9940   32.9430 H   0  0  0  0  0  0  0  0  0  0  0  0
   36.9990   18.1340   30.3490 C   0  0  0  0  0  0  0  0  0  0  0  0
   37.5400   17.4740   31.0370 H   0  0  0  0  0  0  0  0  0  0  0  0
   37.7360   18.6410   29.7050 H   0  0  0  0  0  0  0  0  0  0  0  0
   36.2310   17.5490   29.8050 H   0  0  0  0  0  0  0  0  0  0  0  0
   37.4720   27.6340   32.5930 S   0  0  0  0  0  0  0  0  0  0  0  0
   38.3160   27.0070   35.3100 F   0  0  0  0  0  0  0  0  0  0  0  0
   39.3120   26.9730   34.3900 C   0  0  0  0  0  0  0  0  0  0  0  0
   39.1540   27.2360   33.0290 C   0  0  0  0  0  0  0  0  0  0  0  0
   40.2550   27.1660   32.2030 C   0  0  0  0  0  0  0  0  0  0  0  0
   40.0350   27.3840   31.1730 H   0  0  0  0  0  0  0  0  0  0  0  0
   41.4720   26.8370   32.7540 C   0  0  0  0  0  0  0  0  0  0  0  0
   42.3060   26.7900   32.0930 H   0  0  0  0  0  0  0  0  0  0  0  0
   41.6400   26.5760   34.0950 C   0  0  0  0  0  3  0  0  0  0  0  0
   40.5460   26.6440   34.9320 C   0  0  0  0  0  3  0  0  0  0  0  0
  1  2  2  0  0  0  0
  1  6  1  0  0  0  0
  2  3  1  0  0  0  0
  3  8  1  0  0  0  0
  3  4  2  0  0  0  0
  5  4  1  0  0  0  0
  5 23  1  0  0  0  0
  6  5  2  0  0  0  0
  7  1  1  0  0  0  0
  9  2  1  0  0  0  0
  9 10  1  0  0  0  0
 10 11  1  0  0  0  0
 11 16  1  0  0  0  0
 11 12  2  0  0  0  0
 12 17  1  0  0  0  0
 13 18  1  0  0  0  0
 13 12  1  0  0  0  0
 14 13  2  0  0  0  0
 15 14  1  0  0  0  0
 15 10  2  0  0  0  0
 19 20  1  0  0  0  0
 19 14  1  0  0  0  0
 21 19  1  0  0  0  0
 22 19  1  0  0  0  0
 23 26  1  0  0  0  0
 25 32  1  0  0  0  0
 25 24  1  0  0  0  0
 26 25  2  0  0  0  0
 27 29  2  0  0  0  0
 27 26  1  0  0  0  0
 28 27  1  0  0  0  0
 29 31  1  0  0  0  0
 30 29  1  0  0  0  0
 31 32  2  0  0  0  0
M  END
>  <minimizedAffinity>
-5.20407343

$$$$

 OpenBabel03262522243D

 32 34  0  0  0  0  0  0  0  0999 V2000
   37.1910   26.4580   34.8400 C   0  0  0  0  0  0  0  0  0  0  0  0
   37.3790   25.6440   33.7080 C   0  0  0  0  0  0  0  0  0  0  0  0
   37.0450   26.1730   32.4790 C   0  0  0  0  0  0  0  0  0  0  0  0
   36.5630   27.4320   32.4680 N   0  0  0  0  0  0  0  0  0  0  0  0
   36.3940   28.1770   33.5300 C   0  0  0  0  0  0  0  0  0  0  0  0
   36.7090   27.7020   34.7740 N   0  0  0  0  0  0  0  0  0  0  0  0
   37.4310   26.1150   35.8470 H   0  0  0  0  0  0  0  0  0  0  0  0
   37.1970   25.5330   31.6330 H   0  0  0  0  0  0  0  0  0  0  0  0
   37.8810   24.4000   33.9650 O   0  0  0  0  0  0  0  0  0  0  0  0
   39.2020   24.3180   34.4240 C   0  0  0  0  0  0  0  0  0  0  0  0
   40.3120   24.9080   33.8970 C   0  0  0  0  0  0  0  0  0  0  0  0
   41.5230   24.7150   34.4790 C   0  0  0  0  0  0  0  0  0  0  0  0
   41.5930   23.9100   35.6130 C   0  0  0  0  0  0  0  0  0  0  0  0
   40.4630   23.3250   36.1300 C   0  0  0  0  0  0  0  0  0  0  0  0
   39.2830   23.5480   35.5110 N   0  0  0  0  0  0  0  0  0  0  0  0
   40.1380   25.5110   33.0150 H   0  0  0  0  0  0  0  0  0  0  0  0
   42.4030   25.1770   34.0690 H   0  0  0  0  0  0  0  0  0  0  0  0
   42.5520   23.7460   36.0910 H   0  0  0  0  0  0  0  0  0  0  0  0
   40.5670   22.4540   37.3610 C   0  0  0  0  0  0  0  0  0  0  0  0
   41.5940   22.0720   37.3910 H   0  0  0  0  0  0  0  0  0  0  0  0
   39.8860   21.6010   37.2000 H   0  0  0  0  0  0  0  0  0  0  0  0
   40.3660   23.0430   38.2780 H   0  0  0  0  0  0  0  0  0  0  0  0
   35.7300   29.7990   33.1150 S   0  0  0  0  0  0  0  0  0  0  0  0
   33.0070   29.5630   34.1230 F   0  0  0  0  0  0  0  0  0  0  0  0
   33.8240   30.3330   34.8840 C   0  0  0  0  0  0  0  0  0  0  0  0
   35.1660   30.5930   34.6080 C   0  0  0  0  0  0  0  0  0  0  0  0
   35.8820   31.3960   35.4690 C   0  0  0  0  0  0  0  0  0  0  0  0
   36.9060   31.5380   35.1730 H   0  0  0  0  0  0  0  0  0  0  0  0
   35.2440   31.9100   36.5740 C   0  0  0  0  0  0  0  0  0  0  0  0
   35.8220   32.5270   37.2230 H   0  0  0  0  0  0  0  0  0  0  0  0
   33.9210   31.6600   36.8570 C   0  0  0  0  0  3  0  0  0  0  0  0
   33.1930   30.8590   36.0030 C   0  0  0  0  0  3  0  0  0  0  0  0
  1  7  1  0  0  0  0
  2  9  1  0  0  0  0
  2  1  2  0  0  0  0
  3  2  1  0  0  0  0
  4  3  2  0  0  0  0
  4  5  1  0  0  0  0
  5  6  2  0  0  0  0
  6  1  1  0  0  0  0
  8  3  1  0  0  0  0
  9 10  1  0  0  0  0
 10 15  1  0  0  0  0
 11 10  2  0  0  0  0
 11 12  1  0  0  0  0
 12 13  2  0  0  0  0
 13 18  1  0  0  0  0
 13 14  1  0  0  0  0
 14 19  1  0  0  0  0
 15 14  2  0  0  0  0
 16 11  1  0  0  0  0
 17 12  1  0  0  0  0
 19 20  1  0  0  0  0
 19 22  1  0  0  0  0
 21 19  1  0  0  0  0
 23  5  1  0  0  0  0
 23 26  1  0  0  0  0
 24 25  1  0  0  0  0
 25 32  1  0  0  0  0
 26 25  2  0  0  0  0
 26 27  1  0  0  0  0
 27 29  2  0  0  0  0
 28 27  1  0  0  0  0
 29 31  1  0  0  0  0
 29 30  1  0  0  0  0
 32 31  2  0  0  0  0
M  END
>  <minimizedAffinity>
-5.16392422

$$$$
