
 OpenBabel03262522233D

 32 34  0  0  0  0  0  0  0  0999 V2000
   37.9070   30.2700   49.6610 C   0  0  0  0  0  0  0  0  0  0  0  0
   37.8410   30.9810   48.4480 C   0  0  0  0  0  0  0  0  0  0  0  0
   36.6080   31.0860   47.8380 C   0  0  0  0  0  0  0  0  0  0  0  0
   35.5680   30.4960   48.4580 N   0  0  0  0  0  0  0  0  0  0  0  0
   35.6450   29.8380   49.5870 C   0  0  0  0  0  0  0  0  0  0  0  0
   36.8430   29.7030   50.2340 N   0  0  0  0  0  0  0  0  0  0  0  0
   38.8420   30.1420   50.2060 H   0  0  0  0  0  0  0  0  0  0  0  0
   36.5840   31.6320   46.9150 H   0  0  0  0  0  0  0  0  0  0  0  0
   39.0280   31.4930   48.0100 O   0  0  0  0  0  0  0  0  0  0  0  0
   39.2860   31.4420   46.6340 C   0  0  0  0  0  0  0  0  0  0  0  0
   39.2940   30.3480   45.8210 C   0  0  0  0  0  0  0  0  0  0  0  0
   39.5680   30.4870   44.5000 C   0  0  0  0  0  0  0  0  0  0  0  0
   39.8360   31.7630   44.0090 C   0  0  0  0  0  0  0  0  0  0  0  0
   39.8240   32.8540   44.8440 C   0  0  0  0  0  0  0  0  0  0  0  0
   39.5460   32.6590   46.1520 N   0  0  0  0  0  0  0  0  0  0  0  0
   39.0710   29.4090   46.3120 H   0  0  0  0  0  0  0  0  0  0  0  0
   39.5750   29.6290   43.8520 H   0  0  0  0  0  0  0  0  0  0  0  0
   40.0570   31.8930   42.9560 H   0  0  0  0  0  0  0  0  0  0  0  0
   40.1200   34.2270   44.2870 C   0  0  0  0  0  0  0  0  0  0  0  0
   40.7290   34.0780   43.3870 H   0  0  0  0  0  0  0  0  0  0  0  0
   40.7370   34.7450   45.0400 H   0  0  0  0  0  0  0  0  0  0  0  0
   39.1830   34.7520   44.0140 H   0  0  0  0  0  0  0  0  0  0  0  0
   34.0440   29.1930   50.1010 S   0  0  0  0  0  0  0  0  0  0  0  0
   31.2750   28.3080   49.9050 F   0  0  0  0  0  0  0  0  0  0  0  0
   32.1090   27.7550   48.9880 C   0  0  0  0  0  0  0  0  0  0  0  0
   33.4740   28.0230   48.8830 C   0  0  0  0  0  0  0  0  0  0  0  0
   34.2050   27.3890   47.9020 C   0  0  0  0  0  0  0  0  0  0  0  0
   35.2460   27.6590   47.9000 H   0  0  0  0  0  0  0  0  0  0  0  0
   33.5590   26.5140   47.0600 C   0  0  0  0  0  0  0  0  0  0  0  0
   34.1480   26.0390   46.3110 H   0  0  0  0  0  0  0  0  0  0  0  0
   32.2130   26.2430   47.1540 C   0  0  0  0  0  3  0  0  0  0  0  0
   31.4690   26.8690   48.1320 C   0  0  0  0  0  3  0  0  0  0  0  0
  1  7  1  0  0  0  0
  1  6  1  0  0  0  0
  2  1  2  0  0  0  0
  3  2  1  0  0  0  0
  3  4  2  0  0  0  0
  4  5  1  0  0  0  0
  5 23  1  0  0  0  0
  5  6  2  0  0  0  0
  8  3  1  0  0  0  0
  9  2  1  0  0  0  0
 10  9  1  0  0  0  0
 11 16  1  0  0  0  0
 11 10  2  0  0  0  0
 12 11  1  0  0  0  0
 13 12  2  0  0  0  0
 13 14  1  0  0  0  0
 14 15  2  0  0  0  0
 15 10  1  0  0  0  0
 17 12  1  0  0  0  0
 18 13  1  0  0  0  0
 19 14  1  0  0  0  0
 19 21  1  0  0  0  0
 20 19  1  0  0  0  0
 22 19  1  0  0  0  0
 25 24  1  0  0  0  0
 26 25  1  0  0  0  0
 26 23  1  0  0  0  0
 27 26  2  0  0  0  0
 28 27  1  0  0  0  0
 29 31  2  0  0  0  0
 29 27  1  0  0  0  0
 30 29  1  0  0  0  0
 31 32  1  0  0  0  0
 32 25  2  0  0  0  0
M  END
>  <minimizedAffinity>
-5.26033497

>  <minimizedRMSD>
1.63132715

$$$$
