
 OpenBabel03262521463D

 30 31  0  0  0  0  0  0  0  0999 V2000
   36.9820   29.2620   50.7590 C   0  0  0  0  0  0  0  0  0  0  0  0
   36.9260   28.9700   49.6930 H   0  0  0  0  0  0  0  0  0  0  0  0
   37.4190   28.4140   51.3410 H   0  0  0  0  0  0  0  0  0  0  0  0
   37.7530   30.5330   50.9100 C   0  0  0  0  0  0  0  0  0  0  0  0
   38.7170   30.2670   51.4210 H   0  0  0  0  0  0  0  0  0  0  0  0
   37.2600   31.2700   51.5940 H   0  0  0  0  0  0  0  0  0  0  0  0
   38.1080   31.1850   49.6480 C   0  0  0  0  0  0  0  0  0  0  0  0
   38.5450   32.4880   49.5750 C   0  0  0  0  0  0  0  0  0  0  0  0
   38.8620   33.0300   48.3200 C   0  0  0  0  0  0  0  0  0  0  0  0
   38.7200   32.2240   47.2260 N   0  0  0  0  0  0  0  0  0  0  0  0
   38.2820   30.9270   47.3370 C   0  0  0  0  0  0  0  0  0  0  0  0
   37.9770   30.4190   48.5650 N   0  0  0  0  0  0  0  0  0  0  0  0
   38.6330   33.0690   50.4890 H   0  0  0  0  0  0  0  0  0  0  0  0
   39.2030   34.0360   48.2330 H   0  0  0  0  0  0  0  0  0  0  0  0
   38.1810   30.3200   46.4470 H   0  0  0  0  0  0  0  0  0  0  0  0
   35.7140   29.4560   51.2990 O   0  0  0  0  0  0  0  0  0  0  0  0
   34.7190   30.5880   49.1800 O   0  0  0  0  0  0  0  0  0  0  0  0
   34.5070   29.4000   50.1040 P   0  0  2  0  0  0  0  0  0  0  0  0
   32.9840   29.5980   50.7970 O   0  0  0  0  0  0  0  0  0  0  0  0
   32.8560   30.4430   51.2610 H   0  0  0  0  0  0  0  0  0  0  0  0
   34.5610   27.9560   49.2660 O   0  0  0  0  0  0  0  0  0  0  0  0
   34.0260   25.5780   47.8300 F   0  0  0  0  0  0  0  0  0  0  0  0
   33.6850   26.7310   47.2330 C   0  0  0  0  0  0  0  0  0  0  0  0
   33.9870   27.8280   48.0110 C   0  0  0  0  0  0  0  0  0  0  0  0
   33.6890   29.1070   47.5210 C   0  0  0  0  0  0  0  0  0  0  0  0
   33.8580   30.0720   47.9980 H   0  0  0  0  0  0  0  0  0  0  0  0
   33.0960   29.2750   46.2630 C   0  0  0  0  0  0  0  0  0  0  0  0
   32.8430   30.2220   45.8290 H   0  0  0  0  0  0  0  0  0  0  0  0
   32.8020   28.1650   45.4980 C   0  0  0  0  0  3  0  0  0  0  0  0
   33.1010   26.9130   45.9950 C   0  0  0  0  0  3  0  0  0  0  0  0
  1  4  1  0  0  0  0
  1 16  1  0  0  0  0
  1  3  1  0  0  0  0
  2  1  1  0  0  0  0
  4  5  1  0  0  0  0
  4  6  1  0  0  0  0
  7  4  1  0  0  0  0
  8  7  1  0  0  0  0
  8 13  1  0  0  0  0
  9  8  2  0  0  0  0
 10 11  2  0  0  0  0
 10  9  1  0  0  0  0
 11 12  1  0  0  0  0
 12  7  2  0  0  0  0
 14  9  1  0  0  0  0
 15 11  1  0  0  0  0
 18 17  2  6  0  0  0
 18 19  1  0  0  0  0
 18 16  1  0  0  0  0
 19 20  1  0  0  0  0
 21 18  1  0  0  0  0
 23 22  1  0  0  0  0
 23 24  1  0  0  0  0
 24 21  1  0  0  0  0
 25 26  1  0  0  0  0
 25 24  2  0  0  0  0
 27 25  1  0  0  0  0
 28 27  1  0  0  0  0
 29 30  1  0  0  0  0
 29 27  2  0  0  0  0
 30 23  2  0  0  0  0
M  END
>  <minimizedAffinity>
-5.34017277

>  <minimizedRMSD>
0.788857996

$$$$
