
 OpenBabel03262521463D

 30 31  0  0  0  0  0  0  0  0999 V2000
   36.9450   29.2670   50.4640 C   0  0  0  0  0  0  0  0  0  0  0  0
   36.7840   29.1550   49.3750 H   0  0  0  0  0  0  0  0  0  0  0  0
   37.4530   28.3490   50.8480 H   0  0  0  0  0  0  0  0  0  0  0  0
   37.7070   30.5200   50.7510 C   0  0  0  0  0  0  0  0  0  0  0  0
   38.6390   30.2120   51.2970 H   0  0  0  0  0  0  0  0  0  0  0  0
   37.1770   31.2080   51.4570 H   0  0  0  0  0  0  0  0  0  0  0  0
   38.1360   31.2600   49.5630 C   0  0  0  0  0  0  0  0  0  0  0  0
   38.5700   32.5650   49.6080 C   0  0  0  0  0  0  0  0  0  0  0  0
   38.9610   33.1940   48.4170 C   0  0  0  0  0  0  0  0  0  0  0  0
   38.8900   32.4670   47.2620 N   0  0  0  0  0  0  0  0  0  0  0  0
   38.4520   31.1650   47.2540 C   0  0  0  0  0  0  0  0  0  0  0  0
   38.0760   30.5720   48.4220 N   0  0  0  0  0  0  0  0  0  0  0  0
   38.5990   33.0790   50.5650 H   0  0  0  0  0  0  0  0  0  0  0  0
   39.3010   34.2030   48.4220 H   0  0  0  0  0  0  0  0  0  0  0  0
   38.4090   30.6220   46.3200 H   0  0  0  0  0  0  0  0  0  0  0  0
   35.7370   29.3270   51.1520 O   0  0  0  0  0  0  0  0  0  0  0  0
   34.6940   30.4810   49.0690 O   0  0  0  0  0  0  0  0  0  0  0  0
   34.4110   29.3920   50.0910 P   0  0  2  0  0  0  0  0  0  0  0  0
   33.0190   29.8590   50.9160 O   0  0  0  0  0  0  0  0  0  0  0  0
   33.0680   30.7370   51.3300 H   0  0  0  0  0  0  0  0  0  0  0  0
   34.1610   27.9140   49.3540 O   0  0  0  0  0  0  0  0  0  0  0  0
   31.3390   27.8090   49.5280 F   0  0  0  0  0  0  0  0  0  0  0  0
   31.8710   27.7040   48.3000 C   0  0  0  0  0  0  0  0  0  0  0  0
   33.2480   27.7670   48.3220 C   0  0  0  0  0  0  0  0  0  0  0  0
   33.9480   27.6710   47.1120 C   0  0  0  0  0  0  0  0  0  0  0  0
   35.0250   27.7010   46.9480 H   0  0  0  0  0  0  0  0  0  0  0  0
   33.2680   27.5150   45.8980 C   0  0  0  0  0  0  0  0  0  0  0  0
   33.7400   27.4370   44.9390 H   0  0  0  0  0  0  0  0  0  0  0  0
   31.8890   27.4560   45.8960 C   0  0  0  0  0  3  0  0  0  0  0  0
   31.2140   27.5510   47.0950 C   0  0  0  0  0  3  0  0  0  0  0  0
  1  4  1  0  0  0  0
  1  3  1  0  0  0  0
  1 16  1  0  0  0  0
  2  1  1  0  0  0  0
  4  5  1  0  0  0  0
  4  6  1  0  0  0  0
  7  8  1  0  0  0  0
  7  4  1  0  0  0  0
  8 13  1  0  0  0  0
  9 14  1  0  0  0  0
  9  8  2  0  0  0  0
 10  9  1  0  0  0  0
 11 10  2  0  0  0  0
 11 12  1  0  0  0  0
 12  7  2  0  0  0  0
 15 11  1  0  0  0  0
 18 17  2  6  0  0  0
 18 19  1  0  0  0  0
 18 16  1  0  0  0  0
 19 20  1  0  0  0  0
 21 18  1  0  0  0  0
 23 24  1  0  0  0  0
 23 22  1  0  0  0  0
 24 21  1  0  0  0  0
 25 24  2  0  0  0  0
 26 25  1  0  0  0  0
 27 25  1  0  0  0  0
 28 27  1  0  0  0  0
 29 27  2  0  0  0  0
 29 30  1  0  0  0  0
 30 23  2  0  0  0  0
M  END
>  <minimizedAffinity>
-5.37260628

>  <minimizedRMSD>
0.683533907

$$$$
