
 OpenBabel03262521463D

 30 31  0  0  0  0  0  0  0  0999 V2000
   36.9770   29.2240   50.7150 C   0  0  0  0  0  0  0  0  0  0  0  0
   36.8700   28.9650   49.6450 H   0  0  0  0  0  0  0  0  0  0  0  0
   37.4350   28.3570   51.2500 H   0  0  0  0  0  0  0  0  0  0  0  0
   37.7600   30.4870   50.8710 C   0  0  0  0  0  0  0  0  0  0  0  0
   38.7280   30.2060   51.3660 H   0  0  0  0  0  0  0  0  0  0  0  0
   37.2830   31.2200   51.5690 H   0  0  0  0  0  0  0  0  0  0  0  0
   38.1050   31.1500   49.6110 C   0  0  0  0  0  0  0  0  0  0  0  0
   38.5530   32.4490   49.5470 C   0  0  0  0  0  0  0  0  0  0  0  0
   38.8590   33.0020   48.2950 C   0  0  0  0  0  0  0  0  0  0  0  0
   38.6930   32.2110   47.1930 N   0  0  0  0  0  0  0  0  0  0  0  0
   38.2440   30.9170   47.2950 C   0  0  0  0  0  0  0  0  0  0  0  0
   37.9510   30.3980   48.5210 N   0  0  0  0  0  0  0  0  0  0  0  0
   38.6600   33.0180   50.4670 H   0  0  0  0  0  0  0  0  0  0  0  0
   39.2090   34.0060   48.2150 H   0  0  0  0  0  0  0  0  0  0  0  0
   38.1250   30.3220   46.4000 H   0  0  0  0  0  0  0  0  0  0  0  0
   35.7360   29.4060   51.3190 O   0  0  0  0  0  0  0  0  0  0  0  0
   34.7010   30.7780   49.3660 O   0  0  0  0  0  0  0  0  0  0  0  0
   34.4870   29.5060   50.1700 P   0  0  2  0  0  0  0  0  0  0  0  0
   32.9950   29.6680   50.9350 O   0  0  0  0  0  0  0  0  0  0  0  0
   32.9080   30.4640   51.4890 H   0  0  0  0  0  0  0  0  0  0  0  0
   34.4700   28.1560   49.1850 O   0  0  0  0  0  0  0  0  0  0  0  0
   35.0460   29.2600   46.6450 F   0  0  0  0  0  0  0  0  0  0  0  0
   33.8780   28.6070   46.7670 C   0  0  0  0  0  0  0  0  0  0  0  0
   33.6930   28.1090   48.0390 C   0  0  0  0  0  0  0  0  0  0  0  0
   32.5180   27.4010   48.3220 C   0  0  0  0  0  0  0  0  0  0  0  0
   32.2110   26.9430   49.2630 H   0  0  0  0  0  0  0  0  0  0  0  0
   31.5430   27.2000   47.3370 C   0  0  0  0  0  0  0  0  0  0  0  0
   30.6240   26.6690   47.4860 H   0  0  0  0  0  0  0  0  0  0  0  0
   31.7470   27.7070   46.0690 C   0  0  0  0  0  3  0  0  0  0  0  0
   32.9090   28.4010   45.8060 C   0  0  0  0  0  3  0  0  0  0  0  0
  1  4  1  0  0  0  0
  1  3  1  0  0  0  0
  1 16  1  0  0  0  0
  2  1  1  0  0  0  0
  4  5  1  0  0  0  0
  4  6  1  0  0  0  0
  7  4  1  0  0  0  0
  8  7  1  0  0  0  0
  8 13  1  0  0  0  0
  9  8  2  0  0  0  0
 10 11  2  0  0  0  0
 10  9  1  0  0  0  0
 11 12  1  0  0  0  0
 12  7  2  0  0  0  0
 14  9  1  0  0  0  0
 15 11  1  0  0  0  0
 18 17  2  6  0  0  0
 18 19  1  0  0  0  0
 18 16  1  0  0  0  0
 19 20  1  0  0  0  0
 21 18  1  0  0  0  0
 22 23  1  0  0  0  0
 23 24  1  0  0  0  0
 24 25  2  0  0  0  0
 24 21  1  0  0  0  0
 25 26  1  0  0  0  0
 27 28  1  0  0  0  0
 27 25  1  0  0  0  0
 29 27  2  0  0  0  0
 30 29  1  0  0  0  0
 30 23  2  0  0  0  0
M  END
>  <minimizedAffinity>
-5.26393986

>  <minimizedRMSD>
0.595340908

$$$$
