
 OpenBabel03262521463D

 30 31  0  0  0  0  0  0  0  0999 V2000
   36.9390   29.2410   50.5000 C   0  0  0  0  0  0  0  0  0  0  0  0
   36.7840   29.1030   49.4130 H   0  0  0  0  0  0  0  0  0  0  0  0
   37.4310   28.3270   50.9110 H   0  0  0  0  0  0  0  0  0  0  0  0
   37.7160   30.4910   50.7600 C   0  0  0  0  0  0  0  0  0  0  0  0
   38.6590   30.1800   51.2850 H   0  0  0  0  0  0  0  0  0  0  0  0
   37.2070   31.1870   51.4730 H   0  0  0  0  0  0  0  0  0  0  0  0
   38.1210   31.2200   49.5560 C   0  0  0  0  0  0  0  0  0  0  0  0
   38.5510   32.5270   49.5810 C   0  0  0  0  0  0  0  0  0  0  0  0
   38.9190   33.1440   48.3760 C   0  0  0  0  0  0  0  0  0  0  0  0
   38.8290   32.4060   47.2300 N   0  0  0  0  0  0  0  0  0  0  0  0
   38.3960   31.1020   47.2440 C   0  0  0  0  0  0  0  0  0  0  0  0
   38.0420   30.5200   48.4240 N   0  0  0  0  0  0  0  0  0  0  0  0
   38.5950   33.0510   50.5320 H   0  0  0  0  0  0  0  0  0  0  0  0
   39.2560   34.1550   48.3650 H   0  0  0  0  0  0  0  0  0  0  0  0
   38.3380   30.5500   46.3160 H   0  0  0  0  0  0  0  0  0  0  0  0
   35.7260   29.3350   51.1770 O   0  0  0  0  0  0  0  0  0  0  0  0
   34.6900   30.5120   49.1020 O   0  0  0  0  0  0  0  0  0  0  0  0
   34.4100   29.4030   50.1040 P   0  0  2  0  0  0  0  0  0  0  0  0
   33.0050   29.8400   50.9220 O   0  0  0  0  0  0  0  0  0  0  0  0
   33.0390   30.7120   51.3510 H   0  0  0  0  0  0  0  0  0  0  0  0
   34.1840   27.9340   49.3410 O   0  0  0  0  0  0  0  0  0  0  0  0
   31.3610   27.7900   49.4570 F   0  0  0  0  0  0  0  0  0  0  0  0
   31.9180   27.7180   48.2370 C   0  0  0  0  0  0  0  0  0  0  0  0
   33.2940   27.7970   48.2880 C   0  0  0  0  0  0  0  0  0  0  0  0
   34.0190   27.7360   47.0910 C   0  0  0  0  0  0  0  0  0  0  0  0
   35.0980   27.7830   46.9490 H   0  0  0  0  0  0  0  0  0  0  0  0
   33.3650   27.5980   45.8610 C   0  0  0  0  0  0  0  0  0  0  0  0
   33.8570   27.5450   44.9100 H   0  0  0  0  0  0  0  0  0  0  0  0
   31.9870   27.5200   45.8290 C   0  0  0  0  0  3  0  0  0  0  0  0
   31.2870   27.5820   47.0170 C   0  0  0  0  0  3  0  0  0  0  0  0
  1  4  1  0  0  0  0
  1  3  1  0  0  0  0
  1 16  1  0  0  0  0
  2  1  1  0  0  0  0
  4  5  1  0  0  0  0
  4  6  1  0  0  0  0
  7  8  1  0  0  0  0
  7  4  1  0  0  0  0
  8 13  1  0  0  0  0
  9  8  2  0  0  0  0
 10 11  2  0  0  0  0
 10  9  1  0  0  0  0
 11 12  1  0  0  0  0
 12  7  2  0  0  0  0
 14  9  1  0  0  0  0
 15 11  1  0  0  0  0
 18 17  2  6  0  0  0
 18 19  1  0  0  0  0
 18 16  1  0  0  0  0
 19 20  1  0  0  0  0
 21 18  1  0  0  0  0
 23 24  1  0  0  0  0
 23 22  1  0  0  0  0
 24 21  1  0  0  0  0
 25 24  2  0  0  0  0
 26 25  1  0  0  0  0
 27 25  1  0  0  0  0
 28 27  1  0  0  0  0
 29 27  2  0  0  0  0
 29 30  1  0  0  0  0
 30 23  2  0  0  0  0
M  END
>  <minimizedAffinity>
-5.37033796

>  <minimizedRMSD>
0.50840342

$$$$
