
 OpenBabel03262521483D

 30 31  0  0  0  0  0  0  0  0999 V2000
   38.1400   23.4000   33.7330 C   0  0  0  0  0  0  0  0  0  0  0  0
   38.8960   22.7530   33.2500 H   0  0  0  0  0  0  0  0  0  0  0  0
   37.4090   22.7530   34.2780 H   0  0  0  0  0  0  0  0  0  0  0  0
   38.8040   24.4050   34.6180 C   0  0  0  0  0  0  0  0  0  0  0  0
   38.2200   25.3590   34.5150 H   0  0  0  0  0  0  0  0  0  0  0  0
   39.8410   24.6670   34.2880 H   0  0  0  0  0  0  0  0  0  0  0  0
   38.8050   24.0600   36.0410 C   0  0  0  0  0  0  0  0  0  0  0  0
   37.8900   24.5660   36.9350 C   0  0  0  0  0  0  0  0  0  0  0  0
   37.9690   24.1790   38.2810 C   0  0  0  0  0  0  0  0  0  0  0  0
   38.9620   23.3090   38.6360 N   0  0  0  0  0  0  0  0  0  0  0  0
   39.8580   22.8230   37.7140 C   0  0  0  0  0  0  0  0  0  0  0  0
   39.7650   23.2120   36.4110 N   0  0  0  0  0  0  0  0  0  0  0  0
   37.1280   25.2550   36.5800 H   0  0  0  0  0  0  0  0  0  0  0  0
   37.2740   24.5550   38.9960 H   0  0  0  0  0  0  0  0  0  0  0  0
   40.6300   22.1360   38.0330 H   0  0  0  0  0  0  0  0  0  0  0  0
   37.3820   24.0860   32.7890 O   0  0  0  0  0  0  0  0  0  0  0  0
   38.6640   22.4430   31.2330 O   0  0  0  0  0  0  0  0  0  0  0  0
   37.4230   23.3190   31.2720 P   0  0  2  0  0  0  0  0  0  0  0  0
   37.6000   24.4560   30.0420 O   0  0  0  0  0  0  0  0  0  0  0  0
   38.4150   24.9840   30.0920 H   0  0  0  0  0  0  0  0  0  0  0  0
   36.0350   22.4250   31.0170 O   0  0  0  0  0  0  0  0  0  0  0  0
   36.6430   20.0680   29.5770 F   0  0  0  0  0  0  0  0  0  0  0  0
   36.2010   19.9070   30.8340 C   0  0  0  0  0  0  0  0  0  0  0  0
   35.9330   21.1120   31.4490 C   0  0  0  0  0  0  0  0  0  0  0  0
   35.4640   21.1080   32.7690 C   0  0  0  0  0  0  0  0  0  0  0  0
   35.2040   21.9580   33.3980 H   0  0  0  0  0  0  0  0  0  0  0  0
   35.2660   19.9050   33.4580 C   0  0  0  0  0  0  0  0  0  0  0  0
   34.9100   19.8300   34.4660 H   0  0  0  0  0  0  0  0  0  0  0  0
   35.5400   18.7080   32.8270 C   0  0  0  0  0  3  0  0  0  0  0  0
   36.0020   18.7290   31.5270 C   0  0  0  0  0  3  0  0  0  0  0  0
  1  3  1  0  0  0  0
  1  4  1  0  0  0  0
  2  1  1  0  0  0  0
  4  7  1  0  0  0  0
  5  4  1  0  0  0  0
  6  4  1  0  0  0  0
  7 12  2  0  0  0  0
  7  8  1  0  0  0  0
  8  9  2  0  0  0  0
  9 10  1  0  0  0  0
  9 14  1  0  0  0  0
 11 15  1  0  0  0  0
 11 10  2  0  0  0  0
 12 11  1  0  0  0  0
 13  8  1  0  0  0  0
 16  1  1  0  0  0  0
 18 17  2  6  0  0  0
 18 16  1  0  0  0  0
 19 20  1  0  0  0  0
 19 18  1  0  0  0  0
 21 18  1  0  0  0  0
 21 24  1  0  0  0  0
 22 23  1  0  0  0  0
 23 24  2  0  0  0  0
 23 30  1  0  0  0  0
 24 25  1  0  0  0  0
 25 26  1  0  0  0  0
 25 27  2  0  0  0  0
 27 28  1  0  0  0  0
 29 27  1  0  0  0  0
 30 29  2  0  0  0  0
M  END
>  <minimizedAffinity>
-4.8734417

$$$$

 OpenBabel03262521483D

 30 31  0  0  0  0  0  0  0  0999 V2000
   37.6650   25.4030   36.0400 C   0  0  0  0  0  0  0  0  0  0  0  0
   36.5700   25.4790   36.1770 H   0  0  0  0  0  0  0  0  0  0  0  0
   37.8770   24.6290   35.2630 H   0  0  0  0  0  0  0  0  0  0  0  0
   38.2410   26.7410   35.7050 C   0  0  0  0  0  0  0  0  0  0  0  0
   39.3580   26.6220   35.7150 H   0  0  0  0  0  0  0  0  0  0  0  0
   38.0300   27.5200   36.4810 H   0  0  0  0  0  0  0  0  0  0  0  0
   37.8800   27.2470   34.3800 C   0  0  0  0  0  0  0  0  0  0  0  0
   38.6680   27.0610   33.2670 C   0  0  0  0  0  0  0  0  0  0  0  0
   38.2410   27.5820   32.0360 C   0  0  0  0  0  0  0  0  0  0  0  0
   37.0510   28.2540   32.0090 N   0  0  0  0  0  0  0  0  0  0  0  0
   36.2900   28.4200   33.1410 C   0  0  0  0  0  0  0  0  0  0  0  0
   36.7230   27.9070   34.3270 N   0  0  0  0  0  0  0  0  0  0  0  0
   39.6030   26.5160   33.3650 H   0  0  0  0  0  0  0  0  0  0  0  0
   38.8300   27.4540   31.1580 H   0  0  0  0  0  0  0  0  0  0  0  0
   35.3540   28.9590   33.0800 H   0  0  0  0  0  0  0  0  0  0  0  0
   38.2890   24.9380   37.1940 O   0  0  0  0  0  0  0  0  0  0  0  0
   37.0880   22.6480   36.9210 O   0  0  0  0  0  0  0  0  0  0  0  0
   38.4610   23.2470   37.1790 P   0  0  2  0  0  0  0  0  0  0  0  0
   38.9500   22.6920   38.6910 O   0  0  0  0  0  0  0  0  0  0  0  0
   38.3300   22.8870   39.4150 H   0  0  0  0  0  0  0  0  0  0  0  0
   39.5640   22.7680   36.0190 O   0  0  0  0  0  0  0  0  0  0  0  0
   41.7150   21.7570   37.5530 F   0  0  0  0  0  0  0  0  0  0  0  0
   41.9870   22.7960   36.7460 C   0  0  0  0  0  0  0  0  0  0  0  0
   40.8760   23.2130   36.0440 C   0  0  0  0  0  0  0  0  0  0  0  0
   41.0020   24.2910   35.1570 C   0  0  0  0  0  0  0  0  0  0  0  0
   40.2370   24.7460   34.5310 H   0  0  0  0  0  0  0  0  0  0  0  0
   42.2310   24.9380   34.9840 C   0  0  0  0  0  0  0  0  0  0  0  0
   42.3980   25.7670   34.3240 H   0  0  0  0  0  0  0  0  0  0  0  0
   43.3330   24.5060   35.6950 C   0  0  0  0  0  3  0  0  0  0  0  0
   43.1920   23.4440   36.5630 C   0  0  0  0  0  3  0  0  0  0  0  0
  1  2  1  0  0  0  0
  1 16  1  0  0  0  0
  3  1  1  0  0  0  0
  4  5  1  0  0  0  0
  4  1  1  0  0  0  0
  4  6  1  0  0  0  0
  7  4  1  0  0  0  0
  8 13  1  0  0  0  0
  8  7  2  0  0  0  0
  9  8  1  0  0  0  0
 10  9  2  0  0  0  0
 10 11  1  0  0  0  0
 11 12  2  0  0  0  0
 12  7  1  0  0  0  0
 14  9  1  0  0  0  0
 15 11  1  0  0  0  0
 18 17  2  6  0  0  0
 18 16  1  0  0  0  0
 18 19  1  0  0  0  0
 19 20  1  0  0  0  0
 21 24  1  0  0  0  0
 21 18  1  0  0  0  0
 23 22  1  0  0  0  0
 24 23  2  0  0  0  0
 25 24  1  0  0  0  0
 26 25  1  0  0  0  0
 27 25  2  0  0  0  0
 27 29  1  0  0  0  0
 28 27  1  0  0  0  0
 29 30  2  0  0  0  0
 30 23  1  0  0  0  0
M  END
>  <minimizedAffinity>
-4.8298068

$$$$

 OpenBabel03262521483D

 30 31  0  0  0  0  0  0  0  0999 V2000
   38.9030   25.0350   35.7730 C   0  0  0  0  0  0  0  0  0  0  0  0
   39.4800   24.7940   34.8610 H   0  0  0  0  0  0  0  0  0  0  0  0
   39.4610   24.6530   36.6620 H   0  0  0  0  0  0  0  0  0  0  0  0
   38.6250   26.5020   35.8420 C   0  0  0  0  0  0  0  0  0  0  0  0
   39.6110   27.0070   36.0220 H   0  0  0  0  0  0  0  0  0  0  0  0
   37.9910   26.7900   36.7180 H   0  0  0  0  0  0  0  0  0  0  0  0
   38.0710   27.0760   34.6140 C   0  0  0  0  0  0  0  0  0  0  0  0
   36.8760   27.7570   34.5790 C   0  0  0  0  0  0  0  0  0  0  0  0
   36.4240   28.2730   33.3550 C   0  0  0  0  0  0  0  0  0  0  0  0
   37.2040   28.0700   32.2520 N   0  0  0  0  0  0  0  0  0  0  0  0
   38.3940   27.3860   32.3260 C   0  0  0  0  0  0  0  0  0  0  0  0
   38.8150   26.8920   33.5240 N   0  0  0  0  0  0  0  0  0  0  0  0
   36.3090   27.8780   35.4980 H   0  0  0  0  0  0  0  0  0  0  0  0
   35.5020   28.8040   33.2970 H   0  0  0  0  0  0  0  0  0  0  0  0
   38.9840   27.2460   31.4310 H   0  0  0  0  0  0  0  0  0  0  0  0
   37.6850   24.3610   35.7940 O   0  0  0  0  0  0  0  0  0  0  0  0
   36.6440   22.2780   36.9520 O   0  0  0  0  0  0  0  0  0  0  0  0
   37.8810   22.7190   36.1870 P   0  0  2  0  0  0  0  0  0  0  0  0
   39.1880   22.5150   37.2290 O   0  0  0  0  0  0  0  0  0  0  0  0
   39.1050   22.9800   38.0790 H   0  0  0  0  0  0  0  0  0  0  0  0
   38.1080   21.7980   34.8110 O   0  0  0  0  0  0  0  0  0  0  0  0
   35.7290   20.2680   34.7410 F   0  0  0  0  0  0  0  0  0  0  0  0
   35.9730   21.0500   33.6770 C   0  0  0  0  0  0  0  0  0  0  0  0
   37.1530   21.7530   33.8080 C   0  0  0  0  0  0  0  0  0  0  0  0
   37.5430   22.6160   32.7760 C   0  0  0  0  0  0  0  0  0  0  0  0
   38.4340   23.2390   32.7140 H   0  0  0  0  0  0  0  0  0  0  0  0
   36.7560   22.7650   31.6280 C   0  0  0  0  0  0  0  0  0  0  0  0
   36.9950   23.4060   30.8020 H   0  0  0  0  0  0  0  0  0  0  0  0
   35.5780   22.0540   31.5140 C   0  0  0  0  0  3  0  0  0  0  0  0
   35.2070   21.2100   32.5400 C   0  0  0  0  0  3  0  0  0  0  0  0
  1 16  1  0  0  0  0
  1  4  1  0  0  0  0
  1  3  1  0  0  0  0
  2  1  1  0  0  0  0
  4  5  1  0  0  0  0
  4  6  1  0  0  0  0
  7  4  1  0  0  0  0
  8  7  1  0  0  0  0
  8 13  1  0  0  0  0
  9  8  2  0  0  0  0
 10 11  2  0  0  0  0
 10  9  1  0  0  0  0
 11 12  1  0  0  0  0
 12  7  2  0  0  0  0
 14  9  1  0  0  0  0
 15 11  1  0  0  0  0
 16 18  1  0  0  0  0
 18 17  2  1  0  0  0
 18 19  1  0  0  0  0
 19 20  1  0  0  0  0
 21 18  1  0  0  0  0
 23 24  1  0  0  0  0
 23 22  1  0  0  0  0
 24 21  1  0  0  0  0
 25 24  2  0  0  0  0
 26 25  1  0  0  0  0
 27 25  1  0  0  0  0
 28 27  1  0  0  0  0
 29 27  2  0  0  0  0
 29 30  1  0  0  0  0
 30 23  2  0  0  0  0
M  END
>  <minimizedAffinity>
-4.78701973

$$$$

 OpenBabel03262521483D

 30 31  0  0  0  0  0  0  0  0999 V2000
   36.1330   24.5030   31.3490 C   0  0  0  0  0  0  0  0  0  0  0  0
   35.5790   24.0580   30.5010 H   0  0  0  0  0  0  0  0  0  0  0  0
   35.4280   25.1280   31.9500 H   0  0  0  0  0  0  0  0  0  0  0  0
   36.7980   23.4350   32.1550 C   0  0  0  0  0  0  0  0  0  0  0  0
   36.5380   23.6330   33.2290 H   0  0  0  0  0  0  0  0  0  0  0  0
   37.9150   23.4840   32.1170 H   0  0  0  0  0  0  0  0  0  0  0  0
   36.3490   22.0740   31.8530 C   0  0  0  0  0  0  0  0  0  0  0  0
   35.1660   21.5530   32.3270 C   0  0  0  0  0  0  0  0  0  0  0  0
   34.8170   20.2380   31.9870 C   0  0  0  0  0  0  0  0  0  0  0  0
   35.6800   19.5370   31.1930 N   0  0  0  0  0  0  0  0  0  0  0  0
   36.8530   20.0900   30.7370 C   0  0  0  0  0  0  0  0  0  0  0  0
   37.1740   21.3690   31.0800 N   0  0  0  0  0  0  0  0  0  0  0  0
   34.5300   22.1720   32.9550 H   0  0  0  0  0  0  0  0  0  0  0  0
   33.9080   19.8080   32.3390 H   0  0  0  0  0  0  0  0  0  0  0  0
   37.5110   19.5030   30.1110 H   0  0  0  0  0  0  0  0  0  0  0  0
   37.1130   25.3870   30.9070 O   0  0  0  0  0  0  0  0  0  0  0  0
   35.2110   27.0030   31.6350 O   0  0  0  0  0  0  0  0  0  0  0  0
   36.6010   27.0030   31.0200 P   0  0  2  0  0  0  0  0  0  0  0  0
   36.4460   27.6810   29.4860 O   0  0  0  0  0  0  0  0  0  0  0  0
   35.7970   27.2390   28.9110 H   0  0  0  0  0  0  0  0  0  0  0  0
   37.6710   27.9080   31.9300 O   0  0  0  0  0  0  0  0  0  0  0  0
   36.1140   28.2960   34.2590 F   0  0  0  0  0  0  0  0  0  0  0  0
   37.3060   27.7000   34.4240 C   0  0  0  0  0  0  0  0  0  0  0  0
   37.9860   27.5570   33.2330 C   0  0  0  0  0  0  0  0  0  0  0  0
   39.2480   26.9490   33.2440 C   0  0  0  0  0  0  0  0  0  0  0  0
   39.9150   26.7600   32.4050 H   0  0  0  0  0  0  0  0  0  0  0  0
   39.8160   26.4940   34.4390 C   0  0  0  0  0  0  0  0  0  0  0  0
   40.7760   26.0220   34.5190 H   0  0  0  0  0  0  0  0  0  0  0  0
   39.1210   26.6440   35.6220 C   0  0  0  0  0  3  0  0  0  0  0  0
   37.8790   27.2440   35.5950 C   0  0  0  0  0  3  0  0  0  0  0  0
  1  3  1  0  0  0  0
  1  4  1  0  0  0  0
  2  1  1  0  0  0  0
  4  5  1  0  0  0  0
  6  4  1  0  0  0  0
  7  4  1  0  0  0  0
  7  8  1  0  0  0  0
  8 13  1  0  0  0  0
  9  8  2  0  0  0  0
  9 14  1  0  0  0  0
 10  9  1  0  0  0  0
 11 12  1  0  0  0  0
 11 10  2  0  0  0  0
 12  7  2  0  0  0  0
 15 11  1  0  0  0  0
 16 18  1  0  0  0  0
 16  1  1  0  0  0  0
 18 17  2  1  0  0  0
 18 21  1  0  0  0  0
 19 18  1  0  0  0  0
 20 19  1  0  0  0  0
 21 24  1  0  0  0  0
 22 23  1  0  0  0  0
 23 30  1  0  0  0  0
 24 25  1  0  0  0  0
 24 23  2  0  0  0  0
 25 27  2  0  0  0  0
 26 25  1  0  0  0  0
 27 28  1  0  0  0  0
 27 29  1  0  0  0  0
 30 29  2  0  0  0  0
M  END
>  <minimizedAffinity>
-4.77473497

$$$$

 OpenBabel03262521483D

 30 31  0  0  0  0  0  0  0  0999 V2000
   38.3380   25.7770   34.2500 C   0  0  0  0  0  0  0  0  0  0  0  0
   38.4780   26.3670   35.1750 H   0  0  0  0  0  0  0  0  0  0  0  0
   39.0680   26.1330   33.4830 H   0  0  0  0  0  0  0  0  0  0  0  0
   38.4630   24.3160   34.5410 C   0  0  0  0  0  0  0  0  0  0  0  0
   39.4010   23.9660   34.0330 H   0  0  0  0  0  0  0  0  0  0  0  0
   37.6450   23.7030   34.0850 H   0  0  0  0  0  0  0  0  0  0  0  0
   38.6000   23.9860   35.9610 C   0  0  0  0  0  0  0  0  0  0  0  0
   37.7580   24.4820   36.9300 C   0  0  0  0  0  0  0  0  0  0  0  0
   37.9660   24.1110   38.2660 C   0  0  0  0  0  0  0  0  0  0  0  0
   39.0060   23.2660   38.5370 N   0  0  0  0  0  0  0  0  0  0  0  0
   39.8260   22.7900   37.5430 C   0  0  0  0  0  0  0  0  0  0  0  0
   39.6080   23.1630   36.2510 N   0  0  0  0  0  0  0  0  0  0  0  0
   36.9520   25.1500   36.6390 H   0  0  0  0  0  0  0  0  0  0  0  0
   37.3300   24.4800   39.0380 H   0  0  0  0  0  0  0  0  0  0  0  0
   40.6390   22.1230   37.7970 H   0  0  0  0  0  0  0  0  0  0  0  0
   37.0840   26.0020   33.6890 O   0  0  0  0  0  0  0  0  0  0  0  0
   38.5400   27.6160   32.2610 O   0  0  0  0  0  0  0  0  0  0  0  0
   37.1890   26.9190   32.2620 P   0  0  2  0  0  0  0  0  0  0  0  0
   36.0230   28.1340   32.2560 O   0  0  0  0  0  0  0  0  0  0  0  0
   36.0990   28.7730   32.9860 H   0  0  0  0  0  0  0  0  0  0  0  0
   37.0000   25.9510   30.9140 O   0  0  0  0  0  0  0  0  0  0  0  0
   34.5570   24.6530   31.5040 F   0  0  0  0  0  0  0  0  0  0  0  0
   35.6260   23.8640   31.3110 C   0  0  0  0  0  0  0  0  0  0  0  0
   36.7640   24.5900   31.0300 C   0  0  0  0  0  0  0  0  0  0  0  0
   37.9640   23.9040   30.8020 C   0  0  0  0  0  0  0  0  0  0  0  0
   38.9460   24.3150   30.5710 H   0  0  0  0  0  0  0  0  0  0  0  0
   38.0160   22.5070   30.8590 C   0  0  0  0  0  0  0  0  0  0  0  0
   38.8980   21.9200   30.6960 H   0  0  0  0  0  0  0  0  0  0  0  0
   36.8660   21.7960   31.1410 C   0  0  0  0  0  3  0  0  0  0  0  0
   35.6920   22.4860   31.3620 C   0  0  0  0  0  3  0  0  0  0  0  0
  1  4  1  0  0  0  0
  1  2  1  0  0  0  0
  3  1  1  0  0  0  0
  4  7  1  0  0  0  0
  5  4  1  0  0  0  0
  6  4  1  0  0  0  0
  7 12  2  0  0  0  0
  7  8  1  0  0  0  0
  8  9  2  0  0  0  0
  9 10  1  0  0  0  0
  9 14  1  0  0  0  0
 11 15  1  0  0  0  0
 11 10  2  0  0  0  0
 12 11  1  0  0  0  0
 13  8  1  0  0  0  0
 16  1  1  0  0  0  0
 18 17  2  6  0  0  0
 18 16  1  0  0  0  0
 19 18  1  0  0  0  0
 19 20  1  0  0  0  0
 21 24  1  0  0  0  0
 21 18  1  0  0  0  0
 23 30  1  0  0  0  0
 23 22  1  0  0  0  0
 24 23  2  0  0  0  0
 25 27  2  0  0  0  0
 25 24  1  0  0  0  0
 26 25  1  0  0  0  0
 27 29  1  0  0  0  0
 28 27  1  0  0  0  0
 29 30  2  0  0  0  0
M  END
>  <minimizedAffinity>
-4.71598434

$$$$

 OpenBabel03262521483D

 30 31  0  0  0  0  0  0  0  0999 V2000
   36.1230   29.3680   31.9180 C   0  0  0  0  0  0  0  0  0  0  0  0
   36.6020   29.5430   30.9360 H   0  0  0  0  0  0  0  0  0  0  0  0
   36.9200   29.1760   32.6760 H   0  0  0  0  0  0  0  0  0  0  0  0
   35.2380   30.5170   32.2780 C   0  0  0  0  0  0  0  0  0  0  0  0
   34.2190   30.0890   32.4730 H   0  0  0  0  0  0  0  0  0  0  0  0
   35.0890   31.2400   31.4360 H   0  0  0  0  0  0  0  0  0  0  0  0
   35.6350   31.2380   33.4890 C   0  0  0  0  0  0  0  0  0  0  0  0
   35.5480   30.6910   34.7490 C   0  0  0  0  0  0  0  0  0  0  0  0
   35.9510   31.4570   35.8520 C   0  0  0  0  0  0  0  0  0  0  0  0
   36.4150   32.7200   35.6140 N   0  0  0  0  0  0  0  0  0  0  0  0
   36.4900   33.2330   34.3420 C   0  0  0  0  0  0  0  0  0  0  0  0
   36.0920   32.4730   33.2820 N   0  0  0  0  0  0  0  0  0  0  0  0
   35.1670   29.6790   34.8600 H   0  0  0  0  0  0  0  0  0  0  0  0
   35.8950   31.0590   36.8390 H   0  0  0  0  0  0  0  0  0  0  0  0
   36.8620   34.2370   34.1930 H   0  0  0  0  0  0  0  0  0  0  0  0
   35.3490   28.2110   31.9060 O   0  0  0  0  0  0  0  0  0  0  0  0
   37.4390   27.4000   30.5870 O   0  0  0  0  0  0  0  0  0  0  0  0
   36.2290   26.8710   31.3410 P   0  0  2  0  0  0  0  0  0  0  0  0
   35.3170   25.9950   30.2290 O   0  0  0  0  0  0  0  0  0  0  0  0
   35.0570   26.4930   29.4350 H   0  0  0  0  0  0  0  0  0  0  0  0
   36.6830   25.8780   32.6050 O   0  0  0  0  0  0  0  0  0  0  0  0
   36.1510   27.5140   34.8510 F   0  0  0  0  0  0  0  0  0  0  0  0
   37.4180   27.0970   34.6970 C   0  0  0  0  0  0  0  0  0  0  0  0
   37.5730   26.3080   33.5760 C   0  0  0  0  0  0  0  0  0  0  0  0
   38.8430   25.7940   33.2820 C   0  0  0  0  0  0  0  0  0  0  0  0
   39.1410   25.1620   32.4470 H   0  0  0  0  0  0  0  0  0  0  0  0
   39.9390   26.0740   34.1060 C   0  0  0  0  0  0  0  0  0  0  0  0
   40.9360   25.7150   33.9390 H   0  0  0  0  0  0  0  0  0  0  0  0
   39.7650   26.8650   35.2230 C   0  0  0  0  0  3  0  0  0  0  0  0
   38.5090   27.3620   35.5000 C   0  0  0  0  0  3  0  0  0  0  0  0
  1  4  1  0  0  0  0
  1  3  1  0  0  0  0
  2  1  1  0  0  0  0
  4  5  1  0  0  0  0
  4  7  1  0  0  0  0
  6  4  1  0  0  0  0
  7  8  1  0  0  0  0
  8 13  1  0  0  0  0
  8  9  2  0  0  0  0
  9 14  1  0  0  0  0
 10  9  1  0  0  0  0
 11 10  2  0  0  0  0
 12  7  2  0  0  0  0
 12 11  1  0  0  0  0
 15 11  1  0  0  0  0
 16  1  1  0  0  0  0
 18 17  2  6  0  0  0
 18 16  1  0  0  0  0
 18 21  1  0  0  0  0
 19 18  1  0  0  0  0
 20 19  1  0  0  0  0
 21 24  1  0  0  0  0
 23 22  1  0  0  0  0
 23 30  1  0  0  0  0
 24 23  2  0  0  0  0
 25 24  1  0  0  0  0
 25 27  2  0  0  0  0
 26 25  1  0  0  0  0
 27 29  1  0  0  0  0
 28 27  1  0  0  0  0
 29 30  2  0  0  0  0
M  END
>  <minimizedAffinity>
-4.67631531

$$$$

 OpenBabel03262521483D

 30 31  0  0  0  0  0  0  0  0999 V2000
   36.9680   24.2170   31.5560 C   0  0  0  0  0  0  0  0  0  0  0  0
   37.7340   23.6270   31.0180 H   0  0  0  0  0  0  0  0  0  0  0  0
   36.9080   25.2320   31.0940 H   0  0  0  0  0  0  0  0  0  0  0  0
   35.6590   23.4950   31.5520 C   0  0  0  0  0  0  0  0  0  0  0  0
   35.1310   23.7900   30.6060 H   0  0  0  0  0  0  0  0  0  0  0  0
   34.9740   23.8190   32.3760 H   0  0  0  0  0  0  0  0  0  0  0  0
   35.7670   22.0340   31.5400 C   0  0  0  0  0  0  0  0  0  0  0  0
   34.8600   21.2100   32.1660 C   0  0  0  0  0  0  0  0  0  0  0  0
   35.0450   19.8220   32.1010 C   0  0  0  0  0  0  0  0  0  0  0  0
   36.1290   19.3560   31.4110 N   0  0  0  0  0  0  0  0  0  0  0  0
   37.0140   20.2090   30.7970 C   0  0  0  0  0  0  0  0  0  0  0  0
   36.8180   21.5560   30.8720 N   0  0  0  0  0  0  0  0  0  0  0  0
   34.0220   21.6540   32.6970 H   0  0  0  0  0  0  0  0  0  0  0  0
   34.3590   19.1590   32.5760 H   0  0  0  0  0  0  0  0  0  0  0  0
   37.8610   19.8030   30.2600 H   0  0  0  0  0  0  0  0  0  0  0  0
   37.3360   24.4410   32.8790 O   0  0  0  0  0  0  0  0  0  0  0  0
   39.6390   23.5650   32.0460 O   0  0  0  0  0  0  0  0  0  0  0  0
   38.7600   23.6060   33.2860 P   0  0  2  0  0  0  0  0  0  0  0  0
   38.4120   22.0060   33.6800 O   0  0  0  0  0  0  0  0  0  0  0  0
   38.0010   21.4920   32.9640 H   0  0  0  0  0  0  0  0  0  0  0  0
   39.5420   24.3450   34.5640 O   0  0  0  0  0  0  0  0  0  0  0  0
   37.3240   25.4840   35.9020 F   0  0  0  0  0  0  0  0  0  0  0  0
   38.0860   24.6370   36.6130 C   0  0  0  0  0  0  0  0  0  0  0  0
   39.1370   24.1370   35.8730 C   0  0  0  0  0  0  0  0  0  0  0  0
   40.0220   23.2360   36.4800 C   0  0  0  0  0  0  0  0  0  0  0  0
   40.8960   22.7510   36.0490 H   0  0  0  0  0  0  0  0  0  0  0  0
   39.8490   22.8460   37.8130 C   0  0  0  0  0  0  0  0  0  0  0  0
   40.4870   22.1630   38.3380 H   0  0  0  0  0  0  0  0  0  0  0  0
   38.7900   23.3560   38.5380 C   0  0  0  0  0  3  0  0  0  0  0  0
   37.9270   24.2410   37.9260 C   0  0  0  0  0  3  0  0  0  0  0  0
  1 16  1  0  0  0  0
  2  1  1  0  0  0  0
  3  1  1  0  0  0  0
  4  1  1  0  0  0  0
  4  6  1  0  0  0  0
  5  4  1  0  0  0  0
  7  4  1  0  0  0  0
  7  8  1  0  0  0  0
  8 13  1  0  0  0  0
  9  8  2  0  0  0  0
  9 14  1  0  0  0  0
 10  9  1  0  0  0  0
 11 12  1  0  0  0  0
 11 10  2  0  0  0  0
 12  7  2  0  0  0  0
 15 11  1  0  0  0  0
 16 18  1  0  0  0  0
 18 17  2  6  0  0  0
 18 19  1  0  0  0  0
 18 21  1  0  0  0  0
 20 19  1  0  0  0  0
 21 24  1  0  0  0  0
 22 23  1  0  0  0  0
 23 30  1  0  0  0  0
 24 25  1  0  0  0  0
 24 23  2  0  0  0  0
 25 27  2  0  0  0  0
 26 25  1  0  0  0  0
 27 28  1  0  0  0  0
 27 29  1  0  0  0  0
 30 29  2  0  0  0  0
M  END
>  <minimizedAffinity>
-4.66685247

$$$$

 OpenBabel03262521483D

 30 31  0  0  0  0  0  0  0  0999 V2000
   39.0440   27.1150   32.7030 C   0  0  0  0  0  0  0  0  0  0  0  0
   39.3070   26.2640   32.0460 H   0  0  0  0  0  0  0  0  0  0  0  0
   39.4870   28.0480   32.2770 H   0  0  0  0  0  0  0  0  0  0  0  0
   37.5620   27.1990   32.8760 C   0  0  0  0  0  0  0  0  0  0  0  0
   37.2310   28.1430   32.3660 H   0  0  0  0  0  0  0  0  0  0  0  0
   37.2480   27.3240   33.9430 H   0  0  0  0  0  0  0  0  0  0  0  0
   36.8120   26.1010   32.2620 C   0  0  0  0  0  0  0  0  0  0  0  0
   37.1390   24.7770   32.4450 C   0  0  0  0  0  0  0  0  0  0  0  0
   36.3630   23.7920   31.8160 C   0  0  0  0  0  0  0  0  0  0  0  0
   35.3130   24.2050   31.0460 N   0  0  0  0  0  0  0  0  0  0  0  0
   35.0160   25.5370   30.8860 C   0  0  0  0  0  0  0  0  0  0  0  0
   35.7820   26.4790   31.5060 N   0  0  0  0  0  0  0  0  0  0  0  0
   37.9900   24.5240   33.0720 H   0  0  0  0  0  0  0  0  0  0  0  0
   36.5920   22.7580   31.9400 H   0  0  0  0  0  0  0  0  0  0  0  0
   34.1760   25.8260   30.2690 H   0  0  0  0  0  0  0  0  0  0  0  0
   39.6210   26.9820   33.9620 O   0  0  0  0  0  0  0  0  0  0  0  0
   41.7330   25.9250   35.0510 O   0  0  0  0  0  0  0  0  0  0  0  0
   40.6310   25.6180   34.0500 P   0  0  2  0  0  0  0  0  0  0  0  0
   41.3890   25.3490   32.5700 O   0  0  0  0  0  0  0  0  0  0  0  0
   41.9570   26.0780   32.2680 H   0  0  0  0  0  0  0  0  0  0  0  0
   39.7640   24.2600   34.4940 O   0  0  0  0  0  0  0  0  0  0  0  0
   37.5330   25.5070   35.7060 F   0  0  0  0  0  0  0  0  0  0  0  0
   38.2290   24.6480   36.4670 C   0  0  0  0  0  0  0  0  0  0  0  0
   39.2940   24.0950   35.7870 C   0  0  0  0  0  0  0  0  0  0  0  0
   40.1160   23.1750   36.4510 C   0  0  0  0  0  0  0  0  0  0  0  0
   40.9890   22.6490   36.0690 H   0  0  0  0  0  0  0  0  0  0  0  0
   39.8690   22.8200   37.7820 C   0  0  0  0  0  0  0  0  0  0  0  0
   40.4560   22.1250   38.3490 H   0  0  0  0  0  0  0  0  0  0  0  0
   38.7980   23.3830   38.4470 C   0  0  0  0  0  3  0  0  0  0  0  0
   37.9970   24.2870   37.7800 C   0  0  0  0  0  3  0  0  0  0  0  0
  1  4  1  0  0  0  0
  1 16  1  0  0  0  0
  2  1  1  0  0  0  0
  3  1  1  0  0  0  0
  4  6  1  0  0  0  0
  5  4  1  0  0  0  0
  7  8  1  0  0  0  0
  7  4  1  0  0  0  0
  8 13  1  0  0  0  0
  9 14  1  0  0  0  0
  9  8  2  0  0  0  0
 10  9  1  0  0  0  0
 11 10  2  0  0  0  0
 11 12  1  0  0  0  0
 12  7  2  0  0  0  0
 15 11  1  0  0  0  0
 16 18  1  0  0  0  0
 18 21  1  0  0  0  0
 18 17  2  1  0  0  0
 19 18  1  0  0  0  0
 20 19  1  0  0  0  0
 21 24  1  0  0  0  0
 22 23  1  0  0  0  0
 23 30  1  0  0  0  0
 24 25  1  0  0  0  0
 24 23  2  0  0  0  0
 25 27  2  0  0  0  0
 26 25  1  0  0  0  0
 27 28  1  0  0  0  0
 27 29  1  0  0  0  0
 30 29  2  0  0  0  0
M  END
>  <minimizedAffinity>
-4.66213226

$$$$

 OpenBabel03262521483D

 30 31  0  0  0  0  0  0  0  0999 V2000
   39.0490   24.1260   33.8110 C   0  0  0  0  0  0  0  0  0  0  0  0
   39.0790   25.2140   34.0070 H   0  0  0  0  0  0  0  0  0  0  0  0
   40.0780   23.7100   33.9420 H   0  0  0  0  0  0  0  0  0  0  0  0
   38.0360   23.4670   34.6900 C   0  0  0  0  0  0  0  0  0  0  0  0
   37.9940   22.3880   34.3800 H   0  0  0  0  0  0  0  0  0  0  0  0
   36.9970   23.8510   34.5320 H   0  0  0  0  0  0  0  0  0  0  0  0
   38.3620   23.4840   36.1180 C   0  0  0  0  0  0  0  0  0  0  0  0
   37.5950   24.1390   37.0530 C   0  0  0  0  0  0  0  0  0  0  0  0
   37.9850   24.1020   38.4000 C   0  0  0  0  0  0  0  0  0  0  0  0
   39.1210   23.4100   38.7140 N   0  0  0  0  0  0  0  0  0  0  0  0
   39.8630   22.7670   37.7520 C   0  0  0  0  0  0  0  0  0  0  0  0
   39.4670   22.8150   36.4490 N   0  0  0  0  0  0  0  0  0  0  0  0
   36.7040   24.6710   36.7280 H   0  0  0  0  0  0  0  0  0  0  0  0
   37.4110   24.6000   39.1460 H   0  0  0  0  0  0  0  0  0  0  0  0
   40.7560   22.2290   38.0390 H   0  0  0  0  0  0  0  0  0  0  0  0
   38.7150   23.8570   32.4870 O   0  0  0  0  0  0  0  0  0  0  0  0
   36.3710   24.8950   32.0500 O   0  0  0  0  0  0  0  0  0  0  0  0
   37.8480   25.1390   31.7840 P   0  0  2  0  0  0  0  0  0  0  0  0
   38.0410   25.1330   30.1110 O   0  0  0  0  0  0  0  0  0  0  0  0
   37.7240   24.3270   29.6690 H   0  0  0  0  0  0  0  0  0  0  0  0
   38.3460   26.6090   32.4040 O   0  0  0  0  0  0  0  0  0  0  0  0
   37.2640   26.8160   35.0100 F   0  0  0  0  0  0  0  0  0  0  0  0
   36.8500   27.7240   34.1120 C   0  0  0  0  0  0  0  0  0  0  0  0
   37.4330   27.5380   32.8760 C   0  0  0  0  0  0  0  0  0  0  0  0
   37.1000   28.4120   31.8330 C   0  0  0  0  0  0  0  0  0  0  0  0
   37.4610   28.4090   30.8060 H   0  0  0  0  0  0  0  0  0  0  0  0
   36.1900   29.4560   32.0340 C   0  0  0  0  0  0  0  0  0  0  0  0
   35.8900   30.1590   31.2810 H   0  0  0  0  0  0  0  0  0  0  0  0
   35.6160   29.6280   33.2780 C   0  0  0  0  0  3  0  0  0  0  0  0
   35.9550   28.7600   34.2950 C   0  0  0  0  0  3  0  0  0  0  0  0
  1  3  1  0  0  0  0
  1  2  1  0  0  0  0
  1  4  1  0  0  0  0
  4  7  1  0  0  0  0
  5  4  1  0  0  0  0
  6  4  1  0  0  0  0
  7 12  2  0  0  0  0
  7  8  1  0  0  0  0
  8  9  2  0  0  0  0
  9 10  1  0  0  0  0
  9 14  1  0  0  0  0
 11 15  1  0  0  0  0
 11 10  2  0  0  0  0
 12 11  1  0  0  0  0
 13  8  1  0  0  0  0
 16  1  1  0  0  0  0
 18 17  2  1  0  0  0
 18 21  1  0  0  0  0
 18 16  1  0  0  0  0
 19 18  1  0  0  0  0
 20 19  1  0  0  0  0
 21 24  1  0  0  0  0
 23 30  1  0  0  0  0
 23 22  1  0  0  0  0
 24 23  2  0  0  0  0
 25 27  2  0  0  0  0
 25 24  1  0  0  0  0
 26 25  1  0  0  0  0
 27 29  1  0  0  0  0
 28 27  1  0  0  0  0
 29 30  2  0  0  0  0
M  END
>  <minimizedAffinity>
-4.61455107

$$$$
