
 OpenBabel03272501573D

 31 33  0  0  0  0  0  0  0  0999 V2000
   32.7770   27.6300   48.4980 C   0  0  0  0  0  0  0  0  0  0  0  0
   32.2650   26.6470   47.6990 C   0  0  0  0  0  0  0  0  0  0  0  0
   30.9130   26.4530   47.9380 C   0  0  0  0  0  0  0  0  0  0  0  0
   30.6550   27.3680   48.9170 N   0  0  0  0  0  0  0  0  0  0  0  0
   31.7420   28.0600   49.2490 N   0  0  0  0  0  0  0  0  0  0  0  0
   32.7940   26.0500   46.9460 H   0  0  0  0  0  0  0  0  0  0  0  0
   30.1770   25.7820   47.5150 H   0  0  0  0  0  0  0  0  0  0  0  0
   28.9570   29.3600   48.0380 F   0  0  0  0  0  0  0  0  0  0  0  0
   28.5840   28.6600   49.1390 C   0  0  0  0  0  0  0  0  0  0  0  0
   29.4330   27.6560   49.5870 C   0  0  0  0  0  0  0  0  0  0  0  0
   29.0670   26.9250   50.7170 C   0  0  0  0  0  0  0  0  0  0  0  0
   29.7420   26.1400   51.0590 H   0  0  0  0  0  0  0  0  0  0  0  0
   27.8790   27.1760   51.4030 C   0  0  0  0  0  0  0  0  0  0  0  0
   27.5940   26.6070   52.2830 H   0  0  0  0  0  0  0  0  0  0  0  0
   27.0610   28.1810   50.9260 C   0  0  0  0  0  0  0  0  0  0  0  0
   27.3880   28.9310   49.8080 C   0  0  0  0  0  0  0  0  0  0  0  0
   34.1980   28.1130   48.5190 C   0  0  0  0  0  0  0  0  0  0  0  0
   34.9000   27.3810   48.0900 H   0  0  0  0  0  0  0  0  0  0  0  0
   34.2000   29.0620   47.9330 H   0  0  0  0  0  0  0  0  0  0  0  0
   34.4980   28.4630   49.9480 C   0  0  0  0  0  0  0  0  0  0  0  0
   34.5280   27.5550   50.6130 H   0  0  0  0  0  0  0  0  0  0  0  0
   33.7040   29.1400   50.3620 H   0  0  0  0  0  0  0  0  0  0  0  0
   37.4470   30.2770   51.2310 C   0  0  0  0  0  0  0  0  0  0  0  0
   38.1040   30.6760   50.0640 C   0  0  0  0  0  0  0  0  0  0  0  0
   37.5120   30.3080   48.8310 C   0  0  0  0  0  0  0  0  0  0  0  0
   36.3530   29.5980   48.8460 N   0  0  0  0  0  0  0  0  0  0  0  0
   35.7680   29.2440   50.0160 C   0  0  0  0  0  0  0  0  0  0  0  0
   36.3200   29.5860   51.1680 N   0  0  0  0  0  0  0  0  0  0  0  0
   37.9560   30.5920   52.1290 H   0  0  0  0  0  0  0  0  0  0  0  0
   39.0220   31.2380   49.9480 H   0  0  0  0  0  0  0  0  0  0  0  0
   37.8910   30.5380   47.8490 H   0  0  0  0  0  0  0  0  0  0  0  0
  1 17  1  0  0  0  0
  1  5  2  0  0  0  0
  2  3  2  0  0  0  0
  2  1  1  0  0  0  0
  3  4  1  0  0  0  0
  4  5  1  0  0  0  0
  4 10  1  0  0  0  0
  6  2  1  0  0  0  0
  7  3  1  0  0  0  0
  8  9  1  0  0  0  0
  9 10  2  0  0  0  0
  9 16  1  0  0  0  0
 10 11  1  0  0  0  0
 11 12  1  0  0  0  0
 11 13  2  0  0  0  0
 13 14  1  0  0  0  0
 15 13  1  0  0  0  0
 16 15  2  0  0  0  0
 17 20  1  0  0  0  0
 18 17  1  0  0  0  0
 19 17  1  0  0  0  0
 20 27  1  0  0  0  0
 20 22  1  0  0  0  0
 20 21  1  0  0  0  0
 23 29  1  0  0  0  0
 24 23  2  0  0  0  0
 25 26  2  0  0  0  0
 25 24  1  0  0  0  0
 26 27  1  0  0  0  0
 27 28  2  0  0  0  0
 28 23  1  0  0  0  0
 30 24  1  0  0  0  0
 31 25  1  0  0  0  0
M  END
>  <minimizedAffinity>
-6.34019423

>  <minimizedRMSD>
3.3114295

$$$$
