
 OpenBabel03272509423D

 38 40  0  0  1  0  0  0  0  0999 V2000
   36.9990   30.9200   49.1680 C   0  0  0  0  0  0  0  0  0  0  0  0
   36.5990   31.8140   50.1640 C   0  0  0  0  0  0  0  0  0  0  0  0
   37.0910   33.1070   50.2270 C   0  0  0  0  0  0  0  0  0  0  0  0
   38.0160   33.5380   49.2690 C   0  0  0  0  0  0  0  0  0  0  0  0
   38.4000   32.6550   48.3000 C   0  0  0  0  0  0  0  0  0  0  0  0
   37.8850   31.3670   48.2700 C   0  0  0  0  0  0  0  0  0  0  0  0
   35.8780   31.4730   50.9060 H   0  0  0  0  0  0  0  0  0  0  0  0
   36.7270   33.7160   51.0230 H   0  0  0  0  0  0  0  0  0  0  0  0
   38.3340   34.5440   49.4010 H   0  0  0  0  0  0  0  0  0  0  0  0
   39.1180   33.1320   47.6360 H   0  0  0  0  0  0  0  0  0  0  0  0
   36.5110   29.5590   49.1210 C   0  0  2  0  0  0  0  0  0  0  0  0
   37.0090   29.0900   48.1890 H   0  0  0  0  0  0  0  0  0  0  0  0
   33.6170   29.6530   46.9260 C   0  0  0  0  0  0  0  0  0  0  0  0
   32.8990   28.5200   47.2690 C   0  0  0  0  0  0  0  0  0  0  0  0
   33.3720   27.7410   48.3070 C   0  0  0  0  0  0  0  0  0  0  0  0
   34.5290   28.1110   48.9560 N   0  0  0  0  0  0  0  0  0  0  0  0
   35.1680   29.1990   48.5820 C   0  0  0  0  0  0  0  0  0  0  0  0
   34.7200   29.9770   47.5690 N   0  0  0  0  0  0  0  0  0  0  0  0
   33.2130   30.2380   46.1070 H   0  0  0  0  0  0  0  0  0  0  0  0
   31.9920   28.1530   46.8220 H   0  0  0  0  0  0  0  0  0  0  0  0
   32.9400   26.8210   48.7130 H   0  0  0  0  0  0  0  0  0  0  0  0
   37.0760   28.8030   49.9940 O   0  0  0  0  0  0  0  0  0  0  0  0
   36.8890   28.8700   50.9580 H   0  0  0  0  0  0  0  0  0  0  0  0
   38.4000   30.5280   47.2110 C   0  0  0  0  0  3  0  0  0  0  0  0
   39.1320   30.9830   46.1890 C   0  0  0  0  0  3  0  0  0  0  0  0
   39.7430   30.2120   45.0820 C   0  0  0  0  0  0  0  0  0  0  0  0
   39.8540   29.1380   45.3040 H   0  0  0  0  0  0  0  0  0  0  0  0
   40.7950   30.5860   44.9140 H   0  0  0  0  0  0  0  0  0  0  0  0
   38.8350   30.5150   43.5630 S   0  0  0  0  0  0  0  0  0  0  0  0
   39.8760   27.8650   42.9460 F   0  0  0  0  0  0  0  0  0  0  0  0
   40.2410   28.8260   42.0810 C   0  0  0  0  0  0  0  0  0  0  0  0
   39.8750   30.1740   42.1550 C   0  0  0  0  0  0  0  0  0  0  0  0
   40.3230   31.0580   41.1960 C   0  0  0  0  0  0  0  0  0  0  0  0
   39.9860   32.0620   41.3450 H   0  0  0  0  0  0  0  0  0  0  0  0
   41.1280   30.6070   40.1710 C   0  0  0  0  0  0  0  0  0  0  0  0
   41.4600   31.3080   39.4450 H   0  0  0  0  0  0  0  0  0  0  0  0
   41.5080   29.2640   40.0740 C   0  0  0  0  0  3  0  0  0  0  0  0
   41.0550   28.3950   41.0360 C   0  0  0  0  0  3  0  0  0  0  0  0
  1  2  1  0  0  0  0
  2  3  2  0  0  0  0
  2  7  1  0  0  0  0
  3  8  1  0  0  0  0
  4  9  1  0  0  0  0
  4  3  1  0  0  0  0
  5  4  2  0  0  0  0
  6  5  1  0  0  0  0
  6  1  2  0  0  0  0
 10  5  1  0  0  0  0
 11 12  1  6  0  0  0
 11  1  1  0  0  0  0
 11 22  1  0  0  0  0
 13 14  2  0  0  0  0
 13 18  1  0  0  0  0
 14 15  1  0  0  0  0
 15 21  1  0  0  0  0
 15 16  2  0  0  0  0
 17 16  1  0  0  0  0
 17 11  1  0  0  0  0
 18 17  2  0  0  0  0
 19 13  1  0  0  0  0
 20 14  1  0  0  0  0
 22 23  1  0  0  0  0
 24  6  1  0  0  0  0
 25 24  2  0  0  0  0
 26 27  1  0  0  0  0
 26 25  1  0  0  0  0
 28 26  1  0  0  0  0
 29 26  1  0  0  0  0
 31 32  1  0  0  0  0
 31 30  1  0  0  0  0
 32 29  1  0  0  0  0
 33 34  1  0  0  0  0
 33 32  2  0  0  0  0
 35 33  1  0  0  0  0
 36 35  1  0  0  0  0
 37 35  2  0  0  0  0
 37 38  1  0  0  0  0
 38 31  2  0  0  0  0
M  END
>  <minimizedAffinity>
-5.74686909

>  <minimizedRMSD>
0.75704211

$$$$
