
 OpenBabel03272509423D

 38 40  0  0  1  0  0  0  0  0999 V2000
   37.0070   30.9130   49.0760 C   0  0  0  0  0  0  0  0  0  0  0  0
   36.7010   31.7970   50.1130 C   0  0  0  0  0  0  0  0  0  0  0  0
   37.2810   33.0510   50.2000 C   0  0  0  0  0  0  0  0  0  0  0  0
   38.2010   33.4520   49.2240 C   0  0  0  0  0  0  0  0  0  0  0  0
   38.4920   32.5780   48.2150 C   0  0  0  0  0  0  0  0  0  0  0  0
   37.8910   31.3290   48.1620 C   0  0  0  0  0  0  0  0  0  0  0  0
   35.9830   31.4800   50.8690 H   0  0  0  0  0  0  0  0  0  0  0  0
   36.9850   33.6560   51.0270 H   0  0  0  0  0  0  0  0  0  0  0  0
   38.5910   34.4290   49.3770 H   0  0  0  0  0  0  0  0  0  0  0  0
   39.2200   33.0280   47.5420 H   0  0  0  0  0  0  0  0  0  0  0  0
   36.4260   29.5890   49.0040 C   0  0  2  0  0  0  0  0  0  0  0  0
   36.9540   29.0740   48.1130 H   0  0  0  0  0  0  0  0  0  0  0  0
   33.5840   30.0560   46.7870 C   0  0  0  0  0  0  0  0  0  0  0  0
   32.8780   28.8700   46.8940 C   0  0  0  0  0  0  0  0  0  0  0  0
   33.3390   27.9170   47.7820 C   0  0  0  0  0  0  0  0  0  0  0  0
   34.4730   28.1730   48.5190 N   0  0  0  0  0  0  0  0  0  0  0  0
   35.1030   29.3200   48.3710 C   0  0  0  0  0  0  0  0  0  0  0  0
   34.6660   30.2670   47.5090 N   0  0  0  0  0  0  0  0  0  0  0  0
   33.1910   30.7780   46.0810 H   0  0  0  0  0  0  0  0  0  0  0  0
   31.9880   28.5820   46.3630 H   0  0  0  0  0  0  0  0  0  0  0  0
   32.9130   26.9330   47.9980 H   0  0  0  0  0  0  0  0  0  0  0  0
   36.8710   28.8050   49.9200 O   0  0  0  0  0  0  0  0  0  0  0  0
   36.6200   28.8970   50.8680 H   0  0  0  0  0  0  0  0  0  0  0  0
   38.3130   30.4940   47.0610 C   0  0  0  0  0  3  0  0  0  0  0  0
   38.8480   30.9660   45.9300 C   0  0  0  0  0  3  0  0  0  0  0  0
   39.3530   30.2040   44.7640 C   0  0  0  0  0  0  0  0  0  0  0  0
   38.7760   29.2870   44.5560 H   0  0  0  0  0  0  0  0  0  0  0  0
   40.4000   29.8470   44.9870 H   0  0  0  0  0  0  0  0  0  0  0  0
   39.4660   31.2900   43.3380 S   0  0  0  0  0  0  0  0  0  0  0  0
   39.5430   32.2570   40.5900 F   0  0  0  0  0  0  0  0  0  0  0  0
   40.2740   31.1520   40.8170 C   0  0  0  0  0  0  0  0  0  0  0  0
   40.4020   30.4960   42.0440 C   0  0  0  0  0  0  0  0  0  0  0  0
   41.1880   29.3660   42.1370 C   0  0  0  0  0  0  0  0  0  0  0  0
   41.2180   28.9430   43.1190 H   0  0  0  0  0  0  0  0  0  0  0  0
   41.8420   28.8940   41.0180 C   0  0  0  0  0  0  0  0  0  0  0  0
   42.4420   28.0230   41.1160 H   0  0  0  0  0  0  0  0  0  0  0  0
   41.7310   29.5330   39.7790 C   0  0  0  0  0  3  0  0  0  0  0  0
   40.9440   30.6560   39.7020 C   0  0  0  0  0  3  0  0  0  0  0  0
  1  2  1  0  0  0  0
  2  3  2  0  0  0  0
  2  7  1  0  0  0  0
  3  8  1  0  0  0  0
  4  9  1  0  0  0  0
  4  3  1  0  0  0  0
  5  4  2  0  0  0  0
  6  5  1  0  0  0  0
  6  1  2  0  0  0  0
 10  5  1  0  0  0  0
 11 12  1  6  0  0  0
 11  1  1  0  0  0  0
 11 22  1  0  0  0  0
 13 14  2  0  0  0  0
 13 18  1  0  0  0  0
 14 15  1  0  0  0  0
 15 21  1  0  0  0  0
 15 16  2  0  0  0  0
 17 16  1  0  0  0  0
 17 11  1  0  0  0  0
 18 17  2  0  0  0  0
 19 13  1  0  0  0  0
 20 14  1  0  0  0  0
 22 23  1  0  0  0  0
 24  6  1  0  0  0  0
 25 24  2  0  0  0  0
 26 28  1  0  0  0  0
 26 25  1  0  0  0  0
 27 26  1  0  0  0  0
 29 26  1  0  0  0  0
 30 31  1  0  0  0  0
 31 32  1  0  0  0  0
 32 33  2  0  0  0  0
 32 29  1  0  0  0  0
 33 34  1  0  0  0  0
 35 36  1  0  0  0  0
 35 33  1  0  0  0  0
 37 35  2  0  0  0  0
 38 37  1  0  0  0  0
 38 31  2  0  0  0  0
M  END
>  <minimizedAffinity>
-6.01915646

>  <minimizedRMSD>
0.603376448

$$$$
