
 OpenBabel03272509423D

 38 40  0  0  1  0  0  0  0  0999 V2000
   37.0250   30.9160   49.0850 C   0  0  0  0  0  0  0  0  0  0  0  0
   36.7040   31.8250   50.0960 C   0  0  0  0  0  0  0  0  0  0  0  0
   37.2740   33.0850   50.1550 C   0  0  0  0  0  0  0  0  0  0  0  0
   38.2000   33.4660   49.1780 C   0  0  0  0  0  0  0  0  0  0  0  0
   38.5070   32.5690   48.1940 C   0  0  0  0  0  0  0  0  0  0  0  0
   37.9140   31.3150   48.1690 C   0  0  0  0  0  0  0  0  0  0  0  0
   35.9820   31.5220   50.8540 H   0  0  0  0  0  0  0  0  0  0  0  0
   36.9680   33.7090   50.9640 H   0  0  0  0  0  0  0  0  0  0  0  0
   38.5820   34.4500   49.3090 H   0  0  0  0  0  0  0  0  0  0  0  0
   39.2370   33.0070   47.5160 H   0  0  0  0  0  0  0  0  0  0  0  0
   36.4550   29.5870   49.0420 C   0  0  2  0  0  0  0  0  0  0  0  0
   36.9570   29.0700   48.1380 H   0  0  0  0  0  0  0  0  0  0  0  0
   33.6000   29.9180   46.8170 C   0  0  0  0  0  0  0  0  0  0  0  0
   32.8520   28.7790   47.0610 C   0  0  0  0  0  0  0  0  0  0  0  0
   33.2910   27.9110   48.0420 C   0  0  0  0  0  0  0  0  0  0  0  0
   34.4440   28.2020   48.7360 N   0  0  0  0  0  0  0  0  0  0  0  0
   35.1130   29.3010   48.4560 C   0  0  0  0  0  0  0  0  0  0  0  0
   34.6990   30.1650   47.5010 N   0  0  0  0  0  0  0  0  0  0  0  0
   33.2230   30.5730   46.0410 H   0  0  0  0  0  0  0  0  0  0  0  0
   31.9450   28.4680   46.5740 H   0  0  0  0  0  0  0  0  0  0  0  0
   32.8320   26.9730   48.3690 H   0  0  0  0  0  0  0  0  0  0  0  0
   36.9370   28.8140   49.9480 O   0  0  0  0  0  0  0  0  0  0  0  0
   36.7170   28.9110   50.9040 H   0  0  0  0  0  0  0  0  0  0  0  0
   38.3520   30.4550   47.0930 C   0  0  0  0  0  3  0  0  0  0  0  0
   38.5370   30.8700   45.8350 C   0  0  0  0  0  3  0  0  0  0  0  0
   39.0230   30.0900   44.6720 C   0  0  0  0  0  0  0  0  0  0  0  0
   38.2390   29.8840   43.9250 H   0  0  0  0  0  0  0  0  0  0  0  0
   39.3620   29.0740   45.0300 H   0  0  0  0  0  0  0  0  0  0  0  0
   40.4620   30.8990   43.9640 S   0  0  0  0  0  0  0  0  0  0  0  0
   41.9590   29.0260   42.3060 F   0  0  0  0  0  0  0  0  0  0  0  0
   41.1740   29.8770   41.6240 C   0  0  0  0  0  0  0  0  0  0  0  0
   40.3600   30.8660   42.1840 C   0  0  0  0  0  0  0  0  0  0  0  0
   39.6010   31.6740   41.3630 C   0  0  0  0  0  0  0  0  0  0  0  0
   39.0160   32.3960   41.8910 H   0  0  0  0  0  0  0  0  0  0  0  0
   39.6520   31.5000   39.9950 C   0  0  0  0  0  0  0  0  0  0  0  0
   39.0580   32.1350   39.3840 H   0  0  0  0  0  0  0  0  0  0  0  0
   40.4580   30.5180   39.4110 C   0  0  0  0  0  3  0  0  0  0  0  0
   41.2070   29.7220   40.2400 C   0  0  0  0  0  3  0  0  0  0  0  0
  1  2  1  0  0  0  0
  2  3  2  0  0  0  0
  2  7  1  0  0  0  0
  3  8  1  0  0  0  0
  4  9  1  0  0  0  0
  4  3  1  0  0  0  0
  5  4  2  0  0  0  0
  6  5  1  0  0  0  0
  6  1  2  0  0  0  0
 10  5  1  0  0  0  0
 11 12  1  6  0  0  0
 11  1  1  0  0  0  0
 11 22  1  0  0  0  0
 13 14  2  0  0  0  0
 13 18  1  0  0  0  0
 14 15  1  0  0  0  0
 15 21  1  0  0  0  0
 15 16  2  0  0  0  0
 17 16  1  0  0  0  0
 17 11  1  0  0  0  0
 18 17  2  0  0  0  0
 19 13  1  0  0  0  0
 20 14  1  0  0  0  0
 22 23  1  0  0  0  0
 24  6  1  0  0  0  0
 25 24  2  0  0  0  0
 26 28  1  0  0  0  0
 26 25  1  0  0  0  0
 27 26  1  0  0  0  0
 29 26  1  0  0  0  0
 31 32  1  0  0  0  0
 31 30  1  0  0  0  0
 32 29  1  0  0  0  0
 33 34  1  0  0  0  0
 33 32  2  0  0  0  0
 35 33  1  0  0  0  0
 36 35  1  0  0  0  0
 37 35  2  0  0  0  0
 37 38  1  0  0  0  0
 38 31  2  0  0  0  0
M  END
>  <minimizedAffinity>
-6.07326746

>  <minimizedRMSD>
1.0022378

$$$$
