
 OpenBabel03272509423D

 38 40  0  0  1  0  0  0  0  0999 V2000
   37.0300   30.9930   49.0640 C   0  0  0  0  0  0  0  0  0  0  0  0
   36.6300   31.8640   50.0810 C   0  0  0  0  0  0  0  0  0  0  0  0
   37.1660   33.1340   50.2080 C   0  0  0  0  0  0  0  0  0  0  0  0
   38.1370   33.5650   49.2970 C   0  0  0  0  0  0  0  0  0  0  0  0
   38.5200   32.7050   48.3080 C   0  0  0  0  0  0  0  0  0  0  0  0
   37.9600   31.4390   48.2120 C   0  0  0  0  0  0  0  0  0  0  0  0
   35.8730   31.5230   50.7860 H   0  0  0  0  0  0  0  0  0  0  0  0
   36.7990   33.7270   51.0150 H   0  0  0  0  0  0  0  0  0  0  0  0
   38.4860   34.5530   49.4770 H   0  0  0  0  0  0  0  0  0  0  0  0
   39.2770   33.1790   47.6850 H   0  0  0  0  0  0  0  0  0  0  0  0
   36.4940   29.6540   48.9510 C   0  0  2  0  0  0  0  0  0  0  0  0
   37.0060   29.2000   48.0180 H   0  0  0  0  0  0  0  0  0  0  0  0
   33.6690   29.9570   46.6850 C   0  0  0  0  0  0  0  0  0  0  0  0
   32.9110   28.8280   46.9420 C   0  0  0  0  0  0  0  0  0  0  0  0
   33.3320   27.9770   47.9470 C   0  0  0  0  0  0  0  0  0  0  0  0
   34.4790   28.2760   48.6480 N   0  0  0  0  0  0  0  0  0  0  0  0
   35.1580   29.3640   48.3550 C   0  0  0  0  0  0  0  0  0  0  0  0
   34.7620   30.2110   47.3770 N   0  0  0  0  0  0  0  0  0  0  0  0
   33.3060   30.5990   45.8910 H   0  0  0  0  0  0  0  0  0  0  0  0
   32.0080   28.5130   46.4510 H   0  0  0  0  0  0  0  0  0  0  0  0
   32.8630   27.0490   48.2870 H   0  0  0  0  0  0  0  0  0  0  0  0
   37.0010   28.8460   49.8120 O   0  0  0  0  0  0  0  0  0  0  0  0
   36.7840   28.8850   50.7720 H   0  0  0  0  0  0  0  0  0  0  0  0
   38.4790   30.6210   47.1400 C   0  0  0  0  0  3  0  0  0  0  0  0
   39.3020   31.0740   46.1880 C   0  0  0  0  0  3  0  0  0  0  0  0
   39.9250   30.3190   45.0760 C   0  0  0  0  0  0  0  0  0  0  0  0
   40.0960   29.2550   45.3100 H   0  0  0  0  0  0  0  0  0  0  0  0
   40.9510   30.7440   44.8760 H   0  0  0  0  0  0  0  0  0  0  0  0
   38.9640   30.5520   43.5770 S   0  0  0  0  0  0  0  0  0  0  0  0
   39.8710   27.8520   42.9670 F   0  0  0  0  0  0  0  0  0  0  0  0
   40.2590   28.7870   42.0840 C   0  0  0  0  0  0  0  0  0  0  0  0
   39.9570   30.1500   42.1510 C   0  0  0  0  0  0  0  0  0  0  0  0
   40.4220   31.0020   41.1730 C   0  0  0  0  0  0  0  0  0  0  0  0
   40.1350   32.0230   41.3180 H   0  0  0  0  0  0  0  0  0  0  0  0
   41.1830   30.5050   40.1360 C   0  0  0  0  0  0  0  0  0  0  0  0
   41.5310   31.1820   39.3950 H   0  0  0  0  0  0  0  0  0  0  0  0
   41.5010   29.1460   40.0470 C   0  0  0  0  0  3  0  0  0  0  0  0
   41.0300   28.3080   41.0280 C   0  0  0  0  0  3  0  0  0  0  0  0
  1  2  1  0  0  0  0
  2  3  2  0  0  0  0
  2  7  1  0  0  0  0
  3  8  1  0  0  0  0
  4  9  1  0  0  0  0
  4  3  1  0  0  0  0
  5  4  2  0  0  0  0
  6  5  1  0  0  0  0
  6  1  2  0  0  0  0
 10  5  1  0  0  0  0
 11 12  1  6  0  0  0
 11  1  1  0  0  0  0
 11 22  1  0  0  0  0
 13 14  2  0  0  0  0
 13 18  1  0  0  0  0
 14 15  1  0  0  0  0
 15 21  1  0  0  0  0
 15 16  2  0  0  0  0
 17 16  1  0  0  0  0
 17 11  1  0  0  0  0
 18 17  2  0  0  0  0
 19 13  1  0  0  0  0
 20 14  1  0  0  0  0
 22 23  1  0  0  0  0
 24  6  1  0  0  0  0
 25 24  2  0  0  0  0
 26 27  1  0  0  0  0
 26 25  1  0  0  0  0
 28 26  1  0  0  0  0
 29 26  1  0  0  0  0
 31 32  1  0  0  0  0
 31 30  1  0  0  0  0
 32 29  1  0  0  0  0
 33 34  1  0  0  0  0
 33 32  2  0  0  0  0
 35 33  1  0  0  0  0
 36 35  1  0  0  0  0
 37 35  2  0  0  0  0
 37 38  1  0  0  0  0
 38 31  2  0  0  0  0
M  END
>  <minimizedAffinity>
-5.74844837

>  <minimizedRMSD>
0.813170791

$$$$
