
 OpenBabel03272500233D

 31 33  0  0  0  0  0  0  0  0999 V2000
   36.2010   30.4270   45.3910 C   0  0  0  0  0  0  0  0  0  0  0  0
   34.9710   29.9970   45.8530 C   0  0  0  0  0  0  0  0  0  0  0  0
   35.0430   29.8760   47.2140 C   0  0  0  0  0  0  0  0  0  0  0  0
   36.2850   30.2250   47.5590 N   0  0  0  0  0  0  0  0  0  0  0  0
   36.9490   30.5440   46.4750 N   0  0  0  0  0  0  0  0  0  0  0  0
   34.0820   29.7800   45.2910 H   0  0  0  0  0  0  0  0  0  0  0  0
   34.2320   29.5560   47.8750 H   0  0  0  0  0  0  0  0  0  0  0  0
   38.6000   31.4840   48.5460 F   0  0  0  0  0  0  0  0  0  0  0  0
   37.8470   30.8260   49.4310 C   0  0  0  0  0  0  0  0  0  0  0  0
   36.7130   30.2140   48.9250 C   0  0  0  0  0  0  0  0  0  0  0  0
   35.8830   29.5090   49.8040 C   0  0  0  0  0  0  0  0  0  0  0  0
   34.9760   29.0060   49.4630 H   0  0  0  0  0  0  0  0  0  0  0  0
   36.1970   29.4290   51.1470 C   0  0  0  0  0  0  0  0  0  0  0  0
   35.5250   28.8690   51.8120 H   0  0  0  0  0  0  0  0  0  0  0  0
   37.3220   30.0360   51.6550 C   0  0  0  0  0  0  0  0  0  0  0  0
   38.1350   30.7300   50.7800 C   0  0  0  0  0  0  0  0  0  0  0  0
   36.4430   30.6530   43.9490 C   0  0  0  0  0  0  0  0  0  0  0  0
   35.6810   30.0820   43.3290 H   0  0  0  0  0  0  0  0  0  0  0  0
   36.1670   31.6950   43.7500 H   0  0  0  0  0  0  0  0  0  0  0  0
   37.7680   30.1850   43.4860 C   0  0  0  0  0  0  0  0  0  0  0  0
   37.8210   29.0620   43.3490 H   0  0  0  0  0  0  0  0  0  0  0  0
   38.4710   30.3440   44.3610 H   0  0  0  0  0  0  0  0  0  0  0  0
   38.3560   30.7820   42.3220 C   0  0  0  0  0  0  0  0  0  0  0  0
   37.6360   31.6290   41.5250 C   0  0  0  0  0  0  0  0  0  0  0  0
   38.2140   32.2130   40.3750 C   0  0  0  0  0  0  0  0  0  0  0  0
   39.5340   31.8650   40.1350 N   0  0  0  0  0  0  0  0  0  0  0  0
   40.2050   31.0240   40.9520 C   0  0  0  0  0  0  0  0  0  0  0  0
   39.6140   30.4880   42.0380 N   0  0  0  0  0  0  0  0  0  0  0  0
   36.6190   31.9710   41.6100 H   0  0  0  0  0  0  0  0  0  0  0  0
   37.7310   32.8880   39.6900 H   0  0  0  0  0  0  0  0  0  0  0  0
   41.2260   30.8100   40.6870 H   0  0  0  0  0  0  0  0  0  0  0  0
  1  2  1  0  0  0  0
  1  5  2  0  0  0  0
  2  3  2  0  0  0  0
  3  4  1  0  0  0  0
  3  7  1  0  0  0  0
  4 10  1  0  0  0  0
  5  4  1  0  0  0  0
  6  2  1  0  0  0  0
  8  9  1  0  0  0  0
  9 16  1  0  0  0  0
 10  9  2  0  0  0  0
 10 11  1  0  0  0  0
 11 13  2  0  0  0  0
 12 11  1  0  0  0  0
 13 15  1  0  0  0  0
 13 14  1  0  0  0  0
 16 15  2  0  0  0  0
 17  1  1  0  0  0  0
 18 17  1  0  0  0  0
 19 17  1  0  0  0  0
 20 17  1  0  0  0  0
 20 22  1  0  0  0  0
 21 20  1  0  0  0  0
 23 20  1  0  0  0  0
 24 29  1  0  0  0  0
 24 23  2  0  0  0  0
 25 24  1  0  0  0  0
 26 25  2  0  0  0  0
 26 27  1  0  0  0  0
 27 28  2  0  0  0  0
 28 23  1  0  0  0  0
 30 25  1  0  0  0  0
 31 27  1  0  0  0  0
M  END
>  <minimizedAffinity>
-4.9878726

>  <minimizedRMSD>
4.67778254

$$$$
