
 OpenBabel03272503143D

 46 50  0  0  0  0  0  0  0  0999 V2000
   37.9250   26.3230   35.0510 C   0  0  0  0  0  0  0  0  0  0  0  0
   38.7000   26.7890   35.9520 O   0  0  0  0  0  0  0  0  0  0  0  0
   37.6820   24.9300   35.1170 N   0  0  0  0  0  0  0  0  0  0  0  0
   37.0410   24.5340   34.3840 H   0  0  0  0  0  0  0  0  0  0  0  0
   36.2860   27.9750   34.4480 C   0  0  0  0  0  0  0  0  0  0  0  0
   37.3770   27.2390   34.0680 C   0  0  0  0  0  0  0  0  0  0  0  0
   37.9510   27.3380   32.8250 C   0  0  0  0  0  0  0  0  0  0  0  0
   37.4100   28.2250   31.8930 C   0  0  0  0  0  0  0  0  0  0  0  0
   37.7400   28.5310   30.6440 N   0  0  0  0  0  0  0  0  0  0  0  0
   36.8840   29.4460   30.2160 C   0  0  0  0  0  0  0  0  0  0  0  0
   36.0050   29.7270   31.1950 N   0  0  0  0  0  0  0  0  0  0  0  0
   36.3060   28.9660   32.2850 C   0  0  0  0  0  0  0  0  0  0  0  0
   35.7180   28.8740   33.5410 C   0  0  0  0  0  0  0  0  0  0  0  0
   35.8910   27.8590   35.4390 H   0  0  0  0  0  0  0  0  0  0  0  0
   38.8080   26.7510   32.5440 H   0  0  0  0  0  0  0  0  0  0  0  0
   38.5500   28.0860   30.1440 H   0  0  0  0  0  0  0  0  0  0  0  0
   36.9270   29.8720   29.2290 H   0  0  0  0  0  0  0  0  0  0  0  0
   34.6240   29.6220   33.8940 O   0  0  0  0  0  0  0  0  0  0  0  0
   32.5400   29.9940   35.7760 F   0  0  0  0  0  0  0  0  0  0  0  0
   33.6870   30.7300   35.8010 C   0  0  0  0  0  0  0  0  0  0  0  0
   34.7170   30.5710   34.8880 C   0  0  0  0  0  0  0  0  0  0  0  0
   35.8020   31.4270   35.0700 C   0  0  0  0  0  0  0  0  0  0  0  0
   36.6080   31.3050   34.3590 H   0  0  0  0  0  0  0  0  0  0  0  0
   35.8630   32.3660   36.0730 C   0  0  0  0  0  0  0  0  0  0  0  0
   36.7490   32.9650   36.1080 H   0  0  0  0  0  0  0  0  0  0  0  0
   34.8070   32.4850   36.9590 C   0  0  0  0  0  3  0  0  0  0  0  0
   33.7100   31.6560   36.8170 C   0  0  0  0  0  3  0  0  0  0  0  0
   40.1340   23.8340   34.7500 F   0  0  0  0  0  0  0  0  0  0  0  0
   39.6070   23.7310   35.9980 C   0  0  0  0  0  0  0  0  0  0  0  0
   40.3040   23.1030   36.9840 C   0  0  0  0  0  0  0  0  0  0  0  0
   39.7050   23.0360   38.2260 C   0  0  0  0  0  0  0  0  0  0  0  0
   38.4630   23.5710   38.4810 C   0  0  0  0  0  0  0  0  0  0  0  0
   37.7790   24.2030   37.4570 C   0  0  0  0  0  0  0  0  0  0  0  0
   38.3670   24.2800   36.1970 C   0  0  0  0  0  0  0  0  0  0  0  0
   40.2470   22.5400   39.0190 H   0  0  0  0  0  0  0  0  0  0  0  0
   38.0540   23.4820   39.4780 H   0  0  0  0  0  0  0  0  0  0  0  0
   36.8120   24.6240   37.6410 H   0  0  0  0  0  0  0  0  0  0  0  0
   43.9810   22.7980   36.1340 C   0  0  0  0  0  0  0  0  0  0  0  0
   42.7230   23.3680   36.4460 C   0  0  0  0  0  0  0  0  0  0  0  0
   41.6190   22.5520   36.6610 C   0  0  0  0  0  0  0  0  0  0  0  0
   41.7990   21.2070   36.5620 N   0  0  0  0  0  0  0  0  0  0  0  0
   43.0010   20.6730   36.2650 C   0  0  0  0  0  0  0  0  0  0  0  0
   44.0610   21.4520   36.0580 N   0  0  0  0  0  0  0  0  0  0  0  0
   44.8370   23.4260   35.9670 H   0  0  0  0  0  0  0  0  0  0  0  0
   42.6000   24.4410   36.5200 H   0  0  0  0  0  0  0  0  0  0  0  0
   43.1600   19.6030   36.1820 H   0  0  0  0  0  0  0  0  0  0  0  0
  1  3  1  0  0  0  0
  1  2  2  0  0  0  0
  3 34  1  0  0  0  0
  4  3  1  0  0  0  0
  5 14  1  0  0  0  0
  6  5  1  0  0  0  0
  6  1  1  0  0  0  0
  7  6  2  0  0  0  0
  8 12  2  0  0  0  0
  8  7  1  0  0  0  0
  9  8  1  0  0  0  0
 10  9  1  0  0  0  0
 10 11  2  0  0  0  0
 11 12  1  0  0  0  0
 12 13  1  0  0  0  0
 13 18  1  0  0  0  0
 13  5  2  0  0  0  0
 15  7  1  0  0  0  0
 16  9  1  0  0  0  0
 17 10  1  0  0  0  0
 18 21  1  0  0  0  0
 19 20  1  0  0  0  0
 20 27  1  0  0  0  0
 21 22  1  0  0  0  0
 21 20  2  0  0  0  0
 22 24  2  0  0  0  0
 23 22  1  0  0  0  0
 24 25  1  0  0  0  0
 24 26  1  0  0  0  0
 27 26  2  0  0  0  0
 28 29  1  0  0  0  0
 29 34  2  0  0  0  0
 29 30  1  0  0  0  0
 30 31  2  0  0  0  0
 31 32  1  0  0  0  0
 31 35  1  0  0  0  0
 32 36  1  0  0  0  0
 33 37  1  0  0  0  0
 33 32  2  0  0  0  0
 34 33  1  0  0  0  0
 38 39  1  0  0  0  0
 39 45  1  0  0  0  0
 39 40  2  0  0  0  0
 40 30  1  0  0  0  0
 41 40  1  0  0  0  0
 42 41  2  0  0  0  0
 43 38  2  0  0  0  0
 43 42  1  0  0  0  0
 44 38  1  0  0  0  0
 46 42  1  0  0  0  0
M  END
>  <minimizedAffinity>
-7.64645195

$$$$

 OpenBabel03272503143D

 46 50  0  0  0  0  0  0  0  0999 V2000
   36.5890   25.5690   32.2480 C   0  0  0  0  0  0  0  0  0  0  0  0
   35.5590   26.0010   31.6290 O   0  0  0  0  0  0  0  0  0  0  0  0
   37.4080   26.5640   32.8350 N   0  0  0  0  0  0  0  0  0  0  0  0
   38.2570   26.2220   33.3530 H   0  0  0  0  0  0  0  0  0  0  0  0
   37.7180   23.6850   33.2220 C   0  0  0  0  0  0  0  0  0  0  0  0
   36.8200   24.1380   32.2930 C   0  0  0  0  0  0  0  0  0  0  0  0
   36.1510   23.3060   31.4300 C   0  0  0  0  0  0  0  0  0  0  0  0
   36.3860   21.9320   31.4890 C   0  0  0  0  0  0  0  0  0  0  0  0
   35.9010   20.9050   30.8010 N   0  0  0  0  0  0  0  0  0  0  0  0
   36.4700   19.8040   31.2690 C   0  0  0  0  0  0  0  0  0  0  0  0
   37.3200   20.1290   32.2590 N   0  0  0  0  0  0  0  0  0  0  0  0
   37.2970   21.4810   32.4300 C   0  0  0  0  0  0  0  0  0  0  0  0
   37.9790   22.3140   33.3100 C   0  0  0  0  0  0  0  0  0  0  0  0
   38.2000   24.3860   33.8750 H   0  0  0  0  0  0  0  0  0  0  0  0
   35.4490   23.6810   30.7060 H   0  0  0  0  0  0  0  0  0  0  0  0
   35.1920   21.0190   30.0320 H   0  0  0  0  0  0  0  0  0  0  0  0
   36.2510   18.8230   30.8840 H   0  0  0  0  0  0  0  0  0  0  0  0
   38.8750   21.8330   34.2290 O   0  0  0  0  0  0  0  0  0  0  0  0
   41.2470   21.9990   35.7670 F   0  0  0  0  0  0  0  0  0  0  0  0
   40.0310   22.3670   36.2590 C   0  0  0  0  0  0  0  0  0  0  0  0
   38.8560   22.2890   35.5290 C   0  0  0  0  0  0  0  0  0  0  0  0
   37.7110   22.6970   36.2110 C   0  0  0  0  0  0  0  0  0  0  0  0
   36.7920   22.6380   35.6430 H   0  0  0  0  0  0  0  0  0  0  0  0
   37.7260   23.1460   37.5110 C   0  0  0  0  0  0  0  0  0  0  0  0
   36.7820   23.4310   37.9250 H   0  0  0  0  0  0  0  0  0  0  0  0
   38.9260   23.2050   38.1970 C   0  0  0  0  0  3  0  0  0  0  0  0
   40.0880   22.8100   37.5600 C   0  0  0  0  0  3  0  0  0  0  0  0
   36.1150   27.9110   34.8000 F   0  0  0  0  0  0  0  0  0  0  0  0
   36.2790   28.5710   33.6230 C   0  0  0  0  0  0  0  0  0  0  0  0
   35.8050   29.8370   33.4770 C   0  0  0  0  0  0  0  0  0  0  0  0
   36.0080   30.4430   32.2530 C   0  0  0  0  0  0  0  0  0  0  0  0
   36.6560   29.8160   31.2130 C   0  0  0  0  0  0  0  0  0  0  0  0
   37.1270   28.5260   31.3920 C   0  0  0  0  0  0  0  0  0  0  0  0
   36.9310   27.9000   32.6200 C   0  0  0  0  0  0  0  0  0  0  0  0
   35.6360   31.4500   32.1220 H   0  0  0  0  0  0  0  0  0  0  0  0
   36.7800   30.3500   30.2800 H   0  0  0  0  0  0  0  0  0  0  0  0
   37.6330   28.0270   30.5930 H   0  0  0  0  0  0  0  0  0  0  0  0
   35.1030   31.8550   36.6030 C   0  0  0  0  0  0  0  0  0  0  0  0
   35.7960   31.2720   35.5150 C   0  0  0  0  0  0  0  0  0  0  0  0
   35.1240   30.4580   34.6120 C   0  0  0  0  0  0  0  0  0  0  0  0
   33.7940   30.2520   34.8160 N   0  0  0  0  0  0  0  0  0  0  0  0
   33.1420   30.8120   35.8550 C   0  0  0  0  0  0  0  0  0  0  0  0
   33.7840   31.5930   36.7220 N   0  0  0  0  0  0  0  0  0  0  0  0
   35.6200   32.4860   37.3030 H   0  0  0  0  0  0  0  0  0  0  0  0
   36.8550   31.4480   35.3690 H   0  0  0  0  0  0  0  0  0  0  0  0
   32.0820   30.6570   36.0310 H   0  0  0  0  0  0  0  0  0  0  0  0
  1  6  1  0  0  0  0
  1  3  1  0  0  0  0
  2  1  2  0  0  0  0
  3  4  1  0  0  0  0
  5 13  1  0  0  0  0
  5 14  1  0  0  0  0
  6  5  2  0  0  0  0
  7  8  2  0  0  0  0
  7  6  1  0  0  0  0
  8 12  1  0  0  0  0
  9 10  1  0  0  0  0
  9  8  1  0  0  0  0
 10 11  2  0  0  0  0
 11 12  1  0  0  0  0
 12 13  2  0  0  0  0
 13 18  1  0  0  0  0
 15  7  1  0  0  0  0
 16  9  1  0  0  0  0
 17 10  1  0  0  0  0
 18 21  1  0  0  0  0
 19 20  1  0  0  0  0
 20 27  1  0  0  0  0
 21 22  1  0  0  0  0
 21 20  2  0  0  0  0
 22 24  2  0  0  0  0
 23 22  1  0  0  0  0
 24 25  1  0  0  0  0
 24 26  1  0  0  0  0
 27 26  2  0  0  0  0
 29 28  1  0  0  0  0
 30 29  1  0  0  0  0
 30 40  1  0  0  0  0
 31 30  2  0  0  0  0
 32 33  2  0  0  0  0
 32 31  1  0  0  0  0
 33 34  1  0  0  0  0
 34  3  1  0  0  0  0
 34 29  2  0  0  0  0
 35 31  1  0  0  0  0
 36 32  1  0  0  0  0
 37 33  1  0  0  0  0
 38 43  1  0  0  0  0
 38 44  1  0  0  0  0
 39 38  2  0  0  0  0
 40 41  2  0  0  0  0
 40 39  1  0  0  0  0
 41 42  1  0  0  0  0
 42 46  1  0  0  0  0
 42 43  2  0  0  0  0
 45 39  1  0  0  0  0
M  END
>  <minimizedAffinity>
-7.49982548

$$$$

 OpenBabel03272503143D

 46 50  0  0  0  0  0  0  0  0999 V2000
   37.8450   26.4600   35.0110 C   0  0  0  0  0  0  0  0  0  0  0  0
   38.5170   26.9160   35.9950 O   0  0  0  0  0  0  0  0  0  0  0  0
   37.6810   25.0530   34.9850 N   0  0  0  0  0  0  0  0  0  0  0  0
   37.1240   24.6640   34.1830 H   0  0  0  0  0  0  0  0  0  0  0  0
   36.3720   28.2800   34.4730 C   0  0  0  0  0  0  0  0  0  0  0  0
   37.3230   27.3980   34.0350 C   0  0  0  0  0  0  0  0  0  0  0  0
   37.7850   27.3730   32.7430 C   0  0  0  0  0  0  0  0  0  0  0  0
   37.2700   28.2840   31.8180 C   0  0  0  0  0  0  0  0  0  0  0  0
   37.5150   28.4960   30.5300 N   0  0  0  0  0  0  0  0  0  0  0  0
   36.7420   29.4940   30.1340 C   0  0  0  0  0  0  0  0  0  0  0  0
   36.0010   29.9230   31.1720 N   0  0  0  0  0  0  0  0  0  0  0  0
   36.3080   29.1740   32.2680 C   0  0  0  0  0  0  0  0  0  0  0  0
   35.8350   29.2080   33.5740 C   0  0  0  0  0  0  0  0  0  0  0  0
   36.0620   28.2560   35.4990 H   0  0  0  0  0  0  0  0  0  0  0  0
   38.5320   26.6720   32.4170 H   0  0  0  0  0  0  0  0  0  0  0  0
   38.2140   27.9310   29.9840 H   0  0  0  0  0  0  0  0  0  0  0  0
   36.7430   29.8710   29.1260 H   0  0  0  0  0  0  0  0  0  0  0  0
   34.8800   30.1020   33.9850 O   0  0  0  0  0  0  0  0  0  0  0  0
   32.9930   30.1260   31.8740 F   0  0  0  0  0  0  0  0  0  0  0  0
   32.6750   29.7100   33.1320 C   0  0  0  0  0  0  0  0  0  0  0  0
   33.5790   29.6950   34.1830 C   0  0  0  0  0  0  0  0  0  0  0  0
   33.0620   29.2480   35.3970 C   0  0  0  0  0  0  0  0  0  0  0  0
   33.7640   29.2350   36.2200 H   0  0  0  0  0  0  0  0  0  0  0  0
   31.7550   28.8500   35.5610 C   0  0  0  0  0  0  0  0  0  0  0  0
   31.4770   28.5280   36.5420 H   0  0  0  0  0  0  0  0  0  0  0  0
   30.8930   28.8830   34.4800 C   0  0  0  0  0  3  0  0  0  0  0  0
   31.3630   29.3190   33.2550 C   0  0  0  0  0  3  0  0  0  0  0  0
   40.1530   23.9760   34.7130 F   0  0  0  0  0  0  0  0  0  0  0  0
   39.5670   23.8420   35.9320 C   0  0  0  0  0  0  0  0  0  0  0  0
   40.2180   23.1960   36.9370 C   0  0  0  0  0  0  0  0  0  0  0  0
   39.5600   23.1000   38.1460 C   0  0  0  0  0  0  0  0  0  0  0  0
   38.3050   23.6230   38.3520 C   0  0  0  0  0  0  0  0  0  0  0  0
   37.6670   24.2750   37.3100 C   0  0  0  0  0  0  0  0  0  0  0  0
   38.3160   24.3820   36.0830 C   0  0  0  0  0  0  0  0  0  0  0  0
   40.0660   22.5880   38.9540 H   0  0  0  0  0  0  0  0  0  0  0  0
   37.8480   23.5110   39.3260 H   0  0  0  0  0  0  0  0  0  0  0  0
   36.6910   24.6880   37.4560 H   0  0  0  0  0  0  0  0  0  0  0  0
   43.1010   20.8060   36.3760 C   0  0  0  0  0  0  0  0  0  0  0  0
   41.7970   21.2900   36.6400 C   0  0  0  0  0  0  0  0  0  0  0  0
   41.5510   22.6580   36.6660 C   0  0  0  0  0  0  0  0  0  0  0  0
   42.5980   23.4930   36.4290 N   0  0  0  0  0  0  0  0  0  0  0  0
   43.8370   23.0230   36.1770 C   0  0  0  0  0  0  0  0  0  0  0  0
   44.0760   21.7130   36.1520 N   0  0  0  0  0  0  0  0  0  0  0  0
   43.2950   19.7490   36.3540 H   0  0  0  0  0  0  0  0  0  0  0  0
   40.9760   20.6100   36.8270 H   0  0  0  0  0  0  0  0  0  0  0  0
   44.6810   23.6760   35.9860 H   0  0  0  0  0  0  0  0  0  0  0  0
  1  2  2  0  0  0  0
  3  1  1  0  0  0  0
  3 34  1  0  0  0  0
  4  3  1  0  0  0  0
  5 14  1  0  0  0  0
  6  5  1  0  0  0  0
  6  1  1  0  0  0  0
  7  6  2  0  0  0  0
  8 12  2  0  0  0  0
  8  7  1  0  0  0  0
  9  8  1  0  0  0  0
 10  9  1  0  0  0  0
 10 11  2  0  0  0  0
 11 12  1  0  0  0  0
 12 13  1  0  0  0  0
 13 18  1  0  0  0  0
 13  5  2  0  0  0  0
 15  7  1  0  0  0  0
 16  9  1  0  0  0  0
 17 10  1  0  0  0  0
 18 21  1  0  0  0  0
 19 20  1  0  0  0  0
 20 27  2  0  0  0  0
 20 21  1  0  0  0  0
 21 22  2  0  0  0  0
 22 24  1  0  0  0  0
 22 23  1  0  0  0  0
 24 25  1  0  0  0  0
 26 24  2  0  0  0  0
 27 26  1  0  0  0  0
 28 29  1  0  0  0  0
 29 34  2  0  0  0  0
 29 30  1  0  0  0  0
 30 31  2  0  0  0  0
 31 32  1  0  0  0  0
 31 35  1  0  0  0  0
 32 36  1  0  0  0  0
 33 37  1  0  0  0  0
 33 32  2  0  0  0  0
 34 33  1  0  0  0  0
 38 39  1  0  0  0  0
 39 40  2  0  0  0  0
 39 45  1  0  0  0  0
 40 30  1  0  0  0  0
 41 40  1  0  0  0  0
 42 41  2  0  0  0  0
 43 42  1  0  0  0  0
 43 38  2  0  0  0  0
 44 38  1  0  0  0  0
 46 42  1  0  0  0  0
M  END
>  <minimizedAffinity>
-7.16064548

$$$$

 OpenBabel03272503143D

 46 50  0  0  0  0  0  0  0  0999 V2000
   36.4640   25.5960   32.0810 C   0  0  0  0  0  0  0  0  0  0  0  0
   35.3900   26.0370   31.5490 O   0  0  0  0  0  0  0  0  0  0  0  0
   37.3410   26.5840   32.5900 N   0  0  0  0  0  0  0  0  0  0  0  0
   38.2270   26.2350   33.0360 H   0  0  0  0  0  0  0  0  0  0  0  0
   37.5710   23.6940   33.0440 C   0  0  0  0  0  0  0  0  0  0  0  0
   36.6820   24.1630   32.1150 C   0  0  0  0  0  0  0  0  0  0  0  0
   36.0090   23.3440   31.2410 C   0  0  0  0  0  0  0  0  0  0  0  0
   36.2320   21.9670   31.2890 C   0  0  0  0  0  0  0  0  0  0  0  0
   35.7410   20.9500   30.5900 N   0  0  0  0  0  0  0  0  0  0  0  0
   36.2980   19.8410   31.0520 C   0  0  0  0  0  0  0  0  0  0  0  0
   37.1460   20.1500   32.0490 N   0  0  0  0  0  0  0  0  0  0  0  0
   37.1340   21.5000   32.2320 C   0  0  0  0  0  0  0  0  0  0  0  0
   37.8190   22.3200   33.1210 C   0  0  0  0  0  0  0  0  0  0  0  0
   38.0560   24.3850   33.7060 H   0  0  0  0  0  0  0  0  0  0  0  0
   35.3140   23.7310   30.5170 H   0  0  0  0  0  0  0  0  0  0  0  0
   35.0380   21.0770   29.8190 H   0  0  0  0  0  0  0  0  0  0  0  0
   36.0720   18.8650   30.6580 H   0  0  0  0  0  0  0  0  0  0  0  0
   38.7060   21.8230   34.0420 O   0  0  0  0  0  0  0  0  0  0  0  0
   36.4490   21.7160   35.7480 F   0  0  0  0  0  0  0  0  0  0  0  0
   37.6330   22.2660   36.1380 C   0  0  0  0  0  0  0  0  0  0  0  0
   38.7490   22.3360   35.3190 C   0  0  0  0  0  0  0  0  0  0  0  0
   39.8620   22.9480   35.8920 C   0  0  0  0  0  0  0  0  0  0  0  0
   40.7350   23.0050   35.2560 H   0  0  0  0  0  0  0  0  0  0  0  0
   39.8710   23.4530   37.1720 C   0  0  0  0  0  0  0  0  0  0  0  0
   40.7860   23.9000   37.4990 H   0  0  0  0  0  0  0  0  0  0  0  0
   38.7310   23.3570   37.9490 C   0  0  0  0  0  3  0  0  0  0  0  0
   37.6030   22.7570   37.4220 C   0  0  0  0  0  3  0  0  0  0  0  0
   36.1140   27.9080   34.6110 F   0  0  0  0  0  0  0  0  0  0  0  0
   36.2440   28.5830   33.4390 C   0  0  0  0  0  0  0  0  0  0  0  0
   35.7700   29.8530   33.3250 C   0  0  0  0  0  0  0  0  0  0  0  0
   35.9380   30.4750   32.1040 C   0  0  0  0  0  0  0  0  0  0  0  0
   36.5520   29.8610   31.0370 C   0  0  0  0  0  0  0  0  0  0  0  0
   37.0230   28.5670   31.1830 C   0  0  0  0  0  0  0  0  0  0  0  0
   36.8620   27.9250   32.4080 C   0  0  0  0  0  0  0  0  0  0  0  0
   35.5660   31.4850   31.9990 H   0  0  0  0  0  0  0  0  0  0  0  0
   36.6490   30.4070   30.1080 H   0  0  0  0  0  0  0  0  0  0  0  0
   37.5030   28.0770   30.3620 H   0  0  0  0  0  0  0  0  0  0  0  0
   35.1800   31.7940   36.5230 C   0  0  0  0  0  0  0  0  0  0  0  0
   35.8380   31.2230   35.4070 C   0  0  0  0  0  0  0  0  0  0  0  0
   35.1260   30.4600   34.4890 C   0  0  0  0  0  0  0  0  0  0  0  0
   33.7930   30.2930   34.7070 N   0  0  0  0  0  0  0  0  0  0  0  0
   33.1740   30.8410   35.7720 C   0  0  0  0  0  0  0  0  0  0  0  0
   33.8550   31.5720   36.6530 N   0  0  0  0  0  0  0  0  0  0  0  0
   35.7280   32.3850   37.2350 H   0  0  0  0  0  0  0  0  0  0  0  0
   36.9000   31.3670   35.2510 H   0  0  0  0  0  0  0  0  0  0  0  0
   32.1130   30.7160   35.9590 H   0  0  0  0  0  0  0  0  0  0  0  0
  1  6  1  0  0  0  0
  1  3  1  0  0  0  0
  2  1  2  0  0  0  0
  3  4  1  0  0  0  0
  5 13  1  0  0  0  0
  5 14  1  0  0  0  0
  6  5  2  0  0  0  0
  7  8  2  0  0  0  0
  7  6  1  0  0  0  0
  8 12  1  0  0  0  0
  9 10  1  0  0  0  0
  9  8  1  0  0  0  0
 10 11  2  0  0  0  0
 11 12  1  0  0  0  0
 12 13  2  0  0  0  0
 13 18  1  0  0  0  0
 15  7  1  0  0  0  0
 16  9  1  0  0  0  0
 17 10  1  0  0  0  0
 18 21  1  0  0  0  0
 19 20  1  0  0  0  0
 20 27  1  0  0  0  0
 21 22  1  0  0  0  0
 21 20  2  0  0  0  0
 22 24  2  0  0  0  0
 23 22  1  0  0  0  0
 24 25  1  0  0  0  0
 24 26  1  0  0  0  0
 27 26  2  0  0  0  0
 29 28  1  0  0  0  0
 30 29  1  0  0  0  0
 30 40  1  0  0  0  0
 31 30  2  0  0  0  0
 32 33  2  0  0  0  0
 32 31  1  0  0  0  0
 33 34  1  0  0  0  0
 34  3  1  0  0  0  0
 34 29  2  0  0  0  0
 35 31  1  0  0  0  0
 36 32  1  0  0  0  0
 37 33  1  0  0  0  0
 38 43  1  0  0  0  0
 38 44  1  0  0  0  0
 39 38  2  0  0  0  0
 40 41  2  0  0  0  0
 40 39  1  0  0  0  0
 41 42  1  0  0  0  0
 42 46  1  0  0  0  0
 42 43  2  0  0  0  0
 45 39  1  0  0  0  0
M  END
>  <minimizedAffinity>
-6.98162317

$$$$

 OpenBabel03272503143D

 46 50  0  0  0  0  0  0  0  0999 V2000
   36.7510   26.9280   31.4850 C   0  0  0  0  0  0  0  0  0  0  0  0
   37.4110   26.5550   32.5120 O   0  0  0  0  0  0  0  0  0  0  0  0
   36.6950   25.9920   30.4240 N   0  0  0  0  0  0  0  0  0  0  0  0
   36.1500   26.2840   29.5740 H   0  0  0  0  0  0  0  0  0  0  0  0
   35.2260   28.4870   32.4940 C   0  0  0  0  0  0  0  0  0  0  0  0
   36.1330   28.2400   31.4980 C   0  0  0  0  0  0  0  0  0  0  0  0
   36.4680   29.1670   30.5430 C   0  0  0  0  0  0  0  0  0  0  0  0
   35.8640   30.4250   30.5730 C   0  0  0  0  0  0  0  0  0  0  0  0
   35.9820   31.5000   29.8020 N   0  0  0  0  0  0  0  0  0  0  0  0
   35.1700   32.4290   30.2820 C   0  0  0  0  0  0  0  0  0  0  0  0
   34.5310   31.9470   31.3630 N   0  0  0  0  0  0  0  0  0  0  0  0
   34.9450   30.6670   31.5820 C   0  0  0  0  0  0  0  0  0  0  0  0
   34.6000   29.7360   32.5550 C   0  0  0  0  0  0  0  0  0  0  0  0
   35.0160   27.7240   33.2170 H   0  0  0  0  0  0  0  0  0  0  0  0
   37.1830   28.9550   29.7690 H   0  0  0  0  0  0  0  0  0  0  0  0
   36.6270   31.5370   28.9730 H   0  0  0  0  0  0  0  0  0  0  0  0
   35.0720   33.4060   29.8410 H   0  0  0  0  0  0  0  0  0  0  0  0
   33.6860   30.0090   33.5390 O   0  0  0  0  0  0  0  0  0  0  0  0
   31.8060   30.6860   35.5460 F   0  0  0  0  0  0  0  0  0  0  0  0
   33.1310   30.9860   35.6560 C   0  0  0  0  0  0  0  0  0  0  0  0
   34.0680   30.6710   34.6850 C   0  0  0  0  0  0  0  0  0  0  0  0
   35.3710   31.0730   34.9730 C   0  0  0  0  0  0  0  0  0  0  0  0
   36.1060   30.8290   34.2170 H   0  0  0  0  0  0  0  0  0  0  0  0
   35.7200   31.7340   36.1280 C   0  0  0  0  0  0  0  0  0  0  0  0
   36.7530   31.9900   36.2330 H   0  0  0  0  0  0  0  0  0  0  0  0
   34.7460   32.0250   37.0660 C   0  0  0  0  0  3  0  0  0  0  0  0
   33.4400   31.6450   36.8230 C   0  0  0  0  0  3  0  0  0  0  0  0
   35.4230   23.8370   31.4640 F   0  0  0  0  0  0  0  0  0  0  0  0
   36.7520   23.6930   31.2200 C   0  0  0  0  0  0  0  0  0  0  0  0
   37.3750   22.5160   31.4970 C   0  0  0  0  0  0  0  0  0  0  0  0
   38.7260   22.4450   31.2220 C   0  0  0  0  0  0  0  0  0  0  0  0
   39.4330   23.5010   30.6940 C   0  0  0  0  0  0  0  0  0  0  0  0
   38.7710   24.6860   30.4240 C   0  0  0  0  0  0  0  0  0  0  0  0
   37.4080   24.7760   30.6950 C   0  0  0  0  0  0  0  0  0  0  0  0
   39.2350   21.5150   31.4370 H   0  0  0  0  0  0  0  0  0  0  0  0
   40.4910   23.3760   30.5050 H   0  0  0  0  0  0  0  0  0  0  0  0
   39.3080   25.5160   30.0130 H   0  0  0  0  0  0  0  0  0  0  0  0
   35.6130   20.2130   33.9320 C   0  0  0  0  0  0  0  0  0  0  0  0
   36.3900   21.2830   33.4260 C   0  0  0  0  0  0  0  0  0  0  0  0
   36.5790   21.4250   32.0570 C   0  0  0  0  0  0  0  0  0  0  0  0
   35.9940   20.5060   31.2400 N   0  0  0  0  0  0  0  0  0  0  0  0
   35.2550   19.4910   31.7310 C   0  0  0  0  0  0  0  0  0  0  0  0
   35.0730   19.3530   33.0430 N   0  0  0  0  0  0  0  0  0  0  0  0
   35.4650   20.1010   34.9910 H   0  0  0  0  0  0  0  0  0  0  0  0
   36.8480   22.0040   34.0920 H   0  0  0  0  0  0  0  0  0  0  0  0
   34.7830   18.7510   31.0930 H   0  0  0  0  0  0  0  0  0  0  0  0
  1  6  1  0  0  0  0
  1  2  2  0  0  0  0
  3 34  1  0  0  0  0
  3  1  1  0  0  0  0
  4  3  1  0  0  0  0
  5 13  1  0  0  0  0
  5 14  1  0  0  0  0
  6  5  2  0  0  0  0
  7  8  2  0  0  0  0
  7  6  1  0  0  0  0
  8 12  1  0  0  0  0
  9 10  1  0  0  0  0
  9  8  1  0  0  0  0
 10 11  2  0  0  0  0
 11 12  1  0  0  0  0
 12 13  2  0  0  0  0
 13 18  1  0  0  0  0
 15  7  1  0  0  0  0
 16  9  1  0  0  0  0
 17 10  1  0  0  0  0
 18 21  1  0  0  0  0
 19 20  1  0  0  0  0
 20 27  1  0  0  0  0
 21 22  1  0  0  0  0
 21 20  2  0  0  0  0
 22 24  2  0  0  0  0
 23 22  1  0  0  0  0
 24 25  1  0  0  0  0
 24 26  1  0  0  0  0
 27 26  2  0  0  0  0
 29 28  1  0  0  0  0
 29 30  1  0  0  0  0
 30 40  1  0  0  0  0
 31 35  1  0  0  0  0
 31 30  2  0  0  0  0
 32 31  1  0  0  0  0
 33 32  2  0  0  0  0
 33 34  1  0  0  0  0
 34 29  2  0  0  0  0
 36 32  1  0  0  0  0
 37 33  1  0  0  0  0
 38 44  1  0  0  0  0
 39 38  1  0  0  0  0
 39 45  1  0  0  0  0
 40 39  2  0  0  0  0
 41 42  2  0  0  0  0
 41 40  1  0  0  0  0
 42 43  1  0  0  0  0
 43 38  2  0  0  0  0
 46 42  1  0  0  0  0
M  END
>  <minimizedAffinity>
-6.80594921

$$$$

 OpenBabel03272503143D

 46 50  0  0  0  0  0  0  0  0999 V2000
   36.4080   26.0970   31.9870 C   0  0  0  0  0  0  0  0  0  0  0  0
   35.2980   26.5170   31.5150 O   0  0  0  0  0  0  0  0  0  0  0  0
   37.2510   27.0910   32.5400 N   0  0  0  0  0  0  0  0  0  0  0  0
   38.1650   26.7590   32.9370 H   0  0  0  0  0  0  0  0  0  0  0  0
   37.9280   24.2730   32.3570 C   0  0  0  0  0  0  0  0  0  0  0  0
   36.6960   24.6770   31.9160 C   0  0  0  0  0  0  0  0  0  0  0  0
   35.7530   23.8080   31.4260 C   0  0  0  0  0  0  0  0  0  0  0  0
   36.0490   22.4450   31.3660 C   0  0  0  0  0  0  0  0  0  0  0  0
   35.3570   21.3900   30.9520 N   0  0  0  0  0  0  0  0  0  0  0  0
   36.1190   20.3200   31.1170 C   0  0  0  0  0  0  0  0  0  0  0  0
   37.3020   20.6920   31.6390 N   0  0  0  0  0  0  0  0  0  0  0  0
   37.2980   22.0440   31.8130 C   0  0  0  0  0  0  0  0  0  0  0  0
   38.2590   22.9150   32.3120 C   0  0  0  0  0  0  0  0  0  0  0  0
   38.6160   25.0020   32.7390 H   0  0  0  0  0  0  0  0  0  0  0  0
   34.7910   24.1440   31.0840 H   0  0  0  0  0  0  0  0  0  0  0  0
   34.3800   21.4650   30.5710 H   0  0  0  0  0  0  0  0  0  0  0  0
   35.7970   19.3270   30.8590 H   0  0  0  0  0  0  0  0  0  0  0  0
   39.4870   22.4840   32.7450 O   0  0  0  0  0  0  0  0  0  0  0  0
   41.9590   23.6530   33.4770 F   0  0  0  0  0  0  0  0  0  0  0  0
   41.0630   23.2030   34.4000 C   0  0  0  0  0  0  0  0  0  0  0  0
   39.8500   22.6210   34.0660 C   0  0  0  0  0  0  0  0  0  0  0  0
   39.0770   22.2100   35.1500 C   0  0  0  0  0  0  0  0  0  0  0  0
   38.1290   21.7560   34.8930 H   0  0  0  0  0  0  0  0  0  0  0  0
   39.4710   22.3610   36.4590 C   0  0  0  0  0  0  0  0  0  0  0  0
   38.7890   22.0050   37.2030 H   0  0  0  0  0  0  0  0  0  0  0  0
   40.6910   22.9480   36.7400 C   0  0  0  0  0  3  0  0  0  0  0  0
   41.4920   23.3710   35.6960 C   0  0  0  0  0  3  0  0  0  0  0  0
   36.0170   28.2110   34.6780 F   0  0  0  0  0  0  0  0  0  0  0  0
   36.0810   28.9700   33.5520 C   0  0  0  0  0  0  0  0  0  0  0  0
   35.5420   30.2190   33.5390 C   0  0  0  0  0  0  0  0  0  0  0  0
   35.6450   30.9300   32.3600 C   0  0  0  0  0  0  0  0  0  0  0  0
   36.2580   30.4220   31.2370 C   0  0  0  0  0  0  0  0  0  0  0  0
   36.7960   29.1470   31.2820 C   0  0  0  0  0  0  0  0  0  0  0  0
   36.7010   28.4150   32.4630 C   0  0  0  0  0  0  0  0  0  0  0  0
   35.2220   31.9250   32.3340 H   0  0  0  0  0  0  0  0  0  0  0  0
   36.3020   31.0350   30.3470 H   0  0  0  0  0  0  0  0  0  0  0  0
   37.2760   28.7390   30.4170 H   0  0  0  0  0  0  0  0  0  0  0  0
   34.9340   31.9490   36.8510 C   0  0  0  0  0  0  0  0  0  0  0  0
   35.5870   31.4910   35.6820 C   0  0  0  0  0  0  0  0  0  0  0  0
   34.9020   30.7120   34.7570 C   0  0  0  0  0  0  0  0  0  0  0  0
   33.6000   30.4170   35.0210 N   0  0  0  0  0  0  0  0  0  0  0  0
   32.9860   30.8590   36.1370 C   0  0  0  0  0  0  0  0  0  0  0  0
   33.6400   31.6050   37.0250 N   0  0  0  0  0  0  0  0  0  0  0  0
   35.4610   32.5520   37.5680 H   0  0  0  0  0  0  0  0  0  0  0  0
   36.6240   31.7360   35.4890 H   0  0  0  0  0  0  0  0  0  0  0  0
   31.9490   30.6320   36.3610 H   0  0  0  0  0  0  0  0  0  0  0  0
  1  3  1  0  0  0  0
  2  1  2  0  0  0  0
  3  4  1  0  0  0  0
  5 14  1  0  0  0  0
  6  1  1  0  0  0  0
  6  5  2  0  0  0  0
  7  6  1  0  0  0  0
  8  7  2  0  0  0  0
  8 12  1  0  0  0  0
  9 10  1  0  0  0  0
  9  8  1  0  0  0  0
 10 11  2  0  0  0  0
 11 12  1  0  0  0  0
 12 13  2  0  0  0  0
 13  5  1  0  0  0  0
 13 18  1  0  0  0  0
 15  7  1  0  0  0  0
 16  9  1  0  0  0  0
 17 10  1  0  0  0  0
 18 21  1  0  0  0  0
 19 20  1  0  0  0  0
 20 27  1  0  0  0  0
 21 20  2  0  0  0  0
 21 22  1  0  0  0  0
 22 24  2  0  0  0  0
 23 22  1  0  0  0  0
 24 26  1  0  0  0  0
 24 25  1  0  0  0  0
 27 26  2  0  0  0  0
 29 28  1  0  0  0  0
 30 29  1  0  0  0  0
 30 40  1  0  0  0  0
 31 30  2  0  0  0  0
 32 33  2  0  0  0  0
 32 31  1  0  0  0  0
 33 34  1  0  0  0  0
 34  3  1  0  0  0  0
 34 29  2  0  0  0  0
 35 31  1  0  0  0  0
 36 32  1  0  0  0  0
 37 33  1  0  0  0  0
 38 43  1  0  0  0  0
 38 44  1  0  0  0  0
 39 38  2  0  0  0  0
 40 41  2  0  0  0  0
 40 39  1  0  0  0  0
 41 42  1  0  0  0  0
 42 46  1  0  0  0  0
 42 43  2  0  0  0  0
 45 39  1  0  0  0  0
M  END
>  <minimizedAffinity>
-6.71844721

$$$$

 OpenBabel03272503143D

 46 50  0  0  0  0  0  0  0  0999 V2000
   37.2720   26.3720   31.4280 C   0  0  0  0  0  0  0  0  0  0  0  0
   38.1500   27.1800   31.8830 O   0  0  0  0  0  0  0  0  0  0  0  0
   36.4140   26.9030   30.4340 N   0  0  0  0  0  0  0  0  0  0  0  0
   35.6900   26.2470   30.0460 H   0  0  0  0  0  0  0  0  0  0  0  0
   38.2160   24.6780   32.8470 C   0  0  0  0  0  0  0  0  0  0  0  0
   37.2350   25.0210   31.9540 C   0  0  0  0  0  0  0  0  0  0  0  0
   36.2480   24.1550   31.5550 C   0  0  0  0  0  0  0  0  0  0  0  0
   36.2290   22.8590   32.0740 C   0  0  0  0  0  0  0  0  0  0  0  0
   35.4210   21.8230   31.8810 N   0  0  0  0  0  0  0  0  0  0  0  0
   35.8630   20.8240   32.6300 C   0  0  0  0  0  0  0  0  0  0  0  0
   36.9560   21.2230   33.3040 N   0  0  0  0  0  0  0  0  0  0  0  0
   37.2250   22.5180   32.9750 C   0  0  0  0  0  0  0  0  0  0  0  0
   38.2280   23.3880   33.3870 C   0  0  0  0  0  0  0  0  0  0  0  0
   38.9530   25.4050   33.1260 H   0  0  0  0  0  0  0  0  0  0  0  0
   35.4860   24.4420   30.8530 H   0  0  0  0  0  0  0  0  0  0  0  0
   34.5940   21.8600   31.2320 H   0  0  0  0  0  0  0  0  0  0  0  0
   35.3850   19.8610   32.6610 H   0  0  0  0  0  0  0  0  0  0  0  0
   39.2000   23.0170   34.2810 O   0  0  0  0  0  0  0  0  0  0  0  0
   41.0260   21.9660   36.1730 F   0  0  0  0  0  0  0  0  0  0  0  0
   39.9190   22.6710   36.5400 C   0  0  0  0  0  0  0  0  0  0  0  0
   39.0070   23.1890   35.6340 C   0  0  0  0  0  0  0  0  0  0  0  0
   37.9310   23.8670   36.2030 C   0  0  0  0  0  0  0  0  0  0  0  0
   37.2180   24.2740   35.4990 H   0  0  0  0  0  0  0  0  0  0  0  0
   37.7680   24.0200   37.5610 C   0  0  0  0  0  0  0  0  0  0  0  0
   36.9010   24.5600   37.8760 H   0  0  0  0  0  0  0  0  0  0  0  0
   38.7070   23.4830   38.4240 C   0  0  0  0  0  3  0  0  0  0  0  0
   39.7910   22.8020   37.9030 C   0  0  0  0  0  3  0  0  0  0  0  0
   35.2250   28.9080   31.8160 F   0  0  0  0  0  0  0  0  0  0  0  0
   36.0770   29.2810   30.8250 C   0  0  0  0  0  0  0  0  0  0  0  0
   36.2950   30.5990   30.5710 C   0  0  0  0  0  0  0  0  0  0  0  0
   37.1720   30.9010   29.5490 C   0  0  0  0  0  0  0  0  0  0  0  0
   37.8090   29.9320   28.8070 C   0  0  0  0  0  0  0  0  0  0  0  0
   37.5670   28.5990   29.0900 C   0  0  0  0  0  0  0  0  0  0  0  0
   36.6840   28.2760   30.1170 C   0  0  0  0  0  0  0  0  0  0  0  0
   37.3550   31.9450   29.3350 H   0  0  0  0  0  0  0  0  0  0  0  0
   38.4850   30.2410   28.0200 H   0  0  0  0  0  0  0  0  0  0  0  0
   38.0560   27.8350   28.5220 H   0  0  0  0  0  0  0  0  0  0  0  0
   35.4620   33.1070   33.2820 C   0  0  0  0  0  0  0  0  0  0  0  0
   36.1740   32.1530   32.5160 C   0  0  0  0  0  0  0  0  0  0  0  0
   35.5930   31.5880   31.3870 C   0  0  0  0  0  0  0  0  0  0  0  0
   34.3340   31.9890   31.0570 N   0  0  0  0  0  0  0  0  0  0  0  0
   33.6650   32.8990   31.7930 C   0  0  0  0  0  0  0  0  0  0  0  0
   34.2190   33.4410   32.8750 N   0  0  0  0  0  0  0  0  0  0  0  0
   35.9090   33.5460   34.1560 H   0  0  0  0  0  0  0  0  0  0  0  0
   37.1740   31.8470   32.7940 H   0  0  0  0  0  0  0  0  0  0  0  0
   32.6610   33.2270   31.5430 H   0  0  0  0  0  0  0  0  0  0  0  0
  1  2  2  0  0  0  0
  1  6  1  0  0  0  0
  3  1  1  0  0  0  0
  4  3  1  0  0  0  0
  5 14  1  0  0  0  0
  5 13  1  0  0  0  0
  6  5  2  0  0  0  0
  7  6  1  0  0  0  0
  7  8  2  0  0  0  0
  8 12  1  0  0  0  0
  9  8  1  0  0  0  0
  9 10  1  0  0  0  0
 10 17  1  0  0  0  0
 10 11  2  0  0  0  0
 12 11  1  0  0  0  0
 12 13  2  0  0  0  0
 13 18  1  0  0  0  0
 15  7  1  0  0  0  0
 16  9  1  0  0  0  0
 18 21  1  0  0  0  0
 19 20  1  0  0  0  0
 20 27  1  0  0  0  0
 21 22  1  0  0  0  0
 21 20  2  0  0  0  0
 22 24  2  0  0  0  0
 23 22  1  0  0  0  0
 24 25  1  0  0  0  0
 24 26  1  0  0  0  0
 27 26  2  0  0  0  0
 29 28  1  0  0  0  0
 30 29  1  0  0  0  0
 30 40  1  0  0  0  0
 31 30  2  0  0  0  0
 32 33  2  0  0  0  0
 32 31  1  0  0  0  0
 33 34  1  0  0  0  0
 34  3  1  0  0  0  0
 34 29  2  0  0  0  0
 35 31  1  0  0  0  0
 36 32  1  0  0  0  0
 37 33  1  0  0  0  0
 38 44  1  0  0  0  0
 39 45  1  0  0  0  0
 39 38  2  0  0  0  0
 40 39  1  0  0  0  0
 41 40  2  0  0  0  0
 41 42  1  0  0  0  0
 42 43  2  0  0  0  0
 43 38  1  0  0  0  0
 46 42  1  0  0  0  0
M  END
>  <minimizedAffinity>
-6.70472527

$$$$

 OpenBabel03272503143D

 46 50  0  0  0  0  0  0  0  0999 V2000
   37.1190   26.5340   31.6790 C   0  0  0  0  0  0  0  0  0  0  0  0
   36.1130   25.9750   32.2320 O   0  0  0  0  0  0  0  0  0  0  0  0
   38.3170   25.7790   31.6870 N   0  0  0  0  0  0  0  0  0  0  0  0
   39.1520   26.2250   31.2300 H   0  0  0  0  0  0  0  0  0  0  0  0
   36.1610   28.7340   31.8030 C   0  0  0  0  0  0  0  0  0  0  0  0
   36.9470   27.8550   31.1060 C   0  0  0  0  0  0  0  0  0  0  0  0
   37.5600   28.1760   29.9200 C   0  0  0  0  0  0  0  0  0  0  0  0
   37.3830   29.4530   29.3860 C   0  0  0  0  0  0  0  0  0  0  0  0
   37.8370   30.0390   28.2840 N   0  0  0  0  0  0  0  0  0  0  0  0
   37.3580   31.2730   28.2600 C   0  0  0  0  0  0  0  0  0  0  0  0
   36.5970   31.4770   29.3500 N   0  0  0  0  0  0  0  0  0  0  0  0
   36.5860   30.3360   30.0950 C   0  0  0  0  0  0  0  0  0  0  0  0
   35.9620   30.0230   31.2970 C   0  0  0  0  0  0  0  0  0  0  0  0
   35.7190   28.4260   32.7300 H   0  0  0  0  0  0  0  0  0  0  0  0
   38.1740   27.4720   29.3870 H   0  0  0  0  0  0  0  0  0  0  0  0
   38.4630   29.5490   27.5950 H   0  0  0  0  0  0  0  0  0  0  0  0
   37.5750   31.9690   27.4680 H   0  0  0  0  0  0  0  0  0  0  0  0
   35.1780   30.9220   31.9730 O   0  0  0  0  0  0  0  0  0  0  0  0
   36.3560   33.4860   32.2090 F   0  0  0  0  0  0  0  0  0  0  0  0
   36.1450   32.6780   33.2860 C   0  0  0  0  0  0  0  0  0  0  0  0
   35.5760   31.4170   33.1950 C   0  0  0  0  0  0  0  0  0  0  0  0
   35.4560   30.7370   34.4050 C   0  0  0  0  0  0  0  0  0  0  0  0
   35.0120   29.7530   34.3380 H   0  0  0  0  0  0  0  0  0  0  0  0
   35.8660   31.2600   35.6090 C   0  0  0  0  0  0  0  0  0  0  0  0
   35.7210   30.6410   36.4690 H   0  0  0  0  0  0  0  0  0  0  0  0
   36.4280   32.5240   35.6470 C   0  0  0  0  0  3  0  0  0  0  0  0
   36.5670   33.2360   34.4700 C   0  0  0  0  0  3  0  0  0  0  0  0
   38.7930   25.5090   34.3420 F   0  0  0  0  0  0  0  0  0  0  0  0
   38.4290   24.3810   33.6770 C   0  0  0  0  0  0  0  0  0  0  0  0
   38.3200   23.2000   34.3420 C   0  0  0  0  0  0  0  0  0  0  0  0
   37.9460   22.0980   33.6000 C   0  0  0  0  0  0  0  0  0  0  0  0
   37.6900   22.1640   32.2500 C   0  0  0  0  0  0  0  0  0  0  0  0
   37.8090   23.3810   31.6010 C   0  0  0  0  0  0  0  0  0  0  0  0
   38.1860   24.5040   32.3330 C   0  0  0  0  0  0  0  0  0  0  0  0
   37.8560   21.1520   34.1160 H   0  0  0  0  0  0  0  0  0  0  0  0
   37.4010   21.2600   31.7300 H   0  0  0  0  0  0  0  0  0  0  0  0
   37.6120   23.4480   30.5510 H   0  0  0  0  0  0  0  0  0  0  0  0
   40.0490   22.7090   37.6750 C   0  0  0  0  0  0  0  0  0  0  0  0
   39.8100   22.7120   36.2800 C   0  0  0  0  0  0  0  0  0  0  0  0
   38.6040   23.1830   35.7770 C   0  0  0  0  0  0  0  0  0  0  0  0
   37.6810   23.6360   36.6690 N   0  0  0  0  0  0  0  0  0  0  0  0
   37.9170   23.6310   37.9960 C   0  0  0  0  0  0  0  0  0  0  0  0
   39.0720   23.1790   38.4810 N   0  0  0  0  0  0  0  0  0  0  0  0
   40.9810   22.3460   38.0680 H   0  0  0  0  0  0  0  0  0  0  0  0
   40.5570   22.3470   35.5850 H   0  0  0  0  0  0  0  0  0  0  0  0
   37.1910   23.9880   38.7190 H   0  0  0  0  0  0  0  0  0  0  0  0
  1  3  1  0  0  0  0
  1  2  2  0  0  0  0
  3 34  1  0  0  0  0
  4  3  1  0  0  0  0
  5 14  1  0  0  0  0
  6  1  1  0  0  0  0
  6  5  2  0  0  0  0
  7  6  1  0  0  0  0
  8  7  2  0  0  0  0
  8 12  1  0  0  0  0
  9  8  1  0  0  0  0
 10  9  1  0  0  0  0
 10 11  2  0  0  0  0
 11 12  1  0  0  0  0
 12 13  2  0  0  0  0
 13  5  1  0  0  0  0
 13 18  1  0  0  0  0
 15  7  1  0  0  0  0
 16  9  1  0  0  0  0
 17 10  1  0  0  0  0
 18 21  1  0  0  0  0
 19 20  1  0  0  0  0
 20 27  1  0  0  0  0
 21 20  2  0  0  0  0
 21 22  1  0  0  0  0
 22 24  2  0  0  0  0
 23 22  1  0  0  0  0
 24 26  1  0  0  0  0
 24 25  1  0  0  0  0
 27 26  2  0  0  0  0
 29 28  1  0  0  0  0
 29 30  1  0  0  0  0
 30 40  1  0  0  0  0
 31 35  1  0  0  0  0
 31 30  2  0  0  0  0
 32 31  1  0  0  0  0
 33 32  2  0  0  0  0
 33 34  1  0  0  0  0
 34 29  2  0  0  0  0
 36 32  1  0  0  0  0
 37 33  1  0  0  0  0
 38 44  1  0  0  0  0
 38 43  1  0  0  0  0
 39 38  2  0  0  0  0
 40 39  1  0  0  0  0
 40 41  2  0  0  0  0
 41 42  1  0  0  0  0
 42 43  2  0  0  0  0
 42 46  1  0  0  0  0
 45 39  1  0  0  0  0
M  END
>  <minimizedAffinity>
-6.68010902

$$$$

 OpenBabel03272503143D

 46 50  0  0  0  0  0  0  0  0999 V2000
   36.9220   26.6840   32.1580 C   0  0  0  0  0  0  0  0  0  0  0  0
   37.8800   27.4190   32.5740 O   0  0  0  0  0  0  0  0  0  0  0  0
   35.8620   27.3700   31.5170 N   0  0  0  0  0  0  0  0  0  0  0  0
   35.0690   26.7760   31.1640 H   0  0  0  0  0  0  0  0  0  0  0  0
   37.9770   24.8110   33.2310 C   0  0  0  0  0  0  0  0  0  0  0  0
   37.0060   25.2520   32.3730 C   0  0  0  0  0  0  0  0  0  0  0  0
   36.1350   24.4080   31.7300 C   0  0  0  0  0  0  0  0  0  0  0  0
   36.2310   23.0330   31.9500 C   0  0  0  0  0  0  0  0  0  0  0  0
   35.5450   21.9960   31.4830 N   0  0  0  0  0  0  0  0  0  0  0  0
   36.0580   20.9010   32.0220 C   0  0  0  0  0  0  0  0  0  0  0  0
   37.0730   21.2390   32.8380 N   0  0  0  0  0  0  0  0  0  0  0  0
   37.2170   22.5940   32.8190 C   0  0  0  0  0  0  0  0  0  0  0  0
   38.1030   23.4400   33.4760 C   0  0  0  0  0  0  0  0  0  0  0  0
   38.6210   25.5230   33.7110 H   0  0  0  0  0  0  0  0  0  0  0  0
   35.3780   24.7730   31.0590 H   0  0  0  0  0  0  0  0  0  0  0  0
   34.7480   22.1000   30.8050 H   0  0  0  0  0  0  0  0  0  0  0  0
   35.6840   19.9140   31.8110 H   0  0  0  0  0  0  0  0  0  0  0  0
   39.0690   22.9700   34.3290 O   0  0  0  0  0  0  0  0  0  0  0  0
   41.0590   22.0480   36.1200 F   0  0  0  0  0  0  0  0  0  0  0  0
   39.9240   22.6700   36.5470 C   0  0  0  0  0  0  0  0  0  0  0  0
   38.9330   23.1240   35.6910 C   0  0  0  0  0  0  0  0  0  0  0  0
   37.8410   23.7200   36.3180 C   0  0  0  0  0  0  0  0  0  0  0  0
   37.0650   24.0760   35.6530 H   0  0  0  0  0  0  0  0  0  0  0  0
   37.7360   23.8560   37.6830 C   0  0  0  0  0  0  0  0  0  0  0  0
   36.8480   24.3310   38.0450 H   0  0  0  0  0  0  0  0  0  0  0  0
   38.7530   23.3860   38.4940 C   0  0  0  0  0  3  0  0  0  0  0  0
   39.8560   22.7870   37.9150 C   0  0  0  0  0  3  0  0  0  0  0  0
   37.0830   28.5180   29.3870 F   0  0  0  0  0  0  0  0  0  0  0  0
   36.6720   29.3590   30.3720 C   0  0  0  0  0  0  0  0  0  0  0  0
   36.8800   30.6980   30.2590 C   0  0  0  0  0  0  0  0  0  0  0  0
   36.4350   31.4890   31.2990 C   0  0  0  0  0  0  0  0  0  0  0  0
   35.8080   30.9720   32.4100 C   0  0  0  0  0  0  0  0  0  0  0  0
   35.6110   29.6040   32.4960 C   0  0  0  0  0  0  0  0  0  0  0  0
   36.0530   28.7910   31.4560 C   0  0  0  0  0  0  0  0  0  0  0  0
   36.5940   32.5560   31.2230 H   0  0  0  0  0  0  0  0  0  0  0  0
   35.4850   31.6510   33.1880 H   0  0  0  0  0  0  0  0  0  0  0  0
   35.1240   29.1880   33.3530 H   0  0  0  0  0  0  0  0  0  0  0  0
   39.5470   31.6450   27.7440 C   0  0  0  0  0  0  0  0  0  0  0  0
   38.9330   31.1510   28.9200 C   0  0  0  0  0  0  0  0  0  0  0  0
   37.5510   31.1970   29.0600 C   0  0  0  0  0  0  0  0  0  0  0  0
   36.8290   31.7260   28.0340 N   0  0  0  0  0  0  0  0  0  0  0  0
   37.4230   32.1940   26.9170 C   0  0  0  0  0  0  0  0  0  0  0  0
   38.7470   32.1510   26.7810 N   0  0  0  0  0  0  0  0  0  0  0  0
   40.6160   31.6100   27.6320 H   0  0  0  0  0  0  0  0  0  0  0  0
   39.5230   30.7340   29.7250 H   0  0  0  0  0  0  0  0  0  0  0  0
   36.8620   32.6180   26.0920 H   0  0  0  0  0  0  0  0  0  0  0  0
  1  6  1  0  0  0  0
  1  2  2  0  0  0  0
  3  1  1  0  0  0  0
  4  3  1  0  0  0  0
  5 13  1  0  0  0  0
  5 14  1  0  0  0  0
  6  5  2  0  0  0  0
  7  8  2  0  0  0  0
  7  6  1  0  0  0  0
  8 12  1  0  0  0  0
  9  8  1  0  0  0  0
  9 10  1  0  0  0  0
 10 11  2  0  0  0  0
 12 11  1  0  0  0  0
 12 13  2  0  0  0  0
 13 18  1  0  0  0  0
 15  7  1  0  0  0  0
 16  9  1  0  0  0  0
 17 10  1  0  0  0  0
 18 21  1  0  0  0  0
 19 20  1  0  0  0  0
 20 27  1  0  0  0  0
 21 22  1  0  0  0  0
 21 20  2  0  0  0  0
 22 24  2  0  0  0  0
 23 22  1  0  0  0  0
 24 25  1  0  0  0  0
 24 26  1  0  0  0  0
 27 26  2  0  0  0  0
 28 29  1  0  0  0  0
 29 34  1  0  0  0  0
 30 29  2  0  0  0  0
 30 31  1  0  0  0  0
 31 32  2  0  0  0  0
 32 33  1  0  0  0  0
 32 36  1  0  0  0  0
 33 37  1  0  0  0  0
 34  3  1  0  0  0  0
 34 33  2  0  0  0  0
 35 31  1  0  0  0  0
 38 39  1  0  0  0  0
 39 40  2  0  0  0  0
 39 45  1  0  0  0  0
 40 30  1  0  0  0  0
 41 40  1  0  0  0  0
 42 41  2  0  0  0  0
 43 42  1  0  0  0  0
 43 38  2  0  0  0  0
 44 38  1  0  0  0  0
 46 42  1  0  0  0  0
M  END
>  <minimizedAffinity>
-6.66530895

$$$$
