
 OpenBabel03272509423D

 38 40  0  0  1  0  0  0  0  0999 V2000
   37.0180   30.9120   49.0940 C   0  0  0  0  0  0  0  0  0  0  0  0
   36.7170   31.8050   50.1250 C   0  0  0  0  0  0  0  0  0  0  0  0
   37.2920   33.0630   50.1930 C   0  0  0  0  0  0  0  0  0  0  0  0
   38.2020   33.4570   49.2060 C   0  0  0  0  0  0  0  0  0  0  0  0
   38.4890   32.5740   48.2040 C   0  0  0  0  0  0  0  0  0  0  0  0
   37.8920   31.3220   48.1690 C   0  0  0  0  0  0  0  0  0  0  0  0
   36.0070   31.4930   50.8900 H   0  0  0  0  0  0  0  0  0  0  0  0
   37.0010   33.6760   51.0170 H   0  0  0  0  0  0  0  0  0  0  0  0
   38.5890   34.4380   49.3450 H   0  0  0  0  0  0  0  0  0  0  0  0
   39.2080   33.0210   47.5190 H   0  0  0  0  0  0  0  0  0  0  0  0
   36.4430   29.5850   49.0410 C   0  0  2  0  0  0  0  0  0  0  0  0
   36.9470   29.0720   48.1360 H   0  0  0  0  0  0  0  0  0  0  0  0
   33.5900   29.9530   46.8200 C   0  0  0  0  0  0  0  0  0  0  0  0
   32.8440   28.8080   47.0400 C   0  0  0  0  0  0  0  0  0  0  0  0
   33.2840   27.9210   48.0040 C   0  0  0  0  0  0  0  0  0  0  0  0
   34.4360   28.2020   48.7050 N   0  0  0  0  0  0  0  0  0  0  0  0
   35.1020   29.3080   48.4480 C   0  0  0  0  0  0  0  0  0  0  0  0
   34.6880   30.1890   47.5090 N   0  0  0  0  0  0  0  0  0  0  0  0
   33.2130   30.6220   46.0560 H   0  0  0  0  0  0  0  0  0  0  0  0
   31.9380   28.5050   46.5460 H   0  0  0  0  0  0  0  0  0  0  0  0
   32.8270   26.9760   48.3120 H   0  0  0  0  0  0  0  0  0  0  0  0
   36.9190   28.8050   49.9440 O   0  0  0  0  0  0  0  0  0  0  0  0
   36.6950   28.8960   50.8990 H   0  0  0  0  0  0  0  0  0  0  0  0
   38.3080   30.4780   47.0730 C   0  0  0  0  0  3  0  0  0  0  0  0
   38.8430   30.9400   45.9370 C   0  0  0  0  0  3  0  0  0  0  0  0
   39.3430   30.1670   44.7760 C   0  0  0  0  0  0  0  0  0  0  0  0
   38.8010   29.2200   44.6130 H   0  0  0  0  0  0  0  0  0  0  0  0
   40.4120   29.8630   44.9730 H   0  0  0  0  0  0  0  0  0  0  0  0
   39.3610   31.2160   43.3180 S   0  0  0  0  0  0  0  0  0  0  0  0
   39.5300   32.2470   40.5980 F   0  0  0  0  0  0  0  0  0  0  0  0
   40.2720   31.1500   40.8300 C   0  0  0  0  0  0  0  0  0  0  0  0
   40.3630   30.4680   42.0460 C   0  0  0  0  0  0  0  0  0  0  0  0
   41.1650   29.3510   42.1460 C   0  0  0  0  0  0  0  0  0  0  0  0
   41.1640   28.9050   43.1170 H   0  0  0  0  0  0  0  0  0  0  0  0
   41.8720   28.9160   41.0440 C   0  0  0  0  0  0  0  0  0  0  0  0
   42.4840   28.0530   41.1460 H   0  0  0  0  0  0  0  0  0  0  0  0
   41.7990   29.5810   39.8160 C   0  0  0  0  0  3  0  0  0  0  0  0
   40.9960   30.6910   39.7320 C   0  0  0  0  0  3  0  0  0  0  0  0
  1  2  1  0  0  0  0
  2  3  2  0  0  0  0
  2  7  1  0  0  0  0
  3  8  1  0  0  0  0
  4  9  1  0  0  0  0
  4  3  1  0  0  0  0
  5  4  2  0  0  0  0
  6  5  1  0  0  0  0
  6  1  2  0  0  0  0
 10  5  1  0  0  0  0
 11 12  1  6  0  0  0
 11  1  1  0  0  0  0
 11 22  1  0  0  0  0
 13 14  2  0  0  0  0
 13 18  1  0  0  0  0
 14 15  1  0  0  0  0
 15 21  1  0  0  0  0
 15 16  2  0  0  0  0
 17 16  1  0  0  0  0
 17 11  1  0  0  0  0
 18 17  2  0  0  0  0
 19 13  1  0  0  0  0
 20 14  1  0  0  0  0
 22 23  1  0  0  0  0
 24  6  1  0  0  0  0
 25 24  2  0  0  0  0
 26 28  1  0  0  0  0
 26 25  1  0  0  0  0
 27 26  1  0  0  0  0
 29 26  1  0  0  0  0
 30 31  1  0  0  0  0
 31 32  1  0  0  0  0
 32 33  2  0  0  0  0
 32 29  1  0  0  0  0
 33 34  1  0  0  0  0
 35 36  1  0  0  0  0
 35 33  1  0  0  0  0
 37 35  2  0  0  0  0
 38 37  1  0  0  0  0
 38 31  2  0  0  0  0
M  END
>  <minimizedAffinity>
-6.0196085

>  <minimizedRMSD>
0.626412451

$$$$
