
 OpenBabel03272508023D

 28 30  0  0  0  0  0  0  0  0999 V2000
   37.8170   30.7710   45.3120 C   0  0  0  0  0  0  0  0  0  0  0  0
   36.4560   30.5630   45.3580 C   0  0  0  0  0  0  0  0  0  0  0  0
   36.0670   30.3400   46.6910 C   0  0  0  0  0  0  0  0  0  0  0  0
   37.2310   30.4250   47.3970 N   0  0  0  0  0  0  0  0  0  0  0  0
   38.2370   30.6750   46.5900 N   0  0  0  0  0  0  0  0  0  0  0  0
   35.8350   30.5800   44.4720 H   0  0  0  0  0  0  0  0  0  0  0  0
   35.0430   30.1510   46.9820 H   0  0  0  0  0  0  0  0  0  0  0  0
   38.8670   31.7110   49.3130 F   0  0  0  0  0  0  0  0  0  0  0  0
   37.9450   30.8490   49.7670 C   0  0  0  0  0  0  0  0  0  0  0  0
   37.1660   30.2410   48.8060 C   0  0  0  0  0  0  0  0  0  0  0  0
   36.1790   29.3270   49.1830 C   0  0  0  0  0  0  0  0  0  0  0  0
   35.5210   28.8000   48.5380 H   0  0  0  0  0  0  0  0  0  0  0  0
   36.0210   29.0660   50.5390 C   0  0  0  0  0  0  0  0  0  0  0  0
   35.2710   28.3650   50.8910 H   0  0  0  0  0  0  0  0  0  0  0  0
   36.7960   29.6670   51.5350 C   0  0  0  0  0  3  0  0  0  0  0  0
   37.7580   30.5620   51.1060 C   0  0  0  0  0  3  0  0  0  0  0  0
   38.6290   31.0380   44.1400 C   0  0  0  0  0  0  0  0  0  0  0  0
   38.2830   32.1380   43.3240 C   0  0  0  0  0  0  0  0  0  0  0  0
   39.0610   32.4050   42.1880 C   0  0  0  0  0  0  0  0  0  0  0  0
   40.1110   31.5740   41.9480 N   0  0  0  0  0  0  0  0  0  0  0  0
   40.4300   30.5300   42.7350 C   0  0  0  0  0  0  0  0  0  0  0  0
   39.6770   30.2830   43.8200 N   0  0  0  0  0  0  0  0  0  0  0  0
   37.4360   32.7600   43.5700 H   0  0  0  0  0  0  0  0  0  0  0  0
   41.2880   29.9350   42.4470 H   0  0  0  0  0  0  0  0  0  0  0  0
   38.7040   33.5590   41.3260 C   0  0  0  0  0  0  0  0  0  0  0  0
   39.4420   34.6160   41.7960 F   0  0  0  0  0  0  0  0  0  0  0  0
   39.0480   33.3430   39.9970 F   0  0  0  0  0  0  0  0  0  0  0  0
   37.3640   33.8870   41.4210 F   0  0  0  0  0  0  0  0  0  0  0  0
  1  2  1  0  0  0  0
  1  5  2  0  0  0  0
  2  3  2  0  0  0  0
  3  7  1  0  0  0  0
  3  4  1  0  0  0  0
  4 10  1  0  0  0  0
  5  4  1  0  0  0  0
  6  2  1  0  0  0  0
  8  9  1  0  0  0  0
  9 16  1  0  0  0  0
 10 11  1  0  0  0  0
 10  9  2  0  0  0  0
 11 13  2  0  0  0  0
 12 11  1  0  0  0  0
 13 14  1  0  0  0  0
 13 15  1  0  0  0  0
 16 15  2  0  0  0  0
 17  1  1  0  0  0  0
 18 23  1  0  0  0  0
 18 17  2  0  0  0  0
 19 18  1  0  0  0  0
 20 19  2  0  0  0  0
 20 21  1  0  0  0  0
 21 22  2  0  0  0  0
 22 17  1  0  0  0  0
 24 21  1  0  0  0  0
 25 28  1  0  0  0  0
 25 26  1  0  0  0  0
 25 19  1  0  0  0  0
 27 25  1  0  0  0  0
M  END
>  <minimizedAffinity>
-5.95777273

>  <minimizedRMSD>
7.76711512

$$$$
