
 OpenBabel03272510113D

 35 38  0  0  0  0  0  0  0  0999 V2000
   33.4020   28.5080   48.3480 C   0  0  0  0  0  0  0  0  0  0  0  0
   34.3150   28.1500   49.2760 C   0  0  0  0  0  0  0  0  0  0  0  0
   35.4990   28.7980   49.5030 C   0  0  0  0  0  0  0  0  0  0  0  0
   35.8370   29.8890   48.7720 C   0  0  0  0  0  0  0  0  0  0  0  0
   34.9010   30.2780   47.8010 C   0  0  0  0  0  0  0  0  0  0  0  0
   33.7490   29.6060   47.6160 N   0  0  0  0  0  0  0  0  0  0  0  0
   34.1280   27.2900   49.9050 H   0  0  0  0  0  0  0  0  0  0  0  0
   36.2250   28.4970   50.2570 H   0  0  0  0  0  0  0  0  0  0  0  0
   35.0410   31.1270   47.1490 H   0  0  0  0  0  0  0  0  0  0  0  0
   31.1610   27.6660   49.0740 C   0  0  0  0  0  0  0  0  0  0  0  0
   32.1570   27.8360   48.0980 C   0  0  0  0  0  0  0  0  0  0  0  0
   31.8830   27.3180   46.8500 C   0  0  0  0  0  0  0  0  0  0  0  0
   30.6990   26.6820   46.6170 N   0  0  0  0  0  0  0  0  0  0  0  0
   29.7850   26.5510   47.5970 C   0  0  0  0  0  0  0  0  0  0  0  0
   30.0010   27.0410   48.8420 N   0  0  0  0  0  0  0  0  0  0  0  0
   31.3350   28.0590   50.0730 H   0  0  0  0  0  0  0  0  0  0  0  0
   32.6300   27.4350   46.0810 H   0  0  0  0  0  0  0  0  0  0  0  0
   28.9070   26.0260   47.2530 H   0  0  0  0  0  0  0  0  0  0  0  0
   36.9960   30.6650   48.8710 O   0  0  0  0  0  0  0  0  0  0  0  0
   37.8300   30.8650   47.7810 C   0  0  0  0  0  0  0  0  0  0  0  0
   38.7120   31.9430   47.9040 C   0  0  0  0  0  0  0  0  0  0  0  0
   39.4710   32.0070   46.7420 C   0  0  0  0  0  0  0  0  0  0  0  0
   39.0360   30.9980   45.9780 N   0  0  0  0  0  0  0  0  0  0  0  0
   38.0820   30.3260   46.5740 N   0  0  0  0  0  0  0  0  0  0  0  0
   38.9010   32.6850   48.6800 H   0  0  0  0  0  0  0  0  0  0  0  0
   40.2590   32.6720   46.4110 H   0  0  0  0  0  0  0  0  0  0  0  0
   40.7680   32.5370   44.4440 F   0  0  0  0  0  0  0  0  0  0  0  0
   40.3280   31.3670   43.9170 C   0  0  0  0  0  0  0  0  0  0  0  0
   39.4710   30.5950   44.6660 C   0  0  0  0  0  0  0  0  0  0  0  0
   39.0140   29.4000   44.1450 C   0  0  0  0  0  0  0  0  0  0  0  0
   38.3380   28.7340   44.6660 H   0  0  0  0  0  0  0  0  0  0  0  0
   39.4330   29.0170   42.8870 C   0  0  0  0  0  0  0  0  0  0  0  0
   39.0780   28.0730   42.4620 H   0  0  0  0  0  0  0  0  0  0  0  0
   40.2880   29.7620   42.1100 C   0  0  0  0  0  3  0  0  0  0  0  0
   40.7280   30.9470   42.6530 C   0  0  0  0  0  3  0  0  0  0  0  0
  1  2  1  0  0  0  0
  2  3  2  0  0  0  0
  2  7  1  0  0  0  0
  3  8  1  0  0  0  0
  4 19  1  0  0  0  0
  4  3  1  0  0  0  0
  5  4  2  0  0  0  0
  6  5  1  0  0  0  0
  6  1  2  0  0  0  0
  9  5  1  0  0  0  0
 10 16  1  0  0  0  0
 11  1  1  0  0  0  0
 11 10  2  0  0  0  0
 12 11  1  0  0  0  0
 13 12  2  0  0  0  0
 13 14  1  0  0  0  0
 14 15  2  0  0  0  0
 15 10  1  0  0  0  0
 17 12  1  0  0  0  0
 18 14  1  0  0  0  0
 20 21  1  0  0  0  0
 20 19  1  0  0  0  0
 21 25  1  0  0  0  0
 22 21  2  0  0  0  0
 23 24  1  0  0  0  0
 23 22  1  0  0  0  0
 24 20  2  0  0  0  0
 26 22  1  0  0  0  0
 28 27  1  0  0  0  0
 28 29  1  0  0  0  0
 29 23  1  0  0  0  0
 30 31  1  0  0  0  0
 30 29  2  0  0  0  0
 32 30  1  0  0  0  0
 33 32  1  0  0  0  0
 34 35  1  0  0  0  0
 34 32  2  0  0  0  0
 35 28  2  0  0  0  0
M  END
>  <minimizedAffinity>
-6.0462966

>  <minimizedRMSD>
3.12043953

$$$$
