
 OpenBabel03272510113D

 35 38  0  0  0  0  0  0  0  0999 V2000
   33.1450   28.3210   49.0530 C   0  0  0  0  0  0  0  0  0  0  0  0
   33.4700   28.9390   50.2070 C   0  0  0  0  0  0  0  0  0  0  0  0
   34.7150   29.4160   50.5190 C   0  0  0  0  0  0  0  0  0  0  0  0
   35.7400   29.2870   49.6410 C   0  0  0  0  0  0  0  0  0  0  0  0
   35.4240   28.6460   48.4330 C   0  0  0  0  0  0  0  0  0  0  0  0
   34.1820   28.1940   48.1740 N   0  0  0  0  0  0  0  0  0  0  0  0
   32.7140   29.0850   50.9670 H   0  0  0  0  0  0  0  0  0  0  0  0
   34.9610   29.9140   51.4560 H   0  0  0  0  0  0  0  0  0  0  0  0
   36.1420   28.4760   47.6460 H   0  0  0  0  0  0  0  0  0  0  0  0
   30.7400   27.8800   49.5780 C   0  0  0  0  0  0  0  0  0  0  0  0
   31.8440   27.8140   48.7140 C   0  0  0  0  0  0  0  0  0  0  0  0
   31.6240   27.2280   47.4850 C   0  0  0  0  0  0  0  0  0  0  0  0
   30.3870   26.7490   47.1670 N   0  0  0  0  0  0  0  0  0  0  0  0
   29.3680   26.8420   48.0420 C   0  0  0  0  0  0  0  0  0  0  0  0
   29.5280   27.4100   49.2620 N   0  0  0  0  0  0  0  0  0  0  0  0
   30.8680   28.3350   50.5570 H   0  0  0  0  0  0  0  0  0  0  0  0
   32.4540   27.1630   46.8010 H   0  0  0  0  0  0  0  0  0  0  0  0
   28.4600   26.4190   47.6400 H   0  0  0  0  0  0  0  0  0  0  0  0
   37.0640   29.7130   49.7960 O   0  0  0  0  0  0  0  0  0  0  0  0
   37.6250   30.6590   48.9500 C   0  0  0  0  0  0  0  0  0  0  0  0
   38.0660   31.8250   49.5810 C   0  0  0  0  0  0  0  0  0  0  0  0
   38.5980   32.6620   48.6070 C   0  0  0  0  0  0  0  0  0  0  0  0
   38.4630   31.9940   47.4550 N   0  0  0  0  0  0  0  0  0  0  0  0
   37.8980   30.8270   47.6440 N   0  0  0  0  0  0  0  0  0  0  0  0
   38.0720   32.1750   50.6130 H   0  0  0  0  0  0  0  0  0  0  0  0
   39.0450   33.6470   48.6440 H   0  0  0  0  0  0  0  0  0  0  0  0
   36.8480   31.5310   45.2410 F   0  0  0  0  0  0  0  0  0  0  0  0
   38.0350   32.1530   45.0360 C   0  0  0  0  0  0  0  0  0  0  0  0
   38.8440   32.3890   46.1230 C   0  0  0  0  0  0  0  0  0  0  0  0
   40.0570   33.0220   45.9340 C   0  0  0  0  0  0  0  0  0  0  0  0
   40.7530   33.2450   46.7320 H   0  0  0  0  0  0  0  0  0  0  0  0
   40.4200   33.4000   44.6570 C   0  0  0  0  0  0  0  0  0  0  0  0
   41.3780   33.9030   44.4930 H   0  0  0  0  0  0  0  0  0  0  0  0
   39.6390   33.1810   43.5480 C   0  0  0  0  0  3  0  0  0  0  0  0
   38.4360   32.5490   43.7660 C   0  0  0  0  0  3  0  0  0  0  0  0
  1  2  1  0  0  0  0
  2  3  2  0  0  0  0
  2  7  1  0  0  0  0
  3  8  1  0  0  0  0
  4 19  1  0  0  0  0
  4  3  1  0  0  0  0
  5  4  2  0  0  0  0
  6  5  1  0  0  0  0
  6  1  2  0  0  0  0
  9  5  1  0  0  0  0
 10 16  1  0  0  0  0
 11  1  1  0  0  0  0
 11 10  2  0  0  0  0
 12 11  1  0  0  0  0
 13 12  2  0  0  0  0
 13 14  1  0  0  0  0
 14 15  2  0  0  0  0
 15 10  1  0  0  0  0
 17 12  1  0  0  0  0
 18 14  1  0  0  0  0
 20 21  1  0  0  0  0
 20 19  1  0  0  0  0
 21 25  1  0  0  0  0
 22 26  1  0  0  0  0
 22 21  2  0  0  0  0
 23 24  1  0  0  0  0
 23 22  1  0  0  0  0
 24 20  2  0  0  0  0
 28 27  1  0  0  0  0
 28 29  1  0  0  0  0
 29 23  1  0  0  0  0
 30 29  2  0  0  0  0
 30 31  1  0  0  0  0
 32 30  1  0  0  0  0
 33 32  1  0  0  0  0
 34 35  1  0  0  0  0
 34 32  2  0  0  0  0
 35 28  2  0  0  0  0
M  END
>  <minimizedAffinity>
-6.14166164

>  <minimizedRMSD>
1.87189817

$$$$
