
 OpenBabel03272503303D

 34 36  0  0  1  0  0  0  0  0999 V2000
   35.0930   29.4320   48.0230 C   0  0  0  0  0  0  0  0  0  0  0  0
   34.9650   29.8770   46.7020 C   0  0  0  0  0  0  0  0  0  0  0  0
   33.7750   29.5740   46.0350 C   0  0  0  0  0  0  0  0  0  0  0  0
   32.8250   28.8580   46.7320 N   0  0  0  0  0  0  0  0  0  0  0  0
   32.9900   28.4560   47.9840 C   0  0  0  0  0  0  0  0  0  0  0  0
   34.1220   28.7360   48.6450 N   0  0  0  0  0  0  0  0  0  0  0  0
   35.7400   30.4380   46.1940 H   0  0  0  0  0  0  0  0  0  0  0  0
   33.6150   29.8840   45.0250 H   0  0  0  0  0  0  0  0  0  0  0  0
   36.3190   29.7500   48.6990 N   0  0  0  0  0  0  0  0  0  0  0  0
   37.4100   30.5330   48.1950 C   0  0  0  0  0  0  0  0  0  0  0  0
   38.0070   31.1230   49.4640 C   0  0  2  0  0  0  0  0  0  0  0  0
   37.1000   30.6870   50.5960 C   0  0  0  0  0  0  0  0  0  0  0  0
   36.6840   29.3330   50.0360 C   0  0  0  0  0  0  0  0  0  0  0  0
   38.1570   29.8390   47.7570 H   0  0  0  0  0  0  0  0  0  0  0  0
   37.0900   31.3340   47.5010 H   0  0  0  0  0  0  0  0  0  0  0  0
   39.0010   30.6960   49.6910 H   0  0  0  0  0  0  0  0  0  0  0  0
   37.6490   30.4980   51.5260 H   0  0  0  0  0  0  0  0  0  0  0  0
   36.2020   31.3230   50.7030 H   0  0  0  0  0  0  0  0  0  0  0  0
   37.5770   28.6750   50.0280 H   0  0  0  0  0  0  0  0  0  0  0  0
   35.8260   28.9400   50.6020 H   0  0  0  0  0  0  0  0  0  0  0  0
   38.1560   32.6220   49.4020 C   0  0  0  0  0  0  0  0  0  0  0  0
   36.9960   33.1570   49.9240 F   0  0  0  0  0  0  0  0  0  0  0  0
   38.1770   32.9580   48.0580 F   0  0  0  0  0  0  0  0  0  0  0  0
   39.2840   33.0870   50.0070 F   0  0  0  0  0  0  0  0  0  0  0  0
   31.7160   27.5310   48.8190 S   0  0  0  0  0  0  0  0  0  0  0  0
   29.1240   28.8750   48.8760 F   0  0  0  0  0  0  0  0  0  0  0  0
   29.2160   27.8710   47.9510 C   0  0  0  0  0  0  0  0  0  0  0  0
   30.3570   27.0940   47.7470 C   0  0  0  0  0  0  0  0  0  0  0  0
   30.3570   26.1020   46.7890 C   0  0  0  0  0  0  0  0  0  0  0  0
   31.2730   25.5560   46.7010 H   0  0  0  0  0  0  0  0  0  0  0  0
   29.2330   25.8660   46.0230 C   0  0  0  0  0  0  0  0  0  0  0  0
   29.2490   25.0830   45.2760 H   0  0  0  0  0  0  0  0  0  0  0  0
   28.0960   26.6480   46.2330 C   0  0  0  0  0  3  0  0  0  0  0  0
   28.0570   27.6620   47.1940 C   0  0  0  0  0  3  0  0  0  0  0  0
  1  6  1  0  0  0  0
  1  9  1  0  0  0  0
  2  1  2  0  0  0  0
  3  2  1  0  0  0  0
  3  4  2  0  0  0  0
  4  5  1  0  0  0  0
  5  6  2  0  0  0  0
  5 25  1  0  0  0  0
  7  2  1  0  0  0  0
  8  3  1  0  0  0  0
  9 13  1  0  0  0  0
 10  9  1  0  0  0  0
 10 11  1  0  0  0  0
 11 16  1  1  0  0  0
 11 12  1  0  0  0  0
 12 18  1  0  0  0  0
 12 17  1  0  0  0  0
 13 12  1  0  0  0  0
 13 20  1  0  0  0  0
 14 10  1  0  0  0  0
 15 10  1  0  0  0  0
 19 13  1  0  0  0  0
 21 11  1  0  0  0  0
 21 22  1  0  0  0  0
 21 24  1  0  0  0  0
 23 21  1  0  0  0  0
 27 26  1  0  0  0  0
 28 27  1  0  0  0  0
 28 25  1  0  0  0  0
 29 28  2  0  0  0  0
 30 29  1  0  0  0  0
 31 33  2  0  0  0  0
 31 29  1  0  0  0  0
 32 31  1  0  0  0  0
 33 34  1  0  0  0  0
 34 27  2  0  0  0  0
M  END
>  <minimizedAffinity>
-6.10799694

>  <minimizedRMSD>
2.34620237

$$$$
