
 OpenBabel03272503313D

 34 36  0  0  1  0  0  0  0  0999 V2000
   36.5290   23.9230   31.4960 C   0  0  0  0  0  0  0  0  0  0  0  0
   35.2020   24.1030   31.0850 C   0  0  0  0  0  0  0  0  0  0  0  0
   34.7850   25.4100   30.8180 C   0  0  0  0  0  0  0  0  0  0  0  0
   35.7130   26.4150   30.9840 N   0  0  0  0  0  0  0  0  0  0  0  0
   36.9600   26.1980   31.3760 C   0  0  0  0  0  0  0  0  0  0  0  0
   37.3840   24.9530   31.6370 N   0  0  0  0  0  0  0  0  0  0  0  0
   34.5070   23.2800   30.9680 H   0  0  0  0  0  0  0  0  0  0  0  0
   33.7850   25.6140   30.5020 H   0  0  0  0  0  0  0  0  0  0  0  0
   36.9470   22.5760   31.7660 N   0  0  0  0  0  0  0  0  0  0  0  0
   36.8180   21.8590   33.0020 C   0  0  0  0  0  0  0  0  0  0  0  0
   36.7170   20.4140   32.5360 C   0  0  2  0  0  0  0  0  0  0  0  0
   36.6910   20.4630   31.0220 C   0  0  0  0  0  0  0  0  0  0  0  0
   37.5850   21.6810   30.8260 C   0  0  0  0  0  0  0  0  0  0  0  0
   37.7680   21.9710   33.5640 H   0  0  0  0  0  0  0  0  0  0  0  0
   35.9220   22.1480   33.5840 H   0  0  0  0  0  0  0  0  0  0  0  0
   37.6160   19.8290   32.8040 H   0  0  0  0  0  0  0  0  0  0  0  0
   37.2040   19.6080   30.5640 H   0  0  0  0  0  0  0  0  0  0  0  0
   35.6890   20.6820   30.6110 H   0  0  0  0  0  0  0  0  0  0  0  0
   38.6110   21.4110   31.1510 H   0  0  0  0  0  0  0  0  0  0  0  0
   37.5090   22.0380   29.7880 H   0  0  0  0  0  0  0  0  0  0  0  0
   35.5190   19.6960   33.1000 C   0  0  0  0  0  0  0  0  0  0  0  0
   34.4180   20.1590   32.4090 F   0  0  0  0  0  0  0  0  0  0  0  0
   35.3780   20.1360   34.4070 F   0  0  0  0  0  0  0  0  0  0  0  0
   35.6330   18.3390   33.0840 F   0  0  0  0  0  0  0  0  0  0  0  0
   38.1030   27.5520   31.5720 S   0  0  0  0  0  0  0  0  0  0  0  0
   37.7570   27.2260   34.4530 F   0  0  0  0  0  0  0  0  0  0  0  0
   39.0440   27.0630   34.0200 C   0  0  0  0  0  0  0  0  0  0  0  0
   39.4440   27.1730   32.6880 C   0  0  0  0  0  0  0  0  0  0  0  0
   40.7670   26.9920   32.3460 C   0  0  0  0  0  0  0  0  0  0  0  0
   40.9840   27.0940   31.3040 H   0  0  0  0  0  0  0  0  0  0  0  0
   41.7090   26.7010   33.3110 C   0  0  0  0  0  0  0  0  0  0  0  0
   42.7430   26.5620   33.0260 H   0  0  0  0  0  0  0  0  0  0  0  0
   41.3010   26.5940   34.6420 C   0  0  0  0  0  3  0  0  0  0  0  0
   39.9700   26.7700   35.0280 C   0  0  0  0  0  3  0  0  0  0  0  0
  1  6  1  0  0  0  0
  1  9  1  0  0  0  0
  2  1  2  0  0  0  0
  3  4  2  0  0  0  0
  3  2  1  0  0  0  0
  4  5  1  0  0  0  0
  5 25  1  0  0  0  0
  5  6  2  0  0  0  0
  7  2  1  0  0  0  0
  8  3  1  0  0  0  0
  9 10  1  0  0  0  0
 10 14  1  0  0  0  0
 10 15  1  0  0  0  0
 11 16  1  1  0  0  0
 11 10  1  0  0  0  0
 11 21  1  0  0  0  0
 12 11  1  0  0  0  0
 13 12  1  0  0  0  0
 13 19  1  0  0  0  0
 13  9  1  0  0  0  0
 17 12  1  0  0  0  0
 18 12  1  0  0  0  0
 20 13  1  0  0  0  0
 21 23  1  0  0  0  0
 22 21  1  0  0  0  0
 24 21  1  0  0  0  0
 25 28  1  0  0  0  0
 27 26  1  0  0  0  0
 27 34  1  0  0  0  0
 28 27  2  0  0  0  0
 29 28  1  0  0  0  0
 29 31  2  0  0  0  0
 30 29  1  0  0  0  0
 31 33  1  0  0  0  0
 32 31  1  0  0  0  0
 33 34  2  0  0  0  0
M  END
>  <minimizedAffinity>
-5.74415064

$$$$

 OpenBabel03272503313D

 34 36  0  0  1  0  0  0  0  0999 V2000
   37.0310   26.0850   33.2960 C   0  0  0  0  0  0  0  0  0  0  0  0
   37.7390   25.9110   34.4920 C   0  0  0  0  0  0  0  0  0  0  0  0
   37.7600   26.9830   35.3870 C   0  0  0  0  0  0  0  0  0  0  0  0
   37.0830   28.1270   35.0190 N   0  0  0  0  0  0  0  0  0  0  0  0
   36.4260   28.2480   33.8760 C   0  0  0  0  0  0  0  0  0  0  0  0
   36.3900   27.2320   33.0000 N   0  0  0  0  0  0  0  0  0  0  0  0
   38.2570   24.9920   34.7380 H   0  0  0  0  0  0  0  0  0  0  0  0
   38.2820   26.9140   36.3170 H   0  0  0  0  0  0  0  0  0  0  0  0
   37.0160   24.9770   32.3840 N   0  0  0  0  0  0  0  0  0  0  0  0
   37.5670   23.6700   32.5970 C   0  0  0  0  0  0  0  0  0  0  0  0
   36.6760   22.7910   31.7310 C   0  0  2  0  0  0  0  0  0  0  0  0
   35.6020   23.7020   31.1740 C   0  0  0  0  0  0  0  0  0  0  0  0
   36.4310   24.9750   31.0600 C   0  0  0  0  0  0  0  0  0  0  0  0
   38.5880   23.6530   32.1620 H   0  0  0  0  0  0  0  0  0  0  0  0
   37.5300   23.3460   33.6550 H   0  0  0  0  0  0  0  0  0  0  0  0
   37.2160   22.3900   30.8540 H   0  0  0  0  0  0  0  0  0  0  0  0
   35.2970   23.4230   30.1590 H   0  0  0  0  0  0  0  0  0  0  0  0
   34.7700   23.8770   31.8820 H   0  0  0  0  0  0  0  0  0  0  0  0
   37.1980   24.8170   30.2750 H   0  0  0  0  0  0  0  0  0  0  0  0
   35.7710   25.8390   30.8920 H   0  0  0  0  0  0  0  0  0  0  0  0
   36.0930   21.6220   32.4830 C   0  0  0  0  0  0  0  0  0  0  0  0
   36.3080   20.5030   31.7040 F   0  0  0  0  0  0  0  0  0  0  0  0
   34.7230   21.8220   32.5170 F   0  0  0  0  0  0  0  0  0  0  0  0
   36.5680   21.4940   33.7530 F   0  0  0  0  0  0  0  0  0  0  0  0
   35.5770   29.7600   33.4670 S   0  0  0  0  0  0  0  0  0  0  0  0
   32.8360   29.5050   34.4440 F   0  0  0  0  0  0  0  0  0  0  0  0
   33.6200   30.3460   35.1840 C   0  0  0  0  0  0  0  0  0  0  0  0
   34.9590   30.6210   34.9050 C   0  0  0  0  0  0  0  0  0  0  0  0
   35.6710   31.4850   35.7090 C   0  0  0  0  0  0  0  0  0  0  0  0
   36.6890   31.6370   35.4210 H   0  0  0  0  0  0  0  0  0  0  0  0
   35.0710   32.0880   36.7960 C   0  0  0  0  0  0  0  0  0  0  0  0
   35.6430   32.7640   37.4170 H   0  0  0  0  0  0  0  0  0  0  0  0
   33.7310   31.8080   37.0680 C   0  0  0  0  0  3  0  0  0  0  0  0
   32.9770   30.9380   36.2770 C   0  0  0  0  0  3  0  0  0  0  0  0
  1  2  1  0  0  0  0
  2  7  1  0  0  0  0
  2  3  2  0  0  0  0
  3  8  1  0  0  0  0
  4  3  1  0  0  0  0
  5  4  2  0  0  0  0
  6  1  2  0  0  0  0
  6  5  1  0  0  0  0
  9 10  1  0  0  0  0
  9  1  1  0  0  0  0
 10 15  1  0  0  0  0
 11 16  1  6  0  0  0
 11 21  1  0  0  0  0
 11 10  1  0  0  0  0
 12 11  1  0  0  0  0
 12 18  1  0  0  0  0
 13 12  1  0  0  0  0
 13  9  1  0  0  0  0
 14 10  1  0  0  0  0
 17 12  1  0  0  0  0
 19 13  1  0  0  0  0
 20 13  1  0  0  0  0
 21 23  1  0  0  0  0
 21 24  1  0  0  0  0
 22 21  1  0  0  0  0
 25  5  1  0  0  0  0
 25 28  1  0  0  0  0
 26 27  1  0  0  0  0
 27 34  1  0  0  0  0
 28 27  2  0  0  0  0
 28 29  1  0  0  0  0
 29 31  2  0  0  0  0
 30 29  1  0  0  0  0
 31 33  1  0  0  0  0
 31 32  1  0  0  0  0
 34 33  2  0  0  0  0
M  END
>  <minimizedAffinity>
-5.72789049

$$$$

 OpenBabel03272503313D

 34 36  0  0  1  0  0  0  0  0999 V2000
   38.1890   24.9050   35.4570 C   0  0  0  0  0  0  0  0  0  0  0  0
   38.1760   26.1930   36.0050 C   0  0  0  0  0  0  0  0  0  0  0  0
   37.8820   27.2540   35.1440 C   0  0  0  0  0  0  0  0  0  0  0  0
   37.6300   26.9450   33.8240 N   0  0  0  0  0  0  0  0  0  0  0  0
   37.6530   25.7090   33.3480 C   0  0  0  0  0  0  0  0  0  0  0  0
   37.9320   24.6740   34.1550 N   0  0  0  0  0  0  0  0  0  0  0  0
   38.3810   26.3880   37.0510 H   0  0  0  0  0  0  0  0  0  0  0  0
   37.8560   28.2610   35.5000 H   0  0  0  0  0  0  0  0  0  0  0  0
   38.4920   23.8230   36.3500 N   0  0  0  0  0  0  0  0  0  0  0  0
   39.1370   22.5840   36.0240 C   0  0  0  0  0  0  0  0  0  0  0  0
   39.8190   22.2120   37.3330 C   0  0  2  0  0  0  0  0  0  0  0  0
   39.5740   23.3710   38.2770 C   0  0  0  0  0  0  0  0  0  0  0  0
   38.1990   23.7840   37.7670 C   0  0  0  0  0  0  0  0  0  0  0  0
   38.3480   21.8290   35.8240 H   0  0  0  0  0  0  0  0  0  0  0  0
   39.8780   22.6770   35.2070 H   0  0  0  0  0  0  0  0  0  0  0  0
   39.3510   21.3310   37.8080 H   0  0  0  0  0  0  0  0  0  0  0  0
   39.4490   23.0480   39.3170 H   0  0  0  0  0  0  0  0  0  0  0  0
   40.2790   24.2100   38.1280 H   0  0  0  0  0  0  0  0  0  0  0  0
   37.4830   22.9730   38.0130 H   0  0  0  0  0  0  0  0  0  0  0  0
   37.9310   24.7730   38.1670 H   0  0  0  0  0  0  0  0  0  0  0  0
   41.2870   21.9160   37.1680 C   0  0  0  0  0  0  0  0  0  0  0  0
   41.9380   23.1330   37.1610 F   0  0  0  0  0  0  0  0  0  0  0  0
   41.4380   21.3810   35.8990 F   0  0  0  0  0  0  0  0  0  0  0  0
   41.7800   21.0460   38.0930 F   0  0  0  0  0  0  0  0  0  0  0  0
   37.3200   25.3880   31.6270 S   0  0  0  0  0  0  0  0  0  0  0  0
   34.7950   23.9260   31.7530 F   0  0  0  0  0  0  0  0  0  0  0  0
   35.8690   23.1620   31.3860 C   0  0  0  0  0  0  0  0  0  0  0  0
   37.1720   23.6460   31.2610 C   0  0  0  0  0  0  0  0  0  0  0  0
   38.1920   22.7990   30.8850 C   0  0  0  0  0  0  0  0  0  0  0  0
   39.1560   23.2550   30.8140 H   0  0  0  0  0  0  0  0  0  0  0  0
   37.9400   21.4670   30.6290 C   0  0  0  0  0  0  0  0  0  0  0  0
   38.7520   20.8150   30.3360 H   0  0  0  0  0  0  0  0  0  0  0  0
   36.6340   20.9900   30.7580 C   0  0  0  0  0  3  0  0  0  0  0  0
   35.5740   21.8170   31.1360 C   0  0  0  0  0  3  0  0  0  0  0  0
  1  2  1  0  0  0  0
  1  9  1  0  0  0  0
  2  7  1  0  0  0  0
  3  8  1  0  0  0  0
  3  2  2  0  0  0  0
  4  3  1  0  0  0  0
  5  4  2  0  0  0  0
  5  6  1  0  0  0  0
  6  1  2  0  0  0  0
  9 13  1  0  0  0  0
 10  9  1  0  0  0  0
 10 11  1  0  0  0  0
 11 16  1  1  0  0  0
 11 12  1  0  0  0  0
 12 17  1  0  0  0  0
 13 19  1  0  0  0  0
 13 20  1  0  0  0  0
 13 12  1  0  0  0  0
 14 10  1  0  0  0  0
 15 10  1  0  0  0  0
 18 12  1  0  0  0  0
 21 11  1  0  0  0  0
 21 24  1  0  0  0  0
 22 21  1  0  0  0  0
 23 21  1  0  0  0  0
 25  5  1  0  0  0  0
 27 26  1  0  0  0  0
 28 27  1  0  0  0  0
 28 25  1  0  0  0  0
 29 28  2  0  0  0  0
 30 29  1  0  0  0  0
 31 33  2  0  0  0  0
 31 29  1  0  0  0  0
 32 31  1  0  0  0  0
 33 34  1  0  0  0  0
 34 27  2  0  0  0  0
M  END
>  <minimizedAffinity>
-5.70800734

$$$$

 OpenBabel03272503313D

 34 36  0  0  1  0  0  0  0  0999 V2000
   37.8070   24.0500   33.2470 C   0  0  0  0  0  0  0  0  0  0  0  0
   37.0460   23.0000   32.7190 C   0  0  0  0  0  0  0  0  0  0  0  0
   36.2230   23.2900   31.6270 C   0  0  0  0  0  0  0  0  0  0  0  0
   36.2270   24.5870   31.1600 N   0  0  0  0  0  0  0  0  0  0  0  0
   36.9650   25.5500   31.6920 C   0  0  0  0  0  0  0  0  0  0  0  0
   37.7630   25.2960   32.7400 N   0  0  0  0  0  0  0  0  0  0  0  0
   37.0750   21.9940   33.1200 H   0  0  0  0  0  0  0  0  0  0  0  0
   35.6170   22.5330   31.1780 H   0  0  0  0  0  0  0  0  0  0  0  0
   38.6490   23.7400   34.3680 N   0  0  0  0  0  0  0  0  0  0  0  0
   38.9050   24.5640   35.5140 C   0  0  0  0  0  0  0  0  0  0  0  0
   39.1930   23.5380   36.6010 C   0  0  2  0  0  0  0  0  0  0  0  0
   38.9600   22.1820   35.9680 C   0  0  0  0  0  0  0  0  0  0  0  0
   39.4040   22.5200   34.5510 C   0  0  0  0  0  0  0  0  0  0  0  0
   39.8390   25.1330   35.3260 H   0  0  0  0  0  0  0  0  0  0  0  0
   38.0460   25.2040   35.7950 H   0  0  0  0  0  0  0  0  0  0  0  0
   40.2540   23.5500   36.9100 H   0  0  0  0  0  0  0  0  0  0  0  0
   39.6470   21.4160   36.3490 H   0  0  0  0  0  0  0  0  0  0  0  0
   37.8940   21.8880   35.9500 H   0  0  0  0  0  0  0  0  0  0  0  0
   40.4970   22.7150   34.5710 H   0  0  0  0  0  0  0  0  0  0  0  0
   39.0900   21.7240   33.8590 H   0  0  0  0  0  0  0  0  0  0  0  0
   38.3540   23.7390   37.8370 C   0  0  0  0  0  0  0  0  0  0  0  0
   38.0460   25.0830   37.8920 F   0  0  0  0  0  0  0  0  0  0  0  0
   39.1810   23.4790   38.9170 F   0  0  0  0  0  0  0  0  0  0  0  0
   37.2580   22.9320   37.8950 F   0  0  0  0  0  0  0  0  0  0  0  0
   36.9140   27.2060   31.0360 S   0  0  0  0  0  0  0  0  0  0  0  0
   35.8780   29.8350   30.2980 F   0  0  0  0  0  0  0  0  0  0  0  0
   35.8920   29.5950   31.6440 C   0  0  0  0  0  0  0  0  0  0  0  0
   36.3440   28.4090   32.2260 C   0  0  0  0  0  0  0  0  0  0  0  0
   36.3210   28.2580   33.5960 C   0  0  0  0  0  0  0  0  0  0  0  0
   36.6850   27.3180   33.9540 H   0  0  0  0  0  0  0  0  0  0  0  0
   35.8520   29.2710   34.4070 C   0  0  0  0  0  0  0  0  0  0  0  0
   35.8410   29.1360   35.4800 H   0  0  0  0  0  0  0  0  0  0  0  0
   35.4030   30.4540   33.8170 C   0  0  0  0  0  3  0  0  0  0  0  0
   35.4100   30.6450   32.4330 C   0  0  0  0  0  3  0  0  0  0  0  0
  1  9  1  0  0  0  0
  2  7  1  0  0  0  0
  2  1  2  0  0  0  0
  3  2  1  0  0  0  0
  4  3  2  0  0  0  0
  4  5  1  0  0  0  0
  5  6  2  0  0  0  0
  6  1  1  0  0  0  0
  8  3  1  0  0  0  0
  9 13  1  0  0  0  0
  9 10  1  0  0  0  0
 10 15  1  0  0  0  0
 10 11  1  0  0  0  0
 11 16  1  1  0  0  0
 11 21  1  0  0  0  0
 12 17  1  0  0  0  0
 12 11  1  0  0  0  0
 13 19  1  0  0  0  0
 13 12  1  0  0  0  0
 14 10  1  0  0  0  0
 18 12  1  0  0  0  0
 20 13  1  0  0  0  0
 21 22  1  0  0  0  0
 21 24  1  0  0  0  0
 21 23  1  0  0  0  0
 25  5  1  0  0  0  0
 25 28  1  0  0  0  0
 26 27  1  0  0  0  0
 27 28  2  0  0  0  0
 27 34  1  0  0  0  0
 28 29  1  0  0  0  0
 29 30  1  0  0  0  0
 29 31  2  0  0  0  0
 31 32  1  0  0  0  0
 33 31  1  0  0  0  0
 34 33  2  0  0  0  0
M  END
>  <minimizedAffinity>
-5.7006073

$$$$

 OpenBabel03272503313D

 34 36  0  0  1  0  0  0  0  0999 V2000
   36.8120   24.4690   31.8330 C   0  0  0  0  0  0  0  0  0  0  0  0
   35.6940   23.7610   31.3760 C   0  0  0  0  0  0  0  0  0  0  0  0
   35.5620   22.4330   31.7890 C   0  0  0  0  0  0  0  0  0  0  0  0
   36.5460   21.9270   32.6120 N   0  0  0  0  0  0  0  0  0  0  0  0
   37.5890   22.6340   33.0200 C   0  0  0  0  0  0  0  0  0  0  0  0
   37.7370   23.9120   32.6380 N   0  0  0  0  0  0  0  0  0  0  0  0
   34.9450   24.2010   30.7290 H   0  0  0  0  0  0  0  0  0  0  0  0
   34.7320   21.8380   31.4750 H   0  0  0  0  0  0  0  0  0  0  0  0
   36.9380   25.8330   31.4030 N   0  0  0  0  0  0  0  0  0  0  0  0
   35.8810   26.7850   31.2180 C   0  0  0  0  0  0  0  0  0  0  0  0
   36.5780   28.1100   31.4900 C   0  0  2  0  0  0  0  0  0  0  0  0
   37.9880   27.7600   31.9210 C   0  0  0  0  0  0  0  0  0  0  0  0
   38.1740   26.5090   31.0730 C   0  0  0  0  0  0  0  0  0  0  0  0
   35.5860   26.7670   30.1480 H   0  0  0  0  0  0  0  0  0  0  0  0
   35.0320   26.6380   31.9140 H   0  0  0  0  0  0  0  0  0  0  0  0
   36.6850   28.7170   30.5720 H   0  0  0  0  0  0  0  0  0  0  0  0
   38.7270   28.4950   31.5790 H   0  0  0  0  0  0  0  0  0  0  0  0
   38.0600   27.4850   32.9890 H   0  0  0  0  0  0  0  0  0  0  0  0
   38.1990   26.8160   30.0070 H   0  0  0  0  0  0  0  0  0  0  0  0
   39.0600   25.9530   31.4130 H   0  0  0  0  0  0  0  0  0  0  0  0
   35.8640   28.9520   32.5150 C   0  0  0  0  0  0  0  0  0  0  0  0
   34.5130   28.7380   32.3320 F   0  0  0  0  0  0  0  0  0  0  0  0
   36.1050   30.2730   32.1740 F   0  0  0  0  0  0  0  0  0  0  0  0
   36.2760   28.7280   33.7940 F   0  0  0  0  0  0  0  0  0  0  0  0
   38.8240   21.9100   34.0820 S   0  0  0  0  0  0  0  0  0  0  0  0
   40.9940   21.5860   36.0090 F   0  0  0  0  0  0  0  0  0  0  0  0
   39.9090   22.2640   36.4930 C   0  0  0  0  0  0  0  0  0  0  0  0
   38.7580   22.5360   35.7530 C   0  0  0  0  0  0  0  0  0  0  0  0
   37.7130   23.2270   36.3270 C   0  0  0  0  0  0  0  0  0  0  0  0
   36.8720   23.3910   35.6880 H   0  0  0  0  0  0  0  0  0  0  0  0
   37.7910   23.6580   37.6360 C   0  0  0  0  0  0  0  0  0  0  0  0
   36.9620   24.1990   38.0720 H   0  0  0  0  0  0  0  0  0  0  0  0
   38.9460   23.3810   38.3700 C   0  0  0  0  0  3  0  0  0  0  0  0
   40.0260   22.6840   37.8230 C   0  0  0  0  0  3  0  0  0  0  0  0
  1  6  1  0  0  0  0
  2  3  1  0  0  0  0
  2  1  2  0  0  0  0
  3  4  2  0  0  0  0
  4  5  1  0  0  0  0
  5 25  1  0  0  0  0
  6  5  2  0  0  0  0
  7  2  1  0  0  0  0
  8  3  1  0  0  0  0
  9  1  1  0  0  0  0
 10  9  1  0  0  0  0
 10 11  1  0  0  0  0
 10 15  1  0  0  0  0
 11 16  1  6  0  0  0
 11 12  1  0  0  0  0
 11 21  1  0  0  0  0
 12 18  1  0  0  0  0
 13  9  1  0  0  0  0
 13 20  1  0  0  0  0
 13 12  1  0  0  0  0
 14 10  1  0  0  0  0
 17 12  1  0  0  0  0
 19 13  1  0  0  0  0
 21 24  1  0  0  0  0
 22 21  1  0  0  0  0
 23 21  1  0  0  0  0
 25 28  1  0  0  0  0
 26 27  1  0  0  0  0
 27 34  1  0  0  0  0
 28 29  1  0  0  0  0
 28 27  2  0  0  0  0
 29 31  2  0  0  0  0
 30 29  1  0  0  0  0
 31 32  1  0  0  0  0
 31 33  1  0  0  0  0
 34 33  2  0  0  0  0
M  END
>  <minimizedAffinity>
-5.68259287

$$$$

 OpenBabel03272503313D

 34 36  0  0  1  0  0  0  0  0999 V2000
   37.9090   22.7990   34.0200 C   0  0  0  0  0  0  0  0  0  0  0  0
   38.1540   21.9930   35.1380 C   0  0  0  0  0  0  0  0  0  0  0  0
   38.6930   22.6130   36.2700 C   0  0  0  0  0  0  0  0  0  0  0  0
   38.9400   23.9670   36.1910 N   0  0  0  0  0  0  0  0  0  0  0  0
   38.6920   24.6910   35.1090 C   0  0  0  0  0  0  0  0  0  0  0  0
   38.1750   24.1190   34.0110 N   0  0  0  0  0  0  0  0  0  0  0  0
   37.9440   20.9310   35.1540 H   0  0  0  0  0  0  0  0  0  0  0  0
   38.9040   22.0540   37.1550 H   0  0  0  0  0  0  0  0  0  0  0  0
   37.3550   22.1530   32.8630 N   0  0  0  0  0  0  0  0  0  0  0  0
   37.3250   20.7460   32.5870 C   0  0  0  0  0  0  0  0  0  0  0  0
   36.0790   20.6050   31.7250 C   0  0  2  0  0  0  0  0  0  0  0  0
   35.4420   21.9780   31.6820 C   0  0  0  0  0  0  0  0  0  0  0  0
   36.7140   22.8130   31.7470 C   0  0  0  0  0  0  0  0  0  0  0  0
   38.2060   20.5010   31.9570 H   0  0  0  0  0  0  0  0  0  0  0  0
   37.2450   20.1220   33.4980 H   0  0  0  0  0  0  0  0  0  0  0  0
   36.3270   20.3540   30.6770 H   0  0  0  0  0  0  0  0  0  0  0  0
   34.9640   22.1910   30.7180 H   0  0  0  0  0  0  0  0  0  0  0  0
   34.8220   22.1980   32.5710 H   0  0  0  0  0  0  0  0  0  0  0  0
   37.2760   22.6580   30.8030 H   0  0  0  0  0  0  0  0  0  0  0  0
   36.4640   23.8620   31.9680 H   0  0  0  0  0  0  0  0  0  0  0  0
   35.1270   19.5540   32.2340 C   0  0  0  0  0  0  0  0  0  0  0  0
   35.3540   19.4360   33.5900 F   0  0  0  0  0  0  0  0  0  0  0  0
   35.5240   18.3560   31.6630 F   0  0  0  0  0  0  0  0  0  0  0  0
   33.8230   19.7970   31.9260 F   0  0  0  0  0  0  0  0  0  0  0  0
   39.0420   26.4380   35.0810 S   0  0  0  0  0  0  0  0  0  0  0  0
   39.3330   26.8360   32.2030 F   0  0  0  0  0  0  0  0  0  0  0  0
   38.2210   27.4220   32.7420 C   0  0  0  0  0  0  0  0  0  0  0  0
   37.8790   27.3640   34.0930 C   0  0  0  0  0  0  0  0  0  0  0  0
   36.7360   27.9880   34.5450 C   0  0  0  0  0  0  0  0  0  0  0  0
   36.5520   27.8910   35.5940 H   0  0  0  0  0  0  0  0  0  0  0  0
   35.9180   28.6750   33.6710 C   0  0  0  0  0  0  0  0  0  0  0  0
   35.0250   29.1590   34.0420 H   0  0  0  0  0  0  0  0  0  0  0  0
   36.2670   28.7290   32.3210 C   0  0  0  0  0  3  0  0  0  0  0  0
   37.4170   28.1090   31.8250 C   0  0  0  0  0  3  0  0  0  0  0  0
  1  2  1  0  0  0  0
  2  7  1  0  0  0  0
  2  3  2  0  0  0  0
  3  8  1  0  0  0  0
  4  3  1  0  0  0  0
  5  4  2  0  0  0  0
  6  1  2  0  0  0  0
  6  5  1  0  0  0  0
  9  1  1  0  0  0  0
 10  9  1  0  0  0  0
 10 15  1  0  0  0  0
 11 16  1  6  0  0  0
 11 21  1  0  0  0  0
 11 10  1  0  0  0  0
 12 11  1  0  0  0  0
 12 13  1  0  0  0  0
 12 18  1  0  0  0  0
 13 20  1  0  0  0  0
 13  9  1  0  0  0  0
 14 10  1  0  0  0  0
 17 12  1  0  0  0  0
 19 13  1  0  0  0  0
 21 22  1  0  0  0  0
 23 21  1  0  0  0  0
 24 21  1  0  0  0  0
 25  5  1  0  0  0  0
 26 27  1  0  0  0  0
 27 28  1  0  0  0  0
 28 29  2  0  0  0  0
 28 25  1  0  0  0  0
 29 30  1  0  0  0  0
 31 32  1  0  0  0  0
 31 29  1  0  0  0  0
 33 31  2  0  0  0  0
 34 33  1  0  0  0  0
 34 27  2  0  0  0  0
M  END
>  <minimizedAffinity>
-5.68257904

$$$$

 OpenBabel03272503313D

 34 36  0  0  1  0  0  0  0  0999 V2000
   36.4860   29.5640   31.6140 C   0  0  0  0  0  0  0  0  0  0  0  0
   36.5480   29.8810   30.2520 C   0  0  0  0  0  0  0  0  0  0  0  0
   37.2420   28.9990   29.4180 C   0  0  0  0  0  0  0  0  0  0  0  0
   37.8120   27.8910   30.0060 N   0  0  0  0  0  0  0  0  0  0  0  0
   37.7290   27.6300   31.3030 C   0  0  0  0  0  0  0  0  0  0  0  0
   37.0670   28.4600   32.1230 N   0  0  0  0  0  0  0  0  0  0  0  0
   36.0830   30.7650   29.8340 H   0  0  0  0  0  0  0  0  0  0  0  0
   37.3260   29.1840   28.3690 H   0  0  0  0  0  0  0  0  0  0  0  0
   35.7700   30.4750   32.4610 N   0  0  0  0  0  0  0  0  0  0  0  0
   35.2180   30.2040   33.7560 C   0  0  0  0  0  0  0  0  0  0  0  0
   35.2670   31.5680   34.4290 C   0  0  2  0  0  0  0  0  0  0  0  0
   35.9660   32.4910   33.4520 C   0  0  0  0  0  0  0  0  0  0  0  0
   35.4710   31.8580   32.1580 C   0  0  0  0  0  0  0  0  0  0  0  0
   34.1510   29.9270   33.6230 H   0  0  0  0  0  0  0  0  0  0  0  0
   35.7990   29.4600   34.3330 H   0  0  0  0  0  0  0  0  0  0  0  0
   34.2570   31.9930   34.5770 H   0  0  0  0  0  0  0  0  0  0  0  0
   35.5710   33.5140   33.4830 H   0  0  0  0  0  0  0  0  0  0  0  0
   37.0680   32.4130   33.4920 H   0  0  0  0  0  0  0  0  0  0  0  0
   34.3780   32.0330   32.0850 H   0  0  0  0  0  0  0  0  0  0  0  0
   36.0560   32.2380   31.3070 H   0  0  0  0  0  0  0  0  0  0  0  0
   35.9530   31.5380   35.7700 C   0  0  0  0  0  0  0  0  0  0  0  0
   36.9170   32.5250   35.7440 F   0  0  0  0  0  0  0  0  0  0  0  0
   36.6270   30.3300   35.8390 F   0  0  0  0  0  0  0  0  0  0  0  0
   35.0990   31.6460   36.8260 F   0  0  0  0  0  0  0  0  0  0  0  0
   38.4960   26.1770   31.9920 S   0  0  0  0  0  0  0  0  0  0  0  0
   37.7900   23.8050   33.5430 F   0  0  0  0  0  0  0  0  0  0  0  0
   38.0860   24.9040   34.3010 C   0  0  0  0  0  0  0  0  0  0  0  0
   38.4490   26.1460   33.7770 C   0  0  0  0  0  0  0  0  0  0  0  0
   38.7300   27.1980   34.6210 C   0  0  0  0  0  0  0  0  0  0  0  0
   38.9990   28.1110   34.1340 H   0  0  0  0  0  0  0  0  0  0  0  0
   38.6560   27.0390   35.9900 C   0  0  0  0  0  0  0  0  0  0  0  0
   38.8790   27.8760   36.6390 H   0  0  0  0  0  0  0  0  0  0  0  0
   38.2910   25.7950   36.5070 C   0  0  0  0  0  3  0  0  0  0  0  0
   38.0000   24.7040   35.6830 C   0  0  0  0  0  3  0  0  0  0  0  0
  1  6  1  0  0  0  0
  1  9  1  0  0  0  0
  2  1  2  0  0  0  0
  3  4  2  0  0  0  0
  3  2  1  0  0  0  0
  4  5  1  0  0  0  0
  5 25  1  0  0  0  0
  5  6  2  0  0  0  0
  7  2  1  0  0  0  0
  8  3  1  0  0  0  0
  9 10  1  0  0  0  0
 10 15  1  0  0  0  0
 10 11  1  0  0  0  0
 11 16  1  1  0  0  0
 11 21  1  0  0  0  0
 12 17  1  0  0  0  0
 12 18  1  0  0  0  0
 12 11  1  0  0  0  0
 13  9  1  0  0  0  0
 13 12  1  0  0  0  0
 14 10  1  0  0  0  0
 19 13  1  0  0  0  0
 20 13  1  0  0  0  0
 21 23  1  0  0  0  0
 21 24  1  0  0  0  0
 22 21  1  0  0  0  0
 25 28  1  0  0  0  0
 26 27  1  0  0  0  0
 27 34  1  0  0  0  0
 28 27  2  0  0  0  0
 28 29  1  0  0  0  0
 29 31  2  0  0  0  0
 30 29  1  0  0  0  0
 31 33  1  0  0  0  0
 31 32  1  0  0  0  0
 34 33  2  0  0  0  0
M  END
>  <minimizedAffinity>
-5.61731577

$$$$

 OpenBabel03272503313D

 34 36  0  0  1  0  0  0  0  0999 V2000
   37.8180   22.9430   35.2450 C   0  0  0  0  0  0  0  0  0  0  0  0
   37.5400   22.6040   36.5750 C   0  0  0  0  0  0  0  0  0  0  0  0
   37.7190   23.5980   37.5420 C   0  0  0  0  0  0  0  0  0  0  0  0
   38.1560   24.8310   37.1070 N   0  0  0  0  0  0  0  0  0  0  0  0
   38.4070   25.1070   35.8360 C   0  0  0  0  0  0  0  0  0  0  0  0
   38.2430   24.1710   34.8890 N   0  0  0  0  0  0  0  0  0  0  0  0
   37.1980   21.6190   36.8700 H   0  0  0  0  0  0  0  0  0  0  0  0
   37.5240   23.4030   38.5740 H   0  0  0  0  0  0  0  0  0  0  0  0
   37.6310   21.9150   34.2610 N   0  0  0  0  0  0  0  0  0  0  0  0
   36.4780   21.0810   34.0850 C   0  0  0  0  0  0  0  0  0  0  0  0
   36.5180   20.7710   32.5960 C   0  0  2  0  0  0  0  0  0  0  0  0
   37.6710   21.5750   32.0320 C   0  0  0  0  0  0  0  0  0  0  0  0
   38.5880   21.5270   33.2470 C   0  0  0  0  0  0  0  0  0  0  0  0
   36.6530   20.1340   34.6360 H   0  0  0  0  0  0  0  0  0  0  0  0
   35.5290   21.5830   34.3570 H   0  0  0  0  0  0  0  0  0  0  0  0
   36.7630   19.7120   32.4000 H   0  0  0  0  0  0  0  0  0  0  0  0
   38.1870   21.0550   31.2160 H   0  0  0  0  0  0  0  0  0  0  0  0
   37.4060   22.6280   31.8220 H   0  0  0  0  0  0  0  0  0  0  0  0
   38.9240   20.4790   33.3830 H   0  0  0  0  0  0  0  0  0  0  0  0
   39.4000   22.2610   33.1330 H   0  0  0  0  0  0  0  0  0  0  0  0
   35.2180   21.0770   31.8970 C   0  0  0  0  0  0  0  0  0  0  0  0
   35.5220   21.2780   30.5660 F   0  0  0  0  0  0  0  0  0  0  0  0
   34.7850   22.2960   32.3910 F   0  0  0  0  0  0  0  0  0  0  0  0
   34.2540   20.1350   32.0920 F   0  0  0  0  0  0  0  0  0  0  0  0
   38.9740   26.7260   35.3490 S   0  0  0  0  0  0  0  0  0  0  0  0
   36.2960   27.7270   34.7560 F   0  0  0  0  0  0  0  0  0  0  0  0
   37.1170   27.6380   33.6660 C   0  0  0  0  0  0  0  0  0  0  0  0
   38.4360   27.1870   33.7110 C   0  0  0  0  0  0  0  0  0  0  0  0
   39.1890   27.1330   32.5570 C   0  0  0  0  0  0  0  0  0  0  0  0
   40.1880   26.7750   32.6840 H   0  0  0  0  0  0  0  0  0  0  0  0
   38.6490   27.5220   31.3470 C   0  0  0  0  0  0  0  0  0  0  0  0
   39.2530   27.4720   30.4510 H   0  0  0  0  0  0  0  0  0  0  0  0
   37.3280   27.9710   31.3110 C   0  0  0  0  0  3  0  0  0  0  0  0
   36.5340   28.0410   32.4580 C   0  0  0  0  0  3  0  0  0  0  0  0
  1  2  1  0  0  0  0
  2  7  1  0  0  0  0
  2  3  2  0  0  0  0
  3  8  1  0  0  0  0
  4  3  1  0  0  0  0
  5  4  2  0  0  0  0
  6  1  2  0  0  0  0
  6  5  1  0  0  0  0
  9  1  1  0  0  0  0
 10  9  1  0  0  0  0
 10 15  1  0  0  0  0
 10 14  1  0  0  0  0
 11 16  1  6  0  0  0
 11 10  1  0  0  0  0
 12 11  1  0  0  0  0
 12 13  1  0  0  0  0
 13 19  1  0  0  0  0
 13  9  1  0  0  0  0
 17 12  1  0  0  0  0
 18 12  1  0  0  0  0
 20 13  1  0  0  0  0
 21 24  1  0  0  0  0
 21 23  1  0  0  0  0
 21 11  1  0  0  0  0
 22 21  1  0  0  0  0
 25  5  1  0  0  0  0
 27 28  1  0  0  0  0
 27 26  1  0  0  0  0
 28 25  1  0  0  0  0
 29 30  1  0  0  0  0
 29 28  2  0  0  0  0
 31 29  1  0  0  0  0
 32 31  1  0  0  0  0
 33 31  2  0  0  0  0
 33 34  1  0  0  0  0
 34 27  2  0  0  0  0
M  END
>  <minimizedAffinity>
-5.60280323

$$$$

 OpenBabel03272503313D

 34 36  0  0  1  0  0  0  0  0999 V2000
   36.1210   28.1750   32.7380 C   0  0  0  0  0  0  0  0  0  0  0  0
   35.6350   27.5610   31.5770 C   0  0  0  0  0  0  0  0  0  0  0  0
   36.2820   26.4000   31.1450 C   0  0  0  0  0  0  0  0  0  0  0  0
   37.3470   25.9540   31.8970 N   0  0  0  0  0  0  0  0  0  0  0  0
   37.7740   26.5670   32.9910 C   0  0  0  0  0  0  0  0  0  0  0  0
   37.1690   27.6830   33.4260 N   0  0  0  0  0  0  0  0  0  0  0  0
   34.7930   27.9490   31.0170 H   0  0  0  0  0  0  0  0  0  0  0  0
   35.9590   25.8850   30.2660 H   0  0  0  0  0  0  0  0  0  0  0  0
   35.4500   29.3670   33.1720 N   0  0  0  0  0  0  0  0  0  0  0  0
   34.9460   29.6490   34.4850 C   0  0  0  0  0  0  0  0  0  0  0  0
   35.0370   31.1660   34.5540 C   0  0  2  0  0  0  0  0  0  0  0  0
   35.7070   31.6050   33.2690 C   0  0  0  0  0  0  0  0  0  0  0  0
   35.1540   30.5210   32.3520 C   0  0  0  0  0  0  0  0  0  0  0  0
   33.8720   29.3700   34.5080 H   0  0  0  0  0  0  0  0  0  0  0  0
   35.5420   29.1820   35.2930 H   0  0  0  0  0  0  0  0  0  0  0  0
   34.0400   31.6420   34.5530 H   0  0  0  0  0  0  0  0  0  0  0  0
   35.3250   32.5650   32.9010 H   0  0  0  0  0  0  0  0  0  0  0  0
   36.8090   31.5210   33.3010 H   0  0  0  0  0  0  0  0  0  0  0  0
   34.0610   30.6810   32.2510 H   0  0  0  0  0  0  0  0  0  0  0  0
   35.7090   30.5140   31.4020 H   0  0  0  0  0  0  0  0  0  0  0  0
   35.7760   31.6560   35.7730 C   0  0  0  0  0  0  0  0  0  0  0  0
   36.7130   30.6920   36.0840 F   0  0  0  0  0  0  0  0  0  0  0  0
   34.8580   31.6630   36.8110 F   0  0  0  0  0  0  0  0  0  0  0  0
   36.3110   32.9000   35.6290 F   0  0  0  0  0  0  0  0  0  0  0  0
   39.1630   25.9320   33.9100 S   0  0  0  0  0  0  0  0  0  0  0  0
   38.2480   26.7490   36.5610 F   0  0  0  0  0  0  0  0  0  0  0  0
   38.2800   25.3950   36.3700 C   0  0  0  0  0  0  0  0  0  0  0  0
   38.6830   24.7780   35.1850 C   0  0  0  0  0  0  0  0  0  0  0  0
   38.6820   23.4030   35.0860 C   0  0  0  0  0  0  0  0  0  0  0  0
   39.0050   23.0160   34.1430 H   0  0  0  0  0  0  0  0  0  0  0  0
   38.2850   22.6220   36.1520 C   0  0  0  0  0  0  0  0  0  0  0  0
   38.2910   21.5440   36.0580 H   0  0  0  0  0  0  0  0  0  0  0  0
   37.8850   23.2470   37.3340 C   0  0  0  0  0  3  0  0  0  0  0  0
   37.8710   24.6370   37.4730 C   0  0  0  0  0  3  0  0  0  0  0  0
  1  9  1  0  0  0  0
  1  6  1  0  0  0  0
  2  1  2  0  0  0  0
  3  2  1  0  0  0  0
  3  4  2  0  0  0  0
  4  5  1  0  0  0  0
  5  6  2  0  0  0  0
  5 25  1  0  0  0  0
  7  2  1  0  0  0  0
  8  3  1  0  0  0  0
  9 10  1  0  0  0  0
 10 14  1  0  0  0  0
 10 11  1  0  0  0  0
 10 15  1  0  0  0  0
 11 16  1  1  0  0  0
 11 21  1  0  0  0  0
 12 18  1  0  0  0  0
 12 11  1  0  0  0  0
 13  9  1  0  0  0  0
 13 12  1  0  0  0  0
 17 12  1  0  0  0  0
 19 13  1  0  0  0  0
 20 13  1  0  0  0  0
 21 22  1  0  0  0  0
 21 23  1  0  0  0  0
 24 21  1  0  0  0  0
 25 28  1  0  0  0  0
 27 26  1  0  0  0  0
 27 34  1  0  0  0  0
 28 27  2  0  0  0  0
 29 28  1  0  0  0  0
 29 31  2  0  0  0  0
 30 29  1  0  0  0  0
 31 33  1  0  0  0  0
 32 31  1  0  0  0  0
 33 34  2  0  0  0  0
M  END
>  <minimizedAffinity>
-5.60227823

$$$$
