
 OpenBabel03272503293D

 34 36  0  0  1  0  0  0  0  0999 V2000
   35.2480   29.3940   47.8990 C   0  0  0  0  0  0  0  0  0  0  0  0
   35.1140   30.0370   46.6630 C   0  0  0  0  0  0  0  0  0  0  0  0
   34.0000   29.7080   45.8860 C   0  0  0  0  0  0  0  0  0  0  0  0
   33.1240   28.7750   46.4000 N   0  0  0  0  0  0  0  0  0  0  0  0
   33.2910   28.1910   47.5770 C   0  0  0  0  0  0  0  0  0  0  0  0
   34.3520   28.4910   48.3420 N   0  0  0  0  0  0  0  0  0  0  0  0
   35.8290   30.7640   46.2990 H   0  0  0  0  0  0  0  0  0  0  0  0
   33.8400   30.1630   44.9330 H   0  0  0  0  0  0  0  0  0  0  0  0
   36.3960   29.7390   48.6890 N   0  0  0  0  0  0  0  0  0  0  0  0
   37.5420   30.4930   48.2710 C   0  0  0  0  0  0  0  0  0  0  0  0
   38.0030   31.1410   49.5690 C   0  0  2  0  0  0  0  0  0  0  0  0
   36.9740   30.7630   50.6140 C   0  0  0  0  0  0  0  0  0  0  0  0
   36.6100   29.3850   50.0760 C   0  0  0  0  0  0  0  0  0  0  0  0
   38.3260   29.7760   47.9500 H   0  0  0  0  0  0  0  0  0  0  0  0
   37.3070   31.2620   47.5100 H   0  0  0  0  0  0  0  0  0  0  0  0
   38.9620   30.7220   49.9230 H   0  0  0  0  0  0  0  0  0  0  0  0
   37.4170   30.6150   51.6070 H   0  0  0  0  0  0  0  0  0  0  0  0
   36.0750   31.4060   50.5930 H   0  0  0  0  0  0  0  0  0  0  0  0
   37.4930   28.7240   50.1970 H   0  0  0  0  0  0  0  0  0  0  0  0
   35.6920   29.0220   50.5630 H   0  0  0  0  0  0  0  0  0  0  0  0
   38.1710   32.6340   49.4540 C   0  0  0  0  0  0  0  0  0  0  0  0
   37.0210   33.2030   49.9630 F   0  0  0  0  0  0  0  0  0  0  0  0
   38.1870   32.9230   48.0990 F   0  0  0  0  0  0  0  0  0  0  0  0
   39.3080   33.1060   50.0360 F   0  0  0  0  0  0  0  0  0  0  0  0
   32.1170   26.9910   48.1750 S   0  0  0  0  0  0  0  0  0  0  0  0
   30.1550   27.8650   46.1960 F   0  0  0  0  0  0  0  0  0  0  0  0
   29.7680   28.0550   47.4940 C   0  0  0  0  0  0  0  0  0  0  0  0
   30.5410   27.7130   48.6040 C   0  0  0  0  0  0  0  0  0  0  0  0
   30.0660   27.9430   49.8780 C   0  0  0  0  0  0  0  0  0  0  0  0
   30.7250   27.6510   50.6670 H   0  0  0  0  0  0  0  0  0  0  0  0
   28.8230   28.5120   50.0710 C   0  0  0  0  0  0  0  0  0  0  0  0
   28.4660   28.6860   51.0770 H   0  0  0  0  0  0  0  0  0  0  0  0
   28.0550   28.8500   48.9560 C   0  0  0  0  0  3  0  0  0  0  0  0
   28.5020   28.6330   47.6500 C   0  0  0  0  0  3  0  0  0  0  0  0
  1  6  1  0  0  0  0
  1  9  1  0  0  0  0
  2  1  2  0  0  0  0
  3  4  2  0  0  0  0
  3  2  1  0  0  0  0
  4  5  1  0  0  0  0
  5 25  1  0  0  0  0
  5  6  2  0  0  0  0
  7  2  1  0  0  0  0
  8  3  1  0  0  0  0
  9 13  1  0  0  0  0
 10  9  1  0  0  0  0
 10 11  1  0  0  0  0
 11 16  1  1  0  0  0
 11 12  1  0  0  0  0
 12 17  1  0  0  0  0
 13 19  1  0  0  0  0
 13 20  1  0  0  0  0
 13 12  1  0  0  0  0
 14 10  1  0  0  0  0
 15 10  1  0  0  0  0
 18 12  1  0  0  0  0
 21 11  1  0  0  0  0
 21 22  1  0  0  0  0
 21 24  1  0  0  0  0
 23 21  1  0  0  0  0
 25 28  1  0  0  0  0
 26 27  1  0  0  0  0
 27 34  2  0  0  0  0
 27 28  1  0  0  0  0
 28 29  2  0  0  0  0
 29 31  1  0  0  0  0
 29 30  1  0  0  0  0
 31 32  1  0  0  0  0
 33 31  2  0  0  0  0
 34 33  1  0  0  0  0
M  END
>  <minimizedAffinity>
-6.44194365

>  <minimizedRMSD>
0.939763784

$$$$
