
 OpenBabel03272503293D

 34 36  0  0  1  0  0  0  0  0999 V2000
   34.9000   29.3730   47.9200 C   0  0  0  0  0  0  0  0  0  0  0  0
   34.8260   29.9070   46.6280 C   0  0  0  0  0  0  0  0  0  0  0  0
   33.6700   29.6430   45.8880 C   0  0  0  0  0  0  0  0  0  0  0  0
   32.6970   28.8750   46.4920 N   0  0  0  0  0  0  0  0  0  0  0  0
   32.8090   28.3880   47.7190 C   0  0  0  0  0  0  0  0  0  0  0  0
   33.9090   28.6290   48.4480 N   0  0  0  0  0  0  0  0  0  0  0  0
   35.6180   30.5060   46.1940 H   0  0  0  0  0  0  0  0  0  0  0  0
   33.5520   30.0210   44.8960 H   0  0  0  0  0  0  0  0  0  0  0  0
   36.0910   29.6510   48.6700 N   0  0  0  0  0  0  0  0  0  0  0  0
   37.2520   30.3640   48.2220 C   0  0  0  0  0  0  0  0  0  0  0  0
   37.7910   30.9630   49.5120 C   0  0  2  0  0  0  0  0  0  0  0  0
   36.7880   30.6080   50.5900 C   0  0  0  0  0  0  0  0  0  0  0  0
   36.3430   29.2590   50.0400 C   0  0  0  0  0  0  0  0  0  0  0  0
   37.9910   29.6200   47.8560 H   0  0  0  0  0  0  0  0  0  0  0  0
   37.0220   31.1580   47.4850 H   0  0  0  0  0  0  0  0  0  0  0  0
   38.7440   30.4950   49.8200 H   0  0  0  0  0  0  0  0  0  0  0  0
   37.2620   30.4200   51.5610 H   0  0  0  0  0  0  0  0  0  0  0  0
   35.9180   31.2890   50.6170 H   0  0  0  0  0  0  0  0  0  0  0  0
   37.2000   28.5570   50.1130 H   0  0  0  0  0  0  0  0  0  0  0  0
   35.4300   28.9260   50.5560 H   0  0  0  0  0  0  0  0  0  0  0  0
   38.0210   32.4500   49.4200 C   0  0  0  0  0  0  0  0  0  0  0  0
   36.9120   33.0570   49.9730 F   0  0  0  0  0  0  0  0  0  0  0  0
   38.0100   32.7640   48.0710 F   0  0  0  0  0  0  0  0  0  0  0  0
   39.1940   32.8610   49.9760 F   0  0  0  0  0  0  0  0  0  0  0  0
   31.5090   27.3990   48.4310 S   0  0  0  0  0  0  0  0  0  0  0  0
   29.7330   27.5410   50.7450 F   0  0  0  0  0  0  0  0  0  0  0  0
   29.2470   28.1580   49.6250 C   0  0  0  0  0  0  0  0  0  0  0  0
   29.9210   28.2160   48.4050 C   0  0  0  0  0  0  0  0  0  0  0  0
   29.3500   28.8610   47.3290 C   0  0  0  0  0  0  0  0  0  0  0  0
   29.9370   28.8560   46.4340 H   0  0  0  0  0  0  0  0  0  0  0  0
   28.1090   29.4550   47.4430 C   0  0  0  0  0  0  0  0  0  0  0  0
   27.6760   29.9560   46.5880 H   0  0  0  0  0  0  0  0  0  0  0  0
   27.4420   29.3920   48.6670 C   0  0  0  0  0  3  0  0  0  0  0  0
   27.9870   28.7470   49.7800 C   0  0  0  0  0  3  0  0  0  0  0  0
  1  6  1  0  0  0  0
  1  9  1  0  0  0  0
  2  1  2  0  0  0  0
  3  4  2  0  0  0  0
  3  2  1  0  0  0  0
  4  5  1  0  0  0  0
  5 25  1  0  0  0  0
  5  6  2  0  0  0  0
  7  2  1  0  0  0  0
  8  3  1  0  0  0  0
  9 13  1  0  0  0  0
 10  9  1  0  0  0  0
 10 11  1  0  0  0  0
 11 16  1  1  0  0  0
 11 12  1  0  0  0  0
 12 18  1  0  0  0  0
 12 17  1  0  0  0  0
 13 19  1  0  0  0  0
 13 20  1  0  0  0  0
 13 12  1  0  0  0  0
 14 10  1  0  0  0  0
 15 10  1  0  0  0  0
 21 11  1  0  0  0  0
 21 22  1  0  0  0  0
 21 24  1  0  0  0  0
 23 21  1  0  0  0  0
 27 34  1  0  0  0  0
 27 26  1  0  0  0  0
 28 25  1  0  0  0  0
 28 27  2  0  0  0  0
 29 31  2  0  0  0  0
 29 28  1  0  0  0  0
 30 29  1  0  0  0  0
 31 33  1  0  0  0  0
 32 31  1  0  0  0  0
 33 34  2  0  0  0  0
M  END
>  <minimizedAffinity>
-6.55585957

>  <minimizedRMSD>
1.14850891

$$$$
