
 OpenBabel03272501013D

 34 36  0  0  0  0  0  0  0  0999 V2000
   37.0980   29.7150   46.1040 F   0  0  0  0  0  0  0  0  0  0  0  0
   36.4510   30.3660   45.0990 C   0  0  0  0  0  0  0  0  0  0  0  0
   37.0620   31.3340   44.3150 C   0  0  0  0  0  0  0  0  0  0  0  0
   36.3260   31.9320   43.3300 C   0  0  0  0  0  0  0  0  0  0  0  0
   35.0090   31.6380   43.0550 C   0  0  0  0  0  0  0  0  0  0  0  0
   34.4130   30.6680   43.8460 C   0  0  0  0  0  0  0  0  0  0  0  0
   35.1160   30.0290   44.8640 C   0  0  0  0  0  0  0  0  0  0  0  0
   36.7740   32.6950   42.6960 H   0  0  0  0  0  0  0  0  0  0  0  0
   34.4400   32.1180   42.2720 H   0  0  0  0  0  0  0  0  0  0  0  0
   33.3800   30.3970   43.6760 H   0  0  0  0  0  0  0  0  0  0  0  0
   39.9590   33.1690   45.5700 C   0  0  0  0  0  0  0  0  0  0  0  0
   41.0470   32.4160   45.1420 C   0  0  0  0  0  0  0  0  0  0  0  0
   40.7810   31.2650   44.4130 C   0  0  0  0  0  0  0  0  0  0  0  0
   39.4850   30.9020   44.1380 N   0  0  0  0  0  0  0  0  0  0  0  0
   38.4630   31.6720   44.5800 C   0  0  0  0  0  0  0  0  0  0  0  0
   38.6890   32.8110   45.2980 N   0  0  0  0  0  0  0  0  0  0  0  0
   40.1060   34.0780   46.1430 H   0  0  0  0  0  0  0  0  0  0  0  0
   42.0200   32.7660   45.3980 H   0  0  0  0  0  0  0  0  0  0  0  0
   41.6230   30.6980   44.0910 H   0  0  0  0  0  0  0  0  0  0  0  0
   34.5190   29.0790   45.6340 O   0  0  0  0  0  0  0  0  0  0  0  0
   34.3460   27.8980   47.9190 O   0  0  0  0  0  0  0  0  0  0  0  0
   33.9440   29.2040   47.2080 P   0  0  2  0  0  0  0  0  0  0  0  0
   32.2860   29.3610   47.3650 O   0  0  0  0  0  0  0  0  0  0  0  0
   32.0650   30.3250   47.4950 H   0  0  0  0  0  0  0  0  0  0  0  0
   34.7390   30.4530   48.0390 O   0  0  0  0  0  0  0  0  0  0  0  0
   37.0670   31.8170   48.0180 F   0  0  0  0  0  0  0  0  0  0  0  0
   36.7210   31.0370   49.0960 C   0  0  0  0  0  0  0  0  0  0  0  0
   35.5270   30.3110   49.1560 C   0  0  0  0  0  0  0  0  0  0  0  0
   35.2410   29.5470   50.2700 C   0  0  0  0  0  0  0  0  0  0  0  0
   34.3060   29.0070   50.2630 H   0  0  0  0  0  0  0  0  0  0  0  0
   36.1130   29.4830   51.3330 C   0  0  0  0  0  0  0  0  0  0  0  0
   35.9000   28.8870   52.2100 H   0  0  0  0  0  0  0  0  0  0  0  0
   37.3050   30.2050   51.2770 C   0  0  0  0  0  0  0  0  0  0  0  0
   37.6020   30.9700   50.1720 C   0  0  0  0  0  0  0  0  0  0  0  0
  2  1  1  0  0  0  0
  3 15  1  0  0  0  0
  3  2  2  0  0  0  0
  4  3  1  0  0  0  0
  5  4  2  0  0  0  0
  5  6  1  0  0  0  0
  6  7  2  0  0  0  0
  7  2  1  0  0  0  0
  7 20  1  0  0  0  0
  8  4  1  0  0  0  0
  9  5  1  0  0  0  0
 10  6  1  0  0  0  0
 11 17  1  0  0  0  0
 12 18  1  0  0  0  0
 12 11  2  0  0  0  0
 13 12  1  0  0  0  0
 14 13  2  0  0  0  0
 14 15  1  0  0  0  0
 15 16  2  0  0  0  0
 16 11  1  0  0  0  0
 19 13  1  0  0  0  0
 20 22  1  0  0  0  0
 22 23  1  0  0  0  0
 22 21  2  1  0  0  0
 22 25  1  0  0  0  0
 23 24  1  0  0  0  0
 25 28  1  0  0  0  0
 26 27  1  0  0  0  0
 27 28  2  0  0  0  0
 27 34  1  0  0  0  0
 28 29  1  0  0  0  0
 29 31  2  0  0  0  0
 30 29  1  0  0  0  0
 31 32  1  0  0  0  0
 33 31  1  0  0  0  0
 34 33  2  0  0  0  0
M  END
>  <minimizedAffinity>
-6.03108168

>  <minimizedRMSD>
2.80345535

$$$$
