
 OpenBabel03272507523D

 32 34  0  0  0  0  0  0  0  0999 V2000
   36.8970   31.3770   48.4620 N   0  0  0  0  0  0  0  0  0  0  0  0
   37.3540   32.2410   49.3610 C   0  0  0  0  0  0  0  0  0  0  0  0
   38.4160   33.0870   49.0490 C   0  0  0  0  0  0  0  0  0  0  0  0
   38.9060   32.9360   47.7870 C   0  0  0  0  0  0  0  0  0  0  0  0
   39.8740   33.7080   47.5030 O   0  0  0  0  0  0  0  0  0  0  0  0
   38.4810   32.0870   46.8570 N   0  0  0  0  0  0  0  0  0  0  0  0
   37.4500   31.2950   47.2200 C   0  0  0  0  0  0  0  0  0  0  0  0
   37.0330   30.4790   46.3400 O   0  0  0  0  0  0  0  0  0  0  0  0
   36.8980   32.2900   50.3480 H   0  0  0  0  0  0  0  0  0  0  0  0
   38.8080   33.8020   49.7660 H   0  0  0  0  0  0  0  0  0  0  0  0
   40.8560   30.6900   46.2350 F   0  0  0  0  0  0  0  0  0  0  0  0
   40.2100   31.3160   45.2280 C   0  0  0  0  0  0  0  0  0  0  0  0
   39.0520   31.9920   45.5500 C   0  0  0  0  0  0  0  0  0  0  0  0
   38.3060   32.6650   44.6240 C   0  0  0  0  0  0  0  0  0  0  0  0
   37.3910   33.2170   44.7960 H   0  0  0  0  0  0  0  0  0  0  0  0
   38.6960   32.6930   43.2840 C   0  0  0  0  0  0  0  0  0  0  0  0
   38.1460   33.2100   42.5030 H   0  0  0  0  0  0  0  0  0  0  0  0
   39.8660   32.0120   42.9460 C   0  0  0  0  0  3  0  0  0  0  0  0
   40.6060   31.3400   43.8910 C   0  0  0  0  0  3  0  0  0  0  0  0
   35.7030   29.9520   50.0250 C   0  0  0  0  0  0  0  0  0  0  0  0
   35.8080   30.4770   48.7230 C   0  0  0  0  0  0  0  0  0  0  0  0
   34.8620   30.1040   47.7570 C   0  0  0  0  0  0  0  0  0  0  0  0
   33.8880   29.2480   48.1310 N   0  0  0  0  0  0  0  0  0  0  0  0
   33.7890   28.7520   49.3540 C   0  0  0  0  0  0  0  0  0  0  0  0
   34.6880   29.1020   50.2890 N   0  0  0  0  0  0  0  0  0  0  0  0
   35.0590   30.5720   46.8230 H   0  0  0  0  0  0  0  0  0  0  0  0
   32.9830   28.0670   49.5960 H   0  0  0  0  0  0  0  0  0  0  0  0
   37.6430   29.5310   51.7130 C   0  0  0  0  0  0  0  0  0  0  0  0
   37.9320   28.3660   51.3670 O   0  0  0  0  0  0  0  0  0  0  0  0
   36.5880   30.2710   51.0770 N   0  0  0  0  0  0  0  0  0  0  0  0
   38.2360   29.9380   52.5150 H   0  0  0  0  0  0  0  0  0  0  0  0
   36.5030   31.2340   51.5200 H   0  0  0  0  0  0  0  0  0  0  0  0
  1 21  1  0  0  0  0
  1  2  1  0  0  0  0
  2  9  1  0  0  0  0
  3  2  2  0  0  0  0
  3 10  1  0  0  0  0
  4  3  1  0  0  0  0
  5  4  2  0  0  0  0
  6  7  1  0  0  0  0
  6  4  1  0  0  0  0
  7  1  1  0  0  0  0
  8  7  2  0  0  0  0
 12 13  1  0  0  0  0
 12 11  1  0  0  0  0
 13  6  1  0  0  0  0
 14 15  1  0  0  0  0
 14 13  2  0  0  0  0
 16 14  1  0  0  0  0
 17 16  1  0  0  0  0
 18 16  2  0  0  0  0
 18 19  1  0  0  0  0
 19 12  2  0  0  0  0
 20 25  1  0  0  0  0
 20 30  1  0  0  0  0
 21 20  2  0  0  0  0
 22 23  2  0  0  0  0
 22 21  1  0  0  0  0
 23 24  1  0  0  0  0
 24 27  1  0  0  0  0
 24 25  2  0  0  0  0
 26 22  1  0  0  0  0
 28 31  1  0  0  0  0
 29 28  2  0  0  0  0
 30 32  1  0  0  0  0
 30 28  1  0  0  0  0
M  END
>  <minimizedAffinity>
-6.47067738

>  <minimizedRMSD>
1.9228828

$$$$
