
 OpenBabel03272508023D

 28 30  0  0  0  0  0  0  0  0999 V2000
   34.0910   30.0080   45.9320 C   0  0  0  0  0  0  0  0  0  0  0  0
   34.9200   30.0650   44.8330 C   0  0  0  0  0  0  0  0  0  0  0  0
   34.2920   30.8090   43.8180 C   0  0  0  0  0  0  0  0  0  0  0  0
   33.0940   31.1710   44.3620 N   0  0  0  0  0  0  0  0  0  0  0  0
   32.9880   30.7030   45.5850 N   0  0  0  0  0  0  0  0  0  0  0  0
   35.8920   29.5910   44.8130 H   0  0  0  0  0  0  0  0  0  0  0  0
   34.7470   30.9940   42.8550 H   0  0  0  0  0  0  0  0  0  0  0  0
   31.7850   33.5450   45.1700 F   0  0  0  0  0  0  0  0  0  0  0  0
   31.5590   33.1090   43.9220 C   0  0  0  0  0  0  0  0  0  0  0  0
   32.2130   31.9500   43.5620 C   0  0  0  0  0  0  0  0  0  0  0  0
   32.0380   31.4190   42.2820 C   0  0  0  0  0  0  0  0  0  0  0  0
   32.4860   30.5390   41.8930 H   0  0  0  0  0  0  0  0  0  0  0  0
   31.1950   32.0970   41.4090 C   0  0  0  0  0  0  0  0  0  0  0  0
   31.0230   31.7310   40.4010 H   0  0  0  0  0  0  0  0  0  0  0  0
   30.5200   33.2720   41.7460 C   0  0  0  0  0  3  0  0  0  0  0  0
   30.7280   33.7530   43.0240 C   0  0  0  0  0  3  0  0  0  0  0  0
   34.3470   29.3430   47.1960 C   0  0  0  0  0  0  0  0  0  0  0  0
   35.2410   29.9540   48.1030 C   0  0  0  0  0  0  0  0  0  0  0  0
   35.4960   29.3210   49.3270 C   0  0  0  0  0  0  0  0  0  0  0  0
   34.8530   28.1440   49.5600 N   0  0  0  0  0  0  0  0  0  0  0  0
   34.0030   27.5730   48.6870 C   0  0  0  0  0  0  0  0  0  0  0  0
   33.7670   28.1890   47.5160 N   0  0  0  0  0  0  0  0  0  0  0  0
   35.7180   30.8900   47.8570 H   0  0  0  0  0  0  0  0  0  0  0  0
   33.5490   26.6340   48.9780 H   0  0  0  0  0  0  0  0  0  0  0  0
   36.4330   29.9560   50.2860 C   0  0  0  0  0  0  0  0  0  0  0  0
   37.6860   29.5330   49.9150 F   0  0  0  0  0  0  0  0  0  0  0  0
   36.4000   31.3430   50.2060 F   0  0  0  0  0  0  0  0  0  0  0  0
   36.2040   29.5500   51.5870 F   0  0  0  0  0  0  0  0  0  0  0  0
  1 17  1  0  0  0  0
  2  1  1  0  0  0  0
  3  4  1  0  0  0  0
  3  2  2  0  0  0  0
  4  5  1  0  0  0  0
  5  1  2  0  0  0  0
  6  2  1  0  0  0  0
  7  3  1  0  0  0  0
  9  8  1  0  0  0  0
 10  9  1  0  0  0  0
 10  4  1  0  0  0  0
 11 10  2  0  0  0  0
 12 11  1  0  0  0  0
 13 15  2  0  0  0  0
 13 11  1  0  0  0  0
 14 13  1  0  0  0  0
 15 16  1  0  0  0  0
 16  9  2  0  0  0  0
 17 22  2  0  0  0  0
 17 18  1  0  0  0  0
 18 19  2  0  0  0  0
 19 20  1  0  0  0  0
 19 25  1  0  0  0  0
 21 24  1  0  0  0  0
 21 20  2  0  0  0  0
 22 21  1  0  0  0  0
 23 18  1  0  0  0  0
 25 28  1  0  0  0  0
 26 25  1  0  0  0  0
 27 25  1  0  0  0  0
M  END
>  <minimizedAffinity>
-4.839993

>  <minimizedRMSD>
7.39970636

$$$$
