
 OpenBabel03272500453D

 25 27  0  0  0  0  0  0  0  0999 V2000
   37.3120   25.9140   33.0620 C   0  0  0  0  0  0  0  0  0  0  0  0
   37.4210   24.6740   32.4270 C   0  0  0  0  0  0  0  0  0  0  0  0
   37.8490   23.7460   33.3830 C   0  0  0  0  0  0  0  0  0  0  0  0
   37.9870   24.4220   34.5420 N   0  0  0  0  0  0  0  0  0  0  0  0
   37.6640   25.6810   34.3110 N   0  0  0  0  0  0  0  0  0  0  0  0
   37.2320   24.3900   31.3950 H   0  0  0  0  0  0  0  0  0  0  0  0
   38.0540   22.6880   33.3000 H   0  0  0  0  0  0  0  0  0  0  0  0
   36.4320   28.2490   33.0440 C   0  0  0  0  0  0  0  0  0  0  0  0
   36.8970   27.1090   32.3930 C   0  0  0  0  0  0  0  0  0  0  0  0
   36.9530   27.1570   30.9870 C   0  0  0  0  0  0  0  0  0  0  0  0
   36.5560   28.2980   30.3570 N   0  0  0  0  0  0  0  0  0  0  0  0
   36.1110   29.3810   31.0540 C   0  0  0  0  0  0  0  0  0  0  0  0
   36.0500   29.3550   32.4040 N   0  0  0  0  0  0  0  0  0  0  0  0
   36.3880   28.2150   34.1320 H   0  0  0  0  0  0  0  0  0  0  0  0
   37.3060   26.3000   30.4310 H   0  0  0  0  0  0  0  0  0  0  0  0
   35.8490   30.1710   30.3680 H   0  0  0  0  0  0  0  0  0  0  0  0
   40.3590   23.0350   34.9470 F   0  0  0  0  0  0  0  0  0  0  0  0
   39.5690   23.3270   36.0270 C   0  0  0  0  0  0  0  0  0  0  0  0
   38.3880   24.0150   35.8450 C   0  0  0  0  0  0  0  0  0  0  0  0
   37.6200   24.2900   36.9570 C   0  0  0  0  0  0  0  0  0  0  0  0
   36.6790   24.8300   36.8720 H   0  0  0  0  0  0  0  0  0  0  0  0
   38.0110   23.8920   38.2400 C   0  0  0  0  0  0  0  0  0  0  0  0
   37.4140   24.1030   39.1310 H   0  0  0  0  0  0  0  0  0  0  0  0
   39.2160   23.1970   38.3780 C   0  0  0  0  0  3  0  0  0  0  0  0
   40.0120   22.9060   37.2650 C   0  0  0  0  0  3  0  0  0  0  0  0
  1  5  2  0  0  0  0
  2  1  1  0  0  0  0
  2  3  2  0  0  0  0
  3  4  1  0  0  0  0
  4 19  1  0  0  0  0
  5  4  1  0  0  0  0
  6  2  1  0  0  0  0
  7  3  1  0  0  0  0
  8 14  1  0  0  0  0
  9  8  2  0  0  0  0
  9  1  1  0  0  0  0
 10  9  1  0  0  0  0
 11 10  2  0  0  0  0
 11 12  1  0  0  0  0
 12 13  2  0  0  0  0
 13  8  1  0  0  0  0
 15 10  1  0  0  0  0
 16 12  1  0  0  0  0
 17 18  1  0  0  0  0
 18 25  1  0  0  0  0
 19 18  2  0  0  0  0
 19 20  1  0  0  0  0
 20 22  2  0  0  0  0
 21 20  1  0  0  0  0
 22 24  1  0  0  0  0
 22 23  1  0  0  0  0
 25 24  2  0  0  0  0
M  END
>  <minimizedAffinity>
-4.91799068

$$$$

 OpenBabel03272500453D

 25 27  0  0  0  0  0  0  0  0999 V2000
   37.9730   25.1150   34.7810 C   0  0  0  0  0  0  0  0  0  0  0  0
   37.7360   24.5730   33.5150 C   0  0  0  0  0  0  0  0  0  0  0  0
   37.1760   25.5820   32.7220 C   0  0  0  0  0  0  0  0  0  0  0  0
   37.0880   26.6790   33.5000 N   0  0  0  0  0  0  0  0  0  0  0  0
   37.5630   26.3650   34.6910 N   0  0  0  0  0  0  0  0  0  0  0  0
   37.9180   23.5730   33.1290 H   0  0  0  0  0  0  0  0  0  0  0  0
   36.8510   25.5720   31.6920 H   0  0  0  0  0  0  0  0  0  0  0  0
   37.9940   24.3030   37.1410 C   0  0  0  0  0  0  0  0  0  0  0  0
   38.5440   24.3710   35.8630 C   0  0  0  0  0  0  0  0  0  0  0  0
   39.7360   23.6560   35.6440 C   0  0  0  0  0  0  0  0  0  0  0  0
   40.2730   22.9510   36.6790 N   0  0  0  0  0  0  0  0  0  0  0  0
   39.6840   22.9250   37.9080 C   0  0  0  0  0  0  0  0  0  0  0  0
   38.5390   23.6040   38.1370 N   0  0  0  0  0  0  0  0  0  0  0  0
   37.0700   24.8550   37.3130 H   0  0  0  0  0  0  0  0  0  0  0  0
   40.2060   23.6750   34.6710 H   0  0  0  0  0  0  0  0  0  0  0  0
   40.2670   22.3130   38.5760 H   0  0  0  0  0  0  0  0  0  0  0  0
   37.5220   27.9250   31.0550 F   0  0  0  0  0  0  0  0  0  0  0  0
   36.8320   28.5970   32.0290 C   0  0  0  0  0  0  0  0  0  0  0  0
   36.6070   27.9950   33.2480 C   0  0  0  0  0  0  0  0  0  0  0  0
   35.9090   28.7040   34.2030 C   0  0  0  0  0  0  0  0  0  0  0  0
   35.7020   28.2780   35.1830 H   0  0  0  0  0  0  0  0  0  0  0  0
   35.4340   29.9970   33.9600 C   0  0  0  0  0  0  0  0  0  0  0  0
   34.8780   30.5720   34.7060 H   0  0  0  0  0  0  0  0  0  0  0  0
   35.6850   30.5690   32.7090 C   0  0  0  0  0  3  0  0  0  0  0  0
   36.3910   29.8700   31.7250 C   0  0  0  0  0  3  0  0  0  0  0  0
  1  9  1  0  0  0  0
  2  1  1  0  0  0  0
  3  4  1  0  0  0  0
  3  2  2  0  0  0  0
  4  5  1  0  0  0  0
  5  1  2  0  0  0  0
  6  2  1  0  0  0  0
  7  3  1  0  0  0  0
  8 14  1  0  0  0  0
  8 13  1  0  0  0  0
  9  8  2  0  0  0  0
 10  9  1  0  0  0  0
 10 11  2  0  0  0  0
 11 12  1  0  0  0  0
 12 13  2  0  0  0  0
 12 16  1  0  0  0  0
 15 10  1  0  0  0  0
 17 18  1  0  0  0  0
 18 19  1  0  0  0  0
 19  4  1  0  0  0  0
 19 20  2  0  0  0  0
 20 21  1  0  0  0  0
 22 20  1  0  0  0  0
 22 23  1  0  0  0  0
 24 22  2  0  0  0  0
 25 18  2  0  0  0  0
 25 24  1  0  0  0  0
M  END
>  <minimizedAffinity>
-4.84122324

$$$$

 OpenBabel03272500453D

 25 27  0  0  0  0  0  0  0  0999 V2000
   36.3140   28.2480   33.4430 C   0  0  0  0  0  0  0  0  0  0  0  0
   36.2090   29.1920   32.4180 C   0  0  0  0  0  0  0  0  0  0  0  0
   35.5380   30.3060   32.9360 C   0  0  0  0  0  0  0  0  0  0  0  0
   35.2590   30.0230   34.2250 N   0  0  0  0  0  0  0  0  0  0  0  0
   35.7290   28.8150   34.4800 N   0  0  0  0  0  0  0  0  0  0  0  0
   36.5510   29.1560   31.3870 H   0  0  0  0  0  0  0  0  0  0  0  0
   35.2580   31.2410   32.4730 H   0  0  0  0  0  0  0  0  0  0  0  0
   37.1990   26.3790   32.0460 C   0  0  0  0  0  0  0  0  0  0  0  0
   36.9460   26.9740   33.2800 C   0  0  0  0  0  0  0  0  0  0  0  0
   37.3430   26.2590   34.4250 C   0  0  0  0  0  0  0  0  0  0  0  0
   37.9430   25.0460   34.2610 N   0  0  0  0  0  0  0  0  0  0  0  0
   38.1630   24.5190   33.0230 C   0  0  0  0  0  0  0  0  0  0  0  0
   37.7890   25.1910   31.9120 N   0  0  0  0  0  0  0  0  0  0  0  0
   36.8920   26.9310   31.1580 H   0  0  0  0  0  0  0  0  0  0  0  0
   37.1710   26.6730   35.4080 H   0  0  0  0  0  0  0  0  0  0  0  0
   38.6460   23.5600   33.1190 H   0  0  0  0  0  0  0  0  0  0  0  0
   36.6740   31.7070   35.9210 F   0  0  0  0  0  0  0  0  0  0  0  0
   35.3180   31.5920   36.0790 C   0  0  0  0  0  0  0  0  0  0  0  0
   34.6000   30.7620   35.2460 C   0  0  0  0  0  0  0  0  0  0  0  0
   33.2370   30.6730   35.4380 C   0  0  0  0  0  0  0  0  0  0  0  0
   32.6200   30.0330   34.8090 H   0  0  0  0  0  0  0  0  0  0  0  0
   32.5840   31.3980   36.4400 C   0  0  0  0  0  0  0  0  0  0  0  0
   31.5050   31.3400   36.6040 H   0  0  0  0  0  0  0  0  0  0  0  0
   33.3530   32.2290   37.2620 C   0  0  0  0  0  3  0  0  0  0  0  0
   34.7360   32.3340   37.0880 C   0  0  0  0  0  3  0  0  0  0  0  0
  1  5  2  0  0  0  0
  2  3  2  0  0  0  0
  2  1  1  0  0  0  0
  3  4  1  0  0  0  0
  4  5  1  0  0  0  0
  4 19  1  0  0  0  0
  6  2  1  0  0  0  0
  7  3  1  0  0  0  0
  8  9  1  0  0  0  0
  9  1  1  0  0  0  0
  9 10  2  0  0  0  0
 10 15  1  0  0  0  0
 11 10  1  0  0  0  0
 12 16  1  0  0  0  0
 12 11  2  0  0  0  0
 13  8  2  0  0  0  0
 13 12  1  0  0  0  0
 14  8  1  0  0  0  0
 17 18  1  0  0  0  0
 18 25  1  0  0  0  0
 19 20  1  0  0  0  0
 19 18  2  0  0  0  0
 20 22  2  0  0  0  0
 21 20  1  0  0  0  0
 22 23  1  0  0  0  0
 22 24  1  0  0  0  0
 25 24  2  0  0  0  0
M  END
>  <minimizedAffinity>
-4.82545471

$$$$

 OpenBabel03272500453D

 25 27  0  0  0  0  0  0  0  0999 V2000
   36.2500   29.6330   32.1880 C   0  0  0  0  0  0  0  0  0  0  0  0
   36.4200   28.4540   32.9190 C   0  0  0  0  0  0  0  0  0  0  0  0
   35.8370   28.6490   34.1770 C   0  0  0  0  0  0  0  0  0  0  0  0
   35.3430   29.9040   34.1820 N   0  0  0  0  0  0  0  0  0  0  0  0
   35.6050   30.4420   33.0040 N   0  0  0  0  0  0  0  0  0  0  0  0
   36.8980   27.5170   32.6460 H   0  0  0  0  0  0  0  0  0  0  0  0
   35.7550   27.9890   35.0280 H   0  0  0  0  0  0  0  0  0  0  0  0
   36.8960   31.0420   30.2320 C   0  0  0  0  0  0  0  0  0  0  0  0
   36.7220   29.8050   30.8480 C   0  0  0  0  0  0  0  0  0  0  0  0
   37.0360   28.6640   30.0840 C   0  0  0  0  0  0  0  0  0  0  0  0
   37.4840   28.8360   28.8090 N   0  0  0  0  0  0  0  0  0  0  0  0
   37.6330   30.0770   28.2650 C   0  0  0  0  0  0  0  0  0  0  0  0
   37.3380   31.1830   28.9810 N   0  0  0  0  0  0  0  0  0  0  0  0
   36.6550   31.9270   30.8200 H   0  0  0  0  0  0  0  0  0  0  0  0
   36.9190   27.6790   30.5120 H   0  0  0  0  0  0  0  0  0  0  0  0
   37.9970   29.9870   27.2540 H   0  0  0  0  0  0  0  0  0  0  0  0
   36.7080   31.5540   35.9500 F   0  0  0  0  0  0  0  0  0  0  0  0
   35.3430   31.4680   36.0410 C   0  0  0  0  0  0  0  0  0  0  0  0
   34.6490   30.6550   35.1720 C   0  0  0  0  0  0  0  0  0  0  0  0
   33.2780   30.5960   35.2950 C   0  0  0  0  0  0  0  0  0  0  0  0
   32.6790   29.9710   34.6350 H   0  0  0  0  0  0  0  0  0  0  0  0
   32.5920   31.3330   36.2660 C   0  0  0  0  0  0  0  0  0  0  0  0
   31.5040   31.2970   36.3760 H   0  0  0  0  0  0  0  0  0  0  0  0
   33.3360   32.1450   37.1270 C   0  0  0  0  0  3  0  0  0  0  0  0
   34.7290   32.2210   37.0220 C   0  0  0  0  0  3  0  0  0  0  0  0
  1  2  1  0  0  0  0
  1  5  2  0  0  0  0
  2  3  2  0  0  0  0
  3  4  1  0  0  0  0
  3  7  1  0  0  0  0
  4 19  1  0  0  0  0
  5  4  1  0  0  0  0
  6  2  1  0  0  0  0
  8 14  1  0  0  0  0
  8  9  1  0  0  0  0
  9  1  1  0  0  0  0
 10 15  1  0  0  0  0
 10  9  2  0  0  0  0
 11 10  1  0  0  0  0
 12 11  2  0  0  0  0
 12 13  1  0  0  0  0
 13  8  2  0  0  0  0
 16 12  1  0  0  0  0
 17 18  1  0  0  0  0
 18 25  1  0  0  0  0
 19 20  1  0  0  0  0
 19 18  2  0  0  0  0
 20 22  2  0  0  0  0
 21 20  1  0  0  0  0
 22 23  1  0  0  0  0
 22 24  1  0  0  0  0
 25 24  2  0  0  0  0
M  END
>  <minimizedAffinity>
-4.8017807

$$$$

 OpenBabel03272500453D

 25 27  0  0  0  0  0  0  0  0999 V2000
   36.3740   28.1750   32.9650 C   0  0  0  0  0  0  0  0  0  0  0  0
   36.3360   29.2180   32.0340 C   0  0  0  0  0  0  0  0  0  0  0  0
   35.7540   30.3240   32.6630 C   0  0  0  0  0  0  0  0  0  0  0  0
   35.4610   29.9420   33.9230 N   0  0  0  0  0  0  0  0  0  0  0  0
   35.8390   28.6840   34.0570 N   0  0  0  0  0  0  0  0  0  0  0  0
   36.6690   29.2530   31.0000 H   0  0  0  0  0  0  0  0  0  0  0  0
   35.5430   31.3180   32.2940 H   0  0  0  0  0  0  0  0  0  0  0  0
   37.3850   25.9960   33.6400 C   0  0  0  0  0  0  0  0  0  0  0  0
   36.9060   26.8790   32.6750 C   0  0  0  0  0  0  0  0  0  0  0  0
   36.9610   26.4480   31.3350 C   0  0  0  0  0  0  0  0  0  0  0  0
   37.4690   25.2130   31.0680 N   0  0  0  0  0  0  0  0  0  0  0  0
   37.9210   24.3950   32.0610 C   0  0  0  0  0  0  0  0  0  0  0  0
   37.8770   24.7900   33.3520 N   0  0  0  0  0  0  0  0  0  0  0  0
   37.3440   26.3260   34.6780 H   0  0  0  0  0  0  0  0  0  0  0  0
   36.6030   27.0940   30.5460 H   0  0  0  0  0  0  0  0  0  0  0  0
   38.2780   23.4720   31.6350 H   0  0  0  0  0  0  0  0  0  0  0  0
   32.7760   29.5970   34.5440 F   0  0  0  0  0  0  0  0  0  0  0  0
   33.5300   30.4460   35.3100 C   0  0  0  0  0  0  0  0  0  0  0  0
   34.8650   30.6290   35.0170 C   0  0  0  0  0  0  0  0  0  0  0  0
   35.5900   31.4910   35.8120 C   0  0  0  0  0  0  0  0  0  0  0  0
   36.6470   31.6730   35.6270 H   0  0  0  0  0  0  0  0  0  0  0  0
   35.0080   32.1680   36.8890 C   0  0  0  0  0  0  0  0  0  0  0  0
   35.5700   32.8540   37.5280 H   0  0  0  0  0  0  0  0  0  0  0  0
   33.6510   31.9520   37.1490 C   0  0  0  0  0  3  0  0  0  0  0  0
   32.8950   31.0830   36.3570 C   0  0  0  0  0  3  0  0  0  0  0  0
  1  5  2  0  0  0  0
  2  3  2  0  0  0  0
  2  1  1  0  0  0  0
  3  4  1  0  0  0  0
  4  5  1  0  0  0  0
  4 19  1  0  0  0  0
  6  2  1  0  0  0  0
  7  3  1  0  0  0  0
  8 14  1  0  0  0  0
  9  1  1  0  0  0  0
  9  8  2  0  0  0  0
 10  9  1  0  0  0  0
 11 10  2  0  0  0  0
 11 12  1  0  0  0  0
 12 13  2  0  0  0  0
 13  8  1  0  0  0  0
 15 10  1  0  0  0  0
 16 12  1  0  0  0  0
 17 18  1  0  0  0  0
 18 25  1  0  0  0  0
 19 18  2  0  0  0  0
 19 20  1  0  0  0  0
 20 22  2  0  0  0  0
 21 20  1  0  0  0  0
 22 24  1  0  0  0  0
 22 23  1  0  0  0  0
 25 24  2  0  0  0  0
M  END
>  <minimizedAffinity>
-4.7546134

$$$$

 OpenBabel03272500453D

 25 27  0  0  0  0  0  0  0  0999 V2000
   37.4560   26.1260   33.3950 C   0  0  0  0  0  0  0  0  0  0  0  0
   37.2990   24.9730   32.6190 C   0  0  0  0  0  0  0  0  0  0  0  0
   37.8860   23.9110   33.3180 C   0  0  0  0  0  0  0  0  0  0  0  0
   38.3720   24.4260   34.4650 N   0  0  0  0  0  0  0  0  0  0  0  0
   38.1000   25.7190   34.4710 N   0  0  0  0  0  0  0  0  0  0  0  0
   36.8270   24.8330   31.6500 H   0  0  0  0  0  0  0  0  0  0  0  0
   37.9780   22.8650   33.0650 H   0  0  0  0  0  0  0  0  0  0  0  0
   37.1210   27.9410   31.7160 C   0  0  0  0  0  0  0  0  0  0  0  0
   36.9770   27.4140   32.9970 C   0  0  0  0  0  0  0  0  0  0  0  0
   36.3170   28.2180   33.9460 C   0  0  0  0  0  0  0  0  0  0  0  0
   35.8640   29.4440   33.5590 N   0  0  0  0  0  0  0  0  0  0  0  0
   36.0370   29.9010   32.2860 C   0  0  0  0  0  0  0  0  0  0  0  0
   36.6680   29.1450   31.3620 N   0  0  0  0  0  0  0  0  0  0  0  0
   37.6320   27.3210   30.9790 H   0  0  0  0  0  0  0  0  0  0  0  0
   36.1780   27.8590   34.9550 H   0  0  0  0  0  0  0  0  0  0  0  0
   35.6070   30.8860   32.1940 H   0  0  0  0  0  0  0  0  0  0  0  0
   37.1610   24.1530   36.9500 F   0  0  0  0  0  0  0  0  0  0  0  0
   38.4480   23.7110   36.7860 C   0  0  0  0  0  0  0  0  0  0  0  0
   39.0640   23.8380   35.5610 C   0  0  0  0  0  0  0  0  0  0  0  0
   40.3590   23.3820   35.4360 C   0  0  0  0  0  0  0  0  0  0  0  0
   40.8950   23.4570   34.4920 H   0  0  0  0  0  0  0  0  0  0  0  0
   41.0440   22.8030   36.5100 C   0  0  0  0  0  0  0  0  0  0  0  0
   42.0700   22.4360   36.4270 H   0  0  0  0  0  0  0  0  0  0  0  0
   40.3790   22.6940   37.7360 C   0  0  0  0  0  3  0  0  0  0  0  0
   39.0660   23.1500   37.8860 C   0  0  0  0  0  3  0  0  0  0  0  0
  1  5  2  0  0  0  0
  2  3  2  0  0  0  0
  2  1  1  0  0  0  0
  3  4  1  0  0  0  0
  4  5  1  0  0  0  0
  4 19  1  0  0  0  0
  6  2  1  0  0  0  0
  7  3  1  0  0  0  0
  8  9  1  0  0  0  0
  9  1  1  0  0  0  0
  9 10  2  0  0  0  0
 10 15  1  0  0  0  0
 11 10  1  0  0  0  0
 12 11  2  0  0  0  0
 13  8  2  0  0  0  0
 13 12  1  0  0  0  0
 14  8  1  0  0  0  0
 16 12  1  0  0  0  0
 18 17  1  0  0  0  0
 18 25  1  0  0  0  0
 19 18  2  0  0  0  0
 20 19  1  0  0  0  0
 20 22  2  0  0  0  0
 21 20  1  0  0  0  0
 22 24  1  0  0  0  0
 23 22  1  0  0  0  0
 24 25  2  0  0  0  0
M  END
>  <minimizedAffinity>
-4.7493763

$$$$

 OpenBabel03272500453D

 25 27  0  0  0  0  0  0  0  0999 V2000
   36.4210   29.7110   31.7830 C   0  0  0  0  0  0  0  0  0  0  0  0
   36.5700   28.4690   32.4070 C   0  0  0  0  0  0  0  0  0  0  0  0
   36.0400   28.5780   33.6980 C   0  0  0  0  0  0  0  0  0  0  0  0
   35.5950   29.8450   33.8260 N   0  0  0  0  0  0  0  0  0  0  0  0
   35.8360   30.4710   32.6880 N   0  0  0  0  0  0  0  0  0  0  0  0
   37.0020   27.5420   32.0390 H   0  0  0  0  0  0  0  0  0  0  0  0
   35.9620   27.8520   34.4940 H   0  0  0  0  0  0  0  0  0  0  0  0
   36.7820   31.2280   29.8360 C   0  0  0  0  0  0  0  0  0  0  0  0
   36.8520   29.9780   30.4450 C   0  0  0  0  0  0  0  0  0  0  0  0
   37.3820   28.9240   29.6770 C   0  0  0  0  0  0  0  0  0  0  0  0
   37.7890   29.1860   28.4030 N   0  0  0  0  0  0  0  0  0  0  0  0
   37.6950   30.4350   27.8650 C   0  0  0  0  0  0  0  0  0  0  0  0
   37.1900   31.4600   28.5870 N   0  0  0  0  0  0  0  0  0  0  0  0
   36.3730   32.0470   30.4280 H   0  0  0  0  0  0  0  0  0  0  0  0
   37.4580   27.9320   30.1000 H   0  0  0  0  0  0  0  0  0  0  0  0
   38.0700   30.4230   26.8550 H   0  0  0  0  0  0  0  0  0  0  0  0
   32.8790   29.5510   34.3280 F   0  0  0  0  0  0  0  0  0  0  0  0
   33.6170   30.3770   35.1340 C   0  0  0  0  0  0  0  0  0  0  0  0
   34.9660   30.5340   34.9000 C   0  0  0  0  0  0  0  0  0  0  0  0
   35.6740   31.3740   35.7330 C   0  0  0  0  0  0  0  0  0  0  0  0
   36.7420   31.5360   35.5950 H   0  0  0  0  0  0  0  0  0  0  0  0
   35.0610   32.0540   36.7900 C   0  0  0  0  0  0  0  0  0  0  0  0
   35.6090   32.7230   37.4600 H   0  0  0  0  0  0  0  0  0  0  0  0
   33.6900   31.8650   36.9910 C   0  0  0  0  0  3  0  0  0  0  0  0
   32.9500   31.0180   36.1590 C   0  0  0  0  0  3  0  0  0  0  0  0
  1  2  1  0  0  0  0
  1  5  2  0  0  0  0
  2  3  2  0  0  0  0
  3  4  1  0  0  0  0
  3  7  1  0  0  0  0
  4 19  1  0  0  0  0
  5  4  1  0  0  0  0
  6  2  1  0  0  0  0
  8 14  1  0  0  0  0
  8  9  1  0  0  0  0
  9  1  1  0  0  0  0
 10 15  1  0  0  0  0
 10  9  2  0  0  0  0
 11 10  1  0  0  0  0
 12 11  2  0  0  0  0
 12 13  1  0  0  0  0
 13  8  2  0  0  0  0
 16 12  1  0  0  0  0
 17 18  1  0  0  0  0
 18 25  1  0  0  0  0
 19 18  2  0  0  0  0
 19 20  1  0  0  0  0
 20 22  2  0  0  0  0
 21 20  1  0  0  0  0
 22 24  1  0  0  0  0
 22 23  1  0  0  0  0
 25 24  2  0  0  0  0
M  END
>  <minimizedAffinity>
-4.73103809

$$$$

 OpenBabel03272500453D

 25 27  0  0  0  0  0  0  0  0999 V2000
   38.2890   25.2830   33.5900 C   0  0  0  0  0  0  0  0  0  0  0  0
   38.9450   26.4140   34.0850 C   0  0  0  0  0  0  0  0  0  0  0  0
   39.9410   25.9720   34.9640 C   0  0  0  0  0  0  0  0  0  0  0  0
   39.8700   24.6250   34.9830 N   0  0  0  0  0  0  0  0  0  0  0  0
   38.8940   24.2650   34.1690 N   0  0  0  0  0  0  0  0  0  0  0  0
   38.7830   27.4690   33.8840 H   0  0  0  0  0  0  0  0  0  0  0  0
   40.6630   26.5230   35.5500 H   0  0  0  0  0  0  0  0  0  0  0  0
   36.5910   26.5300   32.2520 C   0  0  0  0  0  0  0  0  0  0  0  0
   37.2050   25.3470   32.6580 C   0  0  0  0  0  0  0  0  0  0  0  0
   36.7100   24.1510   32.1050 C   0  0  0  0  0  0  0  0  0  0  0  0
   35.6770   24.2210   31.2180 N   0  0  0  0  0  0  0  0  0  0  0  0
   35.1200   25.4130   30.8620 C   0  0  0  0  0  0  0  0  0  0  0  0
   35.5810   26.5710   31.3820 N   0  0  0  0  0  0  0  0  0  0  0  0
   36.9720   27.4580   32.6790 H   0  0  0  0  0  0  0  0  0  0  0  0
   37.1490   23.2040   32.3850 H   0  0  0  0  0  0  0  0  0  0  0  0
   34.3240   25.2430   30.1550 H   0  0  0  0  0  0  0  0  0  0  0  0
   38.8050   23.3080   37.1840 F   0  0  0  0  0  0  0  0  0  0  0  0
   40.0730   22.9940   36.7720 C   0  0  0  0  0  0  0  0  0  0  0  0
   40.6180   23.6360   35.6820 C   0  0  0  0  0  0  0  0  0  0  0  0
   41.8960   23.2930   35.2980 C   0  0  0  0  0  0  0  0  0  0  0  0
   42.3760   23.7680   34.4440 H   0  0  0  0  0  0  0  0  0  0  0  0
   42.6350   22.3210   35.9820 C   0  0  0  0  0  0  0  0  0  0  0  0
   43.6500   22.0370   35.6900 H   0  0  0  0  0  0  0  0  0  0  0  0
   42.0430   21.6940   37.0830 C   0  0  0  0  0  3  0  0  0  0  0  0
   40.7480   22.0270   37.4910 C   0  0  0  0  0  3  0  0  0  0  0  0
  1  2  1  0  0  0  0
  1  5  2  0  0  0  0
  2  3  2  0  0  0  0
  3  4  1  0  0  0  0
  3  7  1  0  0  0  0
  4 19  1  0  0  0  0
  5  4  1  0  0  0  0
  6  2  1  0  0  0  0
  8  9  1  0  0  0  0
  8 14  1  0  0  0  0
  9  1  1  0  0  0  0
 10 15  1  0  0  0  0
 10  9  2  0  0  0  0
 11 10  1  0  0  0  0
 12 11  2  0  0  0  0
 12 13  1  0  0  0  0
 13  8  2  0  0  0  0
 16 12  1  0  0  0  0
 18 17  1  0  0  0  0
 18 25  1  0  0  0  0
 19 18  2  0  0  0  0
 20 19  1  0  0  0  0
 20 22  2  0  0  0  0
 21 20  1  0  0  0  0
 22 24  1  0  0  0  0
 23 22  1  0  0  0  0
 24 25  2  0  0  0  0
M  END
>  <minimizedAffinity>
-4.69811249

$$$$

 OpenBabel03272500453D

 25 27  0  0  0  0  0  0  0  0999 V2000
   38.7050   25.6240   35.3090 C   0  0  0  0  0  0  0  0  0  0  0  0
   38.3250   26.6950   36.1230 C   0  0  0  0  0  0  0  0  0  0  0  0
   37.7890   27.6870   35.2940 C   0  0  0  0  0  0  0  0  0  0  0  0
   37.8540   27.2110   34.0330 N   0  0  0  0  0  0  0  0  0  0  0  0
   38.3930   26.0070   34.0870 N   0  0  0  0  0  0  0  0  0  0  0  0
   38.3940   26.8220   37.2010 H   0  0  0  0  0  0  0  0  0  0  0  0
   37.3850   28.6610   35.5270 H   0  0  0  0  0  0  0  0  0  0  0  0
   40.3310   23.7360   35.1820 C   0  0  0  0  0  0  0  0  0  0  0  0
   39.2960   24.4220   35.8130 C   0  0  0  0  0  0  0  0  0  0  0  0
   38.8170   23.8810   37.0210 C   0  0  0  0  0  0  0  0  0  0  0  0
   39.3850   22.7360   37.4930 N   0  0  0  0  0  0  0  0  0  0  0  0
   40.3970   22.1120   36.8260 C   0  0  0  0  0  0  0  0  0  0  0  0
   40.8720   22.6160   35.6660 N   0  0  0  0  0  0  0  0  0  0  0  0
   40.7050   24.1520   34.2470 H   0  0  0  0  0  0  0  0  0  0  0  0
   38.0150   24.3720   37.5520 H   0  0  0  0  0  0  0  0  0  0  0  0
   40.6990   21.2310   37.3690 H   0  0  0  0  0  0  0  0  0  0  0  0
   35.4640   28.6010   33.7580 F   0  0  0  0  0  0  0  0  0  0  0  0
   36.2740   28.4490   32.6630 C   0  0  0  0  0  0  0  0  0  0  0  0
   37.4630   27.7630   32.7810 C   0  0  0  0  0  0  0  0  0  0  0  0
   38.2500   27.6320   31.6570 C   0  0  0  0  0  0  0  0  0  0  0  0
   39.1990   27.1000   31.6920 H   0  0  0  0  0  0  0  0  0  0  0  0
   37.8710   28.1730   30.4240 C   0  0  0  0  0  0  0  0  0  0  0  0
   38.4840   28.0780   29.5230 H   0  0  0  0  0  0  0  0  0  0  0  0
   36.6560   28.8610   30.3500 C   0  0  0  0  0  3  0  0  0  0  0  0
   35.8400   29.0070   31.4760 C   0  0  0  0  0  3  0  0  0  0  0  0
  1  9  1  0  0  0  0
  1  2  1  0  0  0  0
  2  6  1  0  0  0  0
  3  7  1  0  0  0  0
  3  2  2  0  0  0  0
  4  5  1  0  0  0  0
  4  3  1  0  0  0  0
  5  1  2  0  0  0  0
  8 13  2  0  0  0  0
  8  9  1  0  0  0  0
  9 10  2  0  0  0  0
 10 11  1  0  0  0  0
 10 15  1  0  0  0  0
 12 16  1  0  0  0  0
 12 11  2  0  0  0  0
 13 12  1  0  0  0  0
 14  8  1  0  0  0  0
 18 19  1  0  0  0  0
 18 17  1  0  0  0  0
 19  4  1  0  0  0  0
 20 21  1  0  0  0  0
 20 19  2  0  0  0  0
 22 20  1  0  0  0  0
 23 22  1  0  0  0  0
 24 22  2  0  0  0  0
 24 25  1  0  0  0  0
 25 18  2  0  0  0  0
M  END
>  <minimizedAffinity>
-4.6395936

$$$$
