
     RDKit          3D

 47 51  0  0  0  0  0  0  0  0999 V2000
   39.0750   23.0750   37.9730 C   0  0  0  0  0  0  0  0  0  0  0  0
   38.3280   23.2240   36.8030 C   0  0  0  0  0  0  0  0  0  0  0  0
   38.9660   22.9200   35.5990 C   0  0  0  0  0  0  0  0  0  0  0  0
   40.2330   22.5160   35.6900 N   0  0  0  0  0  0  0  0  0  0  0  0
   40.9620   22.3690   36.8020 C   0  0  0  0  0  0  0  0  0  0  0  0
   40.3380   22.6640   37.9530 N   0  0  0  0  0  0  0  0  0  0  0  0
   42.3120   21.9100   36.5390 C   0  0  0  0  0  0  0  0  0  0  0  0
   42.6050   20.5750   36.3870 C   0  0  0  0  0  0  0  0  0  0  0  0
   43.8680   20.0840   36.1370 C   0  0  0  0  0  0  0  0  0  0  0  0
   44.9370   20.9490   36.0230 C   0  0  0  0  0  0  0  0  0  0  0  0
   44.6900   22.2830   36.1680 C   0  0  0  0  0  0  0  0  0  0  0  0
   45.7630   23.1570   36.0550 C   0  0  0  0  0  0  0  0  0  0  0  0
   45.6100   24.5030   36.1840 C   0  0  0  0  0  0  0  0  0  0  0  0
   44.3160   24.9670   36.4370 C   0  0  0  0  0  0  0  0  0  0  0  0
   43.2720   24.0660   36.5430 C   0  0  0  0  0  0  0  0  0  0  0  0
   43.4140   22.7280   36.4160 C   0  0  0  0  0  0  0  0  0  0  0  0
   38.2950   23.0380   34.3440 N   0  0  0  0  0  0  0  0  0  0  0  0
   37.3340   22.2080   33.9860 C   0  0  0  0  0  0  0  0  0  0  0  0
   36.9300   22.6130   32.7500 C   0  0  0  0  0  0  0  0  0  0  0  0
   37.6480   23.6780   32.3770 N   0  0  0  0  0  0  0  0  0  0  0  0
   38.5110   23.9470   33.3850 C   0  0  0  0  0  0  0  0  0  0  0  0
   39.4610   25.0070   33.3950 N   0  0  0  0  0  0  0  0  0  0  0  0
   39.9800   25.5800   34.5200 C   0  0  0  0  0  0  0  0  0  0  0  0
   40.9080   26.6160   34.3740 C   0  0  0  0  0  0  0  0  0  0  0  0
   41.2880   27.0480   33.1190 C   0  0  0  0  0  0  0  0  0  0  0  0
   42.2340   28.1030   33.0020 N   0  0  0  0  0  0  0  0  0  0  0  0
   40.7400   26.4420   32.0300 N   0  0  0  0  0  0  0  0  0  0  0  0
   39.8420   25.4390   32.1670 C   0  0  0  0  0  0  0  0  0  0  0  0
   39.3900   24.9410   31.0930 O   0  0  0  0  0  0  0  0  0  0  0  0
   35.8710   22.0320   31.8730 C   0  0  0  0  0  0  0  0  0  0  0  0
   34.8090   21.5100   32.5910 F   0  0  0  0  0  0  0  0  0  0  0  0
   36.3820   20.9940   31.0980 F   0  0  0  0  0  0  0  0  0  0  0  0
   35.4460   22.9910   30.9380 F   0  0  0  0  0  0  0  0  0  0  0  0
   38.6037   23.3047   38.9400 H   0  0  0  0  0  0  0  0  0  0  0  0
   37.2828   23.5659   36.8287 H   0  0  0  0  0  0  0  0  0  0  0  0
   41.7789   19.8535   36.4703 H   0  0  0  0  0  0  0  0  0  0  0  0
   44.0243   19.0006   36.0281 H   0  0  0  0  0  0  0  0  0  0  0  0
   45.9523   20.5763   35.8223 H   0  0  0  0  0  0  0  0  0  0  0  0
   46.7652   22.7498   35.8555 H   0  0  0  0  0  0  0  0  0  0  0  0
   46.4627   25.1920   36.0936 H   0  0  0  0  0  0  0  0  0  0  0  0
   44.1286   26.0449   36.5514 H   0  0  0  0  0  0  0  0  0  0  0  0
   42.2655   24.4623   36.7427 H   0  0  0  0  0  0  0  0  0  0  0  0
   36.9395   21.3615   34.5672 H   0  0  0  0  0  0  0  0  0  0  0  0
   39.6752   25.2347   35.5189 H   0  0  0  0  0  0  0  0  0  0  0  0
   41.3392   27.0911   35.2675 H   0  0  0  0  0  0  0  0  0  0  0  0
   42.5246   28.4332   32.0707 H   0  0  0  0  0  0  0  0  0  0  0  0
   42.6287   28.5371   33.8486 H   0  0  0  0  0  0  0  0  0  0  0  0
  2  1  2  0
  3  4  2  0
  3  2  1  0
  4  5  1  0
  5  6  2  0
  6  1  1  0
  7  5  1  0
  8  7  2  0
  9  8  1  0
 10  9  2  0
 10 11  1  0
 11 16  2  0
 12 11  1  0
 12 13  2  0
 13 14  1  0
 14 15  2  0
 16  7  1  0
 16 15  1  0
 17  3  1  0
 18 17  1  0
 19 18  2  0
 20 19  1  0
 20 21  2  0
 21 22  1  0
 21 17  1  0
 22 23  1  0
 24 23  2  0
 25 24  1  0
 26 25  1  0
 27 28  1  0
 27 25  2  0
 28 22  1  0
 29 28  2  0
 30 31  1  0
 30 19  1  0
 32 30  1  0
 33 30  1  0
  1 34  1  0
  2 35  1  0
  8 36  1  0
  9 37  1  0
 10 38  1  0
 12 39  1  0
 13 40  1  0
 14 41  1  0
 15 42  1  0
 18 43  1  0
 23 44  1  0
 24 45  1  0
 26 46  1  0
 26 47  1  0
M  END
>  <Score>  (1) 
-7.38098

$$$$
