
     RDKit          3D

 49 54  0  0  0  0  0  0  0  0999 V2000
   39.0290   23.5310   36.1110 C   0  0  0  0  0  0  0  0  0  0  0  0
   40.4390   23.6820   35.9940 C   0  0  0  0  0  0  0  0  0  0  0  0
   40.8940   24.7490   35.2620 C   0  0  0  0  0  0  0  0  0  0  0  0
   39.9510   25.5440   34.7310 N   0  0  0  0  0  0  0  0  0  0  0  0
   38.6610   25.4270   34.8230 C   0  0  0  0  0  0  0  0  0  0  0  0
   38.1940   24.3890   35.5350 N   0  0  0  0  0  0  0  0  0  0  0  0
   37.9040   26.4080   34.1680 N   0  0  0  0  0  0  0  0  0  0  0  0
   37.1710   27.2690   34.9240 C   0  0  0  0  0  0  0  0  0  0  0  0
   36.5090   28.1430   34.0890 C   0  0  0  0  0  0  0  0  0  0  0  0
   36.8450   27.8070   32.8430 N   0  0  0  0  0  0  0  0  0  0  0  0
   37.7130   26.7260   32.8860 C   0  0  0  0  0  0  0  0  0  0  0  0
   38.2490   26.0920   31.7300 C   0  0  0  0  0  0  0  0  0  0  0  0
   38.7050   26.8220   30.6150 C   0  0  0  0  0  0  0  0  0  0  0  0
   39.1360   25.9490   29.6510 N   0  0  0  0  0  0  0  0  0  0  0  0
   38.9450   24.6660   30.1770 C   0  0  0  0  0  0  0  0  0  0  0  0
   38.4310   24.8390   31.3870 N   0  0  0  0  0  0  0  0  0  0  0  0
   38.3420   23.5310   31.8730 C   0  0  0  0  0  0  0  0  0  0  0  0
   39.4850   23.1270   32.4370 N   0  0  0  0  0  0  0  0  0  0  0  0
   39.5860   21.8550   32.9080 C   0  0  0  0  0  0  0  0  0  0  0  0
   38.6030   20.9600   32.8470 N   0  0  0  0  0  0  0  0  0  0  0  0
   37.4290   21.3270   32.2870 C   0  0  0  0  0  0  0  0  0  0  0  0
   36.3400   20.5100   32.1560 C   0  0  0  0  0  0  0  0  0  0  0  0
   35.1840   20.9330   31.5780 C   0  0  0  0  0  0  0  0  0  0  0  0
   35.0980   22.2380   31.1000 C   0  0  0  0  0  0  0  0  0  0  0  0
   36.1580   23.1050   31.2030 C   0  0  0  0  0  0  0  0  0  0  0  0
   37.2960   22.6290   31.7940 C   0  0  0  0  0  0  0  0  0  0  0  0
   35.5970   29.2520   34.4450 C   0  0  0  0  0  0  0  0  0  0  0  0
   36.1300   30.2570   35.2610 C   0  0  0  0  0  0  0  0  0  0  0  0
   35.2400   31.2590   35.5590 C   0  0  0  0  0  0  0  0  0  0  0  0
   33.9540   31.2710   35.1020 C   0  0  0  0  0  0  0  0  0  0  0  0
   33.4890   30.2640   34.3090 C   0  0  0  0  0  0  0  0  0  0  0  0
   34.3330   29.2670   33.9970 N   0  0  0  0  0  0  0  0  0  0  0  0
   38.5110   22.4300   36.8870 N   0  0  0  0  0  0  0  0  0  0  0  0
   41.1337   22.9741   36.4697 H   0  0  0  0  0  0  0  0  0  0  0  0
   41.9674   24.9420   35.1185 H   0  0  0  0  0  0  0  0  0  0  0  0
   37.1156   27.2679   36.0226 H   0  0  0  0  0  0  0  0  0  0  0  0
   38.7137   27.9188   30.5315 H   0  0  0  0  0  0  0  0  0  0  0  0
   39.1746   23.7087   29.6863 H   0  0  0  0  0  0  0  0  0  0  0  0
   40.5373   21.5476   33.3669 H   0  0  0  0  0  0  0  0  0  0  0  0
   36.4012   19.4774   32.5302 H   0  0  0  0  0  0  0  0  0  0  0  0
   34.3255   20.2511   31.4890 H   0  0  0  0  0  0  0  0  0  0  0  0
   34.1638   22.5808   30.6312 H   0  0  0  0  0  0  0  0  0  0  0  0
   36.0947   24.1367   30.8268 H   0  0  0  0  0  0  0  0  0  0  0  0
   37.1664   30.2449   35.6294 H   0  0  0  0  0  0  0  0  0  0  0  0
   35.5788   32.0900   36.1951 H   0  0  0  0  0  0  0  0  0  0  0  0
   33.2863   32.1011   35.3761 H   0  0  0  0  0  0  0  0  0  0  0  0
   32.4541   30.2681   33.9362 H   0  0  0  0  0  0  0  0  0  0  0  0
   37.4936   22.3024   36.9845 H   0  0  0  0  0  0  0  0  0  0  0  0
   39.1587   21.7718   37.3433 H   0  0  0  0  0  0  0  0  0  0  0  0
  1 33  1  0
  2  1  2  0
  3  2  1  0
  4  5  1  0
  4  3  2  0
  5  6  2  0
  6  1  1  0
  7  5  1  0
  7  8  1  0
  9 27  1  0
  9  8  2  0
 10 11  2  0
 10  9  1  0
 11  7  1  0
 12 11  1  0
 13 12  2  0
 14 15  2  0
 14 13  1  0
 15 16  1  0
 16 12  1  0
 16 17  1  0
 17 18  2  0
 18 19  1  0
 20 19  2  0
 21 20  1  0
 22 21  2  0
 23 22  1  0
 24 25  1  0
 24 23  2  0
 25 26  2  0
 26 17  1  0
 26 21  1  0
 27 28  2  0
 28 29  1  0
 30 29  2  0
 31 30  1  0
 32 31  2  0
 32 27  1  0
  2 34  1  0
  3 35  1  0
  8 36  1  0
 13 37  1  0
 15 38  1  0
 19 39  1  0
 22 40  1  0
 23 41  1  0
 24 42  1  0
 25 43  1  0
 28 44  1  0
 29 45  1  0
 30 46  1  0
 31 47  1  0
 33 48  1  0
 33 49  1  0
M  END
>  <Score>  (1) 
-7.00118

$$$$
