
     RDKit          3D

 49 53  0  0  0  0  0  0  0  0999 V2000
   38.9720   23.0350   37.9790 C   0  0  0  0  0  0  0  0  0  0  0  0
   38.2080   23.1220   36.7980 C   0  0  0  0  0  0  0  0  0  0  0  0
   38.8520   22.7780   35.6070 C   0  0  0  0  0  0  0  0  0  0  0  0
   40.1220   22.4050   35.7190 N   0  0  0  0  0  0  0  0  0  0  0  0
   40.8640   22.3170   36.8280 C   0  0  0  0  0  0  0  0  0  0  0  0
   40.2360   22.6490   37.9630 N   0  0  0  0  0  0  0  0  0  0  0  0
   42.2220   21.8720   36.5740 C   0  0  0  0  0  0  0  0  0  0  0  0
   42.5280   20.5400   36.4660 C   0  0  0  0  0  0  0  0  0  0  0  0
   43.8050   20.0630   36.2230 C   0  0  0  0  0  0  0  0  0  0  0  0
   44.8610   20.9420   36.0750 C   0  0  0  0  0  0  0  0  0  0  0  0
   44.5950   22.2690   36.1760 C   0  0  0  0  0  0  0  0  0  0  0  0
   45.6490   23.1460   36.0290 C   0  0  0  0  0  0  0  0  0  0  0  0
   45.4700   24.4970   36.1150 C   0  0  0  0  0  0  0  0  0  0  0  0
   44.1730   24.9450   36.3580 C   0  0  0  0  0  0  0  0  0  0  0  0
   43.1430   24.0410   36.5010 C   0  0  0  0  0  0  0  0  0  0  0  0
   43.3090   22.6960   36.4170 C   0  0  0  0  0  0  0  0  0  0  0  0
   38.1710   22.8300   34.3500 N   0  0  0  0  0  0  0  0  0  0  0  0
   37.2610   21.9260   34.0140 C   0  0  0  0  0  0  0  0  0  0  0  0
   36.8300   22.2890   32.7650 C   0  0  0  0  0  0  0  0  0  0  0  0
   37.4810   23.3910   32.3760 N   0  0  0  0  0  0  0  0  0  0  0  0
   38.3290   23.7390   33.3730 C   0  0  0  0  0  0  0  0  0  0  0  0
   39.2120   24.8560   33.3690 N   0  0  0  0  0  0  0  0  0  0  0  0
   39.5880   25.2230   32.1140 C   0  0  0  0  0  0  0  0  0  0  0  0
   40.4570   26.3140   32.0110 C   0  0  0  0  0  0  0  0  0  0  0  0
   40.9650   26.8430   30.6980 C   0  0  0  0  0  0  0  0  0  0  0  0
   40.8620   26.9290   33.1690 C   0  0  0  0  0  0  0  0  0  0  0  0
   41.6560   27.9250   33.0700 O   0  0  0  0  0  0  0  0  0  0  0  0
   40.4790   26.5510   34.4020 N   0  0  0  0  0  0  0  0  0  0  0  0
   39.6560   25.5120   34.4440 C   0  0  0  0  0  0  0  0  0  0  0  0
   39.2450   25.0910   35.5780 O   0  0  0  0  0  0  0  0  0  0  0  0
   35.8120   21.6270   31.9060 C   0  0  0  0  0  0  0  0  0  0  0  0
   36.3170   20.5340   31.2290 F   0  0  0  0  0  0  0  0  0  0  0  0
   35.3640   22.5210   30.9140 F   0  0  0  0  0  0  0  0  0  0  0  0
   34.6810   21.3090   32.6390 F   0  0  0  0  0  0  0  0  0  0  0  0
   38.5039   23.2953   38.9398 H   0  0  0  0  0  0  0  0  0  0  0  0
   37.1565   23.4448   36.8132 H   0  0  0  0  0  0  0  0  0  0  0  0
   41.7135   19.8093   36.5787 H   0  0  0  0  0  0  0  0  0  0  0  0
   43.9797   18.9796   36.1474 H   0  0  0  0  0  0  0  0  0  0  0  0
   45.8813   20.5789   35.8821 H   0  0  0  0  0  0  0  0  0  0  0  0
   46.6567   22.7483   35.8382 H   0  0  0  0  0  0  0  0  0  0  0  0
   46.3095   25.1982   35.9981 H   0  0  0  0  0  0  0  0  0  0  0  0
   43.9709   26.0235   36.4359 H   0  0  0  0  0  0  0  0  0  0  0  0
   42.1321   24.4297   36.6935 H   0  0  0  0  0  0  0  0  0  0  0  0
   36.9234   21.0664   34.6116 H   0  0  0  0  0  0  0  0  0  0  0  0
   39.2262   24.6877   31.2237 H   0  0  0  0  0  0  0  0  0  0  0  0
   41.7160   27.6250   30.8836 H   0  0  0  0  0  0  0  0  0  0  0  0
   41.4231   26.0233   30.1250 H   0  0  0  0  0  0  0  0  0  0  0  0
   40.1275   27.2675   30.1250 H   0  0  0  0  0  0  0  0  0  0  0  0
   40.8019   27.0340   35.2525 H   0  0  0  0  0  0  0  0  0  0  0  0
  2  1  2  0
  3  4  2  0
  3  2  1  0
  4  5  1  0
  5  6  2  0
  6  1  1  0
  7  5  1  0
  8  7  2  0
  9  8  1  0
 10 11  1  0
 10  9  2  0
 11 16  2  0
 12 13  2  0
 12 11  1  0
 13 14  1  0
 14 15  2  0
 16 15  1  0
 16  7  1  0
 17  3  1  0
 18 17  1  0
 19 18  2  0
 20 19  1  0
 20 21  2  0
 21 17  1  0
 22 21  1  0
 22 29  1  0
 23 22  1  0
 24 23  2  0
 24 26  1  0
 25 24  1  0
 26 28  1  0
 27 26  2  0
 28 29  1  0
 29 30  2  0
 31 34  1  0
 31 19  1  0
 32 31  1  0
 33 31  1  0
  1 35  1  0
  2 36  1  0
  8 37  1  0
  9 38  1  0
 10 39  1  0
 12 40  1  0
 13 41  1  0
 14 42  1  0
 15 43  1  0
 18 44  1  0
 23 45  1  0
 25 46  1  0
 25 47  1  0
 25 48  1  0
 28 49  1  0
M  END
>  <Score>  (1) 
-7.37004

$$$$
