
     RDKit          3D

 47 52  0  0  0  0  0  0  0  0999 V2000
   38.1070   24.1970   31.3800 C   0  0  0  0  0  0  0  0  0  0  0  0
   37.4470   25.4190   31.3270 C   0  0  0  0  0  0  0  0  0  0  0  0
   37.5950   26.2100   32.4580 C   0  0  0  0  0  0  0  0  0  0  0  0
   38.3290   25.7500   33.4600 N   0  0  0  0  0  0  0  0  0  0  0  0
   38.9580   24.5950   33.5220 C   0  0  0  0  0  0  0  0  0  0  0  0
   38.8150   23.8590   32.4590 N   0  0  0  0  0  0  0  0  0  0  0  0
   36.9810   27.4880   32.5580 N   0  0  0  0  0  0  0  0  0  0  0  0
   37.1070   28.5130   31.7060 C   0  0  0  0  0  0  0  0  0  0  0  0
   36.4000   29.5510   32.1020 N   0  0  0  0  0  0  0  0  0  0  0  0
   35.7970   29.2020   33.2380 C   0  0  0  0  0  0  0  0  0  0  0  0
   36.1720   27.9290   33.4950 N   0  0  0  0  0  0  0  0  0  0  0  0
   39.7830   23.9830   34.5490 C   0  0  0  0  0  0  0  0  0  0  0  0
   41.0730   23.5670   34.2850 C   0  0  0  0  0  0  0  0  0  0  0  0
   41.8980   22.9800   35.2240 C   0  0  0  0  0  0  0  0  0  0  0  0
   41.4460   22.7750   36.5230 C   0  0  0  0  0  0  0  0  0  0  0  0
   40.1860   23.1720   36.8160 C   0  0  0  0  0  0  0  0  0  0  0  0
   39.7230   22.9740   38.1040 C   0  0  0  0  0  0  0  0  0  0  0  0
   38.4630   23.3410   38.5000 C   0  0  0  0  0  0  0  0  0  0  0  0
   37.6450   23.9300   37.5410 C   0  0  0  0  0  0  0  0  0  0  0  0
   38.1330   24.1130   36.2700 C   0  0  0  0  0  0  0  0  0  0  0  0
   39.3810   23.7540   35.8670 C   0  0  0  0  0  0  0  0  0  0  0  0
   34.8910   29.8800   34.1680 C   0  0  0  0  0  0  0  0  0  0  0  0
   33.7500   29.5680   34.7850 N   0  0  0  0  0  0  0  0  0  0  0  0
   33.3380   30.5470   35.5260 O   0  0  0  0  0  0  0  0  0  0  0  0
   34.2190   31.5420   35.4070 C   0  0  0  0  0  0  0  0  0  0  0  0
   35.1880   31.1380   34.5650 N   0  0  0  0  0  0  0  0  0  0  0  0
   34.0760   32.7850   36.0930 N   0  0  0  0  0  0  0  0  0  0  0  0
   34.3470   33.0300   37.3860 C   0  0  0  0  0  0  0  0  0  0  0  0
   34.1430   34.3210   37.8820 C   0  0  0  0  0  0  0  0  0  0  0  0
   33.6650   35.3050   37.0150 C   0  0  0  0  0  0  0  0  0  0  0  0
   33.4860   36.4460   37.4600 O   0  0  0  0  0  0  0  0  0  0  0  0
   33.4020   35.0300   35.7230 N   0  0  0  0  0  0  0  0  0  0  0  0
   33.6110   33.7700   35.2800 C   0  0  0  0  0  0  0  0  0  0  0  0
   33.3340   33.6180   34.0520 O   0  0  0  0  0  0  0  0  0  0  0  0
   38.0452   23.5046   30.5275 H   0  0  0  0  0  0  0  0  0  0  0  0
   36.8534   25.7348   30.4564 H   0  0  0  0  0  0  0  0  0  0  0  0
   37.7213   28.4910   30.7938 H   0  0  0  0  0  0  0  0  0  0  0  0
   41.4662   23.7116   33.2679 H   0  0  0  0  0  0  0  0  0  0  0  0
   42.9165   22.6734   34.9434 H   0  0  0  0  0  0  0  0  0  0  0  0
   42.0886   22.3077   37.2838 H   0  0  0  0  0  0  0  0  0  0  0  0
   40.3921   22.5036   38.8396 H   0  0  0  0  0  0  0  0  0  0  0  0
   38.1141   23.1771   39.5303 H   0  0  0  0  0  0  0  0  0  0  0  0
   36.6224   24.2445   37.7968 H   0  0  0  0  0  0  0  0  0  0  0  0
   37.4694   24.5815   35.5283 H   0  0  0  0  0  0  0  0  0  0  0  0
   34.7221   32.2303   38.0415 H   0  0  0  0  0  0  0  0  0  0  0  0
   34.3551   34.5569   38.9353 H   0  0  0  0  0  0  0  0  0  0  0  0
   33.0505   35.7613   35.0885 H   0  0  0  0  0  0  0  0  0  0  0  0
  1  6  2  0
  2  1  1  0
  2  3  2  0
  3  7  1  0
  3  4  1  0
  4  5  2  0
  5 12  1  0
  6  5  1  0
  7 11  1  0
  8  9  2  0
  8  7  1  0
  9 10  1  0
 10 11  2  0
 10 22  1  0
 12 21  1  0
 13 12  2  0
 13 14  1  0
 14 15  2  0
 15 16  1  0
 16 17  2  0
 17 18  1  0
 19 18  2  0
 20 19  1  0
 21 20  2  0
 21 16  1  0
 22 26  1  0
 22 23  2  0
 23 24  1  0
 25 24  1  0
 25 27  1  0
 26 25  2  0
 27 28  1  0
 28 29  2  0
 30 31  2  0
 30 29  1  0
 32 30  1  0
 33 32  1  0
 33 27  1  0
 34 33  2  0
  1 35  1  0
  2 36  1  0
  8 37  1  0
 13 38  1  0
 14 39  1  0
 15 40  1  0
 17 41  1  0
 18 42  1  0
 19 43  1  0
 20 44  1  0
 28 45  1  0
 29 46  1  0
 32 47  1  0
M  END
>  <Score>  (1) 
-7.29963

$$$$
