
     RDKit          3D

 43 47  0  0  0  0  0  0  0  0999 V2000
   41.6350   21.5890   36.0470 C   0  0  0  0  0  0  0  0  0  0  0  0
   41.4160   21.7260   37.4310 C   0  0  0  0  0  0  0  0  0  0  0  0
   40.2770   22.4320   37.8180 C   0  0  0  0  0  0  0  0  0  0  0  0
   39.4400   22.9470   36.8800 N   0  0  0  0  0  0  0  0  0  0  0  0
   39.6940   22.7880   35.5550 C   0  0  0  0  0  0  0  0  0  0  0  0
   40.7800   22.1150   35.1460 N   0  0  0  0  0  0  0  0  0  0  0  0
   38.8440   23.3100   34.5380 N   0  0  0  0  0  0  0  0  0  0  0  0
   38.4200   22.5370   33.5170 C   0  0  0  0  0  0  0  0  0  0  0  0
   37.6340   23.3140   32.7230 N   0  0  0  0  0  0  0  0  0  0  0  0
   37.5560   24.5440   33.2140 C   0  0  0  0  0  0  0  0  0  0  0  0
   36.9500   25.7730   32.9140 C   0  0  0  0  0  0  0  0  0  0  0  0
   36.2520   25.7740   31.8650 O   0  0  0  0  0  0  0  0  0  0  0  0
   37.1320   26.8380   33.7150 N   0  0  0  0  0  0  0  0  0  0  0  0
   37.8790   26.7820   34.8080 C   0  0  0  0  0  0  0  0  0  0  0  0
   37.9520   28.0150   35.5280 N   0  0  0  0  0  0  0  0  0  0  0  0
   38.4800   25.6210   35.1370 N   0  0  0  0  0  0  0  0  0  0  0  0
   38.3230   24.5500   34.3690 C   0  0  0  0  0  0  0  0  0  0  0  0
   36.4830   28.1030   33.3670 C   0  0  0  0  0  0  0  0  0  0  0  0
   36.8320   28.8130   32.1990 C   0  0  0  0  0  0  0  0  0  0  0  0
   35.7320   30.2900   32.2610 S   0  0  0  0  0  0  0  0  0  0  0  0
   34.9700   29.6780   33.8940 C   0  0  0  0  0  0  0  0  0  0  0  0
   35.5390   28.7150   34.0550 N   0  0  0  0  0  0  0  0  0  0  0  0
   33.9310   30.2690   34.7330 N   0  0  0  0  0  0  0  0  0  0  0  0
   34.2710   31.2200   35.6210 C   0  0  0  0  0  0  0  0  0  0  0  0
   33.2380   31.7300   36.3780 C   0  0  0  0  0  0  0  0  0  0  0  0
   33.5320   32.7860   37.3810 C   0  0  0  0  0  0  0  0  0  0  0  0
   31.9700   31.2290   36.1610 C   0  0  0  0  0  0  0  0  0  0  0  0
   31.0370   31.7150   36.8700 O   0  0  0  0  0  0  0  0  0  0  0  0
   31.6560   30.2860   35.2760 N   0  0  0  0  0  0  0  0  0  0  0  0
   32.6830   29.7890   34.5340 C   0  0  0  0  0  0  0  0  0  0  0  0
   32.4510   28.8960   33.6820 O   0  0  0  0  0  0  0  0  0  0  0  0
   42.5213   21.0419   35.6933 H   0  0  0  0  0  0  0  0  0  0  0  0
   42.1087   21.2976   38.1703 H   0  0  0  0  0  0  0  0  0  0  0  0
   40.0557   22.5723   38.8863 H   0  0  0  0  0  0  0  0  0  0  0  0
   38.6640   21.4765   33.3562 H   0  0  0  0  0  0  0  0  0  0  0  0
   38.5087   28.0743   36.3926 H   0  0  0  0  0  0  0  0  0  0  0  0
   37.4479   28.8440   35.1821 H   0  0  0  0  0  0  0  0  0  0  0  0
   37.5794   28.5490   31.4363 H   0  0  0  0  0  0  0  0  0  0  0  0
   35.3079   31.5689   35.7360 H   0  0  0  0  0  0  0  0  0  0  0  0
   33.4168   32.3722   38.3936 H   0  0  0  0  0  0  0  0  0  0  0  0
   34.5637   33.1429   37.2460 H   0  0  0  0  0  0  0  0  0  0  0  0
   32.8332   33.6247   37.2460 H   0  0  0  0  0  0  0  0  0  0  0  0
   30.6891   29.9508   35.1590 H   0  0  0  0  0  0  0  0  0  0  0  0
  1  2  2  0
  2  3  1  0
  4  3  2  0
  5  4  1  0
  6  5  2  0
  6  1  1  0
  7  5  1  0
  8  7  1  0
  9 10  1  0
  9  8  2  0
 10 17  2  0
 11 10  1  0
 11 13  1  0
 12 11  2  0
 13 14  1  0
 14 16  2  0
 14 15  1  0
 17  7  1  0
 17 16  1  0
 18 13  1  0
 18 22  1  0
 19 20  1  0
 19 18  2  0
 20 21  1  0
 21 22  2  0
 21 23  1  0
 23 24  1  0
 24 25  2  0
 25 26  1  0
 27 25  1  0
 27 28  2  0
 29 27  1  0
 30 23  1  0
 30 29  1  0
 31 30  2  0
  1 32  1  0
  2 33  1  0
  3 34  1  0
  8 35  1  0
 15 36  1  0
 15 37  1  0
 19 38  1  0
 24 39  1  0
 26 40  1  0
 26 41  1  0
 26 42  1  0
 29 43  1  0
M  END
>  <Score>  (1) 
-7.33105

$$$$
