
     RDKit          3D

 54 60  0  0  0  0  0  0  0  0999 V2000
   38.9150   23.6930   36.1200 C   0  0  0  0  0  0  0  0  0  0  0  0
   40.3170   23.8940   36.0590 C   0  0  0  0  0  0  0  0  0  0  0  0
   40.7710   24.9300   35.2780 C   0  0  0  0  0  0  0  0  0  0  0  0
   39.8330   25.6470   34.6510 N   0  0  0  0  0  0  0  0  0  0  0  0
   38.5450   25.4800   34.6920 C   0  0  0  0  0  0  0  0  0  0  0  0
   38.0760   24.4730   35.4490 N   0  0  0  0  0  0  0  0  0  0  0  0
   37.7800   26.3880   33.9360 N   0  0  0  0  0  0  0  0  0  0  0  0
   36.9820   27.2700   34.5950 C   0  0  0  0  0  0  0  0  0  0  0  0
   36.3340   28.0650   33.6830 C   0  0  0  0  0  0  0  0  0  0  0  0
   36.7480   27.6540   32.4850 N   0  0  0  0  0  0  0  0  0  0  0  0
   37.6420   26.6160   32.6300 C   0  0  0  0  0  0  0  0  0  0  0  0
   38.2590   25.9280   31.5440 C   0  0  0  0  0  0  0  0  0  0  0  0
   38.7430   26.6030   30.4050 C   0  0  0  0  0  0  0  0  0  0  0  0
   39.2550   25.6870   29.5210 N   0  0  0  0  0  0  0  0  0  0  0  0
   39.0810   24.4370   30.1260 C   0  0  0  0  0  0  0  0  0  0  0  0
   38.5030   24.6630   31.2920 N   0  0  0  0  0  0  0  0  0  0  0  0
   38.4300   23.3890   31.8600 C   0  0  0  0  0  0  0  0  0  0  0  0
   39.5510   23.0590   32.5020 N   0  0  0  0  0  0  0  0  0  0  0  0
   39.6720   21.8270   33.0610 C   0  0  0  0  0  0  0  0  0  0  0  0
   38.7230   20.8960   33.0130 N   0  0  0  0  0  0  0  0  0  0  0  0
   37.5710   21.1820   32.3730 C   0  0  0  0  0  0  0  0  0  0  0  0
   36.5130   20.3210   32.2410 C   0  0  0  0  0  0  0  0  0  0  0  0
   35.3770   20.6640   31.5820 C   0  0  0  0  0  0  0  0  0  0  0  0
   35.2730   21.9320   31.0170 C   0  0  0  0  0  0  0  0  0  0  0  0
   36.2950   22.8420   31.1120 C   0  0  0  0  0  0  0  0  0  0  0  0
   37.4170   22.4460   31.7880 C   0  0  0  0  0  0  0  0  0  0  0  0
   35.3840   29.1530   33.7610 C   0  0  0  0  0  0  0  0  0  0  0  0
   34.2540   29.2610   32.9650 C   0  0  0  0  0  0  0  0  0  0  0  0
   33.5710   30.3800   33.2710 N   0  0  0  0  0  0  0  0  0  0  0  0
   34.1850   31.0570   34.2530 C   0  0  0  0  0  0  0  0  0  0  0  0
   33.9390   32.2260   34.9340 C   0  0  0  0  0  0  0  0  0  0  0  0
   34.7550   32.6940   35.9170 C   0  0  0  0  0  0  0  0  0  0  0  0
   35.8610   31.9190   36.1950 C   0  0  0  0  0  0  0  0  0  0  0  0
   36.1150   30.7560   35.5230 C   0  0  0  0  0  0  0  0  0  0  0  0
   35.2900   30.2830   34.5320 C   0  0  0  0  0  0  0  0  0  0  0  0
   38.4040   22.6230   36.9420 N   0  0  0  0  0  0  0  0  0  0  0  0
   41.0129   23.2475   36.6138 H   0  0  0  0  0  0  0  0  0  0  0  0
   41.8427   25.1557   35.1750 H   0  0  0  0  0  0  0  0  0  0  0  0
   36.8729   27.3360   35.6876 H   0  0  0  0  0  0  0  0  0  0  0  0
   38.7147   27.6916   30.2495 H   0  0  0  0  0  0  0  0  0  0  0  0
   39.3688   23.4593   29.7122 H   0  0  0  0  0  0  0  0  0  0  0  0
   40.6091   21.5851   33.5837 H   0  0  0  0  0  0  0  0  0  0  0  0
   36.5870   19.3171   32.6845 H   0  0  0  0  0  0  0  0  0  0  0  0
   34.5470   19.9473   31.4953 H   0  0  0  0  0  0  0  0  0  0  0  0
   34.3522   22.2100   30.4833 H   0  0  0  0  0  0  0  0  0  0  0  0
   36.2163   23.8441   30.6653 H   0  0  0  0  0  0  0  0  0  0  0  0
   33.9577   28.5355   32.1931 H   0  0  0  0  0  0  0  0  0  0  0  0
   32.6967   30.6758   32.8138 H   0  0  0  0  0  0  0  0  0  0  0  0
   33.0432   32.8083   34.6726 H   0  0  0  0  0  0  0  0  0  0  0  0
   34.5459   33.6303   36.4552 H   0  0  0  0  0  0  0  0  0  0  0  0
   36.5589   32.2459   36.9799 H   0  0  0  0  0  0  0  0  0  0  0  0
   37.0131   30.1777   35.7856 H   0  0  0  0  0  0  0  0  0  0  0  0
   37.3889   22.4588   37.0012 H   0  0  0  0  0  0  0  0  0  0  0  0
   39.0543   22.0234   37.4697 H   0  0  0  0  0  0  0  0  0  0  0  0
  1 36  1  0
  2  1  2  0
  3  2  1  0
  4  5  1  0
  4  3  2  0
  5  6  2  0
  6  1  1  0
  7  8  1  0
  7  5  1  0
  9 27  1  0
  9  8  2  0
 10 11  2  0
 10  9  1  0
 11  7  1  0
 12 11  1  0
 13 12  2  0
 14 15  2  0
 14 13  1  0
 15 16  1  0
 16 12  1  0
 16 17  1  0
 17 18  2  0
 18 19  1  0
 20 19  2  0
 21 20  1  0
 22 21  2  0
 23 22  1  0
 24 25  1  0
 24 23  2  0
 25 26  2  0
 26 17  1  0
 26 21  1  0
 27 35  1  0
 28 29  1  0
 28 27  2  0
 29 30  1  0
 30 35  2  0
 30 31  1  0
 31 32  2  0
 32 33  1  0
 34 33  2  0
 35 34  1  0
  2 37  1  0
  3 38  1  0
  8 39  1  0
 13 40  1  0
 15 41  1  0
 19 42  1  0
 22 43  1  0
 23 44  1  0
 24 45  1  0
 25 46  1  0
 28 47  1  0
 29 48  1  0
 31 49  1  0
 32 50  1  0
 33 51  1  0
 34 52  1  0
 36 53  1  0
 36 54  1  0
M  END
>  <Score>  (1) 
-7.78243

$$$$
