
     RDKit          3D

 45 50  0  0  0  0  0  0  0  0999 V2000
   36.3320   23.0910   31.9960 C   0  0  0  0  0  0  0  0  0  0  0  0
   36.0000   24.3860   31.6080 C   0  0  0  0  0  0  0  0  0  0  0  0
   36.7530   25.3760   32.2060 C   0  0  0  0  0  0  0  0  0  0  0  0
   37.6970   25.0200   33.0680 N   0  0  0  0  0  0  0  0  0  0  0  0
   38.0260   23.8160   33.4460 C   0  0  0  0  0  0  0  0  0  0  0  0
   37.3110   22.8800   32.8790 N   0  0  0  0  0  0  0  0  0  0  0  0
   39.0270   23.3040   34.3710 C   0  0  0  0  0  0  0  0  0  0  0  0
   40.2040   22.7120   33.9190 C   0  0  0  0  0  0  0  0  0  0  0  0
   41.1800   22.2140   34.7510 C   0  0  0  0  0  0  0  0  0  0  0  0
   41.0200   22.2860   36.1120 C   0  0  0  0  0  0  0  0  0  0  0  0
   39.8830   22.8570   36.6110 C   0  0  0  0  0  0  0  0  0  0  0  0
   39.7240   22.9280   37.9780 C   0  0  0  0  0  0  0  0  0  0  0  0
   38.6350   23.4750   38.5580 C   0  0  0  0  0  0  0  0  0  0  0  0
   37.6480   23.9790   37.7000 C   0  0  0  0  0  0  0  0  0  0  0  0
   37.8320   23.8940   36.3360 C   0  0  0  0  0  0  0  0  0  0  0  0
   38.9280   23.3460   35.7520 C   0  0  0  0  0  0  0  0  0  0  0  0
   36.5410   26.7510   31.9190 N   0  0  0  0  0  0  0  0  0  0  0  0
   36.6720   27.3350   30.7140 C   0  0  0  0  0  0  0  0  0  0  0  0
   36.3980   28.6420   30.8000 N   0  0  0  0  0  0  0  0  0  0  0  0
   36.0910   28.8850   32.0770 C   0  0  0  0  0  0  0  0  0  0  0  0
   36.1830   27.7270   32.7420 N   0  0  0  0  0  0  0  0  0  0  0  0
   35.7450   30.1930   32.5160 N   0  0  0  0  0  0  0  0  0  0  0  0
   36.1360   31.4220   32.0700 C   0  0  0  0  0  0  0  0  0  0  0  0
   35.5510   32.3890   32.7890 N   0  0  0  0  0  0  0  0  0  0  0  0
   34.7630   31.7900   33.7260 C   0  0  0  0  0  0  0  0  0  0  0  0
   33.9600   32.3470   34.6980 C   0  0  0  0  0  0  0  0  0  0  0  0
   33.2790   31.4900   35.5020 N   0  0  0  0  0  0  0  0  0  0  0  0
   33.3840   30.1500   35.3500 C   0  0  0  0  0  0  0  0  0  0  0  0
   34.1820   29.6770   34.3840 N   0  0  0  0  0  0  0  0  0  0  0  0
   34.8970   30.4250   33.5400 C   0  0  0  0  0  0  0  0  0  0  0  0
   33.8150   33.7450   34.8990 N   0  0  0  0  0  0  0  0  0  0  0  0
   35.7844   22.2362   31.5725 H   0  0  0  0  0  0  0  0  0  0  0  0
   35.2016   24.6028   30.8830 H   0  0  0  0  0  0  0  0  0  0  0  0
   40.3625   22.6383   32.8330 H   0  0  0  0  0  0  0  0  0  0  0  0
   42.0869   21.7590   34.3261 H   0  0  0  0  0  0  0  0  0  0  0  0
   41.7924   21.8915   36.7886 H   0  0  0  0  0  0  0  0  0  0  0  0
   40.5173   22.5222   38.6230 H   0  0  0  0  0  0  0  0  0  0  0  0
   38.5272   23.5230   39.6517 H   0  0  0  0  0  0  0  0  0  0  0  0
   36.7362   24.4375   38.1103 H   0  0  0  0  0  0  0  0  0  0  0  0
   37.0433   24.2943   35.6820 H   0  0  0  0  0  0  0  0  0  0  0  0
   36.9627   26.8129   29.7905 H   0  0  0  0  0  0  0  0  0  0  0  0
   36.8335   31.5943   31.2371 H   0  0  0  0  0  0  0  0  0  0  0  0
   32.8265   29.4643   36.0050 H   0  0  0  0  0  0  0  0  0  0  0  0
   33.1977   34.0968   35.6447 H   0  0  0  0  0  0  0  0  0  0  0  0
   34.3271   34.4074   34.2991 H   0  0  0  0  0  0  0  0  0  0  0  0
  1  6  2  0
  2  1  1  0
  2  3  2  0
  3  4  1  0
  4  5  2  0
  5  7  1  0
  6  5  1  0
  7 16  1  0
  8  7  2  0
  8  9  1  0
  9 10  2  0
 10 11  1  0
 11 12  2  0
 12 13  1  0
 14 13  2  0
 15 14  1  0
 16 15  2  0
 16 11  1  0
 17  3  1  0
 17 21  1  0
 18 19  2  0
 18 17  1  0
 19 20  1  0
 20 22  1  0
 20 21  2  0
 22 30  1  0
 23 22  1  0
 23 24  2  0
 24 25  1  0
 25 26  2  0
 26 31  1  0
 26 27  1  0
 28 27  2  0
 29 28  1  0
 30 25  1  0
 30 29  2  0
  1 32  1  0
  2 33  1  0
  8 34  1  0
  9 35  1  0
 10 36  1  0
 12 37  1  0
 13 38  1  0
 14 39  1  0
 15 40  1  0
 18 41  1  0
 23 42  1  0
 28 43  1  0
 31 44  1  0
 31 45  1  0
M  END
>  <Score>  (1) 
-7.1266

$$$$
