
     RDKit          3D

 53 58  0  0  0  0  0  0  0  0999 V2000
   39.1730   23.5140   36.1060 C   0  0  0  0  0  0  0  0  0  0  0  0
   40.5810   23.6550   35.9610 C   0  0  0  0  0  0  0  0  0  0  0  0
   41.0300   24.7270   35.2350 C   0  0  0  0  0  0  0  0  0  0  0  0
   40.0860   25.5380   34.7340 N   0  0  0  0  0  0  0  0  0  0  0  0
   38.8060   25.4330   34.8490 C   0  0  0  0  0  0  0  0  0  0  0  0
   38.3310   24.3880   35.5580 N   0  0  0  0  0  0  0  0  0  0  0  0
   38.0360   26.4310   34.2240 N   0  0  0  0  0  0  0  0  0  0  0  0
   37.3210   27.2840   35.0080 C   0  0  0  0  0  0  0  0  0  0  0  0
   36.6470   28.1700   34.1970 C   0  0  0  0  0  0  0  0  0  0  0  0
   36.9530   27.8510   32.9500 N   0  0  0  0  0  0  0  0  0  0  0  0
   37.8190   26.7660   32.9520 C   0  0  0  0  0  0  0  0  0  0  0  0
   38.3290   26.1430   31.7740 C   0  0  0  0  0  0  0  0  0  0  0  0
   38.7740   26.8860   30.6640 C   0  0  0  0  0  0  0  0  0  0  0  0
   39.1790   26.0210   29.6800 N   0  0  0  0  0  0  0  0  0  0  0  0
   38.9800   24.7340   30.1910 C   0  0  0  0  0  0  0  0  0  0  0  0
   38.4890   24.8930   31.4110 N   0  0  0  0  0  0  0  0  0  0  0  0
   38.3940   23.5800   31.8800 C   0  0  0  0  0  0  0  0  0  0  0  0
   39.5410   23.1520   32.4180 N   0  0  0  0  0  0  0  0  0  0  0  0
   39.6360   21.8740   32.8690 C   0  0  0  0  0  0  0  0  0  0  0  0
   38.6390   20.9920   32.8140 N   0  0  0  0  0  0  0  0  0  0  0  0
   37.4670   21.3790   32.2810 C   0  0  0  0  0  0  0  0  0  0  0  0
   36.3610   20.5790   32.1580 C   0  0  0  0  0  0  0  0  0  0  0  0
   35.1990   21.0240   31.6060 C   0  0  0  0  0  0  0  0  0  0  0  0
   35.1220   22.3380   31.1480 C   0  0  0  0  0  0  0  0  0  0  0  0
   36.1930   23.1870   31.2440 C   0  0  0  0  0  0  0  0  0  0  0  0
   37.3370   22.6910   31.8060 C   0  0  0  0  0  0  0  0  0  0  0  0
   34.1420   31.2920   35.4680 C   0  0  0  0  0  0  0  0  0  0  0  0
   35.4890   31.3420   35.8470 C   0  0  0  0  0  0  0  0  0  0  0  0
   36.2540   30.2810   35.3930 C   0  0  0  0  0  0  0  0  0  0  0  0
   35.7650   29.2510   34.6330 C   0  0  0  0  0  0  0  0  0  0  0  0
   34.4300   29.2360   34.2780 C   0  0  0  0  0  0  0  0  0  0  0  0
   33.6260   30.2580   34.6990 C   0  0  0  0  0  0  0  0  0  0  0  0
   33.0200   32.5300   35.9370 S   0  0  0  0  0  0  0  0  0  0  0  0
   33.1260   32.8690   37.3970 O   0  0  0  0  0  0  0  0  0  0  0  0
   31.6290   32.0620   35.5920 O   0  0  0  0  0  0  0  0  0  0  0  0
   38.6640   22.4040   36.8770 N   0  0  0  0  0  0  0  0  0  0  0  0
   41.2792   22.9346   36.4122 H   0  0  0  0  0  0  0  0  0  0  0  0
   42.1021   24.9118   35.0725 H   0  0  0  0  0  0  0  0  0  0  0  0
   37.2872   27.2682   36.1074 H   0  0  0  0  0  0  0  0  0  0  0  0
   38.7937   27.9838   30.5969 H   0  0  0  0  0  0  0  0  0  0  0  0
   39.1892   23.7815   29.6821 H   0  0  0  0  0  0  0  0  0  0  0  0
   40.5920   21.5484   33.3051 H   0  0  0  0  0  0  0  0  0  0  0  0
   36.4142   19.5409   32.5180 H   0  0  0  0  0  0  0  0  0  0  0  0
   34.3306   20.3540   31.5224 H   0  0  0  0  0  0  0  0  0  0  0  0
   34.1843   22.7001   30.7013 H   0  0  0  0  0  0  0  0  0  0  0  0
   36.1352   24.2248   30.8839 H   0  0  0  0  0  0  0  0  0  0  0  0
   35.9056   32.1579   36.4559 H   0  0  0  0  0  0  0  0  0  0  0  0
   37.3212   30.2638   35.6591 H   0  0  0  0  0  0  0  0  0  0  0  0
   34.0217   28.4168   33.6679 H   0  0  0  0  0  0  0  0  0  0  0  0
   32.5604   30.2611   34.4260 H   0  0  0  0  0  0  0  0  0  0  0  0
   33.3164   33.6810   35.2556 H   0  0  0  0  0  0  0  0  0  0  0  0
   37.6481   22.2820   36.9954 H   0  0  0  0  0  0  0  0  0  0  0  0
   39.3169   21.7343   37.3085 H   0  0  0  0  0  0  0  0  0  0  0  0
  1 36  1  0
  2  1  2  0
  3  2  1  0
  4  5  1  0
  4  3  2  0
  5  6  2  0
  6  1  1  0
  7  5  1  0
  7  8  1  0
  9 30  1  0
  9  8  2  0
 10 11  2  0
 10  9  1  0
 11  7  1  0
 12 11  1  0
 13 12  2  0
 14 15  2  0
 14 13  1  0
 15 16  1  0
 16 12  1  0
 16 17  1  0
 17 18  2  0
 18 19  1  0
 20 19  2  0
 21 20  1  0
 22 21  2  0
 23 22  1  0
 24 25  1  0
 24 23  2  0
 25 26  2  0
 26 17  1  0
 26 21  1  0
 27 28  2  0
 27 33  1  0
 29 28  1  0
 30 29  2  0
 31 30  1  0
 31 32  2  0
 32 27  1  0
 33 34  2  0
 35 33  2  0
  2 37  1  0
  3 38  1  0
  8 39  1  0
 13 40  1  0
 15 41  1  0
 19 42  1  0
 22 43  1  0
 23 44  1  0
 24 45  1  0
 25 46  1  0
 28 47  1  0
 29 48  1  0
 31 49  1  0
 32 50  1  0
 33 51  1  0
 36 52  1  0
 36 53  1  0
M  END
>  <Score>  (1) 
-7.24755

$$$$
