
     RDKit          3D

 47 52  0  0  0  0  0  0  0  0999 V2000
   40.5050   21.8690   37.6840 O   0  0  0  0  0  0  0  0  0  0  0  0
   39.5640   22.8490   37.6580 C   0  0  0  0  0  0  0  0  0  0  0  0
   38.8450   23.5100   38.6400 C   0  0  0  0  0  0  0  0  0  0  0  0
   37.9300   24.4840   38.3580 C   0  0  0  0  0  0  0  0  0  0  0  0
   37.7080   24.8310   37.0460 C   0  0  0  0  0  0  0  0  0  0  0  0
   38.4210   24.1770   36.0710 C   0  0  0  0  0  0  0  0  0  0  0  0
   39.3440   23.1920   36.3650 N   0  0  0  0  0  0  0  0  0  0  0  0
   38.1200   24.6080   34.7390 N   0  0  0  0  0  0  0  0  0  0  0  0
   38.4540   23.7970   33.6980 C   0  0  0  0  0  0  0  0  0  0  0  0
   38.0990   24.3550   32.5160 N   0  0  0  0  0  0  0  0  0  0  0  0
   37.5340   25.5350   32.8110 C   0  0  0  0  0  0  0  0  0  0  0  0
   36.9690   26.5870   32.1540 C   0  0  0  0  0  0  0  0  0  0  0  0
   36.9140   26.5300   30.8790 O   0  0  0  0  0  0  0  0  0  0  0  0
   36.4630   27.6870   32.7380 N   0  0  0  0  0  0  0  0  0  0  0  0
   36.5250   27.7410   34.0980 C   0  0  0  0  0  0  0  0  0  0  0  0
   35.9960   28.8940   34.7290 N   0  0  0  0  0  0  0  0  0  0  0  0
   37.0710   26.7390   34.8500 N   0  0  0  0  0  0  0  0  0  0  0  0
   37.5510   25.6840   34.1890 C   0  0  0  0  0  0  0  0  0  0  0  0
   43.2490   23.2570   35.8580 C   0  0  0  0  0  0  0  0  0  0  0  0
   44.1190   22.1770   35.6890 C   0  0  0  0  0  0  0  0  0  0  0  0
   43.7250   20.9530   36.2270 C   0  0  0  0  0  0  0  0  0  0  0  0
   42.5540   20.8650   36.8700 N   0  0  0  0  0  0  0  0  0  0  0  0
   41.7030   21.9140   37.0380 C   0  0  0  0  0  0  0  0  0  0  0  0
   42.0870   23.1090   36.5130 N   0  0  0  0  0  0  0  0  0  0  0  0
   43.5630   24.5590   35.3410 N   0  0  0  0  0  0  0  0  0  0  0  0
   42.7630   25.3160   34.5680 C   0  0  0  0  0  0  0  0  0  0  0  0
   43.4510   26.4590   34.3110 N   0  0  0  0  0  0  0  0  0  0  0  0
   44.6240   26.3950   34.9070 C   0  0  0  0  0  0  0  0  0  0  0  0
   45.7190   27.2230   35.0080 C   0  0  0  0  0  0  0  0  0  0  0  0
   46.8470   26.8610   35.7360 N   0  0  0  0  0  0  0  0  0  0  0  0
   46.8720   25.6580   36.3650 C   0  0  0  0  0  0  0  0  0  0  0  0
   45.8140   24.8250   36.2840 N   0  0  0  0  0  0  0  0  0  0  0  0
   44.7320   25.1950   35.5760 C   0  0  0  0  0  0  0  0  0  0  0  0
   45.7280   28.4750   34.3680 N   0  0  0  0  0  0  0  0  0  0  0  0
   39.0183   23.2390   39.6919 H   0  0  0  0  0  0  0  0  0  0  0  0
   37.3788   24.9835   39.1684 H   0  0  0  0  0  0  0  0  0  0  0  0
   36.9787   25.6117   36.7842 H   0  0  0  0  0  0  0  0  0  0  0  0
   38.9465   22.8190   33.8027 H   0  0  0  0  0  0  0  0  0  0  0  0
   36.0490   28.4510   32.1849 H   0  0  0  0  0  0  0  0  0  0  0  0
   36.0219   28.9770   35.7553 H   0  0  0  0  0  0  0  0  0  0  0  0
   35.5856   29.6492   34.1614 H   0  0  0  0  0  0  0  0  0  0  0  0
   45.0739   22.2878   35.1543 H   0  0  0  0  0  0  0  0  0  0  0  0
   44.3700   20.0679   36.1243 H   0  0  0  0  0  0  0  0  0  0  0  0
   41.7532   25.0604   34.2146 H   0  0  0  0  0  0  0  0  0  0  0  0
   47.7593   25.3612   36.9435 H   0  0  0  0  0  0  0  0  0  0  0  0
   46.5513   29.0886   34.4485 H   0  0  0  0  0  0  0  0  0  0  0  0
   44.9113   28.7785   33.8187 H   0  0  0  0  0  0  0  0  0  0  0  0
  2  1  1  0
  2  3  2  0
  4  3  1  0
  5  4  2  0
  6  7  2  0
  6  5  1  0
  7  2  1  0
  8  6  1  0
  9  8  1  0
 10 11  1  0
 10  9  2  0
 11 18  2  0
 12 14  1  0
 12 11  1  0
 13 12  2  0
 14 15  1  0
 15 16  1  0
 15 17  2  0
 18  8  1  0
 18 17  1  0
 19 24  1  0
 20 19  2  0
 20 21  1  0
 21 22  2  0
 22 23  1  0
 23  1  1  0
 24 23  2  0
 25 33  1  0
 25 19  1  0
 26 25  1  0
 27 26  2  0
 27 28  1  0
 28 29  2  0
 28 33  1  0
 29 30  1  0
 30 31  2  0
 32 31  1  0
 33 32  2  0
 34 29  1  0
  3 35  1  0
  4 36  1  0
  5 37  1  0
  9 38  1  0
 14 39  1  0
 16 40  1  0
 16 41  1  0
 20 42  1  0
 21 43  1  0
 26 44  1  0
 31 45  1  0
 34 46  1  0
 34 47  1  0
M  END
>  <Score>  (1) 
-7.54674

$$$$
