
     RDKit          3D

 39 43  0  0  0  0  0  0  0  0999 V2000
   37.3470   24.4860   31.6420 C   0  0  0  0  0  0  0  0  0  0  0  0
   36.7410   25.7350   31.6590 C   0  0  0  0  0  0  0  0  0  0  0  0
   37.0790   26.5300   32.7360 C   0  0  0  0  0  0  0  0  0  0  0  0
   37.9230   26.0520   33.6310 N   0  0  0  0  0  0  0  0  0  0  0  0
   38.5100   24.8740   33.6360 C   0  0  0  0  0  0  0  0  0  0  0  0
   38.1850   24.1200   32.6080 N   0  0  0  0  0  0  0  0  0  0  0  0
   36.5430   27.8320   32.8950 N   0  0  0  0  0  0  0  0  0  0  0  0
   36.5910   28.8320   32.0020 C   0  0  0  0  0  0  0  0  0  0  0  0
   35.9870   29.9180   32.4800 N   0  0  0  0  0  0  0  0  0  0  0  0
   35.5460   29.6030   33.7020 C   0  0  0  0  0  0  0  0  0  0  0  0
   35.8970   28.3310   33.9310 N   0  0  0  0  0  0  0  0  0  0  0  0
   39.4410   24.2340   34.5400 C   0  0  0  0  0  0  0  0  0  0  0  0
   40.7150   23.8690   34.1530 C   0  0  0  0  0  0  0  0  0  0  0  0
   41.6360   23.2610   34.9660 C   0  0  0  0  0  0  0  0  0  0  0  0
   41.3040   22.9780   36.2770 C   0  0  0  0  0  0  0  0  0  0  0  0
   40.0690   23.3150   36.7060 C   0  0  0  0  0  0  0  0  0  0  0  0
   39.7290   23.0300   38.0260 C   0  0  0  0  0  0  0  0  0  0  0  0
   38.5090   23.3320   38.5480 C   0  0  0  0  0  0  0  0  0  0  0  0
   37.5900   23.9480   37.7050 C   0  0  0  0  0  0  0  0  0  0  0  0
   37.9550   24.2150   36.4110 C   0  0  0  0  0  0  0  0  0  0  0  0
   39.1720   23.9220   35.8620 C   0  0  0  0  0  0  0  0  0  0  0  0
   34.8150   30.3450   34.7350 C   0  0  0  0  0  0  0  0  0  0  0  0
   33.5300   30.5190   35.0490 N   0  0  0  0  0  0  0  0  0  0  0  0
   33.4140   31.2910   36.0790 O   0  0  0  0  0  0  0  0  0  0  0  0
   34.6290   31.6440   36.4690 C   0  0  0  0  0  0  0  0  0  0  0  0
   35.5410   31.0630   35.6400 N   0  0  0  0  0  0  0  0  0  0  0  0
   34.9620   32.4880   37.5660 N   0  0  0  0  0  0  0  0  0  0  0  0
   37.1312   23.7895   30.8184 H   0  0  0  0  0  0  0  0  0  0  0  0
   36.0447   26.0659   30.8743 H   0  0  0  0  0  0  0  0  0  0  0  0
   37.0642   28.7641   31.0113 H   0  0  0  0  0  0  0  0  0  0  0  0
   41.0129   24.0818   33.1157 H   0  0  0  0  0  0  0  0  0  0  0  0
   42.6317   23.0004   34.5777 H   0  0  0  0  0  0  0  0  0  0  0  0
   42.0247   22.4924   36.9514 H   0  0  0  0  0  0  0  0  0  0  0  0
   40.4747   22.5424   38.6711 H   0  0  0  0  0  0  0  0  0  0  0  0
   38.2599   23.0985   39.5937 H   0  0  0  0  0  0  0  0  0  0  0  0
   36.5877   24.2162   38.0704 H   0  0  0  0  0  0  0  0  0  0  0  0
   37.2109   24.7029   35.7643 H   0  0  0  0  0  0  0  0  0  0  0  0
   35.9490   32.6942   37.7761 H   0  0  0  0  0  0  0  0  0  0  0  0
   34.2159   32.8925   38.1496 H   0  0  0  0  0  0  0  0  0  0  0  0
  1  2  2  0
  1  6  1  0
  2  3  1  0
  3  7  1  0
  3  4  2  0
  4  5  1  0
  5 12  1  0
  6  5  2  0
  7 11  1  0
  8  9  2  0
  8  7  1  0
  9 10  1  0
 10 11  2  0
 10 22  1  0
 12 21  1  0
 13 12  2  0
 13 14  1  0
 14 15  2  0
 15 16  1  0
 16 17  2  0
 17 18  1  0
 19 18  2  0
 20 19  1  0
 21 20  2  0
 21 16  1  0
 22 23  2  0
 22 26  1  0
 23 24  1  0
 24 25  1  0
 25 27  1  0
 26 25  2  0
  1 28  1  0
  2 29  1  0
  8 30  1  0
 13 31  1  0
 14 32  1  0
 15 33  1  0
 17 34  1  0
 18 35  1  0
 19 36  1  0
 20 37  1  0
 27 38  1  0
 27 39  1  0
M  END
>  <Score>  (1) 
-7.03422

$$$$
