
     RDKit          3D

 43 48  0  0  0  0  0  0  0  0999 V2000
   39.9350   22.9900   37.3410 C   0  0  0  0  0  0  0  0  0  0  0  0
   39.1310   23.1440   38.4920 C   0  0  0  0  0  0  0  0  0  0  0  0
   37.8780   23.7530   38.3030 C   0  0  0  0  0  0  0  0  0  0  0  0
   37.4980   24.1610   37.0620 N   0  0  0  0  0  0  0  0  0  0  0  0
   38.3160   23.9870   35.9930 C   0  0  0  0  0  0  0  0  0  0  0  0
   39.5180   23.4080   36.1360 N   0  0  0  0  0  0  0  0  0  0  0  0
   37.9550   24.3970   34.6900 N   0  0  0  0  0  0  0  0  0  0  0  0
   38.0750   23.5480   33.6350 C   0  0  0  0  0  0  0  0  0  0  0  0
   37.6560   24.2170   32.5190 N   0  0  0  0  0  0  0  0  0  0  0  0
   37.2800   25.4560   32.8560 C   0  0  0  0  0  0  0  0  0  0  0  0
   36.7780   26.5950   32.2240 C   0  0  0  0  0  0  0  0  0  0  0  0
   36.6040   26.5010   30.9910 O   0  0  0  0  0  0  0  0  0  0  0  0
   36.5130   27.7040   32.9480 N   0  0  0  0  0  0  0  0  0  0  0  0
   36.7120   27.7640   34.2700 C   0  0  0  0  0  0  0  0  0  0  0  0
   36.3710   29.0260   34.8580 N   0  0  0  0  0  0  0  0  0  0  0  0
   37.1970   26.6780   34.9040 N   0  0  0  0  0  0  0  0  0  0  0  0
   37.4690   25.5720   34.2250 C   0  0  0  0  0  0  0  0  0  0  0  0
   35.9880   28.8850   32.2700 C   0  0  0  0  0  0  0  0  0  0  0  0
   36.7970   29.7070   31.4680 C   0  0  0  0  0  0  0  0  0  0  0  0
   35.6320   31.0120   30.8830 S   0  0  0  0  0  0  0  0  0  0  0  0
   34.2140   30.2150   31.8400 C   0  0  0  0  0  0  0  0  0  0  0  0
   34.7340   29.3260   32.3160 N   0  0  0  0  0  0  0  0  0  0  0  0
   32.8320   30.6190   31.9480 N   0  0  0  0  0  0  0  0  0  0  0  0
   32.2210   31.4560   31.0720 C   0  0  0  0  0  0  0  0  0  0  0  0
   30.9290   31.6160   31.4760 N   0  0  0  0  0  0  0  0  0  0  0  0
   30.7540   30.8890   32.5820 C   0  0  0  0  0  0  0  0  0  0  0  0
   29.7230   30.6210   33.4600 C   0  0  0  0  0  0  0  0  0  0  0  0
   29.8350   29.8190   34.5320 N   0  0  0  0  0  0  0  0  0  0  0  0
   31.0330   29.2180   34.7900 C   0  0  0  0  0  0  0  0  0  0  0  0
   32.0690   29.4480   33.9610 N   0  0  0  0  0  0  0  0  0  0  0  0
   31.9400   30.2520   32.8980 C   0  0  0  0  0  0  0  0  0  0  0  0
   28.4560   31.2250   33.2310 N   0  0  0  0  0  0  0  0  0  0  0  0
   40.9239   22.5174   37.4344 H   0  0  0  0  0  0  0  0  0  0  0  0
   39.4672   22.8056   39.4832 H   0  0  0  0  0  0  0  0  0  0  0  0
   37.2039   23.8998   39.1598 H   0  0  0  0  0  0  0  0  0  0  0  0
   38.4422   22.5118   33.6726 H   0  0  0  0  0  0  0  0  0  0  0  0
   36.4891   29.1709   35.8709 H   0  0  0  0  0  0  0  0  0  0  0  0
   36.0079   29.7879   34.2676 H   0  0  0  0  0  0  0  0  0  0  0  0
   37.8682   29.5985   31.2429 H   0  0  0  0  0  0  0  0  0  0  0  0
   32.6862   31.9230   30.1913 H   0  0  0  0  0  0  0  0  0  0  0  0
   31.1503   28.5565   35.6610 H   0  0  0  0  0  0  0  0  0  0  0  0
   27.6730   31.0387   33.8737 H   0  0  0  0  0  0  0  0  0  0  0  0
   28.3214   31.8488   32.4225 H   0  0  0  0  0  0  0  0  0  0  0  0
  1  2  2  0
  3  2  1  0
  4  3  2  0
  5  6  2  0
  5  4  1  0
  6  1  1  0
  7  5  1  0
  8  7  1  0
  9 10  1  0
  9  8  2  0
 10 17  2  0
 11 10  1  0
 11 13  1  0
 12 11  2  0
 13 14  1  0
 14 15  1  0
 14 16  2  0
 17  7  1  0
 17 16  1  0
 18 22  1  0
 18 13  1  0
 19 18  2  0
 20 19  1  0
 20 21  1  0
 21 23  1  0
 21 22  2  0
 23 31  1  0
 24 25  2  0
 24 23  1  0
 25 26  1  0
 26 31  2  0
 26 27  1  0
 27 28  2  0
 28 29  1  0
 30 29  2  0
 31 30  1  0
 32 27  1  0
  1 33  1  0
  2 34  1  0
  3 35  1  0
  8 36  1  0
 15 37  1  0
 15 38  1  0
 19 39  1  0
 24 40  1  0
 29 41  1  0
 32 42  1  0
 32 43  1  0
M  END
>  <Score>  (1) 
-7.38344

$$$$
