
     RDKit          3D

 43 47  0  0  0  0  0  0  0  0999 V2000
   36.8560   24.1340   31.8220 C   0  0  0  0  0  0  0  0  0  0  0  0
   36.3390   25.4290   31.8150 C   0  0  0  0  0  0  0  0  0  0  0  0
   36.8430   26.2410   32.7910 C   0  0  0  0  0  0  0  0  0  0  0  0
   37.7500   25.7580   33.6400 N   0  0  0  0  0  0  0  0  0  0  0  0
   38.2450   24.5520   33.6650 C   0  0  0  0  0  0  0  0  0  0  0  0
   37.7660   23.7570   32.7250 N   0  0  0  0  0  0  0  0  0  0  0  0
   39.2240   23.9010   34.5200 C   0  0  0  0  0  0  0  0  0  0  0  0
   40.4090   23.4020   34.0190 C   0  0  0  0  0  0  0  0  0  0  0  0
   41.3730   22.7750   34.7840 C   0  0  0  0  0  0  0  0  0  0  0  0
   41.1710   22.6210   36.1340 C   0  0  0  0  0  0  0  0  0  0  0  0
   40.0230   23.0940   36.6710 C   0  0  0  0  0  0  0  0  0  0  0  0
   39.8250   22.9340   38.0390 C   0  0  0  0  0  0  0  0  0  0  0  0
   38.7110   23.3740   38.6620 C   0  0  0  0  0  0  0  0  0  0  0  0
   37.7460   24.0080   37.8640 C   0  0  0  0  0  0  0  0  0  0  0  0
   37.9740   24.1480   36.5210 C   0  0  0  0  0  0  0  0  0  0  0  0
   39.0840   23.7130   35.8840 C   0  0  0  0  0  0  0  0  0  0  0  0
   36.4260   27.5980   32.9300 N   0  0  0  0  0  0  0  0  0  0  0  0
   36.4130   28.5280   31.9530 C   0  0  0  0  0  0  0  0  0  0  0  0
   35.9660   29.6850   32.4330 N   0  0  0  0  0  0  0  0  0  0  0  0
   35.6880   29.5070   33.7220 C   0  0  0  0  0  0  0  0  0  0  0  0
   35.9790   28.2250   34.0000 N   0  0  0  0  0  0  0  0  0  0  0  0
   35.1860   30.3710   34.7440 N   0  0  0  0  0  0  0  0  0  0  0  0
   36.0300   31.1320   35.4810 C   0  0  0  0  0  0  0  0  0  0  0  0
   35.4970   31.9550   36.4620 C   0  0  0  0  0  0  0  0  0  0  0  0
   34.1430   32.0150   36.7000 C   0  0  0  0  0  0  0  0  0  0  0  0
   33.6330   32.8740   37.7160 N   0  0  0  0  0  0  0  0  0  0  0  0
   33.3230   31.2500   35.9550 N   0  0  0  0  0  0  0  0  0  0  0  0
   33.8710   30.4600   35.0100 C   0  0  0  0  0  0  0  0  0  0  0  0
   33.1150   29.7270   34.2930 O   0  0  0  0  0  0  0  0  0  0  0  0
   36.5085   23.4097   31.0706 H   0  0  0  0  0  0  0  0  0  0  0  0
   35.5889   25.7680   31.0854 H   0  0  0  0  0  0  0  0  0  0  0  0
   40.5981   23.5106   32.9408 H   0  0  0  0  0  0  0  0  0  0  0  0
   42.2957   22.4017   34.3157 H   0  0  0  0  0  0  0  0  0  0  0  0
   41.9246   22.1250   36.7633 H   0  0  0  0  0  0  0  0  0  0  0  0
   40.6027   22.4319   38.6331 H   0  0  0  0  0  0  0  0  0  0  0  0
   38.5664   23.2418   39.7444 H   0  0  0  0  0  0  0  0  0  0  0  0
   36.8165   24.3884   38.3126 H   0  0  0  0  0  0  0  0  0  0  0  0
   37.2010   24.6487   35.9195 H   0  0  0  0  0  0  0  0  0  0  0  0
   36.7259   28.3550   30.9127 H   0  0  0  0  0  0  0  0  0  0  0  0
   37.1153   31.0980   35.3052 H   0  0  0  0  0  0  0  0  0  0  0  0
   36.1747   32.5763   37.0659 H   0  0  0  0  0  0  0  0  0  0  0  0
   32.6192   32.9175   37.8926 H   0  0  0  0  0  0  0  0  0  0  0  0
   34.2782   33.4515   38.2739 H   0  0  0  0  0  0  0  0  0  0  0  0
  1  6  2  0
  2  1  1  0
  2  3  2  0
  3 17  1  0
  3  4  1  0
  4  5  2  0
  5  7  1  0
  6  5  1  0
  7 16  1  0
  8  7  2  0
  8  9  1  0
  9 10  2  0
 10 11  1  0
 11 12  2  0
 12 13  1  0
 14 13  2  0
 15 14  1  0
 16 15  2  0
 16 11  1  0
 17 21  1  0
 18 19  2  0
 18 17  1  0
 19 20  1  0
 20 21  2  0
 20 22  1  0
 22 28  1  0
 22 23  1  0
 23 24  2  0
 24 25  1  0
 25 26  1  0
 27 25  2  0
 28 27  1  0
 29 28  2  0
  1 30  1  0
  2 31  1  0
  8 32  1  0
  9 33  1  0
 10 34  1  0
 12 35  1  0
 13 36  1  0
 14 37  1  0
 15 38  1  0
 18 39  1  0
 23 40  1  0
 24 41  1  0
 26 42  1  0
 26 43  1  0
M  END
>  <Score>  (1) 
-7.62364

$$$$
