
     RDKit          3D

 46 50  0  0  0  0  0  0  0  0999 V2000
   38.8270   23.1260   37.9860 C   0  0  0  0  0  0  0  0  0  0  0  0
   38.0820   23.2090   36.7980 C   0  0  0  0  0  0  0  0  0  0  0  0
   38.7350   22.8320   35.6210 C   0  0  0  0  0  0  0  0  0  0  0  0
   39.9950   22.4370   35.7570 N   0  0  0  0  0  0  0  0  0  0  0  0
   40.7230   22.3510   36.8740 C   0  0  0  0  0  0  0  0  0  0  0  0
   40.0900   22.7120   37.9950 N   0  0  0  0  0  0  0  0  0  0  0  0
   42.0710   21.8760   36.6410 C   0  0  0  0  0  0  0  0  0  0  0  0
   42.3530   20.5260   36.6180 C   0  0  0  0  0  0  0  0  0  0  0  0
   43.6220   20.0090   36.4000 C   0  0  0  0  0  0  0  0  0  0  0  0
   44.6860   20.8610   36.1910 C   0  0  0  0  0  0  0  0  0  0  0  0
   44.4450   22.2040   36.2060 C   0  0  0  0  0  0  0  0  0  0  0  0
   45.5130   23.0440   35.9950 C   0  0  0  0  0  0  0  0  0  0  0  0
   45.3540   24.4080   35.9960 C   0  0  0  0  0  0  0  0  0  0  0  0
   44.0680   24.8870   36.2180 C   0  0  0  0  0  0  0  0  0  0  0  0
   43.0270   24.0130   36.4240 C   0  0  0  0  0  0  0  0  0  0  0  0
   43.1680   22.6610   36.4260 C   0  0  0  0  0  0  0  0  0  0  0  0
   38.0740   22.8770   34.3570 N   0  0  0  0  0  0  0  0  0  0  0  0
   37.1900   21.9580   34.0020 C   0  0  0  0  0  0  0  0  0  0  0  0
   36.7650   22.3080   32.7490 C   0  0  0  0  0  0  0  0  0  0  0  0
   37.3980   23.4230   32.3760 N   0  0  0  0  0  0  0  0  0  0  0  0
   38.2230   23.7850   33.3850 C   0  0  0  0  0  0  0  0  0  0  0  0
   39.0770   24.9220   33.3880 N   0  0  0  0  0  0  0  0  0  0  0  0
   39.1720   25.8910   34.3180 C   0  0  0  0  0  0  0  0  0  0  0  0
   40.0570   26.9290   34.1670 C   0  0  0  0  0  0  0  0  0  0  0  0
   40.8700   27.0000   33.0530 C   0  0  0  0  0  0  0  0  0  0  0  0
   41.6910   27.9410   32.8880 O   0  0  0  0  0  0  0  0  0  0  0  0
   40.7790   26.0330   32.1190 N   0  0  0  0  0  0  0  0  0  0  0  0
   39.8950   25.0240   32.3010 C   0  0  0  0  0  0  0  0  0  0  0  0
   39.8710   24.1490   31.3700 O   0  0  0  0  0  0  0  0  0  0  0  0
   35.7730   21.6210   31.8800 C   0  0  0  0  0  0  0  0  0  0  0  0
   34.7020   21.1120   32.5720 F   0  0  0  0  0  0  0  0  0  0  0  0
   36.3790   20.5380   31.2240 F   0  0  0  0  0  0  0  0  0  0  0  0
   35.3800   22.4620   30.8410 F   0  0  0  0  0  0  0  0  0  0  0  0
   38.3516   23.4118   38.9359 H   0  0  0  0  0  0  0  0  0  0  0  0
   37.0373   23.5533   36.7941 H   0  0  0  0  0  0  0  0  0  0  0  0
   41.5256   19.8198   36.7816 H   0  0  0  0  0  0  0  0  0  0  0  0
   43.7792   18.9203   36.3939 H   0  0  0  0  0  0  0  0  0  0  0  0
   45.6992   20.4695   36.0173 H   0  0  0  0  0  0  0  0  0  0  0  0
   46.5116   22.6162   35.8225 H   0  0  0  0  0  0  0  0  0  0  0  0
   46.2024   25.0880   35.8294 H   0  0  0  0  0  0  0  0  0  0  0  0
   43.8824   25.9712   36.2289 H   0  0  0  0  0  0  0  0  0  0  0  0
   42.0243   24.4310   36.5968 H   0  0  0  0  0  0  0  0  0  0  0  0
   36.8635   21.0899   34.5935 H   0  0  0  0  0  0  0  0  0  0  0  0
   38.5313   25.8501   35.2112 H   0  0  0  0  0  0  0  0  0  0  0  0
   40.1192   27.7101   34.9390 H   0  0  0  0  0  0  0  0  0  0  0  0
   41.3736   26.0611   31.2785 H   0  0  0  0  0  0  0  0  0  0  0  0
  1  6  2  0
  2  1  1  0
  3  4  1  0
  3  2  2  0
  4  5  2  0
  5  6  1  0
  7  5  1  0
  8  7  2  0
  9  8  1  0
 10 11  1  0
 10  9  2  0
 11 16  2  0
 12 13  2  0
 12 11  1  0
 13 14  1  0
 14 15  2  0
 15 16  1  0
 16  7  1  0
 17  3  1  0
 18 17  1  0
 19 18  2  0
 20 19  1  0
 20 21  2  0
 21 22  1  0
 21 17  1  0
 22 23  1  0
 24 23  2  0
 25 24  1  0
 26 25  2  0
 27 28  1  0
 27 25  1  0
 28 22  1  0
 29 28  2  0
 30 31  1  0
 30 19  1  0
 32 30  1  0
 33 30  1  0
  1 34  1  0
  2 35  1  0
  8 36  1  0
  9 37  1  0
 10 38  1  0
 12 39  1  0
 13 40  1  0
 14 41  1  0
 15 42  1  0
 18 43  1  0
 23 44  1  0
 24 45  1  0
 27 46  1  0
M  END
>  <Score>  (1) 
-7.21494

$$$$
