
     RDKit          3D

 42 46  0  0  0  0  0  0  0  0999 V2000
   36.9200   27.5440   31.5770 S   0  0  0  0  0  0  0  0  0  0  0  0
   38.3700   27.8080   31.8950 O   0  0  0  0  0  0  0  0  0  0  0  0
   36.5540   28.0920   30.2390 O   0  0  0  0  0  0  0  0  0  0  0  0
   35.8800   28.2880   32.7870 C   0  0  0  0  0  0  0  0  0  0  0  0
   36.0830   28.5820   34.0710 N   0  0  0  0  0  0  0  0  0  0  0  0
   34.9950   29.1310   34.5520 O   0  0  0  0  0  0  0  0  0  0  0  0
   34.0700   29.2230   33.6500 C   0  0  0  0  0  0  0  0  0  0  0  0
   34.6000   28.7010   32.5400 N   0  0  0  0  0  0  0  0  0  0  0  0
   32.7620   29.7560   33.7820 N   0  0  0  0  0  0  0  0  0  0  0  0
   32.0190   30.3580   32.8400 C   0  0  0  0  0  0  0  0  0  0  0  0
   30.8320   30.7300   33.3370 N   0  0  0  0  0  0  0  0  0  0  0  0
   30.7960   30.3630   34.6440 C   0  0  0  0  0  0  0  0  0  0  0  0
   29.8900   30.4510   35.6920 C   0  0  0  0  0  0  0  0  0  0  0  0
   28.7850   31.0000   35.4700 O   0  0  0  0  0  0  0  0  0  0  0  0
   30.2470   29.9470   36.8820 N   0  0  0  0  0  0  0  0  0  0  0  0
   31.4220   29.3530   37.1540 C   0  0  0  0  0  0  0  0  0  0  0  0
   31.7500   28.8330   38.4370 N   0  0  0  0  0  0  0  0  0  0  0  0
   32.3010   29.2730   36.1170 N   0  0  0  0  0  0  0  0  0  0  0  0
   32.0100   29.7580   34.8970 C   0  0  0  0  0  0  0  0  0  0  0  0
   36.5820   25.8380   31.6300 C   0  0  0  0  0  0  0  0  0  0  0  0
   37.4700   25.0360   32.3100 C   0  0  0  0  0  0  0  0  0  0  0  0
   37.2120   23.6610   32.3620 C   0  0  0  0  0  0  0  0  0  0  0  0
   36.0990   23.0910   31.7550 C   0  0  0  0  0  0  0  0  0  0  0  0
   35.2060   23.9020   31.0690 C   0  0  0  0  0  0  0  0  0  0  0  0
   35.4870   25.2480   31.0360 C   0  0  0  0  0  0  0  0  0  0  0  0
   36.0620   20.7320   30.8550 C   0  0  0  0  0  0  0  0  0  0  0  0
   35.9440   21.6610   31.8790 C   0  0  0  0  0  0  0  0  0  0  0  0
   35.6400   21.1520   33.1700 C   0  0  0  0  0  0  0  0  0  0  0  0
   35.4880   19.8040   33.3190 N   0  0  0  0  0  0  0  0  0  0  0  0
   35.6190   18.9390   32.2600 C   0  0  0  0  0  0  0  0  0  0  0  0
   35.9110   19.4250   31.0130 N   0  0  0  0  0  0  0  0  0  0  0  0
   32.3410   30.5233   31.8013 H   0  0  0  0  0  0  0  0  0  0  0  0
   29.5653   30.0209   37.6506 H   0  0  0  0  0  0  0  0  0  0  0  0
   32.6650   28.3867   38.5933 H   0  0  0  0  0  0  0  0  0  0  0  0
   31.0724   28.9028   39.2096 H   0  0  0  0  0  0  0  0  0  0  0  0
   38.3578   25.4635   32.7990 H   0  0  0  0  0  0  0  0  0  0  0  0
   37.9144   23.0091   32.9020 H   0  0  0  0  0  0  0  0  0  0  0  0
   34.3149   23.4877   30.5747 H   0  0  0  0  0  0  0  0  0  0  0  0
   34.7864   25.9017   30.4959 H   0  0  0  0  0  0  0  0  0  0  0  0
   36.2960   21.1046   29.8468 H   0  0  0  0  0  0  0  0  0  0  0  0
   35.5296   21.8290   34.0299 H   0  0  0  0  0  0  0  0  0  0  0  0
   35.4896   17.8574   32.4131 H   0  0  0  0  0  0  0  0  0  0  0  0
  1 20  1  0
  1  2  2  0
  1  4  1  0
  3  1  2  0
  4  5  2  0
  5  6  1  0
  7  9  1  0
  7  6  1  0
  8  4  1  0
  8  7  2  0
  9 19  1  0
 10 11  2  0
 10  9  1  0
 11 12  1  0
 12 19  2  0
 12 13  1  0
 13 15  1  0
 14 13  2  0
 15 16  1  0
 16 17  1  0
 18 16  2  0
 19 18  1  0
 20 21  2  0
 21 22  1  0
 23 27  1  0
 23 22  2  0
 24 23  1  0
 25 24  2  0
 25 20  1  0
 26 31  2  0
 26 27  1  0
 27 28  2  0
 28 29  1  0
 30 29  2  0
 31 30  1  0
 10 32  1  0
 15 33  1  0
 17 34  1  0
 17 35  1  0
 21 36  1  0
 22 37  1  0
 24 38  1  0
 25 39  1  0
 26 40  1  0
 28 41  1  0
 30 42  1  0
M  END
>  <Score>  (1) 
-7.17547

$$$$
