
     RDKit          3D

 46 51  0  0  0  0  0  0  0  0999 V2000
   36.6630   24.4250   31.9820 C   0  0  0  0  0  0  0  0  0  0  0  0
   36.1880   25.7320   31.9520 C   0  0  0  0  0  0  0  0  0  0  0  0
   36.7650   26.5710   32.8670 C   0  0  0  0  0  0  0  0  0  0  0  0
   37.7000   26.0920   33.6850 N   0  0  0  0  0  0  0  0  0  0  0  0
   38.1640   24.8670   33.7330 C   0  0  0  0  0  0  0  0  0  0  0  0
   37.6070   24.0640   32.8530 N   0  0  0  0  0  0  0  0  0  0  0  0
   36.4000   27.9400   32.9750 N   0  0  0  0  0  0  0  0  0  0  0  0
   36.4130   28.8360   31.9610 C   0  0  0  0  0  0  0  0  0  0  0  0
   36.0130   30.0240   32.4080 N   0  0  0  0  0  0  0  0  0  0  0  0
   35.7410   29.8990   33.7080 C   0  0  0  0  0  0  0  0  0  0  0  0
   35.9850   28.6150   34.0310 N   0  0  0  0  0  0  0  0  0  0  0  0
   35.2840   30.7820   34.7290 N   0  0  0  0  0  0  0  0  0  0  0  0
   36.0710   31.8260   35.0690 C   0  0  0  0  0  0  0  0  0  0  0  0
   35.4490   32.5330   36.0540 N   0  0  0  0  0  0  0  0  0  0  0  0
   34.2890   31.9580   36.3400 C   0  0  0  0  0  0  0  0  0  0  0  0
   33.2200   32.1630   37.2030 C   0  0  0  0  0  0  0  0  0  0  0  0
   33.2780   33.1530   37.9760 O   0  0  0  0  0  0  0  0  0  0  0  0
   32.1870   31.2990   37.1710 N   0  0  0  0  0  0  0  0  0  0  0  0
   32.1170   30.2370   36.3470 C   0  0  0  0  0  0  0  0  0  0  0  0
   30.9300   29.4620   36.4880 N   0  0  0  0  0  0  0  0  0  0  0  0
   33.1470   30.0020   35.4830 N   0  0  0  0  0  0  0  0  0  0  0  0
   34.1900   30.8630   35.5070 C   0  0  0  0  0  0  0  0  0  0  0  0
   39.1640   24.2150   34.5580 C   0  0  0  0  0  0  0  0  0  0  0  0
   40.3950   23.8220   34.0420 C   0  0  0  0  0  0  0  0  0  0  0  0
   41.3730   23.2020   34.7830 C   0  0  0  0  0  0  0  0  0  0  0  0
   41.1550   22.9420   36.1130 C   0  0  0  0  0  0  0  0  0  0  0  0
   39.9670   23.3050   36.6720 C   0  0  0  0  0  0  0  0  0  0  0  0
   39.7620   23.0380   38.0070 C   0  0  0  0  0  0  0  0  0  0  0  0
   38.6080   23.3670   38.6420 C   0  0  0  0  0  0  0  0  0  0  0  0
   37.6180   23.9980   37.8720 C   0  0  0  0  0  0  0  0  0  0  0  0
   37.8600   24.2480   36.5440 C   0  0  0  0  0  0  0  0  0  0  0  0
   39.0030   23.9260   35.9040 C   0  0  0  0  0  0  0  0  0  0  0  0
   36.2563   23.6816   31.2806 H   0  0  0  0  0  0  0  0  0  0  0  0
   35.4104   26.0650   31.2488 H   0  0  0  0  0  0  0  0  0  0  0  0
   36.7092   28.6159   30.9247 H   0  0  0  0  0  0  0  0  0  0  0  0
   37.0489   32.0651   34.6256 H   0  0  0  0  0  0  0  0  0  0  0  0
   31.4017   31.4612   37.8174 H   0  0  0  0  0  0  0  0  0  0  0  0
   30.7860   28.6288   35.8998 H   0  0  0  0  0  0  0  0  0  0  0  0
   30.2158   29.7348   37.1782 H   0  0  0  0  0  0  0  0  0  0  0  0
   40.5975   24.0189   32.9789 H   0  0  0  0  0  0  0  0  0  0  0  0
   42.3252   22.9158   34.3125 H   0  0  0  0  0  0  0  0  0  0  0  0
   41.9286   22.4475   36.7188 H   0  0  0  0  0  0  0  0  0  0  0  0
   40.5601   22.5414   38.5784 H   0  0  0  0  0  0  0  0  0  0  0  0
   38.4558   23.1494   39.7095 H   0  0  0  0  0  0  0  0  0  0  0  0
   36.6598   24.2886   38.3274 H   0  0  0  0  0  0  0  0  0  0  0  0
   37.0688   24.7442   35.9628 H   0  0  0  0  0  0  0  0  0  0  0  0
  1  6  2  0
  2  1  1  0
  2  3  2  0
  3  7  1  0
  3  4  1  0
  4  5  2  0
  5 23  1  0
  6  5  1  0
  7 11  1  0
  8  9  2  0
  8  7  1  0
  9 10  1  0
 10 11  2  0
 10 12  1  0
 12 13  1  0
 12 22  1  0
 13 14  2  0
 14 15  1  0
 15 16  1  0
 16 17  2  0
 18 16  1  0
 19 20  1  0
 19 18  1  0
 21 22  1  0
 21 19  2  0
 22 15  2  0
 23 32  1  0
 24 23  2  0
 24 25  1  0
 25 26  2  0
 26 27  1  0
 27 28  2  0
 28 29  1  0
 30 29  2  0
 31 30  1  0
 32 31  2  0
 32 27  1  0
  1 33  1  0
  2 34  1  0
  8 35  1  0
 13 36  1  0
 18 37  1  0
 20 38  1  0
 20 39  1  0
 24 40  1  0
 25 41  1  0
 26 42  1  0
 28 43  1  0
 29 44  1  0
 30 45  1  0
 31 46  1  0
M  END
>  <Score>  (1) 
-7.66813

$$$$
