
     RDKit          3D

 52 57  0  0  1  0  0  0  0  0999 V2000
   36.1330   20.6180   32.3120 N   0  0  0  0  0  0  0  0  0  0  0  0
   36.2190   19.2030   31.8680 C   0  0  0  0  0  0  0  0  0  0  0  0
   36.4860   19.2130   30.4130 C   0  0  0  0  0  0  0  0  0  0  0  0
   36.7180   20.6900   30.1430 C   0  0  0  0  0  0  0  0  0  0  0  0
   35.7340   21.3170   31.0880 C   0  0  2  0  0  0  0  0  0  0  0  0
   37.2040   21.7980   35.4840 C   0  0  0  0  0  0  0  0  0  0  0  0
   36.0470   21.0920   35.8350 C   0  0  0  0  0  0  0  0  0  0  0  0
   35.5090   20.5610   34.6530 C   0  0  0  0  0  0  0  0  0  0  0  0
   36.4070   21.0000   33.6600 C   0  0  0  0  0  0  0  0  0  0  0  0
   37.3430   21.6940   34.1830 O   0  0  0  0  0  0  0  0  0  0  0  0
   40.0200   22.7760   37.5760 C   0  0  0  0  0  0  0  0  0  0  0  0
   39.4490   23.6100   38.5300 C   0  0  0  0  0  0  0  0  0  0  0  0
   38.0600   23.8460   38.4530 C   0  0  0  0  0  0  0  0  0  0  0  0
   37.3320   23.2550   37.4610 N   0  0  0  0  0  0  0  0  0  0  0  0
   37.9440   22.4450   36.5510 C   0  0  0  0  0  0  0  0  0  0  0  0
   39.2640   22.2180   36.6200 N   0  0  0  0  0  0  0  0  0  0  0  0
   36.0610   22.7330   31.2700 C   0  0  0  0  0  0  0  0  0  0  0  0
   35.2150   23.7800   31.3890 C   0  0  0  0  0  0  0  0  0  0  0  0
   36.0010   24.9340   31.5210 C   0  0  0  0  0  0  0  0  0  0  0  0
   37.3040   24.5130   31.4730 N   0  0  0  0  0  0  0  0  0  0  0  0
   37.3380   23.1860   31.3230 N   0  0  0  0  0  0  0  0  0  0  0  0
   38.3640   25.4610   31.5820 C   0  0  0  0  0  0  0  0  0  0  0  0
   38.7420   25.9860   30.3440 C   0  0  0  0  0  0  0  0  0  0  0  0
   39.7580   26.9170   30.2850 C   0  0  0  0  0  0  0  0  0  0  0  0
   40.4110   27.3390   31.4390 C   0  0  0  0  0  0  0  0  0  0  0  0
   40.0100   26.7970   32.6450 C   0  0  0  0  0  0  0  0  0  0  0  0
   40.6160   27.1730   33.8250 C   0  0  0  0  0  0  0  0  0  0  0  0
   40.1920   26.6120   35.0240 C   0  0  0  0  0  0  0  0  0  0  0  0
   39.1660   25.6710   35.0800 C   0  0  0  0  0  0  0  0  0  0  0  0
   38.5430   25.2800   33.8940 C   0  0  0  0  0  0  0  0  0  0  0  0
   38.9990   25.8660   32.7380 C   0  0  0  0  0  0  0  0  0  0  0  0
   37.0367   18.6917   32.3971 H   0  0  0  0  0  0  0  0  0  0  0  0
   35.2831   18.6686   32.0881 H   0  0  0  0  0  0  0  0  0  0  0  0
   37.3771   18.6171   30.1663 H   0  0  0  0  0  0  0  0  0  0  0  0
   35.6764   18.7745   29.8111 H   0  0  0  0  0  0  0  0  0  0  0  0
   37.7503   20.9860   30.3810 H   0  0  0  0  0  0  0  0  0  0  0  0
   36.5840   20.9833   29.0913 H   0  0  0  0  0  0  0  0  0  0  0  0
   34.6786   21.2509   30.7850 H   0  0  0  0  0  0  0  0  0  0  0  0
   35.6363   20.9754   36.8487 H   0  0  0  0  0  0  0  0  0  0  0  0
   34.6033   19.9488   34.5308 H   0  0  0  0  0  0  0  0  0  0  0  0
   41.1006   22.5723   37.6057 H   0  0  0  0  0  0  0  0  0  0  0  0
   40.0603   24.0713   39.3197 H   0  0  0  0  0  0  0  0  0  0  0  0
   37.5676   24.5012   39.1867 H   0  0  0  0  0  0  0  0  0  0  0  0
   34.1159   23.7355   31.3834 H   0  0  0  0  0  0  0  0  0  0  0  0
   35.6438   25.9677   31.6391 H   0  0  0  0  0  0  0  0  0  0  0  0
   38.2340   25.6599   29.4244 H   0  0  0  0  0  0  0  0  0  0  0  0
   40.0565   27.3321   29.3111 H   0  0  0  0  0  0  0  0  0  0  0  0
   41.2215   28.0812   31.3926 H   0  0  0  0  0  0  0  0  0  0  0  0
   41.4302   27.9126   33.8176 H   0  0  0  0  0  0  0  0  0  0  0  0
   40.6824   26.9210   35.9589 H   0  0  0  0  0  0  0  0  0  0  0  0
   38.8521   25.2432   36.0435 H   0  0  0  0  0  0  0  0  0  0  0  0
   37.7286   24.5406   33.8852 H   0  0  0  0  0  0  0  0  0  0  0  0
  1  9  1  0
  2  1  1  0
  3  2  1  0
  4  3  1  0
  4  5  1  0
  5 17  1  0
  5  1  1  0
  6  7  2  0
  6 15  1  0
  8  7  1  0
  9 10  1  0
  9  8  2  0
 10  6  1  0
 11 12  2  0
 13 12  1  0
 14 13  2  0
 15 16  2  0
 15 14  1  0
 16 11  1  0
 17 21  2  0
 17 18  1  0
 18 19  2  0
 20 19  1  0
 20 22  1  0
 21 20  1  0
 22 31  1  0
 23 22  2  0
 24 23  1  0
 24 25  2  0
 25 26  1  0
 26 31  2  0
 26 27  1  0
 27 28  2  0
 28 29  1  0
 30 29  2  0
 31 30  1  0
  2 32  1  0
  2 33  1  0
  3 34  1  0
  3 35  1  0
  4 36  1  0
  4 37  1  0
  5 38  1  6
  7 39  1  0
  8 40  1  0
 11 41  1  0
 12 42  1  0
 13 43  1  0
 18 44  1  0
 19 45  1  0
 23 46  1  0
 24 47  1  0
 25 48  1  0
 27 49  1  0
 28 50  1  0
 29 51  1  0
 30 52  1  0
M  END
>  <Score>  (1) 
-7.01728

$$$$
