
     RDKit          3D

 48 52  0  0  1  0  0  0  0  0999 V2000
   45.7380   31.9600   38.5290 C   0  0  2  0  0  0  0  0  0  0  0  0
   46.5890   30.9270   37.8930 C   0  0  0  0  0  0  0  0  0  0  0  0
   45.8550   32.0020   37.0840 C   0  0  1  0  0  0  0  0  0  0  0  0
   46.4260   34.2420   41.3380 C   0  0  0  0  0  0  0  0  0  0  0  0
   47.5930   34.8050   40.8320 C   0  0  0  0  0  0  0  0  0  0  0  0
   48.1710   34.4790   39.6250 C   0  0  0  0  0  0  0  0  0  0  0  0
   47.5470   33.5180   38.8530 C   0  0  0  0  0  0  0  0  0  0  0  0
   46.4000   32.9780   39.3680 C   0  0  0  0  0  0  0  0  0  0  0  0
   45.8830   33.3250   40.5350 N   0  0  0  0  0  0  0  0  0  0  0  0
   44.7070   36.0080   44.1850 C   0  0  0  0  0  0  0  0  0  0  0  0
   45.1930   35.8110   42.8750 C   0  0  0  0  0  0  0  0  0  0  0  0
   45.8560   34.6220   42.6290 C   0  0  0  0  0  0  0  0  0  0  0  0
   46.0060   33.7230   43.6280 N   0  0  0  0  0  0  0  0  0  0  0  0
   45.5180   33.9580   44.8820 C   0  0  0  0  0  0  0  0  0  0  0  0
   44.8790   35.0970   45.1340 N   0  0  0  0  0  0  0  0  0  0  0  0
   44.8100   31.5340   36.2690 O   0  0  0  0  0  0  0  0  0  0  0  0
   44.1720   30.6200   33.9740 O   0  0  0  0  0  0  0  0  0  0  0  0
   45.2090   31.5400   34.6260 P   0  0  1  0  0  0  0  0  0  0  0  0
   44.9680   33.0690   33.9760 O   0  0  0  0  0  0  0  0  0  0  0  0
   46.7040   30.8860   34.2730 O   0  0  0  0  0  0  0  0  0  0  0  0
   47.1460   30.3840   33.0720 C   0  0  0  0  0  0  0  0  0  0  0  0
   46.9440   29.1920   32.4160 C   0  0  0  0  0  0  0  0  0  0  0  0
   47.5020   28.9040   31.1910 C   0  0  0  0  0  0  0  0  0  0  0  0
   48.3070   29.8110   30.5440 C   0  0  0  0  0  0  0  0  0  0  0  0
   48.5300   31.0210   31.1810 C   0  0  0  0  0  0  0  0  0  0  0  0
   49.3460   31.8870   30.4810 C   0  0  0  0  0  0  0  0  0  0  0  0
   49.6240   33.1180   31.0350 C   0  0  0  0  0  0  0  0  0  0  0  0
   49.0940   33.4570   32.2540 C   0  0  0  0  0  0  0  0  0  0  0  0
   48.2960   32.5650   32.8980 C   0  0  0  0  0  0  0  0  0  0  0  0
   47.9620   31.3120   32.4240 C   0  0  0  0  0  0  0  0  0  0  0  0
   44.8694   31.9430   39.2037 H   0  0  0  0  0  0  0  0  0  0  0  0
   47.6830   30.9623   38.0022 H   0  0  0  0  0  0  0  0  0  0  0  0
   46.6341   29.8279   37.8925 H   0  0  0  0  0  0  0  0  0  0  0  0
   46.1145   32.8013   36.3742 H   0  0  0  0  0  0  0  0  0  0  0  0
   48.0933   35.5703   41.4435 H   0  0  0  0  0  0  0  0  0  0  0  0
   49.0973   34.9669   39.2874 H   0  0  0  0  0  0  0  0  0  0  0  0
   47.9498   33.2044   37.8786 H   0  0  0  0  0  0  0  0  0  0  0  0
   44.1728   36.9391   44.4251 H   0  0  0  0  0  0  0  0  0  0  0  0
   45.0516   36.5661   42.0877 H   0  0  0  0  0  0  0  0  0  0  0  0
   45.6525   33.2106   45.6778 H   0  0  0  0  0  0  0  0  0  0  0  0
   44.8644   33.7265   34.7088 H   0  0  0  0  0  0  0  0  0  0  0  0
   46.3064   28.4330   32.8928 H   0  0  0  0  0  0  0  0  0  0  0  0
   47.2999   27.9301   30.7213 H   0  0  0  0  0  0  0  0  0  0  0  0
   48.7541   29.5863   29.5644 H   0  0  0  0  0  0  0  0  0  0  0  0
   49.7643   31.6014   29.5045 H   0  0  0  0  0  0  0  0  0  0  0  0
   50.2709   33.8286   30.4997 H   0  0  0  0  0  0  0  0  0  0  0  0
   49.3118   34.4369   32.7039 H   0  0  0  0  0  0  0  0  0  0  0  0
   47.8841   32.8647   33.8729 H   0  0  0  0  0  0  0  0  0  0  0  0
  1  8  1  0
  2  1  1  0
  3  2  1  0
  3  1  1  0
  4 12  1  0
  5  4  2  0
  6  5  1  0
  7  8  1  0
  7  6  2  0
  8  9  2  0
  9  4  1  0
 10 15  2  0
 11 10  1  0
 12 11  2  0
 12 13  1  0
 13 14  2  0
 14 15  1  0
 16  3  1  0
 18 17  2  0
 18 16  1  1
 19 18  1  0
 20 18  1  0
 21 20  1  0
 22 21  2  0
 23 22  1  0
 24 25  1  0
 24 23  2  0
 25 30  2  0
 26 27  2  0
 26 25  1  0
 27 28  1  0
 28 29  2  0
 30 29  1  0
 30 21  1  0
  1 31  1  6
  2 32  1  0
  2 33  1  0
  3 34  1  6
  5 35  1  0
  6 36  1  0
  7 37  1  0
 10 38  1  0
 11 39  1  0
 14 40  1  0
 19 41  1  0
 22 42  1  0
 23 43  1  0
 24 44  1  0
 26 45  1  0
 27 46  1  0
 28 47  1  0
 29 48  1  0
M  END
>  <Score>  (1) 
-7.44512

>  <Score_dual>  (1) 
-7.01

>  <Choices>  (1) 
[None, 8, ['6-16', 270], 18, ['16-23', 150], 25, ['10-2', 165], 31, ['26-16', 345]]

$$$$
