
     RDKit          3D

 44 48  0  0  0  0  0  0  0  0999 V2000
   44.4770   35.6170   44.6780 C   0  0  0  0  0  0  0  0  0  0  0  0
   44.5940   35.1940   43.3570 C   0  0  0  0  0  0  0  0  0  0  0  0
   45.2300   33.9540   43.1150 C   0  0  0  0  0  0  0  0  0  0  0  0
   45.6870   33.2560   44.1750 N   0  0  0  0  0  0  0  0  0  0  0  0
   45.5580   33.6940   45.4480 C   0  0  0  0  0  0  0  0  0  0  0  0
   44.9460   34.8870   45.6810 N   0  0  0  0  0  0  0  0  0  0  0  0
   46.0330   32.9800   46.6260 C   0  0  0  0  0  0  0  0  0  0  0  0
   45.2410   32.8420   47.7630 C   0  0  0  0  0  0  0  0  0  0  0  0
   45.9750   32.1200   48.6900 C   0  0  0  0  0  0  0  0  0  0  0  0
   47.1640   31.8410   48.1180 N   0  0  0  0  0  0  0  0  0  0  0  0
   47.1670   32.3630   46.8940 N   0  0  0  0  0  0  0  0  0  0  0  0
   48.5370   29.7910   48.3470 C   0  0  0  0  0  0  0  0  0  0  0  0
   48.3090   31.1350   48.5860 C   0  0  0  0  0  0  0  0  0  0  0  0
   49.2460   31.8600   49.3270 C   0  0  0  0  0  0  0  0  0  0  0  0
   50.3840   31.2150   49.8070 C   0  0  0  0  0  0  0  0  0  0  0  0
   50.6280   29.8560   49.5740 C   0  0  0  0  0  0  0  0  0  0  0  0
   49.6730   29.1560   48.8300 C   0  0  0  0  0  0  0  0  0  0  0  0
   46.7420   28.5320   46.9400 N   0  0  0  0  0  0  0  0  0  0  0  0
   47.5410   29.0970   47.5800 C   0  0  0  0  0  0  0  0  0  0  0  0
   44.1350   35.8870   42.2500 O   0  0  0  0  0  0  0  0  0  0  0  0
   43.4000   35.3270   41.2110 C   0  0  0  0  0  0  0  0  0  0  0  0
   43.8810   34.6300   40.1310 C   0  0  0  0  0  0  0  0  0  0  0  0
   43.0110   34.1380   39.1810 C   0  0  0  0  0  0  0  0  0  0  0  0
   41.6410   34.3170   39.2680 C   0  0  0  0  0  0  0  0  0  0  0  0
   40.8610   33.8160   38.3190 N   0  0  0  0  0  0  0  0  0  0  0  0
   39.5190   33.9710   38.3700 C   0  0  0  0  0  0  0  0  0  0  0  0
   38.9910   34.6690   39.4450 C   0  0  0  0  0  0  0  0  0  0  0  0
   39.8120   35.1990   40.4490 C   0  0  0  0  0  0  0  0  0  0  0  0
   41.1780   35.0210   40.3620 C   0  0  0  0  0  0  0  0  0  0  0  0
   42.0390   35.5320   41.3410 C   0  0  0  0  0  0  0  0  0  0  0  0
   43.9852   36.5768   44.8945 H   0  0  0  0  0  0  0  0  0  0  0  0
   45.3486   33.5696   42.0912 H   0  0  0  0  0  0  0  0  0  0  0  0
   44.2221   33.2334   47.8997 H   0  0  0  0  0  0  0  0  0  0  0  0
   45.6500   31.8297   49.7000 H   0  0  0  0  0  0  0  0  0  0  0  0
   49.0868   32.9294   49.5294 H   0  0  0  0  0  0  0  0  0  0  0  0
   51.1163   31.7936   50.3893 H   0  0  0  0  0  0  0  0  0  0  0  0
   51.5314   29.3607   49.9594 H   0  0  0  0  0  0  0  0  0  0  0  0
   49.8243   28.0860   48.6244 H   0  0  0  0  0  0  0  0  0  0  0  0
   44.9629   34.4635   40.0230 H   0  0  0  0  0  0  0  0  0  0  0  0
   43.4201   33.5836   38.3235 H   0  0  0  0  0  0  0  0  0  0  0  0
   38.8684   33.5574   37.5854 H   0  0  0  0  0  0  0  0  0  0  0  0
   37.9021   34.8100   39.5113 H   0  0  0  0  0  0  0  0  0  0  0  0
   39.3741   35.7493   41.2948 H   0  0  0  0  0  0  0  0  0  0  0  0
   41.6382   36.0885   42.2011 H   0  0  0  0  0  0  0  0  0  0  0  0
  1  6  2  0
  2  1  1  0
  3  2  2  0
  3  4  1  0
  4  5  2  0
  5  6  1  0
  5  7  1  0
  7 11  2  0
  7  8  1  0
  8  9  2  0
 10 13  1  0
 10  9  1  0
 11 10  1  0
 12 13  2  0
 12 17  1  0
 13 14  1  0
 14 15  2  0
 16 15  1  0
 17 16  2  0
 18 19  3  0
 19 12  1  0
 20  2  1  0
 21 30  1  0
 21 20  1  0
 22 21  2  0
 23 24  2  0
 23 22  1  0
 24 29  1  0
 25 26  2  0
 25 24  1  0
 26 27  1  0
 27 28  2  0
 29 28  1  0
 29 30  2  0
  1 31  1  0
  3 32  1  0
  8 33  1  0
  9 34  1  0
 14 35  1  0
 15 36  1  0
 16 37  1  0
 17 38  1  0
 22 39  1  0
 23 40  1  0
 26 41  1  0
 27 42  1  0
 28 43  1  0
 30 44  1  0
M  END
>  <Score>  (1) 
-7.48002

>  <Score_dual>  (1) 
-7.24

>  <Choices>  (1) 
[None, 7, ['2-1', 0], 10, ['36-22', 315], 25, ['22-8', 345], 32, ['40-15', 330]]

$$$$
