
     RDKit          3D

 51 55  0  0  0  0  0  0  0  0999 V2000
   44.5520   35.2640   45.1250 C   0  0  0  0  0  0  0  0  0  0  0  0
   45.1470   35.2870   43.8860 C   0  0  0  0  0  0  0  0  0  0  0  0
   46.2030   34.4070   43.5920 C   0  0  0  0  0  0  0  0  0  0  0  0
   46.5330   33.5920   44.6170 N   0  0  0  0  0  0  0  0  0  0  0  0
   45.9660   33.5660   45.8030 C   0  0  0  0  0  0  0  0  0  0  0  0
   44.9770   34.4110   46.0370 N   0  0  0  0  0  0  0  0  0  0  0  0
   46.9050   34.3160   42.3620 C   0  0  0  0  0  0  0  0  0  0  0  0
   47.8410   35.3070   42.0840 C   0  0  0  0  0  0  0  0  0  0  0  0
   48.6070   35.3760   40.9440 C   0  0  0  0  0  0  0  0  0  0  0  0
   48.4820   34.4250   39.9800 C   0  0  0  0  0  0  0  0  0  0  0  0
   47.5750   33.4090   40.1810 C   0  0  0  0  0  0  0  0  0  0  0  0
   47.3980   32.4220   39.2520 C   0  0  0  0  0  0  0  0  0  0  0  0
   46.5070   31.3970   39.4150 C   0  0  0  0  0  0  0  0  0  0  0  0
   45.7520   31.3830   40.6050 C   0  0  0  0  0  0  0  0  0  0  0  0
   45.9600   32.3930   41.5140 C   0  0  0  0  0  0  0  0  0  0  0  0
   46.8310   33.3940   41.3510 C   0  0  0  0  0  0  0  0  0  0  0  0
   45.1300   32.2430   42.6470 N   0  0  0  0  0  0  0  0  0  0  0  0
   46.5370   32.5540   46.7470 C   0  0  0  0  0  0  0  0  0  0  0  0
   45.5640   31.9600   47.4900 F   0  0  0  0  0  0  0  0  0  0  0  0
   47.4960   33.1360   47.5570 F   0  0  0  0  0  0  0  0  0  0  0  0
   47.2700   31.6020   46.0000 F   0  0  0  0  0  0  0  0  0  0  0  0
   44.7850   36.1980   42.7640 C   0  0  0  0  0  0  0  0  0  0  0  0
   44.4270   35.5110   41.5060 C   0  0  0  0  0  0  0  0  0  0  0  0
   42.9860   35.1820   41.3450 C   0  0  0  0  0  0  0  0  0  0  0  0
   41.9120   35.5560   42.0530 N   0  0  0  0  0  0  0  0  0  0  0  0
   40.6520   35.2440   41.8610 C   0  0  0  0  0  0  0  0  0  0  0  0
   40.3060   34.4470   40.8400 N   0  0  0  0  0  0  0  0  0  0  0  0
   41.2950   33.9920   40.0380 C   0  0  0  0  0  0  0  0  0  0  0  0
   40.8780   33.1730   39.0120 C   0  0  0  0  0  0  0  0  0  0  0  0
   41.8340   32.6650   38.1590 C   0  0  0  0  0  0  0  0  0  0  0  0
   43.1620   32.9830   38.3490 C   0  0  0  0  0  0  0  0  0  0  0  0
   43.4880   33.8110   39.4030 C   0  0  0  0  0  0  0  0  0  0  0  0
   42.5980   34.3630   40.3030 C   0  0  0  0  0  0  0  0  0  0  0  0
   43.7260   35.9532   45.3547 H   0  0  0  0  0  0  0  0  0  0  0  0
   47.9793   36.0981   42.8357 H   0  0  0  0  0  0  0  0  0  0  0  0
   49.3218   36.2016   40.8117 H   0  0  0  0  0  0  0  0  0  0  0  0
   49.0895   34.4664   39.0639 H   0  0  0  0  0  0  0  0  0  0  0  0
   47.9994   32.4534   38.3315 H   0  0  0  0  0  0  0  0  0  0  0  0
   46.3849   30.6165   38.6495 H   0  0  0  0  0  0  0  0  0  0  0  0
   45.0180   30.5874   40.8006 H   0  0  0  0  0  0  0  0  0  0  0  0
   45.1768   32.9288   43.4141 H   0  0  0  0  0  0  0  0  0  0  0  0
   44.4780   31.4478   42.7061 H   0  0  0  0  0  0  0  0  0  0  0  0
   43.9246   36.8063   43.0797 H   0  0  0  0  0  0  0  0  0  0  0  0
   45.6811   36.7982   42.5478 H   0  0  0  0  0  0  0  0  0  0  0  0
   44.7220   36.1609   40.6690 H   0  0  0  0  0  0  0  0  0  0  0  0
   44.9568   34.5472   41.5265 H   0  0  0  0  0  0  0  0  0  0  0  0
   39.8792   35.6366   42.5382 H   0  0  0  0  0  0  0  0  0  0  0  0
   39.8133   32.9315   38.8774 H   0  0  0  0  0  0  0  0  0  0  0  0
   41.5381   32.0073   37.3284 H   0  0  0  0  0  0  0  0  0  0  0  0
   43.9396   32.5876   37.6790 H   0  0  0  0  0  0  0  0  0  0  0  0
   44.5524   34.0533   39.5387 H   0  0  0  0  0  0  0  0  0  0  0  0
  1  6  2  0
  2  1  1  0
  3  2  2  0
  3  4  1  0
  4  5  2  0
  5  6  1  0
  5 18  1  0
  7  3  1  0
  8  7  2  0
  9  8  1  0
 10 11  1  0
 10  9  2  0
 11 16  2  0
 12 13  2  0
 12 11  1  0
 13 14  1  0
 14 15  2  0
 15 17  1  0
 16 15  1  0
 16  7  1  0
 18 19  1  0
 18 20  1  0
 21 18  1  0
 22  2  1  0
 23 22  1  0
 24 23  1  0
 24 25  2  0
 26 25  1  0
 27 26  2  0
 28 33  2  0
 28 27  1  0
 29 28  1  0
 30 31  1  0
 30 29  2  0
 31 32  2  0
 32 33  1  0
 33 24  1  0
  1 34  1  0
  8 35  1  0
  9 36  1  0
 10 37  1  0
 12 38  1  0
 13 39  1  0
 14 40  1  0
 17 41  1  0
 17 42  1  0
 22 43  1  0
 22 44  1  0
 23 45  1  0
 23 46  1  0
 26 47  1  0
 29 48  1  0
 30 49  1  0
 31 50  1  0
 32 51  1  0
M  END
>  <Score>  (1) 
-7.33415

>  <Score_dual>  (1) 
-7.05

>  <Choices>  (1) 
[None, 9, ['11-12', 165], 12, ['26-24', 165], 28, ['0-2', 0], 28, ['4-10', 255], 34, ['47-18', 165]]

$$$$
