
     RDKit          3D

 44 47  0  0  0  0  0  0  0  0999 V2000
   45.0810   33.3670   41.1100 F   0  0  0  0  0  0  0  0  0  0  0  0
   46.2650   33.9610   40.9480 C   0  0  0  0  0  0  0  0  0  0  0  0
   46.7940   34.7250   41.9780 C   0  0  0  0  0  0  0  0  0  0  0  0
   48.0210   35.3690   41.8850 C   0  0  0  0  0  0  0  0  0  0  0  0
   48.7670   35.2540   40.7140 C   0  0  0  0  0  0  0  0  0  0  0  0
   48.2090   34.4850   39.7110 C   0  0  0  0  0  0  0  0  0  0  0  0
   47.0100   33.8470   39.7820 C   0  0  0  0  0  0  0  0  0  0  0  0
   45.4580   34.0280   45.3270 C   0  0  0  0  0  0  0  0  0  0  0  0
   44.6440   35.1580   45.5540 C   0  0  0  0  0  0  0  0  0  0  0  0
   44.5580   36.1540   44.5550 C   0  0  0  0  0  0  0  0  0  0  0  0
   45.2840   35.9490   43.4150 N   0  0  0  0  0  0  0  0  0  0  0  0
   46.0440   34.8710   43.2310 C   0  0  0  0  0  0  0  0  0  0  0  0
   46.1300   33.9200   44.1770 N   0  0  0  0  0  0  0  0  0  0  0  0
   45.5410   33.0290   46.3310 N   0  0  0  0  0  0  0  0  0  0  0  0
   46.5520   33.1110   38.7230 O   0  0  0  0  0  0  0  0  0  0  0  0
   47.7790   34.5740   36.8790 O   0  0  0  0  0  0  0  0  0  0  0  0
   46.9560   33.3490   37.1030 P   0  0  2  0  0  0  0  0  0  0  0  0
   45.5000   33.4410   36.2050 O   0  0  0  0  0  0  0  0  0  0  0  0
   47.7580   32.0150   36.4360 O   0  0  0  0  0  0  0  0  0  0  0  0
   47.4060   31.3410   35.3000 C   0  0  0  0  0  0  0  0  0  0  0  0
   46.4590   30.3170   35.2470 C   0  0  0  0  0  0  0  0  0  0  0  0
   46.1300   29.6580   34.0760 C   0  0  0  0  0  0  0  0  0  0  0  0
   46.7630   30.0270   32.9090 C   0  0  0  0  0  0  0  0  0  0  0  0
   47.6980   31.0290   32.9220 C   0  0  0  0  0  0  0  0  0  0  0  0
   48.2890   31.3430   31.7110 C   0  0  0  0  0  0  0  0  0  0  0  0
   49.2470   32.3510   31.6550 C   0  0  0  0  0  0  0  0  0  0  0  0
   49.5800   33.0120   32.8190 C   0  0  0  0  0  0  0  0  0  0  0  0
   48.9870   32.6930   34.0180 C   0  0  0  0  0  0  0  0  0  0  0  0
   48.0330   31.6960   34.1020 C   0  0  0  0  0  0  0  0  0  0  0  0
   48.4004   35.9646   42.7284 H   0  0  0  0  0  0  0  0  0  0  0  0
   49.7433   35.7467   40.5950 H   0  0  0  0  0  0  0  0  0  0  0  0
   48.7819   34.3801   38.7778 H   0  0  0  0  0  0  0  0  0  0  0  0
   44.0843   35.2622   46.4952 H   0  0  0  0  0  0  0  0  0  0  0  0
   43.9363   37.0516   44.6885 H   0  0  0  0  0  0  0  0  0  0  0  0
   46.1303   32.1974   46.1825 H   0  0  0  0  0  0  0  0  0  0  0  0
   45.0120   33.1354   47.2084 H   0  0  0  0  0  0  0  0  0  0  0  0
   44.7312   33.4896   36.8269 H   0  0  0  0  0  0  0  0  0  0  0  0
   45.9520   30.0210   36.1772 H   0  0  0  0  0  0  0  0  0  0  0  0
   45.3779   28.8553   34.0765 H   0  0  0  0  0  0  0  0  0  0  0  0
   46.5176   29.5168   31.9659 H   0  0  0  0  0  0  0  0  0  0  0  0
   48.0035   30.7994   30.7983 H   0  0  0  0  0  0  0  0  0  0  0  0
   49.7287   32.6152   30.7020 H   0  0  0  0  0  0  0  0  0  0  0  0
   50.3356   33.8108   32.7875 H   0  0  0  0  0  0  0  0  0  0  0  0
   49.2770   33.2410   34.9266 H   0  0  0  0  0  0  0  0  0  0  0  0
  2  1  1  0
  2  3  2  0
  3 12  1  0
  4  3  1  0
  5  4  2  0
  6  7  2  0
  6  5  1  0
  7  2  1  0
  8  9  2  0
  8 14  1  0
 10  9  1  0
 11 10  2  0
 12 11  1  0
 12 13  2  0
 13  8  1  0
 15  7  1  0
 17 16  2  0
 17 15  1  1
 18 17  1  0
 19 17  1  0
 20 19  1  0
 21 20  2  0
 22 21  1  0
 23 24  1  0
 23 22  2  0
 24 29  2  0
 25 24  1  0
 26 25  2  0
 26 27  1  0
 27 28  2  0
 28 29  1  0
 29 20  1  0
  4 30  1  0
  5 31  1  0
  6 32  1  0
  9 33  1  0
 10 34  1  0
 14 35  1  0
 14 36  1  0
 18 37  1  0
 21 38  1  0
 22 39  1  0
 23 40  1  0
 25 41  1  0
 26 42  1  0
 27 43  1  0
 28 44  1  0
M  END
>  <Score>  (1) 
-7.41228

>  <Score_dual>  (1) 
-7.91

>  <Choices>  (1) 
[None, 6, ['0-3', 105], 9, ['9-17', 255], 21, ['10-2', 180], 27, ['26-17', 195]]

$$$$
