
     RDKit          3D

 54 58  0  0  1  0  0  0  0  0999 V2000
   47.8740   34.3810   42.8420 C   0  0  0  0  0  0  0  0  0  0  0  0
   48.9690   34.0720   41.9760 N   0  0  0  0  0  0  0  0  0  0  0  0
   50.2070   34.0310   42.6690 C   0  0  0  0  0  0  0  0  0  0  0  0
   51.0520   32.9410   42.0510 C   0  0  0  0  0  0  0  0  0  0  0  0
   50.0410   32.0420   41.4210 C   0  0  0  0  0  0  0  0  0  0  0  0
   48.7730   32.8650   41.2420 C   0  0  2  0  0  0  0  0  0  0  0  0
   48.6400   33.1200   39.7640 C   0  0  0  0  0  0  0  0  0  0  0  0
   48.1850   34.2620   39.1370 C   0  0  0  0  0  0  0  0  0  0  0  0
   48.1420   34.2920   37.7720 C   0  0  0  0  0  0  0  0  0  0  0  0
   48.5460   33.1980   37.0240 C   0  0  0  0  0  0  0  0  0  0  0  0
   48.4970   33.2450   35.6730 N   0  0  0  0  0  0  0  0  0  0  0  0
   48.8850   32.1910   34.9330 C   0  0  0  0  0  0  0  0  0  0  0  0
   49.3510   31.0130   35.4680 C   0  0  0  0  0  0  0  0  0  0  0  0
   49.4080   30.9510   36.8580 C   0  0  0  0  0  0  0  0  0  0  0  0
   49.0120   32.0270   37.6300 C   0  0  0  0  0  0  0  0  0  0  0  0
   49.0440   32.0270   39.0200 C   0  0  0  0  0  0  0  0  0  0  0  0
   45.7320   35.0490   41.8200 C   0  0  0  0  0  0  0  0  0  0  0  0
   46.5360   34.0740   42.2400 C   0  0  0  0  0  0  0  0  0  0  0  0
   44.1490   33.6590   40.4020 C   0  0  0  0  0  0  0  0  0  0  0  0
   44.4180   34.7960   41.2260 C   0  0  0  0  0  0  0  0  0  0  0  0
   43.3830   35.7120   41.4790 C   0  0  0  0  0  0  0  0  0  0  0  0
   42.1620   35.4740   40.9260 N   0  0  0  0  0  0  0  0  0  0  0  0
   41.9450   34.3950   40.1570 C   0  0  0  0  0  0  0  0  0  0  0  0
   42.9320   33.5190   39.9120 N   0  0  0  0  0  0  0  0  0  0  0  0
   39.8030   33.5790   41.7100 F   0  0  0  0  0  0  0  0  0  0  0  0
   39.5700   33.7790   40.3850 C   0  0  0  0  0  0  0  0  0  0  0  0
   40.6230   34.1860   39.5890 C   0  0  0  0  0  0  0  0  0  0  0  0
   40.4630   34.4100   38.2310 C   0  0  0  0  0  0  0  0  0  0  0  0
   39.2030   34.2130   37.6790 C   0  0  0  0  0  0  0  0  0  0  0  0
   38.1230   33.8010   38.4630 C   0  0  0  0  0  0  0  0  0  0  0  0
   38.3100   33.5810   39.8370 C   0  0  0  0  0  0  0  0  0  0  0  0
   47.9837   33.7946   43.7662 H   0  0  0  0  0  0  0  0  0  0  0  0
   47.9047   35.4641   43.0317 H   0  0  0  0  0  0  0  0  0  0  0  0
   50.7198   34.9996   42.5748 H   0  0  0  0  0  0  0  0  0  0  0  0
   50.0406   33.8265   43.7369 H   0  0  0  0  0  0  0  0  0  0  0  0
   51.7378   33.3535   41.2963 H   0  0  0  0  0  0  0  0  0  0  0  0
   51.6925   32.4251   42.7815 H   0  0  0  0  0  0  0  0  0  0  0  0
   50.4043   31.6887   40.4447 H   0  0  0  0  0  0  0  0  0  0  0  0
   49.8530   31.1580   42.0481 H   0  0  0  0  0  0  0  0  0  0  0  0
   47.8585   32.3725   41.6042 H   0  0  0  0  0  0  0  0  0  0  0  0
   47.8625   35.1331   39.7262 H   0  0  0  0  0  0  0  0  0  0  0  0
   47.7819   35.1965   37.2600 H   0  0  0  0  0  0  0  0  0  0  0  0
   48.8262   32.2761   33.8379 H   0  0  0  0  0  0  0  0  0  0  0  0
   49.6608   30.1686   34.8347 H   0  0  0  0  0  0  0  0  0  0  0  0
   49.7722   30.0355   37.3471 H   0  0  0  0  0  0  0  0  0  0  0  0
   49.4021   31.1288   39.5444 H   0  0  0  0  0  0  0  0  0  0  0  0
   46.0701   36.0906   41.9240 H   0  0  0  0  0  0  0  0  0  0  0  0
   46.2132   33.0269   42.1436 H   0  0  0  0  0  0  0  0  0  0  0  0
   44.9349   32.9213   40.1826 H   0  0  0  0  0  0  0  0  0  0  0  0
   43.5548   36.5983   42.1075 H   0  0  0  0  0  0  0  0  0  0  0  0
   41.3092   34.7345   37.6076 H   0  0  0  0  0  0  0  0  0  0  0  0
   39.0532   34.3850   36.6029 H   0  0  0  0  0  0  0  0  0  0  0  0
   37.1333   33.6500   38.0073 H   0  0  0  0  0  0  0  0  0  0  0  0
   37.4707   33.2566   40.4697 H   0  0  0  0  0  0  0  0  0  0  0  0
  2  3  1  0
  2  1  1  0
  4  3  1  0
  5  4  1  0
  6  5  1  0
  6  2  1  0
  7  6  1  0
  8  7  2  0
  9  8  1  0
 10 15  1  0
 10  9  2  0
 11 10  1  0
 12 13  1  0
 12 11  2  0
 13 14  2  0
 14 15  1  0
 15 16  2  0
 16  7  1  0
 17 18  2  0
 18  1  1  0
 19 20  2  0
 20 21  1  0
 20 17  1  0
 22 21  2  0
 23 22  1  0
 24 23  2  0
 24 19  1  0
 26 25  1  0
 27 23  1  0
 27 26  2  0
 28 27  1  0
 29 28  2  0
 29 30  1  0
 30 31  2  0
 31 26  1  0
  1 32  1  0
  1 33  1  0
  3 34  1  0
  3 35  1  0
  4 36  1  0
  4 37  1  0
  5 38  1  0
  5 39  1  0
  6 40  1  1
  8 41  1  0
  9 42  1  0
 12 43  1  0
 13 44  1  0
 14 45  1  0
 16 46  1  0
 17 47  1  0
 18 48  1  0
 19 49  1  0
 21 50  1  0
 28 51  1  0
 29 52  1  0
 30 53  1  0
 31 54  1  0
M  END
>  <Score>  (1) 
-7.33319

>  <Score_dual>  (1) 
-7.04

>  <Choices>  (1) 
[None, 7, ['42-13', 90], 11, ['9-18', 270], 26, ['13-5', 225], 38, ['36-25', 90]]

$$$$
