
     RDKit          3D

 50 54  0  0  0  0  0  0  0  0999 V2000
   47.4460   32.3180   47.7600 C   0  0  0  0  0  0  0  0  0  0  0  0
   47.3400   31.3290   46.7400 C   0  0  0  0  0  0  0  0  0  0  0  0
   48.1040   30.1670   46.9100 C   0  0  0  0  0  0  0  0  0  0  0  0
   48.8870   30.0500   48.0130 N   0  0  0  0  0  0  0  0  0  0  0  0
   48.9600   31.0020   48.9480 C   0  0  0  0  0  0  0  0  0  0  0  0
   48.2470   32.1120   48.8120 N   0  0  0  0  0  0  0  0  0  0  0  0
   49.8150   30.8370   50.1190 C   0  0  0  0  0  0  0  0  0  0  0  0
   50.0370   29.5790   50.6420 C   0  0  0  0  0  0  0  0  0  0  0  0
   50.8470   29.4320   51.7510 C   0  0  0  0  0  0  0  0  0  0  0  0
   51.4650   30.4890   52.3850 C   0  0  0  0  0  0  0  0  0  0  0  0
   51.2290   31.7300   51.8450 C   0  0  0  0  0  0  0  0  0  0  0  0
   50.4360   31.8790   50.7590 C   0  0  0  0  0  0  0  0  0  0  0  0
   51.9980   33.1250   52.6190 S   0  0  0  0  0  0  0  0  0  0  0  0
   52.9440   32.4980   53.9950 C   0  0  0  0  0  0  0  0  0  0  0  0
   53.6200   33.4280   54.7300 C   0  0  0  0  0  0  0  0  0  0  0  0
   54.3690   33.0040   55.8070 C   0  0  0  0  0  0  0  0  0  0  0  0
   54.4170   31.6610   56.1140 C   0  0  0  0  0  0  0  0  0  0  0  0
   53.7020   30.7920   55.3160 C   0  0  0  0  0  0  0  0  0  0  0  0
   52.9340   31.1450   54.2260 C   0  0  0  0  0  0  0  0  0  0  0  0
   52.2600   30.1620   53.5030 N   0  0  0  0  0  0  0  0  0  0  0  0
   46.4760   31.5550   45.5930 C   0  0  0  0  0  0  0  0  0  0  0  0
   47.1530   32.5820   44.7030 C   0  0  0  0  0  0  0  0  0  0  0  0
   46.5470   34.4730   43.2540 C   0  0  0  0  0  0  0  0  0  0  0  0
   46.3440   33.7720   44.4290 C   0  0  0  0  0  0  0  0  0  0  0  0
   45.4080   34.1420   45.3630 C   0  0  0  0  0  0  0  0  0  0  0  0
   44.6440   35.2620   45.1080 C   0  0  0  0  0  0  0  0  0  0  0  0
   44.7770   36.0110   43.9790 C   0  0  0  0  0  0  0  0  0  0  0  0
   45.7440   35.5730   43.0860 C   0  0  0  0  0  0  0  0  0  0  0  0
   47.7240   34.0390   42.0420 S   0  0  0  0  0  0  0  0  0  0  0  0
   49.0600   34.7170   42.2670 O   0  0  0  0  0  0  0  0  0  0  0  0
   47.2660   34.5930   40.7050 O   0  0  0  0  0  0  0  0  0  0  0  0
   46.8691   33.2514   47.6827 H   0  0  0  0  0  0  0  0  0  0  0  0
   48.0700   29.3618   46.1613 H   0  0  0  0  0  0  0  0  0  0  0  0
   49.5709   28.6975   50.1776 H   0  0  0  0  0  0  0  0  0  0  0  0
   51.0074   28.4192   52.1491 H   0  0  0  0  0  0  0  0  0  0  0  0
   50.2803   32.8948   50.3666 H   0  0  0  0  0  0  0  0  0  0  0  0
   53.5683   34.4952   54.4683 H   0  0  0  0  0  0  0  0  0  0  0  0
   54.9242   33.7320   56.4168 H   0  0  0  0  0  0  0  0  0  0  0  0
   55.0062   31.2942   56.9674 H   0  0  0  0  0  0  0  0  0  0  0  0
   53.7485   29.7231   55.5716 H   0  0  0  0  0  0  0  0  0  0  0  0
   52.3444   29.1768   53.7912 H   0  0  0  0  0  0  0  0  0  0  0  0
   46.3337   30.6150   45.0397 H   0  0  0  0  0  0  0  0  0  0  0  0
   45.4893   31.9164   45.9181 H   0  0  0  0  0  0  0  0  0  0  0  0
   48.0829   32.9038   45.1947 H   0  0  0  0  0  0  0  0  0  0  0  0
   47.3280   32.0913   43.7342 H   0  0  0  0  0  0  0  0  0  0  0  0
   45.2713   33.5622   46.2877 H   0  0  0  0  0  0  0  0  0  0  0  0
   43.8920   35.5640   45.8518 H   0  0  0  0  0  0  0  0  0  0  0  0
   44.1604   36.9017   43.7881 H   0  0  0  0  0  0  0  0  0  0  0  0
   45.8787   36.1577   42.1640 H   0  0  0  0  0  0  0  0  0  0  0  0
   47.8456   32.6753   42.0901 H   0  0  0  0  0  0  0  0  0  0  0  0
  1  6  2  0
  2  3  2  0
  2  1  1  0
  3  4  1  0
  4  5  2  0
  5  7  1  0
  6  5  1  0
  7  8  2  0
  7 12  1  0
  8  9  1  0
  9 10  2  0
 10 20  1  0
 11 10  1  0
 11 13  1  0
 12 11  2  0
 13 14  1  0
 14 19  2  0
 14 15  1  0
 15 16  2  0
 16 17  1  0
 18 17  2  0
 19 18  1  0
 20 19  1  0
 21  2  1  0
 22 21  1  0
 23 24  2  0
 24 22  1  0
 24 25  1  0
 26 25  2  0
 27 26  1  0
 28 23  1  0
 28 27  2  0
 29 30  2  0
 29 23  1  0
 31 29  2  0
  1 32  1  0
  3 33  1  0
  8 34  1  0
  9 35  1  0
 12 36  1  0
 15 37  1  0
 16 38  1  0
 17 39  1  0
 18 40  1  0
 20 41  1  0
 21 42  1  0
 21 43  1  0
 22 44  1  0
 22 45  1  0
 25 46  1  0
 26 47  1  0
 27 48  1  0
 28 49  1  0
 29 50  1  0
M  END
>  <Score>  (1) 
-7.69189

>  <Score_dual>  (1) 
-7.27

>  <Choices>  (1) 
[None, 7, ['4-10', 240], 15, ['27-16', 120], 28, ['60-7', 330]]

$$$$
