
     RDKit          3D

 39 43  0  0  0  0  0  0  0  0999 V2000
   46.6790   34.7460   42.8190 C   0  0  0  0  0  0  0  0  0  0  0  0
   45.7800   35.7800   43.1240 C   0  0  0  0  0  0  0  0  0  0  0  0
   44.8910   35.4900   44.1920 C   0  0  0  0  0  0  0  0  0  0  0  0
   44.9610   34.2860   44.8210 N   0  0  0  0  0  0  0  0  0  0  0  0
   45.8500   33.3550   44.4650 C   0  0  0  0  0  0  0  0  0  0  0  0
   46.7200   33.5720   43.4610 N   0  0  0  0  0  0  0  0  0  0  0  0
   45.9100   32.1000   45.1350 N   0  0  0  0  0  0  0  0  0  0  0  0
   45.9610   30.8920   44.5010 C   0  0  0  0  0  0  0  0  0  0  0  0
   46.0080   29.9510   45.4540 N   0  0  0  0  0  0  0  0  0  0  0  0
   45.9910   30.5190   46.6660 C   0  0  0  0  0  0  0  0  0  0  0  0
   46.0150   30.1310   47.9910 C   0  0  0  0  0  0  0  0  0  0  0  0
   45.9810   31.0280   48.9780 N   0  0  0  0  0  0  0  0  0  0  0  0
   45.9200   32.3540   48.7600 C   0  0  0  0  0  0  0  0  0  0  0  0
   45.8940   32.7660   47.4760 N   0  0  0  0  0  0  0  0  0  0  0  0
   45.9280   31.8820   46.4630 C   0  0  0  0  0  0  0  0  0  0  0  0
   46.0810   28.7120   48.2290 N   0  0  0  0  0  0  0  0  0  0  0  0
   47.5840   35.0260   41.7420 C   0  0  0  0  0  0  0  0  0  0  0  0
   48.5830   35.7870   41.7800 O   0  0  0  0  0  0  0  0  0  0  0  0
   46.2360   33.6800   40.0840 C   0  0  0  0  0  0  0  0  0  0  0  0
   47.3930   34.3950   40.4280 C   0  0  0  0  0  0  0  0  0  0  0  0
   48.3860   34.5070   39.4900 C   0  0  0  0  0  0  0  0  0  0  0  0
   48.3370   33.9620   38.2130 C   0  0  0  0  0  0  0  0  0  0  0  0
   49.1830   33.9560   37.1700 N   0  0  0  0  0  0  0  0  0  0  0  0
   48.6230   33.2660   36.1650 C   0  0  0  0  0  0  0  0  0  0  0  0
   47.3770   32.8230   36.5950 C   0  0  0  0  0  0  0  0  0  0  0  0
   47.1860   33.2600   37.8910 C   0  0  0  0  0  0  0  0  0  0  0  0
   46.1710   33.1240   38.7990 C   0  0  0  0  0  0  0  0  0  0  0  0
   45.7656   36.7361   42.5803 H   0  0  0  0  0  0  0  0  0  0  0  0
   44.1481   36.2364   44.5098 H   0  0  0  0  0  0  0  0  0  0  0  0
   45.9631   30.7231   43.4140 H   0  0  0  0  0  0  0  0  0  0  0  0
   45.8925   33.0716   49.5933 H   0  0  0  0  0  0  0  0  0  0  0  0
   46.1020   28.3521   49.1938 H   0  0  0  0  0  0  0  0  0  0  0  0
   46.1072   28.0572   47.4344 H   0  0  0  0  0  0  0  0  0  0  0  0
   45.4082   33.5598   40.7983 H   0  0  0  0  0  0  0  0  0  0  0  0
   49.2888   35.0702   39.7690 H   0  0  0  0  0  0  0  0  0  0  0  0
   50.1088   34.4067   37.1457 H   0  0  0  0  0  0  0  0  0  0  0  0
   49.0699   33.0832   35.1767 H   0  0  0  0  0  0  0  0  0  0  0  0
   46.6658   32.2269   36.0044 H   0  0  0  0  0  0  0  0  0  0  0  0
   45.2728   32.5585   38.5102 H   0  0  0  0  0  0  0  0  0  0  0  0
  1  2  2  0
  1  6  1  0
  2  3  1  0
  3  4  2  0
  5  4  1  0
  5  7  1  0
  6  5  2  0
  7 15  1  0
  8  7  1  0
  8  9  2  0
  9 10  1  0
 10 11  2  0
 11 16  1  0
 11 12  1  0
 13 12  2  0
 14 13  1  0
 15 10  1  0
 15 14  2  0
 17 18  2  0
 17  1  1  0
 19 20  2  0
 20 17  1  0
 21 20  1  0
 22 21  2  0
 23 22  1  0
 24 25  2  0
 24 23  1  0
 25 26  1  0
 26 22  1  0
 26 27  2  0
 27 19  1  0
  2 28  1  0
  3 29  1  0
  8 30  1  0
 13 31  1  0
 16 32  1  0
 16 33  1  0
 19 34  1  0
 21 35  1  0
 23 36  1  0
 24 37  1  0
 25 38  1  0
 27 39  1  0
M  END
>  <Score>  (1) 
-7.41146

>  <Score_dual>  (1) 
-7.28

>  <Choices>  (1) 
[None, 6, ['5-8', 120], 11, ['24-7', 315], 25, ['28-10', 150]]

$$$$
