
     RDKit          3D

 52 56  0  0  1  0  0  0  0  0999 V2000
   44.5930   35.5960   44.6460 C   0  0  0  0  0  0  0  0  0  0  0  0
   45.2160   35.5700   43.3830 C   0  0  0  0  0  0  0  0  0  0  0  0
   46.2810   34.6260   43.1880 C   0  0  0  0  0  0  0  0  0  0  0  0
   46.6250   33.8230   44.2130 N   0  0  0  0  0  0  0  0  0  0  0  0
   46.0100   33.8760   45.4030 C   0  0  0  0  0  0  0  0  0  0  0  0
   44.9840   34.7660   45.6300 N   0  0  0  0  0  0  0  0  0  0  0  0
   46.4320   32.9700   46.4980 C   0  0  2  0  0  0  0  0  0  0  0  0
   46.9750   31.7420   45.8020 C   0  0  0  0  0  0  0  0  0  0  0  0
   46.1160   30.5470   45.8150 C   0  0  0  0  0  0  0  0  0  0  0  0
   45.8270   30.2900   47.2960 C   0  0  0  0  0  0  0  0  0  0  0  0
   45.0280   31.3440   47.9070 C   0  0  0  0  0  0  0  0  0  0  0  0
   45.3910   32.7170   47.4480 C   0  0  0  0  0  0  0  0  0  0  0  0
   44.6870   33.8560   47.9580 N   0  0  0  0  0  0  0  0  0  0  0  0
   46.9400   34.5730   41.8920 C   0  0  0  0  0  0  0  0  0  0  0  0
   48.0490   35.3210   41.7000 C   0  0  0  0  0  0  0  0  0  0  0  0
   48.6480   35.2350   40.4330 C   0  0  0  0  0  0  0  0  0  0  0  0
   48.0500   34.4050   39.5250 C   0  0  0  0  0  0  0  0  0  0  0  0
   46.9220   33.6360   39.7030 C   0  0  0  0  0  0  0  0  0  0  0  0
   46.3980   33.7770   40.9660 N   0  0  0  0  0  0  0  0  0  0  0  0
   46.3580   32.8190   38.7540 O   0  0  0  0  0  0  0  0  0  0  0  0
   46.9320   32.6730   37.5150 C   0  0  0  0  0  0  0  0  0  0  0  0
   48.2710   33.0820   37.5070 C   0  0  0  0  0  0  0  0  0  0  0  0
   49.0300   33.0110   36.3360 C   0  0  0  0  0  0  0  0  0  0  0  0
   48.5040   32.5400   35.1480 C   0  0  0  0  0  0  0  0  0  0  0  0
   47.1830   32.1440   35.1850 C   0  0  0  0  0  0  0  0  0  0  0  0
   46.5480   31.6720   34.0540 C   0  0  0  0  0  0  0  0  0  0  0  0
   45.2120   31.2930   34.1090 C   0  0  0  0  0  0  0  0  0  0  0  0
   44.4640   31.3670   35.2670 C   0  0  0  0  0  0  0  0  0  0  0  0
   45.0920   31.8370   36.3990 C   0  0  0  0  0  0  0  0  0  0  0  0
   46.4150   32.2060   36.3260 C   0  0  0  0  0  0  0  0  0  0  0  0
   43.7737   36.3063   44.8308 H   0  0  0  0  0  0  0  0  0  0  0  0
   44.8989   36.2472   42.5762 H   0  0  0  0  0  0  0  0  0  0  0  0
   47.2084   33.4191   47.1348 H   0  0  0  0  0  0  0  0  0  0  0  0
   47.9257   31.4757   46.2870 H   0  0  0  0  0  0  0  0  0  0  0  0
   47.0663   32.0238   44.7426 H   0  0  0  0  0  0  0  0  0  0  0  0
   45.1822   30.7349   45.2648 H   0  0  0  0  0  0  0  0  0  0  0  0
   46.5965   29.6847   45.3297 H   0  0  0  0  0  0  0  0  0  0  0  0
   45.2827   29.3385   47.3878 H   0  0  0  0  0  0  0  0  0  0  0  0
   46.7930   30.2602   47.8214 H   0  0  0  0  0  0  0  0  0  0  0  0
   44.2310   31.1462   48.6389 H   0  0  0  0  0  0  0  0  0  0  0  0
   43.9292   33.7284   48.6438 H   0  0  0  0  0  0  0  0  0  0  0  0
   44.9387   34.8024   47.6388 H   0  0  0  0  0  0  0  0  0  0  0  0
   48.4602   35.9625   42.4934 H   0  0  0  0  0  0  0  0  0  0  0  0
   49.5537   35.8070   40.1829 H   0  0  0  0  0  0  0  0  0  0  0  0
   48.5268   34.3448   38.5355 H   0  0  0  0  0  0  0  0  0  0  0  0
   48.7298   33.4628   38.4314 H   0  0  0  0  0  0  0  0  0  0  0  0
   50.0792   33.3404   36.3605 H   0  0  0  0  0  0  0  0  0  0  0  0
   49.1032   32.4841   34.2272 H   0  0  0  0  0  0  0  0  0  0  0  0
   47.1011   31.5956   33.1062 H   0  0  0  0  0  0  0  0  0  0  0  0
   44.7312   30.9190   33.1930 H   0  0  0  0  0  0  0  0  0  0  0  0
   43.4072   31.0623   35.2848 H   0  0  0  0  0  0  0  0  0  0  0  0
   44.5429   31.9162   37.3488 H   0  0  0  0  0  0  0  0  0  0  0  0
  1  6  2  0
  2  1  1  0
  3  2  2  0
  3  4  1  0
  4  5  2  0
  5  6  1  0
  5  7  1  0
  7 12  1  0
  8  9  1  0
  8  7  1  0
  9 10  1  0
 10 11  1  0
 12 11  2  0
 12 13  1  0
 14  3  1  0
 15 14  2  0
 16 15  1  0
 17 18  1  0
 17 16  2  0
 18 19  2  0
 19 14  1  0
 20 18  1  0
 21 20  1  0
 22 21  2  0
 23 22  1  0
 24 25  1  0
 24 23  2  0
 25 30  2  0
 26 27  2  0
 26 25  1  0
 27 28  1  0
 28 29  2  0
 30 29  1  0
 30 21  1  0
  1 31  1  0
  2 32  1  0
  7 33  1  1
  8 34  1  0
  8 35  1  0
  9 36  1  0
  9 37  1  0
 10 38  1  0
 10 39  1  0
 11 40  1  0
 13 41  1  0
 13 42  1  0
 15 43  1  0
 16 44  1  0
 17 45  1  0
 22 46  1  0
 23 47  1  0
 24 48  1  0
 26 49  1  0
 27 50  1  0
 28 51  1  0
 29 52  1  0
M  END
>  <Score>  (1) 
-7.88569

>  <Score_dual>  (1) 
-7.85

>  <Choices>  (1) 
[None, 9, ['18-27', 315], 23, ['0-3', 0], 23, ['6-16', 270], 32, ['2-1', 0], 35, ['26-18', 135]]

$$$$
