
     RDKit          3D

 44 48  0  0  0  0  0  0  0  0999 V2000
   44.8240   35.9940   43.3900 Cl  0  0  0  0  0  0  0  0  0  0  0  0
   45.5640   34.7390   44.3150 C   0  0  0  0  0  0  0  0  0  0  0  0
   46.6670   34.0770   43.8370 C   0  0  0  0  0  0  0  0  0  0  0  0
   47.1830   33.0920   44.6520 C   0  0  0  0  0  0  0  0  0  0  0  0
   46.6740   32.7410   45.8790 C   0  0  0  0  0  0  0  0  0  0  0  0
   45.5740   33.4190   46.3270 C   0  0  0  0  0  0  0  0  0  0  0  0
   44.9470   32.9490   47.8970 Cl  0  0  0  0  0  0  0  0  0  0  0  0
   45.0230   34.4090   45.5550 C   0  0  0  0  0  0  0  0  0  0  0  0
   47.3680   31.6600   46.5970 C   0  0  0  0  0  0  0  0  0  0  0  0
   47.4700   30.3810   46.1220 C   0  0  0  0  0  0  0  0  0  0  0  0
   48.1190   29.3700   46.7920 C   0  0  0  0  0  0  0  0  0  0  0  0
   48.7080   29.6290   48.0100 C   0  0  0  0  0  0  0  0  0  0  0  0
   49.3340   28.6290   48.6440 N   0  0  0  0  0  0  0  0  0  0  0  0
   49.9400   28.7950   49.8450 C   0  0  0  0  0  0  0  0  0  0  0  0
   49.8790   30.0620   50.3900 C   0  0  0  0  0  0  0  0  0  0  0  0
   49.2400   31.0890   49.7480 C   0  0  0  0  0  0  0  0  0  0  0  0
   48.6300   30.8890   48.5210 C   0  0  0  0  0  0  0  0  0  0  0  0
   47.9740   31.9010   47.8390 C   0  0  0  0  0  0  0  0  0  0  0  0
   48.8880   35.5430   41.3370 C   0  0  0  0  0  0  0  0  0  0  0  0
   48.4200   35.0190   40.1320 C   0  0  0  0  0  0  0  0  0  0  0  0
   47.3150   34.1430   40.1880 C   0  0  0  0  0  0  0  0  0  0  0  0
   46.7820   33.8650   41.3910 N   0  0  0  0  0  0  0  0  0  0  0  0
   47.2610   34.3920   42.5500 C   0  0  0  0  0  0  0  0  0  0  0  0
   48.3160   35.2320   42.5160 N   0  0  0  0  0  0  0  0  0  0  0  0
   46.8000   33.5750   38.9460 C   0  0  0  0  0  0  0  0  0  0  0  0
   47.6570   33.5350   37.8660 C   0  0  0  0  0  0  0  0  0  0  0  0
   47.1320   32.9850   36.6900 C   0  0  0  0  0  0  0  0  0  0  0  0
   45.8120   32.5370   36.7190 C   0  0  0  0  0  0  0  0  0  0  0  0
   44.9880   32.5970   37.8260 C   0  0  0  0  0  0  0  0  0  0  0  0
   45.5280   33.1350   38.9470 N   0  0  0  0  0  0  0  0  0  0  0  0
   48.0682   32.5464   44.2932 H   0  0  0  0  0  0  0  0  0  0  0  0
   44.1390   34.9516   45.9212 H   0  0  0  0  0  0  0  0  0  0  0  0
   47.0078   30.1484   45.1513 H   0  0  0  0  0  0  0  0  0  0  0  0
   48.1674   28.3605   46.3577 H   0  0  0  0  0  0  0  0  0  0  0  0
   50.4517   27.9666   50.3568 H   0  0  0  0  0  0  0  0  0  0  0  0
   50.3552   30.2511   51.3634 H   0  0  0  0  0  0  0  0  0  0  0  0
   49.2109   32.0855   50.2129 H   0  0  0  0  0  0  0  0  0  0  0  0
   47.9277   32.9085   48.2780 H   0  0  0  0  0  0  0  0  0  0  0  0
   49.7478   36.2290   41.3240 H   0  0  0  0  0  0  0  0  0  0  0  0
   48.8944   35.2788   39.1742 H   0  0  0  0  0  0  0  0  0  0  0  0
   48.6888   33.9117   37.9248 H   0  0  0  0  0  0  0  0  0  0  0  0
   47.7393   32.9091   35.7760 H   0  0  0  0  0  0  0  0  0  0  0  0
   45.3978   32.1056   35.7958 H   0  0  0  0  0  0  0  0  0  0  0  0
   43.9518   32.2289   37.7994 H   0  0  0  0  0  0  0  0  0  0  0  0
  1  2  1  0
  2  8  2  0
  3  2  1  0
  3  4  2  0
  4  5  1  0
  5  6  2  0
  5  9  1  0
  6  7  1  0
  8  6  1  0
  9 18  1  0
 10  9  2  0
 10 11  1  0
 11 12  2  0
 12 17  1  0
 12 13  1  0
 13 14  2  0
 14 15  1  0
 16 15  2  0
 17 16  1  0
 18 17  2  0
 19 24  2  0
 20 21  2  0
 20 19  1  0
 21 22  1  0
 22 23  2  0
 23  3  1  0
 24 23  1  0
 25 30  1  0
 25 21  1  0
 26 25  2  0
 27 28  2  0
 27 26  1  0
 28 29  1  0
 29 30  2  0
  4 31  1  0
  8 32  1  0
 10 33  1  0
 11 34  1  0
 14 35  1  0
 15 36  1  0
 16 37  1  0
 18 38  1  0
 19 39  1  0
 20 40  1  0
 26 41  1  0
 27 42  1  0
 28 43  1  0
 29 44  1  0
M  END
>  <Score>  (1) 
-7.22427

>  <Score_dual>  (1) 
-7.29

>  <Choices>  (1) 
[None, 9, ['29-22', 180], 15, ['36-25', 120], 34, ['6-13', 210]]

$$$$
