
     RDKit          3D

 41 44  0  0  0  0  0  0  0  0999 V2000
   45.3990   33.1780   41.1070 F   0  0  0  0  0  0  0  0  0  0  0  0
   46.5250   33.9060   40.9490 C   0  0  0  0  0  0  0  0  0  0  0  0
   46.9700   34.7280   41.9220 C   0  0  0  0  0  0  0  0  0  0  0  0
   48.1320   35.4340   41.6710 C   0  0  0  0  0  0  0  0  0  0  0  0
   48.8250   35.3260   40.4950 C   0  0  0  0  0  0  0  0  0  0  0  0
   48.3140   34.4720   39.5520 C   0  0  0  0  0  0  0  0  0  0  0  0
   47.1700   33.7470   39.7400 C   0  0  0  0  0  0  0  0  0  0  0  0
   46.7400   32.8890   38.6750 C   0  0  0  0  0  0  0  0  0  0  0  0
   46.3550   31.5910   38.9560 C   0  0  0  0  0  0  0  0  0  0  0  0
   45.9490   30.7800   37.9450 C   0  0  0  0  0  0  0  0  0  0  0  0
   45.9150   31.2410   36.6270 C   0  0  0  0  0  0  0  0  0  0  0  0
   46.3120   32.5590   36.3850 C   0  0  0  0  0  0  0  0  0  0  0  0
   46.7240   33.3800   37.4110 C   0  0  0  0  0  0  0  0  0  0  0  0
   47.0610   34.6170   36.9300 O   0  0  0  0  0  0  0  0  0  0  0  0
   44.5320   35.8380   44.5870 C   0  0  0  0  0  0  0  0  0  0  0  0
   45.2410   35.7820   43.3930 C   0  0  0  0  0  0  0  0  0  0  0  0
   46.2030   34.8180   43.1680 C   0  0  0  0  0  0  0  0  0  0  0  0
   46.3970   33.9520   44.1780 N   0  0  0  0  0  0  0  0  0  0  0  0
   45.7130   34.0020   45.3370 C   0  0  0  0  0  0  0  0  0  0  0  0
   44.7890   34.9440   45.5260 N   0  0  0  0  0  0  0  0  0  0  0  0
   44.2700   33.9480   47.7630 F   0  0  0  0  0  0  0  0  0  0  0  0
   45.2490   33.0360   47.5570 C   0  0  0  0  0  0  0  0  0  0  0  0
   45.9890   33.0130   46.3910 C   0  0  0  0  0  0  0  0  0  0  0  0
   46.9950   32.0690   46.1900 C   0  0  0  0  0  0  0  0  0  0  0  0
   47.2470   31.1330   47.2030 C   0  0  0  0  0  0  0  0  0  0  0  0
   46.4880   31.1890   48.3520 C   0  0  0  0  0  0  0  0  0  0  0  0
   45.5000   32.1150   48.5520 C   0  0  0  0  0  0  0  0  0  0  0  0
   48.5158   36.1108   42.4486 H   0  0  0  0  0  0  0  0  0  0  0  0
   49.7477   35.8972   40.3154 H   0  0  0  0  0  0  0  0  0  0  0  0
   48.8505   34.3648   38.5977 H   0  0  0  0  0  0  0  0  0  0  0  0
   46.3774   31.2180   39.9906 H   0  0  0  0  0  0  0  0  0  0  0  0
   45.6431   29.7470   38.1670 H   0  0  0  0  0  0  0  0  0  0  0  0
   45.5862   30.5875   35.8055 H   0  0  0  0  0  0  0  0  0  0  0  0
   46.2951   32.9477   35.3561 H   0  0  0  0  0  0  0  0  0  0  0  0
   47.3777   35.3201   37.5508 H   0  0  0  0  0  0  0  0  0  0  0  0
   43.7691   36.6139   44.7480 H   0  0  0  0  0  0  0  0  0  0  0  0
   45.0305   36.5237   42.6084 H   0  0  0  0  0  0  0  0  0  0  0  0
   47.5781   32.0587   45.2573 H   0  0  0  0  0  0  0  0  0  0  0  0
   48.0321   30.3718   47.0835 H   0  0  0  0  0  0  0  0  0  0  0  0
   46.6857   30.4543   49.1464 H   0  0  0  0  0  0  0  0  0  0  0  0
   44.9190   32.1242   49.4860 H   0  0  0  0  0  0  0  0  0  0  0  0
  2  1  1  0
  2  3  2  0
  3 17  1  0
  4  3  1  0
  5  4  2  0
  6  7  2  0
  6  5  1  0
  7  2  1  0
  8  9  2  0
  8  7  1  0
 10  9  1  0
 11 10  2  0
 12 11  1  0
 12 13  2  0
 13  8  1  0
 14 13  1  0
 15 20  2  0
 16 15  1  0
 17 16  2  0
 17 18  1  0
 18 19  2  0
 19 20  1  0
 19 23  1  0
 22 21  1  0
 22 27  2  0
 23 22  1  0
 24 23  2  0
 24 25  1  0
 25 26  2  0
 26 27  1  0
  4 28  1  0
  5 29  1  0
  6 30  1  0
  9 31  1  0
 10 32  1  0
 11 33  1  0
 12 34  1  0
 14 35  1  0
 15 36  1  0
 16 37  1  0
 24 38  1  0
 25 39  1  0
 26 40  1  0
 27 41  1  0
M  END
>  <Score>  (1) 
-7.9604

>  <Score_dual>  (1) 
-7.17

>  <Choices>  (1) 
[None, 8, ['9-18', 90], 19, ['1-25', 135], 29, ['2-1', 0], 30, ['9-16', 210]]

$$$$
