
     RDKit          3D

 40 44  0  0  0  0  0  0  0  0999 V2000
   47.1280   32.3620   47.9400 C   0  0  0  0  0  0  0  0  0  0  0  0
   46.6190   31.0760   48.0170 C   0  0  0  0  0  0  0  0  0  0  0  0
   45.8300   30.6780   46.9790 C   0  0  0  0  0  0  0  0  0  0  0  0
   45.5820   31.5070   45.9600 N   0  0  0  0  0  0  0  0  0  0  0  0
   46.0670   32.7370   45.8840 C   0  0  0  0  0  0  0  0  0  0  0  0
   46.8360   33.1250   46.8940 N   0  0  0  0  0  0  0  0  0  0  0  0
   45.9230   33.7890   44.8790 C   0  0  0  0  0  0  0  0  0  0  0  0
   44.9690   34.7470   44.9090 N   0  0  0  0  0  0  0  0  0  0  0  0
   44.8120   35.7150   44.0130 C   0  0  0  0  0  0  0  0  0  0  0  0
   45.6520   35.7990   42.9600 N   0  0  0  0  0  0  0  0  0  0  0  0
   46.6520   34.9010   42.8130 C   0  0  0  0  0  0  0  0  0  0  0  0
   47.5150   34.9870   41.7310 C   0  0  0  0  0  0  0  0  0  0  0  0
   48.5320   34.0880   41.5650 C   0  0  0  0  0  0  0  0  0  0  0  0
   48.6600   33.1020   42.5130 C   0  0  0  0  0  0  0  0  0  0  0  0
   47.7830   33.0500   43.5730 C   0  0  0  0  0  0  0  0  0  0  0  0
   46.7420   33.9340   43.7830 C   0  0  0  0  0  0  0  0  0  0  0  0
   44.1660   28.9630   46.1860 C   0  0  0  0  0  0  0  0  0  0  0  0
   45.2450   29.3600   46.9490 C   0  0  0  0  0  0  0  0  0  0  0  0
   45.8640   28.4310   47.7940 C   0  0  0  0  0  0  0  0  0  0  0  0
   45.3820   27.1390   47.8430 C   0  0  0  0  0  0  0  0  0  0  0  0
   45.7420   26.0380   48.5280 N   0  0  0  0  0  0  0  0  0  0  0  0
   44.9720   24.9770   48.2540 C   0  0  0  0  0  0  0  0  0  0  0  0
   44.0190   25.3830   47.3160 C   0  0  0  0  0  0  0  0  0  0  0  0
   44.3050   26.7150   47.0880 C   0  0  0  0  0  0  0  0  0  0  0  0
   43.7240   27.6800   46.2650 C   0  0  0  0  0  0  0  0  0  0  0  0
   46.9170   30.2530   49.1160 N   0  0  0  0  0  0  0  0  0  0  0  0
   47.7721   32.7496   48.7431 H   0  0  0  0  0  0  0  0  0  0  0  0
   43.9989   36.4467   44.1290 H   0  0  0  0  0  0  0  0  0  0  0  0
   47.3792   35.7920   40.9937 H   0  0  0  0  0  0  0  0  0  0  0  0
   49.2189   34.1517   40.7082 H   0  0  0  0  0  0  0  0  0  0  0  0
   49.4624   32.3548   42.4252 H   0  0  0  0  0  0  0  0  0  0  0  0
   47.9215   32.2437   44.3084 H   0  0  0  0  0  0  0  0  0  0  0  0
   43.6667   29.6803   45.5180 H   0  0  0  0  0  0  0  0  0  0  0  0
   46.7245   28.7276   48.4116 H   0  0  0  0  0  0  0  0  0  0  0  0
   46.5277   26.0138   49.1936 H   0  0  0  0  0  0  0  0  0  0  0  0
   45.0714   23.9710   48.6876 H   0  0  0  0  0  0  0  0  0  0  0  0
   43.2207   24.7779   46.8615 H   0  0  0  0  0  0  0  0  0  0  0  0
   42.8624   27.3871   45.6471 H   0  0  0  0  0  0  0  0  0  0  0  0
   46.5334   29.2983   49.1635 H   0  0  0  0  0  0  0  0  0  0  0  0
   47.5191   30.6044   49.8742 H   0  0  0  0  0  0  0  0  0  0  0  0
  1  2  2  0
  2 26  1  0
  3  2  1  0
  4  3  2  0
  5  4  1  0
  5  6  2  0
  6  1  1  0
  7  8  2  0
  7  5  1  0
  9  8  1  0
 10  9  2  0
 11 10  1  0
 11 16  2  0
 12 11  1  0
 13 12  2  0
 13 14  1  0
 14 15  2  0
 15 16  1  0
 16  7  1  0
 17 25  2  0
 17 18  1  0
 18  3  1  0
 18 19  2  0
 19 20  1  0
 20 21  1  0
 22 21  1  0
 23 22  2  0
 24 23  1  0
 24 20  2  0
 25 24  1  0
  1 27  1  0
  9 28  1  0
 12 29  1  0
 13 30  1  0
 14 31  1  0
 15 32  1  0
 17 33  1  0
 19 34  1  0
 21 35  1  0
 22 36  1  0
 23 37  1  0
 25 38  1  0
 26 39  1  0
 26 40  1  0
M  END
>  <Score>  (1) 
-7.11861

>  <Score_dual>  (1) 
-7.43

>  <Choices>  (1) 
[None, 7, ['0-3', 0], 9, ['47-23', 255], 23, ['24-6', 135]]

$$$$
