
     RDKit          3D

 55 59  0  0  1  0  0  0  0  0999 V2000
   46.9500   32.7450   45.5680 C   0  0  0  0  0  0  0  0  0  0  0  0
   45.8880   33.4420   46.1260 C   0  0  0  0  0  0  0  0  0  0  0  0
   45.2010   34.4070   45.3530 C   0  0  0  0  0  0  0  0  0  0  0  0
   45.6590   34.5930   44.0500 N   0  0  0  0  0  0  0  0  0  0  0  0
   46.7040   33.8810   43.5700 C   0  0  0  0  0  0  0  0  0  0  0  0
   47.3310   32.9810   44.3120 N   0  0  0  0  0  0  0  0  0  0  0  0
   47.6040   31.7510   46.3940 C   0  0  2  0  0  0  0  0  0  0  0  0
   47.3690   30.3090   45.8450 C   0  0  0  0  0  0  0  0  0  0  0  0
   48.1880   29.3430   46.6280 C   0  0  0  0  0  0  0  0  0  0  0  0
   48.1770   29.5230   48.1070 C   0  0  0  0  0  0  0  0  0  0  0  0
   48.1650   30.8990   48.5420 C   0  0  0  0  0  0  0  0  0  0  0  0
   47.1640   31.7870   47.7750 C   0  0  2  0  0  0  0  0  0  0  0  0
   45.8300   31.1900   47.8900 N   0  0  0  0  0  0  0  0  0  0  0  0
   45.1440   30.6430   48.9870 C   0  0  0  0  0  0  0  0  0  0  0  0
   44.5910   31.3640   49.8950 O   0  0  0  0  0  0  0  0  0  0  0  0
   45.1000   29.2150   49.0090 N   0  0  0  0  0  0  0  0  0  0  0  0
   47.1510   34.1570   42.2090 C   0  0  0  0  0  0  0  0  0  0  0  0
   48.1880   34.9820   41.9350 C   0  0  0  0  0  0  0  0  0  0  0  0
   48.6280   35.2600   40.6570 C   0  0  0  0  0  0  0  0  0  0  0  0
   47.9390   34.6380   39.6380 C   0  0  0  0  0  0  0  0  0  0  0  0
   46.8660   33.7810   39.8820 C   0  0  0  0  0  0  0  0  0  0  0  0
   46.5430   33.5990   41.1760 N   0  0  0  0  0  0  0  0  0  0  0  0
   46.2610   33.2150   38.6910 C   0  0  0  0  0  0  0  0  0  0  0  0
   44.9580   32.8850   38.6560 N   0  0  0  0  0  0  0  0  0  0  0  0
   44.3020   32.3670   37.6370 C   0  0  0  0  0  0  0  0  0  0  0  0
   44.9420   32.1170   36.4800 N   0  0  0  0  0  0  0  0  0  0  0  0
   46.2710   32.4080   36.3870 C   0  0  0  0  0  0  0  0  0  0  0  0
   46.9480   32.1620   35.2130 C   0  0  0  0  0  0  0  0  0  0  0  0
   48.3080   32.4520   35.0940 C   0  0  0  0  0  0  0  0  0  0  0  0
   48.9270   33.0000   36.2240 C   0  0  0  0  0  0  0  0  0  0  0  0
   48.1950   33.2200   37.3620 C   0  0  0  0  0  0  0  0  0  0  0  0
   46.8730   32.9440   37.4950 C   0  0  0  0  0  0  0  0  0  0  0  0
   45.5819   33.2452   47.1641 H   0  0  0  0  0  0  0  0  0  0  0  0
   44.3528   34.9786   45.7577 H   0  0  0  0  0  0  0  0  0  0  0  0
   48.6742   32.0025   46.3580 H   0  0  0  0  0  0  0  0  0  0  0  0
   46.3044   30.0491   45.9397 H   0  0  0  0  0  0  0  0  0  0  0  0
   47.6627   30.2663   44.7858 H   0  0  0  0  0  0  0  0  0  0  0  0
   47.8149   28.3315   46.4097 H   0  0  0  0  0  0  0  0  0  0  0  0
   49.2286   29.5170   46.3166 H   0  0  0  0  0  0  0  0  0  0  0  0
   47.2794   29.0284   48.5067 H   0  0  0  0  0  0  0  0  0  0  0  0
   49.1131   29.0841   48.4827 H   0  0  0  0  0  0  0  0  0  0  0  0
   47.9018   30.9226   49.6098 H   0  0  0  0  0  0  0  0  0  0  0  0
   49.1683   31.3051   48.3459 H   0  0  0  0  0  0  0  0  0  0  0  0
   47.1205   32.8165   48.1599 H   0  0  0  0  0  0  0  0  0  0  0  0
   45.3001   31.1676   47.0070 H   0  0  0  0  0  0  0  0  0  0  0  0
   44.6176   28.7264   49.7768 H   0  0  0  0  0  0  0  0  0  0  0  0
   45.5507   28.6742   48.2571 H   0  0  0  0  0  0  0  0  0  0  0  0
   48.7096   35.4578   42.7785 H   0  0  0  0  0  0  0  0  0  0  0  0
   49.4747   35.9350   40.4637 H   0  0  0  0  0  0  0  0  0  0  0  0
   48.2455   34.8237   38.5980 H   0  0  0  0  0  0  0  0  0  0  0  0
   43.2302   32.1388   37.7324 H   0  0  0  0  0  0  0  0  0  0  0  0
   46.4089   31.7307   34.3567 H   0  0  0  0  0  0  0  0  0  0  0  0
   48.8630   32.2606   34.1637 H   0  0  0  0  0  0  0  0  0  0  0  0
   49.9972   33.2532   36.1987 H   0  0  0  0  0  0  0  0  0  0  0  0
   48.7165   33.6511   38.2293 H   0  0  0  0  0  0  0  0  0  0  0  0
  1  2  2  0
  1  7  1  0
  3  2  1  0
  4  3  2  0
  5  4  1  0
  5  6  2  0
  6  1  1  0
  7 12  1  0
  8  7  1  0
  8  9  1  0
  9 10  1  0
 10 11  1  0
 12 13  1  0
 12 11  1  0
 13 14  1  0
 14 16  1  0
 14 15  2  0
 17  5  1  0
 18 17  2  0
 19 18  1  0
 20 21  1  0
 20 19  2  0
 21 22  2  0
 22 17  1  0
 23 21  1  0
 24 23  2  0
 25 24  1  0
 26 25  2  0
 27 26  1  0
 27 32  2  0
 28 27  1  0
 29 28  2  0
 29 30  1  0
 30 31  2  0
 31 32  1  0
 32 23  1  0
  2 33  1  0
  3 34  1  0
  7 35  1  1
  8 36  1  0
  8 37  1  0
  9 38  1  0
  9 39  1  0
 10 40  1  0
 10 41  1  0
 11 42  1  0
 11 43  1  0
 12 44  1  1
 13 45  1  0
 16 46  1  0
 16 47  1  0
 18 48  1  0
 19 49  1  0
 20 50  1  0
 25 51  1  0
 28 52  1  0
 29 53  1  0
 30 54  1  0
 31 55  1  0
M  END
>  <Score>  (1) 
-7.02872

>  <Score_dual>  (1) 
-8.58

>  <Choices>  (1) 
[None, 9, ['6-17', 105], 12, ['18-24', 255], 34, ['0-3', 0], 36, ['12-1', 105], 37, ['47-21', 195]]

$$$$
