
     RDKit          3D

 45 49  0  0  1  0  0  0  0  0999 V2000
   46.2300   32.6320   39.0190 C   0  0  2  0  0  0  0  0  0  0  0  0
   47.1660   31.6910   38.3720 C   0  0  0  0  0  0  0  0  0  0  0  0
   46.4760   32.8270   37.6040 C   0  0  1  0  0  0  0  0  0  0  0  0
   46.5870   34.6390   42.0910 C   0  0  0  0  0  0  0  0  0  0  0  0
   47.7700   35.2680   41.7630 C   0  0  0  0  0  0  0  0  0  0  0  0
   48.4710   35.0760   40.5930 C   0  0  0  0  0  0  0  0  0  0  0  0
   47.9530   34.1850   39.6700 C   0  0  0  0  0  0  0  0  0  0  0  0
   46.7790   33.5750   40.0160 C   0  0  0  0  0  0  0  0  0  0  0  0
   46.1490   33.7950   41.1540 N   0  0  0  0  0  0  0  0  0  0  0  0
   44.4640   36.0320   44.8680 C   0  0  0  0  0  0  0  0  0  0  0  0
   45.0610   35.9600   43.6070 C   0  0  0  0  0  0  0  0  0  0  0  0
   45.8840   34.8780   43.3510 C   0  0  0  0  0  0  0  0  0  0  0  0
   46.0720   33.9530   44.3200 N   0  0  0  0  0  0  0  0  0  0  0  0
   45.4700   34.0610   45.5390 C   0  0  0  0  0  0  0  0  0  0  0  0
   44.6760   35.0990   45.7960 N   0  0  0  0  0  0  0  0  0  0  0  0
   45.5390   32.4120   36.6470 O   0  0  0  0  0  0  0  0  0  0  0  0
   46.2910   30.7980   34.8280 O   0  0  0  0  0  0  0  0  0  0  0  0
   46.1790   32.3090   35.0920 P   0  0  1  0  0  0  0  0  0  0  0  0
   45.1170   32.9240   33.9610 O   0  0  0  0  0  0  0  0  0  0  0  0
   47.7480   32.8940   34.9450 O   0  0  0  0  0  0  0  0  0  0  0  0
   49.7640   31.7050   34.9400 N   0  0  0  0  0  0  0  0  0  0  0  0
   48.7370   32.2200   34.2400 C   0  0  0  0  0  0  0  0  0  0  0  0
   48.9820   31.9080   32.9520 N   0  0  0  0  0  0  0  0  0  0  0  0
   50.1110   31.2260   32.8280 C   0  0  0  0  0  0  0  0  0  0  0  0
   50.7290   30.7130   31.6830 C   0  0  0  0  0  0  0  0  0  0  0  0
   51.8750   30.0610   31.8610 N   0  0  0  0  0  0  0  0  0  0  0  0
   52.3980   29.9140   33.1060 C   0  0  0  0  0  0  0  0  0  0  0  0
   51.7900   30.4170   34.2160 N   0  0  0  0  0  0  0  0  0  0  0  0
   50.6280   31.0880   34.1050 C   0  0  0  0  0  0  0  0  0  0  0  0
   50.0970   30.9210   30.4070 N   0  0  0  0  0  0  0  0  0  0  0  0
   45.3035   32.5254   39.6024 H   0  0  0  0  0  0  0  0  0  0  0  0
   48.2433   31.7396   38.5890 H   0  0  0  0  0  0  0  0  0  0  0  0
   47.2459   30.5988   38.2682 H   0  0  0  0  0  0  0  0  0  0  0  0
   46.7673   33.7048   37.0085 H   0  0  0  0  0  0  0  0  0  0  0  0
   48.1860   35.9783   42.4927 H   0  0  0  0  0  0  0  0  0  0  0  0
   49.4112   35.6131   40.3990 H   0  0  0  0  0  0  0  0  0  0  0  0
   48.4561   33.9793   38.7137 H   0  0  0  0  0  0  0  0  0  0  0  0
   43.8026   36.8796   45.1008 H   0  0  0  0  0  0  0  0  0  0  0  0
   44.8833   36.7345   42.8464 H   0  0  0  0  0  0  0  0  0  0  0  0
   45.6398   33.2929   46.3079 H   0  0  0  0  0  0  0  0  0  0  0  0
   44.3596   33.3626   34.4237 H   0  0  0  0  0  0  0  0  0  0  0  0
   49.8750   31.7714   35.9618 H   0  0  0  0  0  0  0  0  0  0  0  0
   53.3466   29.3692   33.2218 H   0  0  0  0  0  0  0  0  0  0  0  0
   49.2077   31.4375   30.3509 H   0  0  0  0  0  0  0  0  0  0  0  0
   50.5340   30.5533   29.5498 H   0  0  0  0  0  0  0  0  0  0  0  0
  1  8  1  0
  2  1  1  0
  3  2  1  0
  3  1  1  0
  4 12  1  0
  5  4  2  0
  6  5  1  0
  7  8  1  0
  7  6  2  0
  8  9  2  0
  9  4  1  0
 10 15  2  0
 11 10  1  0
 12 11  2  0
 12 13  1  0
 13 14  2  0
 14 15  1  0
 16  3  1  0
 18 17  2  0
 18 16  1  1
 19 18  1  0
 20 18  1  0
 22 21  1  0
 22 20  1  0
 23 22  2  0
 24 23  1  0
 24 29  2  0
 25 26  2  0
 25 24  1  0
 26 27  1  0
 27 28  2  0
 29 28  1  0
 29 21  1  0
 30 25  1  0
  1 31  1  6
  2 32  1  0
  2 33  1  0
  3 34  1  1
  5 35  1  0
  6 36  1  0
  7 37  1  0
 10 38  1  0
 11 39  1  0
 14 40  1  0
 19 41  1  0
 21 42  1  0
 27 43  1  0
 30 44  1  0
 30 45  1  0
M  END
>  <Score>  (1) 
-7.17557

>  <Score_dual>  (1) 
-7.6

>  <Choices>  (1) 
[None, 8, ['6-16', 270], 18, ['16-23', 150], 25, ['10-2', 165], 31, ['28-17', 75]]

$$$$
