
     RDKit          3D

 46 50  0  0  0  0  0  0  0  0999 V2000
   44.4740   35.6010   44.7330 C   0  0  0  0  0  0  0  0  0  0  0  0
   44.5580   35.1880   43.4000 C   0  0  0  0  0  0  0  0  0  0  0  0
   45.1850   33.9440   43.1240 C   0  0  0  0  0  0  0  0  0  0  0  0
   45.6660   33.2300   44.1580 N   0  0  0  0  0  0  0  0  0  0  0  0
   45.5720   33.6520   45.4400 C   0  0  0  0  0  0  0  0  0  0  0  0
   44.9650   34.8560   45.7150 N   0  0  0  0  0  0  0  0  0  0  0  0
   46.0730   32.9220   46.5990 C   0  0  0  0  0  0  0  0  0  0  0  0
   45.3060   32.7810   47.7650 C   0  0  0  0  0  0  0  0  0  0  0  0
   46.0760   32.0400   48.6580 C   0  0  0  0  0  0  0  0  0  0  0  0
   47.2440   31.7600   48.0380 N   0  0  0  0  0  0  0  0  0  0  0  0
   47.2120   32.2990   46.8150 N   0  0  0  0  0  0  0  0  0  0  0  0
   48.5330   29.6830   48.2870 C   0  0  0  0  0  0  0  0  0  0  0  0
   48.3440   31.0160   48.5780 C   0  0  0  0  0  0  0  0  0  0  0  0
   49.2030   31.7220   49.4110 C   0  0  0  0  0  0  0  0  0  0  0  0
   50.2970   31.1020   49.9870 C   0  0  0  0  0  0  0  0  0  0  0  0
   50.4460   29.7790   49.6700 C   0  0  0  0  0  0  0  0  0  0  0  0
   49.6310   29.0240   48.8530 C   0  0  0  0  0  0  0  0  0  0  0  0
   47.4280   28.8370   47.2360 S   0  0  0  0  0  0  0  0  0  0  0  0
   46.0120   28.8560   47.7320 O   0  0  0  0  0  0  0  0  0  0  0  0
   47.5340   29.3060   45.7960 O   0  0  0  0  0  0  0  0  0  0  0  0
   44.0710   35.9040   42.3120 O   0  0  0  0  0  0  0  0  0  0  0  0
   43.3560   35.3540   41.2680 C   0  0  0  0  0  0  0  0  0  0  0  0
   43.8600   34.6790   40.1740 C   0  0  0  0  0  0  0  0  0  0  0  0
   43.0110   34.1880   39.2110 C   0  0  0  0  0  0  0  0  0  0  0  0
   41.6310   34.3410   39.2880 C   0  0  0  0  0  0  0  0  0  0  0  0
   40.8720   33.8420   38.3230 N   0  0  0  0  0  0  0  0  0  0  0  0
   39.5230   33.9710   38.3610 C   0  0  0  0  0  0  0  0  0  0  0  0
   38.9760   34.6430   39.4420 C   0  0  0  0  0  0  0  0  0  0  0  0
   39.7790   35.1770   40.4710 C   0  0  0  0  0  0  0  0  0  0  0  0
   41.1520   35.0130   40.3780 C   0  0  0  0  0  0  0  0  0  0  0  0
   41.9860   35.5270   41.3760 C   0  0  0  0  0  0  0  0  0  0  0  0
   43.9923   36.5606   44.9719 H   0  0  0  0  0  0  0  0  0  0  0  0
   45.2750   33.5739   42.0920 H   0  0  0  0  0  0  0  0  0  0  0  0
   44.2950   33.1778   47.9397 H   0  0  0  0  0  0  0  0  0  0  0  0
   45.7879   31.7392   49.6761 H   0  0  0  0  0  0  0  0  0  0  0  0
   49.0109   32.7858   49.6147 H   0  0  0  0  0  0  0  0  0  0  0  0
   50.9954   31.6329   50.6506 H   0  0  0  0  0  0  0  0  0  0  0  0
   51.3090   29.2621   50.1149 H   0  0  0  0  0  0  0  0  0  0  0  0
   49.8328   27.9607   48.6565 H   0  0  0  0  0  0  0  0  0  0  0  0
   47.8190   27.5242   47.2609 H   0  0  0  0  0  0  0  0  0  0  0  0
   44.9456   34.5336   40.0727 H   0  0  0  0  0  0  0  0  0  0  0  0
   43.4384   33.6551   38.3488 H   0  0  0  0  0  0  0  0  0  0  0  0
   38.8871   33.5580   37.5641 H   0  0  0  0  0  0  0  0  0  0  0  0
   37.8841   34.7635   39.4993 H   0  0  0  0  0  0  0  0  0  0  0  0
   39.3287   35.7082   41.3225 H   0  0  0  0  0  0  0  0  0  0  0  0
   41.5589   36.0625   42.2368 H   0  0  0  0  0  0  0  0  0  0  0  0
  1  6  2  0
  2  1  1  0
  3  2  2  0
  3  4  1  0
  4  5  2  0
  5  6  1  0
  5  7  1  0
  7 11  2  0
  7  8  1  0
  8  9  2  0
 10 13  1  0
 10  9  1  0
 11 10  1  0
 12 13  2  0
 12 17  1  0
 13 14  1  0
 14 15  2  0
 16 15  1  0
 17 16  2  0
 18 19  2  0
 18 12  1  0
 20 18  2  0
 21  2  1  0
 22 31  1  0
 22 21  1  0
 23 22  2  0
 24 25  2  0
 24 23  1  0
 25 30  1  0
 26 27  2  0
 26 25  1  0
 27 28  1  0
 28 29  2  0
 30 29  1  0
 30 31  2  0
  1 32  1  0
  3 33  1  0
  8 34  1  0
  9 35  1  0
 14 36  1  0
 15 37  1  0
 16 38  1  0
 17 39  1  0
 18 40  1  0
 23 41  1  0
 24 42  1  0
 27 43  1  0
 28 44  1  0
 29 45  1  0
 31 46  1  0
M  END
>  <Score>  (1) 
-7.57461

>  <Score_dual>  (1) 
-7.31

>  <Choices>  (1) 
[None, 7, ['2-1', 0], 10, ['36-22', 315], 25, ['22-8', 345], 32, ['27-12', 285]]

$$$$
