
     RDKit          3D

 46 50  0  0  1  0  0  0  0  0999 V2000
   44.8280   35.0290   44.7650 C   0  0  0  0  0  0  0  0  0  0  0  0
   45.4590   34.8210   43.5440 C   0  0  0  0  0  0  0  0  0  0  0  0
   46.4650   33.8390   43.5030 C   0  0  0  0  0  0  0  0  0  0  0  0
   46.7520   33.1730   44.6260 N   0  0  0  0  0  0  0  0  0  0  0  0
   46.1300   33.3890   45.7970 C   0  0  0  0  0  0  0  0  0  0  0  0
   45.1540   34.3370   45.8470 N   0  0  0  0  0  0  0  0  0  0  0  0
   46.4100   32.6880   47.0360 C   0  0  0  0  0  0  0  0  0  0  0  0
   45.4450   32.5790   48.0460 C   0  0  0  0  0  0  0  0  0  0  0  0
   46.0350   31.8540   49.0820 C   0  0  0  0  0  0  0  0  0  0  0  0
   47.2910   31.5500   48.6980 N   0  0  0  0  0  0  0  0  0  0  0  0
   47.4780   32.0600   47.4820 N   0  0  0  0  0  0  0  0  0  0  0  0
   48.8670   29.7180   48.5850 C   0  0  1  0  0  0  0  0  0  0  0  0
   48.2660   30.8030   49.4700 C   0  0  1  0  0  0  0  0  0  0  0  0
   49.3890   31.5740   49.7520 O   0  0  0  0  0  0  0  0  0  0  0  0
   50.4190   30.6920   50.0330 C   0  0  0  0  0  0  0  0  0  0  0  0
   50.1700   29.4240   49.2500 C   0  0  1  0  0  0  0  0  0  0  0  0
   48.0280   28.6420   48.4260 O   0  0  0  0  0  0  0  0  0  0  0  0
   50.0310   28.2970   50.0220 O   0  0  0  0  0  0  0  0  0  0  0  0
   45.1690   35.5070   42.3780 O   0  0  0  0  0  0  0  0  0  0  0  0
   44.2320   35.1050   41.4330 C   0  0  0  0  0  0  0  0  0  0  0  0
   44.4440   34.2690   40.3680 C   0  0  0  0  0  0  0  0  0  0  0  0
   43.4110   33.9610   39.5140 C   0  0  0  0  0  0  0  0  0  0  0  0
   42.1360   34.4680   39.6840 C   0  0  0  0  0  0  0  0  0  0  0  0
   41.1690   34.1390   38.8260 N   0  0  0  0  0  0  0  0  0  0  0  0
   39.9220   34.6100   38.9590 C   0  0  0  0  0  0  0  0  0  0  0  0
   39.6720   35.4500   40.0150 C   0  0  0  0  0  0  0  0  0  0  0  0
   40.6720   35.8100   40.9260 C   0  0  0  0  0  0  0  0  0  0  0  0
   41.9380   35.3080   40.7600 C   0  0  0  0  0  0  0  0  0  0  0  0
   42.9680   35.6370   41.6410 C   0  0  0  0  0  0  0  0  0  0  0  0
   44.0360   35.7892   44.8350 H   0  0  0  0  0  0  0  0  0  0  0  0
   47.0034   33.6239   42.5682 H   0  0  0  0  0  0  0  0  0  0  0  0
   44.4229   32.9852   48.0261 H   0  0  0  0  0  0  0  0  0  0  0  0
   45.5621   31.5807   50.0368 H   0  0  0  0  0  0  0  0  0  0  0  0
   49.0184   30.0258   47.5399 H   0  0  0  0  0  0  0  0  0  0  0  0
   47.7421   30.4498   50.3704 H   0  0  0  0  0  0  0  0  0  0  0  0
   51.3812   31.1333   49.7339 H   0  0  0  0  0  0  0  0  0  0  0  0
   50.4557   30.4761   51.1110 H   0  0  0  0  0  0  0  0  0  0  0  0
   51.0173   29.1985   48.5857 H   0  0  0  0  0  0  0  0  0  0  0  0
   47.7600   28.2983   49.3149 H   0  0  0  0  0  0  0  0  0  0  0  0
   50.0618   28.5470   50.9794 H   0  0  0  0  0  0  0  0  0  0  0  0
   45.4434   33.8430   40.1957 H   0  0  0  0  0  0  0  0  0  0  0  0
   43.6059   33.2878   38.6661 H   0  0  0  0  0  0  0  0  0  0  0  0
   39.1286   34.3340   38.2488 H   0  0  0  0  0  0  0  0  0  0  0  0
   38.6569   35.8519   40.1494 H   0  0  0  0  0  0  0  0  0  0  0  0
   40.4458   36.4862   41.7636 H   0  0  0  0  0  0  0  0  0  0  0  0
   42.7802   36.3102   42.4904 H   0  0  0  0  0  0  0  0  0  0  0  0
  1  6  2  0
  2  1  1  0
  3  2  2  0
  3  4  1  0
  4  5  2  0
  5  6  1  0
  5  7  1  0
  7 11  2  0
  7  8  1  0
  8  9  2  0
 10  9  1  0
 11 10  1  0
 12 17  1  0
 12 16  1  0
 12 13  1  0
 13 10  1  0
 13 14  1  0
 14 15  1  0
 16 18  1  0
 16 15  1  0
 19  2  1  0
 20 29  1  0
 20 19  1  0
 21 20  2  0
 22 23  2  0
 22 21  1  0
 23 28  1  0
 24 25  2  0
 24 23  1  0
 25 26  1  0
 26 27  2  0
 28 27  1  0
 28 29  2  0
  1 30  1  0
  3 31  1  0
  8 32  1  0
  9 33  1  0
 12 34  1  6
 13 35  1  1
 15 36  1  0
 15 37  1  0
 16 38  1  6
 17 39  1  0
 18 40  1  0
 21 41  1  0
 22 42  1  0
 25 43  1  0
 26 44  1  0
 27 45  1  0
 29 46  1  0
M  END
>  <Score>  (1) 
-7.75709

>  <Score_dual>  (1) 
-7.24

>  <Choices>  (1) 
[None, 7, ['2-1', 0], 10, ['36-22', 315], 25, ['22-8', 345], 32, ['14-3', 345]]

$$$$
