
     RDKit          3D

 42 46  0  0  0  0  0  0  0  0999 V2000
   44.4800   35.5980   44.7300 C   0  0  0  0  0  0  0  0  0  0  0  0
   44.6100   35.1810   43.4020 C   0  0  0  0  0  0  0  0  0  0  0  0
   45.2560   33.9430   43.1570 C   0  0  0  0  0  0  0  0  0  0  0  0
   45.7070   33.2420   44.2080 N   0  0  0  0  0  0  0  0  0  0  0  0
   45.5750   33.6580   45.4790 C   0  0  0  0  0  0  0  0  0  0  0  0
   44.9470   34.8600   45.7250 N   0  0  0  0  0  0  0  0  0  0  0  0
   46.0410   32.9460   46.6570 C   0  0  0  0  0  0  0  0  0  0  0  0
   45.2490   32.7870   47.7820 C   0  0  0  0  0  0  0  0  0  0  0  0
   45.9850   32.0680   48.7170 C   0  0  0  0  0  0  0  0  0  0  0  0
   47.1900   31.8160   48.1360 N   0  0  0  0  0  0  0  0  0  0  0  0
   47.1980   32.3460   46.9160 N   0  0  0  0  0  0  0  0  0  0  0  0
   48.3030   31.1120   48.6730 C   0  0  0  0  0  0  0  0  0  0  0  0
   48.4460   29.7980   48.2600 C   0  0  0  0  0  0  0  0  0  0  0  0
   49.5180   29.0390   48.7460 C   0  0  0  0  0  0  0  0  0  0  0  0
   50.3400   29.7240   49.6170 C   0  0  0  0  0  0  0  0  0  0  0  0
   50.2200   31.0300   50.0440 C   0  0  0  0  0  0  0  0  0  0  0  0
   49.1600   31.6990   49.5310 N   0  0  0  0  0  0  0  0  0  0  0  0
   44.1570   35.8760   42.2930 O   0  0  0  0  0  0  0  0  0  0  0  0
   43.4190   35.3230   41.2640 C   0  0  0  0  0  0  0  0  0  0  0  0
   43.9100   34.6170   40.1890 C   0  0  0  0  0  0  0  0  0  0  0  0
   43.0490   34.1260   39.2430 C   0  0  0  0  0  0  0  0  0  0  0  0
   41.6750   34.3090   39.3150 C   0  0  0  0  0  0  0  0  0  0  0  0
   40.8840   33.8080   38.3610 N   0  0  0  0  0  0  0  0  0  0  0  0
   39.5540   33.9660   38.4020 C   0  0  0  0  0  0  0  0  0  0  0  0
   39.0240   34.6680   39.4630 C   0  0  0  0  0  0  0  0  0  0  0  0
   39.8410   35.2060   40.4810 C   0  0  0  0  0  0  0  0  0  0  0  0
   41.1980   35.0170   40.3960 C   0  0  0  0  0  0  0  0  0  0  0  0
   42.0430   35.5310   41.3770 C   0  0  0  0  0  0  0  0  0  0  0  0
   43.9822   36.5536   44.9515 H   0  0  0  0  0  0  0  0  0  0  0  0
   45.3841   33.5669   42.1313 H   0  0  0  0  0  0  0  0  0  0  0  0
   44.2231   33.1618   47.9122 H   0  0  0  0  0  0  0  0  0  0  0  0
   45.6595   31.7642   49.7228 H   0  0  0  0  0  0  0  0  0  0  0  0
   47.7249   29.3549   47.5574 H   0  0  0  0  0  0  0  0  0  0  0  0
   49.6892   27.9910   48.4591 H   0  0  0  0  0  0  0  0  0  0  0  0
   51.1945   29.1603   50.0196 H   0  0  0  0  0  0  0  0  0  0  0  0
   50.9296   31.4920   50.7462 H   0  0  0  0  0  0  0  0  0  0  0  0
   44.9923   34.4473   40.0896 H   0  0  0  0  0  0  0  0  0  0  0  0
   43.4631   33.5644   38.3926 H   0  0  0  0  0  0  0  0  0  0  0  0
   38.9073   33.5496   37.6156 H   0  0  0  0  0  0  0  0  0  0  0  0
   37.9350   34.8130   39.5182 H   0  0  0  0  0  0  0  0  0  0  0  0
   39.4010   35.7628   41.3215 H   0  0  0  0  0  0  0  0  0  0  0  0
   41.6319   36.0928   42.2287 H   0  0  0  0  0  0  0  0  0  0  0  0
  1  6  2  0
  2  1  1  0
  3  2  2  0
  3  4  1  0
  4  5  2  0
  5  6  1  0
  5  7  1  0
  7 11  2  0
  7  8  1  0
  8  9  2  0
 10 12  1  0
 10  9  1  0
 11 10  1  0
 12 17  1  0
 13 12  2  0
 13 14  1  0
 14 15  2  0
 15 16  1  0
 17 16  2  0
 18  2  1  0
 19 28  1  0
 19 18  1  0
 20 19  2  0
 21 22  2  0
 21 20  1  0
 22 27  1  0
 23 24  2  0
 23 22  1  0
 24 25  1  0
 25 26  2  0
 27 26  1  0
 27 28  2  0
  1 29  1  0
  3 30  1  0
  8 31  1  0
  9 32  1  0
 13 33  1  0
 14 34  1  0
 15 35  1  0
 16 36  1  0
 20 37  1  0
 21 38  1  0
 24 39  1  0
 25 40  1  0
 26 41  1  0
 28 42  1  0
M  END
>  <Score>  (1) 
-7.52794

>  <Score_dual>  (1) 
-7.07

>  <Choices>  (1) 
[None, 7, ['2-1', 0], 10, ['36-22', 315], 25, ['22-8', 345], 32, ['6-5', 90]]

$$$$
