
     RDKit          3D

 42 46  0  0  0  0  0  0  0  0999 V2000
   46.9400   32.2410   46.6960 C   0  0  0  0  0  0  0  0  0  0  0  0
   47.3810   32.5730   47.8190 O   0  0  0  0  0  0  0  0  0  0  0  0
   44.8200   30.6130   47.9900 Cl  0  0  0  0  0  0  0  0  0  0  0  0
   46.0390   29.9840   46.8750 C   0  0  0  0  0  0  0  0  0  0  0  0
   46.9860   30.8280   46.3410 C   0  0  0  0  0  0  0  0  0  0  0  0
   47.9120   30.2920   45.4970 C   0  0  0  0  0  0  0  0  0  0  0  0
   47.8990   28.9490   45.1900 C   0  0  0  0  0  0  0  0  0  0  0  0
   46.9480   28.1020   45.7270 C   0  0  0  0  0  0  0  0  0  0  0  0
   46.0000   28.6490   46.5890 C   0  0  0  0  0  0  0  0  0  0  0  0
   45.0400   27.6730   47.0920 C   0  0  0  0  0  0  0  0  0  0  0  0
   43.9220   27.1310   46.4780 C   0  0  0  0  0  0  0  0  0  0  0  0
   43.2700   26.2330   47.2950 C   0  0  0  0  0  0  0  0  0  0  0  0
   44.0540   26.2640   48.4310 C   0  0  0  0  0  0  0  0  0  0  0  0
   45.0420   27.0960   48.2590 O   0  0  0  0  0  0  0  0  0  0  0  0
   44.8360   34.8690   45.3480 C   0  0  0  0  0  0  0  0  0  0  0  0
   45.2830   35.0920   44.0390 C   0  0  0  0  0  0  0  0  0  0  0  0
   46.3390   34.2960   43.6550 C   0  0  0  0  0  0  0  0  0  0  0  0
   46.8530   33.3850   44.5330 N   0  0  0  0  0  0  0  0  0  0  0  0
   46.3970   33.2090   45.7620 C   0  0  0  0  0  0  0  0  0  0  0  0
   45.3720   33.9680   46.1630 N   0  0  0  0  0  0  0  0  0  0  0  0
   48.0840   35.0630   42.0660 C   0  0  0  0  0  0  0  0  0  0  0  0
   46.9330   34.3940   42.3260 C   0  0  0  0  0  0  0  0  0  0  0  0
   46.3280   33.7910   41.2420 C   0  0  0  0  0  0  0  0  0  0  0  0
   46.8560   33.8600   39.9740 C   0  0  0  0  0  0  0  0  0  0  0  0
   46.4800   33.3740   38.7640 N   0  0  0  0  0  0  0  0  0  0  0  0
   47.3450   33.7220   37.8220 N   0  0  0  0  0  0  0  0  0  0  0  0
   48.3300   34.4540   38.3750 C   0  0  0  0  0  0  0  0  0  0  0  0
   48.0430   34.5540   39.7310 C   0  0  0  0  0  0  0  0  0  0  0  0
   48.6610   35.1660   40.8080 C   0  0  0  0  0  0  0  0  0  0  0  0
   48.6815   30.9415   45.0542 H   0  0  0  0  0  0  0  0  0  0  0  0
   48.6588   28.5438   44.5055 H   0  0  0  0  0  0  0  0  0  0  0  0
   46.9399   27.0298   45.4815 H   0  0  0  0  0  0  0  0  0  0  0  0
   43.5941   27.3871   45.4597 H   0  0  0  0  0  0  0  0  0  0  0  0
   42.3622   25.6451   47.0945 H   0  0  0  0  0  0  0  0  0  0  0  0
   43.8723   25.6758   49.3426 H   0  0  0  0  0  0  0  0  0  0  0  0
   43.9956   35.4730   45.7207 H   0  0  0  0  0  0  0  0  0  0  0  0
   44.8283   35.8406   43.3735 H   0  0  0  0  0  0  0  0  0  0  0  0
   48.5933   35.5561   42.9071 H   0  0  0  0  0  0  0  0  0  0  0  0
   45.3911   33.2360   41.3976 H   0  0  0  0  0  0  0  0  0  0  0  0
   45.6344   32.8094   38.5995 H   0  0  0  0  0  0  0  0  0  0  0  0
   49.1955   34.8892   37.8539 H   0  0  0  0  0  0  0  0  0  0  0  0
   49.5971   35.7266   40.6685 H   0  0  0  0  0  0  0  0  0  0  0  0
  1  2  2  0
  4  3  1  0
  5  1  1  0
  5  4  2  0
  6  5  1  0
  7  6  2  0
  7  8  1  0
  8  9  2  0
  9  4  1  0
  9 10  1  0
 10 14  1  0
 11 10  2  0
 11 12  1  0
 12 13  2  0
 14 13  1  0
 15 20  2  0
 16 15  1  0
 17 16  2  0
 17 18  1  0
 18 19  2  0
 19 20  1  0
 19  1  1  0
 21 22  2  0
 22 17  1  0
 23 22  1  0
 24 23  2  0
 25 24  1  0
 26 27  2  0
 26 25  1  0
 27 28  1  0
 28 24  1  0
 28 29  2  0
 29 21  1  0
  6 30  1  0
  7 31  1  0
  8 32  1  0
 11 33  1  0
 12 34  1  0
 13 35  1  0
 15 36  1  0
 16 37  1  0
 21 38  1  0
 23 39  1  0
 25 40  1  0
 27 41  1  0
 29 42  1  0
M  END
>  <Score>  (1) 
-7.14887

>  <Score_dual>  (1) 
-7.45

>  <Choices>  (1) 
[None, 9, ['5-9', 60], 11, ['7-3', 60], 21, ['43-23', 30], 28, ['54-8', 60]]

$$$$
