
     RDKit          3D

 55 58  0  0  1  0  0  0  0  0999 V2000
   46.9180   32.8930   45.6710 C   0  0  0  0  0  0  0  0  0  0  0  0
   45.8000   33.5570   46.1620 C   0  0  0  0  0  0  0  0  0  0  0  0
   45.1080   34.4650   45.3260 C   0  0  0  0  0  0  0  0  0  0  0  0
   45.6140   34.6350   44.0420 N   0  0  0  0  0  0  0  0  0  0  0  0
   46.7030   33.9630   43.6320 C   0  0  0  0  0  0  0  0  0  0  0  0
   47.3370   33.1120   44.4310 N   0  0  0  0  0  0  0  0  0  0  0  0
   47.1920   34.2070   42.2740 C   0  0  0  0  0  0  0  0  0  0  0  0
   48.1660   35.1480   42.0270 C   0  0  0  0  0  0  0  0  0  0  0  0
   48.6780   35.4360   40.7820 C   0  0  0  0  0  0  0  0  0  0  0  0
   48.1320   34.6950   39.7560 C   0  0  0  0  0  0  0  0  0  0  0  0
   47.1600   33.7510   39.9790 C   0  0  0  0  0  0  0  0  0  0  0  0
   46.6900   33.5080   41.2430 N   0  0  0  0  0  0  0  0  0  0  0  0
   46.5860   32.9770   38.9350 N   0  0  0  0  0  0  0  0  0  0  0  0
   45.1860   32.7080   38.7500 C   0  0  0  0  0  0  0  0  0  0  0  0
   44.8680   32.9520   37.2780 C   0  0  0  0  0  0  0  0  0  0  0  0
   45.9030   33.7540   36.6280 N   0  0  0  0  0  0  0  0  0  0  0  0
   47.1530   32.9880   36.5660 C   0  0  0  0  0  0  0  0  0  0  0  0
   47.3810   32.3490   37.9010 C   0  0  0  0  0  0  0  0  0  0  0  0
   47.5790   31.9570   46.5580 C   0  0  2  0  0  0  0  0  0  0  0  0
   47.4290   30.4890   46.0530 C   0  0  0  0  0  0  0  0  0  0  0  0
   48.2650   29.5920   46.9010 C   0  0  0  0  0  0  0  0  0  0  0  0
   48.1750   29.8170   48.3740 C   0  0  0  0  0  0  0  0  0  0  0  0
   48.0850   31.2030   48.7590 C   0  0  0  0  0  0  0  0  0  0  0  0
   47.0810   32.0210   47.9180 C   0  0  2  0  0  0  0  0  0  0  0  0
   45.7700   31.3720   48.0010 N   0  0  0  0  0  0  0  0  0  0  0  0
   45.1100   30.7280   49.0620 C   0  0  0  0  0  0  0  0  0  0  0  0
   44.5360   31.3670   50.0160 O   0  0  0  0  0  0  0  0  0  0  0  0
   45.1180   29.3020   48.9970 N   0  0  0  0  0  0  0  0  0  0  0  0
   45.4562   33.3782   47.1915 H   0  0  0  0  0  0  0  0  0  0  0  0
   44.2166   35.0078   45.6736 H   0  0  0  0  0  0  0  0  0  0  0  0
   48.5633   35.7096   42.8853 H   0  0  0  0  0  0  0  0  0  0  0  0
   49.4580   36.1944   40.6195 H   0  0  0  0  0  0  0  0  0  0  0  0
   48.4853   34.8649   38.7282 H   0  0  0  0  0  0  0  0  0  0  0  0
   44.9652   31.6634   39.0147 H   0  0  0  0  0  0  0  0  0  0  0  0
   44.5759   33.3590   39.3934 H   0  0  0  0  0  0  0  0  0  0  0  0
   44.7927   31.9824   36.7639 H   0  0  0  0  0  0  0  0  0  0  0  0
   43.9183   33.5038   37.2188 H   0  0  0  0  0  0  0  0  0  0  0  0
   45.6009   33.9949   35.6732 H   0  0  0  0  0  0  0  0  0  0  0  0
   47.0751   32.2116   35.7907 H   0  0  0  0  0  0  0  0  0  0  0  0
   47.9927   33.6534   36.3165 H   0  0  0  0  0  0  0  0  0  0  0  0
   47.1093   31.2849   37.8385 H   0  0  0  0  0  0  0  0  0  0  0  0
   48.4427   32.4686   38.1629 H   0  0  0  0  0  0  0  0  0  0  0  0
   48.6382   32.2539   46.5554 H   0  0  0  0  0  0  0  0  0  0  0  0
   46.3748   30.1823   46.1208 H   0  0  0  0  0  0  0  0  0  0  0  0
   47.7597   30.4223   45.0060 H   0  0  0  0  0  0  0  0  0  0  0  0
   47.9583   28.5551   46.6991 H   0  0  0  0  0  0  0  0  0  0  0  0
   49.3079   29.8125   46.6294 H   0  0  0  0  0  0  0  0  0  0  0  0
   47.2805   29.2971   48.7477 H   0  0  0  0  0  0  0  0  0  0  0  0
   49.1082   29.4298   48.8089 H   0  0  0  0  0  0  0  0  0  0  0  0
   47.7737   31.2504   49.8130 H   0  0  0  0  0  0  0  0  0  0  0  0
   49.0778   31.6463   48.5921 H   0  0  0  0  0  0  0  0  0  0  0  0
   46.9798   33.0608   48.2624 H   0  0  0  0  0  0  0  0  0  0  0  0
   45.2343   31.3911   47.1215 H   0  0  0  0  0  0  0  0  0  0  0  0
   44.6569   28.7503   49.7345 H   0  0  0  0  0  0  0  0  0  0  0  0
   45.5848   28.8248   48.2126 H   0  0  0  0  0  0  0  0  0  0  0  0
  1  2  2  0
  1 19  1  0
  3  2  1  0
  4  3  2  0
  5  4  1  0
  5  6  2  0
  6  1  1  0
  7  5  1  0
  8  7  2  0
  9  8  1  0
 10 11  1  0
 10  9  2  0
 11 12  2  0
 12  7  1  0
 13 11  1  0
 14 13  1  0
 15 14  1  0
 16 15  1  0
 17 16  1  0
 17 18  1  0
 18 13  1  0
 19 24  1  0
 20 19  1  0
 20 21  1  0
 21 22  1  0
 22 23  1  0
 24 25  1  0
 24 23  1  0
 25 26  1  0
 26 27  2  0
 28 26  1  0
  2 29  1  0
  3 30  1  0
  8 31  1  0
  9 32  1  0
 10 33  1  0
 14 34  1  0
 14 35  1  0
 15 36  1  0
 15 37  1  0
 16 38  1  0
 17 39  1  0
 17 40  1  0
 18 41  1  0
 18 42  1  0
 19 43  1  1
 20 44  1  0
 20 45  1  0
 21 46  1  0
 21 47  1  0
 22 48  1  0
 22 49  1  0
 23 50  1  0
 23 51  1  0
 24 52  1  1
 25 53  1  0
 28 54  1  0
 28 55  1  0
M  END
>  <Score>  (1) 
-7.15478

>  <Score_dual>  (1) 
-7.26

>  <Choices>  (1) 
[None, 9, ['6-17', 105], 12, ['18-24', 255], 34, ['0-3', 0], 36, ['12-1', 105], 37, ['15-5', 225]]

$$$$
