
     RDKit          3D

 37 39  0  0  1  0  0  0  0  0999 V2000
   44.7310   35.6320   44.2850 C   0  0  0  0  0  0  0  0  0  0  0  0
   45.5470   35.5430   43.1450 C   0  0  0  0  0  0  0  0  0  0  0  0
   46.5790   34.5710   43.1100 C   0  0  0  0  0  0  0  0  0  0  0  0
   46.7030   33.7910   44.1930 N   0  0  0  0  0  0  0  0  0  0  0  0
   45.9210   33.8730   45.2910 C   0  0  0  0  0  0  0  0  0  0  0  0
   44.9270   34.8050   45.3310 N   0  0  0  0  0  0  0  0  0  0  0  0
   46.1150   33.0030   46.4100 N   0  0  0  0  0  0  0  0  0  0  0  0
   47.0980   32.0900   46.2940 C   0  0  0  0  0  0  0  0  0  0  0  0
   47.2810   31.2530   47.3760 C   0  0  0  0  0  0  0  0  0  0  0  0
   46.4530   31.4200   48.4690 C   0  0  0  0  0  0  0  0  0  0  0  0
   46.6090   30.5800   49.5990 N   0  0  0  0  0  0  0  0  0  0  0  0
   45.4870   32.3550   48.5190 N   0  0  0  0  0  0  0  0  0  0  0  0
   45.2930   33.1910   47.4580 C   0  0  0  0  0  0  0  0  0  0  0  0
   44.4120   34.0880   47.4310 O   0  0  0  0  0  0  0  0  0  0  0  0
   47.4710   34.4160   41.9610 C   0  0  1  0  0  0  0  0  0  0  0  0
   46.8260   34.3300   40.6420 C   0  0  1  0  0  0  0  0  0  0  0  0
   48.0340   34.3800   39.7290 C   0  0  0  0  0  0  0  0  0  0  0  0
   48.8820   35.4620   40.3880 C   0  0  0  0  0  0  0  0  0  0  0  0
   48.4090   35.6040   41.7950 C   0  0  0  0  0  0  0  0  0  0  0  0
   46.1830   32.9340   40.5710 C   0  0  0  0  0  0  0  0  0  0  0  0
   46.8450   32.0390   41.3550 F   0  0  0  0  0  0  0  0  0  0  0  0
   46.1580   32.5930   39.2360 F   0  0  0  0  0  0  0  0  0  0  0  0
   44.8720   33.0240   40.9980 F   0  0  0  0  0  0  0  0  0  0  0  0
   43.9268   36.3815   44.3242 H   0  0  0  0  0  0  0  0  0  0  0  0
   45.3877   36.2180   42.2912 H   0  0  0  0  0  0  0  0  0  0  0  0
   47.7192   32.0156   45.3892 H   0  0  0  0  0  0  0  0  0  0  0  0
   48.0613   30.4777   47.3682 H   0  0  0  0  0  0  0  0  0  0  0  0
   45.9952   30.6987   50.4176 H   0  0  0  0  0  0  0  0  0  0  0  0
   47.3362   29.8506   49.6020 H   0  0  0  0  0  0  0  0  0  0  0  0
   47.9667   33.4671   42.2136 H   0  0  0  0  0  0  0  0  0  0  0  0
   46.0645   35.0895   40.4111 H   0  0  0  0  0  0  0  0  0  0  0  0
   47.7498   34.6629   38.7047 H   0  0  0  0  0  0  0  0  0  0  0  0
   48.5502   33.4146   39.6218 H   0  0  0  0  0  0  0  0  0  0  0  0
   49.9421   35.1686   40.3755 H   0  0  0  0  0  0  0  0  0  0  0  0
   48.7844   36.4150   39.8474 H   0  0  0  0  0  0  0  0  0  0  0  0
   49.2493   35.5465   42.5026 H   0  0  0  0  0  0  0  0  0  0  0  0
   47.9242   36.5710   41.9944 H   0  0  0  0  0  0  0  0  0  0  0  0
  1  6  2  0
  2  1  1  0
  3  2  2  0
  3  4  1  0
  4  5  2  0
  5  6  1  0
  5  7  1  0
  7 13  1  0
  8  7  1  0
  8  9  2  0
  9 10  1  0
 10 12  2  0
 10 11  1  0
 13 12  1  0
 14 13  2  0
 15  3  1  0
 16 15  1  0
 17 18  1  0
 17 16  1  0
 18 19  1  0
 19 15  1  0
 20 16  1  0
 20 23  1  0
 20 21  1  0
 22 20  1  0
  1 24  1  0
  2 25  1  0
  8 26  1  0
  9 27  1  0
 11 28  1  0
 11 29  1  0
 15 30  1  1
 16 31  1  6
 17 32  1  0
 17 33  1  0
 18 34  1  0
 18 35  1  0
 19 36  1  0
 19 37  1  0
M  END
>  <Score>  (1) 
-7.02167

$$$$
