
     RDKit          3D

 45 49  0  0  0  0  0  0  0  0999 V2000
   46.0800   33.1030   38.8220 C   0  0  0  0  0  0  0  0  0  0  0  0
   46.8130   32.5620   37.8150 C   0  0  0  0  0  0  0  0  0  0  0  0
   46.1930   31.8490   36.7900 C   0  0  0  0  0  0  0  0  0  0  0  0
   44.8090   31.7640   36.9170 C   0  0  0  0  0  0  0  0  0  0  0  0
   44.0310   32.2990   37.9210 C   0  0  0  0  0  0  0  0  0  0  0  0
   44.7440   32.9770   38.8740 N   0  0  0  0  0  0  0  0  0  0  0  0
   46.7520   34.7150   42.0680 C   0  0  0  0  0  0  0  0  0  0  0  0
   47.9990   35.2910   41.9380 C   0  0  0  0  0  0  0  0  0  0  0  0
   48.5930   35.1080   40.7120 C   0  0  0  0  0  0  0  0  0  0  0  0
   47.9820   34.3940   39.6810 C   0  0  0  0  0  0  0  0  0  0  0  0
   46.7370   33.8460   39.8750 C   0  0  0  0  0  0  0  0  0  0  0  0
   46.1570   34.0280   41.0840 N   0  0  0  0  0  0  0  0  0  0  0  0
   44.4980   35.9780   44.7490 C   0  0  0  0  0  0  0  0  0  0  0  0
   45.1750   35.8800   43.5300 C   0  0  0  0  0  0  0  0  0  0  0  0
   46.0340   34.8450   43.3150 C   0  0  0  0  0  0  0  0  0  0  0  0
   46.1790   33.9480   44.3370 N   0  0  0  0  0  0  0  0  0  0  0  0
   45.5210   34.0500   45.5110 C   0  0  0  0  0  0  0  0  0  0  0  0
   44.6820   35.0620   45.7190 N   0  0  0  0  0  0  0  0  0  0  0  0
   42.5810   32.1440   37.9240 C   0  0  0  0  0  0  0  0  0  0  0  0
   41.8880   32.3700   39.1850 C   0  0  0  0  0  0  0  0  0  0  0  0
   41.8170   31.2840   40.0120 N   0  0  0  0  0  0  0  0  0  0  0  0
   41.2310   31.3440   41.2310 C   0  0  0  0  0  0  0  0  0  0  0  0
   40.6800   32.4670   41.7160 N   0  0  0  0  0  0  0  0  0  0  0  0
   40.7230   33.5650   40.9420 C   0  0  0  0  0  0  0  0  0  0  0  0
   40.1820   34.7740   41.3250 C   0  0  0  0  0  0  0  0  0  0  0  0
   40.2200   35.9110   40.5140 C   0  0  0  0  0  0  0  0  0  0  0  0
   40.8200   35.7990   39.2950 C   0  0  0  0  0  0  0  0  0  0  0  0
   41.3890   34.6080   38.8390 C   0  0  0  0  0  0  0  0  0  0  0  0
   41.3220   33.5230   39.6810 C   0  0  0  0  0  0  0  0  0  0  0  0
   47.9058   32.6875   37.8080 H   0  0  0  0  0  0  0  0  0  0  0  0
   46.7474   31.3944   35.9558 H   0  0  0  0  0  0  0  0  0  0  0  0
   44.2783   31.2089   36.1295 H   0  0  0  0  0  0  0  0  0  0  0  0
   48.4803   35.8529   42.7520 H   0  0  0  0  0  0  0  0  0  0  0  0
   49.5888   35.5414   40.5371 H   0  0  0  0  0  0  0  0  0  0  0  0
   48.4952   34.2701   38.7160 H   0  0  0  0  0  0  0  0  0  0  0  0
   43.8050   36.8153   44.9185 H   0  0  0  0  0  0  0  0  0  0  0  0
   45.0146   36.6360   42.7472 H   0  0  0  0  0  0  0  0  0  0  0  0
   45.6783   33.2962   46.2965 H   0  0  0  0  0  0  0  0  0  0  0  0
   42.1713   32.8534   37.1899 H   0  0  0  0  0  0  0  0  0  0  0  0
   42.4099   31.0820   37.6939 H   0  0  0  0  0  0  0  0  0  0  0  0
   41.2056   30.4345   41.8492 H   0  0  0  0  0  0  0  0  0  0  0  0
   39.6999   34.8464   42.3111 H   0  0  0  0  0  0  0  0  0  0  0  0
   39.7812   36.8630   40.8473 H   0  0  0  0  0  0  0  0  0  0  0  0
   40.8575   36.6842   38.6430 H   0  0  0  0  0  0  0  0  0  0  0  0
   41.8688   34.5409   37.8514 H   0  0  0  0  0  0  0  0  0  0  0  0
  1  6  1  0
  1 11  1  0
  2  1  2  0
  3  4  2  0
  3  2  1  0
  4  5  1  0
  5 19  1  0
  5  6  2  0
  7 15  1  0
  8  7  2  0
  9  8  1  0
 10 11  1  0
 10  9  2  0
 11 12  2  0
 12  7  1  0
 13 18  2  0
 14 13  1  0
 15 14  2  0
 15 16  1  0
 16 17  2  0
 17 18  1  0
 19 20  1  0
 20 29  1  0
 20 21  2  0
 21 22  1  0
 22 23  2  0
 24 25  2  0
 24 23  1  0
 26 25  1  0
 27 26  2  0
 28 27  1  0
 28 29  2  0
 29 24  1  0
  2 30  1  0
  3 31  1  0
  4 32  1  0
  8 33  1  0
  9 34  1  0
 10 35  1  0
 13 36  1  0
 14 37  1  0
 17 38  1  0
 19 39  1  0
 19 40  1  0
 22 41  1  0
 25 42  1  0
 26 43  1  0
 27 44  1  0
 28 45  1  0
M  END
>  <Score>  (1) 
-7.5201

$$$$
