
     RDKit          3D

 37 39  0  0  0  0  0  0  0  0999 V2000
   46.9580   34.7320   41.8050 C   0  0  0  0  0  0  0  0  0  0  0  0
   48.2600   35.1720   41.5760 C   0  0  0  0  0  0  0  0  0  0  0  0
   48.5080   34.7620   40.2680 C   0  0  0  0  0  0  0  0  0  0  0  0
   47.3680   34.1120   39.7900 C   0  0  0  0  0  0  0  0  0  0  0  0
   46.4630   34.1210   40.7580 O   0  0  0  0  0  0  0  0  0  0  0  0
   44.5400   36.0450   44.3060 C   0  0  0  0  0  0  0  0  0  0  0  0
   45.2710   35.9160   43.0880 C   0  0  0  0  0  0  0  0  0  0  0  0
   46.1930   34.8980   43.0280 C   0  0  0  0  0  0  0  0  0  0  0  0
   46.3390   34.1100   44.1000 N   0  0  0  0  0  0  0  0  0  0  0  0
   45.6340   34.2470   45.2520 C   0  0  0  0  0  0  0  0  0  0  0  0
   44.7300   35.2260   45.3460 N   0  0  0  0  0  0  0  0  0  0  0  0
   45.8720   33.3500   46.3330 N   0  0  0  0  0  0  0  0  0  0  0  0
   44.9260   33.2860   47.4000 C   0  0  0  0  0  0  0  0  0  0  0  0
   44.2180   34.3380   47.5740 N   0  0  0  0  0  0  0  0  0  0  0  0
   44.8480   32.0850   48.1710 N   0  0  0  0  0  0  0  0  0  0  0  0
   43.5080   34.3710   48.3290 H   0  0  0  0  0  0  0  0  0  0  0  0
   47.2060   33.5430   38.5030 N   0  0  0  0  0  0  0  0  0  0  0  0
   46.3590   32.5160   38.3580 C   0  0  0  0  0  0  0  0  0  0  0  0
   46.1660   31.9310   37.1330 C   0  0  0  0  0  0  0  0  0  0  0  0
   46.8650   32.4220   36.0400 C   0  0  0  0  0  0  0  0  0  0  0  0
   46.6800   31.8750   34.9180 O   0  0  0  0  0  0  0  0  0  0  0  0
   47.7120   33.4630   36.2330 N   0  0  0  0  0  0  0  0  0  0  0  0
   47.8770   34.0160   37.4590 C   0  0  0  0  0  0  0  0  0  0  0  0
   48.6750   34.9790   37.5760 O   0  0  0  0  0  0  0  0  0  0  0  0
   45.2150   30.7960   37.0480 C   0  0  0  0  0  0  0  0  0  0  0  0
   48.9295   35.7120   42.2616 H   0  0  0  0  0  0  0  0  0  0  0  0
   49.4411   34.9225   39.7080 H   0  0  0  0  0  0  0  0  0  0  0  0
   43.7927   36.8475   44.3931 H   0  0  0  0  0  0  0  0  0  0  0  0
   45.1054   36.5965   42.2398 H   0  0  0  0  0  0  0  0  0  0  0  0
   46.7139   32.7567   46.3444 H   0  0  0  0  0  0  0  0  0  0  0  0
   44.1737   32.0136   48.9463 H   0  0  0  0  0  0  0  0  0  0  0  0
   45.4661   31.2909   47.9513 H   0  0  0  0  0  0  0  0  0  0  0  0
   45.8109   32.1367   39.2331 H   0  0  0  0  0  0  0  0  0  0  0  0
   48.2397   33.8404   35.4330 H   0  0  0  0  0  0  0  0  0  0  0  0
   44.9417   30.4699   38.0624 H   0  0  0  0  0  0  0  0  0  0  0  0
   44.3106   31.1150   36.5093 H   0  0  0  0  0  0  0  0  0  0  0  0
   45.6874   29.9614   36.5093 H   0  0  0  0  0  0  0  0  0  0  0  0
  1  8  1  0
  2  1  2  0
  3  2  1  0
  4  3  2  0
  4  5  1  0
  5  1  1  0
  6 11  2  0
  7  6  1  0
  8  7  2  0
  8  9  1  0
  9 10  2  0
 10 11  1  0
 10 12  1  0
 12 13  1  0
 13 14  2  0
 13 15  1  0
 14 16  1  0
 17  4  1  0
 18 17  1  0
 19 18  2  0
 20 22  1  0
 20 19  1  0
 21 20  2  0
 22 23  1  0
 23 24  2  0
 23 17  1  0
 25 19  1  0
  2 26  1  0
  3 27  1  0
  6 28  1  0
  7 29  1  0
 12 30  1  0
 15 31  1  0
 15 32  1  0
 18 33  1  0
 22 34  1  0
 25 35  1  0
 25 36  1  0
 25 37  1  0
M  END
>  <Score>  (1) 
-8.02671

$$$$
