
     RDKit          3D

 38 41  0  0  0  0  0  0  0  0999 V2000
   45.4330   33.7980   41.1840 C   0  0  0  0  0  0  0  0  0  0  0  0
   45.2040   33.3260   42.4810 C   0  0  0  0  0  0  0  0  0  0  0  0
   46.2110   33.6070   43.4310 C   0  0  0  0  0  0  0  0  0  0  0  0
   47.3070   34.3040   43.0080 N   0  0  0  0  0  0  0  0  0  0  0  0
   47.4870   34.7360   41.7610 C   0  0  0  0  0  0  0  0  0  0  0  0
   46.5400   34.4790   40.8460 N   0  0  0  0  0  0  0  0  0  0  0  0
   46.1110   33.1870   44.7890 N   0  0  0  0  0  0  0  0  0  0  0  0
   46.6590   32.0890   45.3710 C   0  0  0  0  0  0  0  0  0  0  0  0
   46.4270   31.8770   46.7230 C   0  0  0  0  0  0  0  0  0  0  0  0
   47.0580   30.6530   47.2970 C   0  0  0  0  0  0  0  0  0  0  0  0
   45.6690   32.7360   47.4780 C   0  0  0  0  0  0  0  0  0  0  0  0
   45.4810   32.5080   48.7070 O   0  0  0  0  0  0  0  0  0  0  0  0
   45.1450   33.8120   46.8580 N   0  0  0  0  0  0  0  0  0  0  0  0
   45.3610   34.0360   45.5380 C   0  0  0  0  0  0  0  0  0  0  0  0
   44.8070   35.0880   45.0890 O   0  0  0  0  0  0  0  0  0  0  0  0
   48.6980   35.4850   41.3730 C   0  0  0  0  0  0  0  0  0  0  0  0
   48.7370   35.6030   39.9820 F   0  0  0  0  0  0  0  0  0  0  0  0
   49.8310   34.7310   41.7110 F   0  0  0  0  0  0  0  0  0  0  0  0
   48.8250   36.6990   42.0090 F   0  0  0  0  0  0  0  0  0  0  0  0
   44.1750   33.4660   39.9290 S   0  0  0  0  0  0  0  0  0  0  0  0
   39.8540   32.8700   42.2260 N   0  0  0  0  0  0  0  0  0  0  0  0
   40.5530   31.7170   42.1480 C   0  0  0  0  0  0  0  0  0  0  0  0
   41.7160   32.0080   41.4990 N   0  0  0  0  0  0  0  0  0  0  0  0
   41.6800   33.3040   41.2130 C   0  0  0  0  0  0  0  0  0  0  0  0
   42.6160   34.0690   40.5660 C   0  0  0  0  0  0  0  0  0  0  0  0
   42.4160   35.3910   40.3560 N   0  0  0  0  0  0  0  0  0  0  0  0
   41.2590   35.9180   40.8100 C   0  0  0  0  0  0  0  0  0  0  0  0
   40.3300   35.1780   41.4480 N   0  0  0  0  0  0  0  0  0  0  0  0
   40.5280   33.8660   41.6560 C   0  0  0  0  0  0  0  0  0  0  0  0
   44.2932   32.7688   42.7455 H   0  0  0  0  0  0  0  0  0  0  0  0
   47.2706   31.3862   44.7863 H   0  0  0  0  0  0  0  0  0  0  0  0
   47.0302   30.7068   48.3953 H   0  0  0  0  0  0  0  0  0  0  0  0
   46.5062   29.7633   46.9594 H   0  0  0  0  0  0  0  0  0  0  0  0
   48.1028   30.5864   46.9594 H   0  0  0  0  0  0  0  0  0  0  0  0
   44.5703   34.4759   47.3963 H   0  0  0  0  0  0  0  0  0  0  0  0
   38.9275   32.9653   42.6658 H   0  0  0  0  0  0  0  0  0  0  0  0
   40.2439   30.7341   42.5333 H   0  0  0  0  0  0  0  0  0  0  0  0
   41.0673   36.9898   40.6537 H   0  0  0  0  0  0  0  0  0  0  0  0
  1  2  2  0
  2  3  1  0
  3  7  1  0
  4  3  2  0
  5  4  1  0
  6  1  1  0
  6  5  2  0
  7  8  1  0
  7 14  1  0
  8  9  2  0
  9 10  1  0
  9 11  1  0
 11 12  2  0
 13 11  1  0
 14 13  1  0
 15 14  2  0
 16 18  1  0
 16  5  1  0
 16 19  1  0
 17 16  1  0
 20 25  1  0
 20  1  1  0
 22 21  1  0
 23 22  2  0
 24 23  1  0
 24 29  2  0
 25 24  1  0
 26 25  2  0
 26 27  1  0
 27 28  2  0
 28 29  1  0
 29 21  1  0
  2 30  1  0
  8 31  1  0
 10 32  1  0
 10 33  1  0
 10 34  1  0
 13 35  1  0
 21 36  1  0
 22 37  1  0
 27 38  1  0
M  END
>  <Score>  (1) 
-8.38653

$$$$
