
     RDKit          3D

 39 42  0  0  0  0  0  0  0  0999 V2000
   44.8760   34.9580   45.2230 C   0  0  0  0  0  0  0  0  0  0  0  0
   45.4570   35.2680   44.0020 C   0  0  0  0  0  0  0  0  0  0  0  0
   46.4320   34.4820   43.4140 C   0  0  0  0  0  0  0  0  0  0  0  0
   46.7590   33.3800   44.1520 N   0  0  0  0  0  0  0  0  0  0  0  0
   46.2030   33.0660   45.3370 C   0  0  0  0  0  0  0  0  0  0  0  0
   45.2800   33.8550   45.8460 N   0  0  0  0  0  0  0  0  0  0  0  0
   47.1440   34.6590   42.1680 C   0  0  0  0  0  0  0  0  0  0  0  0
   48.2490   35.4980   42.1800 C   0  0  0  0  0  0  0  0  0  0  0  0
   49.0240   35.7580   41.0820 C   0  0  0  0  0  0  0  0  0  0  0  0
   48.6980   35.1540   39.8850 C   0  0  0  0  0  0  0  0  0  0  0  0
   47.6080   34.3040   39.8020 C   0  0  0  0  0  0  0  0  0  0  0  0
   47.2920   33.6970   38.6160 C   0  0  0  0  0  0  0  0  0  0  0  0
   46.2170   32.8330   38.5070 C   0  0  0  0  0  0  0  0  0  0  0  0
   45.4850   32.6280   39.6810 C   0  0  0  0  0  0  0  0  0  0  0  0
   45.8350   33.2520   40.8300 C   0  0  0  0  0  0  0  0  0  0  0  0
   46.8940   34.1060   40.9480 C   0  0  0  0  0  0  0  0  0  0  0  0
   46.6570   31.8600   46.0100 C   0  0  0  0  0  0  0  0  0  0  0  0
   47.5440   31.0090   45.3700 C   0  0  0  0  0  0  0  0  0  0  0  0
   48.0230   29.8750   46.0270 C   0  0  0  0  0  0  0  0  0  0  0  0
   47.5700   29.6610   47.3210 C   0  0  0  0  0  0  0  0  0  0  0  0
   46.6860   30.4730   48.0050 C   0  0  0  0  0  0  0  0  0  0  0  0
   46.2540   31.5830   47.2820 C   0  0  0  0  0  0  0  0  0  0  0  0
   45.3370   32.4370   48.0820 C   0  0  0  0  0  0  0  0  0  0  0  0
   45.9040   32.9100   49.2530 F   0  0  0  0  0  0  0  0  0  0  0  0
   44.8110   33.4690   47.2970 F   0  0  0  0  0  0  0  0  0  0  0  0
   44.2050   31.7590   48.5160 F   0  0  0  0  0  0  0  0  0  0  0  0
   44.1035   35.6059   45.6630 H   0  0  0  0  0  0  0  0  0  0  0  0
   45.1283   36.1780   43.4787 H   0  0  0  0  0  0  0  0  0  0  0  0
   48.5186   35.9837   43.1294 H   0  0  0  0  0  0  0  0  0  0  0  0
   49.8886   36.4343   41.1525 H   0  0  0  0  0  0  0  0  0  0  0  0
   49.3081   35.3490   38.9907 H   0  0  0  0  0  0  0  0  0  0  0  0
   47.9081   33.9014   37.7279 H   0  0  0  0  0  0  0  0  0  0  0  0
   45.9552   32.3397   37.5593 H   0  0  0  0  0  0  0  0  0  0  0  0
   44.6164   31.9531   39.6705 H   0  0  0  0  0  0  0  0  0  0  0  0
   45.2273   33.0588   41.7263 H   0  0  0  0  0  0  0  0  0  0  0  0
   47.8709   31.2278   44.3427 H   0  0  0  0  0  0  0  0  0  0  0  0
   48.7269   29.1829   45.5417 H   0  0  0  0  0  0  0  0  0  0  0  0
   47.9461   28.7705   47.8460 H   0  0  0  0  0  0  0  0  0  0  0  0
   46.3521   30.2615   49.0315 H   0  0  0  0  0  0  0  0  0  0  0  0
  1  6  2  0
  2  1  1  0
  3  2  2  0
  3  4  1  0
  4  5  2  0
  5  6  1  0
  5 17  1  0
  7  8  2  0
  7  3  1  0
  9  8  1  0
 10  9  2  0
 11 10  1  0
 11 16  2  0
 12 11  1  0
 13 12  2  0
 13 14  1  0
 14 15  2  0
 15 16  1  0
 16  7  1  0
 17 22  1  0
 18 17  2  0
 18 19  1  0
 19 20  2  0
 20 21  1  0
 22 21  2  0
 22 23  1  0
 23 26  1  0
 23 24  1  0
 25 23  1  0
  1 27  1  0
  2 28  1  0
  8 29  1  0
  9 30  1  0
 10 31  1  0
 12 32  1  0
 13 33  1  0
 14 34  1  0
 15 35  1  0
 18 36  1  0
 19 37  1  0
 20 38  1  0
 21 39  1  0
M  END
>  <Score>  (1) 
-7.22517

$$$$
