
     RDKit          3D

 44 48  0  0  1  0  0  0  0  0999 V2000
   44.5150   35.8950   44.8810 C   0  0  0  0  0  0  0  0  0  0  0  0
   45.0920   35.9000   43.5850 C   0  0  0  0  0  0  0  0  0  0  0  0
   45.9250   34.8460   43.2580 C   0  0  0  0  0  0  0  0  0  0  0  0
   46.1550   33.8630   44.1770 N   0  0  0  0  0  0  0  0  0  0  0  0
   45.5810   33.9040   45.3990 C   0  0  0  0  0  0  0  0  0  0  0  0
   44.7740   34.9070   45.7410 N   0  0  0  0  0  0  0  0  0  0  0  0
   45.8480   32.8420   46.3650 N   0  0  0  0  0  0  0  0  0  0  0  0
   45.2340   32.8770   47.6690 C   0  0  0  0  0  0  0  0  0  0  0  0
   46.1300   32.3260   48.7480 C   0  0  0  0  0  0  0  0  0  0  0  0
   47.5460   32.2760   48.2460 C   0  0  0  0  0  0  0  0  0  0  0  0
   47.5630   31.2550   47.1100 C   0  0  0  0  0  0  0  0  0  0  0  0
   46.7380   31.7600   45.9820 C   0  0  1  0  0  0  0  0  0  0  0  0
   46.0100   30.6820   45.2460 C   0  0  0  0  0  0  0  0  0  0  0  0
   45.8730   30.5260   43.9250 N   0  0  0  0  0  0  0  0  0  0  0  0
   45.1790   29.4580   43.6450 O   0  0  0  0  0  0  0  0  0  0  0  0
   44.8540   28.9040   44.7870 C   0  0  0  0  0  0  0  0  0  0  0  0
   45.3470   29.6260   45.8210 N   0  0  0  0  0  0  0  0  0  0  0  0
   44.0910   27.7070   44.9610 N   0  0  0  0  0  0  0  0  0  0  0  0
   44.5750   26.4320   44.8850 C   0  0  0  0  0  0  0  0  0  0  0  0
   43.6330   25.5160   45.0890 N   0  0  0  0  0  0  0  0  0  0  0  0
   42.4980   26.1810   45.3070 C   0  0  0  0  0  0  0  0  0  0  0  0
   41.2020   25.7620   45.5740 C   0  0  0  0  0  0  0  0  0  0  0  0
   40.9840   24.5290   45.6380 O   0  0  0  0  0  0  0  0  0  0  0  0
   40.2550   26.7220   45.7470 N   0  0  0  0  0  0  0  0  0  0  0  0
   40.5380   28.0370   45.6680 C   0  0  0  0  0  0  0  0  0  0  0  0
   39.3880   28.8310   45.8860 N   0  0  0  0  0  0  0  0  0  0  0  0
   41.8050   28.4480   45.4070 N   0  0  0  0  0  0  0  0  0  0  0  0
   42.7840   27.5440   45.2260 C   0  0  0  0  0  0  0  0  0  0  0  0
   43.8461   36.7151   45.1811 H   0  0  0  0  0  0  0  0  0  0  0  0
   44.8851   36.7094   42.8694 H   0  0  0  0  0  0  0  0  0  0  0  0
   46.3982   34.7999   42.2661 H   0  0  0  0  0  0  0  0  0  0  0  0
   44.9882   33.9207   47.9145 H   0  0  0  0  0  0  0  0  0  0  0  0
   44.3339   32.2459   47.6298 H   0  0  0  0  0  0  0  0  0  0  0  0
   46.0780   32.9749   49.6347 H   0  0  0  0  0  0  0  0  0  0  0  0
   45.7999   31.3116   49.0163 H   0  0  0  0  0  0  0  0  0  0  0  0
   47.8533   33.2646   47.8741 H   0  0  0  0  0  0  0  0  0  0  0  0
   48.2443   31.9935   49.0476 H   0  0  0  0  0  0  0  0  0  0  0  0
   48.5976   31.1024   46.7688 H   0  0  0  0  0  0  0  0  0  0  0  0
   47.1518   30.2995   47.4678 H   0  0  0  0  0  0  0  0  0  0  0  0
   47.4657   32.1824   45.2734 H   0  0  0  0  0  0  0  0  0  0  0  0
   45.6278   26.1897   44.6779 H   0  0  0  0  0  0  0  0  0  0  0  0
   39.2863   26.4337   45.9456 H   0  0  0  0  0  0  0  0  0  0  0  0
   39.4579   29.8582   45.8547 H   0  0  0  0  0  0  0  0  0  0  0  0
   38.4807   28.3821   46.0760 H   0  0  0  0  0  0  0  0  0  0  0  0
  1  6  2  0
  2  1  1  0
  3  2  2  0
  3  4  1  0
  4  5  2  0
  5  6  1  0
  5  7  1  0
  7  8  1  0
  8  9  1  0
 10  9  1  0
 11 10  1  0
 12  7  1  0
 12 11  1  0
 13 17  1  0
 13 12  1  0
 14 13  2  0
 15 14  1  0
 15 16  1  0
 16 18  1  0
 16 17  2  0
 18 28  1  0
 19 18  1  0
 19 20  2  0
 20 21  1  0
 21 22  1  0
 22 23  2  0
 22 24  1  0
 25 24  1  0
 25 26  1  0
 27 25  2  0
 28 21  2  0
 28 27  1  0
  1 29  1  0
  2 30  1  0
  3 31  1  0
  8 32  1  0
  8 33  1  0
  9 34  1  0
  9 35  1  0
 10 36  1  0
 10 37  1  0
 11 38  1  0
 11 39  1  0
 12 40  1  6
 19 41  1  0
 24 42  1  0
 26 43  1  0
 26 44  1  0
M  END
>  <Score>  (1) 
-7.33948

$$$$
