
     RDKit          3D

 49 53  0  0  1  0  0  0  0  0999 V2000
   44.5920   35.9680   42.7250 C   0  0  0  0  0  0  0  0  0  0  0  0
   43.8460   35.7670   41.5310 C   0  0  0  0  0  0  0  0  0  0  0  0
   43.7190   34.4680   41.0750 C   0  0  0  0  0  0  0  0  0  0  0  0
   44.3020   33.4590   41.7730 N   0  0  0  0  0  0  0  0  0  0  0  0
   44.9970   33.6600   42.8860 C   0  0  0  0  0  0  0  0  0  0  0  0
   45.1420   34.9200   43.3630 N   0  0  0  0  0  0  0  0  0  0  0  0
   45.5640   32.5390   43.5380 N   0  0  0  0  0  0  0  0  0  0  0  0
   46.0400   31.4340   42.8790 C   0  0  0  0  0  0  0  0  0  0  0  0
   46.5180   30.5300   43.7100 N   0  0  0  0  0  0  0  0  0  0  0  0
   46.3690   31.0220   44.9830 C   0  0  0  0  0  0  0  0  0  0  0  0
   46.6900   30.5010   46.1770 C   0  0  0  0  0  0  0  0  0  0  0  0
   47.2230   29.3750   46.2660 O   0  0  0  0  0  0  0  0  0  0  0  0
   46.4230   31.2190   47.2840 N   0  0  0  0  0  0  0  0  0  0  0  0
   45.8410   32.4400   47.1420 C   0  0  0  0  0  0  0  0  0  0  0  0
   45.5790   33.1640   48.3450 N   0  0  0  0  0  0  0  0  0  0  0  0
   45.5070   32.9890   45.9330 N   0  0  0  0  0  0  0  0  0  0  0  0
   45.7830   32.2480   44.8300 C   0  0  0  0  0  0  0  0  0  0  0  0
   46.7440   30.7120   48.5910 C   0  0  2  0  0  0  0  0  0  0  0  0
   45.5290   30.7920   49.4860 C   0  0  0  0  0  0  0  0  0  0  0  0
   47.9760   31.3040   49.1880 C   0  0  0  0  0  0  0  0  0  0  0  0
   48.9030   30.2160   49.4820 N   0  0  0  0  0  0  0  0  0  0  0  0
   49.8760   30.3800   50.5110 C   0  0  0  0  0  0  0  0  0  0  0  0
   50.2220   29.4670   51.4870 C   0  0  0  0  0  0  0  0  0  0  0  0
   51.1890   29.9900   52.2800 N   0  0  0  0  0  0  0  0  0  0  0  0
   51.4830   31.2330   51.8390 C   0  0  0  0  0  0  0  0  0  0  0  0
   52.3710   32.2050   52.2590 C   0  0  0  0  0  0  0  0  0  0  0  0
   52.4810   33.4250   51.6200 C   0  0  0  0  0  0  0  0  0  0  0  0
   51.6860   33.6950   50.5260 C   0  0  0  0  0  0  0  0  0  0  0  0
   50.7980   32.7000   50.1200 C   0  0  0  0  0  0  0  0  0  0  0  0
   50.6790   31.4740   50.7550 C   0  0  0  0  0  0  0  0  0  0  0  0
   44.7194   36.9837   43.1277 H   0  0  0  0  0  0  0  0  0  0  0  0
   43.3889   36.6103   40.9925 H   0  0  0  0  0  0  0  0  0  0  0  0
   43.1520   34.2539   40.1570 H   0  0  0  0  0  0  0  0  0  0  0  0
   46.0245   31.3164   41.7854 H   0  0  0  0  0  0  0  0  0  0  0  0
   45.1396   34.0945   48.3007 H   0  0  0  0  0  0  0  0  0  0  0  0
   45.8295   32.7556   49.2568 H   0  0  0  0  0  0  0  0  0  0  0  0
   47.0102   29.6505   48.4802 H   0  0  0  0  0  0  0  0  0  0  0  0
   45.8471   30.7711   50.5388 H   0  0  0  0  0  0  0  0  0  0  0  0
   44.9868   31.7278   49.2853 H   0  0  0  0  0  0  0  0  0  0  0  0
   44.8687   29.9354   49.2853 H   0  0  0  0  0  0  0  0  0  0  0  0
   48.4365   32.0044   48.4756 H   0  0  0  0  0  0  0  0  0  0  0  0
   47.7283   31.8538   50.1080 H   0  0  0  0  0  0  0  0  0  0  0  0
   48.8547   29.3355   48.9497 H   0  0  0  0  0  0  0  0  0  0  0  0
   49.7799   28.4665   51.6035 H   0  0  0  0  0  0  0  0  0  0  0  0
   51.6266   29.5186   53.0845 H   0  0  0  0  0  0  0  0  0  0  0  0
   53.0109   32.0008   53.1301 H   0  0  0  0  0  0  0  0  0  0  0  0
   53.1984   34.1764   51.9817 H   0  0  0  0  0  0  0  0  0  0  0  0
   51.7500   34.6564   49.9953 H   0  0  0  0  0  0  0  0  0  0  0  0
   50.1571   32.8988   49.2484 H   0  0  0  0  0  0  0  0  0  0  0  0
  1  6  2  0
  2  1  1  0
  3  2  2  0
  3  4  1  0
  4  5  2  0
  5  6  1  0
  5  7  1  0
  7 17  1  0
  8  7  1  0
  8  9  2  0
  9 10  1  0
 10 11  1  0
 11 12  2  0
 11 13  1  0
 13 18  1  0
 14 13  1  0
 14 15  1  0
 16 14  2  0
 17 10  2  0
 17 16  1  0
 18 20  1  0
 18 19  1  0
 20 21  1  0
 21 22  1  0
 22 30  1  0
 22 23  2  0
 23 24  1  0
 25 26  2  0
 25 24  1  0
 27 26  1  0
 28 27  2  0
 29 28  1  0
 29 30  2  0
 30 25  1  0
  1 31  1  0
  2 32  1  0
  3 33  1  0
  8 34  1  0
 15 35  1  0
 15 36  1  0
 18 37  1  6
 19 38  1  0
 19 39  1  0
 19 40  1  0
 20 41  1  0
 20 42  1  0
 21 43  1  0
 23 44  1  0
 24 45  1  0
 26 46  1  0
 27 47  1  0
 28 48  1  0
 29 49  1  0
M  END
>  <Score>  (1) 
-7.02432

$$$$
