
     RDKit          3D

 40 42  0  0  1  0  0  0  0  0999 V2000
   37.0130   30.5960   46.0830 C   0  0  0  0  0  0  0  0  0  0  0  0
   37.9130   30.4930   46.9610 O   0  0  0  0  0  0  0  0  0  0  0  0
   37.4280   31.2990   44.9080 N   0  0  0  0  0  0  0  0  0  0  0  0
   37.0390   30.6960   43.6440 C   0  0  0  0  0  0  0  0  0  0  0  0
   37.8470   31.2510   42.4940 C   0  0  0  0  0  0  0  0  0  0  0  0
   39.1090   31.5210   42.9820 O   0  0  0  0  0  0  0  0  0  0  0  0
   39.0070   32.7330   43.7030 C   0  0  0  0  0  0  0  0  0  0  0  0
   38.1940   32.5440   44.9510 C   0  0  2  0  0  0  0  0  0  0  0  0
   33.9810   29.1800   47.7950 C   0  0  0  0  0  0  0  0  0  0  0  0
   35.2850   29.7430   47.6070 C   0  0  0  0  0  0  0  0  0  0  0  0
   35.7100   30.0290   46.3180 C   0  0  0  0  0  0  0  0  0  0  0  0
   34.8330   29.7450   45.3090 N   0  0  0  0  0  0  0  0  0  0  0  0
   33.6270   29.2220   45.5120 C   0  0  0  0  0  0  0  0  0  0  0  0
   33.2110   28.9450   46.7350 N   0  0  0  0  0  0  0  0  0  0  0  0
   32.8180   28.9850   44.2800 C   0  0  0  0  0  0  0  0  0  0  0  0
   32.7330   30.1640   43.5340 F   0  0  0  0  0  0  0  0  0  0  0  0
   33.4630   28.0760   43.4760 F   0  0  0  0  0  0  0  0  0  0  0  0
   31.5670   28.4560   44.5580 F   0  0  0  0  0  0  0  0  0  0  0  0
   33.5760   28.9020   49.0930 O   0  0  0  0  0  0  0  0  0  0  0  0
   34.0230   29.5740   50.2140 C   0  0  0  0  0  0  0  0  0  0  0  0
   35.0230   28.9080   50.9090 F   0  0  0  0  0  0  0  0  0  0  0  0
   34.3790   30.8810   49.9980 F   0  0  0  0  0  0  0  0  0  0  0  0
   32.9030   29.6330   51.0760 F   0  0  0  0  0  0  0  0  0  0  0  0
   39.1090   32.3700   45.9810 O   0  0  0  0  0  0  0  0  0  0  0  0
   39.3930   33.0760   47.0290 C   0  0  0  0  0  0  0  0  0  0  0  0
   40.2850   34.1340   47.3020 C   0  0  0  0  0  0  0  0  0  0  0  0
   40.3040   34.6400   48.5700 C   0  0  0  0  0  0  0  0  0  0  0  0
   39.4320   34.0920   49.5690 C   0  0  0  0  0  0  0  0  0  0  0  0
   38.5550   32.7820   48.5950 S   0  0  0  0  0  0  0  0  0  0  0  0
   37.1994   29.6093   43.7020 H   0  0  0  0  0  0  0  0  0  0  0  0
   35.9786   30.9261   43.4636 H   0  0  0  0  0  0  0  0  0  0  0  0
   37.3824   32.1738   42.1163 H   0  0  0  0  0  0  0  0  0  0  0  0
   37.8927   30.5320   41.6628 H   0  0  0  0  0  0  0  0  0  0  0  0
   40.0157   33.0750   43.9780 H   0  0  0  0  0  0  0  0  0  0  0  0
   38.5093   33.4804   43.0677 H   0  0  0  0  0  0  0  0  0  0  0  0
   37.5134   33.3998   45.0706 H   0  0  0  0  0  0  0  0  0  0  0  0
   35.9374   29.9448   48.4694 H   0  0  0  0  0  0  0  0  0  0  0  0
   40.9436   34.5381   46.5191 H   0  0  0  0  0  0  0  0  0  0  0  0
   40.9855   35.4650   48.8248 H   0  0  0  0  0  0  0  0  0  0  0  0
   39.3157   34.3732   50.6261 H   0  0  0  0  0  0  0  0  0  0  0  0
  1 11  1  0
  1  2  2  0
  3  8  1  0
  3  1  1  0
  4  3  1  0
  5  6  1  0
  5  4  1  0
  6  7  1  0
  7  8  1  0
  8 24  1  0
  9 19  1  0
 10  9  2  0
 11 10  1  0
 12 13  1  0
 12 11  2  0
 13 14  2  0
 14  9  1  0
 15 18  1  0
 15 13  1  0
 16 15  1  0
 17 15  1  0
 19 20  1  0
 20 21  1  0
 20 23  1  0
 22 20  1  0
 24 25  1  0
 25 26  2  0
 25 29  1  0
 26 27  1  0
 27 28  2  0
 29 28  1  0
  4 30  1  0
  4 31  1  0
  5 32  1  0
  5 33  1  0
  7 34  1  0
  7 35  1  0
  8 36  1  1
 10 37  1  0
 26 38  1  0
 27 39  1  0
 28 40  1  0
M  ISO  8  30  13  31  13  32  13  33  13  34  13  35  13  36  13  37  14
M  ISO  3  38  14  39  14  40  14
M  END
>  <minimizedAffinity>  (1) 
-5.15308952

>  <minimizedRMSD>  (1) 
1.74802279

$$$$
