
     RDKit          3D

 45 48  0  0  1  0  0  0  0  0999 V2000
   38.7230   31.7810   48.0830 C   0  0  1  0  0  0  0  0  0  0  0  0
   37.9000   31.0020   48.9940 C   0  0  0  0  0  0  0  0  0  0  0  0
   38.3080   30.8010   50.2400 N   0  0  0  0  0  0  0  0  0  0  0  0
   37.5900   30.0780   51.1220 C   0  0  0  0  0  0  0  0  0  0  0  0
   36.4340   29.5110   50.8330 N   0  0  0  0  0  0  0  0  0  0  0  0
   35.8980   29.6380   49.5950 C   0  0  0  0  0  0  0  0  0  0  0  0
   34.7220   29.0620   49.2710 C   0  0  0  0  0  0  0  0  0  0  0  0
   34.1960   29.1880   48.0280 C   0  0  0  0  0  0  0  0  0  0  0  0
   34.9310   29.9380   47.1240 C   0  0  0  0  0  0  0  0  0  0  0  0
   36.1250   30.5090   47.4980 C   0  0  0  0  0  0  0  0  0  0  0  0
   36.6650   30.3870   48.7290 C   0  0  0  0  0  0  0  0  0  0  0  0
   39.1150   31.6000   46.7180 C   0  0  0  0  0  0  0  0  0  0  0  0
   39.9190   32.6890   46.2930 C   0  0  0  0  0  0  0  0  0  0  0  0
   40.5150   32.6530   44.9890 C   0  0  0  0  0  0  0  0  0  0  0  0
   40.2640   31.5820   44.2640 N   0  0  0  0  0  0  0  0  0  0  0  0
   39.4770   30.5420   44.7030 C   0  0  0  0  0  0  0  0  0  0  0  0
   38.9290   30.5720   45.8970 N   0  0  0  0  0  0  0  0  0  0  0  0
   39.1910   29.3440   43.8520 C   0  0  0  0  0  0  0  0  0  0  0  0
   39.7510   29.4750   42.5200 N   0  0  0  0  0  0  0  0  0  0  0  0
   41.0200   29.0200   42.3540 C   0  0  0  0  0  0  0  0  0  0  0  0
   41.6230   29.1110   41.1150 C   0  0  0  0  0  0  0  0  0  0  0  0
   40.9180   29.6660   40.0640 C   0  0  0  0  0  0  0  0  0  0  0  0
   41.3960   29.7850   38.9030 O   0  0  0  0  0  0  0  0  0  0  0  0
   39.6740   30.1040   40.2640 N   0  0  0  0  0  0  0  0  0  0  0  0
   39.1050   30.0080   41.4710 C   0  0  0  0  0  0  0  0  0  0  0  0
   37.9520   30.4050   41.6920 O   0  0  0  0  0  0  0  0  0  0  0  0
   38.4260   33.0640   48.5050 O   0  0  0  0  0  0  0  0  0  0  0  0
   39.2280   34.0020   49.1180 C   0  0  0  0  0  0  0  0  0  0  0  0
   39.7090   35.1860   48.4120 N   0  0  0  0  0  0  0  0  0  0  0  0
   39.5810   33.8780   50.3180 O   0  0  0  0  0  0  0  0  0  0  0  0
   39.6967   31.2709   48.1247 H   0  0  0  0  0  0  0  0  0  0  0  0
   37.9897   29.9536   52.1392 H   0  0  0  0  0  0  0  0  0  0  0  0
   34.1796   28.4790   50.0299 H   0  0  0  0  0  0  0  0  0  0  0  0
   33.2390   28.7209   47.7524 H   0  0  0  0  0  0  0  0  0  0  0  0
   34.5566   30.0778   46.0992 H   0  0  0  0  0  0  0  0  0  0  0  0
   36.6725   31.1003   46.7493 H   0  0  0  0  0  0  0  0  0  0  0  0
   40.0834   33.5511   46.9561 H   0  0  0  0  0  0  0  0  0  0  0  0
   41.1459   33.4730   44.6154 H   0  0  0  0  0  0  0  0  0  0  0  0
   39.6248   28.4551   44.3334 H   0  0  0  0  0  0  0  0  0  0  0  0
   38.0994   29.2513   43.7531 H   0  0  0  0  0  0  0  0  0  0  0  0
   41.5649   28.5810   43.2027 H   0  0  0  0  0  0  0  0  0  0  0  0
   42.6503   28.7467   40.9667 H   0  0  0  0  0  0  0  0  0  0  0  0
   39.1471   30.5196   39.4826 H   0  0  0  0  0  0  0  0  0  0  0  0
   40.3073   35.8685   48.8991 H   0  0  0  0  0  0  0  0  0  0  0  0
   39.4501   35.3388   47.4269 H   0  0  0  0  0  0  0  0  0  0  0  0
  1 27  1  0
  1  2  1  0
  2  3  2  0
  3  4  1  0
  5  4  2  0
  6  5  1  0
  7  6  2  0
  8  7  1  0
  9 10  1  0
  9  8  2  0
 10 11  2  0
 11  2  1  0
 11  6  1  0
 12  1  1  0
 13 12  2  0
 14 13  1  0
 15 16  1  0
 15 14  2  0
 16 17  2  0
 17 12  1  0
 18 16  1  0
 19 18  1  0
 20 19  1  0
 21 20  2  0
 22 24  1  0
 22 21  1  0
 23 22  2  0
 24 25  1  0
 25 26  2  0
 25 19  1  0
 27 28  1  0
 28 30  2  0
 29 28  1  0
  1 31  1  1
  4 32  1  0
  7 33  1  0
  8 34  1  0
  9 35  1  0
 10 36  1  0
 13 37  1  0
 14 38  1  0
 18 39  1  0
 18 40  1  0
 20 41  1  0
 21 42  1  0
 24 43  1  0
 29 44  1  0
 29 45  1  0
M  ISO  8  31   8  32  14  33  14  34  14  35  14  36  14  37  14  38  14
M  ISO  5  39   8  40   8  41  14  42  14  43   9
M  END
>  <minimizedAffinity>  (1) 
-7.29475498

>  <minimizedRMSD>  (1) 
2.32581043

$$$$
