
     RDKit          3D

 39 41  0  0  0  0  0  0  0  0999 V2000
   31.7780   26.3250   47.5100 C   0  0  0  0  0  0  0  0  0  0  0  0
   31.5170   25.1550   46.8500 C   0  0  0  0  0  0  0  0  0  0  0  0
   32.4800   24.4250   46.1680 C   0  0  0  0  0  0  0  0  0  0  0  0
   33.7620   24.9440   46.1800 C   0  0  0  0  0  0  0  0  0  0  0  0
   34.0610   26.1110   46.8290 C   0  0  0  0  0  0  0  0  0  0  0  0
   33.0710   26.8120   47.5010 C   0  0  0  0  0  0  0  0  0  0  0  0
   29.5000   27.5690   50.1020 C   0  0  0  0  0  0  0  0  0  0  0  0
   28.7430   28.5260   49.4080 C   0  0  0  0  0  0  0  0  0  0  0  0
   29.0420   28.7130   48.0660 C   0  0  0  0  0  0  0  0  0  0  0  0
   30.0420   27.9700   47.4910 N   0  0  0  0  0  0  0  0  0  0  0  0
   30.7460   27.0550   48.2100 C   0  0  0  0  0  0  0  0  0  0  0  0
   30.4610   26.8790   49.4830 N   0  0  0  0  0  0  0  0  0  0  0  0
   27.6660   29.3170   50.0540 C   0  0  0  0  0  0  0  0  0  0  0  0
   28.0290   30.5980   50.3300 F   0  0  0  0  0  0  0  0  0  0  0  0
   27.2320   28.7370   51.2250 F   0  0  0  0  0  0  0  0  0  0  0  0
   26.5640   29.3940   49.1770 F   0  0  0  0  0  0  0  0  0  0  0  0
   33.3430   28.0550   48.2040 C   0  0  0  0  0  0  0  0  0  0  0  0
   34.3690   27.9900   49.3050 C   0  0  0  0  0  0  0  0  0  0  0  0
   35.2300   29.1680   49.1110 N   0  0  0  0  0  0  0  0  0  0  0  0
   35.5610   29.7540   47.9460 C   0  0  0  0  0  0  0  0  0  0  0  0
   36.3760   30.8430   47.9570 C   0  0  0  0  0  0  0  0  0  0  0  0
   36.9010   31.4070   49.1010 C   0  0  0  0  0  0  0  0  0  0  0  0
   37.6480   32.4090   49.0910 O   0  0  0  0  0  0  0  0  0  0  0  0
   36.5490   30.7930   50.2480 N   0  0  0  0  0  0  0  0  0  0  0  0
   35.7420   29.7130   50.2470 C   0  0  0  0  0  0  0  0  0  0  0  0
   35.4690   29.2070   51.3780 O   0  0  0  0  0  0  0  0  0  0  0  0
   30.4860   24.7717   46.8607 H   0  0  0  0  0  0  0  0  0  0  0  0
   32.2376   23.4868   45.6474 H   0  0  0  0  0  0  0  0  0  0  0  0
   34.5629   24.4041   45.6536 H   0  0  0  0  0  0  0  0  0  0  0  0
   35.0917   26.4950   46.8176 H   0  0  0  0  0  0  0  0  0  0  0  0
   29.2992   27.3855   51.1678 H   0  0  0  0  0  0  0  0  0  0  0  0
   28.4833   29.4491   47.4694 H   0  0  0  0  0  0  0  0  0  0  0  0
   33.6928   28.7890   47.4632 H   0  0  0  0  0  0  0  0  0  0  0  0
   32.3985   28.3236   48.6997 H   0  0  0  0  0  0  0  0  0  0  0  0
   33.8795   28.0296   50.2893 H   0  0  0  0  0  0  0  0  0  0  0  0
   34.9452   27.0536   49.2708 H   0  0  0  0  0  0  0  0  0  0  0  0
   35.1767   29.3568   46.9949 H   0  0  0  0  0  0  0  0  0  0  0  0
   36.6329   31.3034   46.9916 H   0  0  0  0  0  0  0  0  0  0  0  0
   36.9039   31.1564   51.1440 H   0  0  0  0  0  0  0  0  0  0  0  0
  1 11  1  0
  2  1  2  0
  3  4  2  0
  3  2  1  0
  4  5  1  0
  5  6  2  0
  6  1  1  0
  6 17  1  0
  8 13  1  0
  8  7  2  0
  9  8  1  0
 10  9  2  0
 10 11  1  0
 11 12  2  0
 12  7  1  0
 13 14  1  0
 13 15  1  0
 16 13  1  0
 17 18  1  0
 19 18  1  0
 19 25  1  0
 20 21  2  0
 20 19  1  0
 21 22  1  0
 22 24  1  0
 23 22  2  0
 25 24  1  0
 25 26  2  0
  2 27  1  0
  3 28  1  0
  4 29  1  0
  5 30  1  0
  7 31  1  0
  9 32  1  0
 17 33  1  0
 17 34  1  0
 18 35  1  0
 18 36  1  0
 20 37  1  0
 21 38  1  0
 24 39  1  0
M  ISO  8  27  14  28  14  29  14  30  14  31  14  32  14  33   8  34   8
M  ISO  5  35   8  36   8  37  14  38  14  39   9
M  END
>  <minimizedAffinity>  (1) 
-6.28952169

>  <minimizedRMSD>  (1) 
6.97185516

$$$$
