
     RDKit          3D

 30 32  0  0  1  0  0  0  0  0999 V2000
   35.3150   29.3860   48.9900 C   0  0  2  0  0  0  0  0  0  0  0  0
   34.1670   29.4050   49.9070 C   0  0  0  0  0  0  0  0  0  0  0  0
   34.5290   28.1100   49.3360 C   0  0  1  0  0  0  0  0  0  0  0  0
   36.7100   29.3760   49.6050 C   0  0  0  0  0  0  0  0  0  0  0  0
   38.0860   32.7680   49.4360 C   0  0  0  0  0  0  0  0  0  0  0  0
   38.7560   32.7770   48.2030 C   0  0  0  0  0  0  0  0  0  0  0  0
   38.7210   31.5980   47.4390 C   0  0  0  0  0  0  0  0  0  0  0  0
   38.0420   30.5120   47.9340 N   0  0  0  0  0  0  0  0  0  0  0  0
   37.4180   30.5630   49.1230 C   0  0  0  0  0  0  0  0  0  0  0  0
   37.4480   31.6950   49.8630 N   0  0  0  0  0  0  0  0  0  0  0  0
   33.5680   27.5940   48.2990 C   0  0  0  0  0  0  0  0  0  0  0  0
   33.9090   26.4590   47.7720 O   0  0  0  0  0  0  0  0  0  0  0  0
   32.3960   28.2040   47.8890 O   0  0  0  0  0  0  0  0  0  0  0  0
   31.1440   27.8150   48.2140 C   0  0  0  0  0  0  0  0  0  0  0  0
   30.6310   27.8180   49.6230 C   0  0  0  0  0  0  0  0  0  0  0  0
   29.3510   27.4060   49.8310 C   0  0  0  0  0  0  0  0  0  0  0  0
   28.5240   26.9830   48.7400 C   0  0  0  0  0  0  0  0  0  0  0  0
   29.6450   27.1780   47.2470 S   0  0  0  0  0  0  0  0  0  0  0  0
   35.5835   29.9719   48.0986 H   0  0  0  0  0  0  0  0  0  0  0  0
   34.3341   29.5890   50.9786 H   0  0  0  0  0  0  0  0  0  0  0  0
   33.2325   29.9843   49.9393 H   0  0  0  0  0  0  0  0  0  0  0  0
   34.8012   27.1140   49.7154 H   0  0  0  0  0  0  0  0  0  0  0  0
   36.6358   29.4039   50.7021 H   0  0  0  0  0  0  0  0  0  0  0  0
   37.2508   28.4621   49.3180 H   0  0  0  0  0  0  0  0  0  0  0  0
   38.0929   33.6743   50.0594 H   0  0  0  0  0  0  0  0  0  0  0  0
   39.2879   33.6721   47.8483 H   0  0  0  0  0  0  0  0  0  0  0  0
   39.2274   31.5462   46.4639 H   0  0  0  0  0  0  0  0  0  0  0  0
   31.2675   28.1421   50.4596 H   0  0  0  0  0  0  0  0  0  0  0  0
   28.9446   27.3975   50.8531 H   0  0  0  0  0  0  0  0  0  0  0  0
   27.4829   26.6292   48.7701 H   0  0  0  0  0  0  0  0  0  0  0  0
  1  3  1  0
  1  4  1  0
  1  2  1  0
  3  2  1  0
  5 10  2  0
  6  5  1  0
  7  8  1  0
  7  6  2  0
  8  9  2  0
  9  4  1  0
  9 10  1  0
 11  3  1  0
 12 11  2  0
 13 14  1  0
 13 11  1  0
 14 15  2  0
 15 16  1  0
 17 16  2  0
 18 14  1  0
 18 17  1  0
  1 19  1  6
  2 20  1  0
  2 21  1  0
  3 22  1  1
  4 23  1  0
  4 24  1  0
  5 25  1  0
  6 26  1  0
  7 27  1  0
 15 28  1  0
 16 29  1  0
 17 30  1  0
M  ISO  8  19  13  20  13  21  13  22  13  23   8  24   8  25  14  26  14
M  ISO  4  27  14  28  14  29  14  30  14
M  END
>  <minimizedAffinity>  (1) 
-5.17187023

>  <minimizedRMSD>  (1) 
1.41156161

$$$$
