
     RDKit          3D

 39 41  0  0  1  0  0  0  0  0999 V2000
   33.8840   29.2920   47.8180 C   0  0  0  0  0  0  0  0  0  0  0  0
   33.7980   30.2490   46.8470 C   0  0  0  0  0  0  0  0  0  0  0  0
   32.7020   30.0660   46.0490 N   0  0  0  0  0  0  0  0  0  0  0  0
   32.0750   28.9880   46.5030 C   0  0  0  0  0  0  0  0  0  0  0  0
   32.7800   28.5150   47.5680 N   0  0  0  0  0  0  0  0  0  0  0  0
   34.7600   28.9530   48.8820 C   0  0  0  0  0  0  0  0  0  0  0  0
   35.2060   29.9770   49.8110 C   0  0  2  0  0  0  0  0  0  0  0  0
   36.4310   30.7110   49.3110 C   0  0  0  0  0  0  0  0  0  0  0  0
   36.7450   31.9190   49.9350 C   0  0  0  0  0  0  0  0  0  0  0  0
   37.8820   32.5800   49.4210 C   0  0  0  0  0  0  0  0  0  0  0  0
   38.5780   32.0260   48.3900 N   0  0  0  0  0  0  0  0  0  0  0  0
   38.2280   30.8300   47.8090 C   0  0  0  0  0  0  0  0  0  0  0  0
   37.1370   30.1710   48.2830 N   0  0  0  0  0  0  0  0  0  0  0  0
   35.6120   29.2590   51.1500 C   0  0  0  0  0  0  0  0  0  0  0  0
   32.3090   27.3200   48.2810 C   0  0  0  0  0  0  0  0  0  0  0  0
   30.9380   27.4270   48.7040 N   0  0  0  0  0  0  0  0  0  0  0  0
   30.4380   28.1020   49.7510 C   0  0  0  0  0  0  0  0  0  0  0  0
   29.1130   28.1560   50.0950 C   0  0  0  0  0  0  0  0  0  0  0  0
   28.1960   27.4740   49.3190 C   0  0  0  0  0  0  0  0  0  0  0  0
   26.9710   27.4940   49.5950 O   0  0  0  0  0  0  0  0  0  0  0  0
   28.6800   26.7880   48.2580 N   0  0  0  0  0  0  0  0  0  0  0  0
   29.9980   26.7670   47.9640 C   0  0  0  0  0  0  0  0  0  0  0  0
   30.2520   26.0660   46.9270 O   0  0  0  0  0  0  0  0  0  0  0  0
   34.5222   31.0675   46.7219 H   0  0  0  0  0  0  0  0  0  0  0  0
   31.1512   28.5542   46.0926 H   0  0  0  0  0  0  0  0  0  0  0  0
   34.2505   28.1827   49.4794 H   0  0  0  0  0  0  0  0  0  0  0  0
   35.6856   28.6617   48.3639 H   0  0  0  0  0  0  0  0  0  0  0  0
   34.3894   30.7029   49.9382 H   0  0  0  0  0  0  0  0  0  0  0  0
   36.1506   32.3263   50.7661 H   0  0  0  0  0  0  0  0  0  0  0  0
   38.2044   33.5393   49.8520 H   0  0  0  0  0  0  0  0  0  0  0  0
   38.8179   30.4151   46.9785 H   0  0  0  0  0  0  0  0  0  0  0  0
   35.2720   29.8602   52.0061 H   0  0  0  0  0  0  0  0  0  0  0  0
   35.1422   28.2652   51.1902 H   0  0  0  0  0  0  0  0  0  0  0  0
   36.7058   29.1494   51.1902 H   0  0  0  0  0  0  0  0  0  0  0  0
   32.4037   26.4517   47.6123 H   0  0  0  0  0  0  0  0  0  0  0  0
   32.9265   27.2087   49.1845 H   0  0  0  0  0  0  0  0  0  0  0  0
   31.1483   28.6555   50.3827 H   0  0  0  0  0  0  0  0  0  0  0  0
   28.7853   28.7319   50.9731 H   0  0  0  0  0  0  0  0  0  0  0  0
   28.0249   26.2671   47.6576 H   0  0  0  0  0  0  0  0  0  0  0  0
  1  6  1  0
  2  1  2  0
  3  4  2  0
  3  2  1  0
  4  5  1  0
  5  1  1  0
  5 15  1  0
  6  7  1  0
  7 14  1  0
  8  7  1  0
  8  9  2  0
 10  9  1  0
 11 10  2  0
 12 13  2  0
 12 11  1  0
 13  8  1  0
 15 16  1  0
 16 17  1  0
 17 18  2  0
 19 20  2  0
 19 18  1  0
 21 19  1  0
 22 21  1  0
 22 16  1  0
 23 22  2  0
  2 24  1  0
  4 25  1  0
  6 26  1  0
  6 27  1  0
  7 28  1  1
  9 29  1  0
 10 30  1  0
 12 31  1  0
 14 32  1  0
 14 33  1  0
 14 34  1  0
 15 35  1  0
 15 36  1  0
 17 37  1  0
 18 38  1  0
 21 39  1  0
M  ISO  8  24  14  25  14  26   8  27   8  28   8  29  14  30  14  31  14
M  ISO  8  32   8  33   8  34   8  35   8  36   8  37  14  38  14  39   9
M  END
>  <minimizedAffinity>  (1) 
-5.75954819

>  <minimizedRMSD>  (1) 
2.49098253

$$$$
