
     RDKit          3D

 36 38  0  0  0  0  0  0  0  0999 V2000
   36.6070   30.5210   47.3650 C   0  0  0  0  0  0  0  0  0  0  0  0
   35.6100   30.2080   46.4210 C   0  0  0  0  0  0  0  0  0  0  0  0
   34.4520   29.5560   46.7040 C   0  0  0  0  0  0  0  0  0  0  0  0
   34.1840   29.1530   47.9820 C   0  0  0  0  0  0  0  0  0  0  0  0
   35.0940   29.4200   48.9370 C   0  0  0  0  0  0  0  0  0  0  0  0
   34.8110   29.0100   50.2150 C   0  0  0  0  0  0  0  0  0  0  0  0
   35.6810   29.2380   51.2510 C   0  0  0  0  0  0  0  0  0  0  0  0
   36.8670   29.9060   50.9610 C   0  0  0  0  0  0  0  0  0  0  0  0
   37.1030   30.2930   49.6750 C   0  0  0  0  0  0  0  0  0  0  0  0
   36.2660   30.0820   48.6350 C   0  0  0  0  0  0  0  0  0  0  0  0
   39.6820   31.0060   45.5900 C   0  0  0  0  0  0  0  0  0  0  0  0
   40.2510   32.1850   46.0670 C   0  0  0  0  0  0  0  0  0  0  0  0
   39.5430   32.8330   47.0390 C   0  0  0  0  0  0  0  0  0  0  0  0
   38.3970   32.2990   47.4400 N   0  0  0  0  0  0  0  0  0  0  0  0
   37.8240   31.2130   47.0330 C   0  0  0  0  0  0  0  0  0  0  0  0
   38.5270   30.5920   46.0850 N   0  0  0  0  0  0  0  0  0  0  0  0
   40.0450   34.0880   47.6200 C   0  0  0  0  0  0  0  0  0  0  0  0
   39.5170   34.2250   49.0280 C   0  0  0  0  0  0  0  0  0  0  0  0
   32.9960   28.4930   48.2360 O   0  0  0  0  0  0  0  0  0  0  0  0
   32.8020   27.1590   47.8620 C   0  0  0  0  0  0  0  0  0  0  0  0
   33.9050   26.3650   47.9890 F   0  0  0  0  0  0  0  0  0  0  0  0
   31.8150   26.6310   48.6890 F   0  0  0  0  0  0  0  0  0  0  0  0
   32.3610   27.1900   46.5320 F   0  0  0  0  0  0  0  0  0  0  0  0
   35.7812   30.5137   45.3783 H   0  0  0  0  0  0  0  0  0  0  0  0
   33.7277   29.3518   45.9016 H   0  0  0  0  0  0  0  0  0  0  0  0
   33.8644   28.4862   50.4139 H   0  0  0  0  0  0  0  0  0  0  0  0
   35.4496   28.9050   52.2735 H   0  0  0  0  0  0  0  0  0  0  0  0
   37.5997   30.1176   51.7537 H   0  0  0  0  0  0  0  0  0  0  0  0
   38.0475   30.8174   49.4680 H   0  0  0  0  0  0  0  0  0  0  0  0
   40.1896   30.4234   44.8072 H   0  0  0  0  0  0  0  0  0  0  0  0
   41.2085   32.5692   45.6855 H   0  0  0  0  0  0  0  0  0  0  0  0
   41.1447   34.0716   47.6387 H   0  0  0  0  0  0  0  0  0  0  0  0
   39.7064   34.9400   47.0121 H   0  0  0  0  0  0  0  0  0  0  0  0
   40.3248   34.0154   49.7446 H   0  0  0  0  0  0  0  0  0  0  0  0
   39.1463   35.2491   49.1826 H   0  0  0  0  0  0  0  0  0  0  0  0
   38.6952   33.5104   49.1826 H   0  0  0  0  0  0  0  0  0  0  0  0
  1 10  2  0
  2  3  2  0
  2  1  1  0
  3  4  1  0
  4 19  1  0
  4  5  2  0
  5  6  1  0
  6  7  2  0
  8  7  1  0
  9  8  2  0
 10  5  1  0
 10  9  1  0
 11 12  2  0
 11 16  1  0
 12 13  1  0
 13 14  2  0
 13 17  1  0
 15  1  1  0
 15 14  1  0
 16 15  2  0
 17 18  1  0
 20 21  1  0
 20 19  1  0
 20 22  1  0
 23 20  1  0
  2 24  1  0
  3 25  1  0
  6 26  1  0
  7 27  1  0
  8 28  1  0
  9 29  1  0
 11 30  1  0
 12 31  1  0
 17 32  1  0
 17 33  1  0
 18 34  1  0
 18 35  1  0
 18 36  1  0
M  ISO  8  24  14  25  14  26  14  27  14  28  14  29  14  30  14  31  14
M  ISO  5  32   8  33   8  34   8  35   8  36   8
M  END
>  <minimizedAffinity>  (1) 
-6.68175316

>  <minimizedRMSD>  (1) 
1.38712204

$$$$
