
     RDKit          3D

 40 42  0  0  1  0  0  0  0  0999 V2000
   38.2240   30.9580   45.5930 N   0  0  0  0  0  0  0  0  0  0  0  0
   39.6430   30.7600   45.8010 C   0  0  0  0  0  0  0  0  0  0  0  0
   40.0860   32.1550   46.1510 C   0  0  0  0  0  0  0  0  0  0  0  0
   38.9970   32.5530   47.1460 C   0  0  0  0  0  0  0  0  0  0  0  0
   37.8990   31.6500   46.7900 C   0  0  2  0  0  0  0  0  0  0  0  0
   37.4380   30.8510   47.8910 N   0  0  0  0  0  0  0  0  0  0  0  0
   38.4600   30.7890   48.8580 C   0  0  0  0  0  0  0  0  0  0  0  0
   37.9730   30.0090   50.0440 C   0  0  0  0  0  0  0  0  0  0  0  0
   36.8510   30.7520   50.6680 C   0  0  0  0  0  0  0  0  0  0  0  0
   35.8170   31.2440   49.7180 C   0  0  0  0  0  0  0  0  0  0  0  0
   36.1100   30.9130   48.2700 C   0  0  2  0  0  0  0  0  0  0  0  0
   35.3170   29.6810   47.9310 C   0  0  0  0  0  0  0  0  0  0  0  0
   35.6920   28.5500   48.6290 F   0  0  0  0  0  0  0  0  0  0  0  0
   35.2460   29.3870   46.5870 F   0  0  0  0  0  0  0  0  0  0  0  0
   33.9670   29.8690   48.3130 F   0  0  0  0  0  0  0  0  0  0  0  0
   37.4270   30.5560   44.4940 C   0  0  0  0  0  0  0  0  0  0  0  0
   37.7990   29.4410   43.6970 C   0  0  0  0  0  0  0  0  0  0  0  0
   36.9440   29.0750   42.6300 C   0  0  0  0  0  0  0  0  0  0  0  0
   35.8160   29.8130   42.4330 N   0  0  0  0  0  0  0  0  0  0  0  0
   35.4970   30.8760   43.2210 C   0  0  0  0  0  0  0  0  0  0  0  0
   36.3140   31.2320   44.2460 N   0  0  0  0  0  0  0  0  0  0  0  0
   39.8352   30.0575   46.6254 H   0  0  0  0  0  0  0  0  0  0  0  0
   40.1684   30.3229   44.9391 H   0  0  0  0  0  0  0  0  0  0  0  0
   41.0826   32.1596   46.6166 H   0  0  0  0  0  0  0  0  0  0  0  0
   40.1894   32.8321   45.2903 H   0  0  0  0  0  0  0  0  0  0  0  0
   39.3263   32.3894   48.1827 H   0  0  0  0  0  0  0  0  0  0  0  0
   38.7240   33.6174   47.0958 H   0  0  0  0  0  0  0  0  0  0  0  0
   36.9970   32.2366   46.5612 H   0  0  0  0  0  0  0  0  0  0  0  0
   39.3426   30.2924   48.4287 H   0  0  0  0  0  0  0  0  0  0  0  0
   38.7321   31.8073   49.1728 H   0  0  0  0  0  0  0  0  0  0  0  0
   37.6257   29.0173   49.7186 H   0  0  0  0  0  0  0  0  0  0  0  0
   38.7889   29.8790   50.7702 H   0  0  0  0  0  0  0  0  0  0  0  0
   36.3599   30.0842   51.3911 H   0  0  0  0  0  0  0  0  0  0  0  0
   37.2941   31.6464   51.1303 H   0  0  0  0  0  0  0  0  0  0  0  0
   34.8527   30.7896   49.9893 H   0  0  0  0  0  0  0  0  0  0  0  0
   35.8035   32.3409   49.7993 H   0  0  0  0  0  0  0  0  0  0  0  0
   35.7908   31.7722   47.6618 H   0  0  0  0  0  0  0  0  0  0  0  0
   38.7224   28.8796   43.9024 H   0  0  0  0  0  0  0  0  0  0  0  0
   37.1831   28.2207   41.9797 H   0  0  0  0  0  0  0  0  0  0  0  0
   34.5770   31.4471   43.0276 H   0  0  0  0  0  0  0  0  0  0  0  0
  1  2  1  0
  1  5  1  0
  2  3  1  0
  3  4  1  0
  5  4  1  0
  5  6  1  0
  6 11  1  0
  6  7  1  0
  7  8  1  0
  8  9  1  0
 10  9  1  0
 11 10  1  0
 12 11  1  0
 12 15  1  0
 12 13  1  0
 14 12  1  0
 16  1  1  0
 17 16  2  0
 18 17  1  0
 19 18  2  0
 19 20  1  0
 20 21  2  0
 21 16  1  0
  2 22  1  0
  2 23  1  0
  3 24  1  0
  3 25  1  0
  4 26  1  0
  4 27  1  0
  5 28  1  6
  7 29  1  0
  7 30  1  0
  8 31  1  0
  8 32  1  0
  9 33  1  0
  9 34  1  0
 10 35  1  0
 10 36  1  0
 11 37  1  6
 17 38  1  0
 18 39  1  0
 20 40  1  0
M  ISO  8  22  13  23  13  24  13  25  13  26  13  27  13  28  13  29  13
M  ISO  8  30  13  31  13  32  13  33  13  34  13  35  13  36  13  37  13
M  ISO  3  38  14  39  14  40  14
M  END
>  <minimizedAffinity>  (1) 
-5.19189119

>  <minimizedRMSD>  (1) 
1.599792

$$$$
