
     RDKit          3D

 36 38  0  0  1  0  0  0  0  0999 V2000
   32.6980   27.8390   47.8030 C   0  0  2  0  0  0  0  0  0  0  0  0
   35.9310   30.2130   48.5230 C   0  0  0  0  0  0  0  0  0  0  0  0
   35.8390   29.0970   49.3860 C   0  0  0  0  0  0  0  0  0  0  0  0
   34.7870   28.2750   49.2020 C   0  0  0  0  0  0  0  0  0  0  0  0
   33.9170   28.5480   48.2490 C   0  0  0  0  0  0  0  0  0  0  0  0
   34.4950   30.0830   47.4400 S   0  0  0  0  0  0  0  0  0  0  0  0
   38.0100   33.0710   49.5590 C   0  0  0  0  0  0  0  0  0  0  0  0
   38.9680   33.1500   48.5310 C   0  0  0  0  0  0  0  0  0  0  0  0
   38.8760   32.2220   47.5030 C   0  0  0  0  0  0  0  0  0  0  0  0
   37.8800   31.2990   47.5430 N   0  0  0  0  0  0  0  0  0  0  0  0
   37.0050   31.2550   48.5190 C   0  0  0  0  0  0  0  0  0  0  0  0
   37.0260   32.1280   49.5620 N   0  0  0  0  0  0  0  0  0  0  0  0
   32.1340   28.4940   46.6240 C   0  0  0  0  0  0  0  0  0  0  0  0
   31.7620   27.7080   48.9830 C   0  0  0  0  0  0  0  0  0  0  0  0
   30.4550   27.8540   48.6580 O   0  0  0  0  0  0  0  0  0  0  0  0
   29.3450   28.0170   49.4360 C   0  0  0  0  0  0  0  0  0  0  0  0
   29.2310   27.0510   50.4400 C   0  0  0  0  0  0  0  0  0  0  0  0
   28.1530   27.0850   51.3130 C   0  0  0  0  0  0  0  0  0  0  0  0
   27.2420   28.1010   51.1230 C   0  0  0  0  0  0  0  0  0  0  0  0
   27.3860   29.0500   50.1120 C   0  0  0  0  0  0  0  0  0  0  0  0
   28.4470   28.9790   49.2860 N   0  0  0  0  0  0  0  0  0  0  0  0
   32.9181   26.8149   47.4673 H   0  0  0  0  0  0  0  0  0  0  0  0
   36.5887   28.9090   50.1687 H   0  0  0  0  0  0  0  0  0  0  0  0
   34.6556   27.3876   49.8386 H   0  0  0  0  0  0  0  0  0  0  0  0
   38.0570   33.7938   50.3869 H   0  0  0  0  0  0  0  0  0  0  0  0
   39.7574   33.9159   48.5418 H   0  0  0  0  0  0  0  0  0  0  0  0
   39.5960   32.2337   46.6715 H   0  0  0  0  0  0  0  0  0  0  0  0
   31.4468   29.2921   46.9415 H   0  0  0  0  0  0  0  0  0  0  0  0
   32.9460   28.9274   46.0217 H   0  0  0  0  0  0  0  0  0  0  0  0
   31.5848   27.7553   46.0217 H   0  0  0  0  0  0  0  0  0  0  0  0
   31.9004   26.7114   49.4276 H   0  0  0  0  0  0  0  0  0  0  0  0
   32.0121   28.5177   49.6843 H   0  0  0  0  0  0  0  0  0  0  0  0
   29.9946   26.2653   50.5378 H   0  0  0  0  0  0  0  0  0  0  0  0
   28.0322   26.3407   52.1139 H   0  0  0  0  0  0  0  0  0  0  0  0
   26.3712   28.1656   51.7920 H   0  0  0  0  0  0  0  0  0  0  0  0
   26.6400   29.8492   49.9902 H   0  0  0  0  0  0  0  0  0  0  0  0
  1  5  1  0
  1 14  1  0
  2  3  2  0
  4  3  1  0
  5  4  2  0
  6  5  1  0
  6  2  1  0
  7 12  2  0
  8  7  1  0
  9 10  1  0
  9  8  2  0
 10 11  2  0
 11  2  1  0
 11 12  1  0
 13  1  1  0
 15 14  1  0
 15 16  1  0
 16 17  2  0
 17 18  1  0
 19 18  2  0
 20 19  1  0
 21 16  1  0
 21 20  2  0
  1 22  1  6
  3 23  1  0
  4 24  1  0
  7 25  1  0
  8 26  1  0
  9 27  1  0
 13 28  1  0
 13 29  1  0
 13 30  1  0
 14 31  1  0
 14 32  1  0
 17 33  1  0
 18 34  1  0
 19 35  1  0
 20 36  1  0
M  ISO  8  22   8  23  14  24  14  25  14  26  14  27  14  28   8  29   8
M  ISO  7  30   8  31   8  32   8  33  14  34  14  35  14  36  14
M  END
>  <minimizedAffinity>  (1) 
-6.28787327

>  <minimizedRMSD>  (1) 
2.82675052

$$$$
