
     RDKit          3D

 42 44  0  0  1  0  0  0  0  0999 V2000
   36.9300   30.5070   45.9070 C   0  0  0  0  0  0  0  0  0  0  0  0
   37.8800   30.2100   46.6630 O   0  0  0  0  0  0  0  0  0  0  0  0
   37.2910   31.3220   44.7900 N   0  0  0  0  0  0  0  0  0  0  0  0
   36.7370   30.9350   43.5030 C   0  0  0  0  0  0  0  0  0  0  0  0
   37.4860   31.5860   42.3680 C   0  0  0  0  0  0  0  0  0  0  0  0
   38.8100   31.6940   42.7560 O   0  0  0  0  0  0  0  0  0  0  0  0
   38.8680   32.8070   43.6390 C   0  0  0  0  0  0  0  0  0  0  0  0
   38.1680   32.4870   44.9150 C   0  0  2  0  0  0  0  0  0  0  0  0
   33.9050   29.2550   47.7500 C   0  0  0  0  0  0  0  0  0  0  0  0
   35.2360   29.7210   47.4970 C   0  0  0  0  0  0  0  0  0  0  0  0
   35.5950   30.0350   46.1910 C   0  0  0  0  0  0  0  0  0  0  0  0
   34.6360   29.8710   45.2420 N   0  0  0  0  0  0  0  0  0  0  0  0
   33.4050   29.4350   45.5100 C   0  0  0  0  0  0  0  0  0  0  0  0
   33.0480   29.1320   46.7500 N   0  0  0  0  0  0  0  0  0  0  0  0
   32.5000   29.3230   44.3320 C   0  0  0  0  0  0  0  0  0  0  0  0
   32.5720   30.4780   43.5570 F   0  0  0  0  0  0  0  0  0  0  0  0
   32.9250   28.3010   43.5090 F   0  0  0  0  0  0  0  0  0  0  0  0
   31.1860   29.0470   44.6890 F   0  0  0  0  0  0  0  0  0  0  0  0
   33.5740   28.9480   49.0710 O   0  0  0  0  0  0  0  0  0  0  0  0
   34.0750   29.5990   50.1810 C   0  0  0  0  0  0  0  0  0  0  0  0
   35.0720   28.8870   50.8350 F   0  0  0  0  0  0  0  0  0  0  0  0
   34.4760   30.8910   49.9610 F   0  0  0  0  0  0  0  0  0  0  0  0
   32.9870   29.6880   51.0770 F   0  0  0  0  0  0  0  0  0  0  0  0
   39.1600   32.1110   45.8320 O   0  0  0  0  0  0  0  0  0  0  0  0
   39.2980   32.8470   47.0010 C   0  0  0  0  0  0  0  0  0  0  0  0
   38.5820   32.5650   48.1580 C   0  0  0  0  0  0  0  0  0  0  0  0
   38.7160   33.3010   49.3350 C   0  0  0  0  0  0  0  0  0  0  0  0
   39.6200   34.3330   49.2530 C   0  0  0  0  0  0  0  0  0  0  0  0
   40.3560   34.6560   48.1390 C   0  0  0  0  0  0  0  0  0  0  0  0
   40.1450   33.8800   47.0650 N   0  0  0  0  0  0  0  0  0  0  0  0
   36.8048   29.8422   43.3973 H   0  0  0  0  0  0  0  0  0  0  0  0
   35.6884   31.2647   43.4623 H   0  0  0  0  0  0  0  0  0  0  0  0
   37.0703   32.5843   42.1665 H   0  0  0  0  0  0  0  0  0  0  0  0
   37.3973   30.9875   41.4494 H   0  0  0  0  0  0  0  0  0  0  0  0
   39.9200   33.0478   43.8519 H   0  0  0  0  0  0  0  0  0  0  0  0
   38.3748   33.6683   43.1646 H   0  0  0  0  0  0  0  0  0  0  0  0
   37.5721   33.3627   45.2117 H   0  0  0  0  0  0  0  0  0  0  0  0
   35.9590   29.8281   48.3191 H   0  0  0  0  0  0  0  0  0  0  0  0
   37.8762   31.7214   48.1449 H   0  0  0  0  0  0  0  0  0  0  0  0
   38.1477   33.0752   50.2493 H   0  0  0  0  0  0  0  0  0  0  0  0
   39.7659   34.9500   50.1519 H   0  0  0  0  0  0  0  0  0  0  0  0
   41.0693   35.4933   48.1282 H   0  0  0  0  0  0  0  0  0  0  0  0
  1 11  1  0
  1  2  2  0
  3  8  1  0
  3  1  1  0
  4  3  1  0
  5  6  1  0
  5  4  1  0
  6  7  1  0
  7  8  1  0
  8 24  1  0
  9 19  1  0
 10  9  2  0
 11 10  1  0
 12 13  1  0
 12 11  2  0
 13 14  2  0
 14  9  1  0
 15 18  1  0
 15 13  1  0
 16 15  1  0
 17 15  1  0
 19 20  1  0
 20 21  1  0
 20 23  1  0
 22 20  1  0
 24 25  1  0
 25 30  1  0
 25 26  2  0
 26 27  1  0
 28 27  2  0
 29 28  1  0
 30 29  2  0
  4 31  1  0
  4 32  1  0
  5 33  1  0
  5 34  1  0
  7 35  1  0
  7 36  1  0
  8 37  1  1
 10 38  1  0
 26 39  1  0
 27 40  1  0
 28 41  1  0
 29 42  1  0
M  ISO  8  31  13  32  13  33  13  34  13  35  13  36  13  37  13  38  14
M  ISO  4  39  14  40  14  41  14  42  14
M  END
>  <minimizedAffinity>  (1) 
-5.67677164

>  <minimizedRMSD>  (1) 
2.04645252

$$$$
