
     RDKit          3D

 23 24  0  0  1  0  0  0  0  0999 V2000
   38.1410   30.6740   47.7160 C   0  0  0  0  0  0  0  0  0  0  0  0
   40.1160   33.3030   46.0680 C   0  0  0  0  0  0  0  0  0  0  0  0
   40.7530   32.6100   45.0180 C   0  0  0  0  0  0  0  0  0  0  0  0
   40.4900   31.2460   44.8990 C   0  0  0  0  0  0  0  0  0  0  0  0
   39.6400   30.6770   45.7980 N   0  0  0  0  0  0  0  0  0  0  0  0
   39.0470   31.3770   46.7910 C   0  0  0  0  0  0  0  0  0  0  0  0
   39.2860   32.6960   46.9270 N   0  0  0  0  0  0  0  0  0  0  0  0
   38.1040   31.4330   49.0040 C   0  0  2  0  0  0  0  0  0  0  0  0
   37.9200   30.7160   50.3000 C   0  0  0  0  0  0  0  0  0  0  0  0
   36.7670   31.4290   49.7040 C   0  0  2  0  0  0  0  0  0  0  0  0
   35.6530   30.5410   49.2460 C   0  0  0  0  0  0  0  0  0  0  0  0
   36.0950   29.2200   49.3770 F   0  0  0  0  0  0  0  0  0  0  0  0
   35.3600   30.7060   47.8980 F   0  0  0  0  0  0  0  0  0  0  0  0
   34.4960   30.6670   50.0060 F   0  0  0  0  0  0  0  0  0  0  0  0
   38.5112   29.6539   47.8958 H   0  0  0  0  0  0  0  0  0  0  0  0
   37.1315   30.6116   47.2836 H   0  0  0  0  0  0  0  0  0  0  0  0
   40.3072   34.3798   46.1860 H   0  0  0  0  0  0  0  0  0  0  0  0
   41.4303   33.1249   44.3208 H   0  0  0  0  0  0  0  0  0  0  0  0
   40.9554   30.6471   44.1023 H   0  0  0  0  0  0  0  0  0  0  0  0
   38.8388   32.1723   48.6525 H   0  0  0  0  0  0  0  0  0  0  0  0
   37.9307   29.6163   50.3233 H   0  0  0  0  0  0  0  0  0  0  0  0
   38.4247   30.7456   51.2769 H   0  0  0  0  0  0  0  0  0  0  0  0
   36.0737   32.2369   49.9809 H   0  0  0  0  0  0  0  0  0  0  0  0
  1  8  1  0
  2  7  2  0
  3  2  1  0
  4  3  2  0
  4  5  1  0
  5  6  2  0
  6  7  1  0
  6  1  1  0
  8 10  1  0
  8  9  1  0
 10  9  1  0
 11 12  1  0
 11 10  1  0
 11 14  1  0
 13 11  1  0
  1 15  1  0
  1 16  1  0
  2 17  1  0
  3 18  1  0
  4 19  1  0
  8 20  1  1
  9 21  1  0
  9 22  1  0
 10 23  1  1
M  ISO  8  15   8  16   8  17  14  18  14  19  14  20  13  21  13  22  13
M  ISO  1  23  13
M  END
>  <minimizedAffinity>  (1) 
-5.37861252

>  <minimizedRMSD>  (1) 
3.55168772

$$$$
