
     RDKit          3D

 22 22  0  0  0  0  0  0  0  0999 V2000
   35.4370   29.0970   50.3960 C   0  0  0  0  0  0  0  0  0  0  0  0
   36.1770   30.1110   49.7710 C   0  0  0  0  0  0  0  0  0  0  0  0
   35.9480   30.3360   48.3970 C   0  0  0  0  0  0  0  0  0  0  0  0
   35.0160   29.5510   47.7560 N   0  0  0  0  0  0  0  0  0  0  0  0
   34.3300   28.5870   48.4040 C   0  0  0  0  0  0  0  0  0  0  0  0
   34.5480   28.3720   49.7130 N   0  0  0  0  0  0  0  0  0  0  0  0
   37.1740   30.9470   50.4730 C   0  0  0  0  0  0  0  0  0  0  0  0
   38.4250   30.9010   49.9560 F   0  0  0  0  0  0  0  0  0  0  0  0
   37.2670   30.5950   51.8060 F   0  0  0  0  0  0  0  0  0  0  0  0
   36.7650   32.2900   50.4250 F   0  0  0  0  0  0  0  0  0  0  0  0
   33.3380   27.7550   47.7090 C   0  0  0  0  0  0  0  0  0  0  0  0
   33.7630   26.3350   47.5030 C   0  0  0  0  0  0  0  0  0  0  0  0
   32.0900   27.7240   48.5850 C   0  0  0  0  0  0  0  0  0  0  0  0
   35.5915   28.8957   51.4663 H   0  0  0  0  0  0  0  0  0  0  0  0
   36.4990   31.1172   47.8528 H   0  0  0  0  0  0  0  0  0  0  0  0
   33.1839   28.1962   46.7132 H   0  0  0  0  0  0  0  0  0  0  0  0
   33.9081   25.8503   48.4797 H   0  0  0  0  0  0  0  0  0  0  0  0
   32.9862   25.7979   46.9389 H   0  0  0  0  0  0  0  0  0  0  0  0
   34.7071   26.3130   46.9389 H   0  0  0  0  0  0  0  0  0  0  0  0
   32.3855   27.7313   49.6445 H   0  0  0  0  0  0  0  0  0  0  0  0
   31.4699   28.6070   48.3711 H   0  0  0  0  0  0  0  0  0  0  0  0
   31.5145   26.8113   48.3711 H   0  0  0  0  0  0  0  0  0  0  0  0
  2  1  2  0
  2  7  1  0
  3  2  1  0
  4  3  2  0
  4  5  1  0
  5  6  2  0
  6  1  1  0
  7  9  1  0
  8  7  1  0
 10  7  1  0
 11  5  1  0
 11 13  1  0
 12 11  1  0
  1 14  1  0
  3 15  1  0
 11 16  1  0
 12 17  1  0
 12 18  1  0
 12 19  1  0
 13 20  1  0
 13 21  1  0
 13 22  1  0
M  ISO  8  14  14  15  14  16   8  17   8  18   8  19   8  20   8  21   8
M  ISO  1  22   8
M  END
>  <minimizedAffinity>  (1) 
-4.84018993

>  <minimizedRMSD>  (1) 
0.390670806

$$$$
