
     RDKit          3D

 29 30  0  0  1  0  0  0  0  0999 V2000
   36.7180   29.3830   49.5770 C   0  0  0  0  0  0  0  0  0  0  0  0
   37.9340   32.8700   49.4340 C   0  0  0  0  0  0  0  0  0  0  0  0
   38.7040   32.8900   48.2710 C   0  0  0  0  0  0  0  0  0  0  0  0
   38.7950   31.7000   47.5480 C   0  0  0  0  0  0  0  0  0  0  0  0
   38.1360   30.5890   48.0080 N   0  0  0  0  0  0  0  0  0  0  0  0
   37.3990   30.6310   49.1520 C   0  0  0  0  0  0  0  0  0  0  0  0
   37.3120   31.7770   49.8460 N   0  0  0  0  0  0  0  0  0  0  0  0
   35.2800   29.5010   49.1700 C   0  0  2  0  0  0  0  0  0  0  0  0
   34.1830   29.4490   50.1800 C   0  0  0  0  0  0  0  0  0  0  0  0
   34.4530   28.2520   49.3580 C   0  0  1  0  0  0  0  0  0  0  0  0
   33.5430   27.9510   48.1810 C   0  0  0  0  0  0  0  0  0  0  0  0
   32.1310   27.8210   48.7360 C   0  0  0  0  0  0  0  0  0  0  0  0
   33.8920   26.5740   47.6290 C   0  0  0  0  0  0  0  0  0  0  0  0
   37.1793   28.5151   49.0831 H   0  0  0  0  0  0  0  0  0  0  0  0
   36.8054   29.2418   50.6644 H   0  0  0  0  0  0  0  0  0  0  0  0
   37.8409   33.7916   50.0272 H   0  0  0  0  0  0  0  0  0  0  0  0
   39.2172   33.8043   47.9383 H   0  0  0  0  0  0  0  0  0  0  0  0
   39.3871   31.6538   46.6221 H   0  0  0  0  0  0  0  0  0  0  0  0
   35.5234   30.2083   48.3634 H   0  0  0  0  0  0  0  0  0  0  0  0
   34.4270   29.4423   51.2526 H   0  0  0  0  0  0  0  0  0  0  0  0
   33.2913   30.0605   50.3821 H   0  0  0  0  0  0  0  0  0  0  0  0
   34.6252   27.1952   49.6101 H   0  0  0  0  0  0  0  0  0  0  0  0
   33.6406   28.7321   47.4127 H   0  0  0  0  0  0  0  0  0  0  0  0
   32.1674   27.8244   49.8354 H   0  0  0  0  0  0  0  0  0  0  0  0
   31.5204   28.6667   48.3868 H   0  0  0  0  0  0  0  0  0  0  0  0
   31.6851   26.8780   48.3868 H   0  0  0  0  0  0  0  0  0  0  0  0
   34.0683   25.8786   48.4629 H   0  0  0  0  0  0  0  0  0  0  0  0
   33.0592   26.2041   47.0129 H   0  0  0  0  0  0  0  0  0  0  0  0
   34.8004   26.6454   47.0129 H   0  0  0  0  0  0  0  0  0  0  0  0
  2  7  2  0
  3  2  1  0
  4  5  1  0
  4  3  2  0
  5  6  2  0
  6  1  1  0
  6  7  1  0
  8 10  1  0
  8  1  1  0
  8  9  1  0
 10  9  1  0
 11 12  1  0
 11 10  1  0
 13 11  1  0
  1 14  1  0
  1 15  1  0
  2 16  1  0
  3 17  1  0
  4 18  1  0
  8 19  1  6
  9 20  1  0
  9 21  1  0
 10 22  1  1
 11 23  1  0
 12 24  1  0
 12 25  1  0
 12 26  1  0
 13 27  1  0
 13 28  1  0
 13 29  1  0
M  ISO  8  14   8  15   8  16  14  17  14  18  14  19  13  20  13  21  13
M  ISO  8  22  13  23   8  24   8  25   8  26   8  27   8  28   8  29   8
M  END
>  <minimizedAffinity>  (1) 
-4.84785557

>  <minimizedRMSD>  (1) 
0.727212787

$$$$
