
     RDKit          3D

 30 32  0  0  1  0  0  0  0  0999 V2000
   35.3690   29.4010   49.0050 C   0  0  2  0  0  0  0  0  0  0  0  0
   34.2280   29.3990   49.9320 C   0  0  0  0  0  0  0  0  0  0  0  0
   34.5740   28.1200   49.3360 C   0  0  1  0  0  0  0  0  0  0  0  0
   36.7730   29.3670   49.6150 C   0  0  0  0  0  0  0  0  0  0  0  0
   38.3220   32.6760   49.4180 C   0  0  0  0  0  0  0  0  0  0  0  0
   38.8730   32.7010   48.1280 C   0  0  0  0  0  0  0  0  0  0  0  0
   38.6950   31.5530   47.3360 C   0  0  0  0  0  0  0  0  0  0  0  0
   38.0000   30.4820   47.8620 N   0  0  0  0  0  0  0  0  0  0  0  0
   37.4990   30.5330   49.1140 C   0  0  0  0  0  0  0  0  0  0  0  0
   37.6650   31.6350   49.8860 N   0  0  0  0  0  0  0  0  0  0  0  0
   33.6280   27.6160   48.2860 C   0  0  0  0  0  0  0  0  0  0  0  0
   33.9620   26.4880   47.7450 O   0  0  0  0  0  0  0  0  0  0  0  0
   32.4620   28.2420   47.8790 O   0  0  0  0  0  0  0  0  0  0  0  0
   31.2000   27.7770   48.1790 C   0  0  0  0  0  0  0  0  0  0  0  0
   30.7540   27.7780   49.5040 C   0  0  0  0  0  0  0  0  0  0  0  0
   29.4650   27.2590   49.4880 C   0  0  0  0  0  0  0  0  0  0  0  0
   29.2030   26.9710   48.1440 C   0  0  0  0  0  0  0  0  0  0  0  0
   30.2330   27.2880   47.4310 O   0  0  0  0  0  0  0  0  0  0  0  0
   35.6339   30.0052   48.1248 H   0  0  0  0  0  0  0  0  0  0  0  0
   34.4052   29.5592   51.0057 H   0  0  0  0  0  0  0  0  0  0  0  0
   33.2958   29.9806   49.9833 H   0  0  0  0  0  0  0  0  0  0  0  0
   34.8323   27.1161   49.7041 H   0  0  0  0  0  0  0  0  0  0  0  0
   36.7067   29.4089   50.7122 H   0  0  0  0  0  0  0  0  0  0  0  0
   37.2933   28.4384   49.3374 H   0  0  0  0  0  0  0  0  0  0  0  0
   38.4433   33.5590   50.0627 H   0  0  0  0  0  0  0  0  0  0  0  0
   39.4195   33.5790   47.7532 H   0  0  0  0  0  0  0  0  0  0  0  0
   39.1023   31.5088   46.3151 H   0  0  0  0  0  0  0  0  0  0  0  0
   31.3137   28.1221   50.3862 H   0  0  0  0  0  0  0  0  0  0  0  0
   28.7949   27.1072   50.3470 H   0  0  0  0  0  0  0  0  0  0  0  0
   28.2675   26.5422   47.7555 H   0  0  0  0  0  0  0  0  0  0  0  0
  1  3  1  0
  1  4  1  0
  1  2  1  0
  3  2  1  0
  5 10  2  0
  6  5  1  0
  7  8  1  0
  7  6  2  0
  8  9  2  0
  9  4  1  0
  9 10  1  0
 11  3  1  0
 12 11  2  0
 13 14  1  0
 13 11  1  0
 14 15  2  0
 16 15  1  0
 17 16  2  0
 18 17  1  0
 18 14  1  0
  1 19  1  6
  2 20  1  0
  2 21  1  0
  3 22  1  1
  4 23  1  0
  4 24  1  0
  5 25  1  0
  6 26  1  0
  7 27  1  0
 15 28  1  0
 16 29  1  0
 17 30  1  0
M  ISO  8  19  13  20  13  21  13  22  13  23   8  24   8  25  14  26  14
M  ISO  4  27  14  28  14  29  14  30  14
M  END
>  <minimizedAffinity>  (1) 
-5.12755489

>  <minimizedRMSD>  (1) 
1.24335718

$$$$
