
     RDKit          3D

 43 46  0  0  0  0  0  0  0  0999 V2000
   32.8110   27.7670   48.5420 C   0  0  0  0  0  0  0  0  0  0  0  0
   31.6860   28.1950   49.1840 C   0  0  0  0  0  0  0  0  0  0  0  0
   30.4590   27.5560   49.1260 C   0  0  0  0  0  0  0  0  0  0  0  0
   30.4150   26.4080   48.3530 C   0  0  0  0  0  0  0  0  0  0  0  0
   31.5320   25.9390   47.6860 C   0  0  0  0  0  0  0  0  0  0  0  0
   32.7280   26.6180   47.7800 C   0  0  0  0  0  0  0  0  0  0  0  0
   36.1060   28.9070   49.6660 C   0  0  0  0  0  0  0  0  0  0  0  0
   36.4290   29.8950   48.7050 C   0  0  0  0  0  0  0  0  0  0  0  0
   35.4960   30.1320   47.7020 C   0  0  0  0  0  0  0  0  0  0  0  0
   34.3190   29.4110   47.6860 N   0  0  0  0  0  0  0  0  0  0  0  0
   34.0690   28.4750   48.6370 C   0  0  0  0  0  0  0  0  0  0  0  0
   34.9580   28.2440   49.6000 N   0  0  0  0  0  0  0  0  0  0  0  0
   37.6890   30.6700   48.7200 C   0  0  0  0  0  0  0  0  0  0  0  0
   38.4760   30.4610   47.6250 F   0  0  0  0  0  0  0  0  0  0  0  0
   38.4570   30.3560   49.8240 F   0  0  0  0  0  0  0  0  0  0  0  0
   37.4090   32.0370   48.7750 F   0  0  0  0  0  0  0  0  0  0  0  0
   33.9210   26.1570   47.0950 C   0  0  0  0  0  0  0  0  0  0  0  0
   33.9640   24.7040   46.7070 C   0  0  0  0  0  0  0  0  0  0  0  0
   34.8830   24.6410   45.5600 N   0  0  0  0  0  0  0  0  0  0  0  0
   34.8700   25.2910   44.3740 C   0  0  0  0  0  0  0  0  0  0  0  0
   35.9090   24.9180   43.6360 N   0  0  0  0  0  0  0  0  0  0  0  0
   36.6150   24.0150   44.3350 C   0  0  0  0  0  0  0  0  0  0  0  0
   37.7620   23.3140   44.0580 C   0  0  0  0  0  0  0  0  0  0  0  0
   38.3770   23.4560   42.9500 O   0  0  0  0  0  0  0  0  0  0  0  0
   38.3090   22.4340   44.9380 N   0  0  0  0  0  0  0  0  0  0  0  0
   37.6150   22.3290   46.0870 C   0  0  0  0  0  0  0  0  0  0  0  0
   38.0850   21.4380   47.0920 N   0  0  0  0  0  0  0  0  0  0  0  0
   36.4900   22.9890   46.4120 N   0  0  0  0  0  0  0  0  0  0  0  0
   35.9680   23.8550   45.5250 C   0  0  0  0  0  0  0  0  0  0  0  0
   31.7586   29.1106   49.7893 H   0  0  0  0  0  0  0  0  0  0  0  0
   29.5756   27.9361   49.6599 H   0  0  0  0  0  0  0  0  0  0  0  0
   29.4678   25.8552   48.2673 H   0  0  0  0  0  0  0  0  0  0  0  0
   31.4660   25.0234   47.0800 H   0  0  0  0  0  0  0  0  0  0  0  0
   36.8151   28.6860   50.4774 H   0  0  0  0  0  0  0  0  0  0  0  0
   35.6940   30.8877   46.9276 H   0  0  0  0  0  0  0  0  0  0  0  0
   34.0259   26.7501   46.1745 H   0  0  0  0  0  0  0  0  0  0  0  0
   34.7366   26.2841   47.8221 H   0  0  0  0  0  0  0  0  0  0  0  0
   34.3429   24.0930   47.5395 H   0  0  0  0  0  0  0  0  0  0  0  0
   32.9661   24.3142   46.4576 H   0  0  0  0  0  0  0  0  0  0  0  0
   34.1089   26.0228   44.0654 H   0  0  0  0  0  0  0  0  0  0  0  0
   39.1688   21.9007   44.7450 H   0  0  0  0  0  0  0  0  0  0  0  0
   37.5688   21.3428   47.9782 H   0  0  0  0  0  0  0  0  0  0  0  0
   38.9414   20.8882   46.9332 H   0  0  0  0  0  0  0  0  0  0  0  0
  1 11  1  0
  1  2  2  0
  3  2  1  0
  4  3  2  0
  5  6  2  0
  5  4  1  0
  6  1  1  0
  8 13  1  0
  8  7  2  0
  9  8  1  0
 10  9  2  0
 10 11  1  0
 11 12  2  0
 12  7  1  0
 13 16  1  0
 13 15  1  0
 14 13  1  0
 17  6  1  0
 18 17  1  0
 19 18  1  0
 20 19  1  0
 21 22  1  0
 21 20  2  0
 22 29  2  0
 23 22  1  0
 23 25  1  0
 24 23  2  0
 25 26  1  0
 26 28  2  0
 26 27  1  0
 29 19  1  0
 29 28  1  0
  2 30  1  0
  3 31  1  0
  4 32  1  0
  5 33  1  0
  7 34  1  0
  9 35  1  0
 17 36  1  0
 17 37  1  0
 18 38  1  0
 18 39  1  0
 20 40  1  0
 25 41  1  0
 27 42  1  0
 27 43  1  0
M  ISO  8  30  14  31  14  32  14  33  14  34  14  35  14  36   8  37   8
M  ISO  4  38   8  39   8  40  14  41   9
M  END
>  <minimizedAffinity>  (1) 
-5.40764046

>  <minimizedRMSD>  (1) 
0.953209758

$$$$
