
     RDKit          3D

 32 32  0  0  0  0  0  0  0  0999 V2000
   36.8960   29.9170   49.8660 C   0  0  0  0  0  0  0  0  0  0  0  0
   37.9800   30.6650   49.4160 C   0  0  0  0  0  0  0  0  0  0  0  0
   37.9690   31.0900   48.0810 C   0  0  0  0  0  0  0  0  0  0  0  0
   36.9240   30.7600   47.3070 N   0  0  0  0  0  0  0  0  0  0  0  0
   35.8810   30.0260   47.7870 C   0  0  0  0  0  0  0  0  0  0  0  0
   35.8820   29.6150   49.0570 N   0  0  0  0  0  0  0  0  0  0  0  0
   39.0340   31.8470   47.5670 N   0  0  0  0  0  0  0  0  0  0  0  0
   38.9260   32.5640   46.3620 C   0  0  0  0  0  0  0  0  0  0  0  0
   37.8580   32.4040   45.6480 N   0  0  0  0  0  0  0  0  0  0  0  0
   39.9630   33.4360   45.9420 N   0  0  0  0  0  0  0  0  0  0  0  0
   37.8470   32.8040   44.6750 H   0  0  0  0  0  0  0  0  0  0  0  0
   36.8900   29.4490   51.3010 C   0  0  0  0  0  0  0  0  0  0  0  0
   35.5960   29.1540   51.6880 F   0  0  0  0  0  0  0  0  0  0  0  0
   37.7610   28.4180   51.4210 F   0  0  0  0  0  0  0  0  0  0  0  0
   37.3210   30.5280   52.0730 F   0  0  0  0  0  0  0  0  0  0  0  0
   34.7040   29.6400   46.9560 C   0  0  0  0  0  0  0  0  0  0  0  0
   33.5440   30.5920   47.1740 C   0  0  0  0  0  0  0  0  0  0  0  0
   34.2820   28.2240   47.2800 C   0  0  0  0  0  0  0  0  0  0  0  0
   35.1230   29.7600   45.5050 C   0  0  0  0  0  0  0  0  0  0  0  0
   38.8166   30.9139   50.0854 H   0  0  0  0  0  0  0  0  0  0  0  0
   39.9217   31.8781   48.0885 H   0  0  0  0  0  0  0  0  0  0  0  0
   39.8722   33.9557   45.0574 H   0  0  0  0  0  0  0  0  0  0  0  0
   40.8068   33.5495   46.5217 H   0  0  0  0  0  0  0  0  0  0  0  0
   33.3788   30.7276   48.2530 H   0  0  0  0  0  0  0  0  0  0  0  0
   33.7757   31.5638   46.7136 H   0  0  0  0  0  0  0  0  0  0  0  0
   32.6361   30.1752   46.7136 H   0  0  0  0  0  0  0  0  0  0  0  0
   34.2432   28.0937   48.3716 H   0  0  0  0  0  0  0  0  0  0  0  0
   33.2873   28.0308   46.8520 H   0  0  0  0  0  0  0  0  0  0  0  0
   35.0087   27.5178   46.8520 H   0  0  0  0  0  0  0  0  0  0  0  0
   36.1793   30.0625   45.4522 H   0  0  0  0  0  0  0  0  0  0  0  0
   34.9943   28.7889   45.0047 H   0  0  0  0  0  0  0  0  0  0  0  0
   34.4997   30.5157   45.0047 H   0  0  0  0  0  0  0  0  0  0  0  0
  1 12  1  0
  2  1  2  0
  3  2  1  0
  4  5  1  0
  4  3  2  0
  5  6  2  0
  6  1  1  0
  7  3  1  0
  8  7  1  0
  9  8  2  0
 10  8  1  0
 11  9  1  0
 12 14  1  0
 12 13  1  0
 12 15  1  0
 16 17  1  0
 16 18  1  0
 16  5  1  0
 19 16  1  0
  2 20  1  0
  7 21  1  0
 10 22  1  0
 10 23  1  0
 17 24  1  0
 17 25  1  0
 17 26  1  0
 18 27  1  0
 18 28  1  0
 18 29  1  0
 19 30  1  0
 19 31  1  0
 19 32  1  0
M  ISO  8  20  14  24   8  25   8  26   8  27   8  28   8  29   8  30   8
M  ISO  2  31   8  32   8
M  END
>  <minimizedAffinity>  (1) 
-6.29988146

>  <minimizedRMSD>  (1) 
0.173885316

$$$$
