
     RDKit          3D

 49 53  0  0  1  0  0  0  0  0999 V2000
   39.1260   31.5260   46.8330 C   0  0  0  0  0  0  0  0  0  0  0  0
   40.1180   32.4600   46.4400 C   0  0  0  0  0  0  0  0  0  0  0  0
   40.7410   32.3200   45.1560 C   0  0  0  0  0  0  0  0  0  0  0  0
   40.3330   31.3060   44.4190 N   0  0  0  0  0  0  0  0  0  0  0  0
   39.3600   30.4080   44.8240 C   0  0  0  0  0  0  0  0  0  0  0  0
   38.7960   30.5470   46.0020 N   0  0  0  0  0  0  0  0  0  0  0  0
   38.9330   29.2970   43.9540 C   0  0  0  0  0  0  0  0  0  0  0  0
   38.3110   29.7690   42.7470 N   0  0  0  0  0  0  0  0  0  0  0  0
   38.6650   29.1360   41.5850 C   0  0  0  0  0  0  0  0  0  0  0  0
   38.0340   29.6750   40.5280 N   0  0  0  0  0  0  0  0  0  0  0  0
   37.2460   30.6820   40.9820 C   0  0  0  0  0  0  0  0  0  0  0  0
   36.3670   31.5890   40.4270 C   0  0  0  0  0  0  0  0  0  0  0  0
   36.1940   31.5560   39.1820 O   0  0  0  0  0  0  0  0  0  0  0  0
   35.7480   32.4530   41.2680 N   0  0  0  0  0  0  0  0  0  0  0  0
   35.9680   32.4470   42.5950 C   0  0  0  0  0  0  0  0  0  0  0  0
   35.1900   33.4420   43.2440 N   0  0  0  0  0  0  0  0  0  0  0  0
   36.8320   31.5630   43.1740 N   0  0  0  0  0  0  0  0  0  0  0  0
   37.4450   30.7060   42.3450 C   0  0  0  0  0  0  0  0  0  0  0  0
   38.7310   31.7700   48.1870 C   0  0  2  0  0  0  0  0  0  0  0  0
   37.8970   31.0350   49.1270 C   0  0  0  0  0  0  0  0  0  0  0  0
   38.3140   30.8570   50.3740 N   0  0  0  0  0  0  0  0  0  0  0  0
   37.6030   30.1740   51.2880 C   0  0  0  0  0  0  0  0  0  0  0  0
   36.4310   29.6220   51.0260 N   0  0  0  0  0  0  0  0  0  0  0  0
   35.8830   29.7280   49.7930 C   0  0  0  0  0  0  0  0  0  0  0  0
   34.6820   29.1700   49.4830 C   0  0  0  0  0  0  0  0  0  0  0  0
   34.1440   29.2810   48.2440 C   0  0  0  0  0  0  0  0  0  0  0  0
   34.8840   29.9920   47.3240 C   0  0  0  0  0  0  0  0  0  0  0  0
   36.0950   30.5440   47.6690 C   0  0  0  0  0  0  0  0  0  0  0  0
   36.6490   30.4400   48.8930 C   0  0  0  0  0  0  0  0  0  0  0  0
   38.4350   33.0700   48.5510 O   0  0  0  0  0  0  0  0  0  0  0  0
   39.2430   34.0270   49.1280 C   0  0  0  0  0  0  0  0  0  0  0  0
   39.7270   35.1820   48.3780 N   0  0  0  0  0  0  0  0  0  0  0  0
   39.5980   33.9480   50.3330 O   0  0  0  0  0  0  0  0  0  0  0  0
   40.4061   33.2819   47.1119 H   0  0  0  0  0  0  0  0  0  0  0  0
   41.5151   33.0188   44.8060 H   0  0  0  0  0  0  0  0  0  0  0  0
   39.8143   28.6950   43.6878 H   0  0  0  0  0  0  0  0  0  0  0  0
   38.1943   28.6970   44.5056 H   0  0  0  0  0  0  0  0  0  0  0  0
   39.3731   28.2964   41.5249 H   0  0  0  0  0  0  0  0  0  0  0  0
   35.0858   33.1383   40.8772 H   0  0  0  0  0  0  0  0  0  0  0  0
   35.2516   33.5588   44.2655 H   0  0  0  0  0  0  0  0  0  0  0  0
   34.5641   34.0469   42.6932 H   0  0  0  0  0  0  0  0  0  0  0  0
   39.7053   31.2643   48.2573 H   0  0  0  0  0  0  0  0  0  0  0  0
   38.0163   30.0696   52.3021 H   0  0  0  0  0  0  0  0  0  0  0  0
   34.1333   28.6144   50.2577 H   0  0  0  0  0  0  0  0  0  0  0  0
   33.1739   28.8302   47.9878 H   0  0  0  0  0  0  0  0  0  0  0  0
   34.5009   30.1194   46.3008 H   0  0  0  0  0  0  0  0  0  0  0  0
   36.6452   31.1047   46.8990 H   0  0  0  0  0  0  0  0  0  0  0  0
   40.3293   35.8794   48.8383 H   0  0  0  0  0  0  0  0  0  0  0  0
   39.4662   35.2996   47.3885 H   0  0  0  0  0  0  0  0  0  0  0  0
  1 19  1  0
  2  1  2  0
  3  2  1  0
  4  5  1  0
  4  3  2  0
  5  6  2  0
  6  1  1  0
  7  5  1  0
  8  7  1  0
  9  8  1  0
 10 11  1  0
 10  9  2  0
 11 18  2  0
 12 11  1  0
 12 14  1  0
 13 12  2  0
 14 15  1  0
 15 17  2  0
 15 16  1  0
 18  8  1  0
 18 17  1  0
 19 30  1  0
 19 20  1  0
 20 21  2  0
 21 22  1  0
 23 22  2  0
 24 23  1  0
 25 24  2  0
 26 25  1  0
 27 28  1  0
 27 26  2  0
 28 29  2  0
 29 20  1  0
 29 24  1  0
 30 31  1  0
 31 33  2  0
 32 31  1  0
  2 34  1  0
  3 35  1  0
  7 36  1  0
  7 37  1  0
  9 38  1  0
 14 39  1  0
 16 40  1  0
 16 41  1  0
 19 42  1  1
 22 43  1  0
 25 44  1  0
 26 45  1  0
 27 46  1  0
 28 47  1  0
 32 48  1  0
 32 49  1  0
M  END
>  <minimizedAffinity>  (1) 
-7.64143181

>  <minimizedRMSD>  (1) 
0.603984475

$$$$
