
     RDKit          3D

 27 29  0  0  0  0  0  0  0  0999 V2000
   37.5230   30.5610   48.9980 C   0  0  0  0  0  0  0  0  0  0  0  0
   37.4660   31.7230   49.7930 C   0  0  0  0  0  0  0  0  0  0  0  0
   38.0820   32.8720   49.3160 C   0  0  0  0  0  0  0  0  0  0  0  0
   38.7110   32.8380   48.1140 N   0  0  0  0  0  0  0  0  0  0  0  0
   38.7440   31.7080   47.3840 C   0  0  0  0  0  0  0  0  0  0  0  0
   38.1570   30.5810   47.8200 N   0  0  0  0  0  0  0  0  0  0  0  0
   39.3780   31.5720   46.1130 N   0  0  0  0  0  0  0  0  0  0  0  0
   40.6450   31.1570   45.8200 C   0  0  0  0  0  0  0  0  0  0  0  0
   40.7850   31.1950   44.4700 N   0  0  0  0  0  0  0  0  0  0  0  0
   39.6380   31.6220   43.9280 C   0  0  0  0  0  0  0  0  0  0  0  0
   39.1630   31.8660   42.6550 C   0  0  0  0  0  0  0  0  0  0  0  0
   37.9080   32.3110   42.4170 N   0  0  0  0  0  0  0  0  0  0  0  0
   37.0710   32.5310   43.4620 C   0  0  0  0  0  0  0  0  0  0  0  0
   37.4810   32.3110   44.7030 N   0  0  0  0  0  0  0  0  0  0  0  0
   38.7290   31.8680   44.9490 C   0  0  0  0  0  0  0  0  0  0  0  0
   39.9970   31.6510   41.5500 N   0  0  0  0  0  0  0  0  0  0  0  0
   36.9150   29.4230   49.4670 O   0  0  0  0  0  0  0  0  0  0  0  0
   35.6370   29.3650   50.0460 C   0  0  0  0  0  0  0  0  0  0  0  0
   35.6660   29.3780   51.4240 F   0  0  0  0  0  0  0  0  0  0  0  0
   34.7740   30.3040   49.5740 F   0  0  0  0  0  0  0  0  0  0  0  0
   35.1080   28.1200   49.6610 F   0  0  0  0  0  0  0  0  0  0  0  0
   36.9483   31.7198   50.7636 H   0  0  0  0  0  0  0  0  0  0  0  0
   38.0605   33.8001   49.9061 H   0  0  0  0  0  0  0  0  0  0  0  0
   41.4124   30.8482   46.5451 H   0  0  0  0  0  0  0  0  0  0  0  0
   36.0487   32.8932   43.2786 H   0  0  0  0  0  0  0  0  0  0  0  0
   39.6474   31.8315   40.5981 H   0  0  0  0  0  0  0  0  0  0  0  0
   40.9597   31.3124   41.6895 H   0  0  0  0  0  0  0  0  0  0  0  0
  1 17  1  0
  1  2  2  0
  3  2  1  0
  4  3  2  0
  5  6  2  0
  5  4  1  0
  6  1  1  0
  7  5  1  0
  8  7  1  0
  9  8  2  0
 10  9  1  0
 10 15  2  0
 11 10  1  0
 12 11  2  0
 12 13  1  0
 13 14  2  0
 14 15  1  0
 15  7  1  0
 16 11  1  0
 17 18  1  0
 18 19  1  0
 20 18  1  0
 21 18  1  0
  2 22  1  0
  3 23  1  0
  8 24  1  0
 13 25  1  0
 16 26  1  0
 16 27  1  0
M  ISO  4  22  14  23  14  24  14  25  14
M  END
>  <minimizedAffinity>  (1) 
-6.70298815

>  <minimizedRMSD>  (1) 
1.75059879

$$$$
