
     RDKit          3D

 29 31  0  0  0  0  0  0  0  0999 V2000
   37.6750   31.9970   48.8520 C   0  0  0  0  0  0  0  0  0  0  0  0
   38.1960   33.1400   49.4730 C   0  0  0  0  0  0  0  0  0  0  0  0
   39.2140   33.8380   48.7790 C   0  0  0  0  0  0  0  0  0  0  0  0
   39.6260   33.3750   47.5730 N   0  0  0  0  0  0  0  0  0  0  0  0
   39.0920   32.2720   47.0230 C   0  0  0  0  0  0  0  0  0  0  0  0
   38.1190   31.5810   47.6570 N   0  0  0  0  0  0  0  0  0  0  0  0
   39.6120   31.8900   45.7540 N   0  0  0  0  0  0  0  0  0  0  0  0
   40.7830   31.2970   45.5200 C   0  0  0  0  0  0  0  0  0  0  0  0
   40.9040   31.1000   44.1750 N   0  0  0  0  0  0  0  0  0  0  0  0
   39.8060   31.5720   43.5580 C   0  0  0  0  0  0  0  0  0  0  0  0
   39.3480   31.6630   42.2590 C   0  0  0  0  0  0  0  0  0  0  0  0
   38.1650   32.2030   41.9130 N   0  0  0  0  0  0  0  0  0  0  0  0
   37.3910   32.6820   42.9300 C   0  0  0  0  0  0  0  0  0  0  0  0
   37.8160   32.6050   44.2030 N   0  0  0  0  0  0  0  0  0  0  0  0
   38.9940   32.0680   44.5580 C   0  0  0  0  0  0  0  0  0  0  0  0
   40.1990   31.1460   41.2430 N   0  0  0  0  0  0  0  0  0  0  0  0
   36.6390   31.2760   49.5460 C   0  0  0  0  0  0  0  0  0  0  0  0
   35.6400   30.8040   48.9130 O   0  0  0  0  0  0  0  0  0  0  0  0
   36.7110   31.0860   50.9130 O   0  0  0  0  0  0  0  0  0  0  0  0
   36.9360   29.7450   51.3570 C   0  0  0  0  0  0  0  0  0  0  0  0
   35.7360   29.0890   51.5770 F   0  0  0  0  0  0  0  0  0  0  0  0
   37.7030   29.8020   52.5210 F   0  0  0  0  0  0  0  0  0  0  0  0
   37.6420   29.0270   50.4140 F   0  0  0  0  0  0  0  0  0  0  0  0
   37.8312   33.4792   50.4538 H   0  0  0  0  0  0  0  0  0  0  0  0
   39.6643   34.7433   49.2122 H   0  0  0  0  0  0  0  0  0  0  0  0
   41.5251   31.0147   46.2813 H   0  0  0  0  0  0  0  0  0  0  0  0
   36.4133   33.1339   42.7066 H   0  0  0  0  0  0  0  0  0  0  0  0
   39.9071   31.1879   40.2561 H   0  0  0  0  0  0  0  0  0  0  0  0
   41.1070   30.7298   41.4943 H   0  0  0  0  0  0  0  0  0  0  0  0
  1  2  2  0
  1 17  1  0
  3  2  1  0
  4  3  2  0
  5  4  1  0
  5  6  2  0
  6  1  1  0
  7  5  1  0
  8  7  1  0
  9  8  2  0
 10  9  1  0
 10 15  2  0
 11 10  1  0
 12 11  2  0
 12 13  1  0
 13 14  2  0
 14 15  1  0
 15  7  1  0
 16 11  1  0
 17 19  1  0
 18 17  2  0
 19 20  1  0
 20 21  1  0
 20 22  1  0
 23 20  1  0
  2 24  1  0
  3 25  1  0
  8 26  1  0
 13 27  1  0
 16 28  1  0
 16 29  1  0
M  ISO  4  24  14  25  14  26  14  27  14
M  END
>  <minimizedAffinity>  (1) 
-6.94945478

>  <minimizedRMSD>  (1) 
1.87108314

$$$$
