
     RDKit          3D

 43 46  0  0  0  0  0  0  0  0999 V2000
   31.7460   26.2310   47.5550 C   0  0  0  0  0  0  0  0  0  0  0  0
   31.4590   25.1380   46.8220 C   0  0  0  0  0  0  0  0  0  0  0  0
   32.4210   24.3870   46.1690 C   0  0  0  0  0  0  0  0  0  0  0  0
   33.7250   24.8190   46.3050 C   0  0  0  0  0  0  0  0  0  0  0  0
   34.0420   25.9290   47.0450 C   0  0  0  0  0  0  0  0  0  0  0  0
   33.0510   26.6550   47.6840 C   0  0  0  0  0  0  0  0  0  0  0  0
   29.4030   27.5140   50.0980 C   0  0  0  0  0  0  0  0  0  0  0  0
   28.7060   28.5040   49.3960 C   0  0  0  0  0  0  0  0  0  0  0  0
   29.0610   28.7030   48.0640 C   0  0  0  0  0  0  0  0  0  0  0  0
   30.0590   27.9340   47.5180 N   0  0  0  0  0  0  0  0  0  0  0  0
   30.7020   26.9950   48.2290 C   0  0  0  0  0  0  0  0  0  0  0  0
   30.3590   26.8070   49.5030 N   0  0  0  0  0  0  0  0  0  0  0  0
   27.6330   29.3200   50.0100 C   0  0  0  0  0  0  0  0  0  0  0  0
   28.0420   30.5770   50.3700 F   0  0  0  0  0  0  0  0  0  0  0  0
   27.1130   28.7120   51.1350 F   0  0  0  0  0  0  0  0  0  0  0  0
   26.5820   29.4680   49.0940 F   0  0  0  0  0  0  0  0  0  0  0  0
   33.3390   27.8570   48.4910 C   0  0  0  0  0  0  0  0  0  0  0  0
   33.8680   29.0110   47.7170 C   0  0  0  0  0  0  0  0  0  0  0  0
   35.1000   29.5130   48.3280 C   0  0  0  0  0  0  0  0  0  0  0  0
   35.7660   28.8810   49.3580 C   0  0  0  0  0  0  0  0  0  0  0  0
   36.8830   29.6070   49.6970 C   0  0  0  0  0  0  0  0  0  0  0  0
   36.8630   30.6840   48.8430 N   0  0  0  0  0  0  0  0  0  0  0  0
   35.8000   30.6270   48.0280 N   0  0  0  0  0  0  0  0  0  0  0  0
   38.9910   33.1140   47.4340 N   0  0  0  0  0  0  0  0  0  0  0  0
   38.1870   32.0550   47.4270 N   0  0  0  0  0  0  0  0  0  0  0  0
   37.7420   31.8000   48.6890 C   0  0  0  0  0  0  0  0  0  0  0  0
   38.2830   32.7300   49.5440 C   0  0  0  0  0  0  0  0  0  0  0  0
   39.0580   33.5320   48.7090 C   0  0  0  0  0  0  0  0  0  0  0  0
   30.4073   24.8266   46.7381 H   0  0  0  0  0  0  0  0  0  0  0  0
   32.1615   23.4976   45.5761 H   0  0  0  0  0  0  0  0  0  0  0  0
   34.5301   24.2587   45.8072 H   0  0  0  0  0  0  0  0  0  0  0  0
   35.0920   26.2453   47.1317 H   0  0  0  0  0  0  0  0  0  0  0  0
   29.1575   27.3189   51.1524 H   0  0  0  0  0  0  0  0  0  0  0  0
   28.5492   29.4652   47.4581 H   0  0  0  0  0  0  0  0  0  0  0  0
   32.4064   28.1720   48.9820 H   0  0  0  0  0  0  0  0  0  0  0  0
   34.1273   27.5722   49.2034 H   0  0  0  0  0  0  0  0  0  0  0  0
   33.1164   29.8140   47.7042 H   0  0  0  0  0  0  0  0  0  0  0  0
   34.0869   28.6821   46.6904 H   0  0  0  0  0  0  0  0  0  0  0  0
   35.4515   27.9408   49.8346 H   0  0  0  0  0  0  0  0  0  0  0  0
   37.6253   29.3779   50.4758 H   0  0  0  0  0  0  0  0  0  0  0  0
   39.4682   33.5314   46.6222 H   0  0  0  0  0  0  0  0  0  0  0  0
   38.1383   32.8199   50.6307 H   0  0  0  0  0  0  0  0  0  0  0  0
   39.6482   34.3955   49.0495 H   0  0  0  0  0  0  0  0  0  0  0  0
  1  6  1  0
  1 11  1  0
  2  1  2  0
  3  4  2  0
  3  2  1  0
  4  5  1  0
  5  6  2  0
  6 17  1  0
  8 13  1  0
  8  7  2  0
  9  8  1  0
 10  9  2  0
 10 11  1  0
 11 12  2  0
 12  7  1  0
 13 14  1  0
 13 15  1  0
 16 13  1  0
 18 19  1  0
 18 17  1  0
 19 20  1  0
 20 21  2  0
 22 21  1  0
 23 19  2  0
 23 22  1  0
 24 28  1  0
 25 24  1  0
 25 26  2  0
 26 22  1  0
 26 27  1  0
 28 27  2  0
  2 29  1  0
  3 30  1  0
  4 31  1  0
  5 32  1  0
  7 33  1  0
  9 34  1  0
 17 35  1  0
 17 36  1  0
 18 37  1  0
 18 38  1  0
 20 39  1  0
 21 40  1  0
 24 41  1  0
 27 42  1  0
 28 43  1  0
M  END
>  <minimizedAffinity>  (1) 
-7.34264088

>  <minimizedRMSD>  (1) 
0.891195834

$$$$
