
     RDKit          3D

 38 40  0  0  0  0  0  0  0  0999 V2000
   39.2150   32.3610   46.1410 C   0  0  0  0  0  0  0  0  0  0  0  0
   37.6910   32.5700   49.6140 C   0  0  0  0  0  0  0  0  0  0  0  0
   38.5340   32.8630   48.5360 C   0  0  0  0  0  0  0  0  0  0  0  0
   38.3950   32.1530   47.3490 C   0  0  0  0  0  0  0  0  0  0  0  0
   37.4110   31.1830   47.3040 N   0  0  0  0  0  0  0  0  0  0  0  0
   36.6200   30.9280   48.3550 C   0  0  0  0  0  0  0  0  0  0  0  0
   36.7400   31.6000   49.5040 N   0  0  0  0  0  0  0  0  0  0  0  0
   40.0690   31.1060   45.9710 C   0  0  0  0  0  0  0  0  0  0  0  0
   40.1170   33.5380   46.2090 C   0  0  0  0  0  0  0  0  0  0  0  0
   38.2990   32.4980   44.9660 C   0  0  0  0  0  0  0  0  0  0  0  0
   38.8120   31.8070   43.7410 C   0  0  0  0  0  0  0  0  0  0  0  0
   39.4660   32.5790   42.7270 C   0  0  0  0  0  0  0  0  0  0  0  0
   39.8760   31.2810   41.4980 S   0  0  0  0  0  0  0  0  0  0  0  0
   39.0930   29.9280   42.5720 C   0  0  0  0  0  0  0  0  0  0  0  0
   38.7370   30.5230   43.4610 N   0  0  0  0  0  0  0  0  0  0  0  0
   38.9850   28.4900   42.3030 N   0  0  0  0  0  0  0  0  0  0  0  0
   37.7260   28.0280   42.4120 C   0  0  0  0  0  0  0  0  0  0  0  0
   37.5770   26.6690   42.1660 C   0  0  0  0  0  0  0  0  0  0  0  0
   38.6690   25.8740   41.8340 C   0  0  0  0  0  0  0  0  0  0  0  0
   38.5740   24.6380   41.6030 O   0  0  0  0  0  0  0  0  0  0  0  0
   39.9010   26.4480   41.7520 N   0  0  0  0  0  0  0  0  0  0  0  0
   40.0450   27.7640   41.9900 C   0  0  0  0  0  0  0  0  0  0  0  0
   41.1350   28.3880   41.9410 O   0  0  0  0  0  0  0  0  0  0  0  0
   37.7967   33.1266   50.5569 H   0  0  0  0  0  0  0  0  0  0  0  0
   39.2994   33.6478   48.6271 H   0  0  0  0  0  0  0  0  0  0  0  0
   35.8519   30.1452   48.2699 H   0  0  0  0  0  0  0  0  0  0  0  0
   40.3389   30.7093   46.9608 H   0  0  0  0  0  0  0  0  0  0  0  0
   39.4990   30.3472   45.4149 H   0  0  0  0  0  0  0  0  0  0  0  0
   40.9841   31.3577   45.4149 H   0  0  0  0  0  0  0  0  0  0  0  0
   40.3109   33.7910   47.2618 H   0  0  0  0  0  0  0  0  0  0  0  0
   41.0671   33.3013   45.7078 H   0  0  0  0  0  0  0  0  0  0  0  0
   39.6414   34.3939   45.7078 H   0  0  0  0  0  0  0  0  0  0  0  0
   37.3229   32.0649   45.2300 H   0  0  0  0  0  0  0  0  0  0  0  0
   38.2225   33.5700   44.7315 H   0  0  0  0  0  0  0  0  0  0  0  0
   39.6680   33.6598   42.6943 H   0  0  0  0  0  0  0  0  0  0  0  0
   36.8785   28.6776   42.6760 H   0  0  0  0  0  0  0  0  0  0  0  0
   36.5781   26.2136   42.2350 H   0  0  0  0  0  0  0  0  0  0  0  0
   40.7216   25.8752   41.5081 H   0  0  0  0  0  0  0  0  0  0  0  0
  1  9  1  0
  1  4  1  0
  3  2  2  0
  4  3  1  0
  5  4  2  0
  5  6  1  0
  6  7  2  0
  7  2  1  0
  8  1  1  0
 10  1  1  0
 11 10  1  0
 12 11  2  0
 13 14  1  0
 13 12  1  0
 14 15  2  0
 15 11  1  0
 16 17  1  0
 16 14  1  0
 18 17  2  0
 19 18  1  0
 20 19  2  0
 21 19  1  0
 21 22  1  0
 22 16  1  0
 23 22  2  0
  2 24  1  0
  3 25  1  0
  6 26  1  0
  8 27  1  0
  8 28  1  0
  8 29  1  0
  9 30  1  0
  9 31  1  0
  9 32  1  0
 10 33  1  0
 10 34  1  0
 12 35  1  0
 17 36  1  0
 18 37  1  0
 21 38  1  0
M  ISO  8  24  14  25  14  26  14  27   8  28   8  29   8  30   8  31   8
M  ISO  7  32   8  33   8  34   8  35  14  36  14  37  14  38   9
M  END
>  <minimizedAffinity>  (1) 
-5.75404215

>  <minimizedRMSD>  (1) 
0.67086488

$$$$
