
     RDKit          3D

 36 39  0  0  0  0  0  0  0  0999 V2000
   35.5310   29.4090   49.2810 C   0  0  0  0  0  0  0  0  0  0  0  0
   35.6050   29.1510   50.6600 C   0  0  0  0  0  0  0  0  0  0  0  0
   36.5540   29.6690   51.5000 C   0  0  0  0  0  0  0  0  0  0  0  0
   37.5150   30.5000   50.9950 C   0  0  0  0  0  0  0  0  0  0  0  0
   37.5110   30.7980   49.6680 C   0  0  0  0  0  0  0  0  0  0  0  0
   38.4960   31.6380   49.2060 C   0  0  0  0  0  0  0  0  0  0  0  0
   38.5540   31.9790   47.8880 C   0  0  0  0  0  0  0  0  0  0  0  0
   37.5860   31.4520   47.0330 C   0  0  0  0  0  0  0  0  0  0  0  0
   36.6230   30.6170   47.5470 C   0  0  0  0  0  0  0  0  0  0  0  0
   36.5300   30.2500   48.8560 C   0  0  0  0  0  0  0  0  0  0  0  0
   33.6750   26.7600   47.7220 C   0  0  0  0  0  0  0  0  0  0  0  0
   32.7140   27.3460   46.9030 C   0  0  0  0  0  0  0  0  0  0  0  0
   32.7000   28.7360   46.8830 C   0  0  0  0  0  0  0  0  0  0  0  0
   33.5950   29.3940   47.6390 N   0  0  0  0  0  0  0  0  0  0  0  0
   34.5130   28.8450   48.4210 C   0  0  0  0  0  0  0  0  0  0  0  0
   34.5000   27.5260   48.4180 N   0  0  0  0  0  0  0  0  0  0  0  0
   31.8260   29.5780   46.1360 N   0  0  0  0  0  0  0  0  0  0  0  0
   32.4490   30.4590   45.3330 C   0  0  0  0  0  0  0  0  0  0  0  0
   31.6730   31.3220   44.5650 C   0  0  0  0  0  0  0  0  0  0  0  0
   30.2790   31.2450   44.6540 C   0  0  0  0  0  0  0  0  0  0  0  0
   29.5250   32.0080   43.9780 O   0  0  0  0  0  0  0  0  0  0  0  0
   29.7090   30.3450   45.4760 N   0  0  0  0  0  0  0  0  0  0  0  0
   30.4710   29.5060   46.2210 C   0  0  0  0  0  0  0  0  0  0  0  0
   30.0130   28.6280   47.0190 O   0  0  0  0  0  0  0  0  0  0  0  0
   34.8460   28.4850   51.0962 H   0  0  0  0  0  0  0  0  0  0  0  0
   36.5433   29.4189   52.5711 H   0  0  0  0  0  0  0  0  0  0  0  0
   38.2849   30.9240   51.6564 H   0  0  0  0  0  0  0  0  0  0  0  0
   39.2439   32.0384   49.9062 H   0  0  0  0  0  0  0  0  0  0  0  0
   39.3400   32.6493   47.5099 H   0  0  0  0  0  0  0  0  0  0  0  0
   37.5933   31.7014   45.9617 H   0  0  0  0  0  0  0  0  0  0  0  0
   35.8722   30.2155   46.8506 H   0  0  0  0  0  0  0  0  0  0  0  0
   33.7485   25.6646   47.7905 H   0  0  0  0  0  0  0  0  0  0  0  0
   32.0092   26.7463   46.3084 H   0  0  0  0  0  0  0  0  0  0  0  0
   33.5473   30.4965   45.2844 H   0  0  0  0  0  0  0  0  0  0  0  0
   32.1493   32.0548   43.8970 H   0  0  0  0  0  0  0  0  0  0  0  0
   28.6823   30.2926   45.5402 H   0  0  0  0  0  0  0  0  0  0  0  0
  1  2  2  0
  2  3  1  0
  4  3  2  0
  5  4  1  0
  6  5  2  0
  7  6  1  0
  8  9  1  0
  8  7  2  0
  9 10  2  0
 10  1  1  0
 10  5  1  0
 11 16  2  0
 12 11  1  0
 13 12  2  0
 13 14  1  0
 14 15  2  0
 15  1  1  0
 16 15  1  0
 17 23  1  0
 17 13  1  0
 18 17  1  0
 19 20  1  0
 19 18  2  0
 20 22  1  0
 21 20  2  0
 22 23  1  0
 23 24  2  0
  2 25  1  0
  3 26  1  0
  4 27  1  0
  6 28  1  0
  7 29  1  0
  8 30  1  0
  9 31  1  0
 11 32  1  0
 12 33  1  0
 18 34  1  0
 19 35  1  0
 22 36  1  0
M  END
>  <minimizedAffinity>  (1) 
-7.03247833

>  <minimizedRMSD>  (1) 
0.796860635

$$$$
