
     RDKit          3D

 30 31  0  0  0  0  0  0  0  0999 V2000
   36.9290   29.9310   49.8950 C   0  0  0  0  0  0  0  0  0  0  0  0
   38.0090   30.6770   49.4470 C   0  0  0  0  0  0  0  0  0  0  0  0
   38.0150   31.1270   48.1290 C   0  0  0  0  0  0  0  0  0  0  0  0
   36.9460   30.8020   47.3490 N   0  0  0  0  0  0  0  0  0  0  0  0
   35.9130   30.0760   47.8180 C   0  0  0  0  0  0  0  0  0  0  0  0
   35.9050   29.6430   49.0810 N   0  0  0  0  0  0  0  0  0  0  0  0
   39.0850   31.8860   47.6270 N   0  0  0  0  0  0  0  0  0  0  0  0
   38.9740   32.5900   46.4090 C   0  0  0  0  0  0  0  0  0  0  0  0
   37.8940   32.4640   45.7010 N   0  0  0  0  0  0  0  0  0  0  0  0
   40.0440   33.4260   45.9730 N   0  0  0  0  0  0  0  0  0  0  0  0
   37.8970   32.8480   44.7270 H   0  0  0  0  0  0  0  0  0  0  0  0
   34.8850   29.8310   46.8670 N   0  0  0  0  0  0  0  0  0  0  0  0
   33.6660   29.4170   47.2650 C   0  0  0  0  0  0  0  0  0  0  0  0
   32.7130   29.1970   46.3010 C   0  0  0  0  0  0  0  0  0  0  0  0
   33.0180   29.4010   44.9740 C   0  0  0  0  0  0  0  0  0  0  0  0
   32.0910   29.1800   44.1380 O   0  0  0  0  0  0  0  0  0  0  0  0
   34.2390   29.8160   44.5900 N   0  0  0  0  0  0  0  0  0  0  0  0
   35.1660   30.0280   45.5470 C   0  0  0  0  0  0  0  0  0  0  0  0
   36.3210   30.4190   45.2010 O   0  0  0  0  0  0  0  0  0  0  0  0
   36.9110   29.4420   51.3110 C   0  0  0  0  0  0  0  0  0  0  0  0
   35.6160   29.1670   51.7100 F   0  0  0  0  0  0  0  0  0  0  0  0
   37.7840   28.4060   51.4310 F   0  0  0  0  0  0  0  0  0  0  0  0
   37.3480   30.5210   52.1060 F   0  0  0  0  0  0  0  0  0  0  0  0
   38.8466   30.9093   50.1212 H   0  0  0  0  0  0  0  0  0  0  0  0
   39.9668   31.9295   48.1576 H   0  0  0  0  0  0  0  0  0  0  0  0
   39.9659   33.9411   45.0845 H   0  0  0  0  0  0  0  0  0  0  0  0
   40.8949   33.5147   46.5466 H   0  0  0  0  0  0  0  0  0  0  0  0
   33.4410   29.2600   48.3302 H   0  0  0  0  0  0  0  0  0  0  0  0
   31.7069   28.8581   46.5888 H   0  0  0  0  0  0  0  0  0  0  0  0
   34.4593   29.9673   43.5953 H   0  0  0  0  0  0  0  0  0  0  0  0
  1 20  1  0
  2  1  2  0
  3  2  1  0
  4  5  1  0
  4  3  2  0
  5  6  2  0
  6  1  1  0
  7  3  1  0
  8  7  1  0
  9  8  2  0
 10  8  1  0
 11  9  1  0
 12 13  1  0
 12  5  1  0
 14 13  2  0
 15 14  1  0
 16 15  2  0
 17 15  1  0
 17 18  1  0
 18 12  1  0
 19 18  2  0
 20 22  1  0
 20 21  1  0
 20 23  1  0
  2 24  1  0
  7 25  1  0
 10 26  1  0
 10 27  1  0
 13 28  1  0
 14 29  1  0
 17 30  1  0
M  END
>  <minimizedAffinity>  (1) 
-7.1176219

>  <minimizedRMSD>  (1) 
0.194312707

$$$$
