
     RDKit          3D

 34 36  0  0  1  0  0  0  0  0999 V2000
   39.3910   31.4850   46.6580 C   0  0  2  0  0  0  0  0  0  0  0  0
   39.6730   32.7160   45.9600 C   0  0  0  0  0  0  0  0  0  0  0  0
   40.6460   32.5710   44.8380 C   0  0  0  0  0  0  0  0  0  0  0  0
   40.3620   31.4280   43.9560 C   0  0  0  0  0  0  0  0  0  0  0  0
   39.9040   30.1980   44.6250 C   0  0  0  0  0  0  0  0  0  0  0  0
   38.8340   30.4620   45.7140 C   0  0  2  0  0  0  0  0  0  0  0  0
   38.3200   32.8520   48.5340 C   0  0  0  0  0  0  0  0  0  0  0  0
   38.5180   31.6290   47.8170 C   0  0  0  0  0  0  0  0  0  0  0  0
   37.8420   30.5180   48.2180 C   0  0  0  0  0  0  0  0  0  0  0  0
   36.9980   30.6260   49.2960 N   0  0  0  0  0  0  0  0  0  0  0  0
   36.8280   31.8160   49.9660 C   0  0  0  0  0  0  0  0  0  0  0  0
   37.5040   32.9350   49.5700 N   0  0  0  0  0  0  0  0  0  0  0  0
   37.6490   30.9600   44.9960 C   0  0  0  0  0  0  0  0  0  0  0  0
   36.5680   30.3310   44.7450 O   0  0  0  0  0  0  0  0  0  0  0  0
   37.7700   32.2480   44.5690 O   0  0  0  0  0  0  0  0  0  0  0  0
   37.0720   32.6610   43.4120 C   0  0  0  0  0  0  0  0  0  0  0  0
   37.8600   32.9750   42.3550 N   0  0  0  0  0  0  0  0  0  0  0  0
   37.1090   33.3420   41.3430 O   0  0  0  0  0  0  0  0  0  0  0  0
   35.8450   33.2670   41.7370 C   0  0  0  0  0  0  0  0  0  0  0  0
   35.8110   32.8440   43.0210 N   0  0  0  0  0  0  0  0  0  0  0  0
   40.3595   31.1481   47.0561 H   0  0  0  0  0  0  0  0  0  0  0  0
   38.7291   33.1050   45.5506 H   0  0  0  0  0  0  0  0  0  0  0  0
   40.1316   33.3976   46.6915 H   0  0  0  0  0  0  0  0  0  0  0  0
   40.6207   33.4905   44.2347 H   0  0  0  0  0  0  0  0  0  0  0  0
   41.6337   32.3932   45.2885 H   0  0  0  0  0  0  0  0  0  0  0  0
   41.2842   31.1893   43.4060 H   0  0  0  0  0  0  0  0  0  0  0  0
   39.5272   31.7468   43.3146 H   0  0  0  0  0  0  0  0  0  0  0  0
   39.4743   29.5264   43.8672 H   0  0  0  0  0  0  0  0  0  0  0  0
   40.7766   29.7509   45.1236 H   0  0  0  0  0  0  0  0  0  0  0  0
   38.5646   29.5718   46.3013 H   0  0  0  0  0  0  0  0  0  0  0  0
   38.8647   33.7518   48.2121 H   0  0  0  0  0  0  0  0  0  0  0  0
   37.9682   29.5596   47.6930 H   0  0  0  0  0  0  0  0  0  0  0  0
   36.1436   31.8664   50.8257 H   0  0  0  0  0  0  0  0  0  0  0  0
   34.9672   33.5094   41.1199 H   0  0  0  0  0  0  0  0  0  0  0  0
  1  8  1  0
  2  1  1  0
  3  2  1  0
  4  5  1  0
  4  3  1  0
  5  6  1  0
  6  1  1  0
  7 12  2  0
  8  9  2  0
  8  7  1  0
  9 10  1  0
 10 11  2  0
 12 11  1  0
 13  6  1  0
 14 13  2  0
 15 13  1  0
 16 15  1  0
 17 16  2  0
 18 19  1  0
 18 17  1  0
 19 20  2  0
 20 16  1  0
  1 21  1  1
  2 22  1  0
  2 23  1  0
  3 24  1  0
  3 25  1  0
  4 26  1  0
  4 27  1  0
  5 28  1  0
  5 29  1  0
  6 30  1  1
  7 31  1  0
  9 32  1  0
 11 33  1  0
 19 34  1  0
M  ISO  8  21  13  22  13  23  13  24  13  25  13  26  13  27  13  28  13
M  ISO  6  29  13  30  13  31  14  32  14  33  14  34  14
M  END
>  <minimizedAffinity>  (1) 
-5.28151655

>  <minimizedRMSD>  (1) 
1.24545372

$$$$
