
     RDKit          3D

 33 36  0  0  0  0  0  0  0  0999 V2000
   37.6800   32.4740   49.5860 C   0  0  0  0  0  0  0  0  0  0  0  0
   38.5630   32.7350   48.5240 C   0  0  0  0  0  0  0  0  0  0  0  0
   38.3640   32.0280   47.3420 C   0  0  0  0  0  0  0  0  0  0  0  0
   37.3440   31.1180   47.2400 N   0  0  0  0  0  0  0  0  0  0  0  0
   36.5250   30.9140   48.3070 C   0  0  0  0  0  0  0  0  0  0  0  0
   36.6900   31.5870   49.4740 N   0  0  0  0  0  0  0  0  0  0  0  0
   35.4410   29.9750   48.2600 N   0  0  0  0  0  0  0  0  0  0  0  0
   34.4210   30.1560   47.4080 C   0  0  0  0  0  0  0  0  0  0  0  0
   33.4030   29.2220   47.4050 C   0  0  0  0  0  0  0  0  0  0  0  0
   33.5430   28.1800   48.2950 C   0  0  0  0  0  0  0  0  0  0  0  0
   32.5590   27.1580   48.3820 N   0  0  0  0  0  0  0  0  0  0  0  0
   34.5800   28.0280   49.1370 N   0  0  0  0  0  0  0  0  0  0  0  0
   35.5620   28.9510   49.1230 C   0  0  0  0  0  0  0  0  0  0  0  0
   36.5390   28.8230   49.9060 O   0  0  0  0  0  0  0  0  0  0  0  0
   39.2250   32.2200   46.1680 C   0  0  0  0  0  0  0  0  0  0  0  0
   40.1600   33.1620   45.8650 N   0  0  0  0  0  0  0  0  0  0  0  0
   40.6680   32.9110   44.6900 O   0  0  0  0  0  0  0  0  0  0  0  0
   40.0960   31.8390   44.2220 C   0  0  0  0  0  0  0  0  0  0  0  0
   39.1750   31.3640   45.1220 N   0  0  0  0  0  0  0  0  0  0  0  0
   40.3330   31.1830   42.9640 N   0  0  0  0  0  0  0  0  0  0  0  0
   40.0240   31.7750   41.8020 N   0  0  0  0  0  0  0  0  0  0  0  0
   40.3510   30.9380   40.7890 C   0  0  0  0  0  0  0  0  0  0  0  0
   40.8780   29.7960   41.3930 C   0  0  0  0  0  0  0  0  0  0  0  0
   40.8590   29.9700   42.7640 C   0  0  0  0  0  0  0  0  0  0  0  0
   37.8088   33.0156   50.5347 H   0  0  0  0  0  0  0  0  0  0  0  0
   39.3775   33.4677   48.6231 H   0  0  0  0  0  0  0  0  0  0  0  0
   34.3958   31.0229   46.7313 H   0  0  0  0  0  0  0  0  0  0  0  0
   32.5353   29.3052   46.7341 H   0  0  0  0  0  0  0  0  0  0  0  0
   32.6772   26.3850   49.0523 H   0  0  0  0  0  0  0  0  0  0  0  0
   31.7277   27.1904   47.7747 H   0  0  0  0  0  0  0  0  0  0  0  0
   40.2267   31.1208   39.7114 H   0  0  0  0  0  0  0  0  0  0  0  0
   41.2476   28.9044   40.8652 H   0  0  0  0  0  0  0  0  0  0  0  0
   41.2041   29.2598   43.5298 H   0  0  0  0  0  0  0  0  0  0  0  0
  2  1  2  0
  3  2  1  0
  4  3  2  0
  4  5  1  0
  5  6  2  0
  6  1  1  0
  7  5  1  0
  7 13  1  0
  8  7  1  0
  9  8  2  0
  9 10  1  0
 10 11  1  0
 10 12  2  0
 13 12  1  0
 13 14  2  0
 15  3  1  0
 16 15  2  0
 17 16  1  0
 18 17  1  0
 18 19  2  0
 19 15  1  0
 20 18  1  0
 21 20  1  0
 22 23  1  0
 22 21  2  0
 23 24  2  0
 24 20  1  0
  1 25  1  0
  2 26  1  0
  8 27  1  0
  9 28  1  0
 11 29  1  0
 11 30  1  0
 22 31  1  0
 23 32  1  0
 24 33  1  0
M  END
>  <minimizedAffinity>  (1) 
-7.37965155

>  <minimizedRMSD>  (1) 
2.36240077

$$$$
