
     RDKit          3D

 38 40  0  0  1  0  0  0  0  0999 V2000
   37.1230   30.6050   46.1180 C   0  0  0  0  0  0  0  0  0  0  0  0
   38.0160   30.4370   46.9770 O   0  0  0  0  0  0  0  0  0  0  0  0
   37.5240   31.3480   44.9660 N   0  0  0  0  0  0  0  0  0  0  0  0
   37.1020   30.7990   43.6780 C   0  0  0  0  0  0  0  0  0  0  0  0
   37.9060   31.3910   42.5500 C   0  0  0  0  0  0  0  0  0  0  0  0
   39.1770   31.6240   43.0230 O   0  0  0  0  0  0  0  0  0  0  0  0
   39.1010   32.8040   43.8070 C   0  0  0  0  0  0  0  0  0  0  0  0
   38.3080   32.5810   45.0530 C   0  0  2  0  0  0  0  0  0  0  0  0
   34.0610   29.2160   47.8150 C   0  0  0  0  0  0  0  0  0  0  0  0
   35.3820   29.7610   47.6450 C   0  0  0  0  0  0  0  0  0  0  0  0
   35.7990   30.0530   46.3470 C   0  0  0  0  0  0  0  0  0  0  0  0
   34.9150   29.7970   45.3350 N   0  0  0  0  0  0  0  0  0  0  0  0
   33.7050   29.2920   45.5490 C   0  0  0  0  0  0  0  0  0  0  0  0
   33.2870   29.0080   46.7640 N   0  0  0  0  0  0  0  0  0  0  0  0
   32.8900   29.0850   44.3170 C   0  0  0  0  0  0  0  0  0  0  0  0
   32.7120   30.2800   43.6400 F   0  0  0  0  0  0  0  0  0  0  0  0
   33.5760   28.2650   43.4320 F   0  0  0  0  0  0  0  0  0  0  0  0
   31.6800   28.4590   44.5730 F   0  0  0  0  0  0  0  0  0  0  0  0
   33.6540   28.9280   49.1150 O   0  0  0  0  0  0  0  0  0  0  0  0
   34.0530   29.6430   50.2410 C   0  0  0  0  0  0  0  0  0  0  0  0
   35.0680   29.0120   50.9570 F   0  0  0  0  0  0  0  0  0  0  0  0
   34.3840   30.9470   50.0010 F   0  0  0  0  0  0  0  0  0  0  0  0
   32.9190   29.6740   51.0750 F   0  0  0  0  0  0  0  0  0  0  0  0
   39.2530   32.3170   46.0590 O   0  0  0  0  0  0  0  0  0  0  0  0
   39.5330   33.1750   47.1100 C   0  0  0  0  0  0  0  0  0  0  0  0
   40.3220   34.2310   47.3890 N   0  0  0  0  0  0  0  0  0  0  0  0
   40.1160   34.6130   48.6160 O   0  0  0  0  0  0  0  0  0  0  0  0
   39.2220   33.8560   49.1690 C   0  0  0  0  0  0  0  0  0  0  0  0
   38.8420   32.9510   48.2500 N   0  0  0  0  0  0  0  0  0  0  0  0
   37.2445   29.7083   43.6877 H   0  0  0  0  0  0  0  0  0  0  0  0
   36.0420   31.0475   43.5212 H   0  0  0  0  0  0  0  0  0  0  0  0
   37.4496   32.3357   42.2195 H   0  0  0  0  0  0  0  0  0  0  0  0
   37.9330   30.7031   41.6921 H   0  0  0  0  0  0  0  0  0  0  0  0
   40.1190   33.1170   44.0820 H   0  0  0  0  0  0  0  0  0  0  0  0
   38.6001   33.5825   43.2128 H   0  0  0  0  0  0  0  0  0  0  0  0
   37.6519   33.4465   45.2276 H   0  0  0  0  0  0  0  0  0  0  0  0
   36.0394   29.9408   48.5084 H   0  0  0  0  0  0  0  0  0  0  0  0
   38.8441   33.9382   50.1988 H   0  0  0  0  0  0  0  0  0  0  0  0
  1 11  1  0
  1  2  2  0
  3  8  1  0
  3  1  1  0
  4  3  1  0
  5  6  1  0
  5  4  1  0
  6  7  1  0
  7  8  1  0
  8 24  1  0
  9 19  1  0
 10  9  2  0
 11 10  1  0
 12 13  1  0
 12 11  2  0
 13 14  2  0
 14  9  1  0
 15 18  1  0
 15 13  1  0
 16 15  1  0
 17 15  1  0
 19 20  1  0
 20 21  1  0
 20 23  1  0
 22 20  1  0
 24 25  1  0
 25 26  2  0
 25 29  1  0
 26 27  1  0
 27 28  1  0
 29 28  2  0
  4 30  1  0
  4 31  1  0
  5 32  1  0
  5 33  1  0
  7 34  1  0
  7 35  1  0
  8 36  1  1
 10 37  1  0
 28 38  1  0
M  ISO  8  30  13  31  13  32  13  33  13  34  13  35  13  36  13  37  14
M  ISO  1  38  14
M  END
>  <minimizedAffinity>  (1) 
-5.29839468

>  <minimizedRMSD>  (1) 
1.68145216

$$$$
