
     RDKit          3D

 36 38  0  0  0  0  0  0  0  0999 V2000
   32.8060   27.8850   48.6880 C   0  0  0  0  0  0  0  0  0  0  0  0
   31.7170   28.3260   49.3710 C   0  0  0  0  0  0  0  0  0  0  0  0
   30.4820   27.7010   49.3400 C   0  0  0  0  0  0  0  0  0  0  0  0
   30.4020   26.5650   48.5520 C   0  0  0  0  0  0  0  0  0  0  0  0
   31.4890   26.0970   47.8500 C   0  0  0  0  0  0  0  0  0  0  0  0
   32.7010   26.7540   47.9110 C   0  0  0  0  0  0  0  0  0  0  0  0
   36.1750   28.9670   49.6820 C   0  0  0  0  0  0  0  0  0  0  0  0
   36.4510   29.9930   48.7680 C   0  0  0  0  0  0  0  0  0  0  0  0
   35.4670   30.2880   47.8290 C   0  0  0  0  0  0  0  0  0  0  0  0
   34.2880   29.5750   47.8370 N   0  0  0  0  0  0  0  0  0  0  0  0
   34.0850   28.5850   48.7580 C   0  0  0  0  0  0  0  0  0  0  0  0
   35.0210   28.3020   49.6540 N   0  0  0  0  0  0  0  0  0  0  0  0
   37.7230   30.7570   48.7660 C   0  0  0  0  0  0  0  0  0  0  0  0
   38.5120   30.4980   47.6800 F   0  0  0  0  0  0  0  0  0  0  0  0
   38.4710   30.5010   49.8870 F   0  0  0  0  0  0  0  0  0  0  0  0
   37.4370   32.1350   48.7310 F   0  0  0  0  0  0  0  0  0  0  0  0
   33.8770   26.2970   47.1880 C   0  0  0  0  0  0  0  0  0  0  0  0
   33.9410   24.8190   46.9080 C   0  0  0  0  0  0  0  0  0  0  0  0
   34.8960   24.5090   45.8630 C   0  0  0  0  0  0  0  0  0  0  0  0
   36.0130   23.6270   45.7430 C   0  0  0  0  0  0  0  0  0  0  0  0
   36.7040   23.5980   44.5680 C   0  0  0  0  0  0  0  0  0  0  0  0
   36.3310   24.4190   43.4870 C   0  0  0  0  0  0  0  0  0  0  0  0
   34.8280   25.3580   44.1710 S   0  0  0  0  0  0  0  0  0  0  0  0
   31.8230   29.2328   49.9845 H   0  0  0  0  0  0  0  0  0  0  0  0
   29.6190   28.0826   49.9054 H   0  0  0  0  0  0  0  0  0  0  0  0
   29.4466   26.0238   48.4857 H   0  0  0  0  0  0  0  0  0  0  0  0
   31.3909   25.1907   47.2344 H   0  0  0  0  0  0  0  0  0  0  0  0
   36.9282   28.7049   50.4396 H   0  0  0  0  0  0  0  0  0  0  0  0
   35.6291   31.0835   47.0868 H   0  0  0  0  0  0  0  0  0  0  0  0
   33.9063   26.8248   46.2233 H   0  0  0  0  0  0  0  0  0  0  0  0
   34.7335   26.5142   47.8432 H   0  0  0  0  0  0  0  0  0  0  0  0
   34.2381   24.2950   47.8284 H   0  0  0  0  0  0  0  0  0  0  0  0
   32.9466   24.4922   46.5697 H   0  0  0  0  0  0  0  0  0  0  0  0
   36.3104   22.9827   46.5835 H   0  0  0  0  0  0  0  0  0  0  0  0
   37.5660   22.9228   44.4631 H   0  0  0  0  0  0  0  0  0  0  0  0
   36.7949   24.4974   42.4927 H   0  0  0  0  0  0  0  0  0  0  0  0
  1 11  1  0
  1  2  2  0
  3  2  1  0
  4  3  2  0
  5  6  2  0
  5  4  1  0
  6  1  1  0
  8  7  2  0
  9 10  2  0
  9  8  1  0
 10 11  1  0
 11 12  2  0
 12  7  1  0
 13  8  1  0
 13 15  1  0
 14 13  1  0
 16 13  1  0
 17  6  1  0
 18 17  1  0
 19 18  1  0
 20 19  2  0
 21 20  1  0
 22 23  1  0
 22 21  2  0
 23 19  1  0
  2 24  1  0
  3 25  1  0
  4 26  1  0
  5 27  1  0
  7 28  1  0
  9 29  1  0
 17 30  1  0
 17 31  1  0
 18 32  1  0
 18 33  1  0
 20 34  1  0
 21 35  1  0
 22 36  1  0
M  ISO  8  24  14  25  14  26  14  27  14  28  14  29  14  30   8  31   8
M  ISO  5  32   8  33   8  34  14  35  14  36  14
M  END
>  <minimizedAffinity>  (1) 
-5.20290565

>  <minimizedRMSD>  (1) 
0.557438433

$$$$
