
     RDKit          3D

 37 40  0  0  1  0  0  0  0  0999 V2000
   35.2530   29.1870   48.5960 C   0  0  2  0  0  0  0  0  0  0  0  0
   34.0330   29.3250   49.3870 C   0  0  0  0  0  0  0  0  0  0  0  0
   34.3860   27.9720   49.0620 C   0  0  1  0  0  0  0  0  0  0  0  0
   36.5780   29.2280   49.3760 C   0  0  0  0  0  0  0  0  0  0  0  0
   37.6140   32.7270   49.5720 C   0  0  0  0  0  0  0  0  0  0  0  0
   38.4820   32.8550   48.4830 C   0  0  0  0  0  0  0  0  0  0  0  0
   38.7030   31.7100   47.6840 C   0  0  0  0  0  0  0  0  0  0  0  0
   38.0550   30.5460   48.0190 N   0  0  0  0  0  0  0  0  0  0  0  0
   37.2370   30.4860   49.0710 C   0  0  0  0  0  0  0  0  0  0  0  0
   37.0220   31.5850   49.8440 N   0  0  0  0  0  0  0  0  0  0  0  0
   33.5390   27.3170   47.9900 C   0  0  0  0  0  0  0  0  0  0  0  0
   33.8750   26.0870   47.7650 O   0  0  0  0  0  0  0  0  0  0  0  0
   32.4910   27.9060   47.2840 O   0  0  0  0  0  0  0  0  0  0  0  0
   31.2380   28.0780   47.8070 C   0  0  0  0  0  0  0  0  0  0  0  0
   30.7970   27.5990   49.1450 C   0  0  0  0  0  0  0  0  0  0  0  0
   29.5200   27.8550   49.5060 C   0  0  0  0  0  0  0  0  0  0  0  0
   28.6290   28.5490   48.6610 C   0  0  0  0  0  0  0  0  0  0  0  0
   29.6580   28.9060   47.1630 S   0  0  0  0  0  0  0  0  0  0  0  0
   27.3600   28.9160   48.7820 N   0  0  0  0  0  0  0  0  0  0  0  0
   26.2980   28.0880   48.8410 C   0  0  0  0  0  0  0  0  0  0  0  0
   25.1270   28.8440   48.9660 C   0  0  0  0  0  0  0  0  0  0  0  0
   25.5360   30.1460   48.9810 N   0  0  0  0  0  0  0  0  0  0  0  0
   26.8920   30.1760   48.8690 C   0  0  0  0  0  0  0  0  0  0  0  0
   35.6189   29.6412   47.6634 H   0  0  0  0  0  0  0  0  0  0  0  0
   34.1084   29.6609   50.4317 H   0  0  0  0  0  0  0  0  0  0  0  0
   33.1131   29.9103   49.2416 H   0  0  0  0  0  0  0  0  0  0  0  0
   34.5666   27.0437   49.6239 H   0  0  0  0  0  0  0  0  0  0  0  0
   36.3782   29.1629   50.4557 H   0  0  0  0  0  0  0  0  0  0  0  0
   37.2180   28.3807   49.0888 H   0  0  0  0  0  0  0  0  0  0  0  0
   37.4227   33.5995   50.2140 H   0  0  0  0  0  0  0  0  0  0  0  0
   38.9749   33.8119   48.2564 H   0  0  0  0  0  0  0  0  0  0  0  0
   39.3771   31.7501   46.8156 H   0  0  0  0  0  0  0  0  0  0  0  0
   31.4829   27.0582   49.8136 H   0  0  0  0  0  0  0  0  0  0  0  0
   29.1647   27.5117   50.4888 H   0  0  0  0  0  0  0  0  0  0  0  0
   26.3445   26.9898   48.7977 H   0  0  0  0  0  0  0  0  0  0  0  0
   24.0955   28.4685   49.0371 H   0  0  0  0  0  0  0  0  0  0  0  0
   27.5090   31.0865   48.8522 H   0  0  0  0  0  0  0  0  0  0  0  0
  1  3  1  0
  1  4  1  0
  1  2  1  0
  3  2  1  0
  5 10  2  0
  6  5  1  0
  7  8  1  0
  7  6  2  0
  8  9  2  0
  9  4  1  0
  9 10  1  0
 11  3  1  0
 12 11  2  0
 13 14  1  0
 13 11  1  0
 14 15  2  0
 15 16  1  0
 17 19  1  0
 17 16  2  0
 18 14  1  0
 18 17  1  0
 19 20  1  0
 19 23  1  0
 20 21  2  0
 21 22  1  0
 23 22  2  0
  1 24  1  6
  2 25  1  0
  2 26  1  0
  3 27  1  1
  4 28  1  0
  4 29  1  0
  5 30  1  0
  6 31  1  0
  7 32  1  0
 15 33  1  0
 16 34  1  0
 20 35  1  0
 21 36  1  0
 23 37  1  0
M  ISO  8  24  13  25  13  26  13  27  13  28   8  29   8  30  14  31  14
M  ISO  6  32  14  33  14  34  14  35  14  36  14  37  14
M  END
>  <minimizedAffinity>  (1) 
-6.1812048

>  <minimizedRMSD>  (1) 
1.59635913

$$$$
