
     RDKit          3D

 49 53  0  0  1  0  0  0  0  0999 V2000
   35.5530   30.3570   47.2520 C   0  0  0  0  0  0  0  0  0  0  0  0
   36.6070   30.5960   48.1190 C   0  0  0  0  0  0  0  0  0  0  0  0
   36.6860   29.6910   49.2240 C   0  0  0  0  0  0  0  0  0  0  0  0
   35.7640   28.6970   49.3520 N   0  0  0  0  0  0  0  0  0  0  0  0
   34.7730   28.5280   48.4750 C   0  0  0  0  0  0  0  0  0  0  0  0
   34.6730   29.3600   47.4300 N   0  0  0  0  0  0  0  0  0  0  0  0
   37.6280   31.6100   48.0800 C   0  0  0  0  0  0  0  0  0  0  0  0
   37.5880   32.4290   49.1780 C   0  0  0  0  0  0  0  0  0  0  0  0
   38.4910   33.4820   49.3430 C   0  0  0  0  0  0  0  0  0  0  0  0
   39.4450   33.7070   48.3830 C   0  0  0  0  0  0  0  0  0  0  0  0
   39.4780   32.8740   47.2760 C   0  0  0  0  0  0  0  0  0  0  0  0
   40.4160   33.0160   46.2320 C   0  0  0  0  0  0  0  0  0  0  0  0
   40.4010   32.1630   45.1620 C   0  0  0  0  0  0  0  0  0  0  0  0
   39.4890   31.1440   45.0540 C   0  0  0  0  0  0  0  0  0  0  0  0
   38.5620   30.9990   46.0800 C   0  0  0  0  0  0  0  0  0  0  0  0
   38.5890   31.8560   47.1390 C   0  0  0  0  0  0  0  0  0  0  0  0
   33.8130   27.4220   48.6750 C   0  0  1  0  0  0  0  0  0  0  0  0
   32.3450   27.7440   48.7140 C   0  0  0  0  0  0  0  0  0  0  0  0
   32.9240   26.9870   47.5610 C   0  0  2  0  0  0  0  0  0  0  0  0
   32.5990   25.2360   47.3430 S   0  0  0  0  0  0  0  0  0  0  0  0
   36.1030   22.4970   46.9800 N   0  0  0  0  0  0  0  0  0  0  0  0
   34.9270   21.9310   47.5830 C   0  0  0  0  0  0  0  0  0  0  0  0
   33.6840   22.7490   47.3000 C   0  0  0  0  0  0  0  0  0  0  0  0
   34.0610   24.2380   47.2250 C   0  0  0  0  0  0  0  0  0  0  0  0
   34.8530   24.3910   45.9760 C   0  0  0  0  0  0  0  0  0  0  0  0
   35.8670   23.2810   45.8270 C   0  0  0  0  0  0  0  0  0  0  0  0
   35.4323   31.0143   46.3783 H   0  0  0  0  0  0  0  0  0  0  0  0
   37.4891   29.7977   49.9681 H   0  0  0  0  0  0  0  0  0  0  0  0
   36.8245   32.2525   49.9500 H   0  0  0  0  0  0  0  0  0  0  0  0
   38.4377   34.1247   50.2341 H   0  0  0  0  0  0  0  0  0  0  0  0
   40.1672   34.5298   48.4896 H   0  0  0  0  0  0  0  0  0  0  0  0
   41.1660   33.8193   46.2784 H   0  0  0  0  0  0  0  0  0  0  0  0
   41.1443   32.2989   44.3626 H   0  0  0  0  0  0  0  0  0  0  0  0
   39.4910   30.4665   44.1874 H   0  0  0  0  0  0  0  0  0  0  0  0
   37.8107   30.1967   46.0371 H   0  0  0  0  0  0  0  0  0  0  0  0
   34.5248   26.9052   49.3355 H   0  0  0  0  0  0  0  0  0  0  0  0
   31.6878   27.2341   49.4338 H   0  0  0  0  0  0  0  0  0  0  0  0
   31.7504   28.6628   48.8245 H   0  0  0  0  0  0  0  0  0  0  0  0
   32.9018   27.1260   46.4700 H   0  0  0  0  0  0  0  0  0  0  0  0
   36.5664   23.0922   47.6814 H   0  0  0  0  0  0  0  0  0  0  0  0
   34.7800   20.9157   47.1861 H   0  0  0  0  0  0  0  0  0  0  0  0
   35.0805   21.9189   48.6722 H   0  0  0  0  0  0  0  0  0  0  0  0
   33.2460   22.4322   46.3420 H   0  0  0  0  0  0  0  0  0  0  0  0
   32.9505   22.5949   48.1052 H   0  0  0  0  0  0  0  0  0  0  0  0
   34.6815   24.5882   48.0631 H   0  0  0  0  0  0  0  0  0  0  0  0
   34.1698   24.3698   45.1141 H   0  0  0  0  0  0  0  0  0  0  0  0
   35.3923   25.3486   46.0231 H   0  0  0  0  0  0  0  0  0  0  0  0
   35.5159   22.6094   45.0297 H   0  0  0  0  0  0  0  0  0  0  0  0
   36.8224   23.7801   45.6076 H   0  0  0  0  0  0  0  0  0  0  0  0
  1  6  2  0
  1  2  1  0
  2  3  2  0
  3  4  1  0
  5 17  1  0
  5  4  2  0
  6  5  1  0
  7  2  1  0
  7  8  2  0
  8  9  1  0
 10  9  2  0
 11 10  1  0
 12 11  2  0
 13 12  1  0
 14 13  2  0
 14 15  1  0
 15 16  2  0
 16 11  1  0
 16  7  1  0
 17 18  1  0
 19 17  1  0
 19 18  1  0
 20 19  1  0
 21 22  1  0
 23 22  1  0
 24 23  1  0
 24 20  1  0
 25 24  1  0
 26 25  1  0
 26 21  1  0
  1 27  1  0
  3 28  1  0
  8 29  1  0
  9 30  1  0
 10 31  1  0
 12 32  1  0
 13 33  1  0
 14 34  1  0
 15 35  1  0
 17 36  1  1
 18 37  1  0
 18 38  1  0
 19 39  1  6
 21 40  1  0
 22 41  1  0
 22 42  1  0
 23 43  1  0
 23 44  1  0
 24 45  1  0
 25 46  1  0
 25 47  1  0
 26 48  1  0
 26 49  1  0
M  ISO  8  27  14  28  14  29  14  30  14  31  14  32  14  33  14  34  14
M  ISO  8  35  14  36  13  37  13  38  13  39  13  40   5  41  13  42  13
M  ISO  7  43  13  44  13  45  13  46  13  47  13  48  13  49  13
M  END
>  <minimizedAffinity>  (1) 
-6.61962795

>  <minimizedRMSD>  (1) 
0.304204404

$$$$
