
     RDKit          3D

 41 43  0  0  0  0  0  0  0  0999 V2000
   38.1940   31.9110   45.8300 N   0  0  0  0  0  0  0  0  0  0  0  0
   39.3230   32.6040   45.7750 C   0  0  0  0  0  0  0  0  0  0  0  0
   39.8230   33.2130   44.6560 C   0  0  0  0  0  0  0  0  0  0  0  0
   39.1470   33.1290   43.4790 C   0  0  0  0  0  0  0  0  0  0  0  0
   39.5160   33.6450   42.4070 O   0  0  0  0  0  0  0  0  0  0  0  0
   38.0150   32.4440   43.4970 N   0  0  0  0  0  0  0  0  0  0  0  0
   37.5680   31.8650   44.6240 C   0  0  0  0  0  0  0  0  0  0  0  0
   36.4730   31.2360   44.5190 O   0  0  0  0  0  0  0  0  0  0  0  0
   35.0790   31.4750   40.6200 N   0  0  0  0  0  0  0  0  0  0  0  0
   34.7980   32.1950   41.8210 C   0  0  0  0  0  0  0  0  0  0  0  0
   35.9540   33.0630   42.2750 C   0  0  0  0  0  0  0  0  0  0  0  0
   37.2470   32.3210   42.2570 C   0  0  0  0  0  0  0  0  0  0  0  0
   36.9890   30.8520   41.9630 C   0  0  0  0  0  0  0  0  0  0  0  0
   36.3160   30.7460   40.6120 C   0  0  0  0  0  0  0  0  0  0  0  0
   37.5940   31.2520   46.9160 C   0  0  0  0  0  0  0  0  0  0  0  0
   38.2840   31.2270   48.2260 C   0  0  0  0  0  0  0  0  0  0  0  0
   35.7820   29.1720   50.1570 C   0  0  0  0  0  0  0  0  0  0  0  0
   36.4490   29.7850   49.0790 C   0  0  0  0  0  0  0  0  0  0  0  0
   37.5520   30.5670   49.2950 C   0  0  0  0  0  0  0  0  0  0  0  0
   37.9620   30.7150   50.5790 N   0  0  0  0  0  0  0  0  0  0  0  0
   37.3410   30.1400   51.6170 C   0  0  0  0  0  0  0  0  0  0  0  0
   36.2600   29.3740   51.4110 N   0  0  0  0  0  0  0  0  0  0  0  0
   39.9048   32.6970   46.7039 H   0  0  0  0  0  0  0  0  0  0  0  0
   40.7703   33.7696   44.7086 H   0  0  0  0  0  0  0  0  0  0  0  0
   34.3136   30.8031   40.4662 H   0  0  0  0  0  0  0  0  0  0  0  0
   33.9233   32.8389   41.6472 H   0  0  0  0  0  0  0  0  0  0  0  0
   34.6118   31.4544   42.6127 H   0  0  0  0  0  0  0  0  0  0  0  0
   36.0325   33.9306   41.6033 H   0  0  0  0  0  0  0  0  0  0  0  0
   35.7569   33.3793   43.3099 H   0  0  0  0  0  0  0  0  0  0  0  0
   37.8569   32.7789   41.4643 H   0  0  0  0  0  0  0  0  0  0  0  0
   37.9423   30.3034   41.9472 H   0  0  0  0  0  0  0  0  0  0  0  0
   36.3439   30.4185   42.7415 H   0  0  0  0  0  0  0  0  0  0  0  0
   36.1138   29.6882   40.3880 H   0  0  0  0  0  0  0  0  0  0  0  0
   36.9797   31.1702   39.8442 H   0  0  0  0  0  0  0  0  0  0  0  0
   36.6161   31.7286   47.0787 H   0  0  0  0  0  0  0  0  0  0  0  0
   37.5892   30.1964   46.6067 H   0  0  0  0  0  0  0  0  0  0  0  0
   39.2431   30.7043   48.0963 H   0  0  0  0  0  0  0  0  0  0  0  0
   38.3962   32.2771   48.5338 H   0  0  0  0  0  0  0  0  0  0  0  0
   34.8948   28.5444   49.9868 H   0  0  0  0  0  0  0  0  0  0  0  0
   36.0804   29.6342   48.0536 H   0  0  0  0  0  0  0  0  0  0  0  0
   37.7178   30.2962   52.6386 H   0  0  0  0  0  0  0  0  0  0  0  0
  1 15  1  0
  2  1  1  0
  3  2  2  0
  4  6  1  0
  4  3  1  0
  5  4  2  0
  6  7  1  0
  7  1  1  0
  8  7  2  0
  9 10  1  0
 10 11  1  0
 12 11  1  0
 12  6  1  0
 13 12  1  0
 14  9  1  0
 14 13  1  0
 15 16  1  0
 16 19  1  0
 17 22  2  0
 18 19  2  0
 18 17  1  0
 19 20  1  0
 20 21  2  0
 22 21  1  0
  2 23  1  0
  3 24  1  0
  9 25  1  0
 10 26  1  0
 10 27  1  0
 11 28  1  0
 11 29  1  0
 12 30  1  0
 13 31  1  0
 13 32  1  0
 14 33  1  0
 14 34  1  0
 15 35  1  0
 15 36  1  0
 16 37  1  0
 16 38  1  0
 17 39  1  0
 18 40  1  0
 21 41  1  0
M  ISO  8  23  14  24  14  25   5  26  13  27  13  28  13  29  13  30  13
M  ISO  8  31  13  32  13  33  13  34  13  35   8  36   8  37   8  38   8
M  ISO  3  39  14  40  14  41  14
M  END
>  <minimizedAffinity>  (1) 
-5.21580076

>  <minimizedRMSD>  (1) 
1.28578639

$$$$
