
     RDKit          3D

 31 33  0  0  1  0  0  0  0  0999 V2000
   35.8500   29.8610   49.8430 C   0  0  2  0  0  0  0  0  0  0  0  0
   35.0910   29.1530   50.8840 C   0  0  0  0  0  0  0  0  0  0  0  0
   35.1130   28.5350   49.5700 C   0  0  1  0  0  0  0  0  0  0  0  0
   37.3670   29.6800   49.8270 C   0  0  0  0  0  0  0  0  0  0  0  0
   38.6540   33.0680   49.2920 C   0  0  0  0  0  0  0  0  0  0  0  0
   39.0320   33.0520   47.9400 C   0  0  0  0  0  0  0  0  0  0  0  0
   38.8370   31.8610   47.2230 C   0  0  0  0  0  0  0  0  0  0  0  0
   38.2910   30.7820   47.8790 N   0  0  0  0  0  0  0  0  0  0  0  0
   37.9480   30.8550   49.1730 C   0  0  0  0  0  0  0  0  0  0  0  0
   38.1350   32.0000   49.8660 N   0  0  0  0  0  0  0  0  0  0  0  0
   33.8300   28.6190   48.7950 C   0  0  0  0  0  0  0  0  0  0  0  0
   33.9440   29.1250   47.6070 O   0  0  0  0  0  0  0  0  0  0  0  0
   32.5800   28.2020   49.2300 O   0  0  0  0  0  0  0  0  0  0  0  0
   31.7650   27.4490   48.3980 C   0  0  0  0  0  0  0  0  0  0  0  0
   32.1570   26.2290   47.8660 C   0  0  0  0  0  0  0  0  0  0  0  0
   31.2680   25.5490   47.0420 C   0  0  0  0  0  0  0  0  0  0  0  0
   30.0600   26.0780   46.7790 N   0  0  0  0  0  0  0  0  0  0  0  0
   29.6680   27.2750   47.2970 C   0  0  0  0  0  0  0  0  0  0  0  0
   30.5310   27.9300   48.0940 N   0  0  0  0  0  0  0  0  0  0  0  0
   35.8511   30.8971   49.4737 H   0  0  0  0  0  0  0  0  0  0  0  0
   35.6311   28.6746   51.7144 H   0  0  0  0  0  0  0  0  0  0  0  0
   34.2804   29.4533   51.5643 H   0  0  0  0  0  0  0  0  0  0  0  0
   35.3987   27.5562   49.1573 H   0  0  0  0  0  0  0  0  0  0  0  0
   37.7456   29.5986   50.8566 H   0  0  0  0  0  0  0  0  0  0  0  0
   37.6402   28.7625   49.2851 H   0  0  0  0  0  0  0  0  0  0  0  0
   38.7929   33.9859   49.8820 H   0  0  0  0  0  0  0  0  0  0  0  0
   39.4657   33.9414   47.4595 H   0  0  0  0  0  0  0  0  0  0  0  0
   39.1144   31.7920   46.1608 H   0  0  0  0  0  0  0  0  0  0  0  0
   33.1486   25.8096   48.0912 H   0  0  0  0  0  0  0  0  0  0  0  0
   31.5520   24.5799   46.6058 H   0  0  0  0  0  0  0  0  0  0  0  0
   28.6761   27.6932   47.0705 H   0  0  0  0  0  0  0  0  0  0  0  0
  1  2  1  0
  3  1  1  0
  3  2  1  0
  4  1  1  0
  5 10  2  0
  6  5  1  0
  7  8  1  0
  7  6  2  0
  8  9  2  0
  9  4  1  0
  9 10  1  0
 11 13  1  0
 11  3  1  0
 12 11  2  0
 14 13  1  0
 15 14  2  0
 16 15  1  0
 17 16  2  0
 17 18  1  0
 18 19  2  0
 19 14  1  0
  1 20  1  6
  2 21  1  0
  2 22  1  0
  3 23  1  1
  4 24  1  0
  4 25  1  0
  5 26  1  0
  6 27  1  0
  7 28  1  0
 15 29  1  0
 16 30  1  0
 18 31  1  0
M  ISO  8  20  13  21  13  22  13  23  13  24   8  25   8  26  14  27  14
M  ISO  4  28  14  29  14  30  14  31  14
M  END
>  <minimizedAffinity>  (1) 
-5.03703117

>  <minimizedRMSD>  (1) 
1.06414497

$$$$
