
     RDKit          3D

 33 34  0  0  1  0  0  0  0  0999 V2000
   39.3550   31.3400   46.6780 C   0  0  2  0  0  0  0  0  0  0  0  0
   39.8980   32.5500   46.1120 C   0  0  0  0  0  0  0  0  0  0  0  0
   40.8550   32.3160   44.9900 C   0  0  0  0  0  0  0  0  0  0  0  0
   40.3440   31.3660   43.9760 C   0  0  0  0  0  0  0  0  0  0  0  0
   39.6580   30.1860   44.5260 C   0  0  0  0  0  0  0  0  0  0  0  0
   38.6330   30.5460   45.6290 C   0  0  2  0  0  0  0  0  0  0  0  0
   38.3390   32.7900   48.5230 C   0  0  0  0  0  0  0  0  0  0  0  0
   38.4950   31.5450   47.8380 C   0  0  0  0  0  0  0  0  0  0  0  0
   37.7890   30.4660   48.2740 C   0  0  0  0  0  0  0  0  0  0  0  0
   36.9560   30.6300   49.3550 N   0  0  0  0  0  0  0  0  0  0  0  0
   36.8270   31.8400   49.9920 C   0  0  0  0  0  0  0  0  0  0  0  0
   37.5310   32.9220   49.5620 N   0  0  0  0  0  0  0  0  0  0  0  0
   37.5900   31.3450   44.9590 C   0  0  0  0  0  0  0  0  0  0  0  0
   37.5790   32.6050   44.7640 O   0  0  0  0  0  0  0  0  0  0  0  0
   36.5290   30.6050   44.5110 O   0  0  0  0  0  0  0  0  0  0  0  0
   35.7990   30.9660   43.3560 C   0  0  0  0  0  0  0  0  0  0  0  0
   34.8140   32.0030   43.4160 N   0  0  0  0  0  0  0  0  0  0  0  0
   36.0030   30.3840   42.2590 O   0  0  0  0  0  0  0  0  0  0  0  0
   40.2237   30.7761   47.0486 H   0  0  0  0  0  0  0  0  0  0  0  0
   39.0644   33.1605   45.7347 H   0  0  0  0  0  0  0  0  0  0  0  0
   40.4607   33.0527   46.9124 H   0  0  0  0  0  0  0  0  0  0  0  0
   41.0576   33.2782   44.4969 H   0  0  0  0  0  0  0  0  0  0  0  0
   41.7645   31.8740   45.4230 H   0  0  0  0  0  0  0  0  0  0  0  0
   41.1960   31.0169   43.3742 H   0  0  0  0  0  0  0  0  0  0  0  0
   39.5932   31.9146   43.3883 H   0  0  0  0  0  0  0  0  0  0  0  0
   39.1290   29.6745   43.7084 H   0  0  0  0  0  0  0  0  0  0  0  0
   40.4235   29.5420   44.9836 H   0  0  0  0  0  0  0  0  0  0  0  0
   38.1781   29.6714   46.1170 H   0  0  0  0  0  0  0  0  0  0  0  0
   38.9082   33.6648   48.1755 H   0  0  0  0  0  0  0  0  0  0  0  0
   37.8825   29.4901   47.7752 H   0  0  0  0  0  0  0  0  0  0  0  0
   36.1509   31.9348   50.8545 H   0  0  0  0  0  0  0  0  0  0  0  0
   34.2856   32.2610   42.5703 H   0  0  0  0  0  0  0  0  0  0  0  0
   34.6336   32.4912   44.3049 H   0  0  0  0  0  0  0  0  0  0  0  0
  1  8  1  0
  2  1  1  0
  3  2  1  0
  4  5  1  0
  4  3  1  0
  5  6  1  0
  6  1  1  0
  7 12  2  0
  8  9  2  0
  8  7  1  0
  9 10  1  0
 10 11  2  0
 12 11  1  0
 13  6  1  0
 14 13  2  0
 15 13  1  0
 16 17  1  0
 16 15  1  0
 18 16  2  0
  1 19  1  1
  2 20  1  0
  2 21  1  0
  3 22  1  0
  3 23  1  0
  4 24  1  0
  4 25  1  0
  5 26  1  0
  5 27  1  0
  6 28  1  1
  7 29  1  0
  9 30  1  0
 11 31  1  0
 17 32  1  0
 17 33  1  0
M  ISO  8  19  13  20  13  21  13  22  13  23  13  24  13  25  13  26  13
M  ISO  5  27  13  28  13  29  14  30  14  31  14
M  END
>  <minimizedAffinity>  (1) 
-5.10019159

>  <minimizedRMSD>  (1) 
1.73483241

$$$$
