
     RDKit          3D

 27 28  0  0  1  0  0  0  0  0999 V2000
   35.5850   29.6090   49.3730 C   0  0  2  0  0  0  0  0  0  0  0  0
   34.7230   29.3740   50.5380 C   0  0  0  0  0  0  0  0  0  0  0  0
   34.8700   28.2650   49.5980 C   0  0  1  0  0  0  0  0  0  0  0  0
   37.0930   29.4750   49.5690 C   0  0  0  0  0  0  0  0  0  0  0  0
   38.3130   32.9280   49.3670 C   0  0  0  0  0  0  0  0  0  0  0  0
   38.8840   32.9770   48.0870 C   0  0  0  0  0  0  0  0  0  0  0  0
   38.8490   31.8160   47.2970 C   0  0  0  0  0  0  0  0  0  0  0  0
   38.2530   30.6960   47.8270 N   0  0  0  0  0  0  0  0  0  0  0  0
   37.7200   30.6950   49.0520 C   0  0  0  0  0  0  0  0  0  0  0  0
   37.7540   31.8140   49.8120 N   0  0  0  0  0  0  0  0  0  0  0  0
   33.6500   27.9920   48.7620 C   0  0  0  0  0  0  0  0  0  0  0  0
   33.9090   27.6190   47.5460 O   0  0  0  0  0  0  0  0  0  0  0  0
   32.3260   28.0920   49.1690 O   0  0  0  0  0  0  0  0  0  0  0  0
   31.2810   27.6610   48.3800 C   0  0  0  0  0  0  0  0  0  0  0  0
   30.9620   28.6300   47.3630 N   0  0  0  0  0  0  0  0  0  0  0  0
   30.8070   26.5340   48.6780 O   0  0  0  0  0  0  0  0  0  0  0  0
   35.6304   30.4048   48.6149 H   0  0  0  0  0  0  0  0  0  0  0  0
   35.1748   29.2982   51.5381 H   0  0  0  0  0  0  0  0  0  0  0  0
   33.8535   29.9026   50.9557 H   0  0  0  0  0  0  0  0  0  0  0  0
   35.1938   27.2146   49.6406 H   0  0  0  0  0  0  0  0  0  0  0  0
   37.3230   29.3599   50.6385 H   0  0  0  0  0  0  0  0  0  0  0  0
   37.4736   28.5909   49.0365 H   0  0  0  0  0  0  0  0  0  0  0  0
   38.3299   33.8229   50.0064 H   0  0  0  0  0  0  0  0  0  0  0  0
   39.3475   33.9011   47.7112 H   0  0  0  0  0  0  0  0  0  0  0  0
   39.2844   31.8033   46.2869 H   0  0  0  0  0  0  0  0  0  0  0  0
   31.4962   29.5086   47.3031 H   0  0  0  0  0  0  0  0  0  0  0  0
   30.1997   28.4443   46.6957 H   0  0  0  0  0  0  0  0  0  0  0  0
  1  4  1  0
  1  3  1  0
  1  2  1  0
  3  2  1  0
  5 10  2  0
  6  5  1  0
  7  8  1  0
  7  6  2  0
  8  9  2  0
  9  4  1  0
  9 10  1  0
 11 13  1  0
 11  3  1  0
 12 11  2  0
 14 16  2  0
 14 13  1  0
 15 14  1  0
  1 17  1  6
  2 18  1  0
  2 19  1  0
  3 20  1  1
  4 21  1  0
  4 22  1  0
  5 23  1  0
  6 24  1  0
  7 25  1  0
 15 26  1  0
 15 27  1  0
M  ISO  8  17  13  18  13  19  13  20  13  21   8  22   8  23  14  24  14
M  ISO  1  25  14
M  END
>  <minimizedAffinity>  (1) 
-4.80986547

>  <minimizedRMSD>  (1) 
0.6102584

$$$$
