
     RDKit          3D

 44 47  0  0  0  0  0  0  0  0999 V2000
   35.9860   28.6890   49.9710 C   0  0  0  0  0  0  0  0  0  0  0  0
   35.9790   30.0920   49.9240 C   0  0  0  0  0  0  0  0  0  0  0  0
   34.8550   30.6990   49.4460 C   0  0  0  0  0  0  0  0  0  0  0  0
   33.7730   29.9550   49.0280 N   0  0  0  0  0  0  0  0  0  0  0  0
   33.8020   28.6250   49.0820 C   0  0  0  0  0  0  0  0  0  0  0  0
   34.8980   28.0110   49.5480 N   0  0  0  0  0  0  0  0  0  0  0  0
   32.6840   27.8440   48.6510 N   0  0  0  0  0  0  0  0  0  0  0  0
   31.4560   27.8340   49.1980 C   0  0  0  0  0  0  0  0  0  0  0  0
   30.7130   26.9490   48.4700 N   0  0  0  0  0  0  0  0  0  0  0  0
   31.5010   26.4550   47.5150 C   0  0  0  0  0  0  0  0  0  0  0  0
   31.2590   25.5220   46.5010 C   0  0  0  0  0  0  0  0  0  0  0  0
   30.1430   24.9650   46.3380 O   0  0  0  0  0  0  0  0  0  0  0  0
   32.2990   25.2360   45.6810 N   0  0  0  0  0  0  0  0  0  0  0  0
   33.5250   25.7830   45.7820 C   0  0  0  0  0  0  0  0  0  0  0  0
   34.5490   25.4050   44.8570 N   0  0  0  0  0  0  0  0  0  0  0  0
   33.7800   26.6890   46.7570 N   0  0  0  0  0  0  0  0  0  0  0  0
   32.7800   27.0080   47.5980 C   0  0  0  0  0  0  0  0  0  0  0  0
   37.0940   30.8490   50.3660 C   0  0  0  0  0  0  0  0  0  0  0  0
   37.2370   32.1570   49.6640 C   0  0  0  0  0  0  0  0  0  0  0  0
   37.9800   31.8610   48.3950 C   0  0  0  0  0  0  0  0  0  0  0  0
   37.9030   30.6460   47.7810 C   0  0  0  0  0  0  0  0  0  0  0  0
   38.6130   30.4010   46.6260 C   0  0  0  0  0  0  0  0  0  0  0  0
   39.3820   31.3790   46.1180 N   0  0  0  0  0  0  0  0  0  0  0  0
   39.4620   32.5780   46.7200 C   0  0  0  0  0  0  0  0  0  0  0  0
   38.7760   32.8400   47.8490 N   0  0  0  0  0  0  0  0  0  0  0  0
   40.3150   33.6670   46.1560 C   0  0  0  0  0  0  0  0  0  0  0  0
   40.1280   33.7380   44.6300 C   0  0  0  0  0  0  0  0  0  0  0  0
   36.8670   28.1488   50.3478 H   0  0  0  0  0  0  0  0  0  0  0  0
   34.8116   31.7969   49.3935 H   0  0  0  0  0  0  0  0  0  0  0  0
   31.1162   28.4232   50.0625 H   0  0  0  0  0  0  0  0  0  0  0  0
   32.1405   24.5520   44.9274 H   0  0  0  0  0  0  0  0  0  0  0  0
   35.4884   25.8209   44.9304 H   0  0  0  0  0  0  0  0  0  0  0  0
   34.3467   24.7170   44.1176 H   0  0  0  0  0  0  0  0  0  0  0  0
   36.9798   31.0418   51.4429 H   0  0  0  0  0  0  0  0  0  0  0  0
   37.9958   30.2600   50.1426 H   0  0  0  0  0  0  0  0  0  0  0  0
   36.2473   32.5808   49.4384 H   0  0  0  0  0  0  0  0  0  0  0  0
   37.7710   32.8926   50.2835 H   0  0  0  0  0  0  0  0  0  0  0  0
   37.2696   29.8560   48.2108 H   0  0  0  0  0  0  0  0  0  0  0  0
   38.5515   29.4219   46.1283 H   0  0  0  0  0  0  0  0  0  0  0  0
   40.0241   34.6283   46.6047 H   0  0  0  0  0  0  0  0  0  0  0  0
   41.3704   33.4563   46.3833 H   0  0  0  0  0  0  0  0  0  0  0  0
   39.1221   34.1199   44.4012 H   0  0  0  0  0  0  0  0  0  0  0  0
   40.8829   34.4121   44.1990 H   0  0  0  0  0  0  0  0  0  0  0  0
   40.2453   32.7328   44.1990 H   0  0  0  0  0  0  0  0  0  0  0  0
  2  1  2  0
  2 18  1  0
  3  2  1  0
  4  5  1  0
  4  3  2  0
  5  6  2  0
  6  1  1  0
  7  5  1  0
  7  8  1  0
  9  8  2  0
 10 17  2  0
 10  9  1  0
 11 10  1  0
 12 11  2  0
 13 14  1  0
 13 11  1  0
 14 16  2  0
 15 14  1  0
 16 17  1  0
 17  7  1  0
 19 18  1  0
 20 19  1  0
 21 20  2  0
 22 21  1  0
 23 22  2  0
 23 24  1  0
 24 25  2  0
 25 20  1  0
 26 24  1  0
 27 26  1  0
  1 28  1  0
  3 29  1  0
  8 30  1  0
 13 31  1  0
 15 32  1  0
 15 33  1  0
 18 34  1  0
 18 35  1  0
 19 36  1  0
 19 37  1  0
 21 38  1  0
 22 39  1  0
 26 40  1  0
 26 41  1  0
 27 42  1  0
 27 43  1  0
 27 44  1  0
M  ISO  8  28  14  29  14  30  14  31   9  34   8  35   8  36   8  37   8
M  ISO  7  38  14  39  14  40   8  41   8  42   8  43   8  44   8
M  END
>  <minimizedAffinity>  (1) 
-5.90054703

>  <minimizedRMSD>  (1) 
2.54210401

$$$$
