
     RDKit          3D

 34 36  0  0  0  0  0  0  0  0999 V2000
   36.9220   29.9260   49.8050 C   0  0  0  0  0  0  0  0  0  0  0  0
   38.0110   30.7150   49.4200 C   0  0  0  0  0  0  0  0  0  0  0  0
   38.0470   31.1640   48.0870 C   0  0  0  0  0  0  0  0  0  0  0  0
   37.0290   30.8070   47.2530 N   0  0  0  0  0  0  0  0  0  0  0  0
   36.0100   30.0440   47.6870 C   0  0  0  0  0  0  0  0  0  0  0  0
   35.9690   29.6180   48.9440 N   0  0  0  0  0  0  0  0  0  0  0  0
   39.1150   31.9610   47.6360 N   0  0  0  0  0  0  0  0  0  0  0  0
   39.0440   32.6820   46.4330 C   0  0  0  0  0  0  0  0  0  0  0  0
   38.0250   32.5140   45.6810 N   0  0  0  0  0  0  0  0  0  0  0  0
   40.0870   33.5750   46.0720 N   0  0  0  0  0  0  0  0  0  0  0  0
   37.9530   33.0610   44.7820 H   0  0  0  0  0  0  0  0  0  0  0  0
   34.9630   29.6890   46.7920 N   0  0  0  0  0  0  0  0  0  0  0  0
   34.9590   29.8310   45.4570 C   0  0  0  0  0  0  0  0  0  0  0  0
   33.8130   29.3980   44.8950 N   0  0  0  0  0  0  0  0  0  0  0  0
   33.0330   28.9560   45.8960 C   0  0  0  0  0  0  0  0  0  0  0  0
   31.7720   28.4170   45.8770 C   0  0  0  0  0  0  0  0  0  0  0  0
   31.1840   28.2790   44.7890 O   0  0  0  0  0  0  0  0  0  0  0  0
   31.2260   28.0540   47.0640 N   0  0  0  0  0  0  0  0  0  0  0  0
   31.9430   28.2410   48.2050 C   0  0  0  0  0  0  0  0  0  0  0  0
   31.2370   27.8110   49.3850 N   0  0  0  0  0  0  0  0  0  0  0  0
   33.1810   28.7720   48.2080 N   0  0  0  0  0  0  0  0  0  0  0  0
   33.7600   29.1450   47.0530 C   0  0  0  0  0  0  0  0  0  0  0  0
   36.8650   29.4350   51.2280 C   0  0  0  0  0  0  0  0  0  0  0  0
   35.5550   29.1350   51.5570 F   0  0  0  0  0  0  0  0  0  0  0  0
   37.7400   28.3980   51.3560 F   0  0  0  0  0  0  0  0  0  0  0  0
   37.2700   30.4990   52.0390 F   0  0  0  0  0  0  0  0  0  0  0  0
   38.8085   30.9744   50.1319 H   0  0  0  0  0  0  0  0  0  0  0  0
   39.9726   32.0172   48.2038 H   0  0  0  0  0  0  0  0  0  0  0  0
   40.0311   34.1020   45.1888 H   0  0  0  0  0  0  0  0  0  0  0  0
   40.8996   33.6959   46.6933 H   0  0  0  0  0  0  0  0  0  0  0  0
   35.7981   30.2539   44.8851 H   0  0  0  0  0  0  0  0  0  0  0  0
   30.2824   27.6428   47.1012 H   0  0  0  0  0  0  0  0  0  0  0  0
   31.6784   27.9022   50.3111 H   0  0  0  0  0  0  0  0  0  0  0  0
   30.2909   27.4123   49.3025 H   0  0  0  0  0  0  0  0  0  0  0  0
  1 23  1  0
  2  1  2  0
  3  2  1  0
  4  5  1  0
  4  3  2  0
  5  6  2  0
  6  1  1  0
  7  3  1  0
  8  7  1  0
  9  8  2  0
 10  8  1  0
 11  9  1  0
 12 22  1  0
 12  5  1  0
 13 12  1  0
 14 13  2  0
 14 15  1  0
 15 22  2  0
 16 15  1  0
 16 18  1  0
 17 16  2  0
 18 19  1  0
 19 21  2  0
 19 20  1  0
 22 21  1  0
 23 25  1  0
 23 24  1  0
 23 26  1  0
  2 27  1  0
  7 28  1  0
 10 29  1  0
 10 30  1  0
 13 31  1  0
 18 32  1  0
 20 33  1  0
 20 34  1  0
M  END
>  <minimizedAffinity>  (1) 
-7.51458073

>  <minimizedRMSD>  (1) 
0.409976423

$$$$
