
     RDKit          3D

 34 36  0  0  1  0  0  0  0  0999 V2000
   40.0300   31.9830   46.4450 C   0  0  2  0  0  0  0  0  0  0  0  0
   37.2070   31.4060   48.7300 C   0  0  0  0  0  0  0  0  0  0  0  0
   37.4070   32.5290   49.5730 C   0  0  0  0  0  0  0  0  0  0  0  0
   38.8870   33.3580   48.8750 S   0  0  0  0  0  0  0  0  0  0  0  0
   38.9820   32.0040   47.5270 C   0  0  0  0  0  0  0  0  0  0  0  0
   38.1140   31.3470   47.7790 N   0  0  0  0  0  0  0  0  0  0  0  0
   35.9770   29.8790   50.2280 C   0  0  0  0  0  0  0  0  0  0  0  0
   36.0960   30.5010   48.9830 C   0  0  0  0  0  0  0  0  0  0  0  0
   35.1080   30.2010   48.0500 C   0  0  0  0  0  0  0  0  0  0  0  0
   34.1150   29.3480   48.3910 N   0  0  0  0  0  0  0  0  0  0  0  0
   34.0410   28.7750   49.5970 C   0  0  0  0  0  0  0  0  0  0  0  0
   34.9880   29.0440   50.5340 N   0  0  0  0  0  0  0  0  0  0  0  0
   40.0910   33.3590   45.8700 C   0  0  0  0  0  0  0  0  0  0  0  0
   39.6000   30.9750   45.3900 C   0  0  0  0  0  0  0  0  0  0  0  0
   39.0480   31.6450   44.1940 C   0  0  0  0  0  0  0  0  0  0  0  0
   39.7650   31.9970   43.0720 C   0  0  0  0  0  0  0  0  0  0  0  0
   39.1270   32.6250   42.0100 C   0  0  0  0  0  0  0  0  0  0  0  0
   37.7730   32.9250   42.0200 C   0  0  0  0  0  0  0  0  0  0  0  0
   37.1130   32.5470   43.1740 C   0  0  0  0  0  0  0  0  0  0  0  0
   37.7160   31.9320   44.2220 N   0  0  0  0  0  0  0  0  0  0  0  0
   41.0207   31.6943   46.8260 H   0  0  0  0  0  0  0  0  0  0  0  0
   36.8108   32.8333   50.4459 H   0  0  0  0  0  0  0  0  0  0  0  0
   36.7387   30.0901   50.9930 H   0  0  0  0  0  0  0  0  0  0  0  0
   35.1342   30.6521   47.0471 H   0  0  0  0  0  0  0  0  0  0  0  0
   33.2150   28.0870   49.8303 H   0  0  0  0  0  0  0  0  0  0  0  0
   40.1237   34.0962   46.6858 H   0  0  0  0  0  0  0  0  0  0  0  0
   40.9944   33.4577   45.2502 H   0  0  0  0  0  0  0  0  0  0  0  0
   39.1999   33.5372   45.2502 H   0  0  0  0  0  0  0  0  0  0  0  0
   40.4724   30.3746   45.0927 H   0  0  0  0  0  0  0  0  0  0  0  0
   38.8146   30.3373   45.8218 H   0  0  0  0  0  0  0  0  0  0  0  0
   40.8422   31.7809   43.0170 H   0  0  0  0  0  0  0  0  0  0  0  0
   39.7203   32.8957   41.1242 H   0  0  0  0  0  0  0  0  0  0  0  0
   37.2666   33.4223   41.1796 H   0  0  0  0  0  0  0  0  0  0  0  0
   36.0357   32.7571   43.2469 H   0  0  0  0  0  0  0  0  0  0  0  0
  1  5  1  0
  2  8  1  0
  2  3  2  0
  4  3  1  0
  5  6  2  0
  5  4  1  0
  6  2  1  0
  7 12  2  0
  8  7  1  0
  9 10  1  0
  9  8  2  0
 10 11  2  0
 11 12  1  0
 13  1  1  0
 14  1  1  0
 15 20  1  0
 15 14  1  0
 16 15  2  0
 17 18  2  0
 17 16  1  0
 18 19  1  0
 19 20  2  0
  1 21  1  1
  3 22  1  0
  7 23  1  0
  9 24  1  0
 11 25  1  0
 13 26  1  0
 13 27  1  0
 13 28  1  0
 14 29  1  0
 14 30  1  0
 16 31  1  0
 17 32  1  0
 18 33  1  0
 19 34  1  0
M  ISO  8  21   8  22  14  23  14  24  14  25  14  26   8  27   8  28   8
M  ISO  6  29   8  30   8  31  14  32  14  33  14  34  14
M  END
>  <minimizedAffinity>  (1) 
-5.39348125

>  <minimizedRMSD>  (1) 
2.38104057

$$$$
