
     RDKit          3D

 40 42  0  0  1  0  0  0  0  0999 V2000
   37.0830   30.5970   46.0270 C   0  0  0  0  0  0  0  0  0  0  0  0
   38.0070   30.3450   46.8390 O   0  0  0  0  0  0  0  0  0  0  0  0
   37.4880   31.3800   44.8960 N   0  0  0  0  0  0  0  0  0  0  0  0
   36.9930   30.9170   43.6020 C   0  0  0  0  0  0  0  0  0  0  0  0
   37.7920   31.5250   42.4700 C   0  0  0  0  0  0  0  0  0  0  0  0
   39.1030   31.6480   42.9180 O   0  0  0  0  0  0  0  0  0  0  0  0
   39.1200   32.7860   43.7390 C   0  0  0  0  0  0  0  0  0  0  0  0
   38.3360   32.5590   45.0080 C   0  0  2  0  0  0  0  0  0  0  0  0
   34.0130   29.2900   47.7700 C   0  0  0  0  0  0  0  0  0  0  0  0
   35.3450   29.7680   47.5610 C   0  0  0  0  0  0  0  0  0  0  0  0
   35.7370   30.1090   46.2700 C   0  0  0  0  0  0  0  0  0  0  0  0
   34.8110   29.9600   45.2910 N   0  0  0  0  0  0  0  0  0  0  0  0
   33.5820   29.5140   45.5170 C   0  0  0  0  0  0  0  0  0  0  0  0
   33.1910   29.1860   46.7260 N   0  0  0  0  0  0  0  0  0  0  0  0
   32.7070   29.4190   44.3070 C   0  0  0  0  0  0  0  0  0  0  0  0
   32.6810   30.6360   43.6340 F   0  0  0  0  0  0  0  0  0  0  0  0
   33.2540   28.5180   43.4130 F   0  0  0  0  0  0  0  0  0  0  0  0
   31.4320   28.9640   44.6020 F   0  0  0  0  0  0  0  0  0  0  0  0
   33.6450   28.9550   49.0670 O   0  0  0  0  0  0  0  0  0  0  0  0
   34.0960   29.6120   50.2090 C   0  0  0  0  0  0  0  0  0  0  0  0
   35.0740   28.9260   50.8940 F   0  0  0  0  0  0  0  0  0  0  0  0
   34.4830   30.9160   50.0090 F   0  0  0  0  0  0  0  0  0  0  0  0
   32.9680   29.6690   51.0580 F   0  0  0  0  0  0  0  0  0  0  0  0
   39.3020   32.2190   45.9690 O   0  0  0  0  0  0  0  0  0  0  0  0
   39.4220   33.0310   47.0910 C   0  0  0  0  0  0  0  0  0  0  0  0
   38.8820   32.9290   48.3560 C   0  0  0  0  0  0  0  0  0  0  0  0
   39.2980   33.9920   49.1340 C   0  0  0  0  0  0  0  0  0  0  0  0
   40.0970   34.7310   48.3120 N   0  0  0  0  0  0  0  0  0  0  0  0
   40.1560   34.1590   47.1330 N   0  0  0  0  0  0  0  0  0  0  0  0
   37.0778   29.8213   43.5549 H   0  0  0  0  0  0  0  0  0  0  0  0
   35.9425   31.2256   43.4964 H   0  0  0  0  0  0  0  0  0  0  0  0
   37.3870   32.5143   42.2105 H   0  0  0  0  0  0  0  0  0  0  0  0
   37.7420   30.8935   41.5707 H   0  0  0  0  0  0  0  0  0  0  0  0
   40.1618   33.0243   43.9994 H   0  0  0  0  0  0  0  0  0  0  0  0
   38.6560   33.6178   43.1887 H   0  0  0  0  0  0  0  0  0  0  0  0
   37.7226   33.4429   45.2372 H   0  0  0  0  0  0  0  0  0  0  0  0
   36.0453   29.8641   48.4038 H   0  0  0  0  0  0  0  0  0  0  0  0
   38.2179   32.1204   48.6954 H   0  0  0  0  0  0  0  0  0  0  0  0
   39.0416   34.1970   50.1839 H   0  0  0  0  0  0  0  0  0  0  0  0
   40.5789   35.6023   48.5758 H   0  0  0  0  0  0  0  0  0  0  0  0
  1 11  1  0
  1  2  2  0
  3  8  1  0
  3  1  1  0
  4  3  1  0
  5  6  1  0
  5  4  1  0
  6  7  1  0
  7  8  1  0
  8 24  1  0
  9 19  1  0
 10  9  2  0
 11 10  1  0
 12 13  1  0
 12 11  2  0
 13 14  2  0
 14  9  1  0
 15 18  1  0
 15 13  1  0
 16 15  1  0
 17 15  1  0
 19 20  1  0
 20 21  1  0
 20 23  1  0
 22 20  1  0
 24 25  1  0
 25 29  2  0
 25 26  1  0
 26 27  2  0
 28 27  1  0
 29 28  1  0
  4 30  1  0
  4 31  1  0
  5 32  1  0
  5 33  1  0
  7 34  1  0
  7 35  1  0
  8 36  1  1
 10 37  1  0
 26 38  1  0
 27 39  1  0
 28 40  1  0
M  ISO  8  30  13  31  13  32  13  33  13  34  13  35  13  36  13  37  14
M  ISO  3  38  14  39  14  40   9
M  END
>  <minimizedAffinity>  (1) 
-5.5983181

>  <minimizedRMSD>  (1) 
1.81115496

$$$$
