
     RDKit          3D

 21 22  0  0  0  0  0  0  0  0999 V2000
   37.2670   30.5550   49.1560 C   0  0  0  0  0  0  0  0  0  0  0  0
   37.0520   31.6900   49.9680 C   0  0  0  0  0  0  0  0  0  0  0  0
   37.6490   32.8940   49.6170 C   0  0  0  0  0  0  0  0  0  0  0  0
   38.4230   32.9300   48.4940 N   0  0  0  0  0  0  0  0  0  0  0  0
   38.5990   31.8210   47.7510 C   0  0  0  0  0  0  0  0  0  0  0  0
   38.0330   30.6420   48.0660 N   0  0  0  0  0  0  0  0  0  0  0  0
   39.4340   32.0560   46.6230 N   0  0  0  0  0  0  0  0  0  0  0  0
   39.7000   30.9270   45.9720 N   0  0  0  0  0  0  0  0  0  0  0  0
   40.4990   31.1890   44.9030 C   0  0  0  0  0  0  0  0  0  0  0  0
   40.7340   32.5270   44.8960 C   0  0  0  0  0  0  0  0  0  0  0  0
   40.0590   33.0760   45.9870 C   0  0  0  0  0  0  0  0  0  0  0  0
   36.6730   29.3840   49.5190 O   0  0  0  0  0  0  0  0  0  0  0  0
   35.4360   29.2560   50.1710 C   0  0  0  0  0  0  0  0  0  0  0  0
   35.5320   29.2200   51.5470 F   0  0  0  0  0  0  0  0  0  0  0  0
   34.5030   30.1790   49.7700 F   0  0  0  0  0  0  0  0  0  0  0  0
   34.9310   28.0040   49.7660 F   0  0  0  0  0  0  0  0  0  0  0  0
   36.4205   31.6216   50.8661 H   0  0  0  0  0  0  0  0  0  0  0  0
   37.5015   33.7960   50.2291 H   0  0  0  0  0  0  0  0  0  0  0  0
   40.8831   30.4549   44.1795 H   0  0  0  0  0  0  0  0  0  0  0  0
   41.3444   33.0768   44.1645 H   0  0  0  0  0  0  0  0  0  0  0  0
   40.0383   34.1371   46.2762 H   0  0  0  0  0  0  0  0  0  0  0  0
  1 12  1  0
  1  2  2  0
  3  2  1  0
  4  3  2  0
  5  6  2  0
  5  4  1  0
  6  1  1  0
  7  5  1  0
  8  7  1  0
  9  8  2  0
 10  9  1  0
 10 11  2  0
 11  7  1  0
 12 13  1  0
 13 14  1  0
 15 13  1  0
 16 13  1  0
  2 17  1  0
  3 18  1  0
  9 19  1  0
 10 20  1  0
 11 21  1  0
M  ISO  5  17  14  18  14  19  14  20  14  21  14
M  END
>  <minimizedAffinity>  (1) 
-6.0998373

>  <minimizedRMSD>  (1) 
1.6617105

$$$$
