
     RDKit          3D

 27 28  0  0  0  0  0  0  0  0999 V2000
   36.9130   29.9700   49.8460 C   0  0  0  0  0  0  0  0  0  0  0  0
   38.0290   30.6960   49.4310 C   0  0  0  0  0  0  0  0  0  0  0  0
   38.0430   31.1880   48.1230 C   0  0  0  0  0  0  0  0  0  0  0  0
   36.9650   30.9300   47.3310 N   0  0  0  0  0  0  0  0  0  0  0  0
   35.9120   30.2220   47.7820 C   0  0  0  0  0  0  0  0  0  0  0  0
   35.8940   29.7520   49.0280 N   0  0  0  0  0  0  0  0  0  0  0  0
   39.1360   31.9290   47.6380 N   0  0  0  0  0  0  0  0  0  0  0  0
   39.0660   32.6470   46.4270 C   0  0  0  0  0  0  0  0  0  0  0  0
   37.9910   32.5430   45.7050 N   0  0  0  0  0  0  0  0  0  0  0  0
   40.1540   33.4570   46.0270 N   0  0  0  0  0  0  0  0  0  0  0  0
   37.9470   33.0870   44.8110 H   0  0  0  0  0  0  0  0  0  0  0  0
   34.8820   30.0510   46.8220 N   0  0  0  0  0  0  0  0  0  0  0  0
   33.6790   30.4480   47.1940 N   0  0  0  0  0  0  0  0  0  0  0  0
   32.8060   30.2210   46.1770 C   0  0  0  0  0  0  0  0  0  0  0  0
   33.4860   29.6560   45.1200 C   0  0  0  0  0  0  0  0  0  0  0  0
   34.8060   29.5640   45.5710 C   0  0  0  0  0  0  0  0  0  0  0  0
   36.8850   29.4350   51.2510 C   0  0  0  0  0  0  0  0  0  0  0  0
   35.5920   29.1320   51.6140 F   0  0  0  0  0  0  0  0  0  0  0  0
   37.7670   28.3980   51.3290 F   0  0  0  0  0  0  0  0  0  0  0  0
   37.3250   30.4790   52.0840 F   0  0  0  0  0  0  0  0  0  0  0  0
   38.8732   30.8761   50.1129 H   0  0  0  0  0  0  0  0  0  0  0  0
   40.0104   31.9474   48.1821 H   0  0  0  0  0  0  0  0  0  0  0  0
   40.1066   33.9832   45.1428 H   0  0  0  0  0  0  0  0  0  0  0  0
   40.9938   33.5208   46.6199 H   0  0  0  0  0  0  0  0  0  0  0  0
   31.7305   30.4512   46.1949 H   0  0  0  0  0  0  0  0  0  0  0  0
   33.0824   29.3478   44.1443 H   0  0  0  0  0  0  0  0  0  0  0  0
   35.6494   29.1574   44.9936 H   0  0  0  0  0  0  0  0  0  0  0  0
  1 17  1  0
  2  1  2  0
  3  2  1  0
  4  5  1  0
  4  3  2  0
  5  6  2  0
  6  1  1  0
  7  3  1  0
  8  7  1  0
  9  8  2  0
 10  8  1  0
 11  9  1  0
 12 13  1  0
 12  5  1  0
 14 13  2  0
 15 16  2  0
 15 14  1  0
 16 12  1  0
 17 19  1  0
 17 18  1  0
 17 20  1  0
  2 21  1  0
  7 22  1  0
 10 23  1  0
 10 24  1  0
 14 25  1  0
 15 26  1  0
 16 27  1  0
M  ISO  4  21  14  25  14  26  14  27  14
M  END
>  <minimizedAffinity>  (1) 
-6.89522457

>  <minimizedRMSD>  (1) 
0.103501767

$$$$
