
     RDKit          3D

 23 24  0  0  0  0  0  0  0  0999 V2000
   36.8390   30.9530   47.5770 C   0  0  0  0  0  0  0  0  0  0  0  0
   36.4940   29.2210   50.9420 C   0  0  0  0  0  0  0  0  0  0  0  0
   37.0990   29.7950   49.8250 C   0  0  0  0  0  0  0  0  0  0  0  0
   36.3250   30.3220   48.8070 C   0  0  0  0  0  0  0  0  0  0  0  0
   34.9780   30.2410   48.9720 N   0  0  0  0  0  0  0  0  0  0  0  0
   34.3950   29.6910   50.0440 C   0  0  0  0  0  0  0  0  0  0  0  0
   35.1550   29.1820   51.0290 N   0  0  0  0  0  0  0  0  0  0  0  0
   38.3600   31.0280   47.5910 C   0  0  0  0  0  0  0  0  0  0  0  0
   38.8710   32.3260   48.0280 C   0  0  0  0  0  0  0  0  0  0  0  0
   38.6990   32.9860   49.2310 C   0  0  0  0  0  0  0  0  0  0  0  0
   39.3580   34.1860   49.2080 C   0  0  0  0  0  0  0  0  0  0  0  0
   39.9300   34.2190   47.9490 C   0  0  0  0  0  0  0  0  0  0  0  0
   39.6250   33.1360   47.3070 O   0  0  0  0  0  0  0  0  0  0  0  0
   36.4302   31.9712   47.4982 H   0  0  0  0  0  0  0  0  0  0  0  0
   36.5282   30.3427   46.7162 H   0  0  0  0  0  0  0  0  0  0  0  0
   37.1118   28.8013   51.7496 H   0  0  0  0  0  0  0  0  0  0  0  0
   38.1961   29.8290   49.7529 H   0  0  0  0  0  0  0  0  0  0  0  0
   33.2981   29.6557   50.1187 H   0  0  0  0  0  0  0  0  0  0  0  0
   38.7414   30.2547   48.2740 H   0  0  0  0  0  0  0  0  0  0  0  0
   38.7033   30.8740   46.5573 H   0  0  0  0  0  0  0  0  0  0  0  0
   38.1174   32.6027   50.0824 H   0  0  0  0  0  0  0  0  0  0  0  0
   39.4183   34.9443   50.0026 H   0  0  0  0  0  0  0  0  0  0  0  0
   40.5484   35.0384   47.5539 H   0  0  0  0  0  0  0  0  0  0  0  0
  1  8  1  0
  1  4  1  0
  2  7  2  0
  3  2  1  0
  4  5  1  0
  4  3  2  0
  5  6  2  0
  6  7  1  0
  8  9  1  0
  9 10  2  0
 11 10  1  0
 12 11  2  0
 13 12  1  0
 13  9  1  0
  1 14  1  0
  1 15  1  0
  2 16  1  0
  3 17  1  0
  6 18  1  0
  8 19  1  0
  8 20  1  0
 10 21  1  0
 11 22  1  0
 12 23  1  0
M  ISO  8  14   8  15   8  16  14  17  14  18  14  19   8  20   8  21  14
M  ISO  2  22  14  23  14
M  END
>  <minimizedAffinity>  (1) 
-4.46330023

>  <minimizedRMSD>  (1) 
2.08316493

$$$$
