
     RDKit          3D

 37 40  0  0  1  0  0  0  0  0999 V2000
   37.8300   31.2700   47.9920 N   0  0  0  0  0  0  0  0  0  0  0  0
   38.8570   32.1200   47.8810 C   0  0  0  0  0  0  0  0  0  0  0  0
   39.0350   32.4960   46.6110 N   0  0  0  0  0  0  0  0  0  0  0  0
   38.0970   31.8740   45.8640 C   0  0  0  0  0  0  0  0  0  0  0  0
   37.7980   31.8440   44.5310 C   0  0  0  0  0  0  0  0  0  0  0  0
   36.7870   31.0950   44.0110 N   0  0  0  0  0  0  0  0  0  0  0  0
   36.0770   30.3690   44.8880 C   0  0  0  0  0  0  0  0  0  0  0  0
   36.3760   30.4010   46.1910 N   0  0  0  0  0  0  0  0  0  0  0  0
   37.3480   31.1100   46.7440 C   0  0  0  0  0  0  0  0  0  0  0  0
   36.2790   29.7930   49.1410 C   0  0  0  0  0  0  0  0  0  0  0  0
   37.3580   30.6550   49.1710 C   0  0  0  0  0  0  0  0  0  0  0  0
   37.9920   30.9110   50.3880 C   0  0  0  0  0  0  0  0  0  0  0  0
   37.4840   30.2720   51.4990 N   0  0  0  0  0  0  0  0  0  0  0  0
   36.4340   29.4410   51.4340 C   0  0  0  0  0  0  0  0  0  0  0  0
   35.8230   29.1930   50.2670 N   0  0  0  0  0  0  0  0  0  0  0  0
   38.4950   32.7200   43.5570 C   0  0  2  0  0  0  0  0  0  0  0  0
   37.8200   32.8770   42.2610 C   0  0  0  0  0  0  0  0  0  0  0  0
   39.9610   32.2640   43.3980 C   0  0  0  0  0  0  0  0  0  0  0  0
   40.1130   30.9310   42.8260 C   0  0  0  0  0  0  0  0  0  0  0  0
   39.9510   29.5830   42.9610 C   0  0  0  0  0  0  0  0  0  0  0  0
   40.3870   28.8940   41.8480 C   0  0  0  0  0  0  0  0  0  0  0  0
   40.8160   29.9170   41.0490 C   0  0  0  0  0  0  0  0  0  0  0  0
   40.6540   31.0690   41.6160 O   0  0  0  0  0  0  0  0  0  0  0  0
   39.4739   32.4642   48.7242 H   0  0  0  0  0  0  0  0  0  0  0  0
   35.2443   29.7440   44.5332 H   0  0  0  0  0  0  0  0  0  0  0  0
   35.7793   29.5893   48.1825 H   0  0  0  0  0  0  0  0  0  0  0  0
   38.8550   31.5896   50.4572 H   0  0  0  0  0  0  0  0  0  0  0  0
   36.0688   28.9559   52.3512 H   0  0  0  0  0  0  0  0  0  0  0  0
   38.4680   33.7333   43.9843 H   0  0  0  0  0  0  0  0  0  0  0  0
   36.7608   33.1234   42.4267 H   0  0  0  0  0  0  0  0  0  0  0  0
   38.3004   33.6874   41.6931 H   0  0  0  0  0  0  0  0  0  0  0  0
   37.8935   31.9378   41.6931 H   0  0  0  0  0  0  0  0  0  0  0  0
   40.4765   32.9816   42.7427 H   0  0  0  0  0  0  0  0  0  0  0  0
   40.3918   32.2254   44.4094 H   0  0  0  0  0  0  0  0  0  0  0  0
   39.5229   29.1019   43.8528 H   0  0  0  0  0  0  0  0  0  0  0  0
   40.3889   27.8110   41.6551 H   0  0  0  0  0  0  0  0  0  0  0  0
   41.2464   29.7779   40.0463 H   0  0  0  0  0  0  0  0  0  0  0  0
  1 11  1  0
  2  1  1  0
  3  2  2  0
  4  3  1  0
  4  9  2  0
  5  4  1  0
  6  5  2  0
  6  7  1  0
  7  8  2  0
  8  9  1  0
  9  1  1  0
 10 11  2  0
 10 15  1  0
 11 12  1  0
 12 13  2  0
 14 13  1  0
 15 14  2  0
 16  5  1  0
 17 16  1  0
 18 16  1  0
 19 20  2  0
 19 18  1  0
 21 20  1  0
 22 23  1  0
 22 21  2  0
 23 19  1  0
  2 24  1  0
  7 25  1  0
 10 26  1  0
 12 27  1  0
 14 28  1  0
 16 29  1  1
 17 30  1  0
 17 31  1  0
 17 32  1  0
 18 33  1  0
 18 34  1  0
 20 35  1  0
 21 36  1  0
 22 37  1  0
M  ISO  8  24  14  25  14  26  14  27  14  28  14  29   8  30   8  31   8
M  ISO  6  32   8  33   8  34   8  35  14  36  14  37  14
M  END
>  <minimizedAffinity>  (1) 
-5.51560497

>  <minimizedRMSD>  (1) 
1.65089762

$$$$
