
     RDKit          3D

 33 35  0  0  1  0  0  0  0  0999 V2000
   35.1910   29.4690   48.6070 C   0  0  0  0  0  0  0  0  0  0  0  0
   34.7770   28.3020   49.2670 C   0  0  0  0  0  0  0  0  0  0  0  0
   33.6940   27.6680   48.7860 C   0  0  0  0  0  0  0  0  0  0  0  0
   33.0700   28.1710   47.7220 C   0  0  0  0  0  0  0  0  0  0  0  0
   34.0020   29.6630   47.2750 S   0  0  0  0  0  0  0  0  0  0  0  0
   38.0370   30.8900   50.5000 C   0  0  0  0  0  0  0  0  0  0  0  0
   38.5310   31.8480   49.5880 C   0  0  0  0  0  0  0  0  0  0  0  0
   37.8910   32.0020   48.3500 C   0  0  0  0  0  0  0  0  0  0  0  0
   36.8130   31.2030   48.0930 N   0  0  0  0  0  0  0  0  0  0  0  0
   36.3690   30.3100   48.9700 C   0  0  0  0  0  0  0  0  0  0  0  0
   36.9590   30.1390   50.1650 N   0  0  0  0  0  0  0  0  0  0  0  0
   31.8790   27.7150   46.9650 C   0  0  2  0  0  0  0  0  0  0  0  0
   31.0390   28.8820   46.6330 C   0  0  0  0  0  0  0  0  0  0  0  0
   31.1650   26.6570   47.7970 C   0  0  0  0  0  0  0  0  0  0  0  0
   29.9730   27.2100   48.4980 C   0  0  0  0  0  0  0  0  0  0  0  0
   30.0130   27.8170   49.7590 C   0  0  0  0  0  0  0  0  0  0  0  0
   28.7420   28.2160   50.1160 C   0  0  0  0  0  0  0  0  0  0  0  0
   27.9880   27.8210   49.0320 C   0  0  0  0  0  0  0  0  0  0  0  0
   28.7190   27.2430   48.1100 O   0  0  0  0  0  0  0  0  0  0  0  0
   35.3185   27.9204   50.1451 H   0  0  0  0  0  0  0  0  0  0  0  0
   33.3282   26.7472   49.2639 H   0  0  0  0  0  0  0  0  0  0  0  0
   38.5240   30.7537   51.4769 H   0  0  0  0  0  0  0  0  0  0  0  0
   39.4051   32.4644   49.8449 H   0  0  0  0  0  0  0  0  0  0  0  0
   38.2437   32.7387   47.6132 H   0  0  0  0  0  0  0  0  0  0  0  0
   32.1498   27.2492   46.0060 H   0  0  0  0  0  0  0  0  0  0  0  0
   30.6940   29.3613   47.5610 H   0  0  0  0  0  0  0  0  0  0  0  0
   31.6274   29.6020   46.0453 H   0  0  0  0  0  0  0  0  0  0  0  0
   30.1695   28.5526   46.0453 H   0  0  0  0  0  0  0  0  0  0  0  0
   30.8404   25.8423   47.1330 H   0  0  0  0  0  0  0  0  0  0  0  0
   31.8688   26.2920   48.5595 H   0  0  0  0  0  0  0  0  0  0  0  0
   30.9174   27.9543   50.3699 H   0  0  0  0  0  0  0  0  0  0  0  0
   28.4127   28.7224   51.0353 H   0  0  0  0  0  0  0  0  0  0  0  0
   26.9016   27.9728   48.9502 H   0  0  0  0  0  0  0  0  0  0  0  0
  1 10  1  0
  1  2  2  0
  3  2  1  0
  4  3  2  0
  5  4  1  0
  5  1  1  0
  7  6  2  0
  8  7  1  0
  9  8  2  0
  9 10  1  0
 10 11  2  0
 11  6  1  0
 12  4  1  0
 12 14  1  0
 13 12  1  0
 14 15  1  0
 15 16  2  0
 16 17  1  0
 18 17  2  0
 19 15  1  0
 19 18  1  0
  2 20  1  0
  3 21  1  0
  6 22  1  0
  7 23  1  0
  8 24  1  0
 12 25  1  6
 13 26  1  0
 13 27  1  0
 13 28  1  0
 14 29  1  0
 14 30  1  0
 16 31  1  0
 17 32  1  0
 18 33  1  0
M  ISO  8  20  14  21  14  22  14  23  14  24  14  25   8  26   8  27   8
M  ISO  6  28   8  29   8  30   8  31  14  32  14  33  14
M  END
>  <minimizedAffinity>  (1) 
-5.10254431

>  <minimizedRMSD>  (1) 
0.979146063

$$$$
