
     RDKit          3D

 34 37  0  0  1  0  0  0  0  0999 V2000
   38.5870   32.1960   48.0150 C   0  0  1  0  0  0  0  0  0  0  0  0
   37.9220   31.2640   48.9220 C   0  0  0  0  0  0  0  0  0  0  0  0
   38.4150   31.0940   50.1460 N   0  0  0  0  0  0  0  0  0  0  0  0
   37.8720   30.2430   51.0560 C   0  0  0  0  0  0  0  0  0  0  0  0
   36.7950   29.5100   50.7830 N   0  0  0  0  0  0  0  0  0  0  0  0
   36.2190   29.6090   49.5780 C   0  0  0  0  0  0  0  0  0  0  0  0
   35.1040   28.8680   49.2360 C   0  0  0  0  0  0  0  0  0  0  0  0
   34.5090   28.9500   48.0200 C   0  0  0  0  0  0  0  0  0  0  0  0
   35.0830   29.8250   47.1290 C   0  0  0  0  0  0  0  0  0  0  0  0
   36.1900   30.5550   47.4790 C   0  0  0  0  0  0  0  0  0  0  0  0
   36.8070   30.4880   48.6930 C   0  0  0  0  0  0  0  0  0  0  0  0
   39.1180   32.0730   46.6880 C   0  0  0  0  0  0  0  0  0  0  0  0
   39.8690   33.2100   46.3440 C   0  0  0  0  0  0  0  0  0  0  0  0
   40.6080   33.2100   45.1030 C   0  0  0  0  0  0  0  0  0  0  0  0
   40.5140   32.0850   44.3540 N   0  0  0  0  0  0  0  0  0  0  0  0
   39.7680   31.0120   44.7330 C   0  0  0  0  0  0  0  0  0  0  0  0
   39.0860   31.0000   45.8660 N   0  0  0  0  0  0  0  0  0  0  0  0
   39.7130   29.8630   43.8930 N   0  0  0  0  0  0  0  0  0  0  0  0
   40.5260   29.8090   42.7990 C   0  0  0  0  0  0  0  0  0  0  0  0
   40.2960   28.6430   42.1720 N   0  0  0  0  0  0  0  0  0  0  0  0
   39.3470   27.9670   42.8600 C   0  0  0  0  0  0  0  0  0  0  0  0
   38.9970   28.7350   43.9230 N   0  0  0  0  0  0  0  0  0  0  0  0
   38.2120   33.3820   48.4890 O   0  0  0  0  0  0  0  0  0  0  0  0
   39.5797   31.7436   47.8742 H   0  0  0  0  0  0  0  0  0  0  0  0
   38.3371   30.1573   52.0492 H   0  0  0  0  0  0  0  0  0  0  0  0
   34.6801   28.1810   49.9832 H   0  0  0  0  0  0  0  0  0  0  0  0
   33.6217   28.3530   47.7627 H   0  0  0  0  0  0  0  0  0  0  0  0
   34.6499   29.9410   46.1245 H   0  0  0  0  0  0  0  0  0  0  0  0
   36.6089   31.2418   46.7287 H   0  0  0  0  0  0  0  0  0  0  0  0
   39.8936   34.0858   47.0091 H   0  0  0  0  0  0  0  0  0  0  0  0
   41.2117   34.0727   44.7847 H   0  0  0  0  0  0  0  0  0  0  0  0
   41.2426   30.5825   42.4857 H   0  0  0  0  0  0  0  0  0  0  0  0
   38.9358   26.9791   42.6053 H   0  0  0  0  0  0  0  0  0  0  0  0
   38.2192   33.3591   49.4787 H   0  0  0  0  0  0  0  0  0  0  0  0
  1 23  1  0
  1  2  1  0
  2  3  2  0
  3  4  1  0
  5  4  2  0
  6  5  1  0
  7  6  2  0
  8  7  1  0
  9 10  1  0
  9  8  2  0
 10 11  2  0
 11  2  1  0
 11  6  1  0
 12  1  1  0
 13 12  2  0
 14 13  1  0
 15 16  1  0
 15 14  2  0
 16 17  2  0
 17 12  1  0
 18 22  1  0
 18 16  1  0
 19 18  1  0
 20 19  2  0
 20 21  1  0
 21 22  2  0
  1 24  1  1
  4 25  1  0
  7 26  1  0
  8 27  1  0
  9 28  1  0
 10 29  1  0
 13 30  1  0
 14 31  1  0
 19 32  1  0
 21 33  1  0
 23 34  1  0
M  END
>  <minimizedAffinity>  (1) 
-7.37351656

>  <minimizedRMSD>  (1) 
0.667569578

$$$$
