
     RDKit          3D

 20 21  0  0  0  0  0  0  0  0999 V2000
   37.4790   29.8600   51.2640 C   0  0  0  0  0  0  0  0  0  0  0  0
   37.9470   30.8380   50.3510 C   0  0  0  0  0  0  0  0  0  0  0  0
   37.0300   31.3880   49.4340 C   0  0  0  0  0  0  0  0  0  0  0  0
   35.7360   30.9470   49.4780 N   0  0  0  0  0  0  0  0  0  0  0  0
   35.3290   30.0160   50.3620 C   0  0  0  0  0  0  0  0  0  0  0  0
   36.1880   29.4780   51.2450 N   0  0  0  0  0  0  0  0  0  0  0  0
   33.9030   29.5710   50.3640 C   0  0  0  0  0  0  0  0  0  0  0  0
   33.6790   28.5040   49.3390 C   0  0  0  0  0  0  0  0  0  0  0  0
   34.5650   27.8190   48.5380 C   0  0  0  0  0  0  0  0  0  0  0  0
   33.8330   26.9360   47.7660 C   0  0  0  0  0  0  0  0  0  0  0  0
   32.5100   27.1260   48.1380 C   0  0  0  0  0  0  0  0  0  0  0  0
   32.4760   28.0630   49.0700 O   0  0  0  0  0  0  0  0  0  0  0  0
   38.1727   29.4116   51.9904 H   0  0  0  0  0  0  0  0  0  0  0  0
   38.9990   31.1592   50.3583 H   0  0  0  0  0  0  0  0  0  0  0  0
   37.3450   32.1489   48.7048 H   0  0  0  0  0  0  0  0  0  0  0  0
   33.6500   29.1748   51.3585 H   0  0  0  0  0  0  0  0  0  0  0  0
   33.2639   30.4329   50.1219 H   0  0  0  0  0  0  0  0  0  0  0  0
   35.6569   27.9504   48.5162 H   0  0  0  0  0  0  0  0  0  0  0  0
   34.2185   26.2310   47.0148 H   0  0  0  0  0  0  0  0  0  0  0  0
   31.6408   26.5903   47.7288 H   0  0  0  0  0  0  0  0  0  0  0  0
  2  1  2  0
  3  4  2  0
  3  2  1  0
  4  5  1  0
  5  7  1  0
  5  6  2  0
  6  1  1  0
  8  7  1  0
  9  8  2  0
 10 11  2  0
 10  9  1  0
 11 12  1  0
 12  8  1  0
  1 13  1  0
  2 14  1  0
  3 15  1  0
  7 16  1  0
  7 17  1  0
  9 18  1  0
 10 19  1  0
 11 20  1  0
M  ISO  8  13  14  14  14  15  14  16   8  17   8  18  14  19  14  20  14
M  END
>  <minimizedAffinity>  (1) 
-4.14359856

>  <minimizedRMSD>  (1) 
2.14754558

$$$$
