
     RDKit          3D

 52 56  0  0  1  0  0  0  0  0999 V2000
   38.4980   32.5750   44.7220 C   0  0  0  0  0  0  0  0  0  0  0  0
   37.8150   31.3840   44.3030 N   0  0  0  0  0  0  0  0  0  0  0  0
   36.5230   31.0100   44.3830 C   0  0  0  0  0  0  0  0  0  0  0  0
   36.4170   29.7860   43.8330 N   0  0  0  0  0  0  0  0  0  0  0  0
   37.6110   29.3620   43.3990 C   0  0  0  0  0  0  0  0  0  0  0  0
   38.0020   28.1900   42.7760 C   0  0  0  0  0  0  0  0  0  0  0  0
   37.2050   27.2610   42.4980 O   0  0  0  0  0  0  0  0  0  0  0  0
   39.2860   28.0050   42.4370 N   0  0  0  0  0  0  0  0  0  0  0  0
   40.1250   29.0090   42.7410 C   0  0  0  0  0  0  0  0  0  0  0  0
   41.5200   28.8680   42.3980 N   0  0  0  0  0  0  0  0  0  0  0  0
   39.7930   30.1620   43.3440 N   0  0  0  0  0  0  0  0  0  0  0  0
   38.5060   30.3750   43.6970 C   0  0  0  0  0  0  0  0  0  0  0  0
   39.7990   26.8240   41.7850 C   0  0  0  0  0  0  0  0  0  0  0  0
   40.0870   27.1680   40.3460 C   0  0  0  0  0  0  0  0  0  0  0  0
   38.9090   26.5970   39.5960 C   0  0  0  0  0  0  0  0  0  0  0  0
   38.4160   25.4390   40.4230 C   0  0  0  0  0  0  0  0  0  0  0  0
   38.9520   25.6210   41.8240 C   0  0  0  0  0  0  0  0  0  0  0  0
   39.5870   32.3060   45.7700 C   0  0  2  0  0  0  0  0  0  0  0  0
   37.6670   31.7770   48.8570 C   0  0  0  0  0  0  0  0  0  0  0  0
   38.0880   32.9460   49.5500 C   0  0  0  0  0  0  0  0  0  0  0  0
   39.2390   33.7710   48.3800 S   0  0  0  0  0  0  0  0  0  0  0  0
   38.9340   32.3390   47.1230 C   0  0  0  0  0  0  0  0  0  0  0  0
   38.2210   31.6930   47.6710 N   0  0  0  0  0  0  0  0  0  0  0  0
   37.0050   30.3220   50.7340 C   0  0  0  0  0  0  0  0  0  0  0  0
   36.7200   30.8750   49.4940 C   0  0  0  0  0  0  0  0  0  0  0  0
   35.4890   30.5180   48.9250 C   0  0  0  0  0  0  0  0  0  0  0  0
   34.6660   29.6800   49.5860 N   0  0  0  0  0  0  0  0  0  0  0  0
   34.9830   29.1710   50.7800 C   0  0  0  0  0  0  0  0  0  0  0  0
   36.1470   29.4920   51.3460 N   0  0  0  0  0  0  0  0  0  0  0  0
   40.6290   33.3520   45.7380 C   0  0  0  0  0  0  0  0  0  0  0  0
   37.7608   33.2684   45.1529 H   0  0  0  0  0  0  0  0  0  0  0  0
   38.9925   32.9992   43.8357 H   0  0  0  0  0  0  0  0  0  0  0  0
   35.7026   31.5988   44.8192 H   0  0  0  0  0  0  0  0  0  0  0  0
   42.1839   29.6235   42.6203 H   0  0  0  0  0  0  0  0  0  0  0  0
   41.8515   28.0119   41.9310 H   0  0  0  0  0  0  0  0  0  0  0  0
   40.6940   26.5468   42.3613 H   0  0  0  0  0  0  0  0  0  0  0  0
   40.1482   28.2576   40.2084 H   0  0  0  0  0  0  0  0  0  0  0  0
   41.0491   26.7649   39.9969 H   0  0  0  0  0  0  0  0  0  0  0  0
   38.1191   27.3551   39.4896 H   0  0  0  0  0  0  0  0  0  0  0  0
   39.1917   26.2780   38.5819 H   0  0  0  0  0  0  0  0  0  0  0  0
   37.3162   25.4307   40.4397 H   0  0  0  0  0  0  0  0  0  0  0  0
   38.7599   24.4847   39.9974 H   0  0  0  0  0  0  0  0  0  0  0  0
   39.5469   24.7450   42.1217 H   0  0  0  0  0  0  0  0  0  0  0  0
   38.1369   25.7274   42.5550 H   0  0  0  0  0  0  0  0  0  0  0  0
   40.0575   31.3342   45.5596 H   0  0  0  0  0  0  0  0  0  0  0  0
   37.7922   33.2793   50.5557 H   0  0  0  0  0  0  0  0  0  0  0  0
   37.9567   30.5699   51.2268 H   0  0  0  0  0  0  0  0  0  0  0  0
   35.1965   30.9200   47.9438 H   0  0  0  0  0  0  0  0  0  0  0  0
   34.2875   28.4908   51.2934 H   0  0  0  0  0  0  0  0  0  0  0  0
   40.9036   33.6276   46.7669 H   0  0  0  0  0  0  0  0  0  0  0  0
   41.5161   32.9699   45.2116 H   0  0  0  0  0  0  0  0  0  0  0  0
   40.2435   34.2376   45.2116 H   0  0  0  0  0  0  0  0  0  0  0  0
  1 18  1  0
  2  3  1  0
  2  1  1  0
  4  3  2  0
  5 12  2  0
  5  4  1  0
  6  5  1  0
  7  6  2  0
  8  9  1  0
  8  6  1  0
  9 11  2  0
 10  9  1  0
 11 12  1  0
 12  2  1  0
 13 17  1  0
 13  8  1  0
 14 13  1  0
 15 14  1  0
 15 16  1  0
 16 17  1  0
 18 22  1  0
 19 25  1  0
 19 20  2  0
 21 20  1  0
 22 23  2  0
 22 21  1  0
 23 19  1  0
 24 29  2  0
 25 24  1  0
 26 25  2  0
 26 27  1  0
 27 28  2  0
 28 29  1  0
 30 18  1  0
  1 31  1  0
  1 32  1  0
  3 33  1  0
 10 34  1  0
 10 35  1  0
 13 36  1  0
 14 37  1  0
 14 38  1  0
 15 39  1  0
 15 40  1  0
 16 41  1  0
 16 42  1  0
 17 43  1  0
 17 44  1  0
 18 45  1  6
 20 46  1  0
 24 47  1  0
 26 48  1  0
 28 49  1  0
 30 50  1  0
 30 51  1  0
 30 52  1  0
M  ISO  8  31   8  32   8  33  14  36  13  37  13  38  13  39  13  40  13
M  ISO  8  41  13  42  13  43  13  44  13  45   8  46  14  47  14  48  14
M  ISO  4  49  14  50   8  51   8  52   8
M  END
>  <minimizedAffinity>  (1) 
-6.23819971

>  <minimizedRMSD>  (1) 
0.439875603

$$$$
