
     RDKit          3D

 39 41  0  0  0  0  0  0  0  0999 V2000
   37.4790   31.2290   46.8890 C   0  0  0  0  0  0  0  0  0  0  0  0
   38.1020   31.8830   45.8070 N   0  0  0  0  0  0  0  0  0  0  0  0
   39.2070   32.5880   45.7620 C   0  0  0  0  0  0  0  0  0  0  0  0
   39.7240   33.1850   44.6480 C   0  0  0  0  0  0  0  0  0  0  0  0
   39.0730   33.0700   43.4560 C   0  0  0  0  0  0  0  0  0  0  0  0
   39.4870   33.5890   42.4040 O   0  0  0  0  0  0  0  0  0  0  0  0
   37.9470   32.3670   43.4490 N   0  0  0  0  0  0  0  0  0  0  0  0
   37.5060   31.8120   44.5810 C   0  0  0  0  0  0  0  0  0  0  0  0
   36.4250   31.1670   44.4540 O   0  0  0  0  0  0  0  0  0  0  0  0
   37.2660   32.2540   42.1760 C   0  0  0  0  0  0  0  0  0  0  0  0
   38.0980   31.5520   41.1290 C   0  0  0  0  0  0  0  0  0  0  0  0
   37.3840   31.9170   39.8290 C   0  0  0  0  0  0  0  0  0  0  0  0
   36.3450   32.9560   40.1830 C   0  0  0  0  0  0  0  0  0  0  0  0
   36.9500   33.5240   41.4840 C   0  0  0  0  0  0  0  0  0  0  0  0
   38.2680   30.9000   48.0840 C   0  0  0  0  0  0  0  0  0  0  0  0
   35.6650   29.1370   50.1590 C   0  0  0  0  0  0  0  0  0  0  0  0
   36.3470   29.6200   49.0190 C   0  0  0  0  0  0  0  0  0  0  0  0
   37.4870   30.3520   49.2050 C   0  0  0  0  0  0  0  0  0  0  0  0
   37.9310   30.5940   50.4830 N   0  0  0  0  0  0  0  0  0  0  0  0
   37.2780   30.1330   51.5390 C   0  0  0  0  0  0  0  0  0  0  0  0
   36.1530   29.4080   51.3940 N   0  0  0  0  0  0  0  0  0  0  0  0
   37.0747   30.2823   46.5014 H   0  0  0  0  0  0  0  0  0  0  0  0
   36.7508   31.9681   47.2543 H   0  0  0  0  0  0  0  0  0  0  0  0
   39.7651   32.7087   46.7022 H   0  0  0  0  0  0  0  0  0  0  0  0
   40.6618   33.7563   44.7123 H   0  0  0  0  0  0  0  0  0  0  0  0
   36.3562   31.7233   42.4932 H   0  0  0  0  0  0  0  0  0  0  0  0
   39.1332   31.9241   41.1305 H   0  0  0  0  0  0  0  0  0  0  0  0
   38.1784   30.4671   41.2920 H   0  0  0  0  0  0  0  0  0  0  0  0
   36.9000   31.0275   39.3993 H   0  0  0  0  0  0  0  0  0  0  0  0
   38.0932   32.3040   39.0825 H   0  0  0  0  0  0  0  0  0  0  0  0
   36.2599   33.7276   39.4037 H   0  0  0  0  0  0  0  0  0  0  0  0
   35.3216   32.5658   40.2847 H   0  0  0  0  0  0  0  0  0  0  0  0
   37.8525   34.1224   41.2906 H   0  0  0  0  0  0  0  0  0  0  0  0
   36.3003   34.2142   42.0421 H   0  0  0  0  0  0  0  0  0  0  0  0
   39.0271   30.1565   47.7994 H   0  0  0  0  0  0  0  0  0  0  0  0
   38.7013   31.8462   48.4404 H   0  0  0  0  0  0  0  0  0  0  0  0
   34.7447   28.5454   50.0446 H   0  0  0  0  0  0  0  0  0  0  0  0
   35.9699   29.4121   48.0068 H   0  0  0  0  0  0  0  0  0  0  0  0
   37.6601   30.3454   52.5484 H   0  0  0  0  0  0  0  0  0  0  0  0
  1 15  1  0
  2  1  1  0
  3  2  1  0
  4  3  2  0
  5  4  1  0
  6  5  2  0
  7  5  1  0
  7  8  1  0
  8  2  1  0
  9  8  2  0
 10  7  1  0
 11 10  1  0
 12 13  1  0
 12 11  1  0
 13 14  1  0
 14 10  1  0
 15 18  1  0
 16 21  2  0
 17 18  2  0
 17 16  1  0
 18 19  1  0
 19 20  2  0
 21 20  1  0
  1 22  1  0
  1 23  1  0
  3 24  1  0
  4 25  1  0
 10 26  1  0
 11 27  1  0
 11 28  1  0
 12 29  1  0
 12 30  1  0
 13 31  1  0
 13 32  1  0
 14 33  1  0
 14 34  1  0
 15 35  1  0
 15 36  1  0
 16 37  1  0
 17 38  1  0
 20 39  1  0
M  ISO  8  22   8  23   8  24  14  25  14  26  13  27  13  28  13  29  13
M  ISO  8  30  13  31  13  32  13  33  13  34  13  35   8  36   8  37  14
M  ISO  2  38  14  39  14
M  END
>  <minimizedAffinity>  (1) 
-5.14128923

>  <minimizedRMSD>  (1) 
1.3578105

$$$$
