
     RDKit          3D

 18 19  0  0  0  0  0  0  0  0999 V2000
   37.1570   31.6620   49.0070 C   0  0  0  0  0  0  0  0  0  0  0  0
   38.0580   32.6650   49.4270 C   0  0  0  0  0  0  0  0  0  0  0  0
   38.9770   33.1260   48.4680 C   0  0  0  0  0  0  0  0  0  0  0  0
   38.9630   32.6090   47.2210 N   0  0  0  0  0  0  0  0  0  0  0  0
   38.0700   31.6420   46.8690 C   0  0  0  0  0  0  0  0  0  0  0  0
   37.1710   31.1660   47.7490 N   0  0  0  0  0  0  0  0  0  0  0  0
   36.2520   31.1970   49.9280 O   0  0  0  0  0  0  0  0  0  0  0  0
   36.3520   30.0550   50.7250 C   0  0  0  0  0  0  0  0  0  0  0  0
   37.4910   29.1010   50.6010 C   0  0  0  0  0  0  0  0  0  0  0  0
   37.3120   29.9660   51.8540 C   0  0  0  0  0  0  0  0  0  0  0  0
   38.0417   33.0650   50.4516 H   0  0  0  0  0  0  0  0  0  0  0  0
   39.7057   33.9061   48.7332 H   0  0  0  0  0  0  0  0  0  0  0  0
   38.0846   31.2424   45.8442 H   0  0  0  0  0  0  0  0  0  0  0  0
   35.2597   29.9586   50.6382 H   0  0  0  0  0  0  0  0  0  0  0  0
   37.3121   28.0166   50.6470 H   0  0  0  0  0  0  0  0  0  0  0  0
   38.2977   28.9322   49.8725 H   0  0  0  0  0  0  0  0  0  0  0  0
   38.0054   30.7957   52.0560 H   0  0  0  0  0  0  0  0  0  0  0  0
   37.2341   29.7724   52.9340 H   0  0  0  0  0  0  0  0  0  0  0  0
  1  2  2  0
  1  7  1  0
  3  2  1  0
  4  3  2  0
  5  4  1  0
  5  6  2  0
  6  1  1  0
  7  8  1  0
  8 10  1  0
  9  8  1  0
  9 10  1  0
  2 11  1  0
  3 12  1  0
  5 13  1  0
  8 14  1  0
  9 15  1  0
  9 16  1  0
 10 17  1  0
 10 18  1  0
M  ISO  8  11  14  12  14  13  14  14  13  15  13  16  13  17  13  18  13
M  END
>  <minimizedAffinity>  (1) 
-3.96259689

>  <minimizedRMSD>  (1) 
2.87017179

$$$$
