
     RDKit          3D

 26 29  0  0  0  0  0  0  0  0999 V2000
   38.2900   31.3630   48.1160 C   0  0  0  0  0  0  0  0  0  0  0  0
   38.9360   32.5530   48.0380 N   0  0  0  0  0  0  0  0  0  0  0  0
   39.3360   32.7600   46.8220 O   0  0  0  0  0  0  0  0  0  0  0  0
   38.9710   31.7340   46.0970 C   0  0  0  0  0  0  0  0  0  0  0  0
   38.3160   30.8440   46.8690 N   0  0  0  0  0  0  0  0  0  0  0  0
   39.2740   31.6780   44.7100 N   0  0  0  0  0  0  0  0  0  0  0  0
   39.5820   32.7730   43.9640 C   0  0  0  0  0  0  0  0  0  0  0  0
   39.8270   32.4400   42.6810 N   0  0  0  0  0  0  0  0  0  0  0  0
   39.6770   31.0970   42.5770 C   0  0  0  0  0  0  0  0  0  0  0  0
   39.7940   30.1950   41.5380 C   0  0  0  0  0  0  0  0  0  0  0  0
   39.5630   28.8910   41.8190 N   0  0  0  0  0  0  0  0  0  0  0  0
   39.2300   28.4450   43.0490 C   0  0  0  0  0  0  0  0  0  0  0  0
   39.1220   29.3520   44.0510 N   0  0  0  0  0  0  0  0  0  0  0  0
   39.3380   30.6630   43.8400 C   0  0  0  0  0  0  0  0  0  0  0  0
   37.3850   30.1740   51.5690 C   0  0  0  0  0  0  0  0  0  0  0  0
   38.0370   30.8670   50.5540 C   0  0  0  0  0  0  0  0  0  0  0  0
   37.6620   30.6780   49.2330 C   0  0  0  0  0  0  0  0  0  0  0  0
   36.6450   29.7980   48.9600 N   0  0  0  0  0  0  0  0  0  0  0  0
   36.0290   29.1350   49.9780 C   0  0  0  0  0  0  0  0  0  0  0  0
   36.3820   29.3110   51.2580 N   0  0  0  0  0  0  0  0  0  0  0  0
   39.6256   33.7993   44.3575 H   0  0  0  0  0  0  0  0  0  0  0  0
   40.0639   30.5227   40.5232 H   0  0  0  0  0  0  0  0  0  0  0  0
   39.0512   27.3754   43.2331 H   0  0  0  0  0  0  0  0  0  0  0  0
   37.6798   30.3238   52.6181 H   0  0  0  0  0  0  0  0  0  0  0  0
   38.8506   31.5653   50.7999 H   0  0  0  0  0  0  0  0  0  0  0  0
   35.2160   28.4329   49.7414 H   0  0  0  0  0  0  0  0  0  0  0  0
  1 17  1  0
  2  1  2  0
  3  2  1  0
  4  3  1  0
  4  5  2  0
  5  1  1  0
  6  4  1  0
  7  6  1  0
  8  7  2  0
  9  8  1  0
  9 14  2  0
 10 11  2  0
 10  9  1  0
 11 12  1  0
 12 13  2  0
 14 13  1  0
 14  6  1  0
 16 15  2  0
 17 16  1  0
 18 17  2  0
 18 19  1  0
 19 20  2  0
 20 15  1  0
  7 21  1  0
 10 22  1  0
 12 23  1  0
 15 24  1  0
 16 25  1  0
 19 26  1  0
M  ISO  6  21  14  22  14  23  14  24  14  25  14  26  14
M  END
>  <minimizedAffinity>  (1) 
-6.12637711

>  <minimizedRMSD>  (1) 
0.733543038

$$$$
