
     RDKit          3D

 44 48  0  0  1  0  0  0  0  0999 V2000
   35.5090   30.4030   47.3030 C   0  0  0  0  0  0  0  0  0  0  0  0
   36.6020   30.6040   48.1300 C   0  0  0  0  0  0  0  0  0  0  0  0
   36.7020   29.6600   49.2020 C   0  0  0  0  0  0  0  0  0  0  0  0
   35.7680   28.6810   49.3340 N   0  0  0  0  0  0  0  0  0  0  0  0
   34.7470   28.5600   48.4940 C   0  0  0  0  0  0  0  0  0  0  0  0
   34.6130   29.4200   47.4750 N   0  0  0  0  0  0  0  0  0  0  0  0
   37.6350   31.6100   48.0710 C   0  0  0  0  0  0  0  0  0  0  0  0
   37.5930   32.4320   49.1680 C   0  0  0  0  0  0  0  0  0  0  0  0
   38.5020   33.4810   49.3200 C   0  0  0  0  0  0  0  0  0  0  0  0
   39.4600   33.6950   48.3520 C   0  0  0  0  0  0  0  0  0  0  0  0
   39.4800   32.8590   47.2660 C   0  0  0  0  0  0  0  0  0  0  0  0
   40.4150   32.9860   46.2190 C   0  0  0  0  0  0  0  0  0  0  0  0
   40.3890   32.1210   45.1540 C   0  0  0  0  0  0  0  0  0  0  0  0
   39.4770   31.1170   45.0610 C   0  0  0  0  0  0  0  0  0  0  0  0
   38.5490   30.9720   46.0800 C   0  0  0  0  0  0  0  0  0  0  0  0
   38.5840   31.8380   47.1330 C   0  0  0  0  0  0  0  0  0  0  0  0
   33.7620   27.4560   48.6990 C   0  0  1  0  0  0  0  0  0  0  0  0
   32.3080   27.8080   48.8150 C   0  0  0  0  0  0  0  0  0  0  0  0
   32.8370   27.0750   47.5970 C   0  0  2  0  0  0  0  0  0  0  0  0
   32.4860   25.3290   47.3460 S   0  0  0  0  0  0  0  0  0  0  0  0
   30.8680   25.1960   46.5960 C   0  0  0  0  0  0  0  0  0  0  0  0
   30.5540   24.0860   45.8070 C   0  0  0  0  0  0  0  0  0  0  0  0
   29.3370   23.8750   45.1780 C   0  0  0  0  0  0  0  0  0  0  0  0
   28.4180   24.8610   45.3830 C   0  0  0  0  0  0  0  0  0  0  0  0
   28.6290   26.0040   46.1490 C   0  0  0  0  0  0  0  0  0  0  0  0
   29.8680   26.1340   46.7390 C   0  0  0  0  0  0  0  0  0  0  0  0
   35.3677   31.0899   46.4555 H   0  0  0  0  0  0  0  0  0  0  0  0
   37.5341   29.7269   49.9183 H   0  0  0  0  0  0  0  0  0  0  0  0
   36.8298   32.2619   49.9417 H   0  0  0  0  0  0  0  0  0  0  0  0
   38.4540   34.1318   50.2055 H   0  0  0  0  0  0  0  0  0  0  0  0
   40.1881   34.5139   48.4485 H   0  0  0  0  0  0  0  0  0  0  0  0
   41.1710   33.7842   46.2558 H   0  0  0  0  0  0  0  0  0  0  0  0
   41.1296   32.2438   44.3500 H   0  0  0  0  0  0  0  0  0  0  0  0
   39.4757   30.4358   44.1973 H   0  0  0  0  0  0  0  0  0  0  0  0
   37.7961   30.1711   46.0401 H   0  0  0  0  0  0  0  0  0  0  0  0
   34.4821   26.9009   49.3180 H   0  0  0  0  0  0  0  0  0  0  0  0
   31.6689   27.2839   49.5408 H   0  0  0  0  0  0  0  0  0  0  0  0
   31.7375   28.7328   48.9857 H   0  0  0  0  0  0  0  0  0  0  0  0
   32.7771   27.2537   46.5133 H   0  0  0  0  0  0  0  0  0  0  0  0
   31.3329   23.3206   45.6750 H   0  0  0  0  0  0  0  0  0  0  0  0
   29.1299   22.9859   44.5644 H   0  0  0  0  0  0  0  0  0  0  0  0
   27.4336   24.7443   44.9062 H   0  0  0  0  0  0  0  0  0  0  0  0
   27.8458   26.7657   46.2771 H   0  0  0  0  0  0  0  0  0  0  0  0
   30.0676   27.0259   47.3511 H   0  0  0  0  0  0  0  0  0  0  0  0
  1  6  2  0
  1  2  1  0
  2  3  2  0
  3  4  1  0
  5 17  1  0
  5  4  2  0
  6  5  1  0
  7  2  1  0
  7  8  2  0
  8  9  1  0
 10  9  2  0
 11 10  1  0
 12 11  2  0
 13 12  1  0
 14 13  2  0
 14 15  1  0
 15 16  2  0
 16 11  1  0
 16  7  1  0
 17 18  1  0
 19 17  1  0
 19 18  1  0
 20 19  1  0
 21 26  1  0
 21 20  1  0
 22 21  2  0
 23 24  2  0
 23 22  1  0
 24 25  1  0
 25 26  2  0
  1 27  1  0
  3 28  1  0
  8 29  1  0
  9 30  1  0
 10 31  1  0
 12 32  1  0
 13 33  1  0
 14 34  1  0
 15 35  1  0
 17 36  1  1
 18 37  1  0
 18 38  1  0
 19 39  1  6
 22 40  1  0
 23 41  1  0
 24 42  1  0
 25 43  1  0
 26 44  1  0
M  ISO  8  27  14  28  14  29  14  30  14  31  14  32  14  33  14  34  14
M  ISO  8  35  14  36  13  37  13  38  13  39  13  40  14  41  14  42  14
M  ISO  2  43  14  44  14
M  END
>  <minimizedAffinity>  (1) 
-6.85452938

>  <minimizedRMSD>  (1) 
0.963817239

$$$$
