
     RDKit          3D

 31 33  0  0  0  0  0  0  0  0999 V2000
   36.9460   29.8940   49.8970 C   0  0  0  0  0  0  0  0  0  0  0  0
   38.0020   30.6730   49.4560 C   0  0  0  0  0  0  0  0  0  0  0  0
   37.9880   31.1280   48.1320 C   0  0  0  0  0  0  0  0  0  0  0  0
   36.9480   30.7820   47.3590 N   0  0  0  0  0  0  0  0  0  0  0  0
   35.9280   30.0190   47.8170 C   0  0  0  0  0  0  0  0  0  0  0  0
   35.9510   29.5880   49.0840 N   0  0  0  0  0  0  0  0  0  0  0  0
   39.0530   31.9330   47.6630 N   0  0  0  0  0  0  0  0  0  0  0  0
   38.9400   32.6190   46.4220 C   0  0  0  0  0  0  0  0  0  0  0  0
   37.8910   32.4040   45.6870 N   0  0  0  0  0  0  0  0  0  0  0  0
   39.9680   33.5110   46.0250 N   0  0  0  0  0  0  0  0  0  0  0  0
   37.8640   32.8470   44.7410 H   0  0  0  0  0  0  0  0  0  0  0  0
   34.8340   29.6580   46.9950 N   0  0  0  0  0  0  0  0  0  0  0  0
   34.7020   29.9150   45.6770 C   0  0  0  0  0  0  0  0  0  0  0  0
   33.5160   29.3960   45.3030 N   0  0  0  0  0  0  0  0  0  0  0  0
   32.8930   28.8160   46.3630 C   0  0  0  0  0  0  0  0  0  0  0  0
   31.6800   28.1750   46.4300 C   0  0  0  0  0  0  0  0  0  0  0  0
   31.3470   27.7080   47.6340 N   0  0  0  0  0  0  0  0  0  0  0  0
   32.1520   27.8590   48.7040 C   0  0  0  0  0  0  0  0  0  0  0  0
   33.3570   28.4970   48.6270 N   0  0  0  0  0  0  0  0  0  0  0  0
   33.7480   28.9900   47.4390 C   0  0  0  0  0  0  0  0  0  0  0  0
   36.9600   29.4120   51.3160 C   0  0  0  0  0  0  0  0  0  0  0  0
   35.6520   29.1330   51.7190 F   0  0  0  0  0  0  0  0  0  0  0  0
   37.8040   28.3730   51.4270 F   0  0  0  0  0  0  0  0  0  0  0  0
   37.3890   30.4990   52.1050 F   0  0  0  0  0  0  0  0  0  0  0  0
   38.8328   30.9286   50.1302 H   0  0  0  0  0  0  0  0  0  0  0  0
   39.9133   32.0226   48.2223 H   0  0  0  0  0  0  0  0  0  0  0  0
   39.8965   34.0130   45.1284 H   0  0  0  0  0  0  0  0  0  0  0  0
   40.7864   33.6571   46.6331 H   0  0  0  0  0  0  0  0  0  0  0  0
   35.4210   30.4441   45.0343 H   0  0  0  0  0  0  0  0  0  0  0  0
   31.0286   28.0552   45.5517 H   0  0  0  0  0  0  0  0  0  0  0  0
   31.8271   27.4541   49.6738 H   0  0  0  0  0  0  0  0  0  0  0  0
  1 21  1  0
  2  1  2  0
  3  2  1  0
  4  5  1  0
  4  3  2  0
  5  6  2  0
  6  1  1  0
  7  3  1  0
  8  7  1  0
  9  8  2  0
 10  8  1  0
 11  9  1  0
 12 20  1  0
 12  5  1  0
 13 12  1  0
 14 13  2  0
 14 15  1  0
 15 16  2  0
 15 20  1  0
 16 17  1  0
 17 18  2  0
 19 18  1  0
 20 19  2  0
 21 23  1  0
 21 22  1  0
 21 24  1  0
  2 25  1  0
  7 26  1  0
 10 27  1  0
 10 28  1  0
 13 29  1  0
 16 30  1  0
 18 31  1  0
M  END
>  <minimizedAffinity>  (1) 
-7.53608608

>  <minimizedRMSD>  (1) 
0.307487398

$$$$
