
     RDKit          3D

 48 52  0  0  0  0  0  0  0  0999 V2000
   35.9730   31.0920   42.7220 C   0  0  0  0  0  0  0  0  0  0  0  0
   37.1370   30.7780   41.9920 C   0  0  0  0  0  0  0  0  0  0  0  0
   38.2420   30.4420   42.7100 C   0  0  0  0  0  0  0  0  0  0  0  0
   38.1190   30.4410   44.0260 N   0  0  0  0  0  0  0  0  0  0  0  0
   37.0950   30.7140   44.7640 C   0  0  0  0  0  0  0  0  0  0  0  0
   36.0300   31.0400   44.0510 N   0  0  0  0  0  0  0  0  0  0  0  0
   36.8520   30.7440   46.1920 C   0  0  0  0  0  0  0  0  0  0  0  0
   35.8580   29.9860   46.8140 C   0  0  0  0  0  0  0  0  0  0  0  0
   35.6000   29.9860   48.1500 C   0  0  0  0  0  0  0  0  0  0  0  0
   36.3510   30.7750   48.9910 C   0  0  0  0  0  0  0  0  0  0  0  0
   37.3210   31.5240   48.4490 C   0  0  0  0  0  0  0  0  0  0  0  0
   38.0730   32.3160   49.3010 C   0  0  0  0  0  0  0  0  0  0  0  0
   39.0800   33.1100   48.8350 C   0  0  0  0  0  0  0  0  0  0  0  0
   39.3390   33.1070   47.4730 C   0  0  0  0  0  0  0  0  0  0  0  0
   38.5780   32.3140   46.6640 C   0  0  0  0  0  0  0  0  0  0  0  0
   37.5730   31.5160   47.0960 C   0  0  0  0  0  0  0  0  0  0  0  0
   36.0640   30.7510   50.3340 O   0  0  0  0  0  0  0  0  0  0  0  0
   36.5210   29.6880   51.1530 C   0  0  0  0  0  0  0  0  0  0  0  0
   37.3240   28.7770   50.5360 F   0  0  0  0  0  0  0  0  0  0  0  0
   37.2860   30.2520   52.1610 F   0  0  0  0  0  0  0  0  0  0  0  0
   35.3870   29.0820   51.6750 F   0  0  0  0  0  0  0  0  0  0  0  0
   37.1970   30.8010   40.5690 N   0  0  0  0  0  0  0  0  0  0  0  0
   37.0540   29.8030   39.6650 C   0  0  0  0  0  0  0  0  0  0  0  0
   37.1800   30.2400   38.4200 N   0  0  0  0  0  0  0  0  0  0  0  0
   37.4110   31.5450   38.4510 C   0  0  0  0  0  0  0  0  0  0  0  0
   37.6320   32.5900   37.5670 C   0  0  0  0  0  0  0  0  0  0  0  0
   37.8400   33.8440   37.9810 N   0  0  0  0  0  0  0  0  0  0  0  0
   37.8430   34.1510   39.2910 C   0  0  0  0  0  0  0  0  0  0  0  0
   37.6330   33.1770   40.2110 N   0  0  0  0  0  0  0  0  0  0  0  0
   37.4230   31.8970   39.7880 C   0  0  0  0  0  0  0  0  0  0  0  0
   39.4920   30.0970   42.1280 N   0  0  0  0  0  0  0  0  0  0  0  0
   40.6640   29.9080   42.8890 C   0  0  0  0  0  0  0  0  0  0  0  0
   40.8860   30.7120   43.8770 N   0  0  0  0  0  0  0  0  0  0  0  0
   41.5630   28.8690   42.5720 N   0  0  0  0  0  0  0  0  0  0  0  0
   41.6710   30.7020   44.5180 H   0  0  0  0  0  0  0  0  0  0  0  0
   35.0422   31.3726   42.2073 H   0  0  0  0  0  0  0  0  0  0  0  0
   35.2367   29.3403   46.1760 H   0  0  0  0  0  0  0  0  0  0  0  0
   34.7939   29.3575   48.5564 H   0  0  0  0  0  0  0  0  0  0  0  0
   37.8531   32.3046   50.3787 H   0  0  0  0  0  0  0  0  0  0  0  0
   39.6701   33.7353   49.5211 H   0  0  0  0  0  0  0  0  0  0  0  0
   40.1416   33.7311   47.0530 H   0  0  0  0  0  0  0  0  0  0  0  0
   38.7962   32.3238   45.5859 H   0  0  0  0  0  0  0  0  0  0  0  0
   36.8567   28.7543   39.9321 H   0  0  0  0  0  0  0  0  0  0  0  0
   37.6363   32.3799   36.4873 H   0  0  0  0  0  0  0  0  0  0  0  0
   38.0151   35.1881   39.6146 H   0  0  0  0  0  0  0  0  0  0  0  0
   39.5440   29.9800   41.1060 H   0  0  0  0  0  0  0  0  0  0  0  0
   42.4168   28.7377   43.1329 H   0  0  0  0  0  0  0  0  0  0  0  0
   41.3659   28.2413   41.7795 H   0  0  0  0  0  0  0  0  0  0  0  0
  1  6  2  0
  2  3  2  0
  2  1  1  0
  3  4  1  0
  4  5  2  0
  5  7  1  0
  6  5  1  0
  7  8  2  0
  7 16  1  0
  8  9  1  0
  9 10  2  0
 10 17  1  0
 11 10  1  0
 11 12  2  0
 13 12  1  0
 14 13  2  0
 15 16  2  0
 15 14  1  0
 16 11  1  0
 17 18  1  0
 18 21  1  0
 18 20  1  0
 19 18  1  0
 22  2  1  0
 23 22  1  0
 24 25  1  0
 24 23  2  0
 25 30  2  0
 26 27  2  0
 26 25  1  0
 27 28  1  0
 28 29  2  0
 30 29  1  0
 30 22  1  0
 31  3  1  0
 31 32  1  0
 32 33  2  0
 33 35  1  0
 34 32  1  0
  1 36  1  0
  8 37  1  0
  9 38  1  0
 12 39  1  0
 13 40  1  0
 14 41  1  0
 15 42  1  0
 23 43  1  0
 26 44  1  0
 28 45  1  0
 31 46  1  0
 34 47  1  0
 34 48  1  0
M  ISO  8  36  14  37  14  38  14  39  14  40  14  41  14  42  14  43  14
M  ISO  2  44  14  45  14
M  END
>  <minimizedAffinity>  (1) 
-7.58951616

>  <minimizedRMSD>  (1) 
1.21278512

$$$$
