
     RDKit          3D

 40 42  0  0  1  0  0  0  0  0999 V2000
   37.5340   30.7370   46.7050 C   0  0  0  0  0  0  0  0  0  0  0  0
   37.9020   30.5720   47.8830 O   0  0  0  0  0  0  0  0  0  0  0  0
   38.4630   31.4380   45.8890 N   0  0  0  0  0  0  0  0  0  0  0  0
   38.7020   30.8730   44.5680 C   0  0  0  0  0  0  0  0  0  0  0  0
   39.9910   31.3890   43.9630 C   0  0  0  0  0  0  0  0  0  0  0  0
   40.8750   31.6140   45.0010 O   0  0  0  0  0  0  0  0  0  0  0  0
   40.4760   32.8070   45.6120 C   0  0  0  0  0  0  0  0  0  0  0  0
   39.1480   32.6360   46.3070 C   0  0  2  0  0  0  0  0  0  0  0  0
   34.0180   29.3800   46.7270 C   0  0  0  0  0  0  0  0  0  0  0  0
   35.2810   29.8830   47.2120 C   0  0  0  0  0  0  0  0  0  0  0  0
   36.2450   30.2240   46.2750 C   0  0  0  0  0  0  0  0  0  0  0  0
   35.9250   30.0580   44.9500 N   0  0  0  0  0  0  0  0  0  0  0  0
   34.7430   29.5870   44.5560 C   0  0  0  0  0  0  0  0  0  0  0  0
   33.8130   29.2570   45.4310 N   0  0  0  0  0  0  0  0  0  0  0  0
   34.5850   29.4760   43.0710 C   0  0  0  0  0  0  0  0  0  0  0  0
   35.0600   30.6200   42.4490 F   0  0  0  0  0  0  0  0  0  0  0  0
   35.3640   28.4250   42.5990 F   0  0  0  0  0  0  0  0  0  0  0  0
   33.2830   29.2010   42.6930 F   0  0  0  0  0  0  0  0  0  0  0  0
   33.0670   29.0440   47.6870 O   0  0  0  0  0  0  0  0  0  0  0  0
   33.2910   28.2110   48.7710 C   0  0  0  0  0  0  0  0  0  0  0  0
   34.1250   27.1420   48.4700 F   0  0  0  0  0  0  0  0  0  0  0  0
   33.7150   28.8520   49.8990 F   0  0  0  0  0  0  0  0  0  0  0  0
   32.0230   27.6760   49.0760 F   0  0  0  0  0  0  0  0  0  0  0  0
   39.4710   32.4370   47.6660 O   0  0  0  0  0  0  0  0  0  0  0  0
   39.0490   33.6310   48.2910 C   0  0  0  0  0  0  0  0  0  0  0  0
   38.0800   33.4870   49.4680 C   0  0  0  0  0  0  0  0  0  0  0  0
   39.5030   33.9320   49.6680 C   0  0  0  0  0  0  0  0  0  0  0  0
   38.7619   29.7780   44.6541 H   0  0  0  0  0  0  0  0  0  0  0  0
   37.8714   31.1719   43.9117 H   0  0  0  0  0  0  0  0  0  0  0  0
   40.4066   30.6420   43.2707 H   0  0  0  0  0  0  0  0  0  0  0  0
   39.8109   32.3161   43.3990 H   0  0  0  0  0  0  0  0  0  0  0  0
   41.2342   33.1044   46.3514 H   0  0  0  0  0  0  0  0  0  0  0  0
   40.3712   33.5813   44.8377 H   0  0  0  0  0  0  0  0  0  0  0  0
   38.5070   33.5037   46.0921 H   0  0  0  0  0  0  0  0  0  0  0  0
   35.4727   29.9923   48.2896 H   0  0  0  0  0  0  0  0  0  0  0  0
   39.0697   34.1872   47.3422 H   0  0  0  0  0  0  0  0  0  0  0  0
   37.2528   34.2007   49.5956 H   0  0  0  0  0  0  0  0  0  0  0  0
   37.4421   32.6855   49.8690 H   0  0  0  0  0  0  0  0  0  0  0  0
   40.2193   33.2611   50.1648 H   0  0  0  0  0  0  0  0  0  0  0  0
   39.9749   34.8022   50.1476 H   0  0  0  0  0  0  0  0  0  0  0  0
  1  2  2  0
  3  8  1  0
  3  1  1  0
  4  3  1  0
  5  4  1  0
  5  6  1  0
  6  7  1  0
  7  8  1  0
  8 24  1  0
  9 10  2  0
  9 19  1  0
 11  1  1  0
 11 10  1  0
 12 11  2  0
 13 12  1  0
 13 14  2  0
 14  9  1  0
 15 13  1  0
 16 15  1  0
 17 15  1  0
 18 15  1  0
 19 20  1  0
 20 23  1  0
 20 22  1  0
 21 20  1  0
 24 25  1  0
 25 26  1  0
 25 27  1  0
 26 27  1  0
  4 28  1  0
  4 29  1  0
  5 30  1  0
  5 31  1  0
  7 32  1  0
  7 33  1  0
  8 34  1  1
 10 35  1  0
 25 36  1  0
 26 37  1  0
 26 38  1  0
 27 39  1  0
 27 40  1  0
M  ISO  8  28  13  29  13  30  13  31  13  32  13  33  13  34  13  35  14
M  ISO  5  36  13  37  13  38  13  39  13  40  13
M  END
>  <minimizedAffinity>  (1) 
-5.20897102

>  <minimizedRMSD>  (1) 
1.9365114

$$$$
