
     RDKit          3D

 46 48  0  0  1  0  0  0  0  0999 V2000
   35.2130   29.9640   46.4450 C   0  0  0  0  0  0  0  0  0  0  0  0
   35.7250   29.7770   47.5740 O   0  0  0  0  0  0  0  0  0  0  0  0
   36.1420   30.2220   45.4110 N   0  0  0  0  0  0  0  0  0  0  0  0
   35.9170   29.4870   44.1730 C   0  0  0  0  0  0  0  0  0  0  0  0
   37.1540   29.4700   43.2980 C   0  0  0  0  0  0  0  0  0  0  0  0
   38.2570   29.4380   44.1520 O   0  0  0  0  0  0  0  0  0  0  0  0
   38.3990   30.7460   44.6280 C   0  0  0  0  0  0  0  0  0  0  0  0
   37.2460   31.1350   45.5320 C   0  0  2  0  0  0  0  0  0  0  0  0
   31.6310   28.8090   46.6640 C   0  0  0  0  0  0  0  0  0  0  0  0
   33.0560   28.8260   46.8300 C   0  0  0  0  0  0  0  0  0  0  0  0
   33.7690   29.8990   46.3050 C   0  0  0  0  0  0  0  0  0  0  0  0
   33.0460   30.8630   45.6640 N   0  0  0  0  0  0  0  0  0  0  0  0
   31.7250   30.8120   45.5300 C   0  0  0  0  0  0  0  0  0  0  0  0
   31.0280   29.8020   46.0210 N   0  0  0  0  0  0  0  0  0  0  0  0
   31.1170   31.9700   44.7930 C   0  0  0  0  0  0  0  0  0  0  0  0
   31.6460   33.1760   45.2680 F   0  0  0  0  0  0  0  0  0  0  0  0
   31.4740   31.9020   43.4580 F   0  0  0  0  0  0  0  0  0  0  0  0
   29.7330   31.9610   44.8340 F   0  0  0  0  0  0  0  0  0  0  0  0
   30.9320   27.7360   47.1910 O   0  0  0  0  0  0  0  0  0  0  0  0
   31.1910   27.1580   48.4260 C   0  0  0  0  0  0  0  0  0  0  0  0
   32.0740   26.0830   48.3460 F   0  0  0  0  0  0  0  0  0  0  0  0
   31.5780   28.0350   49.3970 F   0  0  0  0  0  0  0  0  0  0  0  0
   29.9460   26.6340   48.8410 F   0  0  0  0  0  0  0  0  0  0  0  0
   37.7580   30.9330   46.8450 O   0  0  0  0  0  0  0  0  0  0  0  0
   37.7520   32.1290   47.5510 C   0  0  0  0  0  0  0  0  0  0  0  0
   39.1270   32.7500   47.2390 C   0  0  0  0  0  0  0  0  0  0  0  0
   39.5010   33.5620   48.4600 C   0  0  0  0  0  0  0  0  0  0  0  0
   38.3760   33.3810   49.4460 C   0  0  0  0  0  0  0  0  0  0  0  0
   37.8300   32.0130   49.0300 C   0  0  0  0  0  0  0  0  0  0  0  0
   35.6401   28.4512   44.4188 H   0  0  0  0  0  0  0  0  0  0  0  0
   35.1113   29.9895   43.6177 H   0  0  0  0  0  0  0  0  0  0  0  0
   37.1867   30.3742   42.6723 H   0  0  0  0  0  0  0  0  0  0  0  0
   37.1498   28.5968   42.6290 H   0  0  0  0  0  0  0  0  0  0  0  0
   39.3388   30.8203   45.1948 H   0  0  0  0  0  0  0  0  0  0  0  0
   38.4077   31.4287   43.7656 H   0  0  0  0  0  0  0  0  0  0  0  0
   36.8994   32.1515   45.2942 H   0  0  0  0  0  0  0  0  0  0  0  0
   33.5718   28.0111   47.3591 H   0  0  0  0  0  0  0  0  0  0  0  0
   36.8253   32.6524   47.2731 H   0  0  0  0  0  0  0  0  0  0  0  0
   39.8721   31.9606   47.0614 H   0  0  0  0  0  0  0  0  0  0  0  0
   39.0928   33.3738   46.3336 H   0  0  0  0  0  0  0  0  0  0  0  0
   40.4456   33.1947   48.8876 H   0  0  0  0  0  0  0  0  0  0  0  0
   39.6456   34.6227   48.2071 H   0  0  0  0  0  0  0  0  0  0  0  0
   38.7463   33.3688   50.4817 H   0  0  0  0  0  0  0  0  0  0  0  0
   37.6288   34.1881   49.4301 H   0  0  0  0  0  0  0  0  0  0  0  0
   36.8366   31.8328   49.4668 H   0  0  0  0  0  0  0  0  0  0  0  0
   38.4529   31.1725   49.3699 H   0  0  0  0  0  0  0  0  0  0  0  0
  1  2  2  0
  3  8  1  0
  3  1  1  0
  4  3  1  0
  5  6  1  0
  5  4  1  0
  6  7  1  0
  7  8  1  0
  8 24  1  0
  9 10  2  0
  9 19  1  0
 11  1  1  0
 11 10  1  0
 12 11  2  0
 13 12  1  0
 13 14  2  0
 14  9  1  0
 15 18  1  0
 15 16  1  0
 15 13  1  0
 17 15  1  0
 19 20  1  0
 20 23  1  0
 20 22  1  0
 21 20  1  0
 24 25  1  0
 25 29  1  0
 26 25  1  0
 26 27  1  0
 27 28  1  0
 29 28  1  0
  4 30  1  0
  4 31  1  0
  5 32  1  0
  5 33  1  0
  7 34  1  0
  7 35  1  0
  8 36  1  1
 10 37  1  0
 25 38  1  0
 26 39  1  0
 26 40  1  0
 27 41  1  0
 27 42  1  0
 28 43  1  0
 28 44  1  0
 29 45  1  0
 29 46  1  0
M  ISO  8  30  13  31  13  32  13  33  13  34  13  35  13  36  13  37  14
M  ISO  8  38  13  39  13  40  13  41  13  42  13  43  13  44  13  45  13
M  ISO  1  46  13
M  END
>  <minimizedAffinity>  (1) 
-5.23424292

>  <minimizedRMSD>  (1) 
3.83991289

$$$$
