
     RDKit          3D

 35 37  0  0  0  0  0  0  0  0999 V2000
   39.2300   32.3560   46.1360 C   0  0  0  0  0  0  0  0  0  0  0  0
   37.6930   32.5800   49.5980 C   0  0  0  0  0  0  0  0  0  0  0  0
   38.5370   32.8630   48.5220 C   0  0  0  0  0  0  0  0  0  0  0  0
   38.4020   32.1540   47.3400 C   0  0  0  0  0  0  0  0  0  0  0  0
   37.4180   31.1910   47.2990 N   0  0  0  0  0  0  0  0  0  0  0  0
   36.6080   30.9260   48.3430 C   0  0  0  0  0  0  0  0  0  0  0  0
   36.7400   31.6170   49.4930 N   0  0  0  0  0  0  0  0  0  0  0  0
   40.1030   31.0940   45.9920 C   0  0  0  0  0  0  0  0  0  0  0  0
   40.0970   33.5520   46.1910 C   0  0  0  0  0  0  0  0  0  0  0  0
   38.3270   32.4230   44.9530 C   0  0  0  0  0  0  0  0  0  0  0  0
   38.8760   31.7520   43.7310 C   0  0  0  0  0  0  0  0  0  0  0  0
   39.4900   32.5520   42.7050 C   0  0  0  0  0  0  0  0  0  0  0  0
   39.9520   31.2400   41.5130 S   0  0  0  0  0  0  0  0  0  0  0  0
   39.2390   29.8710   42.6090 C   0  0  0  0  0  0  0  0  0  0  0  0
   38.8550   30.4610   43.4890 N   0  0  0  0  0  0  0  0  0  0  0  0
   39.3510   28.5160   42.0910 C   0  0  0  0  0  0  0  0  0  0  0  0
   39.0190   27.3030   42.5270 C   0  0  0  0  0  0  0  0  0  0  0  0
   39.2590   26.1980   41.7980 C   0  0  0  0  0  0  0  0  0  0  0  0
   39.9100   26.4580   40.5000 C   0  0  0  0  0  0  0  0  0  0  0  0
   40.0860   28.3460   40.5280 S   0  0  0  0  0  0  0  0  0  0  0  0
   37.8005   33.1411   50.5380 H   0  0  0  0  0  0  0  0  0  0  0  0
   39.3052   33.6451   48.6128 H   0  0  0  0  0  0  0  0  0  0  0  0
   35.8383   30.1450   48.2567 H   0  0  0  0  0  0  0  0  0  0  0  0
   40.3658   30.7141   46.9903 H   0  0  0  0  0  0  0  0  0  0  0  0
   39.5445   30.3227   45.4415 H   0  0  0  0  0  0  0  0  0  0  0  0
   41.0218   31.3446   45.4415 H   0  0  0  0  0  0  0  0  0  0  0  0
   40.2894   33.8174   47.2410 H   0  0  0  0  0  0  0  0  0  0  0  0
   41.0506   33.3371   45.6865 H   0  0  0  0  0  0  0  0  0  0  0  0
   39.5962   34.3914   45.6865 H   0  0  0  0  0  0  0  0  0  0  0  0
   37.3752   31.9384   45.2160 H   0  0  0  0  0  0  0  0  0  0  0  0
   38.2047   33.4876   44.7048 H   0  0  0  0  0  0  0  0  0  0  0  0
   39.6394   33.6405   42.6516 H   0  0  0  0  0  0  0  0  0  0  0  0
   38.5354   27.2013   43.5098 H   0  0  0  0  0  0  0  0  0  0  0  0
   38.9926   25.1872   42.1405 H   0  0  0  0  0  0  0  0  0  0  0  0
   40.2137   25.7440   39.7203 H   0  0  0  0  0  0  0  0  0  0  0  0
  1  9  1  0
  1  4  1  0
  3  2  2  0
  4  3  1  0
  5  4  2  0
  5  6  1  0
  6  7  2  0
  7  2  1  0
  8  1  1  0
 10  1  1  0
 11 10  1  0
 12 11  2  0
 13 14  1  0
 13 12  1  0
 14 15  2  0
 15 11  1  0
 16 17  2  0
 16 14  1  0
 18 17  1  0
 19 20  1  0
 19 18  2  0
 20 16  1  0
  2 21  1  0
  3 22  1  0
  6 23  1  0
  8 24  1  0
  8 25  1  0
  8 26  1  0
  9 27  1  0
  9 28  1  0
  9 29  1  0
 10 30  1  0
 10 31  1  0
 12 32  1  0
 17 33  1  0
 18 34  1  0
 19 35  1  0
M  ISO  8  21  14  22  14  23  14  24   8  25   8  26   8  27   8  28   8
M  ISO  7  29   8  30   8  31   8  32  14  33  14  34  14  35  14
M  END
>  <minimizedAffinity>  (1) 
-4.95853329

>  <minimizedRMSD>  (1) 
0.681163907

$$$$
