
     RDKit          3D

 37 40  0  0  1  0  0  0  0  0999 V2000
   35.2240   29.1640   48.5690 C   0  0  2  0  0  0  0  0  0  0  0  0
   33.9950   29.3880   49.3230 C   0  0  0  0  0  0  0  0  0  0  0  0
   34.3090   28.0060   49.0890 C   0  0  1  0  0  0  0  0  0  0  0  0
   36.5340   29.2050   49.3710 C   0  0  0  0  0  0  0  0  0  0  0  0
   37.5630   32.7050   49.6030 C   0  0  0  0  0  0  0  0  0  0  0  0
   38.4500   32.8350   48.5210 C   0  0  0  0  0  0  0  0  0  0  0  0
   38.6820   31.6970   47.7180 C   0  0  0  0  0  0  0  0  0  0  0  0
   38.0330   30.5320   48.0370 N   0  0  0  0  0  0  0  0  0  0  0  0
   37.1910   30.4710   49.0920 C   0  0  0  0  0  0  0  0  0  0  0  0
   36.9670   31.5600   49.8630 N   0  0  0  0  0  0  0  0  0  0  0  0
   33.4550   27.3230   48.0360 C   0  0  0  0  0  0  0  0  0  0  0  0
   33.8090   26.0970   47.8220 O   0  0  0  0  0  0  0  0  0  0  0  0
   32.3870   27.8800   47.3370 O   0  0  0  0  0  0  0  0  0  0  0  0
   31.1510   28.0830   47.8830 C   0  0  0  0  0  0  0  0  0  0  0  0
   30.7290   27.6370   49.2300 C   0  0  0  0  0  0  0  0  0  0  0  0
   29.4700   27.9130   49.6320 C   0  0  0  0  0  0  0  0  0  0  0  0
   28.5730   28.6080   48.7980 C   0  0  0  0  0  0  0  0  0  0  0  0
   29.5690   28.9240   47.2740 S   0  0  0  0  0  0  0  0  0  0  0  0
   27.2490   29.0310   48.9230 C   0  0  0  0  0  0  0  0  0  0  0  0
   26.2050   28.2610   49.2770 C   0  0  0  0  0  0  0  0  0  0  0  0
   24.9500   28.7970   49.3640 C   0  0  0  0  0  0  0  0  0  0  0  0
   24.8540   30.2150   49.0540 C   0  0  0  0  0  0  0  0  0  0  0  0
   26.6640   30.6170   48.6560 S   0  0  0  0  0  0  0  0  0  0  0  0
   35.6218   29.5517   47.6196 H   0  0  0  0  0  0  0  0  0  0  0  0
   34.0610   29.7851   50.3467 H   0  0  0  0  0  0  0  0  0  0  0  0
   33.0979   29.9920   49.1221 H   0  0  0  0  0  0  0  0  0  0  0  0
   34.4499   27.1077   49.7081 H   0  0  0  0  0  0  0  0  0  0  0  0
   36.3162   29.1263   50.4463 H   0  0  0  0  0  0  0  0  0  0  0  0
   37.1843   28.3653   49.0845 H   0  0  0  0  0  0  0  0  0  0  0  0
   37.3628   33.5758   50.2446 H   0  0  0  0  0  0  0  0  0  0  0  0
   38.9475   33.7923   48.3065 H   0  0  0  0  0  0  0  0  0  0  0  0
   39.3663   31.7439   46.8580 H   0  0  0  0  0  0  0  0  0  0  0  0
   31.4241   27.0940   49.8873 H   0  0  0  0  0  0  0  0  0  0  0  0
   29.1387   27.5889   50.6296 H   0  0  0  0  0  0  0  0  0  0  0  0
   26.3613   27.1948   49.4977 H   0  0  0  0  0  0  0  0  0  0  0  0
   24.0731   28.1970   49.6489 H   0  0  0  0  0  0  0  0  0  0  0  0
   23.9730   30.8736   49.0512 H   0  0  0  0  0  0  0  0  0  0  0  0
  1  3  1  0
  1  2  1  0
  1  4  1  0
  3  2  1  0
  5 10  2  0
  6  5  1  0
  7  8  1  0
  7  6  2  0
  8  9  2  0
  9  4  1  0
  9 10  1  0
 11  3  1  0
 12 11  2  0
 13 14  1  0
 13 11  1  0
 14 15  2  0
 15 16  1  0
 17 19  1  0
 17 16  2  0
 18 14  1  0
 18 17  1  0
 19 20  2  0
 20 21  1  0
 22 21  2  0
 23 19  1  0
 23 22  1  0
  1 24  1  6
  2 25  1  0
  2 26  1  0
  3 27  1  1
  4 28  1  0
  4 29  1  0
  5 30  1  0
  6 31  1  0
  7 32  1  0
 15 33  1  0
 16 34  1  0
 20 35  1  0
 21 36  1  0
 22 37  1  0
M  ISO  8  24  13  25  13  26  13  27  13  28   8  29   8  30  14  31  14
M  ISO  6  32  14  33  14  34  14  35  14  36  14  37  14
M  END
>  <minimizedAffinity>  (1) 
-6.32317734

>  <minimizedRMSD>  (1) 
1.73952389

$$$$
