
     RDKit          3D

 31 33  0  0  0  0  0  0  0  0999 V2000
   37.8790   32.0920   47.3280 C   0  0  0  0  0  0  0  0  0  0  0  0
   38.6560   32.0230   46.0370 C   0  0  0  0  0  0  0  0  0  0  0  0
   39.9350   31.5200   46.0020 C   0  0  0  0  0  0  0  0  0  0  0  0
   40.6590   31.4800   44.8320 C   0  0  0  0  0  0  0  0  0  0  0  0
   40.0640   31.9550   43.7100 N   0  0  0  0  0  0  0  0  0  0  0  0
   38.8200   32.4460   43.7330 C   0  0  0  0  0  0  0  0  0  0  0  0
   38.1100   32.4860   44.8790 N   0  0  0  0  0  0  0  0  0  0  0  0
   38.1540   32.9700   42.5120 C   0  0  0  0  0  0  0  0  0  0  0  0
   38.7960   33.5580   41.4300 C   0  0  0  0  0  0  0  0  0  0  0  0
   38.0790   33.9970   40.3770 C   0  0  0  0  0  0  0  0  0  0  0  0
   36.6480   33.8330   40.4190 C   0  0  0  0  0  0  0  0  0  0  0  0
   36.4070   32.9990   42.0910 S   0  0  0  0  0  0  0  0  0  0  0  0
   38.6910   31.3010   48.3220 C   0  0  0  0  0  0  0  0  0  0  0  0
   38.0410   30.8310   50.6450 C   0  0  0  0  0  0  0  0  0  0  0  0
   37.8570   30.6380   49.2730 C   0  0  0  0  0  0  0  0  0  0  0  0
   36.8370   29.7980   48.8860 C   0  0  0  0  0  0  0  0  0  0  0  0
   36.0520   29.1930   49.8310 N   0  0  0  0  0  0  0  0  0  0  0  0
   36.2490   29.3940   51.1360 C   0  0  0  0  0  0  0  0  0  0  0  0
   37.2310   30.2020   51.5190 N   0  0  0  0  0  0  0  0  0  0  0  0
   36.8818   31.6451   47.2022 H   0  0  0  0  0  0  0  0  0  0  0  0
   37.7227   33.1295   47.6583 H   0  0  0  0  0  0  0  0  0  0  0  0
   40.3897   31.1412   46.9292 H   0  0  0  0  0  0  0  0  0  0  0  0
   41.6825   31.0776   44.8081 H   0  0  0  0  0  0  0  0  0  0  0  0
   39.8907   33.6654   41.4326 H   0  0  0  0  0  0  0  0  0  0  0  0
   38.5708   34.4661   39.5121 H   0  0  0  0  0  0  0  0  0  0  0  0
   35.8941   34.1196   39.6710 H   0  0  0  0  0  0  0  0  0  0  0  0
   39.2833   30.5485   47.7808 H   0  0  0  0  0  0  0  0  0  0  0  0
   39.3448   31.9991   48.8653 H   0  0  0  0  0  0  0  0  0  0  0  0
   38.8416   31.4919   51.0088 H   0  0  0  0  0  0  0  0  0  0  0  0
   36.6526   29.6128   47.8175 H   0  0  0  0  0  0  0  0  0  0  0  0
   35.6090   28.8989   51.8812 H   0  0  0  0  0  0  0  0  0  0  0  0
  1 13  1  0
  2  1  1  0
  3  2  2  0
  4  3  1  0
  5  6  1  0
  5  4  2  0
  6  7  2  0
  7  2  1  0
  8  6  1  0
  9  8  2  0
 10 11  2  0
 10  9  1  0
 11 12  1  0
 12  8  1  0
 13 15  1  0
 14 19  2  0
 15 14  1  0
 16 15  2  0
 16 17  1  0
 17 18  2  0
 18 19  1  0
  1 20  1  0
  1 21  1  0
  3 22  1  0
  4 23  1  0
  9 24  1  0
 10 25  1  0
 11 26  1  0
 13 27  1  0
 13 28  1  0
 14 29  1  0
 16 30  1  0
 18 31  1  0
M  ISO  8  20   8  21   8  22  14  23  14  24  14  25  14  26  14  27   8
M  ISO  4  28   8  29  14  30  14  31  14
M  END
>  <minimizedAffinity>  (1) 
-5.21892977

>  <minimizedRMSD>  (1) 
3.34591913

$$$$
