
     RDKit          3D

 21 22  0  0  0  0  0  0  0  0999 V2000
   37.3880   30.2860   50.0960 C   0  0  0  0  0  0  0  0  0  0  0  0
   38.2920   31.3410   50.1850 C   0  0  0  0  0  0  0  0  0  0  0  0
   38.5250   32.1280   49.0610 C   0  0  0  0  0  0  0  0  0  0  0  0
   37.8500   31.8240   47.9210 N   0  0  0  0  0  0  0  0  0  0  0  0
   36.9740   30.7940   47.8590 C   0  0  0  0  0  0  0  0  0  0  0  0
   36.7570   30.0390   48.9500 N   0  0  0  0  0  0  0  0  0  0  0  0
   36.2410   30.4560   46.6410 C   0  0  0  0  0  0  0  0  0  0  0  0
   34.9800   29.9070   46.6630 C   0  0  0  0  0  0  0  0  0  0  0  0
   34.2950   29.5910   45.4860 C   0  0  0  0  0  0  0  0  0  0  0  0
   34.9110   29.8410   44.2980 N   0  0  0  0  0  0  0  0  0  0  0  0
   36.1400   30.3770   44.2800 C   0  0  0  0  0  0  0  0  0  0  0  0
   36.7700   30.6680   45.4070 N   0  0  0  0  0  0  0  0  0  0  0  0
   37.1310   29.4310   51.3060 C   0  0  0  0  0  0  0  0  0  0  0  0
   35.7770   29.1920   51.4220 F   0  0  0  0  0  0  0  0  0  0  0  0
   37.9020   28.3130   51.2020 F   0  0  0  0  0  0  0  0  0  0  0  0
   37.5320   30.1730   52.4120 F   0  0  0  0  0  0  0  0  0  0  0  0
   38.8146   31.5496   51.1302 H   0  0  0  0  0  0  0  0  0  0  0  0
   39.2329   32.9693   49.0941 H   0  0  0  0  0  0  0  0  0  0  0  0
   34.4979   29.7115   47.6322 H   0  0  0  0  0  0  0  0  0  0  0  0
   33.2866   29.1527   45.5189 H   0  0  0  0  0  0  0  0  0  0  0  0
   36.6309   30.5774   43.3162 H   0  0  0  0  0  0  0  0  0  0  0  0
  1  2  2  0
  1 13  1  0
  3  2  1  0
  4  3  2  0
  5  4  1  0
  5  6  2  0
  6  1  1  0
  7  8  2  0
  7  5  1  0
  9  8  1  0
 10  9  2  0
 11 10  1  0
 11 12  2  0
 12  7  1  0
 13 14  1  0
 13 16  1  0
 15 13  1  0
  2 17  1  0
  3 18  1  0
  8 19  1  0
  9 20  1  0
 11 21  1  0
M  ISO  5  17  14  18  14  19  14  20  14  21  14
M  END
>  <minimizedAffinity>  (1) 
-5.2065053

>  <minimizedRMSD>  (1) 
0.348419726

$$$$
