
     RDKit          3D

 22 23  0  0  0  0  0  0  0  0999 V2000
   37.1410   30.4490   49.2920 C   0  0  0  0  0  0  0  0  0  0  0  0
   37.0010   31.5990   50.1040 C   0  0  0  0  0  0  0  0  0  0  0  0
   37.6000   32.7900   49.6700 C   0  0  0  0  0  0  0  0  0  0  0  0
   38.2840   32.7840   48.4960 N   0  0  0  0  0  0  0  0  0  0  0  0
   38.3820   31.6580   47.7690 C   0  0  0  0  0  0  0  0  0  0  0  0
   37.8300   30.5130   48.1460 N   0  0  0  0  0  0  0  0  0  0  0  0
   39.1260   31.6490   46.4910 C   0  0  0  0  0  0  0  0  0  0  0  0
   39.8720   32.7320   46.0770 C   0  0  0  0  0  0  0  0  0  0  0  0
   40.5710   32.7420   44.8930 C   0  0  0  0  0  0  0  0  0  0  0  0
   40.5170   31.6440   44.1110 N   0  0  0  0  0  0  0  0  0  0  0  0
   39.7860   30.5690   44.5040 C   0  0  0  0  0  0  0  0  0  0  0  0
   39.1230   30.5920   45.6540 N   0  0  0  0  0  0  0  0  0  0  0  0
   36.5540   29.2890   49.7220 O   0  0  0  0  0  0  0  0  0  0  0  0
   35.2580   29.1930   50.2540 C   0  0  0  0  0  0  0  0  0  0  0  0
   35.2340   29.1490   51.6330 F   0  0  0  0  0  0  0  0  0  0  0  0
   34.3830   30.1330   49.7830 F   0  0  0  0  0  0  0  0  0  0  0  0
   34.7660   27.9470   49.8220 F   0  0  0  0  0  0  0  0  0  0  0  0
   36.4385   31.5599   51.0485 H   0  0  0  0  0  0  0  0  0  0  0  0
   37.5179   33.7100   50.2674 H   0  0  0  0  0  0  0  0  0  0  0  0
   39.9095   33.6239   46.7197 H   0  0  0  0  0  0  0  0  0  0  0  0
   41.1585   33.6217   44.5915 H   0  0  0  0  0  0  0  0  0  0  0  0
   39.7430   29.6741   43.8658 H   0  0  0  0  0  0  0  0  0  0  0  0
  1 13  1  0
  1  2  2  0
  3  2  1  0
  4  3  2  0
  5  6  2  0
  5  4  1  0
  6  1  1  0
  7  5  1  0
  8  7  2  0
  9  8  1  0
 10 11  1  0
 10  9  2  0
 11 12  2  0
 12  7  1  0
 13 14  1  0
 14 15  1  0
 16 14  1  0
 17 14  1  0
  2 18  1  0
  3 19  1  0
  8 20  1  0
  9 21  1  0
 11 22  1  0
M  ISO  5  18  14  19  14  20  14  21  14  22  14
M  END
>  <minimizedAffinity>  (1) 
-5.92124319

>  <minimizedRMSD>  (1) 
1.79074323

$$$$
