
     RDKit          3D

 33 35  0  0  1  0  0  0  0  0999 V2000
   35.8530   29.8720   49.8460 C   0  0  2  0  0  0  0  0  0  0  0  0
   35.0930   29.1580   50.8800 C   0  0  0  0  0  0  0  0  0  0  0  0
   35.1300   28.5430   49.5590 C   0  0  1  0  0  0  0  0  0  0  0  0
   37.3700   29.7000   49.8490 C   0  0  0  0  0  0  0  0  0  0  0  0
   38.6890   33.0730   49.2780 C   0  0  0  0  0  0  0  0  0  0  0  0
   39.0450   33.0420   47.9200 C   0  0  0  0  0  0  0  0  0  0  0  0
   38.8260   31.8510   47.2110 C   0  0  0  0  0  0  0  0  0  0  0  0
   38.2750   30.7840   47.8880 N   0  0  0  0  0  0  0  0  0  0  0  0
   37.9540   30.8660   49.1810 C   0  0  0  0  0  0  0  0  0  0  0  0
   38.1630   32.0120   49.8690 N   0  0  0  0  0  0  0  0  0  0  0  0
   33.8400   28.6230   48.7880 C   0  0  0  0  0  0  0  0  0  0  0  0
   33.9450   29.1830   47.6230 O   0  0  0  0  0  0  0  0  0  0  0  0
   32.6010   28.1580   49.1990 O   0  0  0  0  0  0  0  0  0  0  0  0
   31.8550   27.3340   48.3680 C   0  0  0  0  0  0  0  0  0  0  0  0
   32.2430   26.1740   47.7280 C   0  0  0  0  0  0  0  0  0  0  0  0
   31.3260   25.4980   46.9350 C   0  0  0  0  0  0  0  0  0  0  0  0
   30.0420   25.9850   46.7920 C   0  0  0  0  0  0  0  0  0  0  0  0
   29.6300   27.1500   47.4270 C   0  0  0  0  0  0  0  0  0  0  0  0
   30.5560   27.8280   48.2250 C   0  0  0  0  0  0  0  0  0  0  0  0
   35.8483   30.9084   49.4775 H   0  0  0  0  0  0  0  0  0  0  0  0
   35.6306   28.6812   51.7129 H   0  0  0  0  0  0  0  0  0  0  0  0
   34.2758   29.4504   51.5558 H   0  0  0  0  0  0  0  0  0  0  0  0
   35.4297   27.5720   49.1379 H   0  0  0  0  0  0  0  0  0  0  0  0
   37.7376   29.6385   50.8839 H   0  0  0  0  0  0  0  0  0  0  0  0
   37.6530   28.7751   49.3251 H   0  0  0  0  0  0  0  0  0  0  0  0
   38.8497   33.9929   49.8593 H   0  0  0  0  0  0  0  0  0  0  0  0
   39.4817   33.9234   47.4276 H   0  0  0  0  0  0  0  0  0  0  0  0
   39.0866   31.7711   46.1453 H   0  0  0  0  0  0  0  0  0  0  0  0
   33.2671   25.7898   47.8451 H   0  0  0  0  0  0  0  0  0  0  0  0
   31.6228   24.5727   46.4196 H   0  0  0  0  0  0  0  0  0  0  0  0
   29.3277   25.4372   46.1598 H   0  0  0  0  0  0  0  0  0  0  0  0
   28.6042   27.5281   47.3053 H   0  0  0  0  0  0  0  0  0  0  0  0
   30.2611   28.7531   48.7419 H   0  0  0  0  0  0  0  0  0  0  0  0
  1  4  1  0
  1  2  1  0
  3  1  1  0
  3  2  1  0
  5 10  2  0
  6  5  1  0
  7  8  1  0
  7  6  2  0
  8  9  2  0
  9  4  1  0
  9 10  1  0
 11 13  1  0
 11  3  1  0
 12 11  2  0
 14 13  1  0
 15 14  2  0
 16 15  1  0
 17 16  2  0
 17 18  1  0
 18 19  2  0
 19 14  1  0
  1 20  1  6
  2 21  1  0
  2 22  1  0
  3 23  1  1
  4 24  1  0
  4 25  1  0
  5 26  1  0
  6 27  1  0
  7 28  1  0
 15 29  1  0
 16 30  1  0
 17 31  1  0
 18 32  1  0
 19 33  1  0
M  ISO  8  20  13  21  13  22  13  23  13  24   8  25   8  26  14  27  14
M  ISO  6  28  14  29  14  30  14  31  14  32  14  33  14
M  END
>  <minimizedAffinity>  (1) 
-5.07003689

>  <minimizedRMSD>  (1) 
1.13643837

$$$$
