
     RDKit          3D

 36 38  0  0  1  0  0  0  0  0999 V2000
   35.4400   29.4850   49.0600 C   0  0  2  0  0  0  0  0  0  0  0  0
   34.4890   29.5230   50.1790 C   0  0  0  0  0  0  0  0  0  0  0  0
   34.6680   28.2330   49.5240 C   0  0  1  0  0  0  0  0  0  0  0  0
   36.9270   29.3970   49.4050 C   0  0  0  0  0  0  0  0  0  0  0  0
   37.9890   32.9060   49.3830 C   0  0  0  0  0  0  0  0  0  0  0  0
   38.7310   32.9970   48.1960 C   0  0  0  0  0  0  0  0  0  0  0  0
   38.8610   31.8400   47.4090 C   0  0  0  0  0  0  0  0  0  0  0  0
   38.2520   30.6920   47.8480 N   0  0  0  0  0  0  0  0  0  0  0  0
   37.5550   30.6510   48.9850 C   0  0  0  0  0  0  0  0  0  0  0  0
   37.4280   31.7630   49.7470 N   0  0  0  0  0  0  0  0  0  0  0  0
   33.5240   27.7780   48.6740 C   0  0  0  0  0  0  0  0  0  0  0  0
   33.8540   27.0560   47.6620 O   0  0  0  0  0  0  0  0  0  0  0  0
   32.1880   28.0490   48.8780 O   0  0  0  0  0  0  0  0  0  0  0  0
   29.1690   27.3400   46.1660 C   0  0  0  0  0  0  0  0  0  0  0  0
   30.0280   28.3850   45.9590 C   0  0  0  0  0  0  0  0  0  0  0  0
   31.0530   28.6430   46.8590 C   0  0  0  0  0  0  0  0  0  0  0  0
   31.2010   27.8320   47.9730 C   0  0  0  0  0  0  0  0  0  0  0  0
   30.3380   26.7720   48.1950 C   0  0  0  0  0  0  0  0  0  0  0  0
   29.3360   26.5550   47.2740 C   0  0  0  0  0  0  0  0  0  0  0  0
   27.9310   27.1350   44.9560 S   0  0  0  0  0  0  0  0  0  0  0  0
   26.6350   27.7400   45.3700 O   0  0  0  0  0  0  0  0  0  0  0  0
   27.7970   25.6970   44.5840 O   0  0  0  0  0  0  0  0  0  0  0  0
   35.5645   30.0837   48.1456 H   0  0  0  0  0  0  0  0  0  0  0  0
   34.8655   29.6654   51.2027 H   0  0  0  0  0  0  0  0  0  0  0  0
   33.6074   30.1422   50.4012 H   0  0  0  0  0  0  0  0  0  0  0  0
   34.9508   27.2152   49.8308 H   0  0  0  0  0  0  0  0  0  0  0  0
   37.0528   29.2594   50.4891 H   0  0  0  0  0  0  0  0  0  0  0  0
   37.3920   28.5420   48.8924 H   0  0  0  0  0  0  0  0  0  0  0  0
   37.8717   33.7954   50.0195 H   0  0  0  0  0  0  0  0  0  0  0  0
   39.1970   33.9454   47.8904 H   0  0  0  0  0  0  0  0  0  0  0  0
   39.4335   31.8545   46.4698 H   0  0  0  0  0  0  0  0  0  0  0  0
   29.9054   29.0252   45.0730 H   0  0  0  0  0  0  0  0  0  0  0  0
   31.7417   29.4838   46.6894 H   0  0  0  0  0  0  0  0  0  0  0  0
   30.4486   26.1245   49.0774 H   0  0  0  0  0  0  0  0  0  0  0  0
   28.6425   25.7167   47.4363 H   0  0  0  0  0  0  0  0  0  0  0  0
   28.3192   27.8185   43.8340 H   0  0  0  0  0  0  0  0  0  0  0  0
  1  4  1  0
  1  3  1  0
  1  2  1  0
  3  2  1  0
  5 10  2  0
  6  5  1  0
  7  8  1  0
  7  6  2  0
  8  9  2  0
  9  4  1  0
  9 10  1  0
 11 13  1  0
 11  3  1  0
 12 11  2  0
 14 19  2  0
 15 14  1  0
 15 16  2  0
 16 17  1  0
 17 18  2  0
 17 13  1  0
 19 18  1  0
 20 21  2  0
 20 14  1  0
 22 20  2  0
  1 23  1  6
  2 24  1  0
  2 25  1  0
  3 26  1  1
  4 27  1  0
  4 28  1  0
  5 29  1  0
  6 30  1  0
  7 31  1  0
 15 32  1  0
 16 33  1  0
 18 34  1  0
 19 35  1  0
 20 36  1  0
M  ISO  8  23  13  24  13  25  13  26  13  27   8  28   8  29  14  30  14
M  ISO  6  31  14  32  14  33  14  34  14  35  14  36  11
M  END
>  <minimizedAffinity>  (1) 
-5.15784502

>  <minimizedRMSD>  (1) 
0.707638621

$$$$
