
     RDKit          3D

 46 49  0  0  1  0  0  0  0  0999 V2000
   39.2740   30.8470   46.3410 C   0  0  2  0  0  0  0  0  0  0  0  0
   40.1710   31.8430   45.8000 C   0  0  0  0  0  0  0  0  0  0  0  0
   41.0010   31.3760   44.6490 C   0  0  0  0  0  0  0  0  0  0  0  0
   40.2470   30.6160   43.6390 C   0  0  0  0  0  0  0  0  0  0  0  0
   39.2410   29.6990   44.1670 C   0  0  0  0  0  0  0  0  0  0  0  0
   38.3550   30.3410   45.2980 C   0  0  2  0  0  0  0  0  0  0  0  0
   38.6670   32.5780   48.1470 C   0  0  0  0  0  0  0  0  0  0  0  0
   38.5220   31.2960   47.5120 C   0  0  0  0  0  0  0  0  0  0  0  0
   37.6180   30.4180   48.0010 C   0  0  0  0  0  0  0  0  0  0  0  0
   36.8780   30.8060   49.0930 N   0  0  0  0  0  0  0  0  0  0  0  0
   37.0380   32.0420   49.6830 C   0  0  0  0  0  0  0  0  0  0  0  0
   37.9520   32.9330   49.1900 N   0  0  0  0  0  0  0  0  0  0  0  0
   37.5880   31.3870   44.6300 C   0  0  0  0  0  0  0  0  0  0  0  0
   37.5600   32.6280   44.9490 O   0  0  0  0  0  0  0  0  0  0  0  0
   36.8480   30.9550   43.5820 O   0  0  0  0  0  0  0  0  0  0  0  0
   35.8550   31.8150   43.0460 C   0  0  0  0  0  0  0  0  0  0  0  0
   34.4870   31.5990   43.2720 C   0  0  0  0  0  0  0  0  0  0  0  0
   33.8640   32.6210   42.6020 C   0  0  0  0  0  0  0  0  0  0  0  0
   34.7950   33.4190   42.0000 N   0  0  0  0  0  0  0  0  0  0  0  0
   35.9770   32.8970   42.2930 N   0  0  0  0  0  0  0  0  0  0  0  0
   34.5190   34.5750   41.2180 C   0  0  0  0  0  0  0  0  0  0  0  0
   34.1580   35.7570   41.8580 C   0  0  0  0  0  0  0  0  0  0  0  0
   33.8890   36.8870   41.0840 C   0  0  0  0  0  0  0  0  0  0  0  0
   33.9860   36.8130   39.7090 C   0  0  0  0  0  0  0  0  0  0  0  0
   34.3470   35.6410   39.0370 C   0  0  0  0  0  0  0  0  0  0  0  0
   34.6070   34.5370   39.8260 C   0  0  0  0  0  0  0  0  0  0  0  0
   39.9193   30.0274   46.6900 H   0  0  0  0  0  0  0  0  0  0  0  0
   39.5688   32.6996   45.4629 H   0  0  0  0  0  0  0  0  0  0  0  0
   40.8740   32.0989   46.6064 H   0  0  0  0  0  0  0  0  0  0  0  0
   41.4428   32.2571   44.1607 H   0  0  0  0  0  0  0  0  0  0  0  0
   41.7610   30.6947   45.0593 H   0  0  0  0  0  0  0  0  0  0  0  0
   40.9663   30.0280   43.0500 H   0  0  0  0  0  0  0  0  0  0  0  0
   39.6961   31.3620   43.0474 H   0  0  0  0  0  0  0  0  0  0  0  0
   38.5838   29.3871   43.3419 H   0  0  0  0  0  0  0  0  0  0  0  0
   39.7750   28.8466   44.6122 H   0  0  0  0  0  0  0  0  0  0  0  0
   37.6579   29.6519   45.7971 H   0  0  0  0  0  0  0  0  0  0  0  0
   39.4043   33.2880   47.7442 H   0  0  0  0  0  0  0  0  0  0  0  0
   37.4793   29.4282   47.5416 H   0  0  0  0  0  0  0  0  0  0  0  0
   36.4266   32.3136   50.5561 H   0  0  0  0  0  0  0  0  0  0  0  0
   34.0195   30.7919   43.8551 H   0  0  0  0  0  0  0  0  0  0  0  0
   32.7758   32.7751   42.5562 H   0  0  0  0  0  0  0  0  0  0  0  0
   34.0859   35.7999   42.9548 H   0  0  0  0  0  0  0  0  0  0  0  0
   33.6010   37.8321   41.5675 H   0  0  0  0  0  0  0  0  0  0  0  0
   33.7701   37.7144   39.1166 H   0  0  0  0  0  0  0  0  0  0  0  0
   34.4200   35.6003   37.9402 H   0  0  0  0  0  0  0  0  0  0  0  0
   34.8939   33.5934   39.3389 H   0  0  0  0  0  0  0  0  0  0  0  0
  1  8  1  0
  2  1  1  0
  3  2  1  0
  4  5  1  0
  4  3  1  0
  5  6  1  0
  6  1  1  0
  7 12  2  0
  8  9  2  0
  8  7  1  0
  9 10  1  0
 10 11  2  0
 12 11  1  0
 13 14  2  0
 13  6  1  0
 15 13  1  0
 16 17  1  0
 16 15  1  0
 18 17  2  0
 19 20  1  0
 19 18  1  0
 20 16  2  0
 21 22  2  0
 21 19  1  0
 23 22  1  0
 24 23  2  0
 25 24  1  0
 25 26  2  0
 26 21  1  0
  1 27  1  1
  2 28  1  0
  2 29  1  0
  3 30  1  0
  3 31  1  0
  4 32  1  0
  4 33  1  0
  5 34  1  0
  5 35  1  0
  6 36  1  1
  7 37  1  0
  9 38  1  0
 11 39  1  0
 17 40  1  0
 18 41  1  0
 22 42  1  0
 23 43  1  0
 24 44  1  0
 25 45  1  0
 26 46  1  0
M  ISO  8  27  13  28  13  29  13  30  13  31  13  32  13  33  13  34  13
M  ISO  8  35  13  36  13  37  14  38  14  39  14  40  14  41  14  42  14
M  ISO  4  43  14  44  14  45  14  46  14
M  END
>  <minimizedAffinity>  (1) 
-5.54988003

>  <minimizedRMSD>  (1) 
1.27913046

$$$$
