
     RDKit          3D

 42 44  0  0  0  0  0  0  0  0999 V2000
   32.3330   28.1230   46.7030 C   0  0  0  0  0  0  0  0  0  0  0  0
   32.9480   28.7560   45.5850 C   0  0  0  0  0  0  0  0  0  0  0  0
   34.0030   29.6020   45.7470 C   0  0  0  0  0  0  0  0  0  0  0  0
   34.4270   29.7990   47.0400 N   0  0  0  0  0  0  0  0  0  0  0  0
   33.8550   29.2130   48.0680 C   0  0  0  0  0  0  0  0  0  0  0  0
   32.8320   28.3870   47.9420 N   0  0  0  0  0  0  0  0  0  0  0  0
   34.6360   30.2510   44.6270 C   0  0  0  0  0  0  0  0  0  0  0  0
   35.8360   29.5860   44.0850 C   0  0  0  0  0  0  0  0  0  0  0  0
   37.1140   30.0900   44.3800 N   0  0  0  0  0  0  0  0  0  0  0  0
   37.5680   30.5800   45.5300 C   0  0  0  0  0  0  0  0  0  0  0  0
   38.8330   31.0550   45.7510 C   0  0  0  0  0  0  0  0  0  0  0  0
   39.7410   31.0440   44.7320 C   0  0  0  0  0  0  0  0  0  0  0  0
   40.9090   31.4550   44.8450 O   0  0  0  0  0  0  0  0  0  0  0  0
   39.3120   30.5620   43.5850 N   0  0  0  0  0  0  0  0  0  0  0  0
   38.0820   30.1080   43.3960 C   0  0  0  0  0  0  0  0  0  0  0  0
   37.7610   29.6610   42.2470 O   0  0  0  0  0  0  0  0  0  0  0  0
   40.2600   30.5360   42.4730 C   0  0  0  0  0  0  0  0  0  0  0  0
   39.8010   29.6980   41.4710 F   0  0  0  0  0  0  0  0  0  0  0  0
   41.4490   30.0220   42.9500 F   0  0  0  0  0  0  0  0  0  0  0  0
   40.4070   31.8100   42.0050 F   0  0  0  0  0  0  0  0  0  0  0  0
   34.3410   29.4560   49.4590 C   0  0  0  0  0  0  0  0  0  0  0  0
   35.4700   28.5200   49.7960 C   0  0  0  0  0  0  0  0  0  0  0  0
   36.6060   29.3230   50.3070 C   0  0  0  0  0  0  0  0  0  0  0  0
   37.1770   30.0890   49.2950 C   0  0  0  0  0  0  0  0  0  0  0  0
   38.2420   30.8240   49.8280 C   0  0  0  0  0  0  0  0  0  0  0  0
   38.2900   30.4880   51.1410 N   0  0  0  0  0  0  0  0  0  0  0  0
   37.3270   29.6190   51.3750 N   0  0  0  0  0  0  0  0  0  0  0  0
   31.4802   27.4411   46.5694 H   0  0  0  0  0  0  0  0  0  0  0  0
   32.5642   28.5582   44.5733 H   0  0  0  0  0  0  0  0  0  0  0  0
   33.8955   30.3208   43.8166 H   0  0  0  0  0  0  0  0  0  0  0  0
   34.9830   31.2234   45.0065 H   0  0  0  0  0  0  0  0  0  0  0  0
   35.7364   29.5954   42.9896 H   0  0  0  0  0  0  0  0  0  0  0  0
   35.8294   28.6067   44.5859 H   0  0  0  0  0  0  0  0  0  0  0  0
   36.8665   30.6059   46.3769 H   0  0  0  0  0  0  0  0  0  0  0  0
   39.1151   31.4421   46.7412 H   0  0  0  0  0  0  0  0  0  0  0  0
   34.6949   30.4942   49.5422 H   0  0  0  0  0  0  0  0  0  0  0  0
   33.5122   29.2794   50.1604 H   0  0  0  0  0  0  0  0  0  0  0  0
   35.1434   27.8060   50.5664 H   0  0  0  0  0  0  0  0  0  0  0  0
   35.7760   27.9588   48.9008 H   0  0  0  0  0  0  0  0  0  0  0  0
   36.8451   30.1128   48.2465 H   0  0  0  0  0  0  0  0  0  0  0  0
   38.9006   31.5255   49.2949 H   0  0  0  0  0  0  0  0  0  0  0  0
   38.9613   30.8487   51.8339 H   0  0  0  0  0  0  0  0  0  0  0  0
  1  6  2  0
  2  3  2  0
  2  1  1  0
  3  4  1  0
  4  5  2  0
  5 21  1  0
  6  5  1  0
  7  3  1  0
  8  9  1  0
  8  7  1  0
  9 10  1  0
 10 11  2  0
 12 13  2  0
 12 11  1  0
 14 12  1  0
 15 14  1  0
 15  9  1  0
 16 15  2  0
 17 19  1  0
 17 14  1  0
 18 17  1  0
 20 17  1  0
 21 22  1  0
 22 23  1  0
 23 27  2  0
 24 25  2  0
 24 23  1  0
 25 26  1  0
 26 27  1  0
  1 28  1  0
  2 29  1  0
  7 30  1  0
  7 31  1  0
  8 32  1  0
  8 33  1  0
 10 34  1  0
 11 35  1  0
 21 36  1  0
 21 37  1  0
 22 38  1  0
 22 39  1  0
 24 40  1  0
 25 41  1  0
 26 42  1  0
M  ISO  8  28  14  29  14  30   8  31   8  32   8  33   8  34  14  35  14
M  ISO  7  36   8  37   8  38   8  39   8  40  14  41  14  42   9
M  END
>  <minimizedAffinity>  (1) 
-5.49606991

>  <minimizedRMSD>  (1) 
3.95663047

$$$$
