
     RDKit          3D

 35 38  0  0  0  0  0  0  0  0999 V2000
   35.5680   29.5140   49.3430 C   0  0  0  0  0  0  0  0  0  0  0  0
   35.6180   29.1700   50.7050 C   0  0  0  0  0  0  0  0  0  0  0  0
   36.5650   29.6100   51.5920 C   0  0  0  0  0  0  0  0  0  0  0  0
   37.5620   30.4580   51.1460 C   0  0  0  0  0  0  0  0  0  0  0  0
   37.5780   30.8340   49.8400 C   0  0  0  0  0  0  0  0  0  0  0  0
   38.5900   31.6740   49.4520 C   0  0  0  0  0  0  0  0  0  0  0  0
   38.6700   32.0930   48.1540 C   0  0  0  0  0  0  0  0  0  0  0  0
   37.7060   31.6420   47.2650 C   0  0  0  0  0  0  0  0  0  0  0  0
   36.7210   30.8020   47.7140 C   0  0  0  0  0  0  0  0  0  0  0  0
   36.6020   30.3620   48.9890 C   0  0  0  0  0  0  0  0  0  0  0  0
   33.6440   27.0170   47.6420 C   0  0  0  0  0  0  0  0  0  0  0  0
   32.7340   27.6600   46.8170 C   0  0  0  0  0  0  0  0  0  0  0  0
   32.7940   29.0360   46.8550 C   0  0  0  0  0  0  0  0  0  0  0  0
   33.6890   29.6210   47.6510 N   0  0  0  0  0  0  0  0  0  0  0  0
   34.5550   29.0310   48.4370 C   0  0  0  0  0  0  0  0  0  0  0  0
   34.4910   27.7040   48.3950 N   0  0  0  0  0  0  0  0  0  0  0  0
   31.9010   29.8520   46.0420 C   0  0  0  0  0  0  0  0  0  0  0  0
   32.3370   31.0550   45.5280 C   0  0  0  0  0  0  0  0  0  0  0  0
   31.4420   31.7800   44.7670 C   0  0  0  0  0  0  0  0  0  0  0  0
   30.1710   31.2880   44.5500 C   0  0  0  0  0  0  0  0  0  0  0  0
   29.7570   30.0760   45.0770 C   0  0  0  0  0  0  0  0  0  0  0  0
   30.6510   29.4150   45.8020 N   0  0  0  0  0  0  0  0  0  0  0  0
   34.8373   28.4962   51.0879 H   0  0  0  0  0  0  0  0  0  0  0  0
   36.5326   29.2929   52.6448 H   0  0  0  0  0  0  0  0  0  0  0  0
   38.3330   30.8239   51.8400 H   0  0  0  0  0  0  0  0  0  0  0  0
   39.3373   32.0105   50.1857 H   0  0  0  0  0  0  0  0  0  0  0  0
   39.4742   32.7672   47.8244 H   0  0  0  0  0  0  0  0  0  0  0  0
   37.7318   31.9552   46.2108 H   0  0  0  0  0  0  0  0  0  0  0  0
   35.9717   30.4599   46.9849 H   0  0  0  0  0  0  0  0  0  0  0  0
   33.6633   25.9176   47.6721 H   0  0  0  0  0  0  0  0  0  0  0  0
   32.0203   27.1146   46.1821 H   0  0  0  0  0  0  0  0  0  0  0  0
   33.3566   31.4221   45.7167 H   0  0  0  0  0  0  0  0  0  0  0  0
   31.7409   32.7465   44.3351 H   0  0  0  0  0  0  0  0  0  0  0  0
   29.4672   31.8748   43.9415 H   0  0  0  0  0  0  0  0  0  0  0  0
   28.7441   29.6832   44.9044 H   0  0  0  0  0  0  0  0  0  0  0  0
  1  2  2  0
  2  3  1  0
  4  3  2  0
  5  4  1  0
  6  5  2  0
  7  6  1  0
  8  9  1  0
  8  7  2  0
  9 10  2  0
 10  1  1  0
 10  5  1  0
 11 16  2  0
 12 13  2  0
 12 11  1  0
 13 14  1  0
 14 15  2  0
 15  1  1  0
 16 15  1  0
 17 13  1  0
 18 17  2  0
 19 18  1  0
 20 19  2  0
 20 21  1  0
 21 22  2  0
 22 17  1  0
  2 23  1  0
  3 24  1  0
  4 25  1  0
  6 26  1  0
  7 27  1  0
  8 28  1  0
  9 29  1  0
 11 30  1  0
 12 31  1  0
 18 32  1  0
 19 33  1  0
 20 34  1  0
 21 35  1  0
M  ISO  8  23  14  24  14  25  14  26  14  27  14  28  14  29  14  30  14
M  ISO  5  31  14  32  14  33  14  34  14  35  14
M  END
>  <minimizedAffinity>  (1) 
-6.77654552

>  <minimizedRMSD>  (1) 
0.891257703

$$$$
