
     RDKit          3D

 38 40  0  0  1  0  0  0  0  0999 V2000
   36.3260   31.0840   48.2090 C   0  0  1  0  0  0  0  0  0  0  0  0
   37.6320   31.3590   47.5070 C   0  0  0  0  0  0  0  0  0  0  0  0
   38.3480   32.4810   47.8690 C   0  0  0  0  0  0  0  0  0  0  0  0
   39.5550   32.6920   47.1540 C   0  0  0  0  0  0  0  0  0  0  0  0
   39.9270   31.8230   46.1960 N   0  0  0  0  0  0  0  0  0  0  0  0
   39.1900   30.7080   45.8550 C   0  0  0  0  0  0  0  0  0  0  0  0
   38.0330   30.4890   46.5280 N   0  0  0  0  0  0  0  0  0  0  0  0
   35.8520   29.7360   48.0130 C   0  0  0  0  0  0  0  0  0  0  0  0
   34.7530   29.4930   47.1620 C   0  0  0  0  0  0  0  0  0  0  0  0
   34.4040   29.7230   45.8610 C   0  0  0  0  0  0  0  0  0  0  0  0
   33.1720   29.2340   45.5660 N   0  0  0  0  0  0  0  0  0  0  0  0
   32.6750   28.6690   46.6630 C   0  0  0  0  0  0  0  0  0  0  0  0
   33.6440   28.8320   47.6270 N   0  0  0  0  0  0  0  0  0  0  0  0
   33.4170   28.3090   49.0040 C   0  0  0  0  0  0  0  0  0  0  0  0
   32.0220   28.3340   49.3330 N   0  0  0  0  0  0  0  0  0  0  0  0
   36.6070   31.2600   49.7620 C   0  0  0  0  0  0  0  0  0  0  0  0
   37.0430   29.9600   50.3470 C   0  0  0  0  0  0  0  0  0  0  0  0
   37.4980   29.9050   51.7980 C   0  0  0  0  0  0  0  0  0  0  0  0
   36.1090   29.4460   51.4410 C   0  0  0  0  0  0  0  0  0  0  0  0
   35.5640   31.7682   47.8074 H   0  0  0  0  0  0  0  0  0  0  0  0
   38.0061   33.1660   48.6589 H   0  0  0  0  0  0  0  0  0  0  0  0
   40.1855   33.5640   47.3821 H   0  0  0  0  0  0  0  0  0  0  0  0
   39.5285   30.0210   45.0654 H   0  0  0  0  0  0  0  0  0  0  0  0
   36.6975   29.1566   47.6137 H   0  0  0  0  0  0  0  0  0  0  0  0
   35.4712   29.4541   49.0058 H   0  0  0  0  0  0  0  0  0  0  0  0
   35.0469   30.2441   45.1363 H   0  0  0  0  0  0  0  0  0  0  0  0
   31.6979   28.1765   46.7757 H   0  0  0  0  0  0  0  0  0  0  0  0
   33.7829   27.2732   49.0615 H   0  0  0  0  0  0  0  0  0  0  0  0
   33.9597   28.9462   49.7178 H   0  0  0  0  0  0  0  0  0  0  0  0
   31.9107   28.3360   50.3570 H   0  0  0  0  0  0  0  0  0  0  0  0
   31.5915   29.1828   48.9392 H   0  0  0  0  0  0  0  0  0  0  0  0
   37.3989   32.0096   49.9071 H   0  0  0  0  0  0  0  0  0  0  0  0
   35.6855   31.5925   50.2623 H   0  0  0  0  0  0  0  0  0  0  0  0
   37.4869   29.5935   49.4096 H   0  0  0  0  0  0  0  0  0  0  0  0
   38.2557   29.1701   52.1076 H   0  0  0  0  0  0  0  0  0  0  0  0
   37.9135   30.6358   52.5074 H   0  0  0  0  0  0  0  0  0  0  0  0
   35.2375   30.0443   51.7452 H   0  0  0  0  0  0  0  0  0  0  0  0
   35.5316   28.5231   51.5987 H   0  0  0  0  0  0  0  0  0  0  0  0
  1 16  1  0
  2  3  2  0
  2  1  1  0
  4  3  1  0
  5  4  2  0
  6  5  1  0
  6  7  2  0
  7  2  1  0
  8  1  1  0
  9 13  1  0
  9  8  1  0
 10  9  2  0
 11 10  1  0
 11 12  2  0
 12 13  1  0
 13 14  1  0
 14 15  1  0
 16 17  1  0
 17 19  1  0
 17 18  1  0
 19 18  1  0
  1 20  1  6
  3 21  1  0
  4 22  1  0
  6 23  1  0
  8 24  1  0
  8 25  1  0
 10 26  1  0
 12 27  1  0
 14 28  1  0
 14 29  1  0
 15 30  1  0
 15 31  1  0
 16 32  1  0
 16 33  1  0
 17 34  1  0
 18 35  1  0
 18 36  1  0
 19 37  1  0
 19 38  1  0
M  ISO  8  20   8  21  14  22  14  23  14  24   8  25   8  26  14  27  14
M  ISO  8  28   8  29   8  30   5  31   5  32   8  33   8  34  13  35  13
M  ISO  3  36  13  37  13  38  13
M  END
>  <minimizedAffinity>  (1) 
-5.00829363

>  <minimizedRMSD>  (1) 
1.77737498

$$$$
