
     RDKit          3D

 36 38  0  0  0  0  0  0  0  0999 V2000
   31.6610   26.6640   47.9200 C   0  0  0  0  0  0  0  0  0  0  0  0
   31.4770   25.3960   47.4390 C   0  0  0  0  0  0  0  0  0  0  0  0
   32.5120   24.5590   47.0720 C   0  0  0  0  0  0  0  0  0  0  0  0
   33.7830   25.0730   47.2150 C   0  0  0  0  0  0  0  0  0  0  0  0
   34.0150   26.3370   47.6930 C   0  0  0  0  0  0  0  0  0  0  0  0
   32.9540   27.1500   48.0510 C   0  0  0  0  0  0  0  0  0  0  0  0
   29.0410   28.3640   49.8600 C   0  0  0  0  0  0  0  0  0  0  0  0
   28.4130   29.1550   48.8650 C   0  0  0  0  0  0  0  0  0  0  0  0
   28.9070   29.0790   47.5720 C   0  0  0  0  0  0  0  0  0  0  0  0
   29.9720   28.2490   47.3130 N   0  0  0  0  0  0  0  0  0  0  0  0
   30.5380   27.5130   48.2950 C   0  0  0  0  0  0  0  0  0  0  0  0
   30.0770   27.5730   49.5430 N   0  0  0  0  0  0  0  0  0  0  0  0
   27.2640   30.0480   49.1540 C   0  0  0  0  0  0  0  0  0  0  0  0
   27.5680   31.0870   49.9860 F   0  0  0  0  0  0  0  0  0  0  0  0
   26.2260   29.3560   49.7520 F   0  0  0  0  0  0  0  0  0  0  0  0
   26.7770   30.5940   47.9620 F   0  0  0  0  0  0  0  0  0  0  0  0
   33.1290   28.5020   48.5640 C   0  0  0  0  0  0  0  0  0  0  0  0
   34.1980   29.3180   47.9150 C   0  0  0  0  0  0  0  0  0  0  0  0
   35.0940   29.8460   49.0250 C   0  0  0  0  0  0  0  0  0  0  0  0
   34.8980   29.3600   50.4140 C   0  0  0  0  0  0  0  0  0  0  0  0
   36.1210   28.9810   49.6330 C   0  0  0  0  0  0  0  0  0  0  0  0
   30.4471   25.0228   47.3392 H   0  0  0  0  0  0  0  0  0  0  0  0
   32.3331   23.5436   46.6887 H   0  0  0  0  0  0  0  0  0  0  0  0
   34.6426   24.4462   46.9354 H   0  0  0  0  0  0  0  0  0  0  0  0
   35.0467   26.7055   47.7921 H   0  0  0  0  0  0  0  0  0  0  0  0
   28.6768   28.3991   50.8974 H   0  0  0  0  0  0  0  0  0  0  0  0
   28.4537   29.6738   46.7653 H   0  0  0  0  0  0  0  0  0  0  0  0
   32.1754   29.0355   48.4373 H   0  0  0  0  0  0  0  0  0  0  0  0
   33.4438   28.3821   49.6112 H   0  0  0  0  0  0  0  0  0  0  0  0
   34.7823   28.6930   47.2236 H   0  0  0  0  0  0  0  0  0  0  0  0
   33.7618   30.1460   47.3369 H   0  0  0  0  0  0  0  0  0  0  0  0
   35.1130   30.8335   48.5409 H   0  0  0  0  0  0  0  0  0  0  0  0
   34.9775   30.0587   51.2599 H   0  0  0  0  0  0  0  0  0  0  0  0
   34.1080   28.8101   50.9465 H   0  0  0  0  0  0  0  0  0  0  0  0
   36.2497   27.9474   49.2793 H   0  0  0  0  0  0  0  0  0  0  0  0
   37.2056   29.0588   49.7988 H   0  0  0  0  0  0  0  0  0  0  0  0
  1  6  1  0
  1 11  1  0
  2  1  2  0
  3  4  2  0
  3  2  1  0
  4  5  1  0
  5  6  2  0
  6 17  1  0
  8 13  1  0
  8  7  2  0
  9  8  1  0
 10  9  2  0
 10 11  1  0
 11 12  2  0
 12  7  1  0
 13 15  1  0
 13 14  1  0
 16 13  1  0
 18 17  1  0
 18 19  1  0
 19 21  1  0
 19 20  1  0
 21 20  1  0
  2 22  1  0
  3 23  1  0
  4 24  1  0
  5 25  1  0
  7 26  1  0
  9 27  1  0
 17 28  1  0
 17 29  1  0
 18 30  1  0
 18 31  1  0
 19 32  1  0
 20 33  1  0
 20 34  1  0
 21 35  1  0
 21 36  1  0
M  ISO  8  22  14  23  14  24  14  25  14  26  14  27  14  28   8  29   8
M  ISO  7  30   8  31   8  32  13  33  13  34  13  35  13  36  13
M  END
>  <minimizedAffinity>  (1) 
-5.37179279

>  <minimizedRMSD>  (1) 
6.56127453

$$$$
