
     RDKit          3D

 33 36  0  0  0  0  0  0  0  0999 V2000
   37.0410   31.2370   48.1310 C   0  0  0  0  0  0  0  0  0  0  0  0
   36.9580   31.8090   49.3940 C   0  0  0  0  0  0  0  0  0  0  0  0
   37.8570   32.7970   49.8040 C   0  0  0  0  0  0  0  0  0  0  0  0
   38.8520   33.2170   48.9390 C   0  0  0  0  0  0  0  0  0  0  0  0
   38.9290   32.6430   47.6810 C   0  0  0  0  0  0  0  0  0  0  0  0
   39.8890   33.0040   46.7580 C   0  0  0  0  0  0  0  0  0  0  0  0
   39.9040   32.3820   45.5090 C   0  0  0  0  0  0  0  0  0  0  0  0
   38.9930   31.4110   45.1470 C   0  0  0  0  0  0  0  0  0  0  0  0
   38.0390   31.0580   46.0760 C   0  0  0  0  0  0  0  0  0  0  0  0
   38.0400   31.6770   47.2950 C   0  0  0  0  0  0  0  0  0  0  0  0
   35.1090   30.1100   46.8910 C   0  0  0  0  0  0  0  0  0  0  0  0
   36.0180   30.2450   47.9330 C   0  0  0  0  0  0  0  0  0  0  0  0
   35.9060   29.2590   48.9560 C   0  0  0  0  0  0  0  0  0  0  0  0
   34.9570   28.2860   48.8570 N   0  0  0  0  0  0  0  0  0  0  0  0
   34.1170   28.2220   47.8220 C   0  0  0  0  0  0  0  0  0  0  0  0
   34.2020   29.1440   46.8370 N   0  0  0  0  0  0  0  0  0  0  0  0
   33.1570   27.1210   47.8630 C   0  0  0  0  0  0  0  0  0  0  0  0
   33.2880   25.8110   47.4550 C   0  0  0  0  0  0  0  0  0  0  0  0
   32.0600   25.1960   47.7240 C   0  0  0  0  0  0  0  0  0  0  0  0
   31.2620   26.1790   48.2790 C   0  0  0  0  0  0  0  0  0  0  0  0
   31.9400   27.3030   48.3470 O   0  0  0  0  0  0  0  0  0  0  0  0
   36.1690   31.4777   50.0851 H   0  0  0  0  0  0  0  0  0  0  0  0
   37.7742   33.2382   50.8082 H   0  0  0  0  0  0  0  0  0  0  0  0
   39.5691   33.9930   49.2451 H   0  0  0  0  0  0  0  0  0  0  0  0
   40.6348   33.7742   47.0042 H   0  0  0  0  0  0  0  0  0  0  0  0
   40.6747   32.6783   44.7822 H   0  0  0  0  0  0  0  0  0  0  0  0
   39.0272   30.9371   44.1549 H   0  0  0  0  0  0  0  0  0  0  0  0
   37.2878   30.2897   45.8406 H   0  0  0  0  0  0  0  0  0  0  0  0
   35.1433   30.8409   46.0697 H   0  0  0  0  0  0  0  0  0  0  0  0
   36.5832   29.2833   49.8225 H   0  0  0  0  0  0  0  0  0  0  0  0
   34.1778   25.3434   47.0083 H   0  0  0  0  0  0  0  0  0  0  0  0
   31.7865   24.1477   47.5333 H   0  0  0  0  0  0  0  0  0  0  0  0
   30.2225   26.0420   48.6116 H   0  0  0  0  0  0  0  0  0  0  0  0
  1  2  2  0
  2  3  1  0
  4  3  2  0
  5  4  1  0
  6  5  2  0
  7  6  1  0
  8  7  2  0
  8  9  1  0
  9 10  2  0
 10  5  1  0
 10  1  1  0
 11 12  2  0
 12  1  1  0
 12 13  1  0
 14 13  2  0
 15 17  1  0
 15 14  1  0
 16 11  1  0
 16 15  2  0
 17 21  1  0
 18 19  1  0
 18 17  2  0
 19 20  2  0
 20 21  1  0
  2 22  1  0
  3 23  1  0
  4 24  1  0
  6 25  1  0
  7 26  1  0
  8 27  1  0
  9 28  1  0
 11 29  1  0
 13 30  1  0
 18 31  1  0
 19 32  1  0
 20 33  1  0
M  ISO  8  22  14  23  14  24  14  25  14  26  14  27  14  28  14  29  14
M  ISO  4  30  14  31  14  32  14  33  14
M  END
>  <minimizedAffinity>  (1) 
-6.58491039

>  <minimizedRMSD>  (1) 
3.24647522

$$$$
