
     RDKit          3D

 41 43  0  0  1  0  0  0  0  0999 V2000
   38.3870   31.1170   47.8270 C   0  0  0  0  0  0  0  0  0  0  0  0
   38.8570   32.4500   47.9010 C   0  0  0  0  0  0  0  0  0  0  0  0
   39.6310   32.7310   46.2550 S   0  0  0  0  0  0  0  0  0  0  0  0
   39.1650   30.9410   45.7510 C   0  0  0  0  0  0  0  0  0  0  0  0
   38.6470   30.5470   46.6620 N   0  0  0  0  0  0  0  0  0  0  0  0
   38.1070   30.8610   50.2660 C   0  0  0  0  0  0  0  0  0  0  0  0
   37.6910   30.5280   48.9730 C   0  0  0  0  0  0  0  0  0  0  0  0
   36.6180   29.6480   48.8650 C   0  0  0  0  0  0  0  0  0  0  0  0
   36.0350   29.1610   49.9840 N   0  0  0  0  0  0  0  0  0  0  0  0
   36.4670   29.5070   51.2130 C   0  0  0  0  0  0  0  0  0  0  0  0
   37.5080   30.3610   51.3490 N   0  0  0  0  0  0  0  0  0  0  0  0
   39.4840   30.3560   44.4030 C   0  0  2  0  0  0  0  0  0  0  0  0
   40.3940   31.3150   43.7090 C   0  0  0  0  0  0  0  0  0  0  0  0
   38.1810   30.1930   43.6420 C   0  0  0  0  0  0  0  0  0  0  0  0
   38.1280   29.0200   42.7410 C   0  0  0  0  0  0  0  0  0  0  0  0
   39.1040   27.9840   43.3140 C   0  0  0  0  0  0  0  0  0  0  0  0
   39.4540   26.9490   42.2860 C   0  0  0  0  0  0  0  0  0  0  0  0
   40.2770   27.6110   41.2000 C   0  0  0  0  0  0  0  0  0  0  0  0
   39.7960   28.9840   40.8470 C   0  0  0  0  0  0  0  0  0  0  0  0
   38.4020   29.2940   41.3060 C   0  0  0  0  0  0  0  0  0  0  0  0
   38.7782   33.1525   48.7438 H   0  0  0  0  0  0  0  0  0  0  0  0
   38.9514   31.5543   50.3941 H   0  0  0  0  0  0  0  0  0  0  0  0
   36.2458   29.3499   47.8737 H   0  0  0  0  0  0  0  0  0  0  0  0
   35.9733   29.0952   52.1056 H   0  0  0  0  0  0  0  0  0  0  0  0
   39.9742   29.3740   44.4771 H   0  0  0  0  0  0  0  0  0  0  0  0
   40.9493   31.9002   44.4568 H   0  0  0  0  0  0  0  0  0  0  0  0
   41.1031   30.7574   43.0794 H   0  0  0  0  0  0  0  0  0  0  0  0
   39.8001   31.9939   43.0794 H   0  0  0  0  0  0  0  0  0  0  0  0
   37.3667   30.0976   44.3753 H   0  0  0  0  0  0  0  0  0  0  0  0
   38.0863   31.0804   42.9989 H   0  0  0  0  0  0  0  0  0  0  0  0
   37.0907   28.6545   42.7207 H   0  0  0  0  0  0  0  0  0  0  0  0
   40.0228   28.4954   43.6369 H   0  0  0  0  0  0  0  0  0  0  0  0
   38.6223   27.4825   44.1663 H   0  0  0  0  0  0  0  0  0  0  0  0
   40.0374   26.1428   42.7546 H   0  0  0  0  0  0  0  0  0  0  0  0
   38.5373   26.5193   41.8558 H   0  0  0  0  0  0  0  0  0  0  0  0
   41.3184   27.6842   41.5467 H   0  0  0  0  0  0  0  0  0  0  0  0
   40.1838   26.9906   40.2964 H   0  0  0  0  0  0  0  0  0  0  0  0
   40.4786   29.7150   41.3049 H   0  0  0  0  0  0  0  0  0  0  0  0
   39.7816   29.0366   39.7484 H   0  0  0  0  0  0  0  0  0  0  0  0
   38.2138   30.3621   41.1224 H   0  0  0  0  0  0  0  0  0  0  0  0
   37.7396   28.6246   40.7376 H   0  0  0  0  0  0  0  0  0  0  0  0
  1  2  2  0
  1  7  1  0
  3  2  1  0
  4  3  1  0
  4  5  2  0
  5  1  1  0
  6 11  2  0
  7  6  1  0
  8  7  2  0
  8  9  1  0
  9 10  2  0
 10 11  1  0
 12  4  1  0
 13 12  1  0
 14 12  1  0
 15 16  1  0
 15 14  1  0
 17 16  1  0
 18 17  1  0
 19 18  1  0
 19 20  1  0
 20 15  1  0
  2 21  1  0
  6 22  1  0
  8 23  1  0
 10 24  1  0
 12 25  1  1
 13 26  1  0
 13 27  1  0
 13 28  1  0
 14 29  1  0
 14 30  1  0
 15 31  1  0
 16 32  1  0
 16 33  1  0
 17 34  1  0
 17 35  1  0
 18 36  1  0
 18 37  1  0
 19 38  1  0
 19 39  1  0
 20 40  1  0
 20 41  1  0
M  ISO  8  21  14  22  14  23  14  24  14  25   8  26   8  27   8  28   8
M  ISO  8  29   8  30   8  31  13  32  13  33  13  34  13  35  13  36  13
M  ISO  5  37  13  38  13  39  13  40  13  41  13
M  END
>  <minimizedAffinity>  (1) 
-5.34583855

>  <minimizedRMSD>  (1) 
1.23680818

$$$$
