
     RDKit          3D

 49 52  0  0  1  0  0  0  0  0999 V2000
   37.6940   31.3600   44.7020 C   0  0  0  0  0  0  0  0  0  0  0  0
   37.8990   32.5820   44.5740 O   0  0  0  0  0  0  0  0  0  0  0  0
   38.1300   30.5580   43.5990 N   0  0  0  0  0  0  0  0  0  0  0  0
   38.8640   29.3470   43.9470 C   0  0  0  0  0  0  0  0  0  0  0  0
   39.6160   28.8080   42.7500 C   0  0  0  0  0  0  0  0  0  0  0  0
   40.0430   29.9130   42.0220 O   0  0  0  0  0  0  0  0  0  0  0  0
   38.9270   30.3470   41.2970 C   0  0  0  0  0  0  0  0  0  0  0  0
   37.8630   30.9200   42.2060 C   0  0  2  0  0  0  0  0  0  0  0  0
   37.1460   30.2090   48.2500 C   0  0  0  0  0  0  0  0  0  0  0  0
   37.8010   30.7220   47.0780 C   0  0  0  0  0  0  0  0  0  0  0  0
   37.0540   30.8420   45.9060 C   0  0  0  0  0  0  0  0  0  0  0  0
   35.7540   30.4640   45.9570 N   0  0  0  0  0  0  0  0  0  0  0  0
   35.1810   29.9940   47.0590 C   0  0  0  0  0  0  0  0  0  0  0  0
   35.8670   29.8690   48.1890 N   0  0  0  0  0  0  0  0  0  0  0  0
   33.7390   29.6300   46.9180 C   0  0  0  0  0  0  0  0  0  0  0  0
   32.9690   30.7710   46.7060 F   0  0  0  0  0  0  0  0  0  0  0  0
   33.5630   28.8550   45.7900 F   0  0  0  0  0  0  0  0  0  0  0  0
   33.2610   28.8890   47.9850 F   0  0  0  0  0  0  0  0  0  0  0  0
   37.8950   30.0940   49.4070 O   0  0  0  0  0  0  0  0  0  0  0  0
   37.9300   31.0490   50.4250 C   0  0  0  0  0  0  0  0  0  0  0  0
   39.1310   31.7310   50.4870 F   0  0  0  0  0  0  0  0  0  0  0  0
   36.8770   31.9180   50.4280 F   0  0  0  0  0  0  0  0  0  0  0  0
   37.8180   30.2920   51.6180 F   0  0  0  0  0  0  0  0  0  0  0  0
   38.0500   32.3010   42.1570 O   0  0  0  0  0  0  0  0  0  0  0  0
   37.6070   33.0550   41.0890 C   0  0  0  0  0  0  0  0  0  0  0  0
   38.2780   33.6720   40.0570 C   0  0  0  0  0  0  0  0  0  0  0  0
   37.6170   34.3870   39.0820 C   0  0  0  0  0  0  0  0  0  0  0  0
   36.2530   34.5210   39.0880 C   0  0  0  0  0  0  0  0  0  0  0  0
   35.5570   33.9130   40.1110 C   0  0  0  0  0  0  0  0  0  0  0  0
   34.1870   34.0840   40.0640 C   0  0  0  0  0  0  0  0  0  0  0  0
   33.4180   33.5090   41.0490 C   0  0  0  0  0  0  0  0  0  0  0  0
   34.0190   32.7810   42.0520 C   0  0  0  0  0  0  0  0  0  0  0  0
   35.3860   32.6400   42.0560 C   0  0  0  0  0  0  0  0  0  0  0  0
   36.2120   33.1850   41.1070 C   0  0  0  0  0  0  0  0  0  0  0  0
   39.5811   29.5784   44.7484 H   0  0  0  0  0  0  0  0  0  0  0  0
   38.1452   28.5849   44.2825 H   0  0  0  0  0  0  0  0  0  0  0  0
   40.4805   28.2134   43.0805 H   0  0  0  0  0  0  0  0  0  0  0  0
   38.9764   28.1528   42.1403 H   0  0  0  0  0  0  0  0  0  0  0  0
   39.2436   31.1227   40.5843 H   0  0  0  0  0  0  0  0  0  0  0  0
   38.5002   29.4809   40.7699 H   0  0  0  0  0  0  0  0  0  0  0  0
   36.8683   30.5650   41.8985 H   0  0  0  0  0  0  0  0  0  0  0  0
   38.8618   31.0119   47.1045 H   0  0  0  0  0  0  0  0  0  0  0  0
   39.3740   33.5918   40.0095 H   0  0  0  0  0  0  0  0  0  0  0  0
   38.1988   34.8623   38.2785 H   0  0  0  0  0  0  0  0  0  0  0  0
   35.7327   35.0926   38.3053 H   0  0  0  0  0  0  0  0  0  0  0  0
   33.7210   34.6674   39.2562 H   0  0  0  0  0  0  0  0  0  0  0  0
   32.3248   33.6304   41.0357 H   0  0  0  0  0  0  0  0  0  0  0  0
   33.4106   32.3169   42.8422 H   0  0  0  0  0  0  0  0  0  0  0  0
   35.8441   32.0559   42.8678 H   0  0  0  0  0  0  0  0  0  0  0  0
  1 11  1  0
  2  1  2  0
  3  4  1  0
  3  1  1  0
  5  4  1  0
  6  5  1  0
  7  6  1  0
  7  8  1  0
  8  3  1  0
  9 19  1  0
 10  9  2  0
 11 12  2  0
 11 10  1  0
 12 13  1  0
 13 14  2  0
 14  9  1  0
 15 13  1  0
 15 18  1  0
 16 15  1  0
 17 15  1  0
 19 20  1  0
 20 22  1  0
 20 21  1  0
 20 23  1  0
 24  8  1  0
 25 34  1  0
 25 24  1  0
 26 25  2  0
 27 28  2  0
 27 26  1  0
 28 29  1  0
 29 34  2  0
 30 29  1  0
 30 31  2  0
 31 32  1  0
 32 33  2  0
 34 33  1  0
  4 35  1  0
  4 36  1  0
  5 37  1  0
  5 38  1  0
  7 39  1  0
  7 40  1  0
  8 41  1  6
 10 42  1  0
 26 43  1  0
 27 44  1  0
 28 45  1  0
 30 46  1  0
 31 47  1  0
 32 48  1  0
 33 49  1  0
M  ISO  8  35  13  36  13  37  13  38  13  39  13  40  13  41  13  42  14
M  ISO  7  43  14  44  14  45  14  46  14  47  14  48  14  49  14
M  END
>  <minimizedAffinity>  (1) 
-6.3518796

>  <minimizedRMSD>  (1) 
5.14859533

$$$$
