
     RDKit          3D

 20 21  0  0  0  0  0  0  0  0999 V2000
   36.9470   30.0440   49.9920 C   0  0  0  0  0  0  0  0  0  0  0  0
   37.8550   31.0760   49.7740 C   0  0  0  0  0  0  0  0  0  0  0  0
   37.8870   31.6590   48.5000 C   0  0  0  0  0  0  0  0  0  0  0  0
   37.0400   31.1900   47.5580 N   0  0  0  0  0  0  0  0  0  0  0  0
   36.1610   30.1700   47.8140 C   0  0  0  0  0  0  0  0  0  0  0  0
   36.1250   29.6110   49.0230 N   0  0  0  0  0  0  0  0  0  0  0  0
   38.8080   32.7460   48.1830 C   0  0  0  0  0  0  0  0  0  0  0  0
   39.1350   33.7760   49.0420 C   0  0  0  0  0  0  0  0  0  0  0  0
   40.0320   34.5580   48.3160 C   0  0  0  0  0  0  0  0  0  0  0  0
   40.1950   33.9660   47.0740 C   0  0  0  0  0  0  0  0  0  0  0  0
   39.4480   32.8980   47.0500 O   0  0  0  0  0  0  0  0  0  0  0  0
   36.9030   29.4110   51.3540 C   0  0  0  0  0  0  0  0  0  0  0  0
   35.5910   29.0880   51.6820 F   0  0  0  0  0  0  0  0  0  0  0  0
   37.7410   28.3400   51.3650 F   0  0  0  0  0  0  0  0  0  0  0  0
   37.3140   30.3700   52.2690 F   0  0  0  0  0  0  0  0  0  0  0  0
   38.5250   31.4224   50.5747 H   0  0  0  0  0  0  0  0  0  0  0  0
   35.4859   29.8132   47.0222 H   0  0  0  0  0  0  0  0  0  0  0  0
   38.7706   33.9419   50.0665 H   0  0  0  0  0  0  0  0  0  0  0  0
   40.5219   35.4786   48.6659 H   0  0  0  0  0  0  0  0  0  0  0  0
   40.8367   34.3302   46.2582 H   0  0  0  0  0  0  0  0  0  0  0  0
  1 12  1  0
  2  1  2  0
  3  2  1  0
  4  5  1  0
  4  3  2  0
  5  6  2  0
  6  1  1  0
  7  3  1  0
  7  8  2  0
  9  8  1  0
 10  9  2  0
 11 10  1  0
 11  7  1  0
 12 14  1  0
 12 13  1  0
 12 15  1  0
  2 16  1  0
  5 17  1  0
  8 18  1  0
  9 19  1  0
 10 20  1  0
M  ISO  5  16  14  17  14  18  14  19  14  20  14
M  END
>  <minimizedAffinity>  (1) 
-5.31639194

>  <minimizedRMSD>  (1) 
1.08735049

$$$$
